data_functionalizedCrystal
_audit_creation_method	'MofGen! by Chris Wilmer'
_symmetry_space_group_name_H-M	'P1'
_symmetry_Int_Tables_number	1
_symmetry_cell_setting	triclinic
loop_
_symmetry_equiv_pos_as_xyz
  x,y,z
_cell_length_a	15.944551
_cell_length_b	14.044220
_cell_length_c	14.421503
_cell_angle_alpha	90.000302
_cell_angle_beta	89.988429
_cell_angle_gamma	88.343808
loop_
_atom_site_label
_atom_site_type_symbol
_atom_site_fract_x
_atom_site_fract_y
_atom_site_fract_z
O1	O	-1.123664	-0.122244	-0.077017
O2	O	-0.623664	0.377756	0.422983
O3	O	-0.880243	-0.137316	-0.077040
O4	O	-0.380243	0.362684	0.422960
O5	O	-0.998300	0.008205	-0.077020
O6	O	-0.498300	0.508205	0.422980
O7	O	-1.005607	-0.267765	-0.077037
O8	O	-0.505607	0.232235	0.422963
O9	O	-0.998316	0.008196	0.077204
O10	O	-0.498316	0.508196	0.577204
O11	O	-0.880259	-0.137325	0.077183
O12	O	-0.380259	0.362675	0.577183
O13	O	-1.123680	-0.122253	0.077207
O14	O	-0.623680	0.377747	0.577207
Cu15	Cu	-1.001971	-0.129790	0.091277
Cu16	Cu	-0.501971	0.370210	0.591277
Cu17	Cu	-1.001952	-0.129779	-0.091110
Cu18	Cu	-0.501952	0.370221	0.408890
O19	O	-1.005624	-0.267774	0.077186
O20	O	-0.505624	0.232226	0.577186
C21	C	-0.848910	-0.136695	0.000069
C22	C	-0.348910	0.363305	0.500069
C23	C	-0.755524	-0.134819	0.000060
C24	C	-0.255524	0.365181	0.500060
C25	C	-0.995109	0.043515	0.000092
C26	C	-0.495109	0.543515	0.500092
C27	C	-0.985568	0.148741	0.000092
C28	C	-0.485568	0.648741	0.500092
C29	C	-1.155013	-0.122874	0.000096
C30	C	-0.655013	0.377126	0.500096
C31	C	-1.248399	-0.124750	0.000098
C32	C	-0.748399	0.375250	0.500098
C33	C	-0.533577	-0.040135	0.000084
C34	C	-0.033577	0.459865	0.500084
C35	C	-0.475841	-0.084098	-0.075959
C36	C	0.024159	0.415902	0.424041
C37	C	-0.584544	-0.131425	0.000071
C38	C	-0.084544	0.368575	0.500071
C39	C	-0.475881	-0.084129	0.076093
C40	C	0.024119	0.415871	0.576093
C41	C	-0.419385	-0.128141	0.000086
C42	C	0.080615	0.371859	0.500086
C43	C	-0.528038	-0.175414	-0.076035
C44	C	-0.028038	0.324586	0.423965
C45	C	-0.528083	-0.175432	0.076086
C46	C	-0.028083	0.324568	0.576086
C47	C	-0.470370	-0.219462	0.000024
C48	C	0.029630	0.280538	0.500024
C49	C	-0.679688	-0.133315	0.000062
C50	C	-0.179688	0.366685	0.500062
C51	C	-0.324243	-0.126258	0.000089
C52	C	0.175757	0.373742	0.500089
C53	C	-1.008814	-0.303084	0.000072
C54	C	-0.508814	0.196916	0.500072
C55	C	-1.018355	-0.408310	0.000066
C56	C	-0.518355	0.091690	0.500066
N57	N	-1.001991	-0.129797	0.219558
N58	N	-0.501991	0.370203	0.719558
C59	C	-0.968124	0.341404	0.000077
C60	C	-0.468124	0.841404	0.500077
C61	C	-1.035795	0.399033	0.000081
C62	C	-0.535795	0.899033	0.500081
C63	C	-1.026089	0.506237	0.000073
C64	C	-0.526089	1.006237	0.500073
C65	C	-0.977829	0.234190	0.000086
C66	C	-0.477829	0.734190	0.500086
N67	N	-1.001938	-0.129764	-0.219392
N68	N	-0.501938	0.370236	0.280608
C69	C	-1.056592	-0.062494	0.469196
C70	C	-0.556592	0.437506	0.969196
C71	C	-0.979314	-0.044080	0.530987
C72	C	-0.479314	0.455920	1.030987
C73	C	-1.001971	-0.129786	0.408719
C74	C	-0.501971	0.370214	0.908719
C75	C	-1.079228	-0.148144	0.531022
C76	C	-0.579228	0.351856	1.031022
C77	C	-1.001959	-0.129773	0.591441
C78	C	-0.501959	0.370227	1.091441
C79	C	-0.924652	-0.111330	0.469150
C80	C	-0.424652	0.388670	0.969150
C81	C	-1.024618	-0.215431	0.469179
C82	C	-0.524618	0.284569	0.969179
C83	C	-0.947288	-0.197054	0.530942
C84	C	-0.447288	0.302946	1.030942
C85	C	-1.001979	-0.129791	0.303458
C86	C	-0.501979	0.370209	0.803458
C87	C	-1.001942	-0.129768	0.696700
C88	C	-0.501942	0.370232	1.196700
H89	H	-0.561237	0.035629	-0.000005
H90	H	-0.061237	0.535629	0.499995
H91	H	-0.452833	-0.045482	-0.140243
H92	H	0.047167	0.454518	0.359757
H93	H	-0.551110	-0.214017	0.140373
H94	H	-0.051110	0.285983	0.640373
H95	H	-0.452910	-0.045504	0.140379
H96	H	0.047090	0.454496	0.640379
H97	H	-1.101019	0.367858	0.000025
H98	H	-0.601019	0.867858	0.500025
H99	H	-0.902905	0.372577	0.000069
H100	H	-0.402905	0.872577	0.500069
H101	H	-1.043805	-0.287842	0.442009
H102	H	-0.543805	0.212158	0.942009
H103	H	-0.550908	-0.213994	-0.140393
H104	H	-0.050908	0.286006	0.359607
H105	H	-1.102728	-0.005555	0.442084
H106	H	-0.602728	0.494445	0.942084
H107	H	-0.442890	-0.295304	-0.000023
H108	H	0.057110	0.204696	0.499977
H109	H	-0.960149	0.028354	0.558137
H110	H	-0.460149	0.528354	1.058137
H111	H	-0.859291	-0.095714	0.442086
H112	H	-0.359291	0.404286	0.942086
H113	H	-0.901037	-0.253959	0.557883
H114	H	-0.401037	0.246041	1.057883
H115	H	-1.144567	-0.163678	0.558200
H116	H	-0.644567	0.336322	1.058200
