data_functionalizedCrystal
_audit_creation_method	'MofGen! by Chris Wilmer'
_symmetry_space_group_name_H-M	'P1'
_symmetry_Int_Tables_number	1
_symmetry_cell_setting	triclinic
loop_
_symmetry_equiv_pos_as_xyz
  x,y,z
_cell_length_a	14.971507
_cell_length_b	9.616153
_cell_length_c	14.971486
_cell_angle_alpha	89.997534
_cell_angle_beta	83.618395
_cell_angle_gamma	89.992022
loop_
_atom_site_label
_atom_site_type_symbol
_atom_site_fract_x
_atom_site_fract_y
_atom_site_fract_z
O1	O	-1.186937	0.115682	-0.116648
O2	O	-0.686937	0.615682	0.383352
O3	O	-0.926539	0.115677	-0.130587
O4	O	-0.426539	0.615677	0.369413
O5	O	-1.063717	0.115670	0.006582
O6	O	-0.563717	0.615670	0.506582
O7	O	-1.049758	0.115689	-0.253817
O8	O	-0.549758	0.615689	0.246183
O9	O	-1.063698	-0.115622	0.006579
O10	O	-0.563698	0.384378	0.506579
O11	O	-0.926520	-0.115614	-0.130590
O12	O	-0.426520	0.384386	0.369410
O13	O	-1.186918	-0.115609	-0.116651
O14	O	-0.686918	0.384391	0.383349
Zn15	Zn	-1.056716	-0.152334	-0.123621
Zn16	Zn	-0.556716	0.347666	0.376379
Zn17	Zn	-1.056741	0.152402	-0.123617
Zn18	Zn	-0.556741	0.652402	0.376383
O19	O	-1.049740	-0.115602	-0.253820
O20	O	-0.549740	0.384398	0.246180
C21	C	-0.893205	0.000031	-0.129962
C22	C	-0.393205	0.500031	0.370038
C23	C	-0.793909	0.000029	-0.128084
C24	C	-0.293909	0.500029	0.371916
C25	C	-0.355627	0.000039	-0.201501
C26	C	0.144373	0.500039	0.298499
C27	C	-0.448927	0.000047	-0.203259
C28	C	0.051073	0.500047	0.296741
C29	C	-0.506147	0.000036	-0.122666
C30	C	-0.006147	0.500036	0.377334
C31	C	-0.470062	0.000031	-0.040311
C32	C	0.029938	0.500031	0.459689
C33	C	-0.376764	0.000033	-0.038554
C34	C	0.123236	0.500033	0.461446
C35	C	-0.664525	0.000024	-0.043978
C36	C	-0.164525	0.500024	0.456022
C37	C	-0.757830	0.000019	-0.045735
C38	C	-0.257830	0.500019	0.454265
C39	C	-0.736688	0.000038	-0.208683
C40	C	-0.236688	0.500038	0.291317
C41	C	-0.643390	0.000040	-0.206926
C42	C	-0.143390	0.500040	0.293074
C43	C	-0.607312	0.000032	-0.124570
C44	C	-0.107312	0.500032	0.375430
N45	N	-1.056706	-0.360309	-0.123623
N46	N	-0.556706	0.139691	0.376377
C47	C	-0.983104	-0.580675	-0.196757
C48	C	-0.483104	-0.080675	0.303243
C49	C	-0.983263	-0.419507	-0.197028
C50	C	-0.483263	0.080493	0.302972
C51	C	-1.150058	-0.418755	-0.144116
C52	C	-0.650058	0.081245	0.355884
C53	C	-1.149656	-0.579973	-0.144633
C54	C	-0.649656	-0.079973	0.355367
C55	C	-1.037888	-0.580228	-0.029751
C56	C	-0.537888	-0.080228	0.470249
C57	C	-1.035737	-0.419001	-0.030378
C58	C	-0.535737	0.080999	0.469622
C59	C	-0.220252	0.000035	-0.117276
C60	C	0.279748	0.500035	0.382724
C61	C	-0.319548	0.000030	-0.119152
C62	C	0.180452	0.500030	0.380848
C63	C	-1.063084	0.000025	0.039905
C64	C	-0.563084	0.500025	0.539905
C65	C	-1.061213	0.000026	0.139202
C66	C	-0.561213	0.500026	0.639202
N67	N	-1.056758	0.360377	-0.123608
N68	N	-0.556758	0.860377	0.376392
C69	C	-1.050373	0.000046	-0.287143
C70	C	-0.550373	0.500046	0.212857
C71	C	-1.052244	0.000054	-0.386441
C72	C	-0.552244	0.500054	0.113559
C73	C	-1.141801	0.000026	0.196422
C74	C	-0.641801	0.500026	0.696422
C75	C	-1.140038	0.000040	0.289721
C76	C	-0.640038	0.500040	0.789721
C77	C	-1.057686	0.000044	0.325800
C78	C	-0.557686	0.500044	0.825800
C79	C	-0.977091	0.000047	0.268573
C80	C	-0.477091	0.500047	0.768573
C81	C	-0.978855	0.000043	0.175275
C82	C	-0.478855	0.500043	0.675275
C83	C	-0.973420	0.000052	0.463036
C84	C	-0.473420	0.500052	0.963036
C85	C	-0.971656	0.000054	0.556340
C86	C	-0.471656	0.500054	1.056340
C87	C	-1.134603	0.000049	0.577482
C88	C	-0.634603	0.500049	1.077482
C89	C	-1.136367	0.000045	0.484184
C90	C	-0.636367	0.500045	0.984184
C91	C	-1.055772	0.000046	0.426964
C92	C	-0.555772	0.500046	0.926964
H93	H	-0.596803	0.000040	-0.272551
H94	H	-0.096803	0.500040	0.227449
Br95	Br	-0.327799	0.000025	0.073209
Br96	Br	0.172201	0.500025	0.573209
H97	H	-0.766067	0.000043	-0.275740
H98	H	-0.266067	0.500043	0.224260
Br99	Br	-1.119329	-0.351868	0.064615
Br100	Br	-0.619329	0.148132	0.564615
H101	H	-0.913232	0.000043	0.128688
H102	H	-0.413232	0.500043	0.628688
H103	H	-0.913876	-0.379995	-0.184802
H104	H	-0.413876	0.120005	0.315198
H105	H	-0.635155	0.000024	0.023084
H106	H	-0.135155	0.500024	0.523084
Br107	Br	-1.243593	-0.354850	-0.057687
Br108	Br	-0.743593	0.145150	0.442313
H109	H	-0.516658	0.000030	0.025308
H110	H	-0.016658	0.500030	0.525308
Br111	Br	-1.249413	0.000041	0.367374
Br112	Br	-0.749413	0.500041	0.867374
H113	H	-0.913498	-0.619488	-0.184729
H114	H	-0.413498	-0.119488	0.315271
Br115	Br	-1.002937	-0.648133	-0.312193
Br116	Br	-0.502937	-0.148133	0.187807
H117	H	-0.804417	0.000022	0.019890
H118	H	-0.304417	0.500022	0.519890
H119	H	-0.309044	0.000037	-0.267129
H120	H	0.190956	0.500037	0.232871
Br121	Br	-0.497887	0.000073	-0.315023
Br122	Br	0.002113	0.500073	0.184977
Br123	Br	-1.003312	-0.355183	-0.313126
Br124	Br	-0.503312	0.144817	0.186874
H125	H	-1.200227	0.000053	0.624075
H126	H	-0.700227	0.500053	1.124075
Br127	Br	-1.177346	-0.642621	-0.258723
Br128	Br	-0.677346	-0.142621	0.241277
H129	H	-0.910038	0.000059	0.297955
H130	H	-0.410038	0.500059	0.797955
H131	H	-1.206181	-0.618963	-0.093461
H132	H	-0.706181	-0.118963	0.406539
H133	H	-1.167060	-0.378359	-0.211790
H134	H	-0.667060	0.121641	0.288210
Br135	Br	-0.926875	-0.648080	0.003033
Br136	Br	-0.426875	-0.148080	0.503033
Br137	Br	-0.921279	-0.355343	-0.004457
Br138	Br	-0.421279	0.144657	0.495543
Br139	Br	-1.127409	-0.643758	0.060980
Br140	Br	-0.627409	-0.143758	0.560980
H141	H	-1.208862	0.000015	0.167054
H142	H	-0.708862	0.500015	0.667054
H143	H	-0.907791	0.000057	0.416449
H144	H	-0.407791	0.500057	0.916449
H145	H	-1.203426	0.000032	0.454812
H146	H	-0.703426	0.500032	0.954812
Br147	Br	-0.859891	0.000052	0.605304
Br148	Br	-0.359891	0.500052	1.105304
