data_functionalizedCrystal
_audit_creation_method	'MofGen! by Chris Wilmer'
_symmetry_space_group_name_H-M	'P1'
_symmetry_Int_Tables_number	1
_symmetry_cell_setting	triclinic
loop_
_symmetry_equiv_pos_as_xyz
  x,y,z
_cell_length_a	16.625546
_cell_length_b	14.908571
_cell_length_c	14.908694
_cell_angle_alpha	96.407528
_cell_angle_beta	93.266239
_cell_angle_gamma	93.281505
loop_
_atom_site_label
_atom_site_type_symbol
_atom_site_fract_x
_atom_site_fract_y
_atom_site_fract_z
Zn1	Zn	-0.424492	-1.413322	-0.591483
Zn2	Zn	-0.091158	-1.079989	-0.258150
Zn3	Zn	0.242175	-0.746655	0.075184
Zn4	Zn	-0.551076	-1.404485	-0.440111
Zn5	Zn	-0.217742	-1.071151	-0.106778
Zn6	Zn	0.115591	-0.737818	0.226556
Zn7	Zn	-0.408000	-1.253225	-0.431419
Zn8	Zn	-0.074666	-0.919891	-0.098086
Zn9	Zn	0.258667	-0.586558	0.235247
Zn10	Zn	-0.551013	-1.261916	-0.582709
Zn11	Zn	-0.217680	-0.928583	-0.249376
Zn12	Zn	0.115654	-0.595250	0.083957
O13	O	-0.483645	-1.333237	-0.511431
O14	O	-0.150312	-0.999904	-0.178097
O15	O	0.183022	-0.666570	0.155236
O16	O	-0.448211	-1.538816	-0.578713
O17	O	-0.114878	-1.205483	-0.245379
O18	O	0.218455	-0.872150	0.087954
O19	O	-0.525221	-1.377084	-0.312293
O20	O	-0.191887	-1.043750	0.021041
O21	O	0.141446	-0.710417	0.354374
O22	O	-0.297360	-1.274523	-0.452687
O23	O	0.035973	-0.941190	-0.119353
O24	O	0.369307	-0.607857	0.213980
O25	O	-0.541212	-1.532323	-0.467500
O26	O	-0.207879	-1.198990	-0.134167
O27	O	0.125454	-0.865657	0.199167
O28	O	-0.309477	-1.392146	-0.570285
O29	O	0.023857	-1.058813	-0.236951
O30	O	0.357190	-0.725479	0.096382
O31	O	-0.420103	-1.265954	-0.305907
O32	O	-0.086770	-0.932620	0.027426
O33	O	0.246563	-0.599287	0.360760
O34	O	-0.420043	-1.127711	-0.444179
O35	O	-0.086709	-0.794378	-0.110846
O36	O	0.246624	-0.461044	0.222488
O37	O	-0.541106	-1.289337	-0.710538
O38	O	-0.207772	-0.956003	-0.377205
O39	O	0.125561	-0.622670	-0.043872
O40	O	-0.525114	-1.134097	-0.555331
O41	O	-0.191781	-0.800763	-0.221998
O42	O	0.141553	-0.467430	0.111336
O43	O	-0.448151	-1.400574	-0.716984
O44	O	-0.114817	-1.067240	-0.383651
O45	O	0.218516	-0.733907	-0.050318
O46	O	-0.663895	-1.385511	-0.458992
O47	O	-0.330562	-1.052178	-0.125659
O48	O	0.002772	-0.718845	0.207674
O49	O	-0.663849	-1.280767	-0.563759
O50	O	-0.330516	-0.947434	-0.230425
O51	O	0.002818	-0.614100	0.102908
C52	C	-0.693129	-1.333149	-0.511388
C53	C	-0.359796	-0.999816	-0.178054
C54	C	-0.026463	-0.666482	0.155279
C55	C	-0.782754	-1.333196	-0.511404
C56	C	-0.449420	-0.999863	-0.178071
C57	C	-0.116087	-0.666529	0.155262
C58	C	-0.470782	-1.098061	-0.497860
C59	C	-0.137449	-0.764727	-0.164527
C60	C	0.195884	-0.431394	0.168807
C61	C	-0.465300	-0.997453	-0.492076
C62	C	-0.131967	-0.664119	-0.158743
C63	C	0.201366	-0.330786	0.174591
C64	C	-0.496461	-1.346910	-0.747522
C65	C	-0.163128	-1.013577	-0.414189
C66	C	0.170206	-0.680244	-0.080856
C67	C	-0.501922	-1.352737	-0.848131
C68	C	-0.168589	-1.019404	-0.514797
C69	C	0.164744	-0.686071	-0.181464
C70	C	-1.110943	-1.333359	-0.511508
C71	C	-0.777610	-1.000026	-0.178175
C72	C	-0.444276	-0.666693	0.155159
C73	C	-1.019631	-1.333311	-0.511481
C74	C	-0.686297	-0.999978	-0.178148
C75	C	-0.352964	-0.666645	0.155185
C76	C	-0.946851	-1.333277	-0.511456
C77	C	-0.613518	-0.999944	-0.178122
C78	C	-0.280184	-0.666610	0.155211
C79	C	-0.855533	-1.333230	-0.511430
C80	C	-0.522200	-0.999897	-0.178097
C81	C	-0.188866	-0.666564	0.155236
C82	C	-0.273345	-1.333351	-0.511495
C83	C	0.059988	-1.000018	-0.178161
C84	C	0.393321	-0.666684	0.155172
C85	C	-0.183728	-1.333399	-0.511522
C86	C	0.149605	-1.000066	-0.178189
C87	C	0.482939	-0.666733	0.155144
C88	C	-0.496558	-1.569331	-0.525055
C89	C	-0.163225	-1.235998	-0.191721
C90	C	0.170108	-0.902665	0.141612
C91	C	-0.502061	-1.669941	-0.530860
C92	C	-0.168728	-1.336608	-0.197527
C93	C	0.164605	-1.003274	0.135806
C94	C	-0.564561	-0.815088	-0.596794
C95	C	-0.231228	-0.481755	-0.263461
C96	C	0.102105	-0.148421	0.069872
C97	C	-0.559413	-0.720558	-0.591363
C98	C	-0.226080	-0.387224	-0.258030
C99	C	0.107254	-0.053891	0.075304
C100	C	-0.449852	-0.713861	-0.475787
C101	C	-0.116519	-0.380527	-0.142454
C102	C	0.216814	-0.047194	0.190880
C103	C	-0.455001	-0.808391	-0.481218
C104	C	-0.121667	-0.475058	-0.147885
C105	C	0.211666	-0.141724	0.185448
C106	C	-0.512358	-0.859001	-0.541723
C107	C	-0.179024	-0.525668	-0.208390
C108	C	0.154309	-0.192335	0.124944
C109	C	-0.517509	-0.953533	-0.547149
C110	C	-0.184176	-0.620199	-0.213816
C111	C	0.149157	-0.286866	0.119517
C112	C	-0.407945	-0.946834	-0.431579
C113	C	-0.074612	-0.613501	-0.098245
C114	C	0.258721	-0.280168	0.235088
C115	C	-0.402797	-0.852304	-0.426147
C116	C	-0.069464	-0.518971	-0.092814
C117	C	0.263869	-0.185638	0.240519
C118	C	-0.402727	-1.247946	-1.030535
C119	C	-0.069394	-0.914613	-0.697202
C120	C	0.263940	-0.581279	-0.363869
C121	C	-0.407855	-1.253418	-1.125066
C122	C	-0.074522	-0.920084	-0.791732
C123	C	0.258811	-0.586751	-0.458399
C124	C	-0.517311	-1.369147	-1.131723
C125	C	-0.183978	-1.035814	-0.798390
C126	C	0.149355	-0.702481	-0.465056
C127	C	-0.512183	-1.363676	-1.037193
C128	C	-0.178849	-1.030342	-0.703859
C129	C	0.154484	-0.697009	-0.370526
C130	C	-0.454888	-1.303074	-0.986602
C131	C	-0.121554	-0.969740	-0.653269
C132	C	0.211779	-0.636407	-0.319935
C133	C	-0.449756	-1.297607	-0.892070
C134	C	-0.116423	-0.964274	-0.558737
C135	C	0.216911	-0.630941	-0.225404
C136	C	-0.559215	-1.413332	-0.898729
C137	C	-0.225882	-1.079998	-0.565396
C138	C	0.107452	-0.746665	-0.232063
C139	C	-0.564343	-1.418803	-0.993259
C140	C	-0.231010	-1.085470	-0.659926
C141	C	0.102323	-0.752137	-0.326593
C142	C	-0.470824	-1.319669	-0.276260
C143	C	-0.137490	-0.986335	0.057073
C144	C	0.195843	-0.653002	0.390406
C145	C	-0.465145	-1.314017	-0.175663
C146	C	-0.131812	-0.980684	0.157671
C147	C	0.201522	-0.647351	0.491004
H148	H	-0.564214	-0.994738	-0.596414
H149	H	-0.230880	-0.661405	-0.263081
H150	H	0.102453	-0.328072	0.070253
H151	H	-0.611268	-0.856295	-0.646055
H152	H	-0.277934	-0.522962	-0.312722
H153	H	0.055399	-0.189629	0.020612
H154	H	-0.601686	-1.458224	-0.862949
H155	H	-0.268352	-1.124891	-0.529616
H156	H	0.064981	-0.791557	-0.196283
Cl157	Cl	-0.625042	-0.665355	-0.660600
Cl158	Cl	-0.291708	-0.332022	-0.327267
Cl159	Cl	0.041625	0.001311	0.006066
H160	H	-0.365381	-1.208527	-1.160832
H161	H	-0.032047	-0.875194	-0.827499
H162	H	0.301286	-0.541860	-0.494165
Cl163	Cl	-0.589343	-1.445312	-1.195337
Cl164	Cl	-0.256010	-1.111979	-0.862003
Cl165	Cl	0.077323	-0.778646	-0.528670
Cl166	Cl	-0.377741	-0.650222	-0.399744
Cl167	Cl	-0.044408	-0.316889	-0.066411
Cl168	Cl	0.288925	0.016444	0.266922
H169	H	-0.356097	-0.811085	-0.376888
H170	H	-0.022763	-0.477751	-0.043555
H171	H	0.310570	-0.144418	0.289778
Cl172	Cl	-0.636370	-1.494981	-1.056867
Cl173	Cl	-0.303036	-1.161647	-0.723534
Cl174	Cl	0.030297	-0.828314	-0.390200
H175	H	-0.365439	-0.982598	-0.386734
H176	H	-0.032106	-0.649265	-0.053400
H177	H	0.301228	-0.315932	0.279933
H178	H	-0.356068	-1.198610	-0.989344
H179	H	-0.022735	-0.865276	-0.656011
H180	H	0.310598	-0.531943	-0.322677
Cl181	Cl	-0.377727	-1.221425	-0.828472
Cl182	Cl	-0.044394	-0.888092	-0.495139
Cl183	Cl	0.288939	-0.554759	-0.161805
