data_functionalizedCrystal
_audit_creation_method	'MofGen! by Chris Wilmer'
_symmetry_space_group_name_H-M	'P1'
_symmetry_Int_Tables_number	1
_symmetry_cell_setting	triclinic
loop_
_symmetry_equiv_pos_as_xyz
  x,y,z
_cell_length_a	14.519731
_cell_length_b	14.519709
_cell_length_c	15.186229
_cell_angle_alpha	89.995307
_cell_angle_beta	89.996550
_cell_angle_gamma	83.684499
loop_
_atom_site_label
_atom_site_type_symbol
_atom_site_fract_x
_atom_site_fract_y
_atom_site_fract_z
O1	O	1.223854	0.120984	-0.073232
O2	O	0.955380	0.135200	-0.073234
O3	O	1.096735	-0.006146	-0.073225
O4	O	1.082499	0.262330	-0.073241
O5	O	1.096726	-0.006148	0.073232
O6	O	0.955370	0.135198	0.073223
O7	O	1.223845	0.120982	0.073225
Zn8	Zn	1.089606	0.128089	0.096477
Zn9	Zn	1.089618	0.128092	-0.096486
O10	O	1.082489	0.262327	0.073216
C11	C	0.921016	0.134532	-0.000005
C12	C	0.818635	0.132536	-0.000006
C13	C	0.735491	0.130915	-0.000009
C14	C	0.631182	0.128888	-0.000009
C15	C	0.548043	0.127280	-0.000009
C16	C	0.443728	0.125253	-0.000011
C17	C	1.096067	-0.040507	0.000004
C18	C	1.094079	-0.142889	0.000004
C19	C	1.086759	-0.517785	-0.000019
C20	C	1.088792	-0.413477	-0.000012
C21	C	1.090419	-0.330340	-0.000007
C22	C	1.092452	-0.226025	-0.000002
C23	C	1.258209	0.121649	-0.000006
C24	C	1.360589	0.123645	-0.000011
C25	C	1.083157	0.296688	-0.000015
C26	C	1.085146	0.399070	-0.000021
N27	N	1.089604	0.128087	0.228170
N28	N	1.089627	0.128087	-0.228179
C29	C	1.152218	0.065520	0.453897
C30	C	1.152221	0.065518	0.546086
C31	C	1.027007	0.190657	0.546088
C32	C	1.027001	0.190654	0.453900
C33	C	1.089611	0.128087	0.407807
C34	C	1.089621	0.128087	0.592184
C35	C	1.089623	0.128085	0.692140
C36	C	1.089607	0.128087	0.307844
H37	H	1.203199	0.014570	0.583610
C38	C	0.959173	0.258637	0.403741
C39	C	1.008387	0.315184	0.350786
C40	C	0.945938	0.377808	0.304559
H41	H	0.921865	0.295994	0.444294
H42	H	0.920742	0.225397	0.367736
H43	H	1.046802	0.348421	0.386788
H44	H	1.045692	0.277853	0.310217
H45	H	0.907506	0.344568	0.268554
H46	H	0.908633	0.415158	0.345119
H47	H	0.979320	0.416176	0.268618
H48	H	1.203198	0.014573	0.416370
C49	C	0.958889	0.258480	0.596090
C50	C	0.868245	0.243298	0.573698
C51	C	0.805470	0.305752	0.619751
H52	H	0.968876	0.320094	0.581013
H53	H	0.967800	0.249517	0.657603
H54	H	0.859338	0.252269	0.512199
H55	H	0.858229	0.181696	0.588778
H56	H	0.814380	0.296789	0.681264
H57	H	0.815465	0.367362	0.604670
H58	H	0.743961	0.295454	0.604570
