data_functionalizedCrystal
_audit_creation_method	'MofGen! by Chris Wilmer'
_symmetry_space_group_name_H-M	'P1'
_symmetry_Int_Tables_number	1
_symmetry_cell_setting	triclinic
loop_
_symmetry_equiv_pos_as_xyz
  x,y,z
_cell_length_a	16.109301
_cell_length_b	16.109301
_cell_length_c	18.366186
_cell_angle_alpha	89.992337
_cell_angle_beta	89.993316
_cell_angle_gamma	83.461532
loop_
_atom_site_label
_atom_site_type_symbol
_atom_site_fract_x
_atom_site_fract_y
_atom_site_fract_z
O1	O	1.103137	0.106869	-0.060512
O2	O	0.861075	0.120168	-0.060522
O3	O	0.988756	-0.007512	-0.060510
O4	O	0.975456	0.234550	-0.060525
O5	O	0.988734	-0.007518	0.060590
O6	O	0.861053	0.120162	0.060577
O7	O	1.103115	0.106863	0.060587
Zn8	Zn	0.982081	0.113512	0.079809
Zn9	Zn	0.982110	0.113520	-0.079744
O10	O	0.975435	0.234544	0.060574
C11	C	0.830089	0.119627	0.000026
C12	C	0.737794	0.118011	0.000022
C13	C	0.988206	-0.038490	0.000041
C14	C	0.986591	-0.130785	0.000041
C15	C	0.428796	0.188494	0.000030
C16	C	0.515516	0.190020	0.000026
C17	C	0.535389	0.038531	0.000026
C18	C	0.448671	0.037007	0.000025
C19	C	0.395376	0.111991	0.000031
C20	C	0.568815	0.115041	0.000028
C21	C	0.662841	0.116694	0.000023
C22	C	0.301344	0.110338	0.000034
C23	C	1.058599	-0.353058	0.000033
C24	C	1.057075	-0.439778	0.000027
C25	C	0.905586	-0.419904	0.000023
C26	C	0.907111	-0.333185	0.000024
C27	C	0.983620	-0.299765	0.000033
C28	C	0.980571	-0.473204	0.000026
C29	C	0.978918	-0.567230	0.000019
C30	C	0.985273	-0.205733	0.000038
C31	C	1.134101	0.107405	0.000037
C32	C	1.226396	0.109020	0.000036
C33	C	0.975984	0.265522	0.000023
C34	C	0.977599	0.357817	0.000017
N35	N	0.982068	0.113505	0.188700
N36	N	0.982130	0.113519	-0.188635
C37	C	1.038623	0.056996	0.226807
C38	C	1.038628	0.056992	0.303034
C39	C	0.982086	0.113512	0.341153
C40	C	0.925520	0.170026	0.303038
C41	C	0.925511	0.170022	0.226811
C42	C	0.971173	0.189235	0.461908
C43	C	0.971188	0.189239	0.538133
C44	C	0.982110	0.113523	0.576261
C45	C	0.993034	0.037798	0.538154
C46	C	0.993025	0.037795	0.461927
C47	C	0.982089	0.113522	0.423808
C48	C	1.038674	0.057005	0.697022
C49	C	1.038673	0.057000	0.773251
C50	C	0.925569	0.170040	0.773253
C51	C	0.925565	0.170038	0.697025
C52	C	0.982122	0.113521	0.658914
H53	H	0.542722	0.252317	0.000025
H54	H	0.578792	-0.022518	0.000023
O55	O	1.099640	-0.003984	0.655913
H56	H	1.090131	0.005505	0.596506
H57	H	0.421461	-0.025296	0.000023
O58	O	0.826234	-0.275699	0.000033
H59	H	0.789621	-0.287574	-0.049321
H60	H	0.879528	0.216057	0.804289
O61	O	0.823072	-0.455959	0.000026
H62	H	0.787051	-0.434553	-0.049335
H63	H	1.084684	0.010974	0.334066
H64	H	0.879516	0.216056	0.665997
O65	O	1.099687	-0.003947	0.814350
H66	H	1.089132	-0.068768	0.799726
O67	O	1.141114	-0.317006	0.000027
H68	H	1.192995	-0.368637	0.000017
O69	O	1.137944	-0.497262	0.000037
H70	H	1.191398	-0.459450	0.000050
H71	H	0.962298	0.250898	0.569154
O72	O	0.864505	0.230968	0.185702
H73	H	0.899481	0.271383	0.150954
H74	H	0.879481	0.216044	0.334078
H75	H	0.385405	0.249551	0.000035
H76	H	1.084673	0.010975	0.195779
H77	H	1.001918	-0.023862	0.430904
H78	H	1.001927	-0.023857	0.569195
H79	H	0.962264	0.250896	0.430871
