data_functionalizedCrystal
_audit_creation_method	'MofGen! by Chris Wilmer'
_symmetry_space_group_name_H-M	'P1'
_symmetry_Int_Tables_number	1
_symmetry_cell_setting	triclinic
loop_
_symmetry_equiv_pos_as_xyz
  x,y,z
_cell_length_a	13.339070
_cell_length_b	15.995350
_cell_length_c	11.804365
_cell_angle_alpha	101.833003
_cell_angle_beta	74.875130
_cell_angle_gamma	99.560835
loop_
_atom_site_label
_atom_site_type_symbol
_atom_site_fract_x
_atom_site_fract_y
_atom_site_fract_z
O1	O	1.362724	0.407602	-0.099048
O2	O	1.068197	0.352506	-0.099044
O3	O	1.223511	0.260037	-0.099045
O4	O	1.207410	0.500071	-0.099047
O5	O	1.182623	0.284347	0.099011
O6	O	1.027308	0.376816	0.099012
O7	O	1.321836	0.431912	0.099008
Cu8	Cu	1.170839	0.406583	0.117094
Cu9	Cu	1.219194	0.377835	-0.117130
O10	O	1.166521	0.524381	0.099009
C11	C	1.010063	0.355354	-0.000015
C12	C	0.897761	0.327613	-0.000014
C13	C	0.532972	0.543314	-0.000035
C14	C	0.638486	0.569380	-0.000040
C15	C	0.703310	0.508941	-0.000033
C16	C	0.662610	0.422430	-0.000022
C17	C	0.557088	0.396360	-0.000026
C18	C	0.727425	0.361987	-0.000024
C19	C	0.686725	0.275476	-0.000013
C20	C	0.581213	0.249410	-0.000017
C21	C	0.516389	0.309850	-0.000024
C22	C	0.832947	0.388057	-0.000020
C23	C	0.857062	0.241103	-0.000012
C24	C	0.751549	0.215036	-0.000007
C25	C	1.202402	0.240842	-0.000019
C26	C	1.200408	0.147427	-0.000026
C27	C	1.193240	-0.191985	-0.000022
C28	C	1.082719	-0.170302	-0.000464
C29	C	1.084623	-0.073093	-0.000018
C30	C	1.196795	-0.023599	-0.000025
C31	C	1.228004	-0.038120	0.113072
C32	C	1.225206	-0.135389	0.113167
C33	C	1.273989	-0.162861	-0.112060
C34	C	1.274271	-0.066105	-0.113555
C35	C	1.198810	0.071567	-0.000022
C36	C	1.191227	-0.287149	-0.000016
C37	C	1.379970	0.429063	-0.000023
C38	C	1.492274	0.456804	-0.000032
C39	C	1.187631	0.543575	-0.000019
C40	C	1.189627	0.636989	-0.000020
N41	N	1.136835	0.426805	0.281835
N42	N	1.253205	0.357608	-0.281871
C43	C	1.334859	0.309033	0.655782
C44	C	1.360581	0.293731	0.531121
C45	C	1.304647	0.326998	0.468793
C46	C	1.222986	0.375570	0.531140
C47	C	1.197267	0.390878	0.655814
C48	C	1.167054	0.408844	0.468824
C49	C	1.085394	0.457415	0.531171
C50	C	1.059678	0.472721	0.655833
C51	C	1.115613	0.439454	0.718160
C52	C	1.192774	0.393535	0.344150
C53	C	1.055181	0.475380	0.344182
C54	C	1.029459	0.490682	0.468843
H55	H	0.789224	0.530169	-0.000040
H56	H	0.993193	0.512278	0.706596
H57	H	0.480187	0.592513	-0.000050
H58	H	0.962970	0.530230	0.519622
O59	O	0.677839	0.653451	0.000008
C60	C	0.598008	0.701203	-0.000026
H61	H	0.518585	0.665684	0.037470
H62	H	0.608188	0.767182	0.057474
H63	H	0.602697	0.709359	-0.095044
O64	O	1.162189	-0.002462	0.213608
C65	C	1.191282	-0.016105	0.314354
H66	H	1.277110	-0.027290	0.289004
H67	H	1.179366	0.042816	0.387242
H68	H	1.140898	-0.074870	0.348281
O69	O	1.012995	-0.040041	0.096831
C70	C	0.912603	-0.082954	0.091721
H71	H	0.920230	-0.148915	0.033317
H72	H	0.865816	-0.091074	0.185337
H73	H	0.870584	-0.043574	0.052377
O74	O	1.439896	0.246501	0.470746
C75	C	1.483767	0.220437	0.552485
H76	H	1.423958	0.220746	0.641361
H77	H	1.506638	0.152740	0.516464
H78	H	1.556177	0.266746	0.565727
H79	H	0.430470	0.288631	-0.000019
O80	O	1.001005	0.507752	0.283521
C81	C	1.070052	0.563180	0.211416
H82	H	1.153065	0.545963	0.192724
H83	H	1.045913	0.555834	0.123759
H84	H	1.067011	0.632561	0.259457
H85	H	1.380399	0.281957	0.706538
O86	O	1.090616	0.454472	0.839261
C87	C	1.102602	0.543850	0.880910
H88	H	1.096693	0.579538	0.809071
H89	H	1.038463	0.560303	0.964321
H90	H	1.182339	0.563981	0.903018
O91	O	0.872386	0.472093	-0.000184
C92	C	0.860466	0.497821	-0.102778
H93	H	0.794348	0.453797	-0.136977
H94	H	0.841051	0.566975	-0.079713
H95	H	0.936356	0.493494	-0.174601
H96	H	0.548081	0.178966	-0.000021
H97	H	0.718397	0.144597	-0.000007
H98	H	0.909843	0.191887	-0.000011
H99	H	1.167968	-0.152556	0.197713
H100	H	1.058474	-0.064585	-0.081090
O101	O	1.050076	-0.216637	-0.097248
C102	C	1.126726	-0.269335	-0.166073
H103	H	1.177164	-0.280721	-0.107472
H104	H	1.086950	-0.333626	-0.204698
H105	H	1.178044	-0.236272	-0.241700
H106	H	1.259262	0.353989	0.293399
O107	O	1.329732	0.312019	0.347698
C108	C	1.413816	0.262033	0.306033
H109	H	1.416650	0.225088	0.377877
H110	H	1.402526	0.214648	0.222641
H111	H	1.490263	0.305940	0.283890
O112	O	1.010482	-0.194072	0.095847
C113	C	1.059380	-0.230267	0.163604
H114	H	1.146469	-0.206113	0.144364
H115	H	1.022917	-0.210577	0.262380
H116	H	1.048293	-0.303376	0.138860
H117	H	1.305357	-0.148142	0.118294
O118	O	1.325275	0.002270	0.117944
C119	C	1.366691	0.044329	0.018858
H120	H	1.300002	0.057301	-0.016524
H121	H	1.414061	0.107884	0.046836
H122	H	1.419500	0.001813	-0.053861
H123	H	1.255521	-0.202324	-0.197781
H124	H	1.251655	-0.058393	-0.197221
H125	H	1.357482	-0.032578	-0.120388
H126	H	1.355701	-0.175769	-0.112825
