data_functionalizedCrystal
_audit_creation_method	'MofGen! by Chris Wilmer'
_symmetry_space_group_name_H-M	'P1'
_symmetry_Int_Tables_number	1
_symmetry_cell_setting	triclinic
loop_
_symmetry_equiv_pos_as_xyz
  x,y,z
_cell_length_a	15.944551
_cell_length_b	10.654541
_cell_length_c	9.130307
_cell_angle_alpha	90.003083
_cell_angle_beta	89.997029
_cell_angle_gamma	83.991333
loop_
_atom_site_label
_atom_site_type_symbol
_atom_site_fract_x
_atom_site_fract_y
_atom_site_fract_z
O1	O	-1.115457	-0.161964	-0.121646
O2	O	-0.871023	-0.181933	-0.121682
O3	O	-0.998861	0.010863	-0.121654
O4	O	-0.987619	-0.354761	-0.121674
O5	O	-0.998857	0.010865	0.121945
O6	O	-0.871019	-0.181931	0.121917
O7	O	-1.115453	-0.161963	0.121953
Cu8	Cu	-0.993236	-0.171947	0.144177
Cu9	Cu	-0.993240	-0.171949	-0.143907
O10	O	-0.987615	-0.354759	0.121925
C11	C	-0.839722	-0.181103	0.000113
C12	C	-0.746462	-0.178618	0.000099
C13	C	-0.998034	0.057652	0.000144
C14	C	-0.995566	0.197063	0.000141
C15	C	-1.146754	-0.162793	0.000155
C16	C	-1.240014	-0.165278	0.000159
C17	C	-0.530880	-0.053173	0.000134
C18	C	-0.470199	-0.111426	-0.119976
C19	C	-0.575710	-0.174122	0.000116
C20	C	-0.470217	-0.111453	0.120193
C21	C	-0.410772	-0.169770	0.000140
C22	C	-0.516257	-0.232408	-0.120093
C23	C	-0.516282	-0.232418	0.120184
C24	C	-0.455618	-0.290760	0.000045
C25	C	-0.670727	-0.176625	0.000102
C26	C	-0.315756	-0.167276	0.000144
C27	C	-0.988442	-0.401548	0.000123
C28	C	-0.990910	-0.540959	0.000117
N29	N	-0.993238	-0.171945	0.346800
C30	C	-1.148431	0.227012	0.000183
C31	C	-1.223700	0.307480	0.000206
C32	C	-1.221376	0.438468	0.000201
C33	C	-1.143774	0.488989	0.000168
C34	C	-1.068504	0.408521	0.000145
C35	C	-1.070837	0.277532	0.000154
C36	C	-0.915641	0.378573	0.000093
C37	C	-0.917963	0.247584	0.000109
C38	C	-0.838039	0.429094	0.000060
C39	C	-0.762767	0.348625	0.000047
C40	C	-0.765095	0.217630	0.000054
C41	C	-0.842694	0.167116	0.000085
N42	N	-0.993244	-0.171941	-0.346529
C43	C	-1.106485	-0.001272	0.346815
C44	C	-1.163115	0.084060	0.423489
C45	C	-1.163123	0.084061	0.576823
C46	C	-1.106494	-0.001277	0.653485
C47	C	-1.049865	-0.086610	0.576811
C48	C	-1.049865	-0.086604	0.423474
C49	C	-0.936615	-0.257274	0.576797
C50	C	-0.936609	-0.257283	0.423463
C51	C	-0.879987	-0.342612	0.653459
C52	C	-0.823360	-0.427953	0.576785
C53	C	-0.823355	-0.427951	0.423443
C54	C	-0.879980	-0.342616	0.346789
H55	H	-0.563632	0.047204	-0.000009
C56	C	-0.442906	-0.043423	0.255644
C57	C	-0.387870	-0.126137	0.338725
C58	C	-0.362689	-0.063498	0.463493
H59	H	-0.491056	-0.015389	0.312738
H60	H	-0.414991	0.027138	0.226822
H61	H	-0.415785	-0.196675	0.367549
H62	H	-0.339708	-0.154175	0.281675
H63	H	-0.334774	0.007062	0.434671
H64	H	-0.410844	-0.035467	0.520575
H65	H	-0.325339	-0.119607	0.519872
H66	H	-0.536542	-0.283527	-0.221748
C67	C	-1.307868	0.252384	0.000320
C68	C	-1.293799	0.120448	0.000361
C69	C	-1.371313	0.069657	0.000482
H70	H	-1.338965	0.279858	-0.084594
H71	H	-1.338891	0.279940	0.085313
H72	H	-1.262789	0.092904	-0.084624
H73	H	-1.262715	0.092940	0.085269
H74	H	-1.402336	0.097212	0.085476
H75	H	-1.402404	0.097140	-0.084433
H76	H	-1.361778	-0.019866	0.000524
H77	H	-1.282667	0.503986	0.000209
C78	C	-0.412216	-0.424760	-0.000346
C79	C	-0.435564	-0.487485	-0.126328
C80	C	-0.395588	-0.610919	-0.126755
H81	H	-0.428660	-0.468195	0.084064
H82	H	-0.352808	-0.422506	0.000386
H83	H	-0.494958	-0.489746	-0.127047
H84	H	-0.419118	-0.444089	-0.210759
H85	H	-0.336181	-0.608665	-0.126023
H86	H	-0.412035	-0.654342	-0.042340
H87	H	-0.411418	-0.653490	-0.212238
H88	H	-1.150331	0.120356	0.000206
H89	H	-0.836151	0.535752	0.000047
H90	H	-0.777237	-0.497435	0.361022
C91	C	-0.678606	0.403720	0.000084
C92	C	-0.692681	0.535656	0.000106
C93	C	-0.615170	0.586457	0.000161
H94	H	-0.647521	0.376230	-0.084847
H95	H	-0.647568	0.376188	0.085061
H96	H	-0.723705	0.563177	-0.084863
H97	H	-0.723752	0.563181	0.085030
H98	H	-0.584132	0.558924	0.085138
H99	H	-0.584091	0.558957	-0.084771
H100	H	-0.624709	0.675979	0.000189
C101	C	-0.543663	-0.300373	0.255624
C102	C	-0.599916	-0.218275	0.337228
C103	C	-0.625170	-0.280824	0.462005
H104	H	-0.495655	-0.327033	0.313697
H105	H	-0.570659	-0.371829	0.226832
H106	H	-0.572919	-0.146842	0.366022
H107	H	-0.647937	-0.191611	0.279198
H108	H	-0.652166	-0.352280	0.433213
H109	H	-0.577157	-0.307481	0.520065
H110	H	-0.663346	-0.225134	0.517381
C111	C	-0.683398	0.130207	-0.000275
C112	C	-0.680269	0.054144	-0.125616
C113	C	-0.605016	-0.026389	-0.125980
H114	H	-0.681037	0.078374	0.084576
H115	H	-0.636829	0.179016	-0.000377
H116	H	-0.726824	0.005339	-0.125501
H117	H	-0.682615	0.105942	-0.210488
H118	H	-0.558447	0.022420	-0.126082
H119	H	-0.602662	-0.078213	-0.041123
H120	H	-0.602879	-0.077999	-0.211028
H121	H	-1.141888	0.595648	0.000146
C122	C	-1.224484	0.176706	0.340025
C123	C	-1.179337	0.253621	0.251923
C124	C	-1.235851	0.338941	0.174988
H125	H	-1.258257	0.227652	0.407448
H126	H	-1.259667	0.131454	0.280151
H127	H	-1.144170	0.298869	0.311792
H128	H	-1.145568	0.202710	0.184472
H129	H	-1.271033	0.293690	0.115114
H130	H	-1.269620	0.389878	0.242421
H131	H	-1.205227	0.391131	0.115191
C132	C	-0.443048	-0.042985	-0.255239
C133	C	-0.481480	0.081345	-0.254666
C134	C	-0.456484	0.144442	-0.379230
H135	H	-0.459567	-0.084987	-0.340641
H136	H	-0.383499	-0.042501	-0.254708
H137	H	-0.541016	0.080854	-0.255212
H138	H	-0.464966	0.123381	-0.169293
H139	H	-0.396934	0.144926	-0.378699
H140	H	-0.473004	0.102430	-0.464622
H141	H	-0.482549	0.228809	-0.378851
C142	C	-1.224693	0.176771	0.659813
C143	C	-1.274294	0.251492	0.559867
C144	C	-1.331026	0.336901	0.636264
H145	H	-1.194273	0.229194	0.719637
H146	H	-1.259964	0.131590	0.719596
H147	H	-1.239028	0.296670	0.500109
H148	H	-1.304733	0.199104	0.500040
H149	H	-1.366297	0.291720	0.696047
H150	H	-1.300598	0.389315	0.696085
H151	H	-1.364692	0.387602	0.568463
C152	C	-0.761746	-0.520447	0.659943
C153	C	-0.679093	-0.499968	0.622670
C154	C	-0.622311	-0.585138	0.699267
H155	H	-0.771231	-0.604332	0.634886
H156	H	-0.769801	-0.508209	0.762257
H157	H	-0.671041	-0.512216	0.520379
H158	H	-0.669581	-0.416100	0.647731
H159	H	-0.630367	-0.572901	0.801581
H160	H	-0.631804	-0.669018	0.674204
H161	H	-0.566225	-0.571248	0.673998
H162	H	-0.844597	0.060461	0.000099
H163	H	-1.106491	-0.001275	0.221963
H164	H	-1.106498	-0.001261	0.778338
H165	H	-0.879992	-0.342603	0.778312
H166	H	-0.879984	-0.342611	0.221937
