data_functionalizedCrystal
_audit_creation_method	'MofGen! by Chris Wilmer'
_symmetry_space_group_name_H-M	'P1'
_symmetry_Int_Tables_number	1
_symmetry_cell_setting	triclinic
loop_
_symmetry_equiv_pos_as_xyz
  x,y,z
_cell_length_a	19.121063
_cell_length_b	14.908783
_cell_length_c	14.908854
_cell_angle_alpha	90.167510
_cell_angle_beta	88.966655
_cell_angle_gamma	95.893785
loop_
_atom_site_label
_atom_site_type_symbol
_atom_site_fract_x
_atom_site_fract_y
_atom_site_fract_z
Zn1	Zn	-0.192888	1.334162	-0.597749
Zn2	Zn	0.307112	1.834162	-0.097749
Zn3	Zn	-0.316756	1.335563	-0.453745
Zn4	Zn	0.183244	1.835563	0.046255
Zn5	Zn	-0.206422	1.191686	-0.439411
Zn6	Zn	0.293578	1.691686	0.060589
Zn7	Zn	-0.317479	1.176551	-0.595407
Zn8	Zn	0.182521	1.676551	-0.095407
O9	O	-0.258386	1.259491	-0.521578
O10	O	0.241614	1.759491	-0.021578
O11	O	-0.203353	1.460521	-0.585625
O12	O	0.296647	1.960521	-0.085625
O13	O	-0.307481	1.323398	-0.326292
O14	O	0.192519	1.823398	0.173708
O15	O	-0.106310	1.216333	-0.455396
O16	O	0.393690	1.716333	0.044604
O17	O	-0.294358	1.461551	-0.479826
O18	O	0.205642	1.961551	0.020174
O19	O	-0.096367	1.321010	-0.571726
O20	O	0.403633	1.821010	-0.071726
O21	O	-0.226420	1.217692	-0.315761
O22	O	0.273580	1.717692	0.184239
O23	O	-0.227121	1.063505	-0.453125
O24	O	0.272879	1.563505	0.046875
O25	O	-0.295590	1.190539	-0.721269
O26	O	0.204410	1.690539	-0.221269
O27	O	-0.308714	1.052385	-0.567735
O28	O	0.191286	1.552385	-0.067735
O29	O	-0.204054	1.306334	-0.722989
O30	O	0.295946	1.806334	-0.222989
O31	O	-0.415169	1.308722	-0.477556
O32	O	0.084831	1.808722	0.022444
O33	O	-0.415700	1.191897	-0.581634
O34	O	0.084300	1.691897	-0.081634
C35	C	-0.269465	1.025230	-0.508621
C36	C	0.230535	1.525230	-0.008621
C37	C	-0.274220	0.925010	-0.503101
C38	C	0.225780	1.425010	-0.003101
C39	C	-0.188508	0.735595	-0.603077
C40	C	0.311492	1.235595	-0.103077
C41	C	-0.192974	0.641429	-0.597892
C42	C	0.307026	1.141429	-0.097892
C43	C	-0.287613	0.642511	-0.487543
C44	C	0.212387	1.142511	0.012457
C45	C	-0.283148	0.736677	-0.492728
C46	C	0.216852	1.236677	0.007272
C47	C	-0.233594	0.783215	-0.550497
C48	C	0.266406	1.283215	-0.050497
C49	C	-0.229133	0.877382	-0.555686
C50	C	0.270867	1.377382	-0.055686
C51	C	-0.323768	0.878463	-0.445333
C52	C	0.176232	1.378463	0.054667
C53	C	-0.328234	0.784297	-0.440148
C54	C	0.171766	1.284297	0.059852
C55	C	-0.440925	1.248843	-0.530917
C56	C	0.059075	1.748843	-0.030917
C57	C	-0.519010	1.244368	-0.534947
C58	C	-0.019010	1.744368	-0.034947
C59	C	-0.555391	1.303133	-0.482702
C60	C	-0.055391	1.803133	0.017298
C61	C	-0.628760	1.298930	-0.486498
C62	C	-0.128760	1.798930	0.013502
C63	C	-0.665748	1.235957	-0.542535
C64	C	-0.165748	1.735957	-0.042535
C65	C	-0.629362	1.177190	-0.594785
C66	C	-0.129362	1.677190	-0.094785
C67	C	-0.555993	1.181398	-0.590994
C68	C	-0.055993	1.681398	-0.090994
C69	C	-0.887287	1.220210	-0.556696
C70	C	-0.387287	1.720210	-0.056696
C71	C	-0.960661	1.216004	-0.560481
C72	C	-0.460661	1.716004	-0.060481
C73	C	-0.960054	1.337746	-0.452195
C74	C	-0.460054	1.837746	0.047805
C75	C	-0.886685	1.341945	-0.448404
C76	C	-0.386685	1.841945	0.051596
C77	C	-0.850305	1.283181	-0.500658
C78	C	-0.350305	1.783181	-0.000658
C79	C	-0.740743	1.231657	-0.546414
C80	C	-0.240743	1.731657	-0.046414
C81	C	-0.775310	1.287486	-0.496783
C82	C	-0.275310	1.787486	0.003217
C83	C	-0.075133	1.270204	-0.512223
C84	C	0.424867	1.770204	-0.012223
C85	C	0.002959	1.274769	-0.508236
C86	C	0.502959	1.774769	-0.008236
C87	C	-0.248393	1.246592	-0.755593
C88	C	0.251607	1.746592	-0.255593
C89	C	-0.244135	1.241095	-0.855317
C90	C	0.255865	1.741095	-0.355317
C91	C	-0.247265	1.494666	-0.534585
C92	C	0.252735	1.994666	-0.034585
C93	C	-0.242526	1.594884	-0.540129
C94	C	0.257474	2.094884	-0.040129
C95	C	-0.320539	1.340859	-1.053677
C96	C	0.179461	1.840859	-0.553677
C97	C	-0.316540	1.335697	-1.147376
C98	C	0.183460	1.835697	-0.647376
C99	C	-0.232134	1.225616	-1.136417
C100	C	0.267866	1.725616	-0.636417
C101	C	-0.236133	1.230777	-1.042717
C102	C	0.263867	1.730777	-0.542717
C103	C	-0.280338	1.288400	-1.001351
C104	C	0.219662	1.788400	-0.501351
C105	C	-0.284340	1.293556	-0.907650
C106	C	0.215660	1.793556	-0.407650
C107	C	-0.199931	1.183480	-0.896692
C108	C	0.300069	1.683480	-0.396692
C109	C	-0.195932	1.178318	-0.990391
C110	C	0.304068	1.678318	-0.490391
C111	C	-0.268287	1.272394	-0.288473
C112	C	0.231713	1.772394	0.211527
C113	C	-0.272340	1.278077	-0.188750
C114	C	0.227660	1.778077	0.311250
H115	H	-0.360486	0.917245	-0.402526
H116	H	0.139514	1.417245	0.097474
H117	H	-0.320331	1.340480	-0.873971
H118	H	0.179669	1.840480	-0.373971
H119	H	-0.167197	1.140763	-0.854078
H120	H	0.332803	1.640763	-0.354078
H121	H	-0.148163	0.773487	-0.650119
H122	H	0.351837	1.273487	-0.150119
H123	H	-0.525281	1.354408	-0.437067
H124	H	-0.025281	1.854408	0.062933
H125	H	-0.156259	0.602661	-0.640706
H126	H	0.343741	1.102661	-0.140706
H127	H	-0.526373	1.133546	-0.633538
H128	H	-0.026373	1.633546	-0.133538
H129	H	-0.349275	1.378416	-1.189977
H130	H	0.150725	1.878416	-0.689977
H131	H	-0.188784	0.915272	-0.602726
H132	H	0.311216	1.415272	-0.102726
H133	H	-0.356529	1.387782	-1.019996
H134	H	0.143471	1.887782	-0.519996
C135	C	-0.382116	0.733703	-0.377584
C136	C	0.117884	1.233703	0.122416
C137	C	-0.427612	0.674250	-0.427631
C138	C	0.072388	1.174250	0.072369
C139	C	-0.477265	0.627639	-0.370030
C140	C	0.022735	1.127639	0.129970
H141	H	-0.358693	0.700602	-0.335125
H142	H	0.141307	1.200602	0.164875
H143	H	-0.408372	0.775521	-0.347029
H144	H	0.091628	1.275521	0.152971
H145	H	-0.401359	0.632438	-0.458171
H146	H	0.098641	1.132438	0.041829
H147	H	-0.451052	0.707328	-0.470087
H148	H	0.048948	1.207328	0.029913
H149	H	-0.503521	0.669456	-0.339476
H150	H	-0.003521	1.169456	0.160524
H151	H	-0.453835	0.594543	-0.327575
H152	H	0.046165	1.094543	0.172425
H153	H	-0.508144	0.587301	-0.403980
H154	H	-0.008144	1.087301	0.096020
H155	H	-0.159940	1.131406	-1.024085
H156	H	0.340060	1.631406	-0.524085
C157	C	-0.999450	1.401702	-0.395527
C158	C	-0.499450	1.901702	0.104473
C159	C	-0.976461	1.490840	-0.419134
C160	C	-0.476461	1.990840	0.080866
C161	C	-1.012728	1.549787	-0.366943
C162	C	-0.512728	2.049787	0.133057
H163	H	-1.048451	1.390309	-0.405757
H164	H	-0.548451	1.890309	0.094243
H165	H	-0.990634	1.392625	-0.333874
H166	H	-0.490634	1.892625	0.166126
H167	H	-0.985283	1.499913	-0.480772
H168	H	-0.485283	1.999913	0.019228
H169	H	-0.927465	1.502261	-0.408900
H170	H	-0.427465	2.002261	0.091100
H171	H	-1.003911	1.540710	-0.305290
H172	H	-0.503911	2.040710	0.194710
H173	H	-1.061726	1.538386	-0.377177
H174	H	-0.561726	2.038386	0.122823
H175	H	-0.997130	1.610273	-0.382947
H176	H	-0.497130	2.110273	0.117053
H177	H	-0.856571	1.393222	-0.402775
H178	H	-0.356571	1.893222	0.097225
H179	H	-0.745193	1.338761	-0.451162
H180	H	-0.245193	1.838761	0.048838
C181	C	-1.000904	1.147771	-0.621391
C182	C	-0.500904	1.647771	-0.121391
C183	C	-1.038119	1.193197	-0.683907
C184	C	-0.538119	1.693197	-0.183907
C185	C	-1.075208	1.130373	-0.740017
C186	C	-0.575208	1.630373	-0.240017
H187	H	-0.968810	1.113344	-0.652060
H188	H	-0.468810	1.613344	-0.152060
H189	H	-1.032924	1.108774	-0.586371
H190	H	-0.532924	1.608774	-0.086371
H191	H	-1.006103	1.232178	-0.718923
H192	H	-0.506103	1.732178	-0.218923
H193	H	-1.070225	1.227620	-0.653263
H194	H	-0.570225	1.727620	-0.153263
H195	H	-1.107228	1.091376	-0.704998
H196	H	-0.607228	1.591376	-0.204998
H197	H	-1.043109	1.095949	-0.770680
H198	H	-0.543109	1.595949	-0.270680
H199	H	-1.100468	1.161185	-0.782436
H200	H	-0.600468	1.661185	-0.282436
H201	H	-0.770867	1.180383	-0.592037
H202	H	-0.270867	1.680383	-0.092037
H203	H	-0.659483	1.125919	-0.640416
H204	H	-0.159483	1.625919	-0.140416
H205	H	-0.658378	1.346781	-0.443954
H206	H	-0.158378	1.846781	0.056046
C207	C	-0.341488	0.591910	-0.424973
C208	C	0.158512	1.091910	0.075027
C209	C	-0.386982	0.532450	-0.475014
C210	C	0.113018	1.032450	0.024986
C211	C	-0.436624	0.485828	-0.417405
C212	C	0.063376	0.985828	0.082595
H213	H	-0.318054	0.558813	-0.382521
H214	H	0.181946	1.058813	0.117479
H215	H	-0.367746	0.633721	-0.394412
H216	H	0.132254	1.133721	0.105588
H217	H	-0.360728	0.490644	-0.505560
H218	H	0.139272	0.990644	-0.005560
H219	H	-0.410432	0.565523	-0.517464
H220	H	0.089568	1.065523	-0.017464
H221	H	-0.462882	0.527639	-0.386844
H222	H	0.037118	1.027639	0.113156
H223	H	-0.413185	0.452736	-0.374955
H224	H	0.086815	0.952736	0.125045
H225	H	-0.467502	0.445485	-0.451350
H226	H	0.032498	0.945485	0.048650
H227	H	-0.857673	1.172360	-0.599241
H228	H	-0.357673	1.672360	-0.099241
H229	H	-0.196140	1.178708	-1.170114
H230	H	0.303860	1.678708	-0.670114
