data_functionalizedCrystal
_audit_creation_method	'MofGen! by Chris Wilmer'
_symmetry_space_group_name_H-M	'P1'
_symmetry_Int_Tables_number	1
_symmetry_cell_setting	triclinic
loop_
_symmetry_equiv_pos_as_xyz
  x,y,z
_cell_length_a	10.908878
_cell_length_b	11.026607
_cell_length_c	14.048226
_cell_angle_alpha	89.996210
_cell_angle_beta	89.993336
_cell_angle_gamma	84.335404
loop_
_atom_site_label
_atom_site_type_symbol
_atom_site_fract_x
_atom_site_fract_y
_atom_site_fract_z
O1	O	1.662463	-0.179074	-0.079145
O2	O	1.309528	-0.088533	-0.079149
O3	O	1.456744	-0.304554	-0.079144
O4	O	1.515246	0.036946	-0.079150
O5	O	1.456719	-0.304560	0.079177
O6	O	1.309503	-0.088539	0.079172
O7	O	1.662438	-0.179080	0.079176
Zn8	Zn	1.485966	-0.133810	0.104311
Zn9	Zn	1.485999	-0.133803	-0.104284
O10	O	1.515221	0.036941	0.079171
C11	C	1.263630	-0.080075	0.000011
C12	C	1.126902	-0.054876	0.000009
C13	C	1.056640	-0.146821	0.000010
C14	C	0.915324	-0.120779	0.000009
C15	C	1.445939	-0.347589	0.000015
C16	C	1.413766	-0.475811	0.000012
C17	C	1.502601	-0.567544	0.000011
C18	C	1.469351	-0.700068	0.000007
C19	C	1.708336	-0.187538	0.000014
C20	C	1.845063	-0.212737	0.000010
C21	C	1.526026	0.079976	0.000010
C22	C	1.558199	0.208198	0.000007
N23	N	1.485953	-0.133818	0.246672
N24	N	1.486021	-0.133806	-0.246645
C25	C	1.551174	-0.229445	0.296492
C26	C	1.551182	-0.229447	0.396150
C27	C	1.485975	-0.133817	0.445985
C28	C	1.420746	-0.038185	0.396158
C29	C	1.420732	-0.038189	0.296502
C30	C	1.420783	-0.038184	0.603872
C31	C	1.420800	-0.038179	0.703535
C32	C	1.551234	-0.229443	0.703520
C33	C	1.551219	-0.229446	0.603864
C34	C	1.485992	-0.133812	0.554044
H35	H	0.889522	-0.310740	0.000005
O36	O	1.350468	0.064954	0.757296
H37	H	1.279583	0.028124	0.802723
O38	O	1.068022	0.074938	0.000015
H39	H	0.966267	0.075021	0.000023
H40	H	1.603272	-0.547968	0.000018
O41	O	1.115520	-0.276636	0.000022
H42	H	1.217275	-0.276718	0.000033
O43	O	1.335988	-0.725970	0.000012
H44	H	1.330799	-0.825994	0.000018
O45	O	1.691563	-0.765903	0.000014
H46	H	1.696755	-0.665880	0.000024
O47	O	1.280410	-0.501720	0.000016
H48	H	1.275221	-0.601744	0.000023
H49	H	1.604279	-0.307314	0.255923
H50	H	1.604289	-0.307314	0.436713
H51	H	1.604322	-0.307310	0.563288
O52	O	1.621579	-0.332602	0.757246
H53	H	1.610623	-0.316547	0.834915
O54	O	0.856449	0.009042	0.000014
H55	H	0.754694	0.009125	0.000022
O56	O	1.350440	0.064965	0.550131
H57	H	1.305113	0.131472	0.601525
H58	H	1.367647	0.039675	0.436740
H59	H	1.367620	0.039679	0.255939
