data_functionalizedCrystal
_audit_creation_method	'MofGen! by Chris Wilmer'
_symmetry_space_group_name_H-M	'P1'
_symmetry_Int_Tables_number	1
_symmetry_cell_setting	triclinic
loop_
_symmetry_equiv_pos_as_xyz
  x,y,z
_cell_length_a	19.288864
_cell_length_b	14.971486
_cell_length_c	14.048226
_cell_angle_alpha	89.993360
_cell_angle_beta	89.979690
_cell_angle_gamma	83.375187
loop_
_atom_site_label
_atom_site_type_symbol
_atom_site_fract_x
_atom_site_fract_y
_atom_site_fract_z
O1	O	0.921714	0.111581	-0.079466
O2	O	0.719502	0.126633	-0.079401
O3	O	0.826028	-0.011122	-0.079429
O4	O	0.815188	0.249337	-0.079439
O5	O	0.826015	-0.011130	0.078892
O6	O	0.719489	0.126625	0.078920
O7	O	0.921701	0.111573	0.078855
Zn8	Zn	0.820593	0.119098	0.104024
Zn9	Zn	0.820610	0.119109	-0.104571
O10	O	0.815175	0.249329	0.078882
C11	C	0.825537	-0.044448	-0.000268
C12	C	0.824084	-0.143737	-0.000269
C13	C	0.693618	0.126145	-0.000232
C14	C	0.616510	0.124691	-0.000207
C15	C	0.886665	-0.201301	-0.000288
C16	C	0.885296	-0.294593	-0.000297
C17	C	0.821345	-0.330320	-0.000280
C18	C	0.758759	-0.272749	-0.000264
C19	C	0.760129	-0.179458	-0.000261
C20	C	0.755909	-0.467196	-0.000266
C21	C	0.754538	-0.560492	-0.000267
C22	C	0.881075	-0.582330	-0.000302
C23	C	0.882445	-0.489040	-0.000300
C24	C	0.819859	-0.431475	-0.000281
C25	C	0.572077	0.205520	-0.000226
C26	C	0.499625	0.204154	-0.000236
C27	C	0.471610	0.121955	-0.000247
C28	C	0.516052	0.041116	-0.000224
C29	C	0.588502	0.042484	-0.000204
C30	C	0.363142	0.057340	-0.055744
C31	C	0.290693	0.055975	-0.055770
C32	C	0.248150	0.117732	-0.000305
C33	C	0.278064	0.180868	0.055174
C34	C	0.350514	0.182236	0.055194
C35	C	0.393051	0.120462	-0.000269
C36	C	0.125157	0.197085	-0.000333
C37	C	0.052704	0.195715	-0.000338
C38	C	0.069133	0.032675	-0.000335
C39	C	0.141584	0.034046	-0.000321
C40	C	0.169591	0.116254	-0.000324
C41	C	0.947586	0.112062	-0.000316
C42	C	1.024694	0.113516	-0.000347
C43	C	0.815667	0.282655	-0.000280
C44	C	0.817119	0.381944	-0.000286
N45	N	0.820587	0.119090	0.246385
N46	N	0.820622	0.119109	-0.246932
C47	C	0.867771	0.058117	0.296191
C48	C	0.867776	0.058117	0.395849
C49	C	0.820599	0.119094	0.445698
C50	C	0.773410	0.180070	0.395886
C51	C	0.773402	0.180066	0.296230
C52	C	0.773430	0.180077	0.603600
C53	C	0.773438	0.180082	0.703263
C54	C	0.867803	0.058128	0.703219
C55	C	0.867796	0.058123	0.603563
C56	C	0.820607	0.119101	0.553757
H57	H	0.938741	-0.172220	-0.000296
H58	H	0.934519	-0.459955	-0.000307
H59	H	0.147961	0.264023	-0.000322
H60	H	0.177762	-0.031773	-0.000311
H61	H	0.704944	-0.420328	-0.000254
H62	H	0.906226	0.008478	0.743776
H63	H	0.702464	-0.589577	-0.000237
H64	H	0.906214	0.008475	0.562975
H65	H	0.016527	0.261539	-0.000347
H66	H	0.266342	0.004570	-0.100948
H67	H	0.706689	-0.301844	-0.000256
H68	H	0.709169	-0.132590	-0.000246
H69	H	0.735021	0.229736	0.743845
H70	H	0.397774	0.007049	-0.100916
H71	H	0.932035	-0.629204	-0.000320
H72	H	0.735001	0.229728	0.563051
H73	H	0.594875	0.272460	-0.000230
H74	H	0.463441	0.269976	-0.000248
H75	H	0.374867	0.233641	0.100369
H76	H	0.493237	-0.025811	-0.000246
H77	H	0.243428	0.231155	0.100339
H78	H	0.734994	0.229716	0.436479
H79	H	0.624680	-0.023339	-0.000190
H80	H	0.936256	-0.341458	-0.000311
H81	H	0.734979	0.229715	0.255679
H82	H	0.906191	0.008466	0.255610
H83	H	0.046324	-0.034253	-0.000404
H84	H	0.906196	0.008467	0.436400
