data_functionalizedCrystal
_audit_creation_method	'MofGen! by Chris Wilmer'
_symmetry_space_group_name_H-M	'P1'
_symmetry_Int_Tables_number	1
_symmetry_cell_setting	triclinic
loop_
_symmetry_equiv_pos_as_xyz
  x,y,z
_cell_length_a	10.685904
_cell_length_b	13.897441
_cell_length_c	10.686285
_cell_angle_alpha	94.394146
_cell_angle_beta	90.334098
_cell_angle_gamma	85.605969
loop_
_atom_site_label
_atom_site_type_symbol
_atom_site_fract_x
_atom_site_fract_y
_atom_site_fract_z
Zn1	Zn	1.956325	-0.639587	0.352411
Zn2	Zn	2.456325	-0.139587	0.852411
Zn3	Zn	1.972329	-0.466954	0.562214
Zn4	Zn	2.472329	0.033046	1.062214
Zn5	Zn	1.746541	-0.465049	0.368538
Zn6	Zn	2.246541	0.034951	0.868538
Zn7	Zn	1.762633	-0.614964	0.578198
Zn8	Zn	2.262633	-0.114964	1.078198
O9	O	1.859457	-0.546639	0.465341
O10	O	2.359457	-0.046639	0.965341
O11	O	2.134001	-0.627789	0.366803
O12	O	2.634001	-0.127789	0.866803
O13	O	1.942341	-0.331714	0.536582
O14	O	2.442341	0.168286	1.036582
O15	O	1.760937	-0.497709	0.190852
O16	O	2.260937	0.002291	0.690852
O17	O	2.145759	-0.500956	0.520945
O18	O	2.645759	-0.000956	1.020945
O19	O	1.915064	-0.625941	0.179004
O20	O	2.415064	-0.125941	0.679004
O21	O	1.776456	-0.330314	0.394290
O22	O	2.276456	0.169686	0.894290
O23	O	1.573123	-0.473834	0.409789
O24	O	2.073123	0.026166	0.909789
O25	O	1.788364	-0.753218	0.548188
O26	O	2.288364	-0.253218	1.048188
O27	O	1.584945	-0.583976	0.563825
O28	O	2.084945	-0.083976	1.063825
O29	O	1.930668	-0.771308	0.382303
O30	O	2.430668	-0.271308	0.882303
O31	O	1.957945	-0.477081	0.739881
O32	O	2.457945	0.022919	1.239881
O33	O	1.803882	-0.585823	0.751625
O34	O	2.303882	-0.085823	1.251625
C35	C	1.533515	-0.526027	0.490293
C36	C	2.033515	-0.026027	0.990293
C37	C	1.394078	-0.517230	0.500997
C38	C	1.894078	-0.017230	1.000997
C39	C	1.859526	-0.798242	0.465229
C40	C	2.359526	-0.298242	0.965229
C41	C	1.859555	-0.905461	0.465182
C42	C	2.359555	-0.405461	0.965182
C43	C	1.859578	-0.992534	0.465144
C44	C	2.359578	-0.492534	0.965144
C45	C	1.859610	-1.101772	0.465085
C46	C	2.359610	-0.601772	0.965085
C47	C	2.186672	-0.567332	0.440292
C48	C	2.686672	-0.067332	0.940292
C49	C	2.326111	-0.576150	0.429618
C50	C	2.826111	-0.076150	0.929618
C51	C	1.884430	-0.529010	0.791268
C52	C	2.384430	-0.029010	1.291268
C53	C	1.895229	-0.521508	0.930692
C54	C	2.395229	-0.021508	1.430692
C55	C	1.859454	-0.296023	0.465355
C56	C	2.359454	0.203977	0.965355
C57	C	1.859640	-0.188840	0.465031
C58	C	2.359640	0.311160	0.965031
C59	C	1.834420	-0.564359	0.138138
C60	C	2.334420	-0.064359	0.638138
C61	C	1.823751	-0.571911	-0.001296
C62	C	2.323751	-0.071911	0.498704
H63	H	1.374602	-0.633321	0.360310
H64	H	1.874602	-0.133321	0.860310
C65	C	1.989057	-0.455442	0.996130
C66	C	2.489057	0.044558	1.496130
N67	N	2.059728	-0.405682	1.045418
N68	N	2.559728	0.094318	1.545418
H69	H	1.345593	-0.460056	0.570292
H70	H	1.845593	0.039944	1.070292
C71	C	1.729925	-0.637971	0.933271
C72	C	2.229925	-0.137971	1.433271
N73	N	1.659256	-0.687730	0.883979
N74	N	2.159256	-0.187730	1.383979
