data_functionalizedCrystal
_audit_creation_method	'MofGen! by Chris Wilmer'
_symmetry_space_group_name_H-M	'P1'
_symmetry_Int_Tables_number	1
_symmetry_cell_setting	triclinic
loop_
_symmetry_equiv_pos_as_xyz
  x,y,z
_cell_length_a	12.645331
_cell_length_b	12.645330
_cell_length_c	18.215399
_cell_angle_alpha	89.974416
_cell_angle_beta	89.980457
_cell_angle_gamma	90.012860
loop_
_atom_site_label
_atom_site_type_symbol
_atom_site_fract_x
_atom_site_fract_y
_atom_site_fract_z
Zn1	Zn	1.620734	-0.422040	-0.416134
Zn2	Zn	2.120734	0.077960	0.083866
Zn3	Zn	1.620642	-0.599323	-0.293074
Zn4	Zn	2.120642	-0.099323	0.206926
Zn5	Zn	1.443459	-0.422075	-0.293081
Zn6	Zn	1.943459	0.077925	0.206919
Zn7	Zn	1.443446	-0.599262	-0.416098
Zn8	Zn	1.943446	-0.099262	0.083902
O9	O	1.532070	-0.510675	-0.354597
O10	O	2.032070	-0.010675	0.145403
O11	O	1.769069	-0.445568	-0.399822
O12	O	2.269069	0.054432	0.100178
O13	O	1.597104	-0.575851	-0.190090
O14	O	2.097104	-0.075851	0.309910
O15	O	1.467019	-0.273723	-0.309422
O16	O	1.967019	0.226277	0.190578
O17	O	1.769001	-0.575817	-0.309410
O18	O	2.269001	-0.075817	0.190590
O19	O	1.597262	-0.273697	-0.399829
O20	O	2.097262	0.226303	0.100171
O21	O	1.466929	-0.445628	-0.190096
O22	O	1.966929	0.054372	0.309904
O23	O	1.295110	-0.445569	-0.309387
O24	O	1.795110	0.054431	0.190613
O25	O	1.466997	-0.575713	-0.519087
O26	O	1.966997	-0.075713	-0.019087
O27	O	1.295101	-0.575747	-0.399768
O28	O	1.795101	-0.075747	0.100232
O29	O	1.597250	-0.445508	-0.519113
O30	O	2.097250	0.054492	-0.019113
O31	O	1.597092	-0.747662	-0.309375
O32	O	2.097092	-0.247662	0.190625
O33	O	1.466907	-0.747618	-0.399761
O34	O	1.966907	-0.247618	0.100239
C35	C	1.256640	-0.510656	-0.354575
C36	C	1.756640	-0.010656	0.145425
C37	C	1.138810	-0.510673	-0.354583
C38	C	1.638810	-0.010673	0.145417
C39	C	1.093899	-0.428650	-0.297818
C40	C	1.593899	0.071350	0.202182
C41	C	0.971339	-0.428347	-0.298012
C42	C	1.471339	0.071653	0.201988
C43	C	0.970972	-0.480884	-0.432271
C44	C	1.470972	0.019116	0.067729
C45	C	1.093570	-0.480271	-0.431917
C46	C	1.593570	0.019729	0.068083
C47	C	1.093607	-0.622730	-0.334393
C48	C	1.593607	-0.122730	0.165607
C49	C	0.970999	-0.622145	-0.332709
C50	C	1.470999	-0.122145	0.167291
C51	C	1.532017	-0.786105	-0.354579
C52	C	2.032017	-0.286105	0.145421
C53	C	1.532091	-0.903935	-0.354596
C54	C	2.032091	-0.403935	0.145404
C55	C	1.613859	-1.071483	-0.297619
C56	C	2.113859	-0.571483	0.202381
C57	C	1.614125	-0.948923	-0.297759
C58	C	2.114125	-0.448923	0.202241
C59	C	1.562385	-0.948320	-0.432171
C60	C	2.062385	-0.448320	0.067829
C61	C	1.563034	-1.070918	-0.431869
C62	C	2.063034	-0.570918	0.068131
C63	C	1.419998	-1.071262	-0.334763
C64	C	1.919998	-0.571262	0.165237
C65	C	1.420535	-0.948657	-0.333024
C66	C	1.920535	-0.448657	0.166976
C67	C	1.808575	-0.510695	-0.354619
C68	C	2.308575	-0.010695	0.145381
C69	C	1.926405	-0.510704	-0.354628
C70	C	2.426405	-0.010704	0.145372
C71	C	1.532132	-0.510600	-0.546550
C72	C	2.032132	-0.010600	-0.046550
C73	C	1.532159	-0.510568	-0.628349
C74	C	2.032159	-0.010568	-0.128349
C75	C	1.532152	-0.234170	-0.354630
C76	C	2.032152	0.265830	0.145370
C77	C	1.532187	-0.116340	-0.354645
C78	C	2.032187	0.383660	0.145355
C79	C	1.600021	-0.442679	-0.893421
C80	C	2.100021	0.057321	-0.393421
C81	C	1.600008	-0.442708	-0.816562
C82	C	2.100008	0.057292	-0.316562
C83	C	1.464383	-0.578303	-0.816525
C84	C	1.964383	-0.078303	-0.316525
C85	C	1.464402	-0.578279	-0.893382
C86	C	1.964402	-0.078279	-0.393382
C87	C	1.532219	-0.510461	-0.931828
C88	C	2.032219	-0.010461	-0.431828
C89	C	1.532188	-0.510514	-0.778112
C90	C	2.032188	-0.010514	-0.278112
C91	C	1.532174	-0.510545	-0.694778
C92	C	2.032174	-0.010545	-0.194778
C93	C	1.532235	-0.510431	-1.015167
C94	C	2.032235	-0.010431	-0.515167
C95	C	1.532069	-0.510673	-0.163390
C96	C	2.032069	-0.010673	0.336610
C97	C	1.532248	-0.510407	-0.081592
C98	C	2.032248	-0.010407	0.418408
H99	H	0.941202	-0.446952	-0.240450
H100	H	1.441202	0.053048	0.259550
F101	F	1.589403	-1.110113	-0.222215
F102	F	2.089403	-0.610113	0.277785
H103	H	1.409189	-0.633481	-0.924654
H104	H	1.909189	-0.133481	-0.424654
F105	F	1.672196	-0.370499	-0.934336
F106	F	2.172196	0.129501	-0.434336
F107	F	1.672174	-0.370567	-0.775690
F108	F	2.172174	0.129433	-0.275690
F109	F	1.132372	-0.452659	-0.222327
F110	F	1.632372	0.047341	0.277673
H111	H	1.124717	-0.346088	-0.311050
H112	H	1.624717	0.153912	0.188950
H113	H	0.942021	-0.345322	-0.311420
H114	H	1.442021	0.154678	0.188580
H115	H	1.409167	-0.633517	-0.785212
H116	H	1.909167	-0.133517	-0.285212
H117	H	1.123286	-0.537440	-0.475676
H118	H	1.623286	-0.037440	0.024324
F119	F	0.932942	-0.556594	-0.489092
F120	F	1.432942	-0.056594	0.010908
F121	F	1.130968	-0.373227	-0.454224
F122	F	1.630968	0.126773	0.045776
H123	H	1.595172	-0.918918	-0.240239
H124	H	2.095172	-0.418918	0.259761
F125	F	0.930861	-0.375028	-0.454979
F126	F	1.430861	0.124972	0.045021
H127	H	0.941867	-0.644639	-0.275567
H128	H	1.441867	-0.144639	0.224433
F129	F	1.133955	-0.658320	-0.261619
F130	F	1.633955	-0.158320	0.238381
H131	H	1.122648	-0.683836	-0.375739
H132	H	1.622648	-0.183836	0.124261
F133	F	1.721890	-1.111645	-0.314614
F134	F	2.221890	-0.611645	0.185386
F135	F	0.931055	-0.706256	-0.382803
F136	F	1.431055	-0.206256	0.117197
F137	F	1.722736	-0.910479	-0.314950
F138	F	2.222736	-0.410479	0.185050
F139	F	1.486994	-0.910239	-0.489195
F140	F	1.986994	-0.410239	0.010805
F141	F	1.488649	-1.109701	-0.489291
F142	F	1.988649	-0.609701	0.010709
F143	F	1.670220	-1.108189	-0.453879
F144	F	2.170220	-0.608189	0.046121
F145	F	1.668361	-0.908081	-0.454551
F146	F	2.168361	-0.408081	0.045449
H147	H	1.392449	-1.102269	-0.279181
H148	H	1.892449	-0.602269	0.220819
H149	H	1.397693	-0.919659	-0.275935
H150	H	1.897693	-0.419659	0.224065
F151	F	1.340458	-1.109181	-0.389049
F152	F	1.840458	-0.609181	0.110951
H153	H	1.356401	-0.918045	-0.371512
H154	H	1.856401	-0.418045	0.128488
