data_functionalizedCrystal
_audit_creation_method	'MofGen! by Chris Wilmer'
_symmetry_space_group_name_H-M	'P1'
_symmetry_Int_Tables_number	1
_symmetry_cell_setting	triclinic
loop_
_symmetry_equiv_pos_as_xyz
  x,y,z
_cell_length_a	12.837942
_cell_length_b	14.044220
_cell_length_c	11.892295
_cell_angle_alpha	94.249498
_cell_angle_beta	85.692371
_cell_angle_gamma	94.008909
loop_
_atom_site_label
_atom_site_type_symbol
_atom_site_fract_x
_atom_site_fract_y
_atom_site_fract_z
O1	O	0.258126	1.274970	-0.093879
O2	O	0.758126	1.774970	0.406121
O3	O	0.249034	0.998178	-0.093907
O4	O	0.749034	1.498178	0.406093
O5	O	0.102109	1.130437	-0.093887
O6	O	0.602109	1.630437	0.406113
O7	O	0.405051	1.142711	-0.093899
O8	O	0.905051	1.642711	0.406101
O9	O	0.089877	1.141438	0.094117
O10	O	0.589877	1.641438	0.594117
O11	O	0.236802	1.009179	0.094096
O12	O	0.736802	1.509179	0.594096
O13	O	0.245894	1.285971	0.094125
O14	O	0.745894	1.785971	0.594125
Zn15	Zn	0.239406	1.149322	0.123960
Zn16	Zn	0.739406	1.649322	0.623960
Zn17	Zn	0.255522	1.134828	-0.123743
Zn18	Zn	0.755522	1.634828	0.376257
O19	O	0.392819	1.153712	0.094104
O20	O	0.892819	1.653712	0.594104
C21	C	0.056989	1.131791	0.000114
C22	C	0.556989	1.631791	0.500114
C23	C	-0.059231	1.119423	0.000111
C24	C	0.440769	1.619423	0.500111
C25	C	0.238937	0.968004	0.000091
C26	C	0.738937	1.468004	0.500091
C27	C	0.227064	0.861705	0.000080
C28	C	0.727064	1.361705	0.500080
C29	C	-0.286441	1.268102	0.000103
C30	C	0.213559	1.768102	0.500103
C31	C	-0.395641	1.256486	0.000100
C32	C	0.104359	1.756486	0.500100
C33	C	-0.386832	1.084575	0.000094
C34	C	0.113168	1.584575	0.500094
C35	C	-0.277632	1.096191	0.000097
C36	C	0.222368	1.596191	0.500097
C37	C	-0.227441	1.187958	0.000103
C38	C	0.272559	1.687958	0.500103
C39	C	-0.118240	1.199573	0.000114
C40	C	0.381760	1.699573	0.500114
C41	C	-0.109432	1.027663	0.000100
C42	C	0.390568	1.527663	0.500100
C43	C	-0.218632	1.016047	0.000097
C44	C	0.281368	1.516047	0.500097
C45	C	0.205353	0.667085	0.000103
C46	C	0.705353	1.167085	0.500103
C47	C	0.289571	0.617058	0.000104
C48	C	0.789571	1.117058	0.500104
C49	C	0.277491	0.508764	0.000117
C50	C	0.777491	1.008764	0.500117
C51	C	0.217432	0.775388	0.000090
C52	C	0.717432	1.275388	0.500090
C53	C	0.437939	1.152358	0.000101
C54	C	0.937939	1.652358	0.500101
C55	C	0.554160	1.164726	0.000097
C56	C	1.054160	1.664726	0.500097
C57	C	0.255991	1.316145	0.000124
C58	C	0.755991	1.816145	0.500124
C59	C	0.267865	1.422443	0.000128
C60	C	0.767865	1.922443	0.500128
N61	N	0.228406	1.159220	0.293011
N62	N	0.728406	1.659220	0.793011
N63	N	0.266514	1.124936	-0.292793
N64	N	0.766514	1.624936	0.207207
C65	C	0.343095	1.055949	0.529694
C66	C	0.843095	1.555949	1.029694
C67	C	0.335398	1.062890	0.648033
C68	C	0.835398	1.562890	1.148033
C69	C	0.205324	1.180047	0.648032
C70	C	0.705324	1.680047	1.148032
C71	C	0.213020	1.173106	0.529692
C72	C	0.713020	1.673106	1.029692
C73	C	0.281907	1.111054	0.470527
C74	C	0.781907	1.611054	0.970527
C75	C	0.289597	1.104109	0.352186
C76	C	0.789597	1.604109	0.852186
C77	C	0.159528	1.221270	0.352186
C78	C	0.659528	1.721270	0.852186
C79	C	0.151832	1.228211	0.470526
C80	C	0.651832	1.728211	0.970526
H81	H	-0.245575	1.342822	0.000119
H82	H	0.254425	1.842822	0.500119
H83	H	0.370743	0.655560	0.000096
H84	H	0.870743	1.155560	0.500096
H85	H	0.149245	1.230575	0.696219
H86	H	0.649245	1.730575	1.196219
H87	H	0.385225	1.018019	0.696204
H88	H	0.885225	1.518019	1.196204
N89	N	-0.459276	1.342929	0.000117
N90	N	0.040724	1.842929	0.500117
H91	H	-0.536071	1.321649	0.000116
H92	H	-0.036071	1.821649	0.500116
H93	H	-0.437575	1.378416	-0.069575
H94	H	0.062425	1.878416	0.430425
H95	H	0.124187	0.628585	0.000113
H96	H	0.624187	1.128585	0.500113
H97	H	0.345685	1.053581	0.304015
H98	H	0.845685	1.553581	0.804015
H99	H	0.399178	1.005417	0.481521
H100	H	0.899178	1.505417	0.981521
N101	N	-0.440975	0.985606	0.000074
N102	N	0.059025	1.485606	0.500074
H103	H	-0.519104	0.990412	0.000068
H104	H	-0.019104	1.490412	0.500068
H105	H	-0.424511	0.954179	0.069770
H106	H	0.075489	1.454179	0.569770
H107	H	-0.077376	1.274294	0.000123
H108	H	0.422624	1.774294	0.500123
N109	N	0.077541	1.295140	0.534342
N110	N	0.577541	1.795140	1.034342
H111	H	0.081950	1.291178	0.618288
H112	H	0.581950	1.791178	1.118288
H113	H	0.003699	1.276184	0.513665
H114	H	0.503699	1.776184	1.013665
H115	H	0.109701	1.266138	0.304000
H116	H	0.609701	1.766138	0.804000
H117	H	-0.259513	0.941333	0.000087
H118	H	0.240487	1.441333	0.500087
H119	H	-0.061383	0.962405	0.000109
H120	H	0.438617	1.462405	0.500109
