data_functionalizedCrystal
_audit_creation_method	'MofGen! by Chris Wilmer'
_symmetry_space_group_name_H-M	'P1'
_symmetry_Int_Tables_number	1
_symmetry_cell_setting	triclinic
loop_
_symmetry_equiv_pos_as_xyz
  x,y,z
_cell_length_a	23.532407
_cell_length_b	10.489741
_cell_length_c	8.965430
_cell_angle_alpha	89.999293
_cell_angle_beta	90.001560
_cell_angle_gamma	96.306074
loop_
_atom_site_label
_atom_site_type_symbol
_atom_site_fract_x
_atom_site_fract_y
_atom_site_fract_z
O1	O	0.756285	-0.154816	-0.123853
O2	O	0.590571	-0.177218	-0.123896
O3	O	0.677199	0.019706	-0.123864
O4	O	0.669657	-0.351740	-0.123884
O5	O	0.677191	0.019693	0.124214
O6	O	0.590563	-0.177231	0.124183
O7	O	0.756278	-0.154829	0.124226
Cu8	Cu	0.673420	-0.166031	0.146856
Cu9	Cu	0.673429	-0.166016	-0.146526
O10	O	0.669650	-0.351753	0.124195
C11	C	0.569347	-0.176654	0.000138
C12	C	0.506119	-0.174939	0.000121
C13	C	0.676625	0.067213	0.000174
C14	C	0.674921	0.208785	0.000171
N15	N	0.673418	-0.166041	0.353205
C16	C	0.107717	-0.280717	0.000183
C17	C	0.048306	-0.279124	0.000192
O18	O	0.012211	-0.377181	0.000241
N19	N	0.024904	-0.162052	0.000196
C20	C	0.060916	-0.046567	0.000206
O21	O	0.035555	0.053158	0.000211
C22	C	0.120326	-0.048161	0.000207
C23	C	0.143724	-0.165240	0.000188
C24	C	0.131116	-0.397786	0.000166
C25	C	0.190522	-0.399379	0.000154
C26	C	0.226530	-0.283902	0.000159
C27	C	0.203131	-0.166833	0.000176
C28	C	0.156337	0.067323	0.000228
C29	C	0.215750	0.065718	0.000230
C30	C	0.239148	-0.051361	0.000211
C31	C	0.298545	-0.052949	0.000170
N32	N	0.321947	-0.170020	0.000166
C33	C	0.285940	-0.285497	0.000161
C34	C	-0.063849	-0.043227	0.000205
C35	C	-0.123257	-0.041631	0.000193
C36	C	-0.135863	-0.274188	0.000183
C37	C	-0.076454	-0.275783	0.000184
C38	C	-0.040447	-0.160298	0.000202
C39	C	0.410699	-0.288833	0.000134
C40	C	0.470111	-0.290416	0.000116
C41	C	0.482712	-0.057859	0.000135
C42	C	0.423305	-0.056275	0.000145
C43	C	0.387299	-0.171773	0.000150
O44	O	0.334675	0.045057	0.000127
O45	O	0.311308	-0.385205	0.000175
C46	C	0.777502	-0.155393	0.000189
C47	C	0.840730	-0.157108	0.000196
C48	C	0.670223	-0.399259	0.000153
C49	C	0.671927	-0.540832	0.000146
C50	C	0.619802	0.275093	0.000145
C51	C	0.645836	0.368075	0.122468
C52	C	0.645857	0.368063	-0.122118
C53	C	0.700978	0.299902	0.122594
C54	C	0.700991	0.299881	-0.122102
C55	C	0.727065	0.392836	0.000251
N56	N	0.673435	-0.165995	-0.352875
C57	C	0.633343	-0.257083	0.450496
C58	C	0.684905	-0.281179	0.549922
C59	C	0.621878	-0.141955	0.549907
C60	C	0.725006	-0.190195	0.450442
C61	C	0.661945	-0.050921	0.450418
C62	C	0.713544	-0.074968	0.549799
H63	H	0.489158	-0.385759	0.000100
Cl64	Cl	0.581068	-0.376051	0.383168
H65	H	0.574484	0.223935	0.000257
Cl66	Cl	0.765935	0.043936	0.616707
Cl67	Cl	0.554574	-0.110529	0.617366
H68	H	0.724277	0.269839	0.226125
H69	H	0.622531	0.398256	-0.225543
Cl70	Cl	0.699906	-0.431453	0.617405
H71	H	-0.057407	-0.371119	0.000177
Cl72	Cl	0.797095	0.471478	0.000368
H73	H	0.652214	0.046382	0.406677
H74	H	0.768610	-0.210664	0.406935
Cl75	Cl	0.219928	-0.546572	0.000141
Cl76	Cl	0.736973	0.253149	-0.281757
H77	H	0.404253	0.039060	0.000138
H78	H	0.381389	-0.382882	0.000143
H79	H	-0.165192	-0.368216	0.000185
Cl80	Cl	-0.152665	0.105560	0.000180
Cl81	Cl	-0.018588	0.101970	0.000210
Cl82	Cl	0.085859	-0.542978	0.000155
H83	H	0.512040	0.036159	0.000133
H84	H	0.622511	0.398305	0.225871
Cl85	Cl	0.261013	0.210909	0.000255
Cl86	Cl	0.126937	0.214518	0.000226
