data_functionalizedCrystal
_audit_creation_method	'MofGen! by Chris Wilmer'
_symmetry_space_group_name_H-M	'P1'
_symmetry_Int_Tables_number	1
_symmetry_cell_setting	triclinic
loop_
_symmetry_equiv_pos_as_xyz
  x,y,z
_cell_length_a	17.699083
_cell_length_b	14.971494
_cell_length_c	13.448316
_cell_angle_alpha	89.998062
_cell_angle_beta	90.000955
_cell_angle_gamma	83.450286
loop_
_atom_site_label
_atom_site_type_symbol
_atom_site_fract_x
_atom_site_fract_y
_atom_site_fract_z
O1	O	-1.004358	-0.113108	0.082549
O2	O	-0.504358	0.386892	0.582549
O3	O	-0.784016	-0.127825	0.082581
O4	O	-0.284016	0.372175	0.582581
O5	O	-0.900089	0.009753	0.082562
O6	O	-0.400089	0.509753	0.582562
O7	O	-0.888285	-0.250686	0.082568
O8	O	-0.388285	0.249314	0.582568
O9	O	-0.900078	0.009755	-0.082822
O10	O	-0.400078	0.509755	0.417178
O11	O	-0.784004	-0.127823	-0.082803
O12	O	-0.284004	0.372177	0.417197
O13	O	-1.004346	-0.113107	-0.082835
O14	O	-0.504346	0.386893	0.417165
Cu15	Cu	-0.894174	-0.120465	-0.097920
Cu16	Cu	-0.394174	0.379535	0.402080
Cu17	Cu	-0.894188	-0.120467	0.097666
Cu18	Cu	-0.394188	0.379533	0.597666
O19	O	-0.888273	-0.250685	-0.082816
O20	O	-0.388273	0.249315	0.417184
C21	C	-0.755812	-0.127297	-0.000107
C22	C	-0.255812	0.372703	0.499893
C23	C	-0.671790	-0.125715	-0.000095
C24	C	-0.171790	0.374285	0.499905
C25	C	-0.899555	0.043077	-0.000129
C26	C	-0.399555	0.543077	0.499871
C27	C	-0.897969	0.142368	-0.000124
C28	C	-0.397969	0.642368	0.499876
C29	C	-1.032550	-0.113635	-0.000145
C30	C	-0.532550	0.386365	0.499855
C31	C	-1.116572	-0.115217	-0.000151
C32	C	-0.616572	0.384783	0.499849
C33	C	-0.623370	-0.206470	-0.000093
C34	C	-0.123370	0.293530	0.499907
C35	C	-0.544423	-0.204978	-0.000106
C36	C	-0.044423	0.295022	0.499894
C37	C	-0.513897	-0.122730	-0.000113
C38	C	-0.013897	0.377270	0.499887
C39	C	-0.562324	-0.041969	-0.000118
C40	C	-0.062324	0.458031	0.499882
C41	C	-0.641269	-0.043461	-0.000112
C42	C	-0.141269	0.456539	0.499888
C43	C	-0.243946	-0.035947	-0.000143
C44	C	0.256054	0.464053	0.499857
C45	C	-0.164994	-0.034461	-0.000145
C46	C	0.335006	0.465539	0.499855
C47	C	-0.147099	-0.197464	-0.000136
C48	C	0.352901	0.302536	0.499864
C49	C	-0.226045	-0.198957	-0.000131
C50	C	0.273955	0.301043	0.499869
C51	C	-0.274464	-0.118196	-0.000141
C52	C	0.225536	0.381804	0.499859
C53	C	-0.360067	-0.119814	-0.000128
C54	C	0.139933	0.380186	0.499872
C55	C	-0.428296	-0.121111	-0.000118
C56	C	0.071704	0.378889	0.499882
C57	C	-0.888808	-0.284009	-0.000124
C58	C	-0.388808	0.215991	0.499876
C59	C	-0.890393	-0.383300	-0.000122
C60	C	-0.390393	0.116700	0.499878
N61	N	-0.894170	-0.120464	-0.235484
N62	N	-0.394170	0.379536	0.264516
C63	C	-0.897232	0.189009	0.090028
C64	C	-0.397232	0.689009	0.590028
C65	C	-0.895738	0.282303	0.090030
C66	C	-0.395738	0.782303	0.590030
C67	C	-0.894985	0.328955	-0.000122
C68	C	-0.394985	0.828955	0.499878
C69	C	-0.895720	0.282306	-0.090281
C70	C	-0.395720	0.782306	0.409719
C71	C	-0.897209	0.189013	-0.090281
C72	C	-0.397209	0.689013	0.409719
C73	C	-0.892618	0.476759	-0.090274
C74	C	-0.392618	0.976759	0.409726
C75	C	-0.891130	0.570059	-0.090274
C76	C	-0.391130	1.070059	0.409726
C77	C	-0.891146	0.570049	0.090037
C78	C	-0.391146	1.070049	0.590037
C79	C	-0.892636	0.476756	0.090037
C80	C	-0.392636	0.976756	0.590037
C81	C	-0.893372	0.430114	-0.000123
C82	C	-0.393372	0.930114	0.499877
C83	C	-0.940120	-0.174647	-0.287526
C84	C	-0.440120	0.325353	0.212474
C85	C	-0.940130	-0.174643	-0.391629
C86	C	-0.440130	0.325357	0.108371
C87	C	-0.894184	-0.120460	-0.443689
C88	C	-0.394184	0.379540	0.056311
C89	C	-0.848232	-0.066271	-0.391640
C90	C	-0.348232	0.433729	0.108360
C91	C	-0.848228	-0.066271	-0.287538
C92	C	-0.348228	0.433729	0.212462
C93	C	-0.848244	-0.066277	-0.608620
C94	C	-0.348244	0.433723	-0.108620
C95	C	-0.848248	-0.066278	-0.712728
C96	C	-0.348248	0.433722	-0.212728
C97	C	-0.940147	-0.174649	-0.712711
C98	C	-0.440147	0.325351	-0.212711
C99	C	-0.940142	-0.174649	-0.608609
C100	C	-0.440142	0.325351	-0.108609
C101	C	-0.894188	-0.120461	-0.556567
C102	C	-0.394188	0.379539	-0.056567
N103	N	-0.894198	-0.120461	0.235230
N104	N	-0.394198	0.379539	0.735230
H105	H	-0.505002	-0.270738	-0.000103
H106	H	-0.005002	0.229262	0.499897
H107	H	-0.897798	0.151037	-0.163692
H108	H	-0.397798	0.651037	0.336308
H109	H	-0.810825	-0.022150	-0.566251
H110	H	-0.310825	0.477850	-0.066251
O111	O	-0.094875	-0.284576	-0.000135
O112	O	0.405125	0.215424	0.499865
H113	H	-0.105749	-0.323947	-0.067534
H114	H	0.394251	0.176053	0.432466
H115	H	-0.977530	-0.218774	-0.245147
H116	H	-0.477530	0.281226	0.254853
O117	O	-0.989689	-0.233095	-0.552455
O118	O	-0.489689	0.266905	-0.052455
H119	H	-1.050165	-0.213545	-0.572420
H120	H	-0.550165	0.286455	-0.072420
H121	H	-0.680693	0.022298	-0.000113
H122	H	-0.180693	0.522298	0.499887
H123	H	-0.893201	0.438784	-0.163691
H124	H	-0.393201	0.938784	0.336309
H125	H	-0.977560	-0.218775	-0.755088
H126	H	-0.477560	0.281225	-0.255088
H127	H	-0.537464	0.024999	-0.000138
H128	H	-0.037464	0.524999	0.499862
H129	H	-0.810834	-0.022159	-0.755113
H130	H	-0.310834	0.477841	-0.255113
O131	O	-0.890329	0.620389	-0.187502
O132	O	-0.390329	1.120389	0.312498
H133	H	-0.838112	0.654827	-0.191796
H134	H	-0.338112	1.154827	0.308204
O135	O	-0.296160	0.051159	-0.000146
O136	O	0.203840	0.551159	0.499854
H137	H	-0.356185	0.036311	-0.000152
H138	H	0.143815	0.536311	0.499848
H139	H	-0.810827	-0.022150	-0.434035
H140	H	-0.310827	0.477850	0.065965
O141	O	-0.798663	-0.007836	-0.231400
O142	O	-0.298663	0.492164	0.268600
H143	H	-0.766709	0.029834	-0.285087
H144	H	-0.266709	0.529834	0.214913
H145	H	-0.648217	-0.273446	-0.000086
H146	H	-0.148217	0.226554	0.499914
O147	O	-0.890345	0.620345	0.187285
O148	O	-0.390345	1.120345	0.687285
H149	H	-0.889172	0.693054	0.172144
H150	H	-0.389172	1.193054	0.672144
H151	H	-0.895141	0.320275	0.163440
H152	H	-0.395141	0.820275	0.663440
H153	H	-0.250894	-0.265932	-0.000120
H154	H	0.249106	0.234068	0.499880
H155	H	-0.140144	0.032519	-0.000153
H156	H	0.359856	0.532519	0.499847
H157	H	-0.897849	0.151033	0.163440
H158	H	-0.397849	0.651033	0.663440
H159	H	-0.893254	0.438776	0.163446
H160	H	-0.393254	0.938776	0.663446
O161	O	-0.989687	-0.233085	-0.447764
O162	O	-0.489687	0.266915	0.052236
H163	H	-1.021627	-0.270771	-0.394075
H164	H	-0.521627	0.229229	0.105925
O165	O	-0.894922	0.332628	-0.187514
O166	O	-0.394922	0.832628	0.312486
H167	H	-0.842705	0.367064	-0.191821
H168	H	-0.342705	0.867064	0.308179
