data_functionalizedCrystal
_audit_creation_method	'MofGen! by Chris Wilmer'
_symmetry_space_group_name_H-M	'P1'
_symmetry_Int_Tables_number	1
_symmetry_cell_setting	triclinic
loop_
_symmetry_equiv_pos_as_xyz
  x,y,z
_cell_length_a	19.288864
_cell_length_b	8.559649
_cell_length_c	18.366186
_cell_angle_alpha	89.994914
_cell_angle_beta	89.977106
_cell_angle_gamma	76.457456
loop_
_atom_site_label
_atom_site_type_symbol
_atom_site_fract_x
_atom_site_fract_y
_atom_site_fract_z
O1	O	0.910987	0.199404	-0.060777
O2	O	0.707328	0.226304	-0.060726
O3	O	0.827100	-0.019877	-0.060756
O4	O	0.791215	0.445585	-0.060748
O5	O	0.827083	-0.019889	0.060344
O6	O	0.707311	0.226292	0.060373
O7	O	0.910970	0.199392	0.060322
Zn8	Zn	0.809137	0.212840	0.079575
Zn9	Zn	0.809160	0.212856	-0.079979
O10	O	0.791198	0.445573	0.060351
C11	C	0.681488	0.225432	-0.000170
C12	C	0.604519	0.222834	-0.000151
C13	C	0.552314	0.367282	-0.000161
C14	C	0.479994	0.364841	-0.000169
C15	C	0.459883	0.217944	-0.000182
C16	C	0.512099	0.073477	-0.000169
C17	C	0.584417	0.075922	-0.000154
C18	C	0.357630	0.102471	-0.042635
C19	C	0.285312	0.100032	-0.042655
C20	C	0.236829	0.210396	-0.000226
C21	C	0.260670	0.323227	0.042213
C22	C	0.332989	0.325672	0.042228
C23	C	0.381467	0.215276	-0.000198
C24	C	0.106205	0.352207	-0.000243
C25	C	0.033884	0.349760	-0.000247
C26	C	0.065991	0.058393	-0.000254
C27	C	0.138310	0.060844	-0.000244
C28	C	0.158412	0.207756	-0.000241
C29	C	0.829811	-0.079432	-0.000208
C30	C	0.837906	-0.256871	-0.000214
C31	C	0.936810	0.200264	-0.000235
C32	C	1.013778	0.202862	-0.000259
C33	C	0.788487	0.505129	-0.000198
C34	C	0.780392	0.682567	-0.000197
N35	N	0.809127	0.212828	0.188466
N36	N	0.809177	0.212855	-0.188870
C37	C	0.862174	0.103873	0.226553
C38	C	0.862179	0.103866	0.302781
C39	C	0.809141	0.212842	0.340919
C40	C	0.756084	0.321805	0.302822
C41	C	0.756077	0.321799	0.226596
C42	C	0.792272	0.358486	0.461683
C43	C	0.792284	0.358494	0.537908
C44	C	0.809160	0.212862	0.576026
C45	C	0.826039	0.067214	0.537910
C46	C	0.826032	0.067207	0.461684
C47	C	0.809143	0.212860	0.423573
C48	C	0.862216	0.103889	0.696769
C49	C	0.862216	0.103880	0.772998
C50	C	0.756124	0.321833	0.773037
C51	C	0.756121	0.321829	0.696809
C52	C	0.809171	0.212858	0.658680
H53	H	0.437481	0.482471	-0.000174
H54	H	0.122573	0.471832	-0.000231
H55	H	0.724959	-0.233537	-0.000181
H56	H	0.495719	-0.046127	-0.000190
H57	H	0.352397	0.417538	0.076786
H58	H	0.712937	0.410557	0.804088
H59	H	0.568676	0.486909	-0.000160
C60	C	0.912796	-0.370206	-0.000233
H61	H	0.908598	-0.478598	-0.000234
H62	H	0.937993	-0.350977	0.041987
H63	H	0.937996	-0.350976	-0.042478
H64	H	0.905369	0.015139	0.195510
C65	C	0.920535	-0.015980	0.344690
H66	H	0.912938	-0.000372	0.395548
H67	H	0.965974	0.001116	0.332172
H68	H	0.918683	-0.122631	0.332210
C69	C	0.844586	-0.092988	0.419757
H70	H	0.854733	-0.179724	0.453369
H71	H	0.885147	-0.096366	0.389917
H72	H	0.805311	-0.101714	0.390125
C73	C	0.043881	-0.103196	-0.000266
H74	H	0.085334	-0.188876	-0.000255
H75	H	0.016358	-0.110207	-0.042500
H76	H	0.016316	-0.110205	0.041966
C77	C	0.920557	-0.015988	0.654820
H78	H	0.912961	-0.000375	0.603966
H79	H	0.918703	-0.122623	0.667320
H80	H	0.966004	0.001102	0.667287
C81	C	0.207352	0.444636	0.088889
H82	H	0.231908	0.512185	0.114161
H83	H	0.185213	0.388417	0.122999
H84	H	0.172045	0.508232	0.058295
H85	H	0.839781	-0.051375	0.568945
H86	H	0.265906	0.008165	-0.077214
C87	C	0.641845	-0.082977	-0.000152
H88	H	0.619513	-0.170817	-0.000165
H89	H	0.670705	-0.088087	0.042080
H90	H	0.670742	-0.088067	-0.042385
C91	C	0.697781	0.441707	0.654907
H92	H	0.705371	0.426094	0.604048
H93	H	0.699640	0.548341	0.667395
H94	H	0.652335	0.424625	0.667421
H95	H	0.180818	-0.056781	-0.000240
H96	H	0.905412	0.015147	0.804009
H97	H	0.778545	0.477089	0.568936
C98	C	0.773713	0.518693	0.419759
H99	H	0.763674	0.605432	0.453375
H100	H	0.733083	0.522174	0.390042
H101	H	0.812943	0.527315	0.390005
H102	H	0.712878	0.410525	0.195584
C103	C	-0.023542	0.508661	-0.000257
H104	H	-0.001209	0.596499	-0.000260
H105	H	-0.052445	0.513772	0.041968
H106	H	-0.052397	0.513755	-0.042498
C107	C	0.410953	-0.018926	-0.089316
H108	H	0.386396	-0.086451	-0.114602
H109	H	0.446264	-0.082524	-0.058732
H110	H	0.433087	0.037319	-0.123425
C111	C	0.697746	0.441680	0.344770
H112	H	0.705352	0.426091	0.395623
H113	H	0.652302	0.424592	0.332305
H114	H	0.699601	0.548322	0.332266
