data_functionalizedCrystal
_audit_creation_method	'MofGen! by Chris Wilmer'
_symmetry_space_group_name_H-M	'P1'
_symmetry_Int_Tables_number	1
_symmetry_cell_setting	triclinic
loop_
_symmetry_equiv_pos_as_xyz
  x,y,z
_cell_length_a	13.262390
_cell_length_b	13.339070
_cell_length_c	9.730217
_cell_angle_alpha	89.998668
_cell_angle_beta	74.081295
_cell_angle_gamma	99.429367
loop_
_atom_site_label
_atom_site_type_symbol
_atom_site_fract_x
_atom_site_fract_y
_atom_site_fract_z
O1	O	1.432405	0.136420	-0.649726
O2	O	1.131140	0.151255	-0.537113
O3	O	1.247197	-0.003572	-0.580491
O4	O	1.316348	0.291246	-0.606348
O5	O	1.247192	-0.003573	-0.351909
O6	O	1.131135	0.151253	-0.308531
O7	O	1.432400	0.136418	-0.421144
Zn8	Zn	1.281767	0.143836	-0.328545
Zn9	Zn	1.281774	0.143837	-0.629712
O10	O	1.316343	0.291245	-0.377766
C11	C	1.091791	0.150423	-0.408115
C12	C	0.974548	0.147934	-0.364290
C13	C	0.644074	0.140907	-0.739174
C14	C	0.754230	0.143241	-0.780352
C15	C	0.809315	0.144415	-0.676340
C16	C	0.754234	0.143254	-0.531143
C17	C	0.644066	0.140912	-0.489960
C18	C	0.809307	0.144419	-0.427126
C19	C	0.754225	0.143259	-0.281929
C20	C	0.644069	0.140918	-0.240754
C21	C	0.588984	0.139744	-0.344766
C22	C	0.919474	0.146761	-0.468309
C23	C	0.919466	0.146766	-0.219095
C24	C	0.809311	0.144432	-0.177917
C25	C	1.235514	-0.041311	-0.461836
C26	C	1.200695	-0.153759	-0.448826
C27	C	1.471423	-0.517413	-0.550023
C28	C	1.504140	-0.411763	-0.562239
C29	C	1.428281	-0.347257	-0.533888
C30	C	1.319701	-0.388411	-0.493316
C31	C	1.286981	-0.494072	-0.481088
C32	C	1.243839	-0.323916	-0.464953
C33	C	1.135259	-0.365070	-0.424381
C34	C	1.102544	-0.470721	-0.412156
C35	C	1.178402	-0.535227	-0.440508
C36	C	1.276559	-0.218255	-0.477181
C37	C	1.092117	-0.194914	-0.408246
C38	C	1.059400	-0.300564	-0.396030
C39	C	1.471749	0.137250	-0.550145
C40	C	1.588992	0.139739	-0.593979
C41	C	1.328027	0.328984	-0.496424
C42	C	1.362845	0.441432	-0.509443
N43	N	1.281769	0.143834	-0.123010
N44	N	1.281777	0.143831	-0.835250
C45	C	1.384607	0.006775	-0.161456
C46	C	1.436034	-0.061752	-0.108742
C47	C	1.436045	-0.061752	0.035134
C48	C	1.384620	0.006779	0.126302
C49	C	1.333193	0.075305	0.073588
C50	C	1.333191	0.075301	-0.070294
C51	C	1.230350	0.212358	0.112037
C52	C	1.230345	0.212365	-0.031841
C53	C	1.178925	0.280889	0.203205
C54	C	1.127504	0.349422	0.150489
C55	C	1.127496	0.349421	0.006604
C56	C	1.178918	0.280892	-0.084555
H57	H	0.764448	0.143486	-0.059696
N58	N	0.978863	0.148026	-0.106896
H59	H	1.057008	0.149689	-0.155016
H60	H	0.969361	0.210330	-0.048933
N61	N	1.553229	-0.586986	-0.580607
H62	H	1.626980	-0.544887	-0.608171
H63	H	1.543664	-0.631333	-0.492293
H64	H	1.364966	-0.184758	-0.510214
N65	N	1.384589	0.006766	-0.316633
H66	H	1.344204	0.060573	-0.336191
H67	H	1.460312	0.021817	-0.379503
H68	H	1.178930	0.280882	0.320358
H69	H	1.151770	-0.621257	-0.430568
N70	N	1.010287	-0.125353	-0.377646
H71	H	1.047490	-0.052177	-0.391550
H72	H	0.964296	-0.138717	-0.445189
N73	N	1.072038	0.423321	0.248826
H74	H	1.125255	0.468360	0.288630
H75	H	1.039458	0.466669	0.193521
H76	H	1.592546	-0.378263	-0.595270
N77	N	1.178916	0.280895	-0.239738
H78	H	1.219295	0.227084	-0.289487
H79	H	1.103188	0.265842	-0.245970
N80	N	1.463563	-0.233305	-0.547071
H81	H	1.543858	-0.217022	-0.577080
H82	H	1.435172	-0.203351	-0.621204
N83	N	0.584662	0.139648	-0.851342
H84	H	0.636268	0.140743	-0.949573
H85	H	0.529202	0.075961	-0.836030
N86	N	1.072017	0.423330	-0.050234
H87	H	1.105042	0.495278	-0.037541
H88	H	1.079822	0.412849	-0.155193
H89	H	1.014131	-0.504225	-0.379110
H90	H	0.970992	-0.334087	-0.362995
N91	N	1.491466	-0.135689	-0.207058
H92	H	1.483652	-0.125300	-0.306201
H93	H	1.569436	-0.123646	-0.211080
H94	H	0.964310	0.147708	-0.586529
N95	N	0.928123	0.146921	-0.720745
H96	H	0.954658	0.147477	-0.828507
H97	H	0.964335	0.210198	-0.685306
H98	H	0.799068	0.144180	-0.898570
N99	N	1.491509	-0.135661	0.092001
H100	H	1.524084	-0.179076	0.012421
H101	H	1.549261	-0.096650	0.130097
H102	H	0.499287	0.137847	-0.311246
H103	H	0.599222	0.139954	-0.122524
H104	H	1.384621	0.006766	0.243456
