data_functionalizedCrystal
_audit_creation_method	'MofGen! by Chris Wilmer'
_symmetry_space_group_name_H-M	'P1'
_symmetry_Int_Tables_number	1
_symmetry_cell_setting	triclinic
loop_
_symmetry_equiv_pos_as_xyz
  x,y,z
_cell_length_a	12.759395
_cell_length_b	15.299816
_cell_length_c	15.296720
_cell_angle_alpha	110.757046
_cell_angle_beta	99.664719
_cell_angle_gamma	80.350115
loop_
_atom_site_label
_atom_site_type_symbol
_atom_site_fract_x
_atom_site_fract_y
_atom_site_fract_z
Zn1	Zn	1.580133	-0.461101	-0.589873
Zn2	Zn	1.631853	-0.589690	-0.461298
Zn3	Zn	1.430385	-0.434236	-0.434391
Zn4	Zn	1.430298	-0.616527	-0.616760
O5	O	1.518167	-0.525389	-0.525581
O6	O	1.734016	-0.478170	-0.572825
O7	O	1.626809	-0.546595	-0.327598
O8	O	1.428641	-0.307695	-0.432503
O9	O	1.772014	-0.572644	-0.478362
O10	O	1.538660	-0.327432	-0.546735
O11	O	1.478791	-0.432383	-0.307829
O12	O	1.283352	-0.458406	-0.458575
O13	O	1.428493	-0.618384	-0.743325
O14	O	1.283288	-0.592335	-0.592560
O15	O	1.538576	-0.504193	-0.723571
O16	O	1.626725	-0.723355	-0.504434
O17	O	1.478643	-0.743072	-0.618651
C18	C	1.245199	-0.525368	-0.525566
C19	C	1.128421	-0.525386	-0.525586
C20	C	1.088835	-0.427235	-0.624176
C21	C	1.014181	-0.378172	-0.673480
C22	C	0.904460	-0.378191	-0.673494
C23	C	0.869393	-0.427275	-0.624197
C24	C	0.944046	-0.476338	-0.574892
C25	C	1.053767	-0.476316	-0.574886
C26	C	0.983633	-0.574482	-0.476298
C27	C	1.093354	-0.574470	-0.476288
C28	C	0.948565	-0.623566	-0.427001
C29	C	1.023219	-0.672635	-0.377701
C30	C	1.132946	-0.672616	-0.377689
C31	C	1.168007	-0.623533	-0.426984
C32	C	1.558312	-0.766952	-0.567400
C33	C	1.575577	-0.870299	-0.585322
C34	C	1.395408	-1.120788	-0.397807
C35	C	1.379181	-1.023689	-0.380971
C36	C	1.428279	-0.985336	-0.432057
C37	C	1.493606	-1.044093	-0.499983
C38	C	1.509828	-1.141203	-0.516826
C39	C	1.542699	-1.005751	-0.551075
C40	C	1.608026	-1.064508	-0.619001
C41	C	1.624245	-1.161608	-0.635840
C42	C	1.575148	-1.199960	-0.584754
C43	C	1.526477	-0.908641	-0.534232
C44	C	1.640897	-0.929056	-0.653251
C45	C	1.657124	-1.026156	-0.670087
C46	C	1.792202	-0.525410	-0.525596
C47	C	1.908979	-0.525419	-0.525603
C48	C	1.477756	-0.567278	-0.768133
C49	C	1.460535	-0.585129	-0.871494
C50	C	1.477891	-0.282886	-0.483618
C51	C	1.460728	-0.179545	-0.465736
C52	C	1.641260	-0.397642	-1.121713
C53	C	1.657447	-0.380872	-1.024601
C54	C	1.608220	-0.431934	-0.986319
C55	C	1.542804	-0.499771	-1.045160
C56	C	1.526622	-0.516548	-1.142283
C57	C	1.493582	-0.550840	-1.006889
C58	C	1.428166	-0.618677	-1.065729
C59	C	1.411987	-0.635450	-1.162843
C60	C	1.461214	-0.584388	-1.201124
C61	C	1.509764	-0.534063	-0.909765
C62	C	1.395126	-0.652969	-0.930335
C63	C	1.378940	-0.669740	-1.027448
C64	C	1.558471	-0.483595	-0.283961
C65	C	1.575852	-0.465482	-0.180555
H66	H	0.994657	-0.712591	-0.337562
H67	H	1.325677	-0.724972	-1.075369
H68	H	1.563026	-0.478829	-0.861866
F69	F	1.342738	-0.707322	-0.889599
H70	H	1.355434	-1.152025	-0.356225
F71	F	1.693152	-0.888245	-0.707626
H72	H	0.843676	-0.338233	-0.713636
H73	H	1.621404	-0.418276	-0.907245
F74	F	1.212391	-0.724832	-0.325207
F75	F	1.051511	-0.325935	-0.725942
F76	F	0.831789	-0.623580	-0.427012
F77	F	1.592614	-1.303279	-0.602516
F78	F	1.284780	-0.623512	-0.426980
F79	F	1.693753	-1.224142	-0.708148
H80	H	1.710313	-1.074009	-0.725393
F81	F	1.693652	-0.343313	-1.162463
F82	F	1.727065	-0.308679	-0.961985
H83	H	1.448038	-0.598039	-1.280201
H84	H	1.178173	-0.427210	-0.624164
F85	F	0.752617	-0.427280	-0.624203
F86	F	1.456953	-0.846119	-0.461943
H87	H	1.415064	-0.906273	-0.418344
H88	H	1.325991	-0.975853	-0.325668
F89	F	1.342383	-0.707662	-1.225466
