data_functionalizedCrystal
_audit_creation_method	'MofGen! by Chris Wilmer'
_symmetry_space_group_name_H-M	'P1'
_symmetry_Int_Tables_number	1
_symmetry_cell_setting	triclinic
loop_
_symmetry_equiv_pos_as_xyz
  x,y,z
_cell_length_a	19.288859
_cell_length_b	9.065215
_cell_length_c	17.766277
_cell_angle_alpha	90.004179
_cell_angle_beta	90.010268
_cell_angle_gamma	84.074212
loop_
_atom_site_label
_atom_site_type_symbol
_atom_site_fract_x
_atom_site_fract_y
_atom_site_fract_z
O1	O	0.922784	0.183986	0.062608
O2	O	0.720715	0.208821	0.062606
O3	O	0.825927	-0.018386	0.062603
O4	O	0.817571	0.411193	0.062610
O5	O	0.825908	-0.018392	-0.062585
O6	O	0.720696	0.208814	-0.062583
O7	O	0.922764	0.183979	-0.062581
Cu8	Cu	0.821728	0.196396	-0.074013
Cu9	Cu	0.821751	0.196404	0.074037
O10	O	0.817552	0.411186	-0.062579
C11	C	0.694823	0.208020	0.000011
C12	C	0.617700	0.205626	0.000010
C13	C	0.054568	0.322744	0.000013
C14	C	0.127032	0.325006	0.000017
C15	C	0.170705	0.191692	0.000014
C16	C	0.141908	0.056104	0.000026
C17	C	0.069445	0.053846	0.000029
C18	C	0.291197	0.092264	-0.043850
C19	C	0.363658	0.094528	-0.043858
C20	C	0.394205	0.198653	0.000006
C21	C	0.352280	0.300538	0.043869
C22	C	0.279817	0.298279	0.043872
C23	C	0.249279	0.194126	0.000010
C24	C	0.501567	0.336685	0.000004
C25	C	0.574033	0.338942	0.000013
C26	C	0.588907	0.070036	0.000013
C27	C	0.516442	0.067783	0.000012
C28	C	0.472777	0.201112	0.000004
C29	C	0.825115	-0.073348	0.000010
C30	C	0.822715	-0.237107	0.000012
C31	C	0.948657	0.184780	0.000015
C32	C	1.025779	0.187174	0.000021
C33	C	0.818364	0.466148	0.000016
C34	C	0.820764	0.629907	0.000019
N35	N	0.821718	0.196390	-0.178143
C36	C	0.864398	0.285642	-0.217522
C37	C	0.864408	0.285637	-0.296324
C38	C	0.821727	0.196399	-0.335744
C39	C	0.779044	0.107129	-0.296355
C40	C	0.779039	0.107125	-0.217555
C41	C	0.759085	0.192670	-0.460604
C42	C	0.759088	0.192685	-0.539402
C43	C	0.821741	0.196403	-0.578790
C44	C	0.884392	0.200138	-0.539369
C45	C	0.884387	0.200133	-0.460569
C46	C	0.821727	0.196393	-0.421189
C47	C	0.864437	0.285655	-0.703615
C48	C	0.864449	0.285640	-0.782418
C49	C	0.779078	0.107140	-0.782448
C50	C	0.779072	0.107146	-0.703646
C51	C	0.821750	0.196412	-0.664234
N52	N	0.821767	0.196399	0.178168
H53	H	0.245684	0.381235	0.079588
Cl54	Cl	0.643803	-0.097562	0.000021
Cl55	Cl	0.390671	0.431461	0.099007
Cl56	Cl	0.480248	-0.102657	0.000025
Cl57	Cl	0.416355	-0.033542	-0.099005
Cl58	Cl	0.163234	0.495450	0.000005
Cl59	Cl	-0.000322	0.490357	0.000013
Cl60	Cl	0.033251	-0.116599	0.000041
H61	H	0.744326	0.034478	-0.814543
Cl62	Cl	0.725400	-0.005033	-0.654139
Cl63	Cl	0.252808	-0.038721	-0.098954
Cl64	Cl	0.680321	0.187873	-0.411096
Cl65	Cl	0.963145	0.204824	-0.411013
Cl66	Cl	0.196809	-0.111491	0.000025
H67	H	0.744292	0.034469	-0.328456
Cl68	Cl	0.918037	0.397890	-0.167979
H69	H	0.899164	0.358321	-0.328392
Cl70	Cl	0.963161	0.204812	-0.588875
Cl71	Cl	0.680327	0.188006	-0.588952
H72	H	0.899188	0.358339	-0.671524
H73	H	0.597471	0.449343	0.000012
H74	H	0.744283	0.034443	-0.185493
Cl75	Cl	0.446670	0.504294	-0.000004
Cl76	Cl	0.918112	0.397846	-0.831923
