data_functionalizedCrystal
_audit_creation_method	'MofGen! by Chris Wilmer'
_symmetry_space_group_name_H-M	'P1'
_symmetry_Int_Tables_number	1
_symmetry_cell_setting	triclinic
loop_
_symmetry_equiv_pos_as_xyz
  x,y,z
_cell_length_a	18.101398
_cell_length_b	18.101397
_cell_length_c	18.101389
_cell_angle_alpha	90.021047
_cell_angle_beta	90.024327
_cell_angle_gamma	90.015732
loop_
_atom_site_label
_atom_site_type_symbol
_atom_site_fract_x
_atom_site_fract_y
_atom_site_fract_z
Zn1	Zn	1.132176	-0.295001	0.418825
Zn2	Zn	1.132095	-0.418826	0.294978
Zn3	Zn	1.008335	-0.294993	0.294986
Zn4	Zn	1.008308	-0.418795	0.418767
O5	O	1.070228	-0.356904	0.356889
O6	O	1.235798	-0.311443	0.402418
O7	O	1.115655	-0.402410	0.191346
O8	O	1.024807	-0.191361	0.311442
O9	O	1.235738	-0.402417	0.311428
O10	O	1.115793	-0.191367	0.402426
O11	O	1.024729	-0.311430	0.191352
O12	O	0.904698	-0.311399	0.311385
O13	O	1.024763	-0.402363	0.522407
O14	O	0.904679	-0.402356	0.402326
O15	O	1.115767	-0.311412	0.522450
O16	O	1.115629	-0.522455	0.311371
O17	O	1.024684	-0.522432	0.402318
C18	C	0.877818	-0.356874	0.356850
C19	C	0.795504	-0.356879	0.356851
C20	C	1.070165	-0.549314	0.356853
C21	C	1.070206	-0.631628	0.356863
C22	C	0.496413	-0.356925	0.356914
C23	C	0.527725	-0.299411	0.299975
C24	C	0.613344	-0.299566	0.299732
C25	C	0.644795	-0.356901	0.356883
C26	C	0.613692	-0.434909	0.335555
C27	C	0.528046	-0.434590	0.335159
C28	C	0.528024	-0.337109	0.435314
C29	C	0.613674	-0.335371	0.434886
C30	C	0.728655	-0.356893	0.356867
C31	C	0.412553	-0.356939	0.356928
C32	C	1.070300	-0.930719	0.356930
C33	C	1.127361	-0.899378	0.299555
C34	C	1.127559	-0.813759	0.299704
C35	C	1.070253	-0.782337	0.356896
C36	C	1.091409	-0.813359	0.434959
C37	C	1.091851	-0.899004	0.434646
C38	C	0.991931	-0.899218	0.336918
C39	C	0.992318	-0.813569	0.335175
C40	C	1.070226	-0.698477	0.356881
C41	C	1.070330	-1.014579	0.356950
C42	C	1.263390	-0.356934	0.356928
C43	C	1.345704	-0.356948	0.356945
C44	C	1.070271	-0.356885	0.550051
C45	C	1.070289	-0.356877	0.632365
C46	C	1.070312	-0.163742	0.356941
C47	C	1.070348	-0.081428	0.356964
C48	C	1.070228	-0.356869	0.164479
C49	C	1.070354	-0.356668	0.082165
C50	C	1.070333	-0.356738	0.931456
C51	C	1.012878	-0.413780	0.900104
C52	C	1.013033	-0.414045	0.814486
C53	C	1.070310	-0.356807	0.783074
C54	C	1.148340	-0.377998	0.814178
C55	C	1.148020	-0.378372	0.899823
C56	C	1.050437	-0.278379	0.899884
C57	C	1.048701	-0.278832	0.814233
C58	C	1.070303	-0.356845	0.699214
C59	C	1.070345	-0.356702	1.015316
H60	H	0.634373	-0.241719	0.313102
F61	F	0.937017	-0.396622	0.927005
F62	F	1.099411	-0.220332	0.786294
H63	H	1.149135	-0.918930	0.451597
H64	H	0.635110	-0.452008	0.278859
F65	F	0.971463	-0.787072	0.260089
F66	F	0.973641	-0.257946	0.787667
F67	F	0.500970	-0.492498	0.386996
F68	F	0.933758	-0.785621	0.385795
H69	H	1.165496	-0.434671	0.792734
F70	F	1.039881	-0.926103	0.492421
F71	F	0.641657	-0.386137	0.493310
H72	H	1.185095	-0.920853	0.312645
F73	F	0.936361	-0.925713	0.391536
H74	H	0.955171	-0.400783	0.793454
F75	F	0.640312	-0.492420	0.388067
H76	H	0.506441	-0.281216	0.454705
F77	F	1.203435	-0.786913	0.317015
H78	H	1.051120	-0.793003	0.478857
H79	H	1.025884	-0.471508	0.921627
F80	F	1.105134	-0.222829	0.926388
H81	H	0.634008	-0.277966	0.450968
F82	F	0.501557	-0.391861	0.490766
H83	H	1.192280	-0.338629	0.920566
F84	F	0.966774	-0.927516	0.263805
F85	F	0.500825	-0.223569	0.317256
H86	H	1.114323	-0.792787	0.241822
F87	F	1.165446	-0.785259	0.457491
H88	H	1.114285	-0.920010	0.241500
H89	H	1.026170	-0.472127	0.794001
F90	F	1.170062	-0.453243	0.925942
F91	F	1.205799	-0.325401	0.787590
F92	F	0.977356	-0.253146	0.928097
H93	H	0.506178	-0.312363	0.242220
H94	H	0.508038	-0.451397	0.277844
F95	F	0.640084	-0.316684	0.223799
