data_functionalizedCrystal
_audit_creation_method	'MofGen! by Chris Wilmer'
_symmetry_space_group_name_H-M	'P1'
_symmetry_Int_Tables_number	1
_symmetry_cell_setting	triclinic
loop_
_symmetry_equiv_pos_as_xyz
  x,y,z
_cell_length_a	16.959455
_cell_length_b	18.101395
_cell_length_c	16.959447
_cell_angle_alpha	89.970450
_cell_angle_beta	89.983056
_cell_angle_gamma	90.028051
loop_
_atom_site_label
_atom_site_type_symbol
_atom_site_fract_x
_atom_site_fract_y
_atom_site_fract_z
Zn1	Zn	1.208344	-0.294875	-0.446913
Zn2	Zn	1.208235	-0.418728	-0.314737
Zn3	Zn	1.076166	-0.294898	-0.314751
Zn4	Zn	1.076111	-0.418672	-0.446875
O5	O	1.142214	-0.356793	-0.380819
O6	O	1.318940	-0.311318	-0.429390
O7	O	1.190693	-0.402335	-0.204128
O8	O	1.093768	-0.191262	-0.332304
O9	O	1.318860	-0.402312	-0.332280
O10	O	1.190879	-0.191245	-0.429404
O11	O	1.093662	-0.311357	-0.204138
O12	O	0.965548	-0.311304	-0.332267
O13	O	1.093675	-0.402217	-0.557491
O14	O	0.965508	-0.402240	-0.429339
O15	O	1.190825	-0.311264	-0.557519
O16	O	1.190640	-0.522353	-0.332243
O17	O	1.093569	-0.522313	-0.429325
C18	C	0.936848	-0.356769	-0.380801
C19	C	0.848991	-0.356776	-0.380812
C20	C	0.477512	-0.309404	-0.330380
C21	C	0.477519	-0.404244	-0.431304
C22	C	0.560065	-0.404233	-0.431299
C23	C	0.601338	-0.356808	-0.380833
C24	C	0.560066	-0.309393	-0.330372
C25	C	0.601344	-0.451652	-0.481754
C26	C	0.683895	-0.451644	-0.481750
C27	C	0.725169	-0.404214	-0.431287
C28	C	0.683892	-0.356797	-0.380825
C29	C	0.725165	-0.309372	-0.330359
C30	C	0.683889	-0.261951	-0.279899
C31	C	0.601340	-0.261964	-0.279909
C32	C	0.807718	-0.404201	-0.431278
C33	C	0.807718	-0.309362	-0.330351
C34	C	1.142108	-0.549204	-0.380796
C35	C	1.142135	-0.631518	-0.380812
C36	C	1.142309	-0.930609	-0.380855
C37	C	1.081376	-0.899289	-0.442088
C38	C	1.081087	-0.813671	-0.441896
C39	C	1.142223	-0.782226	-0.380834
C40	C	1.119672	-0.813380	-0.297530
C41	C	1.119279	-0.899025	-0.297896
C42	C	1.225925	-0.898956	-0.402193
C43	C	1.225433	-0.813305	-0.404020
C44	C	1.142175	-0.698367	-0.380818
C45	C	1.142354	-1.014468	-0.380866
C46	C	1.348382	-0.356818	-0.380838
C47	C	1.436239	-0.356829	-0.380846
C48	C	1.142256	-0.356732	-0.586987
C49	C	1.142274	-0.356705	-0.674844
C50	C	1.142342	-0.163631	-0.380860
C51	C	1.142396	-0.081317	-0.380877
C52	C	1.091825	-0.309260	-1.046332
C53	C	1.192863	-0.403995	-1.046308
C54	C	1.192849	-0.404012	-0.963762
C55	C	1.142322	-0.356653	-0.922497
C56	C	1.091808	-0.309277	-0.963778
C57	C	1.243357	-0.451393	-0.922475
C58	C	1.243344	-0.451413	-0.839924
C59	C	1.192820	-0.404050	-0.798658
C60	C	1.142305	-0.356671	-0.839944
C61	C	1.091777	-0.309312	-0.798678
C62	C	1.041265	-0.261929	-0.839963
C63	C	1.041284	-0.261914	-0.922511
C64	C	1.192802	-0.404064	-0.716109
C65	C	1.091760	-0.309329	-0.716125
C66	C	1.142217	-0.356801	-0.175453
C67	C	1.142352	-0.356619	-0.087597
H68	H	0.567726	-0.223357	-0.238827
H69	H	1.058156	-0.919065	-0.279821
H70	H	1.000159	-0.223338	-0.956132
N71	N	0.433012	-0.455391	-0.485738
H72	H	0.447355	-0.508288	-0.473365
H73	H	0.374469	-0.448143	-0.478064
H74	H	1.095345	-0.919835	-0.504057
H75	H	1.284485	-0.489959	-0.956079
H76	H	1.271322	-0.919210	-0.357595
N77	N	0.852235	-0.455348	-0.485690
H78	H	0.837896	-0.443920	-0.542190
H79	H	0.910777	-0.448121	-0.477961
H80	H	1.095195	-0.792605	-0.503666
N81	N	1.247347	-0.455084	-1.090811
H82	H	1.239689	-0.447887	-1.149369
H83	H	1.303806	-0.443572	-1.076397
H84	H	1.161735	-0.919746	-0.250718
H85	H	1.019774	-0.920873	-0.428131
H86	H	1.050701	-0.270680	-1.079949
N87	N	1.037271	-0.258240	-0.671619
H88	H	1.005280	-0.228222	-0.710300
H89	H	1.000660	-0.288382	-0.637356
N90	N	0.986765	-0.210849	-0.795458
H91	H	0.950108	-0.240950	-0.761199
H92	H	1.018960	-0.176554	-0.761264
N93	N	1.253173	-0.927514	-0.481274
H94	H	1.306931	-0.906527	-0.493797
H95	H	1.256293	-0.983208	-0.479550
H96	H	1.019108	-0.793245	-0.427762
N97	N	1.297822	-0.502515	-0.795399
H98	H	1.329832	-0.532514	-0.834067
H99	H	1.334416	-0.472380	-0.761165
H100	H	1.233933	-0.442638	-0.682499
N101	N	0.433000	-0.258271	-0.275944
H102	H	0.374442	-0.265475	-0.283599
H103	H	0.447412	-0.269747	-0.219475
H104	H	0.567733	-0.490268	-0.522835
H105	H	0.841317	-0.270737	-0.289259
N106	N	1.247968	-0.786333	-0.485227
H107	H	1.204464	-0.754114	-0.506913
H108	H	1.298385	-0.756790	-0.481831
H109	H	1.162656	-0.793013	-0.250663
H110	H	1.059196	-0.791992	-0.279130
N111	N	0.728408	-0.210806	-0.225464
H112	H	0.786964	-0.218001	-0.233116
H113	H	0.714012	-0.157929	-0.237867
H114	H	0.717495	-0.490257	-0.522838
H115	H	1.273233	-0.791896	-0.362672
