data_functionalizedCrystal
_audit_creation_method	'MofGen! by Chris Wilmer'
_symmetry_space_group_name_H-M	'P1'
_symmetry_Int_Tables_number	1
_symmetry_cell_setting	triclinic
loop_
_symmetry_equiv_pos_as_xyz
  x,y,z
_cell_length_a	12.759401
_cell_length_b	12.594516
_cell_length_c	12.759393
_cell_angle_alpha	89.970876
_cell_angle_beta	89.980596
_cell_angle_gamma	90.015974
loop_
_atom_site_label
_atom_site_type_symbol
_atom_site_fract_x
_atom_site_fract_y
_atom_site_fract_z
Zn1	Zn	1.606246	-0.423682	-0.594025
Zn2	Zn	1.939579	-0.090348	-0.260691
Zn3	Zn	2.272912	0.242985	0.072642
Zn4	Zn	1.606136	-0.601701	-0.418352
Zn5	Zn	1.939469	-0.268368	-0.085019
Zn6	Zn	2.272802	0.064966	0.248314
Zn7	Zn	1.430547	-0.423737	-0.418361
Zn8	Zn	1.763881	-0.090403	-0.085028
Zn9	Zn	2.097214	0.242930	0.248305
Zn10	Zn	1.430532	-0.601618	-0.593991
Zn11	Zn	1.763865	-0.268285	-0.260658
Zn12	Zn	2.097199	0.065048	0.072676
O13	O	1.518365	-0.512684	-0.506182
O14	O	1.851699	-0.179351	-0.172849
O15	O	2.185032	0.153982	0.160484
O16	O	1.753252	-0.447308	-0.570732
O17	O	2.086585	-0.113974	-0.237398
O18	O	2.419919	0.219359	0.095935
O19	O	1.582804	-0.578151	-0.271332
O20	O	1.916137	-0.244818	0.062001
O21	O	2.249471	0.088516	0.395334
O22	O	1.453907	-0.274783	-0.441681
O23	O	1.787240	0.058550	-0.108348
O24	O	2.120573	0.391883	0.224985
O25	O	1.753171	-0.578098	-0.441666
O26	O	2.086505	-0.244764	-0.108333
O27	O	2.419838	0.088569	0.225001
O28	O	1.582991	-0.274743	-0.570740
O29	O	1.916325	0.058590	-0.237407
O30	O	2.249658	0.391924	0.095926
O31	O	1.453800	-0.447401	-0.271339
O32	O	1.787134	-0.114068	0.061994
O33	O	2.120467	0.219265	0.395328
O34	O	1.283524	-0.447321	-0.441649
O35	O	1.616858	-0.113988	-0.108315
O36	O	1.950191	0.219345	0.225018
O37	O	1.453880	-0.577957	-0.741016
O38	O	1.787214	-0.244624	-0.407683
O39	O	2.120547	0.088710	-0.074350
O40	O	1.283513	-0.578010	-0.570683
O41	O	1.616846	-0.244677	-0.237350
O42	O	1.950180	0.088656	0.095984
O43	O	1.582976	-0.447228	-0.741041
O44	O	1.916310	-0.113894	-0.407708
O45	O	2.249643	0.219439	-0.074375
O46	O	1.582789	-0.750636	-0.441633
O47	O	1.916122	-0.417302	-0.108300
O48	O	2.249456	-0.083969	0.225033
O49	O	1.453774	-0.750575	-0.570674
O50	O	1.787107	-0.417242	-0.237341
O51	O	2.120440	-0.083908	0.095992
C52	C	1.245398	-0.512664	-0.506164
C53	C	1.578731	-0.179330	-0.172830
C54	C	1.912064	0.154003	0.160503
C55	C	1.128621	-0.512680	-0.506181
C56	C	1.461955	-0.179347	-0.172847
C57	C	1.795288	0.153986	0.160486
C58	C	0.964009	-0.444561	-0.439124
C59	C	1.297343	-0.111228	-0.105791
C60	C	1.630676	0.222105	0.227543
C61	C	1.073733	-0.444541	-0.439112
C62	C	1.407067	-0.111207	-0.105778
C63	C	1.740400	0.222126	0.227555
C64	C	1.073779	-0.580837	-0.573274
C65	C	1.407113	-0.247504	-0.239940
C66	C	1.740446	0.085830	0.093393
C67	C	0.964057	-0.580851	-0.573291
C68	C	1.297390	-0.247518	-0.239957
C69	C	1.630724	0.085815	0.093376
C70	C	0.963984	-0.365875	-0.361663
C71	C	1.297317	-0.032541	-0.028330
C72	C	1.630651	0.300792	0.305003
C73	C	1.073708	-0.365854	-0.361651
C74	C	1.407041	-0.032521	-0.028318
C75	C	1.740375	0.300812	0.305016
C76	C	1.518296	-0.789225	-0.506172
C77	C	1.851630	-0.455892	-0.172839
C78	C	2.184963	-0.122559	0.160495
C79	C	1.518363	-0.907531	-0.506203
C80	C	1.851696	-0.574197	-0.172869
C81	C	2.185030	-0.240864	0.160464
C82	C	1.448185	-0.976789	-0.576339
C83	C	1.781518	-0.643456	-0.243005
C84	C	2.114851	-0.310123	0.090328
C85	C	1.422585	-1.047660	-0.480472
C86	C	1.755919	-0.714326	-0.147139
C87	C	2.089252	-0.380993	0.186195
C88	C	1.544058	-1.047459	-0.602086
C89	C	1.877391	-0.714126	-0.268753
C90	C	2.210725	-0.380793	0.064581
C91	C	1.492713	-0.976843	-0.410285
C92	C	1.826046	-0.643509	-0.076952
C93	C	2.159380	-0.310176	0.256382
C94	C	1.614230	-0.976636	-0.531964
C95	C	1.947564	-0.643303	-0.198630
C96	C	2.280897	-0.309969	0.134703
C97	C	1.588667	-1.047474	-0.436031
C98	C	1.922001	-0.714141	-0.102698
C99	C	2.255334	-0.380808	0.230636
C100	C	1.792398	-0.512706	-0.506202
C101	C	2.125732	-0.179373	-0.172868
C102	C	2.459065	0.153961	0.160465
C103	C	1.909175	-0.512715	-0.506210
C104	C	2.242508	-0.179382	-0.172876
C105	C	2.575842	0.153952	0.160457
C106	C	1.518439	-0.512577	-0.780216
C107	C	1.851772	-0.179244	-0.446882
C108	C	2.185105	0.154090	-0.113549
C109	C	1.518470	-0.512531	-0.896992
C110	C	1.851803	-0.179198	-0.563659
C111	C	2.185137	0.154136	-0.230326
C112	C	1.518463	-0.235063	-0.506216
C113	C	1.851796	0.098270	-0.172882
C114	C	2.185130	0.431603	0.160451
C115	C	1.518505	-0.116758	-0.506230
C116	C	1.851838	0.216575	-0.172896
C117	C	2.185171	0.549909	0.160437
C118	C	1.585700	-0.444454	-0.951869
C119	C	1.919033	-0.111121	-0.618536
C120	C	2.252366	0.222213	-0.285202
C121	C	1.585725	-0.444415	-1.061593
C122	C	1.919058	-0.111082	-0.728260
C123	C	2.252391	0.222251	-0.394927
C124	C	1.451288	-0.580541	-1.061554
C125	C	1.784621	-0.247207	-0.728221
C126	C	2.117954	0.086126	-0.394888
C127	C	1.451258	-0.580573	-0.951832
C128	C	1.784591	-0.247240	-0.618499
C129	C	2.117925	0.086094	-0.285166
C130	C	1.663319	-0.365866	-0.951892
C131	C	1.996652	-0.032533	-0.618559
C132	C	2.329986	0.300800	-0.285226
C133	C	1.663344	-0.365828	-1.061617
C134	C	1.996677	-0.032494	-0.728283
C135	C	2.330011	0.300839	-0.394950
C136	C	1.518352	-0.512714	-0.233215
C137	C	1.851686	-0.179381	0.100118
C138	C	2.185019	0.153952	0.433452
C139	C	1.518525	-0.512460	-0.116439
C140	C	1.851858	-0.179127	0.216895
C141	C	2.185191	0.154206	0.550228
H142	H	0.929909	-0.395318	-0.284327
H143	H	1.263242	-0.061984	0.049006
H144	H	1.596576	0.271349	0.382339
F145	F	1.118226	-0.263540	-0.399909
F146	F	1.451560	0.069793	-0.066576
F147	F	1.784893	0.403126	0.266757
H148	H	0.934231	-0.283468	-0.383592
H149	H	1.267564	0.049865	-0.050259
H150	H	1.600898	0.383199	0.283075
H151	H	1.118477	-0.636310	-0.627890
H152	H	1.451811	-0.302977	-0.294557
H153	H	1.785144	0.030357	0.038777
H154	H	1.341578	-1.078880	-0.458705
H155	H	1.674912	-0.745547	-0.125372
H156	H	2.008245	-0.412213	0.207962
F157	F	1.769701	-0.394673	-1.100547
F158	F	2.103034	-0.061340	-0.767214
F159	F	2.436367	0.271994	-0.433880
H160	H	1.740590	-0.395417	-0.917859
H161	H	2.073923	-0.062084	-0.584526
H162	H	2.407257	0.271250	-0.251192
H163	H	1.565734	-1.078479	-0.683163
H164	H	1.899067	-0.745146	-0.349829
H165	H	2.232401	-0.411812	-0.016496
F166	F	0.905702	-0.653377	-0.644704
F167	F	1.239035	-0.320044	-0.311371
F168	F	1.572369	0.013289	0.021962
F169	F	1.625175	-0.263504	-1.106120
F170	F	1.958509	0.069829	-0.772787
F171	F	2.291842	0.403162	-0.439454
F172	F	1.112581	-0.394590	-0.255246
F173	F	1.445914	-0.061256	0.078088
F174	F	1.779247	0.272077	0.411421
H175	H	1.470943	-0.945951	-0.329186
H176	H	1.804277	-0.612618	0.004147
H177	H	2.137610	-0.279285	0.337480
F178	F	1.370478	-0.936219	-0.653752
F179	F	1.703812	-0.602885	-0.320419
F180	F	2.037145	-0.269552	0.012915
H181	H	1.648075	-1.078315	-0.376662
H182	H	1.981409	-0.744982	-0.043329
H183	H	2.314742	-0.411649	0.290004
H184	H	1.641552	-0.283437	-0.922133
H185	H	1.974886	0.049897	-0.588799
H186	H	2.308219	0.383230	-0.255466
F187	F	1.379689	-0.653015	-0.893432
F188	F	1.713022	-0.319682	-0.560099
F189	F	2.046356	0.013652	-0.226765
F190	F	1.720089	-0.935830	-0.560474
F191	F	2.053423	-0.602497	-0.227141
F192	F	2.386756	-0.269163	0.106193
H193	H	1.396564	-0.635935	-1.106218
H194	H	1.729897	-0.302602	-0.772885
H195	H	2.063230	0.030731	-0.439552
