data_functionalizedCrystal
_audit_creation_method	'MofGen! by Chris Wilmer'
_symmetry_space_group_name_H-M	'P1'
_symmetry_Int_Tables_number	1
_symmetry_cell_setting	triclinic
loop_
_symmetry_equiv_pos_as_xyz
  x,y,z
_cell_length_a	12.759395
_cell_length_b	15.297327
_cell_length_c	12.759387
_cell_angle_alpha	99.641137
_cell_angle_beta	89.981185
_cell_angle_gamma	99.708038
loop_
_atom_site_label
_atom_site_type_symbol
_atom_site_fract_x
_atom_site_fract_y
_atom_site_fract_z
Zn1	Zn	1.533801	-0.359066	-0.666311
Zn2	Zn	1.503252	-0.509955	-0.521016
Zn3	Zn	1.358094	-0.359118	-0.490658
Zn4	Zn	1.327660	-0.509888	-0.696642
O5	O	1.430702	-0.434506	-0.593657
O6	O	1.676769	-0.379088	-0.647049
O7	O	1.483948	-0.489996	-0.369978
O8	O	1.406924	-0.232866	-0.488561
O9	O	1.654324	-0.489945	-0.540301
O10	O	1.536015	-0.232827	-0.617612
O11	O	1.377301	-0.379177	-0.347674
O12	O	1.207037	-0.379111	-0.517971
O13	O	1.355054	-0.489831	-0.839630
O14	O	1.184678	-0.489881	-0.669306
O15	O	1.506505	-0.379022	-0.817346
O16	O	1.454438	-0.636191	-0.569712
O17	O	1.325431	-0.636142	-0.698743
C18	C	1.157737	-0.434495	-0.593637
C19	C	1.040957	-0.434512	-0.593657
C20	C	1.017674	-0.550044	-0.751063
C21	C	0.951171	-0.607816	-0.829770
C22	C	0.841447	-0.607827	-0.829785
C23	C	0.798226	-0.550057	-0.751086
C24	C	0.864729	-0.492285	-0.672379
C25	C	0.974454	-0.492282	-0.672371
C26	C	0.888012	-0.376750	-0.514980
C27	C	0.997735	-0.376743	-0.514958
C28	C	0.844791	-0.318980	-0.436281
C29	C	0.911294	-0.261211	-0.357568
C30	C	1.021023	-0.261203	-0.357555
C31	C	1.064239	-0.318970	-0.436251
C32	C	1.383345	-0.668900	-0.640836
C33	C	1.363182	-0.769175	-0.661055
C34	C	1.575245	-1.051810	-0.449510
C35	C	1.594189	-0.957597	-0.430508
C36	C	1.536439	-0.910487	-0.488143
C37	C	1.459742	-0.957599	-0.564783
C38	C	1.440790	-1.051822	-0.583781
C39	C	1.401984	-0.910498	-0.622414
C40	C	1.325287	-0.957610	-0.699054
C41	C	1.306339	-1.051823	-0.718049
C42	C	1.364089	-1.098934	-0.660414
C43	C	1.420936	-0.816276	-0.603417
C44	C	1.286481	-0.816287	-0.737687
C45	C	1.267537	-0.910500	-0.756689
C46	C	1.704733	-0.434518	-0.593678
C47	C	1.821509	-0.434523	-0.593687
C48	C	1.430792	-0.434413	-0.867672
C49	C	1.430830	-0.434374	-0.984440
C50	C	1.478272	-0.199197	-0.546316
C51	C	1.498544	-0.098922	-0.526143
C52	C	1.319790	-0.318970	-0.961233
C53	C	1.264292	-0.261250	-1.004486
C54	C	1.264330	-0.261217	-1.114201
C55	C	1.319869	-0.318913	-1.180667
C56	C	1.375367	-0.376632	-1.137414
C57	C	1.375325	-0.376657	-1.027695
C58	C	1.486400	-0.492039	-1.160622
C59	C	1.486370	-0.492069	-1.050906
C60	C	1.541939	-0.549735	-1.227088
C61	C	1.597444	-0.607452	-1.183834
C62	C	1.597405	-0.607481	-1.074112
C63	C	1.541867	-0.549789	-1.007653
C64	C	1.430686	-0.434534	-0.320695
C65	C	1.430902	-0.434320	-0.203876
H66	H	1.075167	-0.214151	-0.293468
H67	H	0.986374	-0.654850	-0.893846
H68	H	1.219070	-0.214277	-0.950358
N69	N	1.637514	-1.102632	-0.387359
H70	H	1.715886	-1.086179	-0.400416
H71	H	1.624434	-1.086281	-0.309009
N72	N	1.541817	-0.549822	-0.889318
H73	H	1.585399	-0.595142	-0.871999
H74	H	1.573612	-0.487914	-0.850523
H75	H	1.483383	-0.777926	-0.541016
H76	H	1.205089	-0.948872	-0.819090
H77	H	1.642655	-0.654426	-1.237959
N78	N	1.343652	-1.200552	-0.680902
H79	H	1.286298	-1.223252	-0.738193
H80	H	1.411214	-1.223106	-0.704794
N81	N	1.204464	-0.198974	-1.160866
H82	H	1.233804	-0.134518	-1.128822
H83	H	1.212939	-0.207796	-1.240451
N84	N	1.223600	-1.102640	-0.800690
H85	H	1.189889	-1.058503	-0.834319
H86	H	1.258484	-1.141672	-0.857219
N87	N	1.657272	-0.669732	-1.027463
H88	H	1.648825	-0.660998	-0.947873
H89	H	1.627893	-0.734156	-1.059595
N90	N	1.319898	-0.318877	-1.299002
H91	H	1.395329	-0.302295	-1.322106
H92	H	1.288030	-0.380769	-1.337790
H93	H	1.656634	-0.919242	-0.368108
H94	H	1.107015	-0.550047	-0.751052
N95	N	0.679882	-0.550070	-0.751101
H96	H	0.665955	-0.488206	-0.758087
H97	H	0.644391	-0.595473	-0.812905
H98	H	1.239454	-0.777931	-0.784617
H99	H	1.541960	-0.549709	-1.316424
N100	N	0.726446	-0.318996	-0.436286
H101	H	0.703367	-0.302500	-0.505071
H102	H	0.687606	-0.380881	-0.429256
H103	H	0.876094	-0.214175	-0.293502
N104	N	1.182582	-0.318959	-0.436245
H105	H	1.218158	-0.273595	-0.374446
H106	H	1.196417	-0.380855	-0.429296
N107	N	0.769712	-0.670133	-0.914677
H108	H	0.813737	-0.706727	-0.964531
H109	H	0.715746	-0.711838	-0.880221
H110	H	1.319763	-0.318983	-0.871894
N111	N	1.556866	-0.808872	-0.467652
H112	H	1.614217	-0.786175	-0.410357
H113	H	1.580675	-0.786187	-0.535201
