data_functionalizedCrystal
_audit_creation_method	'MofGen! by Chris Wilmer'
_symmetry_space_group_name_H-M	'P1'
_symmetry_Int_Tables_number	1
_symmetry_cell_setting	triclinic
loop_
_symmetry_equiv_pos_as_xyz
  x,y,z
_cell_length_a	13.339070
_cell_length_b	13.339070
_cell_length_c	12.376593
_cell_angle_alpha	80.988514
_cell_angle_beta	80.995146
_cell_angle_gamma	115.629294
loop_
_atom_site_label
_atom_site_type_symbol
_atom_site_fract_x
_atom_site_fract_y
_atom_site_fract_z
O1	O	1.520868	0.574597	-0.094035
O2	O	1.206058	0.502336	-0.094030
O3	O	1.327332	0.381061	-0.094028
O4	O	1.399594	0.695872	-0.094036
O5	O	1.279209	0.332925	0.093983
O6	O	1.157934	0.454200	0.093981
O7	O	1.472745	0.526461	0.093976
Zn8	Zn	1.307699	0.482688	0.123829
Zn9	Zn	1.371103	0.546109	-0.123883
O10	O	1.351471	0.647736	0.093975
C11	C	1.140880	0.466062	-0.000024
C12	C	1.018366	0.429678	-0.000022
C13	C	0.732985	0.712583	-0.000047
C14	C	0.848095	0.746772	-0.000052
C15	C	0.890668	0.667501	-0.000044
C16	C	0.818120	0.554036	-0.000031
C17	C	0.703001	0.519846	-0.000035
C18	C	0.860685	0.474764	-0.000032
C19	C	0.788137	0.361299	-0.000020
C20	C	0.673029	0.327114	-0.000022
C21	C	0.630456	0.406385	-0.000030
C22	C	0.975804	0.508954	-0.000029
C23	C	0.945820	0.316217	-0.000017
C24	C	0.830710	0.282028	-0.000012
C25	C	1.291065	0.315878	-0.000024
C26	C	1.254682	0.193365	-0.000028
C27	C	1.537582	-0.092021	-0.000032
C28	C	1.571767	0.023085	-0.000022
C29	C	1.492499	0.065661	-0.000024
C30	C	1.379040	-0.006881	-0.000035
C31	C	1.344849	-0.122001	-0.000037
C32	C	1.299766	0.035681	-0.000028
C33	C	1.186306	-0.036861	-0.000040
C34	C	1.152122	-0.151968	-0.000042
C35	C	1.231390	-0.194544	-0.000040
C36	C	1.333956	0.150801	-0.000027
C37	C	1.141223	0.120821	-0.000031
C38	C	1.107038	0.005715	-0.000042
C39	C	1.537923	0.562736	-0.000033
C40	C	1.660439	0.599122	-0.000042
C41	C	1.387739	0.712920	-0.000032
C42	C	1.424123	0.835435	-0.000035
N43	N	1.264435	0.439406	0.292887
N44	N	1.414374	0.589385	-0.292941
C45	C	1.514816	0.689875	0.647877
C46	C	1.545090	0.720177	0.529538
C47	C	1.474929	0.649987	0.470370
C48	C	1.374489	0.549490	0.529552
C49	C	1.344207	0.519190	0.647902
C50	C	1.304320	0.479301	0.470394
C51	C	1.203880	0.378804	0.529577
C52	C	1.173604	0.348509	0.647916
C53	C	1.243765	0.418699	0.707084
C54	C	1.334602	0.509601	0.352044
C55	C	1.163993	0.338916	0.352069
C56	C	1.133719	0.308614	0.470408
H57	H	0.698312	0.777115	-0.000063
F58	F	1.651963	0.827146	0.466561
H59	H	1.091813	0.266684	0.696098
H60	H	1.051938	0.226788	0.518611
F61	F	1.013179	0.703891	-0.000048
H62	H	1.034861	0.601337	-0.000035
F63	F	1.528885	0.188169	-0.000017
F64	F	1.089314	0.264211	0.289103
F65	F	1.195039	-0.317027	-0.000157
F66	F	0.986289	-0.071501	-0.000056
F67	F	0.753487	0.161272	0.000001
H68	H	1.664145	0.082140	-0.000012
H69	H	1.571926	0.747017	0.696063
H70	H	1.219122	0.394031	0.803446
H71	H	0.907158	0.839157	-0.000071
F72	F	1.056852	0.166126	-0.000027
H73	H	0.536725	0.378554	-0.000025
F74	F	0.991125	0.231846	-0.000016
F75	F	1.621927	-0.137346	-0.000013
H76	H	1.416379	0.591427	0.303869
F77	F	1.454703	0.227992	-0.000015
H78	H	0.613966	0.234727	-0.000025
H79	H	1.059734	-0.211032	-0.000042
H80	H	1.499584	0.674665	0.374012
