data_functionalizedCrystal
_audit_creation_method	'MofGen! by Chris Wilmer'
_symmetry_space_group_name_H-M	'P1'
_symmetry_Int_Tables_number	1
_symmetry_cell_setting	triclinic
loop_
_symmetry_equiv_pos_as_xyz
  x,y,z
_cell_length_a	15.944551
_cell_length_b	10.654541
_cell_length_c	9.730217
_cell_angle_alpha	90.003041
_cell_angle_beta	89.996919
_cell_angle_gamma	83.991333
loop_
_atom_site_label
_atom_site_type_symbol
_atom_site_fract_x
_atom_site_fract_y
_atom_site_fract_z
O1	O	-1.115457	-0.161964	-0.114146
O2	O	-0.871023	-0.181933	-0.114180
O3	O	-0.998861	0.010863	-0.114154
O4	O	-0.987619	-0.354761	-0.114172
O5	O	-0.998857	0.010865	0.114426
O6	O	-0.871019	-0.181931	0.114400
O7	O	-1.115453	-0.161963	0.114434
Zn8	Zn	-0.993235	-0.171947	0.150709
Zn9	Zn	-0.993241	-0.171949	-0.150455
O10	O	-0.987615	-0.354759	0.114408
C11	C	-0.839722	-0.181103	0.000106
C12	C	-0.746462	-0.178618	0.000093
C13	C	-0.998034	0.057652	0.000135
C14	C	-0.995566	0.197063	0.000133
C15	C	-1.146754	-0.162793	0.000145
C16	C	-1.240014	-0.165278	0.000149
C17	C	-0.530880	-0.053173	0.000126
C18	C	-0.470198	-0.111426	-0.112579
C19	C	-0.575710	-0.174122	0.000109
C20	C	-0.470217	-0.111453	0.112783
C21	C	-0.410772	-0.169770	0.000131
C22	C	-0.516257	-0.232408	-0.112689
C23	C	-0.516282	-0.232418	0.112775
C24	C	-0.455618	-0.290760	0.000042
C25	C	-0.670727	-0.176625	0.000096
C26	C	-0.315756	-0.167276	0.000135
C27	C	-0.988442	-0.401548	0.000116
C28	C	-0.990910	-0.540959	0.000109
N29	N	-0.993238	-0.171944	0.356246
C30	C	-1.148431	0.227012	0.000171
C31	C	-1.223700	0.307480	0.000193
C32	C	-1.221376	0.438468	0.000189
C33	C	-1.143774	0.488989	0.000158
C34	C	-1.068504	0.408521	0.000136
C35	C	-1.070837	0.277532	0.000145
C36	C	-0.915641	0.378573	0.000087
C37	C	-0.917963	0.247584	0.000102
C38	C	-0.838039	0.429094	0.000057
C39	C	-0.762767	0.348625	0.000045
C40	C	-0.765095	0.217630	0.000051
C41	C	-0.842694	0.167116	0.000080
N42	N	-0.993245	-0.171941	-0.355991
C43	C	-1.106485	-0.001272	0.356260
C44	C	-1.163115	0.084060	0.428206
C45	C	-1.163123	0.084061	0.572086
C46	C	-1.106495	-0.001277	0.644022
C47	C	-1.049865	-0.086610	0.572076
C48	C	-1.049865	-0.086604	0.428192
C49	C	-0.936615	-0.257274	0.572062
C50	C	-0.936609	-0.257283	0.428182
C51	C	-0.879987	-0.342612	0.643998
C52	C	-0.823360	-0.427953	0.572051
C53	C	-0.823355	-0.427951	0.428163
C54	C	-0.879980	-0.342615	0.356235
H55	H	-0.563632	0.047204	-0.000009
H56	H	-0.703801	0.152119	0.000027
Cl57	Cl	-0.879992	-0.342608	0.824877
H58	H	-0.777253	-0.497424	0.630631
Cl59	Cl	-0.752154	-0.535227	0.337728
Cl60	Cl	-0.438748	-0.032441	0.259891
Cl61	Cl	-0.405316	-0.445891	-0.000058
H62	H	-0.879984	-0.342611	0.239081
H63	H	-0.844597	0.060461	0.000093
H64	H	-0.449794	-0.060271	-0.207858
H65	H	-0.699590	0.389771	0.000011
H66	H	-1.150331	0.120356	0.000194
H67	H	-0.536542	-0.283527	-0.208076
Cl68	Cl	-1.106491	-0.001280	0.175381
Cl69	Cl	-0.547821	-0.311334	0.259886
H70	H	-1.282667	0.503986	0.000196
Cl71	Cl	-1.321252	0.243962	0.000224
H72	H	-1.141888	0.595648	0.000137
H73	H	-0.836151	0.535752	0.000045
Cl74	Cl	-1.234299	0.191343	0.337770
Cl75	Cl	-1.106495	-0.001260	0.824901
Cl76	Cl	-1.234311	0.191344	0.662536
