data_functionalizedCrystal
_audit_creation_method	'MofGen! by Chris Wilmer'
_symmetry_space_group_name_H-M	'P1'
_symmetry_Int_Tables_number	1
_symmetry_cell_setting	triclinic
loop_
_symmetry_equiv_pos_as_xyz
  x,y,z
_cell_length_a	25.639239
_cell_length_b	19.077148
_cell_length_c	19.077174
_cell_angle_alpha	94.517322
_cell_angle_beta	92.270789
_cell_angle_gamma	92.265757
loop_
_atom_site_label
_atom_site_type_symbol
_atom_site_fract_x
_atom_site_fract_y
_atom_site_fract_z
Zn1	Zn	-0.254047	-1.093621	-0.441845
Zn2	Zn	-0.337819	-1.088778	-0.323951
Zn3	Zn	-0.246737	-0.971008	-0.319241
Zn4	Zn	-0.337784	-0.975672	-0.437067
O5	O	-0.294097	-1.032270	-0.380526
O6	O	-0.268234	-1.191627	-0.430177
O7	O	-0.322693	-1.069177	-0.224677
O8	O	-0.174545	-0.987348	-0.335533
O9	O	-0.329781	-1.188069	-0.343561
O10	O	-0.179915	-1.077431	-0.425610
O11	O	-0.255775	-0.982652	-0.221216
O12	O	-0.255741	-0.872978	-0.330900
O13	O	-0.329720	-0.995296	-0.536350
O14	O	-0.322632	-0.876404	-0.417466
O15	O	-0.268199	-1.081953	-0.539861
O16	O	-0.410977	-1.073699	-0.338928
O17	O	-0.410951	-0.990600	-0.422033
C18	C	-0.288390	-0.849112	-0.373154
C19	C	-0.285962	-0.770757	-0.370016
C20	C	-0.268524	-0.329509	-0.347526
C21	C	-0.270809	-0.403132	-0.350478
C22	C	-0.306830	-0.441741	-0.396951
C23	C	-0.340566	-0.406723	-0.440480
C24	C	-0.338279	-0.333101	-0.437531
C25	C	-0.317410	-0.662118	-0.410597
C26	C	-0.319696	-0.735744	-0.413541
C27	C	-0.249937	-0.732149	-0.323539
C28	C	-0.247655	-0.658526	-0.320592
C29	C	-0.281389	-0.623515	-0.364124
N30	N	-0.309168	-0.516995	-0.399967
N31	N	-0.279049	-0.548262	-0.361110
C32	C	-0.429935	-1.032150	-0.380489
C33	C	-0.488050	-1.032164	-0.380499
C34	C	-0.848423	-1.075660	-0.337335
C35	C	-0.903029	-1.075687	-0.337345
O36	O	-0.931270	-1.112545	-0.300604
N37	N	-0.930341	-1.032395	-0.380578
C38	C	-0.903045	-0.989078	-0.423808
O39	O	-0.931291	-0.952258	-0.460582
C40	C	-0.848441	-0.989054	-0.423801
C41	C	-0.821132	-1.032344	-0.380560
C42	C	-0.821114	-1.118946	-0.294098
C43	C	-0.766512	-1.118917	-0.294087
C44	C	-0.739220	-1.075602	-0.337312
C45	C	-0.766530	-1.032315	-0.380549
C46	C	-0.821147	-0.945741	-0.467034
C47	C	-0.766539	-0.945722	-0.467023
C48	C	-0.739229	-0.989012	-0.423783
C49	C	-0.684636	-0.988971	-0.423763
N50	N	-0.657324	-1.032263	-0.380530
C51	C	-0.684616	-1.075578	-0.337305
C52	C	-1.017718	-0.989132	-0.423821
C53	C	-1.072321	-0.989151	-0.423825
C54	C	-1.072301	-1.075761	-0.337363
C55	C	-1.017697	-1.075738	-0.337356
C56	C	-0.990406	-1.032424	-0.380588
C57	C	-0.569948	-1.075514	-0.337284
C58	C	-0.515341	-1.075479	-0.337274
C59	C	-0.515367	-0.988872	-0.423739
C60	C	-0.569968	-0.988904	-0.423746
C61	C	-0.597258	-1.032230	-0.380516
O62	O	-0.656360	-0.952135	-0.460487
O63	O	-0.656364	-1.112399	-0.300543
C64	C	-0.157730	-1.032410	-0.380579
C65	C	-0.099618	-1.032469	-0.380602
C66	C	-0.299771	-1.039685	-0.564400
C67	C	-0.302189	-1.042845	-0.642755
C68	C	-0.299824	-0.216142	-0.387920
C69	C	-0.302258	-0.294496	-0.391051
C70	C	-0.268486	-0.999283	-0.677765
C71	C	-0.270762	-1.002249	-0.751389
C72	C	-0.306740	-1.048782	-0.790002
C73	C	-0.340447	-1.092346	-0.754987
C74	C	-0.338173	-1.089376	-0.681364
C75	C	-0.317280	-1.062494	-1.010382
C76	C	-0.319550	-1.065462	-1.084010
C77	C	-0.249866	-0.975364	-1.080407
C78	C	-0.247593	-0.972401	-1.006783
C79	C	-0.281302	-1.015962	-0.971775
N80	N	-0.309066	-1.051817	-0.865257
N81	N	-0.278977	-1.012923	-0.896521
C82	C	-0.288408	-1.024923	-0.197370
C83	C	-0.285847	-1.021900	-0.119019
H84	H	-0.222473	-0.760663	-0.288099
O85	O	-0.991148	-0.947007	-0.465714
C86	C	-0.956963	-0.899859	-0.423706
H87	H	-0.947898	-0.922609	-0.371306
H88	H	-0.976187	-0.847323	-0.413812
C89	C	-0.917030	-0.860651	-0.526324
C90	C	-0.905893	-0.888596	-0.461968
H91	H	-0.885528	-0.853700	-0.549926
H92	H	-0.940062	-0.892413	-0.554626
H93	H	-0.933051	-0.816873	-0.518070
H94	H	-0.889878	-0.932376	-0.470223
H95	H	-0.882856	-0.856841	-0.433668
O96	O	-0.238009	-0.960031	-0.785484
C97	C	-0.206800	-1.001912	-0.829698
H98	H	-0.227241	-1.055765	-0.842864
H99	H	-0.167415	-1.008546	-0.801664
C100	C	-0.173195	-0.899810	-0.881905
C101	C	-0.198303	-0.965951	-0.898081
H102	H	-0.167951	-0.877627	-0.924086
H103	H	-0.194219	-0.871593	-0.852116
H104	H	-0.140377	-0.905348	-0.858542
H105	H	-0.231123	-0.960412	-0.921436
H106	H	-0.177284	-0.994167	-0.927876
H107	H	-0.218326	-0.627096	-0.282744
H108	H	-0.592205	-0.953656	-0.458958
O109	O	-0.991223	-1.117753	-0.295256
C110	C	-1.001941	-1.099561	-0.224367
H111	H	-1.040717	-1.072415	-0.221801
H112	H	-0.969380	-1.062368	-0.199130
C113	C	-0.957628	-1.199941	-0.187639
C114	C	-1.005256	-1.166605	-0.184487
H115	H	-0.959670	-1.241296	-0.163038
H116	H	-0.950405	-1.212197	-0.235398
H117	H	-0.930498	-1.168940	-0.166609
H118	H	-1.032383	-1.197603	-0.205525
H119	H	-1.012483	-1.154356	-0.136731
H120	H	-0.369894	-0.438163	-0.478322
H121	H	-0.365614	-1.124854	-0.652861
H122	H	-0.493137	-0.953603	-0.458930
H123	H	-0.365747	-0.304595	-0.472975
O124	O	-0.354743	-0.773275	-0.458590
C125	C	-0.388539	-0.814210	-0.420074
H126	H	-0.389300	-0.789766	-0.363656
H127	H	-0.374032	-0.869924	-0.419917
C128	C	-0.443089	-0.846708	-0.523718
C129	C	-0.444028	-0.816682	-0.454426
H130	H	-0.477317	-0.848236	-0.544909
H131	H	-0.420319	-0.819131	-0.549668
H132	H	-0.430997	-0.893133	-0.523578
H133	H	-0.456113	-0.770255	-0.454569
H134	H	-0.466801	-0.844251	-0.428477
H135	H	-0.348849	-1.103358	-1.115447
O136	O	-0.596394	-1.117703	-0.295327
C137	C	-0.585654	-1.188564	-0.313631
H138	H	-0.546884	-1.191064	-0.340793
H139	H	-0.618216	-1.213767	-0.350845
C140	C	-0.629927	-1.225479	-0.213300
C141	C	-0.582307	-1.228549	-0.246657
H142	H	-0.627864	-1.250145	-0.171989
H143	H	-0.637164	-1.177738	-0.200970
H144	H	-0.657057	-1.246480	-0.244319
H145	H	-0.555179	-1.207540	-0.215641
H146	H	-0.575064	-1.276287	-0.258980
O147	O	-0.350239	-0.628223	-0.452898
C148	C	-0.382517	-0.678090	-0.494552
H149	H	-0.385023	-0.729398	-0.467774
H150	H	-0.365341	-0.688106	-0.548460
C151	C	-0.434517	-0.586706	-0.536293
C152	C	-0.437598	-0.649722	-0.503400
H153	H	-0.468492	-0.569207	-0.541755
H154	H	-0.412769	-0.553109	-0.508232
H155	H	-0.420201	-0.595061	-0.581213
H156	H	-0.451908	-0.641364	-0.458478
H157	H	-0.459349	-0.683317	-0.531454
H158	H	-0.843373	-0.910487	-0.502242
O159	O	-0.488785	-1.117431	-0.295190
C160	C	-0.454582	-1.075482	-0.248014
H161	H	-0.469218	-1.019794	-0.241383
H162	H	-0.413789	-1.073896	-0.269698
C163	C	-0.434578	-1.175426	-0.184290
C164	C	-0.452557	-1.107030	-0.176141
H165	H	-0.433327	-1.194886	-0.139956
H166	H	-0.457620	-1.203688	-0.216075
H167	H	-0.400586	-1.174095	-0.202363
H168	H	-0.486551	-1.108363	-0.158078
H169	H	-0.429521	-1.078768	-0.144352
H170	H	-1.094532	-1.111034	-0.302169
H171	H	-0.344734	-1.097957	-0.981887
O172	O	-0.740109	-0.903581	-0.509043
C173	C	-0.775928	-0.865398	-0.547221
H174	H	-0.813894	-0.861833	-0.518250
H175	H	-0.784158	-0.893340	-0.601816
C176	C	-0.706022	-0.795139	-0.589890
C177	C	-0.752651	-0.790755	-0.554305
H178	H	-0.691664	-0.749096	-0.594264
H179	H	-0.681890	-0.820865	-0.564172
H180	H	-0.712887	-0.818427	-0.635383
H181	H	-0.745785	-0.767475	-0.508810
H182	H	-0.776782	-0.765023	-0.580016
O183	O	-0.740070	-1.161043	-0.252070
C184	C	-0.775876	-1.199264	-0.213916
H185	H	-0.815755	-1.202852	-0.242900
H186	H	-0.779263	-1.171341	-0.159315
C187	C	-0.707564	-1.269484	-0.171243
C188	C	-0.756544	-1.273895	-0.206845
H189	H	-0.695639	-1.315519	-0.166878
H190	H	-0.683440	-1.243732	-0.196946
H191	H	-0.710393	-1.246212	-0.125746
H192	H	-0.753713	-1.297159	-0.252343
H193	H	-0.780667	-1.299653	-0.181149
H194	H	-0.843329	-1.154223	-0.258899
O195	O	-1.098767	-0.947074	-0.465889
C196	C	-1.062961	-0.908826	-0.504021
H197	H	-1.024990	-0.937782	-0.507635
H198	H	-1.054739	-0.854262	-0.476005
C199	C	-1.132887	-0.866073	-0.574197
C200	C	-1.086251	-0.901641	-0.578641
H201	H	-1.147253	-0.861638	-0.620225
H202	H	-1.157010	-0.891839	-0.548505
H203	H	-1.126028	-0.820607	-0.550848
H204	H	-1.093111	-0.947109	-0.601982
H205	H	-1.062129	-0.875882	-0.604338
H206	H	-0.239186	-0.961395	-0.646332
H207	H	-0.218297	-0.934507	-0.975349
H208	H	-0.222422	-0.939898	-1.108918
H209	H	-0.369744	-1.130230	-0.786431
H210	H	-0.239192	-0.298079	-0.309682
H211	H	-0.243341	-0.431636	-0.315032
