data_functionalizedCrystal
_audit_creation_method	'MofGen! by Chris Wilmer'
_symmetry_space_group_name_H-M	'P1'
_symmetry_Int_Tables_number	1
_symmetry_cell_setting	triclinic
loop_
_symmetry_equiv_pos_as_xyz
  x,y,z
_cell_length_a	13.897449
_cell_length_b	17.640280
_cell_length_c	13.897431
_cell_angle_alpha	101.279385
_cell_angle_beta	89.950255
_cell_angle_gamma	101.198218
loop_
_atom_site_label
_atom_site_type_symbol
_atom_site_fract_x
_atom_site_fract_y
_atom_site_fract_z
Zn1	Zn	1.552518	0.314311	-0.467924
Zn2	Zn	2.052518	0.814311	0.032076
Zn3	Zn	1.584972	0.446625	-0.274017
Zn4	Zn	2.084972	0.946625	0.225983
Zn5	Zn	1.391161	0.314453	-0.306607
Zn6	Zn	1.891161	0.814453	0.193393
Zn7	Zn	1.423792	0.446469	-0.435309
Zn8	Zn	1.923792	0.946469	0.064691
O9	O	1.488111	0.380464	-0.370964
O10	O	1.988111	0.880464	0.129036
O11	O	1.691806	0.331868	-0.442212
O12	O	2.191806	0.831868	0.057788
O13	O	1.559188	0.429217	-0.143327
O14	O	2.059188	0.929217	0.356673
O15	O	1.385327	0.203811	-0.355294
O16	O	1.885327	0.703811	0.144706
O17	O	1.715650	0.429079	-0.299750
O18	O	2.215650	0.929079	0.200250
O19	O	1.503875	0.203706	-0.473813
O20	O	2.003875	0.703706	0.026187
O21	O	1.416796	0.332111	-0.167271
O22	O	1.916796	0.832111	0.332729
O23	O	1.260506	0.331959	-0.323669
O24	O	1.760506	0.831959	0.176331
O25	O	1.440942	0.428812	-0.574648
O26	O	1.940942	0.928812	-0.074648
O27	O	1.284480	0.428950	-0.418225
O28	O	1.784480	0.928950	0.081775
O29	O	1.535517	0.331717	-0.598610
O30	O	2.035517	0.831717	-0.098610
O31	O	1.590829	0.557227	-0.268124
O32	O	2.090829	1.057227	0.231876
O33	O	1.472411	0.557112	-0.386625
O34	O	1.972411	1.057112	0.113375
C35	C	1.538709	0.585853	-0.320320
C36	C	2.038709	1.085853	0.179680
C37	C	1.560443	0.673719	-0.298687
C38	C	2.060443	1.173719	0.201313
C39	C	1.237494	0.380454	-0.370945
C40	C	1.737494	0.880454	0.129055
C41	C	1.130283	0.380468	-0.370954
C42	C	1.630283	0.880468	0.129046
C43	C	1.488249	0.380231	-0.622615
C44	C	1.988249	0.880231	-0.122615
C45	C	1.488308	0.380132	-0.729854
C46	C	1.988308	0.880132	-0.229854
C47	C	0.933989	0.380471	-0.370979
C48	C	1.433989	0.880471	0.129021
C49	C	1.043221	0.380467	-0.370963
C50	C	1.543221	0.880467	0.129037
C51	C	1.739706	0.380475	-0.370984
C52	C	2.239706	0.880475	0.129016
C53	C	1.846921	0.380480	-0.370992
C54	C	2.346921	0.880480	0.129008
C55	C	1.437341	0.174273	-0.421827
C56	C	1.937341	0.674273	0.078173
C57	C	1.415706	0.086407	-0.443501
C58	C	1.915706	0.586407	0.056499
C59	C	1.323392	0.962539	-0.535662
C60	C	1.823392	1.462539	-0.035662
C61	C	1.343817	1.045103	-0.515303
C62	C	1.843817	1.545103	-0.015303
C63	C	1.467203	1.045157	-0.392034
C64	C	1.967203	1.545157	0.107966
C65	C	1.446792	0.962591	-0.412385
C66	C	1.946792	1.462591	0.087615
C67	C	1.374885	0.921289	-0.484199
C68	C	1.874885	1.421289	0.015801
C69	C	1.498284	0.921341	-0.360923
C70	C	1.998284	1.421341	0.139077
C71	C	1.477871	0.838783	-0.381270
C72	C	1.977871	1.338783	0.118730
C73	C	1.405965	0.797475	-0.453079
C74	C	1.905965	1.297475	0.046921
C75	C	1.354471	0.838731	-0.504546
C76	C	1.854471	1.338731	-0.004546
C77	C	1.570186	0.962645	-0.289104
C78	C	2.070186	1.462645	0.210896
C79	C	1.621678	0.921395	-0.237642
C80	C	2.121678	1.421395	0.262358
C81	C	1.601270	0.838836	-0.257993
C82	C	2.101270	1.338836	0.242007
C83	C	1.529364	0.797528	-0.329802
C84	C	2.029364	1.297528	0.170198
C85	C	1.652764	0.797580	-0.206526
C86	C	2.152764	1.297580	0.293474
C87	C	1.632350	0.715022	-0.226872
C88	C	2.132350	1.215022	0.273128
C89	C	1.508951	0.714969	-0.350149
C90	C	2.008951	1.214969	0.149851
C91	C	1.488014	0.380639	-0.120306
C92	C	1.988014	0.880639	0.379694
C93	C	1.488087	0.380516	-0.013123
C94	C	1.988087	0.880516	0.486877
C95	C	1.488159	0.380403	0.073919
C96	C	1.988159	0.880403	0.573919
C97	C	1.488245	0.380255	0.183114
C98	C	1.988245	0.880255	0.683114
H99	H	1.450404	0.681339	-0.408634
H100	H	1.950404	1.181339	0.091366
C101	C	1.244278	0.917102	-0.614648
C102	C	1.744278	1.417102	-0.114648
N103	N	1.184684	0.882878	-0.674131
N104	N	1.684684	1.382878	-0.174131
C105	C	1.592642	1.053463	-0.266728
C106	C	2.092642	1.553463	0.233272
N107	N	1.609558	1.121866	-0.249877
N108	N	2.109558	1.621866	0.250123
C109	C	1.383511	0.706658	-0.475461
C110	C	1.883511	1.206658	0.024539
N111	N	1.366599	0.638254	-0.492321
N112	N	1.866599	1.138254	0.007679
C113	C	1.287170	1.090475	-0.571926
C114	C	1.787170	1.590475	-0.071926
N115	N	1.244505	1.124649	-0.614575
N116	N	1.744505	1.624649	-0.114575
H117	H	1.525746	1.078797	-0.333560
H118	H	2.025746	1.578797	0.166440
C119	C	1.700770	0.966838	-0.158645
C120	C	2.200770	1.466838	0.341355
N121	N	1.760343	1.001064	-0.099143
N122	N	2.260343	1.501064	0.400857
C123	C	1.731848	0.843024	-0.127522
C124	C	2.231848	1.343024	0.372478
N125	N	1.791415	0.877252	-0.068015
N126	N	2.291415	1.377252	0.431985
H127	H	1.674280	0.681436	-0.184965
H128	H	2.174280	1.181436	0.315035
H129	H	1.295925	0.805101	-0.563032
H130	H	1.795925	1.305101	-0.063032
