data_functionalizedCrystal
_audit_creation_method	'MofGen! by Chris Wilmer'
_symmetry_space_group_name_H-M	'P1'
_symmetry_Int_Tables_number	1
_symmetry_cell_setting	triclinic
loop_
_symmetry_equiv_pos_as_xyz
  x,y,z
_cell_length_a	12.759401
_cell_length_b	21.295417
_cell_length_c	12.759393
_cell_angle_alpha	89.961742
_cell_angle_beta	89.982824
_cell_angle_gamma	90.030668
loop_
_atom_site_label
_atom_site_type_symbol
_atom_site_fract_x
_atom_site_fract_y
_atom_site_fract_z
Zn1	Zn	1.606126	-0.250575	-0.593926
Zn2	Zn	1.605976	-0.355857	-0.418223
Zn3	Zn	1.430432	-0.250606	-0.418265
Zn4	Zn	1.430368	-0.355811	-0.593864
O5	O	1.518226	-0.303212	-0.506069
O6	O	1.753127	-0.264547	-0.570626
O7	O	1.582654	-0.341928	-0.271207
O8	O	1.453828	-0.162513	-0.441611
O9	O	1.753017	-0.341898	-0.441538
O10	O	1.582910	-0.162490	-0.570668
O11	O	1.453682	-0.264601	-0.271238
O12	O	1.283403	-0.264555	-0.441551
O13	O	1.453719	-0.341818	-0.740893
O14	O	1.283356	-0.341849	-0.570562
O15	O	1.582848	-0.264502	-0.740939
O16	O	1.582592	-0.443941	-0.441478
O17	O	1.453574	-0.443906	-0.570521
C18	C	1.245258	-0.303201	-0.506055
C19	C	1.128482	-0.303211	-0.506074
C20	C	1.073623	-0.343522	-0.573139
C21	C	0.963899	-0.343530	-0.573151
C22	C	0.963902	-0.262914	-0.439022
C23	C	1.073624	-0.262904	-0.439017
C24	C	1.073620	-0.390067	-0.650574
C25	C	0.963896	-0.390075	-0.650585
C26	C	1.518088	-0.466764	-0.506011
C27	C	1.518125	-0.536732	-0.506021
C28	C	1.585365	-0.569596	-0.438898
C29	C	1.585414	-0.635338	-0.438921
C30	C	1.518205	-0.668215	-0.506058
C31	C	1.450961	-0.635343	-0.573195
C32	C	1.450921	-0.569602	-0.573177
N33	N	1.426298	-0.771480	-0.514062
N34	N	1.426339	-0.833931	-0.514073
C35	C	1.518323	-0.866289	-0.506118
N36	N	1.610267	-0.833836	-0.498130
N37	N	1.610224	-0.771379	-0.498114
C38	C	1.518241	-0.739500	-0.506085
C39	C	1.585621	-0.970438	-0.439016
C40	C	1.585672	-1.036182	-0.439047
C41	C	1.451210	-1.036186	-0.573315
C42	C	1.451168	-0.970443	-0.573289
C43	C	1.518372	-0.937574	-0.506134
C44	C	1.792259	-0.303224	-0.506084
C45	C	1.909036	-0.303230	-0.506091
C46	C	1.518293	-0.303151	-0.780103
C47	C	1.518322	-0.303126	-0.896880
C48	C	1.518393	-0.139022	-0.506151
C49	C	1.518464	-0.069054	-0.506185
C50	C	1.451107	-0.343365	-0.951720
C51	C	1.451145	-0.343342	-1.061444
C52	C	1.585616	-0.262835	-1.061478
C53	C	1.585582	-0.262861	-0.951756
C54	C	1.373468	-0.389844	-0.951701
C55	C	1.373506	-0.389821	-1.061425
C56	C	1.518219	-0.303228	-0.233102
C57	C	1.518394	-0.303076	-0.116326
H58	H	1.640089	-0.542835	-0.384219
N59	N	1.658103	-0.934980	-0.366592
H60	H	1.700714	-0.965778	-0.324077
H61	H	1.706680	-0.907653	-0.409390
H62	H	1.640433	-1.062939	-0.384389
N63	N	1.265810	-0.372446	-1.100952
H64	H	1.236972	-0.407871	-1.144952
H65	H	1.217744	-0.364693	-1.039408
N66	N	1.378726	-1.071635	-0.645737
H67	H	1.388955	-1.118270	-0.635567
H68	H	1.303693	-1.060194	-0.629319
H69	H	0.929904	-0.372673	-0.727941
H70	H	0.919224	-0.230097	-0.384428
H71	H	1.118286	-0.230074	-0.384413
N72	N	1.378637	-0.934992	-0.645680
H73	H	1.336065	-0.965793	-0.688214
H74	H	1.330026	-0.907765	-0.602860
H75	H	0.934078	-0.438816	-0.628642
N76	N	1.378462	-0.670800	-0.645596
H77	H	1.335857	-0.640003	-0.688117
H78	H	1.421213	-0.698032	-0.694260
H79	H	1.103432	-0.377066	-0.731984
H80	H	1.640326	-0.230101	-0.907109
N81	N	1.657940	-0.670795	-0.366522
H82	H	1.700508	-0.639996	-0.323980
H83	H	1.615210	-0.698118	-0.317879
H84	H	1.640378	-0.230054	-1.106172
H85	H	1.107613	-0.436353	-0.621279
N86	N	1.402227	-0.454435	-0.912217
H87	H	1.415096	-0.483239	-0.973739
H88	H	1.467837	-0.451610	-0.868207
H89	H	1.396165	-0.542844	-0.627838
N90	N	1.271101	-0.366704	-0.906638
H91	H	1.212107	-0.394744	-0.931048
H92	H	1.274899	-0.367557	-0.827588
N93	N	1.412053	-0.451157	-1.106490
H94	H	1.486134	-0.459179	-1.082059
H95	H	1.365107	-0.486448	-1.082041
