data_functionalizedCrystal
_audit_creation_method	'MofGen! by Chris Wilmer'
_symmetry_space_group_name_H-M	'P1'
_symmetry_Int_Tables_number	1
_symmetry_cell_setting	triclinic
loop_
_symmetry_equiv_pos_as_xyz
  x,y,z
_cell_length_a	23.532407
_cell_length_b	8.597340
_cell_length_c	7.088929
_cell_angle_alpha	103.954719
_cell_angle_beta	96.176964
_cell_angle_gamma	95.901239
loop_
_atom_site_label
_atom_site_type_symbol
_atom_site_fract_x
_atom_site_fract_y
_atom_site_fract_z
O1	O	-0.078213	2.100130	0.187002
O2	O	-0.087510	1.635301	0.110431
O3	O	0.000048	1.881730	0.151001
O4	O	-0.165771	1.853701	0.146432
O5	O	0.011776	1.914663	0.474398
O6	O	-0.075782	1.668234	0.433828
O7	O	-0.066485	2.133064	0.510399
Cu8	Cu	-0.070063	1.903656	0.501642
Cu9	Cu	-0.083932	1.864708	0.119188
O10	O	-0.154043	1.886634	0.469829
C11	C	-0.081301	1.592310	0.262334
C12	C	-0.080266	1.415145	0.233148
C13	C	-0.181124	1.870882	0.308254
C14	C	-0.244343	1.873030	0.308626
C15	C	-0.643249	1.740649	0.286721
C16	C	-0.702653	1.742642	0.287036
O17	O	-0.739213	1.619925	0.266750
N18	N	-0.725501	1.889146	0.311172
C19	C	-0.688944	2.033664	0.334975
O20	O	-0.713833	2.158460	0.355532
C21	C	-0.629541	2.031669	0.334646
C22	C	-0.606696	1.885157	0.310528
C23	C	-0.620402	1.594149	0.262603
C24	C	-0.561003	1.592158	0.262292
C25	C	-0.524449	1.736666	0.286099
C26	C	-0.547296	1.883166	0.310217
C27	C	-0.592985	2.176185	0.358435
C28	C	-0.533580	2.174176	0.358102
C29	C	-0.510734	2.027665	0.333984
C30	C	-0.451343	2.025683	0.333713
N31	N	-0.428494	1.879179	0.309577
C32	C	-0.465047	1.734671	0.285770
C33	C	-0.813693	2.037844	0.335661
C34	C	-0.873093	2.039842	0.336004
C35	C	-0.886798	1.748819	0.288061
C36	C	-0.827396	1.746823	0.287732
C37	C	-0.790844	1.891340	0.311525
C38	C	-0.340303	1.730500	0.285120
C39	C	-0.280897	1.728522	0.284819
C40	C	-0.267197	2.019544	0.332752
C41	C	-0.326598	2.021524	0.333063
C42	C	-0.363150	1.876988	0.309238
O43	O	-0.414747	2.148334	0.353980
O44	O	-0.440151	1.609893	0.265191
C45	C	0.027129	1.897482	0.312571
C46	C	0.090348	1.895332	0.312187
C47	C	-0.072694	2.176054	0.358491
C48	C	-0.073730	2.353218	0.387665
N49	N	-0.060307	1.931061	0.770642
N50	N	-0.093683	1.837316	-0.149810
H51	H	-0.085070	1.332616	0.078513
N52	N	-0.257570	1.578845	0.260196
N53	N	-0.290218	1.449834	0.238942
H54	H	-0.273746	1.344126	0.221553
N55	N	-0.137062	1.715403	0.727706
N56	N	-0.135583	1.570159	0.726010
H57	H	-0.166220	1.484053	0.639493
N58	N	-0.377626	1.582846	0.260765
N59	N	-0.357211	1.452064	0.239229
H60	H	-0.383569	1.347782	0.222034
H61	H	-0.068922	1.435739	0.542289
N62	N	-0.537681	1.442484	0.237641
N63	N	-0.570334	1.313480	0.216377
H64	H	-0.553867	1.207762	0.198958
N65	N	-0.657744	1.446538	0.238274
N66	N	-0.697361	1.401276	0.096793
H67	H	-0.723731	1.297017	0.079619
H68	H	-0.025723	2.028235	0.868296
H69	H	-0.891687	2.159150	0.355674
H70	H	-0.808799	1.627521	0.268101
H71	H	-0.783934	2.155536	0.355050
H72	H	-0.345198	2.140828	0.352729
N73	N	-0.924151	1.601217	0.263746
N74	N	-0.977187	1.603035	0.264037
H75	H	-1.003569	1.498799	0.246867
N76	N	-0.616302	2.325859	0.383074
N77	N	-0.583649	2.454857	0.404309
H78	H	-0.600114	2.560575	0.421708
H79	H	-0.503821	2.291861	0.377467
N80	N	-0.229844	2.167135	0.357079
N81	N	-0.176809	2.165317	0.356785
H82	H	-0.150426	2.269553	0.373955
