data_functionalizedCrystal
_audit_creation_method	'MofGen! by Chris Wilmer'
_symmetry_space_group_name_H-M	'P1'
_symmetry_Int_Tables_number	1
_symmetry_cell_setting	triclinic
loop_
_symmetry_equiv_pos_as_xyz
  x,y,z
_cell_length_a	9.065218
_cell_length_b	14.971486
_cell_length_c	8.140239
_cell_angle_alpha	90.004550
_cell_angle_beta	90.003526
_cell_angle_gamma	95.684993
loop_
_atom_site_label
_atom_site_type_symbol
_atom_site_fract_x
_atom_site_fract_y
_atom_site_fract_z
O1	O	0.192260	-1.188372	0.136418
O2	O	0.215284	-0.928144	0.136461
O3	O	-0.010979	-1.063637	0.136435
O4	O	0.418524	-1.052879	0.136444
O5	O	-0.010991	-1.063636	-0.136792
O6	O	0.215272	-0.928143	-0.136766
O7	O	0.192249	-1.188371	-0.136810
Zn8	Zn	0.203759	-1.058257	-0.180168
Zn9	Zn	0.203774	-1.058258	0.179820
O10	O	0.418512	-1.052878	-0.136783
C11	C	-0.065951	-1.062602	-0.000175
C12	C	-0.229731	-1.059511	-0.000167
C13	C	0.214248	-0.894811	-0.000146
C14	C	0.211163	-0.795491	-0.000129
C15	C	0.193284	-1.221704	-0.000198
C16	C	0.196370	-1.321024	-0.000204
C17	C	0.473483	-1.053912	-0.000169
C18	C	0.637264	-1.057004	-0.000167
N19	N	0.203747	-1.058262	-0.425851
C20	C	0.344086	-0.739256	-0.000129
C21	C	0.341178	-0.645935	-0.000154
C22	C	0.205345	-0.608850	-0.000167
C23	C	0.072412	-0.665092	-0.000172
C24	C	0.075321	-0.758411	-0.000159
C25	C	0.066357	-0.470584	-0.000195
C26	C	0.063446	-0.377259	-0.000204
C27	C	0.332214	-0.358108	-0.000189
C28	C	0.335123	-0.451427	-0.000176
C29	C	0.202189	-0.507663	-0.000179
N30	N	0.203773	-1.058259	0.425503
H31	H	0.454697	-0.769442	-0.000117
H32	H	-0.047161	-0.347068	-0.000217
H33	H	0.440454	-0.312316	-0.000195
O34	O	-0.062813	-0.525177	0.000102
C35	C	-0.291658	-0.570055	0.141624
C36	C	-0.145422	-0.508191	0.141497
H37	H	-0.358503	-0.556330	0.255912
H38	H	-0.266331	-0.643138	0.141742
H39	H	-0.358450	-0.556450	0.027227
H40	H	-0.078559	-0.521716	0.255874
H41	H	-0.170853	-0.435128	0.141293
O42	O	0.470258	-0.591268	-0.000428
C43	C	0.622920	-0.474759	-0.141910
C44	C	0.476695	-0.536633	-0.141827
H45	H	0.628158	-0.430558	-0.256202
H46	H	0.720565	-0.517246	-0.141989
H47	H	0.628243	-0.430623	-0.027517
H48	H	0.471227	-0.580781	-0.256201
H49	H	0.379118	-0.494094	-0.141663
O50	O	-0.053938	-0.812912	-0.000078
C51	C	-0.320825	-0.822064	-0.000184
C52	C	-0.174546	-0.760241	-0.000231
H53	H	-0.418375	-0.779505	-0.000343
H54	H	-0.326279	-0.866206	0.114193
H55	H	-0.326104	-0.866261	-0.114497
H56	H	-0.169170	-0.715989	0.114005
H57	H	-0.169152	-0.716159	-0.114684
H58	H	0.445730	-0.481618	-0.000150
H59	H	-0.038186	-0.634890	-0.000206
