data_functionalizedCrystal
_audit_creation_method	'MofGen! by Chris Wilmer'
_symmetry_space_group_name_H-M	'P1'
_symmetry_Int_Tables_number	1
_symmetry_cell_setting	triclinic
loop_
_symmetry_equiv_pos_as_xyz
  x,y,z
_cell_length_a	13.032721
_cell_length_b	13.033286
_cell_length_c	18.215399
_cell_angle_alpha	97.174609
_cell_angle_beta	97.154261
_cell_angle_gamma	89.137287
loop_
_atom_site_label
_atom_site_type_symbol
_atom_site_fract_x
_atom_site_fract_y
_atom_site_fract_z
Zn1	Zn	-0.608907	1.520140	-0.334295
Zn2	Zn	-0.780886	1.498183	-0.228576
Zn3	Zn	-0.587123	1.348169	-0.224711
Zn4	Zn	-0.759018	1.326302	-0.365054
O5	O	-0.683984	1.423198	-0.288159
O6	O	-0.649988	1.661131	-0.309016
O7	O	-0.755218	1.478246	-0.125086
O8	O	-0.446101	1.389322	-0.224757
O9	O	-0.776340	1.644999	-0.231345
O10	O	-0.462105	1.515668	-0.305268
O11	O	-0.612861	1.368032	-0.122246
O12	O	-0.591658	1.201365	-0.254582
O13	O	-0.739071	1.352052	-0.463952
O14	O	-0.717948	1.185299	-0.357692
O15	O	-0.628785	1.494464	-0.441353
O16	O	-0.921897	1.457042	-0.261171
O17	O	-0.905832	1.330761	-0.361440
C18	C	-0.650067	1.156020	-0.309056
C19	C	-0.635582	1.041716	-0.318016
C20	C	-0.951183	1.389174	-0.315077
C21	C	-1.065504	1.374712	-0.326609
C22	C	-0.691544	0.982787	-0.283501
C23	C	-0.676574	0.864648	-0.292761
C24	C	-1.124393	1.430801	-0.282169
C25	C	-1.242550	1.415855	-0.294087
C26	C	-0.415745	1.457384	-0.261150
C27	C	-0.301437	1.471952	-0.249641
C28	C	-0.683918	1.423268	-0.480100
C29	C	-0.683891	1.423298	-0.561894
C30	C	-0.718034	1.691420	-0.267181
C31	C	-0.732544	1.805721	-0.258241
C32	C	-0.626381	1.497501	-0.815174
C33	C	-0.626407	1.497485	-0.738319
C34	C	-0.741262	1.349197	-0.761841
C35	C	-0.741241	1.349218	-0.838694
C36	C	-0.683794	1.423369	-0.865358
C37	C	-0.683842	1.423332	-0.711650
C38	C	-0.683871	1.423315	-0.628320
C39	C	-0.683767	1.423388	-0.948693
C40	C	-0.683982	1.423198	-0.096953
C41	C	-0.683745	1.423404	-0.015115
H42	H	-0.750540	1.019797	-0.247100
O43	O	-0.570458	1.569400	-0.841109
C44	C	-0.496607	1.519328	-0.883470
H45	H	-0.479984	1.439138	-0.866003
H46	H	-0.422183	1.566605	-0.873467
H47	H	-0.527937	1.511753	-0.945194
H48	H	-0.787999	1.288849	-0.879558
H49	H	-0.791549	0.842724	-0.221841
H50	H	-0.617580	0.827642	-0.329170
H51	H	-0.788031	1.288824	-0.740121
H52	H	-1.279603	1.356771	-0.340964
O53	O	-0.570784	1.569574	-0.689538
C54	C	-0.637758	1.628514	-0.645764
H55	H	-0.719556	1.624578	-0.676579
H56	H	-0.610585	1.712385	-0.634954
H57	H	-0.637290	1.596242	-0.590365
H58	H	-0.576592	1.004706	-0.354423
O59	O	-1.109834	1.304352	-0.382565
C60	C	-1.179289	1.355073	-0.431780
H61	H	-1.205124	1.431025	-0.401369
H62	H	-1.249595	1.303684	-0.452469
H63	H	-1.139313	1.371525	-0.481297
O64	O	-1.080127	1.501148	-0.226179
C65	C	-1.010629	1.450433	-0.176987
H66	H	-1.032871	1.365361	-0.181985
H67	H	-1.014044	1.487836	-0.117329
H68	H	-0.928776	1.457093	-0.191869
H69	H	-1.264386	1.531044	-0.202769
