data_functionalizedCrystal
_audit_creation_method	'MofGen! by Chris Wilmer'
_symmetry_space_group_name_H-M	'P1'
_symmetry_Int_Tables_number	1
_symmetry_cell_setting	triclinic
loop_
_symmetry_equiv_pos_as_xyz
  x,y,z
_cell_length_a	17.640280
_cell_length_b	12.759401
_cell_length_c	12.759393
_cell_angle_alpha	90.019322
_cell_angle_beta	78.768122
_cell_angle_gamma	101.201278
loop_
_atom_site_label
_atom_site_type_symbol
_atom_site_fract_x
_atom_site_fract_y
_atom_site_fract_z
Zn1	Zn	-0.314670	-1.690829	-0.509526
Zn2	Zn	-0.446868	-1.726253	-0.298355
Zn3	Zn	-0.314706	-1.515140	-0.333853
Zn4	Zn	-0.446802	-1.550632	-0.474012
O5	O	-0.380762	-1.620713	-0.403937
O6	O	-0.332219	-1.842552	-0.481520
O7	O	-0.429379	-1.698221	-0.156032
O8	O	-0.204094	-1.508767	-0.386875
O9	O	-0.429344	-1.868579	-0.326374
O10	O	-0.204067	-1.637844	-0.515941
O11	O	-0.332281	-1.543117	-0.182112
O12	O	-0.332217	-1.372824	-0.352439
O13	O	-0.429232	-1.569257	-0.625756
O14	O	-0.429267	-1.398899	-0.455413
O15	O	-0.332155	-1.672259	-0.651848
O16	O	-0.557467	-1.732636	-0.291938
O17	O	-0.557419	-1.603607	-0.420992
C18	C	-0.380739	-1.347740	-0.403924
C19	C	-0.380748	-1.230966	-0.403939
C20	C	-0.586122	-1.675845	-0.348782
C21	C	-0.673976	-1.699527	-0.325222
C22	C	-0.431362	-1.189730	-0.457424
C23	C	-0.431369	-1.080008	-0.457432
C24	C	-0.330146	-1.052766	-0.350461
C25	C	-0.330136	-1.162486	-0.350460
C26	C	-0.481974	-1.258211	-0.510903
C27	C	-0.532592	-1.216976	-0.564392
C28	C	-0.532599	-1.107254	-0.564400
C29	C	-0.481987	-1.038766	-0.510919
C30	C	-0.962929	-1.441237	-0.583303
C31	C	-1.045481	-1.463492	-0.561131
C32	C	-1.045466	-1.597932	-0.426883
C33	C	-0.962912	-1.575692	-0.449047
C34	C	-0.921650	-1.497343	-0.527257
C35	C	-0.921633	-1.631798	-0.393001
C36	C	-0.839087	-1.609556	-0.415160
C37	C	-0.797819	-1.531208	-0.493364
C38	C	-0.839103	-1.475101	-0.549416
C39	C	-0.962897	-1.710142	-0.314786
C40	C	-0.921618	-1.766248	-0.258740
C41	C	-0.839070	-1.744012	-0.280904
C42	C	-0.797802	-1.665663	-0.359109
C43	C	-0.797785	-1.800119	-0.224853
C44	C	-0.715239	-1.777877	-0.247012
C45	C	-0.715255	-1.643421	-0.381267
C46	C	-0.174599	-1.565395	-0.459329
C47	C	-0.086745	-1.541822	-0.482934
C48	C	-0.380682	-1.620766	-0.677991
C49	C	-0.380648	-1.620788	-0.794777
C50	C	-0.380778	-0.894751	-0.403948
C51	C	-0.380765	-1.011524	-0.403948
C52	C	-0.330095	-1.674429	-0.863228
C53	C	-0.330067	-1.674446	-0.972960
C54	C	-0.431150	-1.567180	-0.945778
C55	C	-0.431174	-1.567157	-0.836050
C56	C	-0.279569	-1.728059	-0.821956
C57	C	-0.229013	-1.781706	-0.890408
C58	C	-0.228984	-1.781723	-1.000140
C59	C	-0.279512	-1.728094	-1.041420
C60	C	-0.380784	-1.620707	-0.130963
C61	C	-0.380595	-1.620828	-0.014238
H62	H	-0.481975	-1.347554	-0.510901
Br63	Br	-0.261465	-0.959820	-0.277884
H64	H	-0.681629	-1.823563	-0.201372
H65	H	-0.279588	-1.728054	-0.732608
Br66	Br	-0.499720	-1.494406	-1.001801
H67	H	-0.187870	-1.825361	-0.856792
H68	H	-0.279475	-1.728098	-1.130774
Br69	Br	-0.601284	-1.051292	-0.637004
H70	H	-0.187813	-1.825395	-1.055873
H71	H	-0.472327	-1.523459	-0.780318
Br72	Br	-0.481989	-0.889854	-0.510945
Br73	Br	-1.074926	-1.740369	-0.284752
Br74	Br	-0.261444	-1.218455	-0.277875
H75	H	-1.079087	-1.417810	-0.606789
Br76	Br	-0.601268	-1.309917	-0.636980
Br77	Br	-0.659249	-1.537101	-0.487425
H78	H	-0.805506	-1.411308	-0.613111
Br79	Br	-0.906922	-1.334917	-0.689460
H80	H	-0.730604	-1.513092	-0.511397
Br81	Br	-0.977624	-1.872577	-0.152602
H82	H	-1.079073	-1.661721	-0.363201
H83	H	-0.831393	-1.863903	-0.161167
