data_functionalizedCrystal
_audit_creation_method	'MofGen! by Chris Wilmer'
_symmetry_space_group_name_H-M	'P1'
_symmetry_Int_Tables_number	1
_symmetry_cell_setting	triclinic
loop_
_symmetry_equiv_pos_as_xyz
  x,y,z
_cell_length_a	18.101398
_cell_length_b	18.101395
_cell_length_c	18.101389
_cell_angle_alpha	90.016841
_cell_angle_beta	90.024802
_cell_angle_gamma	90.028835
loop_
_atom_site_label
_atom_site_type_symbol
_atom_site_fract_x
_atom_site_fract_y
_atom_site_fract_z
Zn1	Zn	1.132121	-0.294952	0.418856
Zn2	Zn	1.132017	-0.418778	0.295018
Zn3	Zn	1.008280	-0.294950	0.295016
Zn4	Zn	1.008231	-0.418751	0.418806
O5	O	1.070162	-0.356858	0.356924
O6	O	1.235740	-0.311390	0.402451
O7	O	1.115580	-0.402362	0.191385
O8	O	1.024772	-0.191317	0.311464
O9	O	1.235664	-0.402364	0.311467
O10	O	1.115757	-0.191319	0.402449
O11	O	1.024671	-0.311386	0.191384
O12	O	0.904641	-0.311360	0.311415
O13	O	1.024688	-0.402319	0.522445
O14	O	0.904604	-0.402317	0.402363
O15	O	1.115710	-0.311364	0.522482
O16	O	1.115532	-0.522407	0.311418
O17	O	1.024587	-0.522388	0.402365
C18	C	0.877752	-0.356836	0.356884
C19	C	0.795437	-0.356844	0.356884
C20	C	0.644729	-0.356860	0.356918
C21	C	0.613373	-0.299550	0.299791
C22	C	0.527755	-0.299335	0.299979
C23	C	0.496347	-0.356875	0.356949
C24	C	0.527486	-0.336055	0.435084
C25	C	0.613131	-0.335631	0.434735
C26	C	0.613125	-0.435137	0.336598
C27	C	0.527474	-0.434724	0.334895
C28	C	0.412487	-0.356884	0.356972
C29	C	0.728589	-0.356848	0.356900
C30	C	1.070063	-0.549268	0.356902
C31	C	1.070088	-0.631582	0.356918
C32	C	1.070251	-0.930673	0.356958
C33	C	1.013163	-0.899367	0.414321
C34	C	1.012892	-0.813749	0.414141
C35	C	1.070170	-0.782291	0.356938
C36	C	1.049041	-0.813427	0.278887
C37	C	1.048673	-0.899072	0.279230
C38	C	1.148593	-0.899024	0.376959
C39	C	1.148132	-0.813373	0.378671
C40	C	1.070126	-0.698431	0.356923
C41	C	1.070293	-1.014533	0.356968
C42	C	1.263324	-0.356880	0.356965
C43	C	1.345638	-0.356890	0.356982
C44	C	1.070205	-0.356839	0.550086
C45	C	1.070223	-0.356831	0.632400
C46	C	1.070282	-0.163696	0.356962
C47	C	1.070333	-0.081382	0.356978
C48	C	1.070162	-0.356823	0.164514
C49	C	1.070287	-0.356622	0.082200
C50	C	1.070266	-0.356692	0.931491
C51	C	1.012801	-0.413737	0.900143
C52	C	1.012956	-0.414001	0.814524
C53	C	1.070244	-0.356761	0.783109
C54	C	1.148270	-0.377948	0.814216
C55	C	1.147949	-0.378323	0.899861
C56	C	1.050385	-0.278334	0.899913
C57	C	1.048649	-0.278787	0.814262
C58	C	1.070237	-0.356799	0.699249
C59	C	1.070279	-0.356656	1.015351
H60	H	0.507118	-0.450428	0.277392
Cl61	Cl	1.217278	-0.780301	0.318873
H62	H	1.026082	-0.472083	0.794044
H63	H	0.634921	-0.241876	0.313108
H64	H	1.164066	-0.793021	0.436113
H65	H	1.191125	-0.919268	0.335180
H66	H	0.633136	-0.278423	0.451910
Cl67	Cl	0.924056	-0.932703	0.394138
Cl68	Cl	0.494417	-0.248708	0.462072
Cl69	Cl	0.645165	-0.397300	0.502724
Cl70	Cl	0.964066	-0.248533	0.933234
Cl71	Cl	0.646409	-0.464492	0.250098
H72	H	1.192236	-0.337705	0.793869
H73	H	0.954823	-0.793321	0.400891
Cl74	Cl	0.496085	-0.398537	0.502622
H75	H	1.192217	-0.338578	0.920600
Cl76	Cl	0.959992	-0.254120	0.782880
H77	H	1.088449	-0.919783	0.235032
Cl78	Cl	0.496158	-0.209789	0.320809
Cl79	Cl	1.111215	-0.781969	0.211096
H80	H	0.506086	-0.479685	0.373442
Cl81	Cl	1.174744	-0.465446	0.781117
Cl82	Cl	1.108563	-0.209683	0.781258
H83	H	0.954768	-0.400614	0.920728
Cl84	Cl	1.115005	-0.212715	0.931215
H85	H	0.991406	-0.919110	0.262288
Cl86	Cl	1.033365	-0.931111	0.503966
H87	H	0.633399	-0.477831	0.378206
Cl88	Cl	1.033298	-0.781241	0.503495
H89	H	0.992380	-0.792037	0.261641
Cl90	Cl	0.495241	-0.319376	0.210543
H91	H	1.167856	-0.920583	0.432905
H92	H	1.025796	-0.471464	0.921670
Cl93	Cl	0.645115	-0.319348	0.210062
H94	H	1.164804	-0.435604	0.919846
Cl95	Cl	0.923627	-0.393528	0.782047
