data_functionalizedCrystal
_audit_creation_method	'MofGen! by Chris Wilmer'
_symmetry_space_group_name_H-M	'P1'
_symmetry_Int_Tables_number	1
_symmetry_cell_setting	triclinic
loop_
_symmetry_equiv_pos_as_xyz
  x,y,z
_cell_length_a	10.654546
_cell_length_b	10.723023
_cell_length_c	9.798715
_cell_angle_alpha	89.997624
_cell_angle_beta	89.995620
_cell_angle_gamma	84.475516
loop_
_atom_site_label
_atom_site_type_symbol
_atom_site_fract_x
_atom_site_fract_y
_atom_site_fract_z
O1	O	1.667815	0.175252	-0.113518
O2	O	1.302334	0.191955	-0.113514
O3	O	1.493505	0.002029	-0.113510
O4	O	1.476644	0.365179	-0.113521
O5	O	1.493492	0.002027	0.113472
O6	O	1.302320	0.191954	0.113469
O7	O	1.667802	0.175250	0.113464
Zn8	Zn	1.485059	0.183602	0.149505
Zn9	Zn	1.485077	0.183604	-0.149554
O10	O	1.476630	0.365177	0.113461
C11	C	1.255529	0.190729	-0.000022
C12	C	1.116086	0.187063	-0.000020
C13	C	1.492272	-0.044472	-0.000021
C14	C	1.488601	-0.183027	-0.000025
C15	C	1.050599	0.185328	-0.123755
C16	C	0.919579	0.181873	-0.123765
C17	C	0.919545	0.181882	0.123703
C18	C	1.050562	0.185346	0.123712
C19	C	1.050618	0.185318	-0.266629
C20	C	0.919598	0.181863	-0.266640
C21	C	1.486972	-0.244792	-0.117610
C22	C	1.483178	-0.387996	-0.117617
C23	C	1.714606	0.176477	-0.000030
C24	C	1.854049	0.180143	-0.000041
C25	C	1.477864	0.411678	-0.000032
C26	C	1.481534	0.550233	-0.000036
N27	N	1.485056	0.183600	0.353605
N28	N	1.485089	0.183596	-0.353654
C29	C	1.565523	0.103682	0.578538
C30	C	1.565506	0.103683	0.421375
H31	H	0.866179	0.180485	0.224442
H32	H	1.416219	0.252019	0.588049
H33	H	1.075427	0.273432	-0.321488
C34	C	1.122584	0.187230	0.259833
C35	C	1.091210	0.294908	0.361925
C36	C	1.163226	0.296776	0.498058
C37	C	1.266614	0.190966	0.532098
C38	C	1.297992	0.083280	0.430004
C39	C	1.225977	0.081412	0.293871
H40	H	1.014672	0.373242	0.336729
H41	H	1.139997	0.376493	0.573635
H42	H	1.319924	0.192349	0.632871
H43	H	1.374531	0.004946	0.455200
H44	H	1.249206	0.001695	0.218294
H45	H	0.894800	0.093746	-0.321493
C46	C	1.658575	0.011246	0.657277
C47	C	1.658463	0.011374	0.814434
C48	C	1.751520	-0.081066	0.893168
C49	C	1.844689	-0.173634	0.814745
C50	C	1.844804	-0.173765	0.657580
C51	C	1.751748	-0.081325	0.578846
H52	H	1.589491	0.079901	0.872494
H53	H	1.751434	-0.080969	1.009512
H54	H	1.913575	-0.242064	0.873029
H55	H	1.913777	-0.242293	0.599519
H56	H	1.751834	-0.081423	0.462502
H57	H	1.102357	0.096446	-0.310948
H58	H	1.634363	0.035261	0.363063
C59	C	0.849710	0.301917	-0.326542
C60	C	0.924809	0.408352	-0.377861
C61	C	0.854918	0.528407	-0.437750
C62	C	0.709927	0.542028	-0.446320
C63	C	0.634820	0.435590	-0.395000
C64	C	0.704711	0.315535	-0.335110
H65	H	1.032147	0.398272	-0.371518
H66	H	0.910518	0.607199	-0.475741
H67	H	0.658190	0.630900	-0.490654
H68	H	0.527482	0.445670	-0.401342
H69	H	0.649110	0.236743	-0.297119
H70	H	1.416186	0.252017	0.411908
H71	H	1.488380	-0.191653	-0.218274
C72	C	1.481285	-0.459741	-0.253625
C73	C	1.590629	-0.455181	-0.355728
C74	C	1.588736	-0.526929	-0.491740
C75	C	1.477499	-0.603238	-0.525649
C76	C	1.368147	-0.607801	-0.423543
C77	C	1.370040	-0.536052	-0.287531
H78	H	1.672980	-0.398691	-0.330629
H79	H	1.669686	-0.523551	-0.567325
H80	H	1.476098	-0.656350	-0.626333
H81	H	1.285796	-0.664291	-0.448642
H82	H	1.289090	-0.539431	-0.211945
H83	H	1.482942	-0.396660	0.100638
C84	C	1.486692	-0.254799	0.135975
C85	C	1.378290	-0.223799	0.238080
C86	C	1.376380	-0.295568	0.374085
C87	C	1.482873	-0.398337	0.407984
C88	C	1.591283	-0.429342	0.305876
C89	C	1.593192	-0.357573	0.169872
H90	H	1.299451	-0.147719	0.212988
H91	H	1.296128	-0.272616	0.449671
H92	H	1.481460	-0.451465	0.508663
H93	H	1.670122	-0.505422	0.330968
H94	H	1.673445	-0.380526	0.094285
