data_functionalizedCrystal
_audit_creation_method	'MofGen! by Chris Wilmer'
_symmetry_space_group_name_H-M	'P1'
_symmetry_Int_Tables_number	1
_symmetry_cell_setting	triclinic
loop_
_symmetry_equiv_pos_as_xyz
  x,y,z
_cell_length_a	14.853567
_cell_length_b	7.681481
_cell_length_c	8.559648
_cell_angle_alpha	94.921026
_cell_angle_beta	103.293203
_cell_angle_gamma	95.734544
loop_
_atom_site_label
_atom_site_type_symbol
_atom_site_fract_x
_atom_site_fract_y
_atom_site_fract_z
O1	O	1.172217	-0.146258	-0.223671
O2	O	0.908018	-0.146282	-0.248520
O3	O	1.063391	-0.146311	-0.003549
O4	O	1.016844	-0.146229	-0.468641
O5	O	1.082519	0.146543	0.026671
O6	O	0.927147	0.146572	-0.218300
O7	O	1.191346	0.146597	-0.193450
Zn8	Zn	1.062283	0.193081	-0.201077
Zn9	Zn	1.037080	-0.192767	-0.240894
O10	O	1.035973	0.146625	-0.438421
C11	C	0.884072	0.000141	-0.232285
C12	C	0.784224	0.000129	-0.228912
N13	N	1.079490	0.456412	-0.173903
N14	N	1.019882	-0.456098	-0.268055
C15	C	0.382866	0.000140	-0.069130
C16	C	0.341232	0.000190	-0.360159
C17	C	0.435044	0.000185	-0.363332
C18	C	0.502771	0.000155	-0.219402
C19	C	0.476687	0.000130	-0.072299
C20	C	0.461135	0.000192	-0.510434
C21	C	0.554951	0.000185	-0.513613
C22	C	0.622681	0.000167	-0.369680
C23	C	0.596592	0.000144	-0.222571
C24	C	0.664319	0.000114	-0.078640
C25	C	0.638232	0.000104	0.068472
C26	C	0.544416	0.000112	0.071635
C27	C	0.716496	0.000159	-0.372843
C28	C	0.758139	0.000104	-0.081809
C29	C	1.215291	0.000170	-0.209686
C30	C	1.315139	0.000170	-0.213060
C31	C	1.076482	0.000102	0.071081
C32	C	1.086980	0.000058	0.248434
C33	C	1.022878	0.000160	0.486943
C34	C	1.012370	0.000045	0.309574
H35	H	0.813279	0.000086	0.035399
H36	H	0.693387	0.000067	0.185658
H37	H	1.140347	0.531607	-0.077806
H38	H	1.158896	0.000064	0.331780
F39	F	0.516645	0.000094	0.228187
F40	F	0.355103	0.000137	0.087431
F41	F	0.940348	0.445631	-0.393670
H42	H	0.286083	0.000199	-0.477342
H43	H	0.405984	0.000198	-0.627616
F44	F	0.582706	0.000199	-0.670180
F45	F	0.918376	0.000060	0.200650
H46	H	0.737732	0.000171	-0.492618
