data_functionalizedCrystal
_audit_creation_method	'MofGen! by Chris Wilmer'
_symmetry_space_group_name_H-M	'P1'
_symmetry_Int_Tables_number	1
_symmetry_cell_setting	triclinic
loop_
_symmetry_equiv_pos_as_xyz
  x,y,z
_cell_length_a	18.215407
_cell_length_b	25.639239
_cell_length_c	18.215399
_cell_angle_alpha	89.967555
_cell_angle_beta	89.983176
_cell_angle_gamma	90.039134
loop_
_atom_site_label
_atom_site_type_symbol
_atom_site_fract_x
_atom_site_fract_y
_atom_site_fract_z
Zn1	Zn	1.124980	-0.208137	-0.416105
Zn2	Zn	1.124865	-0.295577	-0.293034
Zn3	Zn	1.001919	-0.208158	-0.293053
Zn4	Zn	1.001848	-0.295544	-0.416059
O5	O	1.063403	-0.251854	-0.354563
O6	O	1.227949	-0.219742	-0.399791
O7	O	1.108537	-0.284003	-0.190052
O8	O	1.018320	-0.134990	-0.309403
O9	O	1.227864	-0.283983	-0.309372
O10	O	1.108733	-0.134975	-0.399809
O11	O	1.018209	-0.219777	-0.190066
O12	O	0.898925	-0.219745	-0.309358
O13	O	1.018201	-0.283927	-0.519050
O14	O	0.898873	-0.283947	-0.399731
O15	O	1.108665	-0.219710	-0.519083
O16	O	1.108469	-0.368738	-0.309327
O17	O	1.018089	-0.368714	-0.399713
C18	C	0.872197	-0.251845	-0.354542
C19	C	0.790398	-0.251854	-0.354550
C20	C	1.063279	-0.387697	-0.354529
C21	C	1.063293	-0.445811	-0.354539
C22	C	0.602196	-0.285337	-0.401548
C23	C	0.525337	-0.285338	-0.401557
C24	C	0.525362	-0.218381	-0.307594
C25	C	0.602219	-0.218377	-0.307589
C26	C	0.640634	-0.251858	-0.354565
C27	C	0.486918	-0.251864	-0.354579
C28	C	0.403584	-0.251865	-0.354589
C29	C	0.723973	-0.251856	-0.354556
C30	C	1.110586	-0.806174	-0.307579
C31	C	1.110615	-0.860778	-0.307589
O32	O	1.150696	-0.889015	-0.267625
N33	N	1.063532	-0.888093	-0.354612
C34	C	1.016423	-0.860801	-0.401633
O35	O	0.976379	-0.889049	-0.441631
C36	C	1.016399	-0.806198	-0.401626
C37	C	1.063479	-0.778886	-0.354595
C38	C	1.157663	-0.778862	-0.260553
C39	C	1.157634	-0.724261	-0.260542
C40	C	1.110527	-0.696973	-0.307558
C41	C	1.063450	-0.724285	-0.354584
C42	C	0.969294	-0.778907	-0.448650
C43	C	0.969274	-0.724300	-0.448640
C44	C	1.016355	-0.696988	-0.401609
C45	C	1.016313	-0.642396	-0.401590
N46	N	1.063396	-0.615081	-0.354567
C47	C	1.110503	-0.642370	-0.307551
C48	C	1.016479	-0.975472	-0.401644
C49	C	1.016499	-1.030074	-0.401648
C50	C	1.110691	-1.030047	-0.307605
C51	C	1.110667	-0.975444	-0.307598
C52	C	1.063561	-0.948157	-0.354621
C53	C	1.110436	-0.527704	-0.307532
C54	C	1.110400	-0.473099	-0.307523
C55	C	1.016211	-0.473131	-0.401569
C56	C	1.016244	-0.527731	-0.401575
C57	C	1.063362	-0.555017	-0.354554
O58	O	0.976254	-0.614125	-0.441536
O59	O	1.150547	-0.614115	-0.267567
C60	C	1.255356	-0.251864	-0.354584
C61	C	1.337155	-0.251868	-0.354594
C62	C	1.063438	-0.251813	-0.546516
C63	C	1.063452	-0.251795	-0.628315
C64	C	1.063547	-0.115481	-0.354613
C65	C	1.063609	-0.057367	-0.354634
C66	C	1.016458	-0.218330	-0.816517
C67	C	1.016471	-0.218319	-0.893375
C68	C	1.110534	-0.285198	-0.893351
C69	C	1.110517	-0.285210	-0.816493
C70	C	1.063480	-0.251773	-0.778078
C71	C	1.063510	-0.251750	-0.931795
C72	C	1.063525	-0.251739	-1.015128
C73	C	1.063465	-0.251785	-0.694739
C74	C	1.063411	-0.251858	-0.163357
C75	C	1.063538	-0.251729	-0.081558
H76	H	0.494044	-0.312599	-0.439817
O77	O	1.156151	-0.317748	-0.930635
C78	C	1.140024	-0.369861	-0.911816
H79	H	1.081224	-0.372504	-0.890685
H80	H	1.179455	-0.383535	-0.867198
C81	C	1.220792	-0.401496	-1.006028
C82	C	1.148571	-0.404744	-0.980081
H83	H	1.226067	-0.423015	-1.048135
H84	H	1.231660	-0.366387	-1.018705
H85	H	1.253643	-0.412891	-0.968840
H86	H	1.115722	-0.393343	-1.017265
H87	H	1.137698	-0.439852	-0.967411
H88	H	0.494074	-0.191123	-0.269346
H89	H	1.149004	-0.953210	-0.269302
O90	O	1.156311	-0.554143	-0.261890
C91	C	1.229639	-0.540737	-0.278055
H92	H	1.231112	-0.501080	-0.306352
H93	H	1.254429	-0.571433	-0.315909
C94	C	1.272449	-0.586903	-0.171596
C95	C	1.274259	-0.538194	-0.206346
H96	H	1.299975	-0.585337	-0.127364
H97	H	1.223048	-0.595937	-0.160707
H98	H	1.293107	-0.612478	-0.203149
H99	H	1.253594	-0.512622	-0.174797
H100	H	1.323659	-0.529156	-0.217228
H101	H	0.977854	-0.450904	-0.439847
O102	O	0.970641	-0.949048	-0.447343
C103	C	0.929108	-0.984871	-0.488856
H104	H	0.926603	-1.023808	-0.458709
H105	H	0.956024	-0.990635	-0.544774
C106	C	0.853838	-0.915796	-0.536414
C107	C	0.850757	-0.963618	-0.499385
H108	H	0.805508	-0.902685	-0.542912
H109	H	0.881821	-0.891660	-0.508449
H110	H	0.876271	-0.920605	-0.583009
H111	H	0.828333	-0.958806	-0.452788
H112	H	0.822768	-0.987752	-0.527343
H113	H	0.633516	-0.191112	-0.269329
O114	O	0.639627	-0.317838	-0.447115
C115	C	0.715707	-0.310648	-0.437051
H116	H	0.726200	-0.293478	-0.380298
H117	H	0.737556	-0.282840	-0.480769
C118	C	0.742234	-0.384642	-0.513372
C119	C	0.755122	-0.363557	-0.443664
H120	H	0.766548	-0.417278	-0.517454
H121	H	0.690978	-0.389485	-0.520155
H122	H	0.760442	-0.361463	-0.549796
H123	H	0.736906	-0.386733	-0.407242
H124	H	0.806377	-0.358719	-0.436875
H125	H	0.930953	-0.801135	-0.486945
H126	H	1.148739	-0.450863	-0.269223
O127	O	1.203445	-0.697815	-0.214840
C128	C	1.245013	-0.733618	-0.173340
H129	H	1.247547	-0.772524	-0.203496
H130	H	1.218108	-0.739471	-0.117420
C131	C	1.320229	-0.664481	-0.125773
C132	C	1.323347	-0.712265	-0.162814
H133	H	1.368548	-0.651309	-0.119276
H134	H	1.292223	-0.640359	-0.153729
H135	H	1.297804	-0.669365	-0.079177
H136	H	1.345762	-0.707379	-0.209412
H137	H	1.351359	-0.736386	-0.134865
O138	O	0.970815	-0.185883	-0.930828
C139	C	0.980922	-0.193033	-1.006902
H140	H	1.004989	-0.233380	-1.017381
H141	H	1.020143	-0.162016	-1.028737
C142	C	0.876909	-0.138684	-1.033481
C143	C	0.906463	-0.188241	-1.046352
H144	H	0.830981	-0.135725	-1.057817
H145	H	0.870101	-0.133865	-0.982229
H146	H	0.909600	-0.112842	-1.051677
H147	H	0.873777	-0.214081	-1.028149
H148	H	0.913264	-0.193064	-1.097603
O149	O	1.203547	-0.805370	-0.215005
C150	C	1.251062	-0.836889	-0.256976
H151	H	1.255499	-0.820412	-0.314949
H152	H	1.228375	-0.878302	-0.259462
C153	C	1.322169	-0.857873	-0.149947
C154	C	1.327623	-0.837633	-0.221150
H155	H	1.369395	-0.858334	-0.127847
H156	H	1.290156	-0.836640	-0.121669
H157	H	1.303260	-0.892382	-0.152029
H158	H	1.346523	-0.803123	-0.219066
H159	H	1.359642	-0.858860	-0.249426
O160	O	0.970727	-0.185927	-0.779118
C161	C	0.923145	-0.215703	-0.734657
H162	H	0.949061	-0.255327	-0.723126
H163	H	0.868609	-0.221444	-0.764272
C164	C	0.877999	-0.138281	-0.675826
C165	C	0.909833	-0.186947	-0.661658
H166	H	0.869784	-0.120542	-0.630798
H167	H	0.910054	-0.118220	-0.705782
H168	H	0.832556	-0.143072	-0.700507
H169	H	0.955279	-0.182155	-0.636987
H170	H	0.877785	-0.207006	-0.631697
H171	H	1.149051	-1.052275	-0.269324
O172	O	1.156093	-0.317755	-0.779117
C173	C	1.114147	-0.351521	-0.734628
H174	H	1.056188	-0.354745	-0.757788
H175	H	1.111612	-0.335364	-0.676388
C176	C	1.221230	-0.401916	-0.704976
C177	C	1.150046	-0.405879	-0.733424
H178	H	1.243375	-0.435446	-0.704230
H179	H	1.249491	-0.379166	-0.734946
H180	H	1.219108	-0.388450	-0.656445
H181	H	1.152169	-0.419339	-0.781958
H182	H	1.121786	-0.428632	-0.703462
H183	H	0.930916	-0.702085	-0.486935
O184	O	0.970862	-1.056659	-0.447365
C185	C	1.012745	-1.088178	-0.494959
H186	H	1.068536	-1.096334	-0.469057
H187	H	1.020789	-1.067097	-0.549497
C188	C	0.903744	-1.130048	-0.540078
C189	C	0.972265	-1.140069	-0.508262
H190	H	0.878773	-1.162056	-0.548288
H191	H	0.875525	-1.108812	-0.508016
H192	H	0.910457	-1.112479	-0.585523
H193	H	0.965551	-1.157632	-0.462815
H194	H	1.000481	-1.161309	-0.540318
O195	O	0.970485	-0.554185	-0.447327
C196	C	0.928886	-0.518388	-0.488806
H197	H	0.959004	-0.479439	-0.491366
H198	H	0.873005	-0.512641	-0.461806
C199	C	0.881257	-0.587499	-0.563985
C200	C	0.918251	-0.539662	-0.567135
H201	H	0.874694	-0.600622	-0.612301
H202	H	0.909281	-0.611617	-0.536038
H203	H	0.834694	-0.582703	-0.541482
H204	H	0.964817	-0.544459	-0.589629
H205	H	0.890235	-0.515546	-0.595087
