data_functionalizedCrystal
_audit_creation_method	'MofGen! by Chris Wilmer'
_symmetry_space_group_name_H-M	'P1'
_symmetry_Int_Tables_number	1
_symmetry_cell_setting	triclinic
loop_
_symmetry_equiv_pos_as_xyz
  x,y,z
_cell_length_a	17.639929
_cell_length_b	12.759401
_cell_length_c	12.759393
_cell_angle_alpha	90.019553
_cell_angle_beta	78.761223
_cell_angle_gamma	101.200679
loop_
_atom_site_label
_atom_site_type_symbol
_atom_site_fract_x
_atom_site_fract_y
_atom_site_fract_z
Zn1	Zn	-0.314712	-1.690811	-0.509505
Zn2	Zn	-0.446916	-1.726234	-0.298312
Zn3	Zn	-0.314745	-1.515126	-0.333828
Zn4	Zn	-0.446846	-1.550608	-0.473966
O5	O	-0.380805	-1.620695	-0.403903
O6	O	-0.332264	-1.842535	-0.481499
O7	O	-0.429426	-1.698205	-0.155991
O8	O	-0.204128	-1.508757	-0.386869
O9	O	-0.429394	-1.868560	-0.326337
O10	O	-0.204104	-1.637832	-0.515938
O11	O	-0.332321	-1.543105	-0.182084
O12	O	-0.332254	-1.372807	-0.352408
O13	O	-0.429275	-1.569231	-0.625713
O14	O	-0.429308	-1.398876	-0.455367
O15	O	-0.332197	-1.672238	-0.651823
O16	O	-0.557519	-1.732611	-0.291876
O17	O	-0.557468	-1.603579	-0.420928
C18	C	-0.380777	-1.347720	-0.403886
C19	C	-0.380784	-1.230945	-0.403898
C20	C	-0.330192	-1.052738	-0.350427
C21	C	-0.330180	-1.162459	-0.350423
C22	C	-0.431398	-1.189704	-0.457390
C23	C	-0.431406	-1.079984	-0.457400
C24	C	-0.279590	-0.984259	-0.296939
C25	C	-0.228975	-1.025492	-0.243449
C26	C	-0.228963	-1.135213	-0.243444
C27	C	-0.279566	-1.203700	-0.296931
C28	C	-0.586174	-1.675818	-0.348715
C29	C	-0.674032	-1.699496	-0.325140
C30	C	-0.797864	-1.800091	-0.224792
C31	C	-0.715308	-1.777834	-0.246951
C32	C	-0.715302	-1.643388	-0.381205
C33	C	-0.797860	-1.665638	-0.359060
C34	C	-0.839134	-1.743989	-0.280852
C35	C	-0.839130	-1.609536	-0.415121
C36	C	-0.921680	-1.631780	-0.392974
C37	C	-0.962960	-1.710126	-0.314767
C38	C	-0.921684	-1.766234	-0.258705
C39	C	-0.797853	-1.531179	-0.493324
C40	C	-0.839123	-1.475078	-0.549384
C41	C	-0.921675	-1.497327	-0.527243
C42	C	-0.962956	-1.575673	-0.449035
C43	C	-0.962951	-1.441219	-0.583304
C44	C	-1.045501	-1.463463	-0.561157
C45	C	-1.045506	-1.597917	-0.426888
C46	C	-0.174634	-1.565385	-0.459329
C47	C	-0.086776	-1.541815	-0.482949
C48	C	-0.380724	-1.620741	-0.677958
C49	C	-0.380690	-1.620761	-0.794744
C50	C	-0.380823	-0.894733	-0.403916
C51	C	-0.380804	-1.011504	-0.403912
C52	C	-0.330118	-1.540026	-0.863201
C53	C	-0.330095	-1.540052	-0.972932
C54	C	-0.431217	-1.701557	-0.945737
C55	C	-0.431244	-1.701526	-0.836008
C56	C	-0.279564	-1.459262	-0.821937
C57	C	-0.228987	-1.378521	-0.890396
C58	C	-0.228964	-1.378546	-1.000127
C59	C	-0.279517	-1.459313	-1.041398
C60	C	-0.380828	-1.620693	-0.130929
C61	C	-0.380640	-1.620817	-0.014204
H62	H	-0.187744	-1.168779	-0.199900
H63	H	-0.279496	-1.459325	-1.130749
C64	C	-0.174136	-1.290955	-0.845394
C65	C	-0.184964	-1.308226	-0.734650
C66	C	-0.134441	-1.227588	-0.693162
H67	H	-0.185642	-1.223414	-0.860151
H68	H	-0.121008	-1.292097	-0.877607
H69	H	-0.238081	-1.307074	-0.702447
H70	H	-0.173453	-1.375752	-0.719863
H71	H	-0.081313	-1.228729	-0.725375
H72	H	-0.145951	-1.160051	-0.707927
H73	H	-0.141776	-1.239300	-0.618020
H74	H	-0.730636	-1.513061	-0.511343
H75	H	-0.472373	-1.767315	-0.979350
H76	H	-0.805508	-1.411280	-0.613059
H77	H	-0.187787	-1.312798	-1.055862
C78	C	-0.486435	-1.035418	-0.515497
C79	C	-0.530764	-1.118875	-0.562312
C80	C	-0.581466	-1.077862	-0.615839
H81	H	-0.456318	-0.984550	-0.569524
H82	H	-0.520888	-1.001866	-0.466013
H83	H	-0.496315	-1.152410	-0.611793
H84	H	-0.560897	-1.169750	-0.508309
H85	H	-0.615919	-1.044310	-0.566355
H86	H	-0.551342	-1.026994	-0.669861
H87	H	-0.611554	-1.134482	-0.647602
H88	H	-0.472597	-1.245475	-0.500935
H89	H	-1.079114	-1.661729	-0.363213
C90	C	-0.173948	-0.951306	-0.185367
C91	C	-0.129606	-1.010900	-0.138552
C92	C	-0.078898	-0.942597	-0.085051
H93	H	-0.204062	-0.916570	-0.131343
H94	H	-0.139504	-0.899289	-0.234867
H95	H	-0.164046	-1.062898	-0.089057
H96	H	-0.099476	-1.045634	-0.192554
H97	H	-0.044454	-0.890580	-0.134551
H98	H	-0.109018	-0.907865	-0.031032
H99	H	-0.048800	-0.983020	-0.053289
H100	H	-1.079104	-1.417790	-0.606817
C101	C	-0.279457	-0.865094	-0.296867
C102	C	-0.224298	-0.813942	-0.238601
C103	C	-0.224148	-0.704168	-0.238522
H104	H	-0.330407	-0.853822	-0.264867
H105	H	-0.265806	-0.836596	-0.368346
H106	H	-0.237953	-0.842430	-0.167135
H107	H	-0.173340	-0.825183	-0.270586
H108	H	-0.210497	-0.675669	-0.310001
H109	H	-0.275100	-0.692906	-0.206524
H110	H	-0.186718	-0.669446	-0.198998
C111	C	-0.279464	-1.322803	-0.296762
C112	C	-0.224319	-1.344263	-0.238457
C113	C	-0.224213	-1.453967	-0.238261
H114	H	-0.265824	-1.344120	-0.368191
H115	H	-0.330441	-1.361348	-0.264730
H116	H	-0.173353	-1.305731	-0.270492
H117	H	-0.237946	-1.322971	-0.167020
H118	H	-0.275190	-1.492513	-0.206229
H119	H	-0.210574	-1.475275	-0.309694
H120	H	-0.186803	-1.468543	-0.198694
C121	C	-0.966363	-1.851309	-0.173720
C122	C	-0.912554	-1.895673	-0.129347
C123	C	-0.953683	-1.974032	-0.051051
H124	H	-0.998519	-1.905817	-0.205211
H125	H	-0.998599	-1.819854	-0.119203
H126	H	-0.880331	-1.927129	-0.183855
H127	H	-0.880396	-1.841193	-0.097835
H128	H	-0.985919	-1.942577	0.003467
H129	H	-0.985837	-2.028533	-0.082550
H130	H	-0.917180	-2.004136	-0.020927
C131	C	-0.486246	-1.789030	-0.761589
C132	C	-0.536927	-1.743105	-0.684991
C133	C	-0.587615	-1.823678	-0.616424
H134	H	-0.456117	-1.826728	-0.726800
H135	H	-0.516395	-1.837136	-0.801829
H136	H	-0.506781	-1.695018	-0.644755
H137	H	-0.567074	-1.705414	-0.719748
H138	H	-0.617764	-1.871784	-0.656664
H139	H	-0.557479	-1.861371	-0.581643
H140	H	-0.622012	-1.792530	-0.564451
C141	C	-0.670643	-1.838899	-0.185998
C142	C	-0.724461	-1.912289	-0.112784
C143	C	-0.683345	-1.968563	-0.056622
H144	H	-0.638490	-1.790180	-0.148722
H145	H	-0.638404	-1.876028	-0.234846
H146	H	-0.756687	-1.875162	-0.063942
H147	H	-0.756616	-1.961030	-0.150031
H148	H	-0.651106	-2.005692	-0.105470
H149	H	-0.651193	-1.919836	-0.019353
H150	H	-0.719854	-2.018371	-0.006947
C151	C	-0.670344	-1.558402	-0.466115
C152	C	-0.589216	-1.550944	-0.473531
C153	C	-0.547778	-1.472678	-0.551751
H154	H	-0.683827	-1.491409	-0.447133
H155	H	-0.683774	-1.577376	-0.533138
H156	H	-0.575790	-1.531963	-0.406523
H157	H	-0.575708	-1.617916	-0.492527
H158	H	-0.561208	-1.491652	-0.618774
H159	H	-0.561268	-1.405691	-0.532762
H160	H	-0.492728	-1.467614	-0.556800
H161	H	-1.030178	-1.728236	-0.296737
H162	H	-0.831472	-1.863903	-0.161116
H163	H	-0.929335	-1.377418	-0.646974
H164	H	-0.279576	-1.459233	-0.732591
