data_functionalizedCrystal
_audit_creation_method	'MofGen! by Chris Wilmer'
_symmetry_space_group_name_H-M	'P1'
_symmetry_Int_Tables_number	1
_symmetry_cell_setting	triclinic
loop_
_symmetry_equiv_pos_as_xyz
  x,y,z
_cell_length_a	12.837943
_cell_length_b	23.532407
_cell_length_c	11.295483
_cell_angle_alpha	94.064566
_cell_angle_beta	85.461227
_cell_angle_gamma	88.838809
loop_
_atom_site_label
_atom_site_type_symbol
_atom_site_fract_x
_atom_site_fract_y
_atom_site_fract_z
O1	O	1.380948	0.144513	-0.099028
O2	O	1.079219	0.137204	-0.099034
O3	O	1.239181	0.058450	-0.099009
O4	O	1.220986	0.223267	-0.099053
O5	O	1.225131	0.065355	0.099039
O6	O	1.065169	0.144109	0.099014
O7	O	1.366899	0.151419	0.099020
Cu8	Cu	1.214751	0.148394	0.117101
Cu9	Cu	1.231366	0.140228	-0.117115
O10	O	1.206937	0.230173	0.098995
C11	C	1.033599	0.138187	-0.000010
C12	C	0.918597	0.130823	-0.000012
C13	C	0.676728	0.219356	-0.000018
C14	C	0.568673	0.212439	-0.000018
C15	C	0.594431	0.110073	-0.000004
C16	C	0.702485	0.116990	-0.000004
C17	C	0.743630	0.171633	-0.000013
C18	C	0.851687	0.178549	-0.000021
C19	C	0.877442	0.076184	0.000002
C20	C	0.769387	0.069267	0.000002
C21	C	1.231692	0.040660	0.000018
C22	C	1.230298	-0.022637	0.000027
C23	C	1.316228	-0.416812	-0.000037
C24	C	1.314934	-0.476287	-0.000046
O25	O	1.394590	-0.508463	-0.000088
N26	N	1.219836	-0.504370	-0.000047
C27	C	1.126025	-0.472975	-0.000051
O28	O	1.045018	-0.502323	-0.000053
C29	C	1.127321	-0.413501	-0.000050
C30	C	1.222424	-0.385421	-0.000037
C31	C	1.411324	-0.388732	-0.000025
C32	C	1.412617	-0.329261	-0.000014
C33	C	1.318814	-0.297871	-0.000014
C34	C	1.223717	-0.325951	-0.000026
C35	C	1.033512	-0.382108	-0.000063
C36	C	1.034816	-0.322631	-0.000063
C37	C	1.129920	-0.294551	-0.000050
C38	C	1.131207	-0.235089	-0.000015
N39	N	1.226306	-0.207006	-0.000014
C40	C	1.320109	-0.238397	-0.000013
C41	C	1.123313	-0.597873	-0.000054
C42	C	1.122016	-0.657345	-0.000046
C43	C	1.310925	-0.660653	-0.000043
C44	C	1.312220	-0.601180	-0.000043
C45	C	1.218411	-0.569790	-0.000053
C46	C	1.322817	-0.113504	0.000011
C47	C	1.324101	-0.054028	0.000027
C48	C	1.135193	-0.050725	0.000019
C49	C	1.133908	-0.110196	0.000009
C50	C	1.227729	-0.141584	0.000001
O51	O	1.051593	-0.202877	0.000023
O52	O	1.401104	-0.209042	-0.000026
C53	C	1.412519	0.150435	-0.000006
C54	C	1.527521	0.157799	-0.000013
C55	C	1.214425	0.247962	-0.000035
C56	C	1.215820	0.311259	-0.000052
N57	N	1.203072	0.154138	0.281835
N58	N	1.243053	0.134480	-0.281849
C59	C	1.327124	0.093101	0.531144
C60	C	1.318306	0.097446	0.655806
C61	C	1.176612	0.167170	0.655824
C62	C	1.185431	0.162825	0.531162
C63	C	1.260690	0.125790	0.468826
C64	C	1.269513	0.121448	0.344162
C65	C	1.127815	0.191169	0.344182
C66	C	1.118997	0.195514	0.468844
H67	H	0.735871	0.024778	0.000023
C68	C	1.007940	-0.525529	0.101762
C69	C	1.020189	-0.563370	-0.000047
H70	H	0.944279	-0.504229	0.101758
H71	H	1.006465	-0.546397	0.170811
H72	H	1.064762	-0.500292	0.101749
H73	H	0.963370	-0.588609	-0.000030
H74	H	1.021654	-0.542500	-0.069114
H75	H	0.885184	0.223042	-0.000026
C76	C	0.575891	0.024241	0.101826
C77	C	0.549195	0.050012	0.000012
H78	H	0.547959	-0.012837	0.101836
H79	H	0.649811	0.021529	0.101812
H80	H	0.547991	0.046550	0.170879
H81	H	0.577102	0.027706	-0.069042
H82	H	0.475260	0.052721	0.000015
C83	C	1.391718	-0.003449	0.492719
C84	C	1.409849	0.052402	0.462597
H85	H	1.442787	-0.028572	0.450390
H86	H	1.395991	-0.005544	0.575868
H87	H	1.324081	-0.014112	0.472308
H88	H	1.477483	0.063067	0.483016
H89	H	1.405586	0.054499	0.379429
C90	C	1.442379	0.007395	-0.101765
C91	C	1.428645	-0.023162	0.000036
H92	H	1.506915	0.026451	-0.101756
H93	H	1.442848	-0.018139	-0.170820
H94	H	1.386695	0.034603	-0.101748
H95	H	1.484326	-0.050373	0.000013
H96	H	1.428186	0.002374	0.069108
H97	H	1.330795	0.091294	0.293409
H98	H	1.073723	0.217788	0.293429
C99	C	1.430497	-0.539765	-0.101850
C100	C	1.416758	-0.570315	-0.000040
H101	H	1.495034	-0.520711	-0.101845
H102	H	1.430964	-0.565303	-0.170899
H103	H	1.374814	-0.512557	-0.101840
H104	H	1.472436	-0.597527	-0.000054
H105	H	1.416300	-0.544775	0.069026
C106	C	0.994200	0.192131	0.694263
C107	C	1.093882	0.207867	0.724367
H108	H	0.943124	0.217252	0.736588
H109	H	0.989945	0.194233	0.611113
H110	H	0.981921	0.154237	0.714691
H111	H	1.106164	0.245760	0.703931
H112	H	1.098139	0.205770	0.807536
H113	H	1.057719	0.225666	0.519612
H114	H	0.710228	0.263848	-0.000027
H115	H	0.514204	0.251300	-0.000020
H116	H	0.931927	0.037324	-0.000001
C117	C	1.509675	-0.110783	0.000032
C118	C	1.425945	-0.148000	0.000013
H119	H	1.573339	-0.132080	0.000046
H120	H	1.511149	-0.089922	-0.069026
H121	H	1.501330	-0.085114	0.069102
H122	H	1.434286	-0.173667	-0.069062
H123	H	1.424473	-0.168871	0.069078
H124	H	0.956070	-0.404961	-0.000080
C125	C	1.599209	-0.338524	-0.000024
C126	C	1.517160	-0.298402	-0.000015
H127	H	1.663753	-0.319474	-0.000035
H128	H	1.589873	-0.359246	0.069036
H129	H	1.599655	-0.364056	-0.069093
H130	H	1.516709	-0.272872	0.069058
H131	H	1.526498	-0.277670	-0.069082
H132	H	1.487714	-0.414284	-0.000029
H133	H	1.387305	-0.686223	-0.000047
H134	H	1.044571	-0.680202	-0.000036
C135	C	1.015623	-0.171620	0.101805
C136	C	1.029367	-0.141062	0.000007
H137	H	0.951080	-0.190668	0.101797
H138	H	1.071293	-0.198828	0.101789
H139	H	1.015160	-0.146083	0.170869
H140	H	1.029838	-0.166599	-0.069058
H141	H	0.973682	-0.113850	0.000012
H142	H	1.058821	-0.025156	0.000022
C143	C	0.847956	-0.325340	-0.000079
C144	C	0.931695	-0.288128	-0.000069
H145	H	0.784295	-0.304039	-0.000074
H146	H	0.856286	-0.351005	-0.069142
H147	H	0.846488	-0.346205	0.068986
H148	H	0.933167	-0.267266	-0.069140
H149	H	0.923363	-0.262453	0.069001
H150	H	1.372402	0.070827	0.706542
