data_functionalizedCrystal
_audit_creation_method	'MofGen! by Chris Wilmer'
_symmetry_space_group_name_H-M	'P1'
_symmetry_Int_Tables_number	1
_symmetry_cell_setting	triclinic
loop_
_symmetry_equiv_pos_as_xyz
  x,y,z
_cell_length_a	17.699097
_cell_length_b	17.699092
_cell_length_c	18.366186
_cell_angle_alpha	89.995439
_cell_angle_beta	89.987358
_cell_angle_gamma	83.287399
loop_
_atom_site_label
_atom_site_type_symbol
_atom_site_fract_x
_atom_site_fract_y
_atom_site_fract_z
O1	O	1.004077	0.095760	-0.060607
O2	O	0.783701	0.108202	-0.060595
O3	O	0.900112	-0.008208	-0.060600
O4	O	0.887666	0.212169	-0.060603
O5	O	0.900092	-0.008214	0.060499
O6	O	0.783681	0.108196	0.060504
O7	O	1.004057	0.095754	0.060492
Zn8	Zn	0.893866	0.101974	0.079725
Zn9	Zn	0.893892	0.101982	-0.079828
O10	O	0.887646	0.212163	0.060497
C11	C	0.755494	0.107751	-0.000044
C12	C	0.671476	0.106409	-0.000039
C13	C	0.899655	-0.036408	-0.000051
C14	C	0.898314	-0.120425	-0.000055
C15	C	0.155768	0.098182	-0.066080
C16	C	0.234713	0.099439	-0.066076
C17	C	0.274168	0.100065	-0.000062
C18	C	0.234676	0.099427	0.065953
C19	C	0.155734	0.098165	0.065948
C20	C	0.553040	0.104515	0.065972
C21	C	0.631987	0.105779	0.065971
C22	C	0.632019	0.105788	-0.066053
C23	C	0.553077	0.104526	-0.066057
C24	C	0.513592	0.103884	-0.000043
C25	C	0.427992	0.102521	-0.000048
C26	C	0.359766	0.101434	-0.000057
C27	C	0.897696	-0.159890	-0.066067
C28	C	0.896431	-0.238833	-0.066068
C29	C	0.895789	-0.278311	-0.000055
C30	C	0.896405	-0.238841	0.065962
C31	C	0.897664	-0.159898	0.065962
C32	C	0.891324	-0.557206	0.065963
C33	C	0.890067	-0.636154	0.065958
C34	C	0.890092	-0.636140	-0.066066
C35	C	0.891351	-0.557198	-0.066066
C36	C	0.891962	-0.517734	-0.000050
C37	C	0.893332	-0.432135	-0.000049
C38	C	0.894425	-0.363909	-0.000055
C39	C	1.032264	0.096204	-0.000061
C40	C	1.116282	0.097547	-0.000070
C41	C	0.888103	0.240363	-0.000053
C42	C	0.889444	0.324381	-0.000055
N43	N	0.893854	0.101968	0.188616
N44	N	0.893910	0.101981	-0.188720
C45	C	0.945417	0.050448	0.226715
C46	C	0.945422	0.050444	0.302942
C47	C	0.893871	0.101975	0.341069
C48	C	0.842297	0.153499	0.302962
C49	C	0.842289	0.153496	0.226735
C50	C	0.883830	0.170923	0.461829
C51	C	0.883843	0.170927	0.538054
C52	C	0.893892	0.101984	0.576177
C53	C	0.903943	0.033034	0.538065
C54	C	0.903935	0.033031	0.461839
C55	C	0.893874	0.101983	0.423724
C56	C	0.945464	0.050455	0.696930
C57	C	0.945463	0.050451	0.773159
C58	C	0.842342	0.153513	0.773177
C59	C	0.842339	0.153511	0.696949
C60	C	0.893904	0.101983	0.658830
H61	H	0.123649	0.097678	-0.119837
H62	H	0.891837	-0.525086	0.119718
H63	H	0.800322	0.195455	0.334008
H64	H	0.520956	0.104020	-0.119813
Br65	Br	1.015441	-0.019482	0.824868
H66	H	0.800364	0.195467	0.804219
H67	H	0.266807	0.099932	0.119703
H68	H	0.800354	0.195467	0.665927
Br69	Br	0.917591	-0.060538	0.589793
Br70	Br	0.499461	0.103664	0.155563
Br71	Br	0.288300	0.100294	-0.155665
Br72	Br	0.102145	0.097292	0.155537
H73	H	0.895877	-0.270989	0.119710
Br74	Br	0.889262	-0.689702	-0.155662
Br75	Br	0.685610	0.106655	-0.155646
Br76	Br	0.898576	-0.106321	-0.155660
H77	H	0.664110	0.106288	0.119731
H78	H	0.875664	0.227070	0.569078
H79	H	0.889542	-0.668294	0.119716
Br80	Br	1.015407	-0.019484	0.354657
Br81	Br	0.917567	-0.060539	0.410117
Br82	Br	0.895592	-0.292389	-0.155659
H83	H	0.891877	-0.525059	-0.119820
Br84	Br	0.898498	-0.106338	0.155553
H85	H	0.987403	0.008489	0.195680
Br86	Br	0.870267	0.264499	0.410099
H87	H	0.987449	0.008496	0.665892
H88	H	0.800298	0.195451	0.195715
