data_functionalizedCrystal
_audit_creation_method	'MofGen! by Chris Wilmer'
_symmetry_space_group_name_H-M	'P1'
_symmetry_Int_Tables_number	1
_symmetry_cell_setting	triclinic
loop_
_symmetry_equiv_pos_as_xyz
  x,y,z
_cell_length_a	16.625547
_cell_length_b	11.169416
_cell_length_c	11.169409
_cell_angle_alpha	89.969184
_cell_angle_beta	89.971854
_cell_angle_gamma	90.010278
loop_
_atom_site_label
_atom_site_type_symbol
_atom_site_fract_x
_atom_site_fract_y
_atom_site_fract_z
Zn1	Zn	1.232775	-0.477712	-0.678798
Zn2	Zn	1.566108	-0.144379	-0.345464
Zn3	Zn	1.899442	0.188954	-0.012131
Zn4	Zn	1.232699	-0.678453	-0.478120
Zn5	Zn	1.566032	-0.345119	-0.144786
Zn6	Zn	1.899366	-0.011786	0.188547
Zn7	Zn	1.097929	-0.477782	-0.478106
Zn8	Zn	1.431262	-0.144449	-0.144772
Zn9	Zn	1.764596	0.188884	0.188561
Zn10	Zn	1.097936	-0.678352	-0.678738
Zn11	Zn	1.431269	-0.345019	-0.345405
Zn12	Zn	1.764602	-0.011685	-0.012071
O13	O	1.165335	-0.578075	-0.578440
O14	O	1.498668	-0.244742	-0.245107
O15	O	1.832001	0.088592	0.088226
O16	O	1.345597	-0.504354	-0.652208
O17	O	1.678931	-0.171021	-0.318875
O18	O	2.012264	0.162313	0.014458
O19	O	1.214787	-0.651905	-0.310168
O20	O	1.548120	-0.318571	0.023165
O21	O	1.881453	0.014762	0.356499
O22	O	1.115846	-0.309823	-0.504747
O23	O	1.449179	0.023510	-0.171414
O24	O	1.782512	0.356843	0.161920
O25	O	1.345541	-0.651837	-0.504771
O26	O	1.678875	-0.318504	-0.171438
O27	O	2.012208	0.014829	0.161896
O28	O	1.214916	-0.309772	-0.652195
O29	O	1.548250	0.023561	-0.318861
O30	O	1.881583	0.356895	0.014472
O31	O	1.115772	-0.504473	-0.310158
O32	O	1.449105	-0.171140	0.023176
O33	O	1.782438	0.162194	0.356509
O34	O	0.985097	-0.504375	-0.504689
O35	O	1.318431	-0.171042	-0.171356
O36	O	1.651764	0.162291	0.161978
O37	O	1.115857	-0.651665	-0.846696
O38	O	1.449190	-0.318332	-0.513363
O39	O	1.782524	0.015001	-0.180029
O40	O	0.985102	-0.651733	-0.652093
O41	O	1.318436	-0.318400	-0.318760
O42	O	1.651769	0.014934	0.014574
O43	O	1.214923	-0.504256	-0.846740
O44	O	1.548256	-0.170923	-0.513406
O45	O	1.881590	0.162410	-0.180073
O46	O	1.214793	-0.846389	-0.504713
O47	O	1.548127	-0.513056	-0.171380
O48	O	1.881460	-0.179722	0.161953
O49	O	1.115783	-0.846315	-0.652107
O50	O	1.449117	-0.512982	-0.318773
O51	O	1.782450	-0.179648	0.014560
C52	C	1.165303	-0.889900	-0.578431
C53	C	1.498636	-0.556566	-0.245098
C54	C	1.831969	-0.223233	0.088235
C55	C	1.165363	-1.023300	-0.578467
C56	C	1.498696	-0.689966	-0.245134
C57	C	1.832029	-0.356633	0.088199
C58	C	0.955844	-0.578052	-0.578384
C59	C	1.289177	-0.244718	-0.245050
C60	C	1.622510	0.088615	0.088283
C61	C	0.866223	-0.578071	-0.578388
C62	C	1.199556	-0.244737	-0.245054
C63	C	1.532889	0.088596	0.088279
C64	C	0.793440	-0.578073	-0.578403
C65	C	1.126774	-0.244740	-0.245069
C66	C	1.460107	0.088594	0.088264
C67	C	0.702132	-0.578079	-0.578433
C68	C	1.035465	-0.244746	-0.245099
C69	C	1.368798	0.088587	0.088234
C70	C	0.629355	-0.578090	-0.578463
C71	C	0.962689	-0.244757	-0.245130
C72	C	1.296022	0.088576	0.088203
C73	C	0.538041	-0.578098	-0.578492
C74	C	0.871374	-0.244765	-0.245159
C75	C	1.204708	0.088568	0.088175
C76	C	1.375643	-0.578099	-0.578498
C77	C	1.708977	-0.244766	-0.245165
C78	C	2.042310	0.088568	0.088169
C79	C	1.465265	-0.578109	-0.578522
C80	C	1.798598	-0.244776	-0.245189
C81	C	2.131931	0.088557	0.088144
C82	C	1.165399	-0.577942	-0.891483
C83	C	1.498733	-0.244609	-0.558150
C84	C	1.832066	0.088725	-0.224816
C85	C	1.165427	-0.577885	-1.024883
C86	C	1.498760	-0.244552	-0.691550
C87	C	1.832093	0.088781	-0.358216
C88	C	1.165389	-0.265033	-0.578476
C89	C	1.498722	0.068301	-0.245142
C90	C	1.832055	0.401634	0.088191
C91	C	1.165412	-0.131633	-0.578491
C92	C	1.498745	0.201701	-0.245158
C93	C	1.832078	0.535034	0.088176
C94	C	1.165317	-0.578121	-0.266616
C95	C	1.498650	-0.244787	0.066718
C96	C	1.831983	0.088546	0.400051
C97	C	1.165445	-0.577839	-0.133216
C98	C	1.498779	-0.244506	0.200117
C99	C	1.832112	0.088827	0.533451
