data_functionalizedCrystal
_audit_creation_method	'MofGen! by Chris Wilmer'
_symmetry_space_group_name_H-M	'P1'
_symmetry_Int_Tables_number	1
_symmetry_cell_setting	triclinic
loop_
_symmetry_equiv_pos_as_xyz
  x,y,z
_cell_length_a	10.654550
_cell_length_b	12.837942
_cell_length_c	9.130313
_cell_angle_alpha	89.998975
_cell_angle_beta	89.996220
_cell_angle_gamma	89.656921
loop_
_atom_site_label
_atom_site_type_symbol
_atom_site_fract_x
_atom_site_fract_y
_atom_site_fract_z
O1	O	1.683735	0.145718	-0.121920
O2	O	1.319772	0.159602	-0.121897
O3	O	1.493683	0.001699	-0.121899
O4	O	1.509824	0.303621	-0.121918
O5	O	1.493681	0.001703	0.121700
O6	O	1.319770	0.159606	0.121702
O7	O	1.683734	0.145722	0.121679
Cu8	Cu	1.501752	0.152665	0.143933
Cu9	Cu	1.501754	0.152660	-0.144151
O10	O	1.509822	0.303625	0.121681
C11	C	1.272862	0.158585	-0.000094
C12	C	1.133086	0.155535	-0.000085
C13	C	1.488230	-0.036959	-0.000100
C14	C	1.471967	-0.152153	-0.000101
C15	C	1.063745	0.248505	-0.000112
C16	C	0.932411	0.245633	-0.000138
C17	C	0.939770	0.056812	-0.000114
C18	C	1.071101	0.059685	-0.000079
C19	C	1.059496	0.357520	-0.000132
C20	C	0.928162	0.354648	-0.000157
C21	C	1.667472	-0.391705	-0.000145
C22	C	1.652197	-0.499941	-0.000146
C23	C	1.426146	-0.476862	-0.000116
C24	C	1.441420	-0.368626	-0.000115
C25	C	1.562087	-0.326052	-0.000127
C26	C	1.577360	-0.217814	-0.000115
C27	C	1.351309	-0.194737	-0.000096
C28	C	1.336035	-0.302973	-0.000097
C29	C	1.730644	0.146740	-0.000127
C30	C	1.870420	0.149790	-0.000146
C31	C	1.515276	0.342283	-0.000121
C32	C	1.531538	0.457477	-0.000130
N33	N	1.501759	0.152668	0.346555
N34	N	1.501755	0.152648	-0.346774
C35	C	1.578792	0.082772	0.423206
C36	C	1.578787	0.082760	0.576543
C37	C	1.424714	0.222547	0.576565
C38	C	1.424713	0.222554	0.423230
C39	C	1.667748	0.002070	0.423195
C40	C	1.667744	0.002058	0.576532
H41	H	0.889286	-0.021226	-0.000132
N42	N	1.104511	0.413994	0.134909
H43	H	1.159070	0.365752	0.195189
H44	H	1.154696	0.476946	0.104751
H45	H	1.098940	0.392230	-0.105306
H46	H	1.765723	-0.357041	-0.000140
H47	H	0.886085	0.387595	0.105009
N48	N	1.237639	-0.123920	-0.000070
H49	H	1.238931	-0.078493	-0.090368
H50	H	1.158945	-0.167389	-0.000006
N51	N	1.341605	0.297921	0.340553
H52	H	1.292798	0.342189	0.412397
H53	H	1.395192	0.344171	0.276925
N54	N	1.205894	-0.348894	-0.000089
H55	H	1.212206	-0.427424	-0.000094
H56	H	1.159216	-0.324940	0.090227
H57	H	1.766195	0.019834	0.618141
N58	N	0.878805	0.409050	-0.135200
H59	H	0.951508	0.435392	-0.195451
H60	H	0.828071	0.358451	-0.195349
N61	N	1.341615	0.297918	0.659264
H62	H	1.353299	0.287307	0.768033
H63	H	1.364932	0.371637	0.632471
N64	N	1.627824	-0.103556	0.368055
H65	H	1.609999	-0.150697	0.454047
H66	H	1.549542	-0.095718	0.306566
N67	N	1.792177	0.035539	0.360170
H68	H	1.852300	0.051704	0.442498
H69	H	1.827945	-0.022472	0.297871
N70	N	1.616468	-0.097773	0.639528
H71	H	1.527142	-0.107548	0.605403
H72	H	1.669662	-0.158447	0.605353
H73	H	1.127554	-0.016021	-0.000036
H74	H	1.675613	-0.183153	-0.000119
H75	H	1.738013	-0.553393	-0.000165
N76	N	1.296008	-0.522790	-0.000119
H77	H	1.302329	-0.601319	-0.000129
H78	H	1.249321	-0.498842	0.090193
