data_functionalizedCrystal
_audit_creation_method	'MofGen! by Chris Wilmer'
_symmetry_space_group_name_H-M	'P1'
_symmetry_Int_Tables_number	1
_symmetry_cell_setting	triclinic
loop_
_symmetry_equiv_pos_as_xyz
  x,y,z
_cell_length_a	14.560432
_cell_length_b	23.196402
_cell_length_c	23.196401
_cell_angle_alpha	119.992782
_cell_angle_beta	90.013845
_cell_angle_gamma	119.994401
loop_
_atom_site_label
_atom_site_type_symbol
_atom_site_fract_x
_atom_site_fract_y
_atom_site_fract_z
Zr1	Zr	0.884841	-0.630978	-0.075627
O2	O	0.738181	-0.751239	-0.167674
O3	O	0.929786	-0.510718	-0.047412
O4	O	0.929761	-0.630980	-0.167678
O5	O	0.738241	-0.630975	0.047463
O6	O	1.080900	-0.630981	-0.167678
O7	O	0.738205	-0.630977	-0.047408
O8	O	1.080944	-0.415854	0.047456
O9	O	0.738198	-0.846103	-0.167670
O10	O	1.061765	-0.560183	-0.035375
O11	O	0.948999	-0.560181	0.035426
O12	O	0.948970	-0.701775	-0.106171
O13	O	0.836204	-0.701773	-0.035370
Zr14	Zr	1.125948	-0.630977	0.075683
Zr15	Zr	1.125890	-0.630980	-0.075626
Zr16	Zr	0.884899	-0.630976	0.075682
Zr17	Zr	0.884869	-0.782274	-0.075621
Zr18	Zr	1.125921	-0.479681	0.075677
O19	O	1.081004	-0.751238	0.047469
O20	O	1.080922	-0.751241	-0.167673
O21	O	0.738263	-0.751236	0.047468
O22	O	1.272608	-0.510716	0.167731
O23	O	1.272526	-0.510720	-0.047411
O24	O	0.929868	-0.510714	0.167729
O25	O	1.272548	-0.630980	-0.047406
O26	O	1.081028	-0.630976	0.167735
O27	O	0.929889	-0.630975	0.167734
O28	O	1.272584	-0.630978	0.047465
O29	O	0.929800	-0.846104	-0.167670
O30	O	1.080989	-0.415852	0.167726
O31	O	1.272591	-0.415853	0.167727
O32	O	1.272545	-0.415855	0.047456
O33	O	0.738244	-0.846101	-0.047400
O34	O	0.929846	-0.846102	-0.047399
O35	O	1.061819	-0.560181	0.106228
O36	O	1.174585	-0.560183	0.035427
O37	O	1.061791	-0.701774	-0.035369
O38	O	0.949024	-0.701772	0.035432
C39	C	1.005361	-0.441729	0.000021
C40	C	1.005349	-0.377500	0.000018
C41	C	1.088632	-0.295072	0.052279
C42	C	1.088639	-0.234712	0.052286
C43	C	1.005370	-0.256785	0.000020
C44	C	0.922073	-0.339227	-0.052245
C45	C	0.922062	-0.399585	-0.052246
C46	C	0.979420	-0.201199	-0.063772
C47	C	0.979438	-0.140840	-0.063771
C48	C	1.005397	-0.070625	0.000023
C49	C	1.031362	-0.060765	0.063821
C50	C	1.031351	-0.121122	0.063820
C51	C	1.005372	-0.191343	0.000016
C52	C	1.088692	0.077257	0.052295
C53	C	1.088691	0.137616	0.052302
C54	C	0.922130	0.033097	-0.052235
C55	C	0.922126	-0.027259	-0.052236
C56	C	1.005413	-0.005174	0.000028
C57	C	0.703879	-0.630976	0.000027
C58	C	0.601547	-0.630975	0.000027
C59	C	0.409300	-0.630968	0.104570
C60	C	0.457401	-0.630966	0.156837
C61	C	0.553549	-0.630968	0.156836
C62	C	0.601601	-0.630970	0.104563
C63	C	0.553500	-0.630972	0.052295
C64	C	0.457348	-0.630972	0.052301
C65	C	0.553447	-0.630977	-0.052240
C66	C	0.457294	-0.630981	-0.052243
C67	C	0.601498	-0.630979	-0.104514
C68	C	0.553393	-0.630986	-0.156785
C69	C	0.457238	-0.630986	-0.156782
C70	C	0.409193	-0.630983	-0.104511
C71	C	1.306910	-0.630979	0.000029
C72	C	1.409242	-0.630980	0.000030
C73	C	1.005424	0.179772	0.000035
C74	C	1.005421	0.115538	0.000036
C75	C	1.005323	-0.630981	-0.189236
C76	C	1.005298	-0.630982	-0.253471
C77	C	0.946426	-0.704889	-0.320599
C78	C	0.946455	-0.704890	-0.380954
C79	C	1.005340	-0.630980	-0.374177
C80	C	1.064225	-0.557063	-0.307037
C81	C	1.064204	-0.557064	-0.246684
C82	C	0.996966	-0.574354	-0.441496
C83	C	0.996979	-0.574356	-0.501850
C84	C	1.005411	-0.630973	-0.560325
C85	C	1.013808	-0.687602	-0.558445
C86	C	1.013787	-0.687603	-0.498092
C87	C	1.005370	-0.630970	-0.439616
C88	C	0.946567	-0.704887	-0.692899
C89	C	0.946604	-0.704885	-0.753254
C90	C	1.064367	-0.557056	-0.679335
C91	C	1.064338	-0.557060	-0.618982
C92	C	1.005432	-0.630978	-0.625769
C93	C	1.005467	-0.630975	0.189293
C94	C	1.005491	-0.630974	0.253527
C95	C	1.306876	-0.441731	0.000022
C96	C	1.409196	-0.377502	0.000020
C97	C	1.005433	-0.441726	0.189285
C98	C	1.005446	-0.377496	0.253517
C99	C	1.306948	-0.441728	0.189286
C100	C	1.409293	-0.377498	0.253519
C101	C	0.703841	-0.820227	-0.189230
C102	C	0.601496	-0.884457	-0.253462
C103	C	0.703913	-0.820224	0.000035
C104	C	0.601593	-0.884453	0.000037
C105	C	1.005357	-0.820229	-0.189229
C106	C	1.005344	-0.884459	-0.253461
C107	C	1.398356	-0.347340	-0.036945
C108	C	1.494487	-0.286999	-0.036962
C109	C	1.601458	-0.256817	-0.000008
C110	C	1.612296	-0.286985	0.036958
C111	C	1.516166	-0.347329	0.036970
C112	C	1.064343	-0.347333	0.320646
C113	C	1.064351	-0.286990	0.381004
C114	C	1.005467	-0.256808	0.374233
C115	C	0.946563	-0.286977	0.307098
C116	C	0.946549	-0.347323	0.246741
C117	C	1.516228	-0.347336	0.246726
C118	C	1.612401	-0.286994	0.307073
C119	C	1.601636	-0.256811	0.374213
C120	C	1.494690	-0.286979	0.381005
C121	C	1.398520	-0.347324	0.320658
C122	C	0.494561	-0.914626	-0.246669
C123	C	0.398389	-0.974987	-0.307016
C124	C	0.409153	-1.005174	-0.374156
C125	C	0.516100	-0.975002	-0.380948
C126	C	0.612270	-0.914646	-0.320601
C127	C	0.612433	-0.914622	0.036996
C128	C	0.516302	-0.974980	0.036995
C129	C	0.409331	-1.005164	0.000039
C130	C	0.398493	-0.974993	-0.036924
C131	C	0.494623	-0.914640	-0.036927
C132	C	1.064239	-0.914622	-0.246667
C133	C	1.064248	-0.974966	-0.307014
C134	C	1.005356	-1.005149	-0.374154
C135	C	0.946460	-0.974979	-0.380947
C136	C	0.946457	-0.914633	-0.320600
H137	H	1.052492	-0.003596	0.115768
H138	H	1.699405	-0.262402	0.067044
C139	C	0.606266	-0.630975	-0.214272
N140	N	0.646095	-0.630964	-0.257572
C141	C	0.528249	-1.008150	0.077666
N142	N	0.537251	-1.033130	0.108301
C143	C	0.830479	-0.363507	-0.109738
N144	N	0.761486	-0.381796	-0.153042
H145	H	1.525008	-0.371879	0.067075
H146	H	0.485781	-0.890078	-0.067022
C147	C	1.128996	-0.475761	-0.299583
N148	N	1.177785	-0.414522	-0.293968
C149	C	0.730093	-0.881434	0.077649
N150	N	0.818711	-0.856445	0.108267
C151	C	1.129117	-0.380526	0.328111
N152	N	1.177901	-0.405528	0.333740
H153	H	0.958269	-0.258374	-0.115725
C154	C	1.180298	0.101548	0.109792
N155	N	1.249296	0.119847	0.153101
C156	C	0.881647	-0.881471	-0.328085
N157	N	0.832825	-0.856499	-0.333729
C158	C	1.280697	-0.380533	-0.077605
N159	N	1.192078	-0.405535	-0.108236
C160	C	1.129165	-0.253807	0.454846
N161	N	1.177987	-0.228813	0.510462
C162	C	1.059901	-0.110279	0.133995
N163	N	1.081400	-0.102113	0.186852
H164	H	0.330836	-1.054319	-0.423289
H165	H	0.679791	-0.630975	-0.104510
C166	C	1.129036	-0.881428	-0.172818
N167	N	1.177852	-0.856426	-0.117197
C168	C	0.830446	-0.490264	-0.109743
N169	N	0.761443	-0.558565	-0.153053
H170	H	0.331065	-1.054307	0.000048
H171	H	1.156509	0.204736	0.094863
H172	H	0.854314	-0.094378	-0.094796
H173	H	0.331003	-0.630977	0.104571
H174	H	1.005488	-0.207670	0.423386
H175	H	1.020626	-0.733711	-0.496565
C176	C	1.482540	-0.253818	-0.077622
N177	N	1.473538	-0.228826	-0.108245
C178	C	0.280814	-1.008193	-0.077561
N179	N	0.192176	-1.033195	-0.108162
C180	C	0.527922	-1.008208	-0.454809
N181	N	0.536823	-1.033216	-0.510443
C182	C	1.129036	-1.008144	-0.299527
N183	N	1.177832	-1.033133	-0.293885
H184	H	0.592716	-0.630962	0.199399
C185	C	1.482867	-0.253762	0.454866
N186	N	1.473966	-0.228736	0.510499
C187	C	1.005368	-1.071533	-0.440531
N188	N	1.005379	-1.121535	-0.490523
H189	H	0.898667	-0.765071	-0.807914
H190	H	1.311452	-0.371874	0.326199
H191	H	0.418083	-0.630983	-0.199342
C192	C	0.881802	-0.253763	0.299661
N193	N	0.833030	-0.228741	0.294062
H194	H	0.898511	-0.999564	-0.435620
H195	H	0.330900	-0.630987	-0.104506
H196	H	1.156450	-0.277082	0.094837
H197	H	1.156459	-0.167586	0.094844
H198	H	0.854330	0.015123	-0.094789
H199	H	1.525014	-0.371903	0.192062
H200	H	0.958301	-0.148873	-0.115719
H201	H	0.898592	-0.371874	0.192084
C202	C	1.707438	-0.190423	0.440590
N203	N	1.787133	-0.140417	0.490582
H204	H	0.679898	-0.630961	0.104570
C205	C	0.404565	-0.630930	0.214352
N206	N	0.364782	-0.630889	0.257679
H207	H	0.898465	-0.765078	-0.326131
H208	H	1.020668	-0.733708	-0.606058
C209	C	0.881688	-0.786196	-0.454806
N210	N	0.832904	-0.847437	-0.510430
H211	H	0.898603	-0.765075	-0.698426
C212	C	1.129089	-0.475755	-0.545137
N213	N	1.177864	-0.414512	-0.489515
H214	H	1.112314	-0.496876	-0.673816
C215	C	1.707194	-0.190430	-0.000022
N216	N	1.786831	-0.140425	-0.000033
H217	H	0.990136	-0.528248	-0.503375
H218	H	0.485775	-0.890052	-0.192006
H219	H	0.990092	-0.528249	-0.393888
H220	H	1.112146	-0.496878	-0.192023
H221	H	1.699472	-0.262438	0.301530
H222	H	0.311318	-0.999543	-0.301473
H223	H	0.699339	-0.890083	-0.326141
