data_functionalizedCrystal
_audit_creation_method	'MofGen! by Chris Wilmer'
_symmetry_space_group_name_H-M	'P1'
_symmetry_Int_Tables_number	1
_symmetry_cell_setting	triclinic
loop_
_symmetry_equiv_pos_as_xyz
  x,y,z
_cell_length_a	25.639242
_cell_length_b	25.639239
_cell_length_c	12.645323
_cell_angle_alpha	90.031874
_cell_angle_beta	90.023436
_cell_angle_gamma	90.030990
loop_
_atom_site_label
_atom_site_type_symbol
_atom_site_fract_x
_atom_site_fract_y
_atom_site_fract_z
Zn1	Zn	0.799272	-0.208254	0.599416
Zn2	Zn	0.799182	-0.295693	0.422134
Zn3	Zn	0.711834	-0.208261	0.422158
Zn4	Zn	0.711793	-0.295649	0.599347
O5	O	0.755520	-0.251964	0.510764
O6	O	0.872425	-0.219868	0.575918
O7	O	0.787574	-0.284117	0.273790
O8	O	0.723488	-0.135095	0.445710
O9	O	0.872359	-0.284109	0.445670
O10	O	0.787728	-0.135090	0.575941
O11	O	0.723400	-0.219881	0.273808
O12	O	0.638664	-0.219838	0.445644
O13	O	0.723418	-0.284034	0.747704
O14	O	0.638634	-0.284041	0.575824
O15	O	0.787688	-0.219825	0.747754
O16	O	0.787534	-0.368852	0.445603
O17	O	0.723331	-0.368820	0.575801
C18	C	0.619678	-0.251936	0.510730
C19	C	0.561564	-0.251936	0.510740
C20	C	0.310413	-0.218573	0.578708
C21	C	0.365017	-0.218568	0.578702
O22	O	0.393290	-0.190179	0.636483
N23	N	0.392290	-0.251958	0.510776
C24	C	0.364955	-0.285359	0.442860
O25	O	0.393167	-0.313760	0.385084
C26	C	0.310352	-0.285367	0.442872
C27	C	0.283082	-0.251971	0.510794
C28	C	0.283143	-0.185181	0.646626
C29	C	0.228542	-0.185185	0.646630
C30	C	0.201212	-0.218583	0.578717
C31	C	0.228482	-0.251975	0.510799
C32	C	0.283018	-0.318770	0.374961
C33	C	0.228411	-0.318775	0.374980
C34	C	0.201142	-0.285379	0.442903
C35	C	0.146550	-0.285377	0.442890
N36	N	0.119278	-0.251987	0.510815
C37	C	0.146608	-0.218590	0.578729
C38	C	0.479626	-0.285342	0.442841
C39	C	0.534228	-0.285332	0.442822
C40	C	0.534286	-0.218542	0.578666
C41	C	0.479683	-0.218549	0.578678
C42	C	0.452353	-0.251952	0.510766
C43	C	0.031943	-0.218602	0.578732
C44	C	-0.022662	-0.218608	0.578727
C45	C	-0.022715	-0.285400	0.442888
C46	C	0.031885	-0.285392	0.442888
C47	C	0.059213	-0.251991	0.510819
O48	O	0.118243	-0.313754	0.385141
O49	O	0.118390	-0.190199	0.636505
C50	C	0.755432	-0.387807	0.510715
C51	C	0.755443	-0.445921	0.510730
C52	C	0.789038	-0.806288	0.443086
C53	C	0.789059	-0.860893	0.443100
O54	O	0.817532	-0.889133	0.385533
N55	N	0.755612	-0.888203	0.510834
C56	C	0.722147	-0.860907	0.578567
O57	O	0.693700	-0.889151	0.636182
C58	C	0.722130	-0.806304	0.578557
C59	C	0.755575	-0.778996	0.510810
C60	C	0.822481	-0.778980	0.375345
C61	C	0.822460	-0.724380	0.375330
C62	C	0.788996	-0.697087	0.443055
C63	C	0.755554	-0.724395	0.510795
C64	C	0.688668	-0.779008	0.646294
C65	C	0.688654	-0.724401	0.646279
C66	C	0.722098	-0.697093	0.578532
C67	C	0.722069	-0.642502	0.578505
N68	N	0.755515	-0.615191	0.510770
C69	C	0.788979	-0.642484	0.443045
C70	C	0.722186	-0.975577	0.578583
C71	C	0.722201	-1.030180	0.578588
C72	C	0.789113	-1.030162	0.443122
C73	C	0.789096	-0.975558	0.443113
C74	C	0.755633	-0.948267	0.510848
C75	C	0.788932	-0.527819	0.443018
C76	C	0.788906	-0.473213	0.443005
C77	C	0.721996	-0.473236	0.578474
C78	C	0.722019	-0.527837	0.578483
C79	C	0.755492	-0.555127	0.510751
O80	O	0.693612	-0.614227	0.636045
O81	O	0.817426	-0.614233	0.385449
C82	C	0.891893	-0.251993	0.510799
C83	C	0.950007	-0.252005	0.510814
C84	C	0.755559	-0.251924	0.787269
C85	C	0.755575	-0.251907	0.905100
C86	C	0.755623	-0.115591	0.510836
C87	C	0.755666	-0.057477	0.510867
C88	C	0.755512	-0.251967	0.235334
C89	C	0.755597	-0.251837	0.117505
C90	C	0.715018	-0.292110	1.072632
C91	C	0.715124	-0.292309	0.950072
C92	C	0.810660	-0.266867	0.949617
C93	C	0.810438	-0.267119	1.072215
C94	C	0.741568	-0.196518	1.072311
C95	C	0.740339	-0.196850	0.949704
H96	H	0.556427	-0.312521	0.387501
O97	O	0.780714	-0.156768	1.110747
H98	H	0.780013	-0.155340	1.198464
O99	O	0.685902	-0.443794	0.651514
H100	H	0.694849	-0.454239	0.734735
H101	H	0.849734	-0.801196	0.320195
O102	O	0.661022	-0.279891	0.910186
H103	H	0.634546	-0.273693	0.978464
H104	H	0.849695	-0.702149	0.320168
H105	H	0.699801	-0.185568	0.920607
O106	O	0.450152	-0.321362	0.369565
H107	H	0.460624	-0.362407	0.387579
O108	O	0.198937	-0.354802	0.301722
H109	H	0.156386	-0.349201	0.313135
H110	H	0.841696	-0.239060	1.101902
H111	H	0.816330	-0.953327	0.387948
O112	O	-0.052071	-0.182584	0.651990
H113	H	-0.094633	-0.188191	0.640581
O114	O	0.652554	-0.694964	0.719325
H115	H	0.629299	-0.723130	0.766420
H116	H	0.694787	-0.550072	0.633651
O117	O	0.061415	-0.182572	0.651986
H118	H	0.033272	-0.159351	0.699199
O119	O	0.652596	-0.808450	0.719374
H120	H	0.626007	-0.833364	0.671898
O121	O	0.776631	-0.154997	0.909172
H122	H	0.806230	-0.172865	0.856373
H123	H	0.694961	-1.052409	0.633744
O124	O	0.826684	-0.319873	0.908957
H125	H	0.863443	-0.316208	0.863222
O126	O	0.686079	-0.946142	0.651618
H127	H	0.662822	-0.974310	0.698703
O128	O	0.689283	-0.178461	1.113228
H129	H	0.690545	-0.176174	1.200847
H130	H	0.206344	-0.157993	0.701944
H131	H	0.841704	-0.238462	0.920490
H132	H	0.816363	-1.052393	0.387981
O133	O	0.312617	-0.149150	0.719869
H134	H	0.284473	-0.125931	0.767082
H135	H	0.674049	-0.282837	1.102107
O136	O	0.727140	-0.346091	1.113481
H137	H	0.761944	-0.344362	1.165596
H138	H	0.816141	-0.450981	0.387834
H139	H	0.724384	-0.333319	0.920748
H140	H	0.457484	-0.191355	0.633986
H141	H	0.556549	-0.191348	0.633965
H142	H	0.305212	-0.345964	0.319651
O143	O	0.826183	-0.320686	1.110115
H144	H	0.833882	-0.346167	1.040878
H145	H	0.054089	-0.312581	0.387571
H146	H	-0.044978	-0.312589	0.387590
O147	O	0.825028	-0.557250	0.369958
H148	H	0.848273	-0.529080	0.322849
