data_functionalizedCrystal
_audit_creation_method	'MofGen! by Chris Wilmer'
_symmetry_space_group_name_H-M	'P1'
_symmetry_Int_Tables_number	1
_symmetry_cell_setting	triclinic
loop_
_symmetry_equiv_pos_as_xyz
  x,y,z
_cell_length_a	16.625545
_cell_length_b	12.594517
_cell_length_c	16.625539
_cell_angle_alpha	89.992676
_cell_angle_beta	90.028107
_cell_angle_gamma	89.980800
loop_
_atom_site_label
_atom_site_type_symbol
_atom_site_fract_x
_atom_site_fract_y
_atom_site_fract_z
Zn1	Zn	-0.321137	-1.627192	0.455625
Zn2	Zn	-0.455980	-1.627055	0.320793
Zn3	Zn	-0.321150	-1.449197	0.320837
Zn4	Zn	-0.455916	-1.449149	0.455614
O5	O	-0.388546	-1.538148	0.388217
O6	O	-0.339045	-1.776120	0.437726
O7	O	-0.438127	-1.603424	0.207967
O8	O	-0.208316	-1.472886	0.338740
O9	O	-0.438114	-1.776019	0.338665
O10	O	-0.208306	-1.603658	0.437769
O11	O	-0.339068	-1.472753	0.207999
O12	O	-0.339006	-1.300245	0.338729
O13	O	-0.438005	-1.472804	0.568448
O14	O	-0.438018	-1.300209	0.437749
O15	O	-0.338984	-1.603611	0.568456
O16	O	-0.568804	-1.603377	0.338654
O17	O	-0.568757	-1.472670	0.437707
C18	C	-0.388507	-1.261607	0.388243
C19	C	-0.388510	-1.143302	0.388274
C20	C	-0.598037	-1.538033	0.388192
C21	C	-0.687658	-1.538080	0.388208
C22	C	-0.442466	-1.074060	0.442030
C23	C	-0.368949	-1.003267	0.461868
C24	C	-0.462082	-1.003295	0.368428
C25	C	-0.314954	-1.074067	0.408150
C26	C	-0.408136	-1.074102	0.314676
C27	C	-0.334568	-1.003341	0.334486
C28	C	-0.760440	-1.538122	0.388224
C29	C	-0.851749	-1.538184	0.388242
C30	C	-0.924525	-1.538239	0.388252
C31	C	-1.015840	-1.538300	0.388269
C32	C	-0.178237	-1.538293	0.388261
C33	C	-0.088616	-1.538355	0.388279
C34	C	-0.388486	-1.538217	0.598526
C35	C	-0.388460	-1.538247	0.688148
C36	C	-0.388578	-0.815769	0.388204
C37	C	-0.388573	-0.934074	0.388230
C38	C	-0.388548	-1.538140	0.178727
C39	C	-0.388346	-1.538317	0.089106
C40	C	-0.388370	-1.538296	1.016323
C41	C	-0.388398	-1.538279	0.925015
C42	C	-0.388416	-1.538272	0.852238
C43	C	-0.388442	-1.538254	0.760924
H44	H	-0.488010	-1.105115	0.487544
H45	H	-0.524274	-0.972203	0.351663
H46	H	-0.252743	-1.105025	0.424987
O47	O	-0.349305	-0.966184	0.536143
C48	C	-0.406297	-1.002226	0.592663
H49	H	-0.464960	-1.022108	0.560498
H50	H	-0.417684	-0.937442	0.639170
H51	H	-0.382334	-1.076271	0.624027
H52	H	-0.288914	-0.972485	0.289008
O53	O	-0.428076	-1.111206	0.240491
C54	C	-0.505067	-1.073559	0.219177
H55	H	-0.540039	-1.052527	0.275948
H56	H	-0.538690	-1.137816	0.184515
H57	H	-0.498729	-0.999895	0.179833
