data_functionalizedCrystal
_audit_creation_method	'MofGen! by Chris Wilmer'
_symmetry_space_group_name_H-M	'P1'
_symmetry_Int_Tables_number	1
_symmetry_cell_setting	triclinic
loop_
_symmetry_equiv_pos_as_xyz
  x,y,z
_cell_length_a	12.759395
_cell_length_b	19.805404
_cell_length_c	19.805399
_cell_angle_alpha	90.032624
_cell_angle_beta	89.987524
_cell_angle_gamma	89.964247
loop_
_atom_site_label
_atom_site_type_symbol
_atom_site_fract_x
_atom_site_fract_y
_atom_site_fract_z
Zn1	Zn	1.606042	0.269472	-0.382623
Zn2	Zn	1.605889	0.382664	-0.269427
Zn3	Zn	1.430361	0.269493	-0.269456
Zn4	Zn	1.430267	0.382624	-0.382583
O5	O	1.518140	0.326063	-0.326022
O6	O	1.753042	0.284495	-0.367612
O7	O	1.582580	0.367676	-0.174715
O8	O	1.453769	0.174774	-0.284497
O9	O	1.752930	0.367656	-0.284448
O10	O	1.582841	0.174759	-0.367640
O11	O	1.453621	0.284531	-0.174736
O12	O	1.283328	0.284493	-0.284458
O13	O	1.453609	0.367589	-0.477305
O14	O	1.283259	0.367610	-0.367572
O15	O	1.582750	0.284457	-0.477334
O16	O	1.582489	0.477375	-0.284409
O17	O	1.453460	0.477346	-0.367544
C18	C	1.245172	0.326050	-0.326014
C19	C	1.128396	0.326061	-0.326026
C20	C	1.128493	0.239605	-0.412765
C21	C	1.073681	0.196385	-0.456140
C22	C	0.963960	0.196397	-0.456149
C23	C	0.909047	0.239632	-0.412776
C24	C	0.963859	0.282852	-0.369401
C25	C	1.073584	0.282837	-0.369399
C26	C	0.963762	0.369303	-0.282660
C27	C	1.073483	0.369295	-0.282654
C28	C	0.908849	0.412538	-0.239288
C29	C	0.963661	0.455762	-0.195915
C30	C	1.073390	0.455749	-0.195909
C31	C	1.128295	0.412515	-0.239279
C32	C	1.517976	0.501920	-0.325984
C33	C	1.518002	0.577151	-0.325990
C34	C	1.518186	0.326016	-0.502565
C35	C	1.518205	0.325996	-0.577797
C36	C	1.792173	0.326077	-0.326031
C37	C	1.908950	0.326083	-0.326035
C38	C	1.585363	1.038875	-0.369392
C39	C	1.585334	0.968187	-0.369379
C40	C	1.518173	0.932913	-0.326049
C41	C	1.451044	0.968331	-0.282726
C42	C	1.451079	1.039019	-0.282737
C43	C	1.450902	0.683258	-0.282680
C44	C	1.450870	0.612566	-0.282674
C45	C	1.585158	0.612427	-0.369322
C46	C	1.585193	0.683114	-0.369333
C47	C	1.518068	0.718526	-0.326008
C48	C	1.518101	0.795174	-0.326022
C49	C	1.518133	0.856266	-0.326038
C50	C	1.518288	1.149521	-0.326070
C51	C	1.518237	1.074289	-0.326074
C52	C	1.451075	0.282699	-0.613152
C53	C	1.451090	0.282685	-0.683840
C54	C	1.518240	0.325967	-0.719173
C55	C	1.585373	0.369270	-0.683813
C56	C	1.585353	0.369286	-0.613126
C57	C	1.585457	0.369207	-0.968887
C58	C	1.585474	0.369186	-1.039579
C59	C	1.451194	0.282606	-1.039601
C60	C	1.451173	0.282622	-0.968914
C61	C	1.518302	0.325927	-0.933560
C62	C	1.518284	0.325942	-0.856912
C63	C	1.518264	0.325950	-0.795820
C64	C	1.518154	0.326061	-0.150166
C65	C	1.518338	0.325891	-0.074935
H66	H	0.819508	0.412543	-0.239296
H67	H	0.819706	0.239633	-0.412781
H68	H	1.639994	0.939354	-0.404651
H69	H	0.919332	0.161200	-0.491464
H70	H	1.217834	0.239588	-0.412760
H71	H	1.118011	0.490941	-0.160586
H72	H	1.640105	0.404476	-0.940110
H73	H	1.640025	0.404539	-0.584341
H74	H	1.640043	0.404514	-0.712587
H75	H	0.918943	0.490957	-0.160602
H76	H	1.640044	1.067590	-0.404683
H77	H	1.118403	0.161183	-0.491452
H78	H	1.396400	0.247449	-0.584389
H79	H	1.639879	0.711830	-0.404619
H80	H	1.639818	0.583587	-0.404598
H81	H	1.217636	0.412497	-0.239275
H82	H	1.396177	0.583847	-0.247388
H83	H	1.396422	0.247430	-0.712623
H84	H	1.396244	0.712082	-0.247402
H85	H	1.396417	1.067851	-0.247462
H86	H	1.396363	0.939607	-0.247443
H87	H	1.396496	0.247375	-0.940149
H88	H	1.640159	0.404434	-1.068345
H89	H	1.396531	0.247347	-1.068394
