data_functionalizedCrystal
_audit_creation_method	'MofGen! by Chris Wilmer'
_symmetry_space_group_name_H-M	'P1'
_symmetry_Int_Tables_number	1
_symmetry_cell_setting	triclinic
loop_
_symmetry_equiv_pos_as_xyz
  x,y,z
_cell_length_a	14.853567
_cell_length_b	10.723024
_cell_length_c	9.798715
_cell_angle_alpha	90.001978
_cell_angle_beta	89.998674
_cell_angle_gamma	95.948600
loop_
_atom_site_label
_atom_site_type_symbol
_atom_site_fract_x
_atom_site_fract_y
_atom_site_fract_z
O1	O	1.197224	-0.162914	-0.113413
O2	O	0.934867	-0.182321	-0.113431
O3	O	1.072097	0.009020	-0.113417
O4	O	1.059994	-0.354255	-0.113427
O5	O	1.072087	0.009021	0.113566
O6	O	0.934857	-0.182320	0.113551
O7	O	1.197214	-0.162913	0.113570
Zn8	Zn	1.066034	-0.172617	0.149598
Zn9	Zn	1.066047	-0.172617	-0.149460
O10	O	1.059984	-0.354254	0.113555
C11	C	0.901269	-0.181441	0.000057
C12	C	0.801171	-0.178806	0.000050
C13	C	1.230812	-0.163793	0.000078
C14	C	1.330910	-0.166428	0.000076
C15	C	1.071211	0.055511	0.000073
C16	C	1.068576	0.194039	0.000068
C17	C	1.744103	-0.291228	0.000048
C18	C	1.764183	-0.063910	0.000056
C19	C	1.670137	-0.061433	0.000063
C20	C	1.613068	-0.173854	0.000061
C21	C	1.650047	-0.288754	0.000052
C22	C	1.633151	0.053465	0.000059
C23	C	1.539099	0.055947	0.000065
C24	C	1.482029	-0.056476	0.000073
C25	C	1.519013	-0.171380	0.000065
C26	C	1.461944	-0.283802	0.000063
C27	C	1.498926	-0.398707	0.000065
C28	C	1.592977	-0.401176	0.000060
C29	C	1.387978	-0.054006	0.000078
C30	C	1.367888	-0.281327	0.000066
C31	C	1.060870	-0.400745	0.000062
C32	C	1.063505	-0.539273	0.000058
N33	N	1.066031	-0.172616	0.353698
C34	C	1.145363	0.269798	0.000071
C35	C	1.142641	0.412974	0.000066
N36	N	1.066057	-0.172609	-0.353560
C37	C	1.123650	-0.091925	0.421481
C38	C	1.123665	-0.091921	0.578644
H39	H	1.321429	-0.372876	0.000073
C40	C	1.189396	0.000400	0.656185
C41	C	1.173800	0.122992	0.621507
C42	C	1.234343	0.208075	0.692901
H43	H	1.180725	-0.011666	0.751507
H44	H	1.249722	-0.012966	0.632793
H45	H	1.113488	0.136354	0.644909
H46	H	1.182478	0.135098	0.526198
H47	H	1.294669	0.194708	0.669509
H48	H	1.225667	0.195997	0.788219
H49	H	1.223774	0.291262	0.669373
H50	H	0.997766	0.395637	0.000065
C51	C	1.189581	0.000129	0.343942
C52	C	1.278372	-0.019963	0.378645
C53	C	1.339142	0.064827	0.307277
H54	H	1.180978	-0.012005	0.248617
H55	H	1.179186	0.083418	0.367338
H56	H	1.288763	-0.103232	0.355240
H57	H	1.287004	-0.007819	0.473958
H58	H	1.328747	0.148115	0.330673
H59	H	1.330530	0.052686	0.211955
H60	H	1.399393	0.051213	0.330822
H61	H	1.810654	0.027618	0.000049
H62	H	1.016708	-0.241690	0.412017
C63	C	1.000235	-0.264872	0.568982
C64	C	0.947107	-0.339330	0.661998
C65	C	0.886471	-0.424348	0.590684
H66	H	0.962276	-0.220148	0.513242
H67	H	1.033107	-0.316780	0.513263
H68	H	0.914237	-0.287428	0.717693
H69	H	0.985041	-0.384082	0.717740
H70	H	0.919343	-0.476256	0.534964
H71	H	0.848518	-0.379612	0.534946
H72	H	0.850422	-0.474885	0.653783
H73	H	1.213118	0.228661	0.000085
H74	H	1.208376	0.478071	0.000075
C75	C	1.436854	-0.520666	-0.000154
C76	C	1.382263	-0.525864	-0.116918
C77	C	1.325060	-0.638181	-0.117158
H78	H	1.472230	-0.589558	-0.000222
H79	H	1.399690	-0.524426	0.078956
H80	H	1.419423	-0.522116	-0.196007
H81	H	1.346868	-0.456998	-0.116875
H82	H	1.287896	-0.641941	-0.038048
H83	H	1.360443	-0.707064	-0.117222
H84	H	1.288007	-0.641717	-0.196374
H85	H	1.357871	0.039548	0.000067
H86	H	1.774218	-0.384781	0.000055
C87	C	1.633184	-0.525882	-0.000225
C88	C	1.686572	-0.533952	-0.117024
C89	C	1.723621	-0.648815	-0.117342
H90	H	1.669522	-0.531688	0.078833
H91	H	1.585757	-0.592525	-0.000294
H92	H	1.733993	-0.467327	-0.116942
H93	H	1.650255	-0.528168	-0.196100
H94	H	1.676193	-0.715459	-0.117411
H95	H	1.759954	-0.654611	-0.038279
H96	H	1.759841	-0.654311	-0.196595
C97	C	1.498825	0.180604	0.000285
C98	C	1.445403	0.188651	0.117051
C99	C	1.408277	0.303459	0.117294
H100	H	1.546188	0.247312	0.000353
H101	H	1.462499	0.186306	-0.078824
H102	H	1.481727	0.182962	0.196139
H103	H	1.398026	0.121970	0.117007
H104	H	1.371951	0.309160	0.038185
H105	H	1.455646	0.370157	0.117359
H106	H	1.372019	0.308929	0.196511
C107	C	0.978290	0.249047	-0.000156
C108	C	0.972162	0.322948	-0.116920
C109	C	0.889006	0.373651	-0.117164
H110	H	0.930389	0.183080	-0.000227
H111	H	0.973949	0.299301	0.078954
H112	H	0.976494	0.272697	-0.196009
H113	H	1.020043	0.388935	-0.116874
H114	H	0.884665	0.423905	-0.038055
H115	H	0.841112	0.307676	-0.117232
H116	H	0.884840	0.423808	-0.196380
H117	H	1.679622	0.144992	0.000054
