data_functionalizedCrystal
_audit_creation_method	'MofGen! by Chris Wilmer'
_symmetry_space_group_name_H-M	'P1'
_symmetry_Int_Tables_number	1
_symmetry_cell_setting	triclinic
loop_
_symmetry_equiv_pos_as_xyz
  x,y,z
_cell_length_a	10.654550
_cell_length_b	18.266241
_cell_length_c	19.188924
_cell_angle_alpha	90.010381
_cell_angle_beta	83.813433
_cell_angle_gamma	89.995096
loop_
_atom_site_label
_atom_site_type_symbol
_atom_site_fract_x
_atom_site_fract_y
_atom_site_fract_z
O1	O	-1.665737	-0.060945	-0.098067
O2	O	-1.300061	-0.060933	-0.107410
O3	O	-1.493456	-0.060931	-0.001152
O4	O	-1.472342	-0.060947	-0.204326
O5	O	-1.493489	0.060831	-0.001138
O6	O	-1.300093	0.060829	-0.107396
O7	O	-1.665770	0.060817	-0.098054
Zn8	Zn	-1.482937	0.080155	-0.102723
Zn9	Zn	-1.482894	-0.080271	-0.102741
O10	O	-1.472374	0.060815	-0.204312
C11	C	-1.253294	-0.000051	-0.106717
C12	C	-1.113894	-0.000046	-0.104665
N13	N	-1.482866	-0.189758	-0.102748
C14	C	-1.492790	-0.000049	0.024871
C15	C	-1.490742	-0.000047	0.102389
C16	C	-1.712537	-0.000067	-0.098746
C17	C	-1.851937	-0.000076	-0.100799
C18	C	-1.033081	-0.000062	-0.167228
C19	C	-0.902102	-0.000075	-0.165295
C20	C	-0.932759	-0.000059	-0.038231
C21	C	-1.063737	-0.000041	-0.040164
C22	C	-1.015380	-0.000074	-0.240588
C23	C	-0.884400	-0.000087	-0.238655
C24	C	-1.558637	-0.228078	-0.145567
C25	C	-1.558645	-0.304722	-0.145568
C26	C	-1.482898	-0.343045	-0.102736
C27	C	-1.407112	-0.304717	-0.059914
C28	C	-1.407095	-0.228073	-0.059920
N29	N	-1.480107	-0.463367	-0.041529
N30	N	-1.480130	-0.536175	-0.041525
C31	C	-1.482940	-0.573968	-0.102716
N32	N	-1.485752	-0.536202	-0.163912
N33	N	-1.485736	-0.463387	-0.163915
C34	C	-1.482907	-0.426152	-0.102725
C35	C	-1.558725	-0.695394	-0.145540
C36	C	-1.558725	-0.772040	-0.145542
C37	C	-1.407198	-0.772033	-0.059881
C38	C	-1.407191	-0.695388	-0.059886
C39	C	-1.482961	-0.657073	-0.102714
N40	N	-1.482975	0.189642	-0.102710
C41	C	-1.473040	-0.000069	-0.230334
C42	C	-1.475089	-0.000076	-0.307852
C43	C	-1.489768	-0.066420	0.138787
C44	C	-1.487826	-0.066425	0.211622
C45	C	-1.486883	-0.000054	0.248059
C46	C	-1.487849	0.066327	0.211652
C47	C	-1.489779	0.066331	0.138817
N48	N	-1.555329	0.049342	0.367280
N49	N	-1.553498	0.049334	0.436470
C50	C	-1.481066	-0.000061	0.467506
N51	N	-1.410549	-0.049459	0.426739
N52	N	-1.412385	-0.049453	0.357542
C53	C	-1.484789	-0.000051	0.327036
C54	C	-1.477984	-0.066444	0.582880
C55	C	-1.476034	-0.066447	0.655716
C56	C	-1.476070	0.066307	0.655745
C57	C	-1.478007	0.066308	0.582909
C58	C	-1.478970	-0.000070	0.546482
H59	H	-1.129531	-0.000017	0.010781
H60	H	-0.838273	0.052479	-0.260819
C61	C	-1.486755	-0.139439	0.251671
C62	C	-1.484630	-0.139441	0.331786
C63	C	-1.483557	-0.212454	0.371833
C64	C	-1.484609	-0.285466	0.331764
C65	C	-1.486735	-0.285466	0.251644
C66	C	-1.487807	-0.212453	0.211598
H67	H	-1.483851	-0.085391	0.361452
H68	H	-1.481984	-0.212453	0.431143
H69	H	-1.483815	-0.339514	0.361409
H70	H	-1.487514	-0.339516	0.221979
H71	H	-1.489381	-0.212454	0.152287
C72	C	-0.827196	-0.068935	-0.275995
C73	C	-0.753827	-0.124427	-0.235562
C74	C	-0.696622	-0.193272	-0.272898
C75	C	-0.712786	-0.206624	-0.350667
C76	C	-0.786159	-0.151130	-0.391104
C77	C	-0.843364	-0.082285	-0.353768
H78	H	-0.741859	-0.114545	-0.177988
H79	H	-0.642307	-0.234353	-0.242963
H80	H	-0.670439	-0.257587	-0.378306
H81	H	-0.798127	-0.161013	-0.448678
H82	H	-0.897679	-0.041205	-0.383703
C83	C	-0.877582	-0.000057	0.032717
C84	C	-0.791742	0.063162	0.051524
C85	C	-0.736567	0.063162	0.122473
C86	C	-0.767233	-0.000056	0.174615
C87	C	-0.853077	-0.063280	0.155810
C88	C	-0.908251	-0.063281	0.084861
H89	H	-0.769037	0.109965	0.012924
H90	H	-0.673019	0.109965	0.136394
H91	H	-0.726389	-0.000056	0.227136
H92	H	-0.875781	-0.110083	0.194410
H93	H	-0.971799	-0.110084	0.070940
H94	H	-1.044117	0.050883	-0.269273
C95	C	-1.486814	0.139336	0.251728
C96	C	-1.484701	0.139336	0.331845
C97	C	-1.483659	0.212348	0.371920
C98	C	-1.484731	0.285360	0.331879
C99	C	-1.486845	0.285363	0.251759
C100	C	-1.487887	0.212351	0.211683
H101	H	-1.483907	0.085285	0.361489
H102	H	-1.482094	0.212345	0.431231
H103	H	-1.483960	0.339408	0.361546
H104	H	-1.487639	0.339414	0.222114
H105	H	-1.489452	0.212354	0.152373
H106	H	-1.050527	-0.052646	-0.263952
C107	C	-1.642007	-0.346887	-0.192665
C108	C	-1.786238	-0.336333	-0.183257
C109	C	-1.869602	-0.378496	-0.230352
C110	C	-1.808735	-0.431213	-0.286855
C111	C	-1.664496	-0.441770	-0.296266
C112	C	-1.581133	-0.399607	-0.249171
H113	H	-1.831302	-0.297306	-0.141427
H114	H	-1.976377	-0.370680	-0.223385
H115	H	-1.870446	-0.462425	-0.321718
H116	H	-1.619432	-0.480797	-0.338096
H117	H	-1.474358	-0.407422	-0.256138
C118	C	-1.323789	-0.346868	-0.012797
C119	C	-1.323809	-0.431173	-0.012785
C120	C	-1.240479	-0.473323	0.034330
C121	C	-1.157128	-0.431169	0.081433
C122	C	-1.157105	-0.346860	0.081423
C123	C	-1.240436	-0.304709	0.034308
H124	H	-1.385513	-0.462383	-0.047655
H125	H	-1.240496	-0.535735	0.034338
H126	H	-1.095442	-0.462371	0.116311
H127	H	-1.095401	-0.315650	0.116293
H128	H	-1.240418	-0.242297	0.034300
H129	H	-1.345391	-0.196874	-0.025050
H130	H	-1.620415	-0.664196	-0.180416
C131	C	-1.323873	-0.814179	-0.012765
C132	C	-1.323884	-0.898484	-0.012756
C133	C	-1.240552	-0.940633	0.034359
C134	C	-1.157208	-0.898478	0.081465
C135	C	-1.157193	-0.814168	0.081458
C136	C	-1.240526	-0.772019	0.034342
H137	H	-1.385583	-0.929694	-0.047629
H138	H	-1.240563	-1.003045	0.034364
H139	H	-1.095520	-0.929679	0.116342
H140	H	-1.095494	-0.782958	0.116330
H141	H	-1.240514	-0.709607	0.034337
H142	H	-1.620424	-0.803238	-0.180414
C143	C	-1.475052	0.139313	0.695824
C144	C	-1.584368	0.194060	0.693226
C145	C	-1.583354	0.267067	0.733312
C146	C	-1.473025	0.285327	0.775996
C147	C	-1.363702	0.230579	0.778595
C148	C	-1.364715	0.157572	0.738509
H149	H	-1.666047	0.180544	0.661628
H150	H	-1.664284	0.307595	0.731388
H151	H	-1.472275	0.339371	0.805670
H152	H	-1.282022	0.244095	0.810193
H153	H	-1.283786	0.117045	0.740433
H154	H	-1.490566	0.120381	0.109182
C155	C	-1.479027	-0.139455	0.542800
C156	C	-1.589375	-0.157712	0.500130
C157	C	-1.590416	-0.230723	0.460052
C158	C	-1.481109	-0.285476	0.462644
C159	C	-1.370752	-0.267221	0.505316
C160	C	-1.369711	-0.194210	0.545394
H161	H	-1.670298	-0.117180	0.498210
H162	H	-1.672110	-0.244237	0.428464
H163	H	-1.481880	-0.339523	0.432976
H164	H	-1.289829	-0.307753	0.507236
H165	H	-1.288017	-0.180696	0.576983
H166	H	-1.345496	-0.664189	-0.025015
C167	C	-1.479097	0.139321	0.542870
C168	C	-1.371408	0.157586	0.485400
C169	C	-1.372494	0.230603	0.445361
C170	C	-1.481268	0.285356	0.462792
C171	C	-1.588964	0.267092	0.520265
C172	C	-1.587879	0.194075	0.560304
H173	H	-1.290880	0.117054	0.472494
H174	H	-1.292769	0.244123	0.402816
H175	H	-1.482071	0.339407	0.433153
H176	H	-1.669493	0.307624	0.533171
H177	H	-1.667604	0.180555	0.602849
H178	H	-1.620332	-0.196886	-0.180442
H179	H	-1.490549	-0.120470	0.109131
H180	H	-1.475235	-0.120498	0.685350
