data_functionalizedCrystal
_audit_creation_method	'MofGen! by Chris Wilmer'
_symmetry_space_group_name_H-M	'P1'
_symmetry_Int_Tables_number	1
_symmetry_cell_setting	triclinic
loop_
_symmetry_equiv_pos_as_xyz
  x,y,z
_cell_length_a	15.625950
_cell_length_b	19.188924
_cell_length_c	14.185569
_cell_angle_alpha	76.888872
_cell_angle_beta	120.545593
_cell_angle_gamma	83.721390
loop_
_atom_site_label
_atom_site_type_symbol
_atom_site_fract_x
_atom_site_fract_y
_atom_site_fract_z
O1	O	1.290584	0.018083	0.385885
O2	O	1.790584	0.518083	0.885885
O3	O	1.002323	0.048795	0.281059
O4	O	1.502323	0.548795	0.781059
O5	O	1.154779	-0.068767	0.336512
O6	O	1.654779	0.431233	0.836512
O7	O	1.138128	0.135645	0.330433
O8	O	1.638128	0.635645	0.830433
O9	O	1.199816	-0.103493	0.519727
O10	O	1.699816	0.396507	1.019727
O11	O	1.047360	0.014070	0.464275
O12	O	1.547360	0.514070	0.964275
O13	O	1.335621	-0.016643	0.569101
O14	O	1.835621	0.483357	1.069101
Cu15	Cu	1.195602	-0.004457	0.533417
Cu16	Cu	1.695602	0.495543	1.033417
Cu17	Cu	1.142341	0.036610	0.316743
Cu18	Cu	1.642341	0.536610	0.816743
O19	O	1.183165	0.100920	0.513649
O20	O	1.683165	0.600920	1.013649
C21	C	0.987962	0.033480	0.359256
C22	C	1.487962	0.533480	0.859256
C23	C	0.878074	0.039574	0.319296
C24	C	1.378074	0.539574	0.819296
C25	C	0.639287	-0.034965	0.687090
C26	C	1.139287	0.465035	1.187090
C27	C	0.536015	-0.029215	0.649489
C28	C	1.036015	0.470785	1.149489
C29	C	0.486969	0.008639	0.449774
C30	C	0.986969	0.508639	0.949774
C31	C	0.590238	0.002896	0.487357
C32	C	1.090238	0.502896	0.987357
C33	C	0.666390	-0.018907	0.606017
C34	C	1.166390	0.481093	1.106017
C35	C	0.617341	0.018953	0.406284
C36	C	1.117341	0.518953	0.906284
C37	C	0.720601	0.013207	0.443866
C38	C	1.220601	0.513207	0.943866
C39	C	0.796759	-0.008597	0.562520
C40	C	1.296759	0.491403	1.062520
C41	C	0.769650	-0.024654	0.643598
C42	C	1.269650	0.475346	1.143598
C43	C	0.541188	0.040751	0.287626
C44	C	1.041188	0.540751	0.787626
C45	C	0.568291	0.056808	0.206552
C46	C	1.068291	0.556808	0.706552
C47	C	0.671552	0.051067	0.244133
C48	C	1.171552	0.551067	0.744133
C49	C	0.747710	0.029263	0.362787
C50	C	1.247710	0.529263	0.862787
C51	C	0.698661	0.067123	0.163055
C52	C	1.198661	0.567123	0.663055
C53	C	0.801922	0.061377	0.200636
C54	C	1.301922	0.561377	0.700636
C55	C	0.850971	0.023517	0.400369
C56	C	1.350971	0.523517	0.900369
C57	C	1.176760	-0.112106	0.427925
C58	C	1.676760	0.387894	0.927925
C59	C	1.175146	-0.189505	0.427341
C60	C	1.675146	0.310495	0.927341
C61	C	1.149843	-0.206925	0.327196
C62	C	1.649843	0.293075	0.827196
C63	C	1.148309	-0.279646	0.326630
C64	C	1.648309	0.220354	0.826630
C65	C	1.172101	-0.334947	0.426223
C66	C	1.672101	0.165053	0.926223
C67	C	1.197402	-0.317520	0.526380
C68	C	1.697402	0.182480	1.026380
C69	C	1.198924	-0.244798	0.526938
C70	C	1.698924	0.255202	1.026938
N71	N	1.244317	-0.472250	0.520170
N72	N	1.744317	0.027750	1.020170
N73	N	1.242871	-0.541331	0.519633
N74	N	1.742871	-0.041331	1.019633
C75	C	1.167513	-0.554052	0.424545
C76	C	1.667513	-0.054052	0.924545
N77	N	1.093663	-0.495082	0.330002
N78	N	1.593663	0.004918	0.830002
N79	N	1.095113	-0.425995	0.330537
N80	N	1.595113	0.074005	0.830537
C81	C	1.170452	-0.413803	0.425628
C82	C	1.670452	0.086197	0.925628
C83	C	1.140544	-0.650323	0.323780
C84	C	1.640544	-0.150323	0.823780
C85	C	1.139006	-0.723044	0.323217
C86	C	1.639006	-0.223044	0.823217
C87	C	1.188109	-0.760919	0.522972
C88	C	1.688109	-0.260919	1.022972
C89	C	1.189636	-0.688197	0.523529
C90	C	1.689636	-0.188197	1.023529
C91	C	1.165858	-0.632903	0.423931
C92	C	1.665858	-0.132903	0.923931
C93	C	1.349981	-0.001327	0.490902
C94	C	1.849981	0.498673	0.990902
C95	C	1.459867	-0.007420	0.530855
C96	C	1.959867	0.492580	1.030855
C97	C	1.161183	0.144259	0.422233
C98	C	1.661183	0.644259	0.922233
C99	C	1.162796	0.221659	0.422810
C100	C	1.662796	0.721659	0.922810
N101	N	1.233071	-0.033342	0.685816
N102	N	1.733071	0.466658	1.185816
N103	N	1.104881	0.065489	0.164347
N104	N	1.604881	0.565489	0.664347
C105	C	0.994799	0.150323	0.966800
C106	C	1.494799	0.650323	1.466800
C107	C	1.023187	0.128447	1.082147
C108	C	1.523187	0.628447	1.582147
C109	C	1.158214	0.024379	1.131221
C110	C	1.658214	0.524379	1.631221
C111	C	1.129834	0.046245	1.015875
C112	C	1.629834	0.546245	1.515875
C113	C	1.048126	0.109218	0.933673
C114	C	1.548126	0.609218	1.433673
C115	C	1.183161	0.005139	0.982747
C116	C	1.683161	0.505139	1.482747
C117	C	1.154786	0.027005	0.867412
C118	C	1.654786	0.527005	1.367412
C119	C	1.073084	0.089976	0.785204
C120	C	1.573084	0.589976	1.285204
C121	C	1.019751	0.131083	0.818337
C122	C	1.519751	0.631083	1.318337
C123	C	1.264873	-0.057831	1.064953
C124	C	1.764873	0.442169	1.564953
C125	C	1.318200	-0.098937	1.031826
C126	C	1.818200	0.401063	1.531826
C127	C	1.289821	-0.077074	0.916487
C128	C	1.789821	0.422926	1.416487
C129	C	1.208119	-0.014102	0.834279
C130	C	1.708119	0.485898	1.334279
C131	C	1.343153	-0.118181	0.883354
C132	C	1.843153	0.381819	1.383354
C133	C	1.314778	-0.096315	0.768019
C134	C	1.814778	0.403685	1.268019
C135	C	1.179743	0.007763	0.718944
C136	C	1.679743	0.507763	1.218944
H137	H	0.506276	0.074557	0.109939
H138	H	1.006276	0.574557	0.609939
H139	H	1.118395	-0.737223	0.241661
H140	H	1.618395	-0.237223	0.741661
H141	H	0.424953	0.026387	0.353161
H142	H	0.924953	0.526387	0.853161
C143	C	1.089820	0.077012	0.628499
C144	C	1.589820	0.577012	1.128499
N145	N	1.022082	0.129160	0.560373
N146	N	1.522082	0.629160	1.060373
H147	H	1.207472	-0.805944	0.604060
H148	H	1.707472	-0.305944	1.104060
C149	C	1.296084	-0.081883	1.191826
C150	C	1.796084	0.418117	1.691826
N151	N	1.319590	-0.099999	1.287385
N152	N	1.819590	0.400001	1.787385
C153	C	0.506209	-0.046883	0.738687
C154	C	1.006209	0.453117	1.238687
N155	N	0.483760	-0.060192	0.805869
N156	N	0.983760	0.439808	1.305869
C157	C	0.929828	0.200332	0.727893
C158	C	1.429828	0.700332	1.227893
N159	N	0.862089	0.252480	0.659766
N160	N	1.362089	0.752480	1.159766
H161	H	0.636645	0.084868	0.066443
H162	H	1.136645	0.584868	0.566443
H163	H	1.216770	-0.362550	0.607468
H164	H	1.716770	0.137450	1.107468
H165	H	1.210249	-0.674016	0.605081
H166	H	1.710249	-0.174016	1.105081
H167	H	1.049985	0.107781	0.691293
H168	H	1.549985	0.607781	1.191293
H169	H	1.219525	-0.230617	0.608490
H170	H	1.719525	0.269383	1.108490
H171	H	1.121176	-0.605299	0.242679
H172	H	1.621176	-0.105299	0.742679
H173	H	0.928257	0.201598	0.899864
H174	H	1.428257	0.701598	1.399864
C175	C	0.964513	0.173671	1.118579
C176	C	1.464513	0.673671	1.618579
N177	N	0.920322	0.207733	1.146020
N178	N	1.420322	0.707733	1.646020
H179	H	0.701293	-0.052708	0.783714
H180	H	1.201293	0.447292	1.283714
H181	H	1.130477	-0.161908	0.246094
H182	H	1.630477	0.338092	0.746094
C183	C	0.427598	0.047071	0.246288
C184	C	0.927598	0.547071	0.746288
N185	N	0.342042	0.051833	0.215154
N186	N	0.842042	0.551833	0.715154
C187	C	0.853424	-0.048633	0.774130
C188	C	1.353424	0.451367	1.274130
N189	N	0.916521	-0.066696	0.872443
N190	N	1.416521	0.433304	1.372443
H191	H	1.127698	-0.293831	0.245075
H192	H	1.627698	0.206169	0.745075
H193	H	0.823987	0.074456	0.134618
H194	H	1.323987	0.574456	0.634618
C195	C	1.408074	-0.168208	1.122259
C196	C	1.908074	0.331792	1.622259
N197	N	1.475765	-0.220386	1.190371
N198	N	1.975765	0.279614	1.690371
C199	C	1.433033	-0.187448	0.973791
C200	C	1.933033	0.312552	1.473791
N201	N	1.500731	-0.239621	1.041909
N202	N	2.000731	0.260379	1.541909
C203	C	1.373439	-0.141536	0.731575
C204	C	1.873439	0.358464	1.231575
N205	N	1.417625	-0.175596	0.704127
N206	N	1.917625	0.324404	1.204127
H207	H	0.880840	-0.013276	0.593117
H208	H	1.380840	0.486724	1.093117
C209	C	0.934744	-0.000463	0.530901
C210	C	1.434744	0.499537	1.030901
N211	N	0.997842	-0.018526	0.629213
N212	N	1.497842	0.481474	1.129213
H213	H	1.224744	-0.026893	1.198164
H214	H	1.724744	0.473107	1.698164
