data_functionalizedCrystal
_audit_creation_method	'MofGen! by Chris Wilmer'
_symmetry_space_group_name_H-M	'P1'
_symmetry_Int_Tables_number	1
_symmetry_cell_setting	triclinic
loop_
_symmetry_equiv_pos_as_xyz
  x,y,z
_cell_length_a	19.288865
_cell_length_b	19.288864
_cell_length_c	18.366186
_cell_angle_alpha	89.977106
_cell_angle_beta	89.988521
_cell_angle_gamma	83.136245
loop_
_atom_site_label
_atom_site_type_symbol
_atom_site_fract_x
_atom_site_fract_y
_atom_site_fract_z
O1	O	-0.086649	-0.921353	0.060791
O2	O	-0.098337	-0.719092	0.060743
O3	O	0.008637	-0.826067	0.060754
O4	O	-0.193623	-0.814378	0.060780
O5	O	0.008643	-0.826049	-0.060345
O6	O	-0.098332	-0.719074	-0.060357
O7	O	-0.086643	-0.921335	-0.060308
Zn8	Zn	-0.092487	-0.820201	-0.079559
Zn9	Zn	-0.092494	-0.820225	0.079994
O10	O	-0.193618	-0.814360	-0.060319
C11	C	0.034516	-0.825682	0.000202
C12	C	0.111620	-0.824553	0.000195
C13	C	-0.097959	-0.693207	0.000187
C14	C	-0.096830	-0.616103	0.000167
C15	C	-0.087022	-0.947220	0.000250
C16	C	-0.088151	-1.024324	0.000274
C17	C	-0.219497	-0.814745	0.000234
C18	C	-0.296601	-0.815874	0.000246
C19	C	0.156316	-0.887321	0.000207
C20	C	0.228763	-0.886260	0.000218
C21	C	0.256511	-0.822428	0.000203
C22	C	0.211805	-0.759652	0.000196
C23	C	0.139359	-0.760714	0.000192
C24	C	0.364800	-0.772242	-0.042227
C25	C	0.437245	-0.771182	-0.042228
C26	C	0.479956	-0.819148	0.000219
C27	C	0.450216	-0.868186	0.042657
C28	C	0.377771	-0.869248	0.042653
C29	C	0.335065	-0.821269	0.000208
C30	C	0.603209	-0.880770	0.000244
C31	C	0.675657	-0.879707	0.000259
C32	C	0.658697	-0.753097	0.000230
C33	C	0.586250	-0.754162	0.000221
C34	C	0.558511	-0.818001	0.000225
N35	N	-0.092482	-0.820190	-0.188451
C36	C	-0.159598	-0.571407	0.000187
C37	C	-0.158537	-0.498960	0.000195
C38	C	-0.094705	-0.471212	0.000198
C39	C	-0.031929	-0.515918	0.000174
C40	C	-0.032991	-0.588364	0.000159
C41	C	-0.044527	-0.362956	0.042642
C42	C	-0.043468	-0.290512	0.042662
C43	C	-0.091425	-0.247767	0.000241
C44	C	-0.140454	-0.277473	-0.042189
C45	C	-0.141517	-0.349918	-0.042205
C46	C	-0.093546	-0.392658	0.000214
C47	C	-0.153047	-0.124514	0.000269
C48	C	-0.151984	-0.052066	0.000272
C49	C	-0.025374	-0.069026	0.000259
C50	C	-0.026439	-0.141473	0.000248
C51	C	-0.090278	-0.169212	0.000256
C52	C	-0.045137	-0.867574	-0.226546
C53	C	-0.045134	-0.867578	-0.302774
C54	C	-0.092488	-0.820206	-0.340903
C55	C	-0.139836	-0.772813	-0.302799
C56	C	-0.139834	-0.772805	-0.226572
C57	C	-0.155775	-0.810907	-0.461657
C58	C	-0.155779	-0.810920	-0.537882
C59	C	-0.092496	-0.820225	-0.576011
C60	C	-0.029207	-0.829533	-0.537905
C61	C	-0.029204	-0.829525	-0.461679
C62	C	-0.092496	-0.820208	-0.423558
C63	C	-0.045144	-0.867617	-0.696761
C64	C	-0.045140	-0.867616	-0.772990
C65	C	-0.139849	-0.772854	-0.773014
C66	C	-0.139847	-0.772851	-0.696786
C67	C	-0.092495	-0.820236	-0.658664
N68	N	-0.092493	-0.820242	0.188885
H69	H	0.133736	-0.939303	0.000212
H70	H	0.234401	-0.707679	0.000185
H71	H	-0.003548	-0.266331	0.077215
H72	H	-0.178388	-0.734219	-0.195554
H73	H	0.549857	-0.703049	0.000208
H74	H	0.102967	-0.709599	0.000182
H75	H	0.022328	-0.837102	-0.430657
C76	C	-0.223265	-0.155031	0.000270
H77	H	-0.260497	-0.118032	0.000273
H78	H	-0.226314	-0.182961	0.042496
H79	H	-0.226308	-0.182917	-0.041969
H80	H	-0.006578	-0.906165	-0.333797
H81	H	0.265162	-0.937375	0.000231
C82	C	0.044840	-0.038513	0.000266
H83	H	0.036485	0.011035	0.000283
H84	H	0.070682	-0.053845	-0.041966
H85	H	0.070669	-0.053893	0.042499
C86	C	0.572688	-0.950986	0.000257
H87	H	0.523141	-0.942630	0.000243
H88	H	0.588033	-0.976829	0.042494
H89	H	0.588057	-0.976815	-0.041971
C90	C	0.724823	-0.948755	0.000271
H91	H	0.697924	-0.986924	0.000265
H92	H	0.753428	-0.950985	0.042503
H93	H	0.753446	-0.950960	-0.041962
H94	H	0.353560	-0.909175	0.077208
H95	H	-0.178402	-0.734269	-0.665767
C96	C	0.469952	-0.717244	-0.088907
H97	H	0.434140	-0.688821	-0.114177
H98	H	0.501436	-0.740834	-0.123018
H99	H	0.494450	-0.688790	-0.058318
H100	H	0.681288	-0.701123	0.000221
C101	C	-0.225393	-0.800687	-0.579791
H102	H	-0.263082	-0.795133	-0.546167
H103	H	-0.229150	-0.840365	-0.609502
H104	H	-0.226900	-0.760240	-0.609550
H105	H	0.484991	-0.907244	0.077221
H106	H	0.330029	-0.733180	-0.076796
C107	C	-0.229817	-0.601917	0.000183
H108	H	-0.267048	-0.564917	0.000188
H109	H	-0.232869	-0.629852	0.042404
H110	H	-0.232859	-0.629797	-0.042061
C111	C	0.006955	-0.919688	-0.184616
H112	H	0.035157	-0.947905	-0.218226
H113	H	-0.017953	-0.948518	-0.154855
H114	H	0.035811	-0.894786	-0.154905
C115	C	-0.227584	-0.449785	0.000227
H116	H	-0.265755	-0.476682	0.000236
H117	H	-0.229807	-0.421141	-0.041992
H118	H	-0.229791	-0.421202	0.042473
C119	C	-0.195438	-0.382598	-0.088878
H120	H	-0.189202	-0.431864	-0.082806
H121	H	-0.189158	-0.371516	-0.138662
H122	H	-0.241223	-0.364581	-0.073950
H123	H	-0.179506	-0.242671	-0.076733
C124	C	0.036055	-0.637535	0.000143
H125	H	0.026279	-0.684654	0.000131
H126	H	0.062239	-0.629168	0.042371
H127	H	0.062239	-0.629125	-0.042094
H128	H	-0.203099	-0.015674	0.000284
H129	H	-0.005473	-0.397755	0.077191
H130	H	0.024674	-0.177866	0.000236
C131	C	-0.225391	-0.800676	-0.419722
H132	H	-0.263083	-0.795146	-0.453331
H133	H	-0.226904	-0.760227	-0.390005
H134	H	-0.229138	-0.840355	-0.389967
C135	C	0.038285	-0.485399	0.000182
H136	H	0.029928	-0.435851	0.000202
H137	H	0.064125	-0.500729	-0.042053
H138	H	0.064116	-0.500781	0.042412
C139	C	-0.191926	-0.720706	-0.344738
H140	H	-0.185153	-0.727502	-0.395592
H141	H	-0.184501	-0.674374	-0.332275
H142	H	-0.238266	-0.728105	-0.332227
C143	C	0.040408	-0.839764	-0.579837
H144	H	0.031345	-0.838426	-0.630691
H145	H	0.065292	-0.883646	-0.567331
H146	H	0.067530	-0.803519	-0.567365
C147	C	0.006947	-0.919730	-0.654824
H148	H	0.035153	-0.947944	-0.688433
H149	H	-0.017964	-0.948561	-0.625067
H150	H	0.035799	-0.894828	-0.625109
C151	C	0.006941	-0.919742	-0.814896
H152	H	0.035136	-0.947964	-0.781271
H153	H	0.035796	-0.894858	-0.844652
H154	H	-0.017982	-0.948576	-0.844609
H155	H	-0.178402	-0.734279	-0.804058
