data_functionalizedCrystal
_audit_creation_method	'MofGen! by Chris Wilmer'
_symmetry_space_group_name_H-M	'P1'
_symmetry_Int_Tables_number	1
_symmetry_cell_setting	triclinic
loop_
_symmetry_equiv_pos_as_xyz
  x,y,z
_cell_length_a	13.032831
_cell_length_b	12.759400
_cell_length_c	13.032268
_cell_angle_alpha	82.848512
_cell_angle_beta	89.113023
_cell_angle_gamma	82.818273
loop_
_atom_site_label
_atom_site_type_symbol
_atom_site_fract_x
_atom_site_fract_y
_atom_site_fract_z
Zn1	Zn	1.498533	-0.709536	0.780860
Zn2	Zn	1.998533	-0.209536	1.280860
Zn3	Zn	1.520287	-0.866072	0.608886
Zn4	Zn	2.020287	-0.366072	1.108886
Zn5	Zn	1.348388	-0.665647	0.587100
Zn6	Zn	1.848388	-0.165647	1.087100
Zn7	Zn	1.326535	-0.860392	0.759011
Zn8	Zn	1.826535	-0.360392	1.259011
O9	O	1.423436	-0.775412	0.683964
O10	O	1.923436	-0.275412	1.183964
O11	O	1.645341	-0.751047	0.776309
O12	O	2.145341	-0.251047	1.276309
O13	O	1.515734	-0.823495	0.462079
O14	O	2.015734	-0.323495	0.962079
O15	O	1.368347	-0.524456	0.612829
O16	O	1.868347	-0.024456	1.112829
O17	O	1.661324	-0.866053	0.649961
O18	O	2.161324	-0.366053	1.149961
O19	O	1.478658	-0.556702	0.755184
O20	O	1.978658	-0.056702	1.255184
O21	O	1.389441	-0.676243	0.446073
O22	O	1.889441	-0.176243	0.946073
O23	O	1.201567	-0.670734	0.591643
O24	O	1.701567	-0.170734	1.091643
O25	O	1.331101	-0.856371	0.905827
O26	O	1.831101	-0.356371	1.405827
O27	O	1.185512	-0.813813	0.717945
O28	O	1.685512	-0.313813	1.217945
O29	O	1.457467	-0.745538	0.921879
O30	O	1.957467	-0.245538	1.421879
O31	O	1.494544	-1.012331	0.628774
O32	O	1.994544	-0.512331	1.128774
O33	O	1.352195	-1.008158	0.739070
O34	O	1.852195	-0.508158	1.239070
C35	C	1.156222	-0.736896	0.650059
C36	C	1.656222	-0.236896	1.150059
C37	C	1.041904	-0.720446	0.635579
C38	C	1.541904	-0.220446	1.135579
C39	C	0.983032	-0.783997	0.691522
C40	C	1.483032	-0.283997	1.191522
C41	C	0.864878	-0.766997	0.676557
C42	C	1.364878	-0.266997	1.176557
C43	C	1.423384	-1.048369	0.683941
C44	C	1.923384	-0.548369	1.183941
C45	C	1.423452	-1.165159	0.683978
C46	C	1.923452	-0.665159	1.183978
C47	C	1.480851	-1.236733	0.758152
C48	C	1.980851	-0.736733	1.258152
C49	C	1.480895	-1.346467	0.758183
C50	C	1.980895	-0.846467	1.258183
C51	C	1.366140	-1.313042	0.609857
C52	C	1.866140	-0.813042	1.109857
C53	C	1.366090	-1.203310	0.609831
C54	C	1.866090	-0.703310	1.109831
C55	C	1.538212	-1.198582	0.832298
C56	C	2.038212	-0.698582	1.332298
C57	C	1.595617	-1.270158	0.906478
C58	C	2.095617	-0.770158	1.406478
C59	C	1.595661	-1.379892	0.906509
C60	C	2.095661	-0.879892	1.406509
C61	C	1.538301	-1.418050	0.832361
C62	C	2.038301	-0.918050	1.332361
C63	C	1.691693	-0.814079	0.718002
C64	C	2.191693	-0.314079	1.218002
C65	C	1.806009	-0.830557	0.732507
C66	C	2.306009	-0.330557	1.232507
C67	C	1.389420	-0.805217	0.952213
C68	C	1.889420	-0.305217	1.452213
C69	C	1.374924	-0.817918	1.066524
C70	C	1.874924	-0.317918	1.566524
C71	C	1.423513	-0.501395	0.684014
C72	C	1.923513	-0.001395	1.184014
C73	C	1.423546	-0.384625	0.684035
C74	C	1.923546	0.115375	1.184035
C75	C	1.457379	-0.745655	0.416767
C76	C	1.957379	-0.245655	0.916767
C77	C	1.472074	-0.732687	0.302482
C78	C	1.972074	-0.232687	0.802482
C79	C	1.430985	-0.768743	1.125430
C80	C	1.930985	-0.268743	1.625430
C81	C	1.416005	-0.781869	1.243577
C82	C	1.916005	-0.281869	1.743577
H83	H	1.004832	-0.653449	0.576610
H84	H	1.504832	-0.153449	1.076610
Cl85	Cl	1.667709	-1.222188	0.999697
Cl86	Cl	2.167709	-0.722188	1.499697
H87	H	0.843073	-0.897550	0.791491
H88	H	1.343073	-0.397550	1.291491
H89	H	1.538185	-1.109234	0.832280
H90	H	2.038185	-0.609234	1.332280
H91	H	1.315831	-0.869729	1.103559
H92	H	1.815831	-0.369729	1.603559
H93	H	1.020103	-0.850987	0.750499
H94	H	1.520103	-0.350987	1.250499
Cl95	Cl	1.563321	-0.652693	1.245320
Cl96	Cl	2.063321	-0.152693	1.745320
H97	H	0.827811	-0.699995	0.617584
H98	H	1.327811	-0.199995	1.117584
H99	H	1.642394	-1.438166	0.966916
H100	H	2.142394	-0.938166	1.466916
H101	H	1.538329	-1.507404	0.832402
H102	H	2.038329	-1.007404	1.332402
H103	H	1.319441	-1.344120	0.549489
H104	H	1.819441	-0.844120	1.049489
Cl105	Cl	1.522188	-0.688706	1.068256
Cl106	Cl	2.022188	-0.188706	1.568256
Cl107	Cl	1.293934	-1.113326	0.516579
Cl108	Cl	1.793934	-0.613326	1.016579
Cl109	Cl	1.324767	-0.861872	1.300743
Cl110	Cl	1.824767	-0.361872	1.800743
