data_functionalizedCrystal
_audit_creation_method	'MofGen! by Chris Wilmer'
_symmetry_space_group_name_H-M	'P1'
_symmetry_Int_Tables_number	1
_symmetry_cell_setting	triclinic
loop_
_symmetry_equiv_pos_as_xyz
  x,y,z
_cell_length_a	15.297475
_cell_length_b	16.625546
_cell_length_c	15.296720
_cell_angle_alpha	80.357530
_cell_angle_beta	88.382886
_cell_angle_gamma	80.324704
loop_
_atom_site_label
_atom_site_type_symbol
_atom_site_fract_x
_atom_site_fract_y
_atom_site_fract_z
Zn1	Zn	1.253404	-0.627523	0.726565
Zn2	Zn	1.278668	-0.743625	0.580074
Zn3	Zn	1.132282	-0.582227	0.554808
Zn4	Zn	1.106894	-0.735700	0.701203
O5	O	1.192812	-0.672269	0.640662
O6	O	1.379334	-0.665198	0.728320
O7	O	1.280447	-0.706576	0.454149
O8	O	1.148401	-0.475417	0.577632
O9	O	1.397894	-0.750498	0.620694
O10	O	1.237389	-0.508696	0.703821
O11	O	1.172898	-0.587997	0.435586
O12	O	1.006336	-0.580312	0.553039
O13	O	1.105131	-0.736989	0.827141
O14	O	0.987683	-0.693068	0.660595
O15	O	1.212772	-0.657513	0.845774
O16	O	1.255829	-0.855392	0.596102
O17	O	1.129628	-0.849569	0.685095
C18	C	0.965226	-0.630915	0.601324
C19	C	0.867861	-0.613246	0.584516
C20	C	0.554716	-0.798559	0.760796
C21	C	0.646196	-0.815166	0.776586
C22	C	0.701616	-0.764687	0.728570
C23	C	0.665548	-0.697599	0.664761
C24	C	0.574060	-0.680995	0.648965
C25	C	0.720961	-0.647123	0.616739
C26	C	0.684892	-0.580034	0.552930
C27	C	0.593412	-0.563433	0.537137
C28	C	0.537992	-0.613911	0.585153
C29	C	0.812449	-0.663727	0.632535
C30	C	0.831793	-0.546163	0.520704
C31	C	0.740313	-0.529556	0.504914
C32	C	1.192735	-0.881740	0.640611
C33	C	1.192778	-0.971371	0.640633
C34	C	1.192915	-1.299586	0.640750
C35	C	1.192873	-1.208266	0.640720
C36	C	1.192845	-1.135481	0.640691
C37	C	1.192805	-1.044156	0.640661
C38	C	1.421286	-0.713785	0.680155
C39	C	1.518648	-0.731476	0.696984
C40	C	1.153301	-0.701420	0.869128
C41	C	1.136464	-0.713842	0.966487
C42	C	1.192909	-0.461986	0.640737
C43	C	1.192951	-0.372377	0.640769
C44	C	1.232219	-0.643182	0.413094
C45	C	1.249226	-0.630564	0.315765
C46	C	1.313182	-0.583349	1.279731
C47	C	1.329006	-0.571680	1.188259
C48	C	1.280872	-0.607219	1.132811
C49	C	1.216911	-0.654430	1.168845
C50	C	1.201089	-0.666105	1.260327
C51	C	1.168779	-0.689976	1.113407
C52	C	1.104818	-0.737187	1.149441
C53	C	1.088999	-0.748860	1.240914
C54	C	1.137133	-0.713320	1.296362
C55	C	1.184601	-0.678300	1.021925
C56	C	1.072508	-0.761057	1.002521
C57	C	1.056684	-0.772726	1.093994
H58	H	0.509586	-0.839656	0.799878
N59	N	1.120073	-0.725913	1.395025
H60	H	1.072255	-0.761218	1.409442
H61	H	1.100225	-0.670463	1.414232
H62	H	1.381086	-0.533243	1.158927
H63	H	0.710933	-0.474932	0.452960
N64	N	1.365099	-0.545029	1.339532
H65	H	1.345371	-0.559592	1.402949
H66	H	1.354262	-0.482932	1.321214
N67	N	0.554519	-0.491072	0.468315
H68	H	0.510413	-0.451426	0.497439
H69	H	0.523624	-0.511761	0.421117
N70	N	0.800284	-0.782585	0.745602
H71	H	0.832703	-0.793641	0.689287
H72	H	0.814650	-0.832728	0.793338
H73	H	1.004605	-0.811165	1.123345
N74	N	1.020018	-0.799786	1.279777
H75	H	0.972878	-0.764491	1.310729
H76	H	1.049106	-0.848454	1.323828
N77	N	1.020569	-0.799370	0.942723
H78	H	0.977649	-0.831049	0.979429
H79	H	1.062759	-0.838315	0.910905
N80	N	1.297936	-0.594635	1.034152
H81	H	1.345758	-0.559334	1.019737
H82	H	1.241623	-0.566108	1.001802
N83	N	0.851341	-0.736083	0.701353
H84	H	0.824608	-0.728754	0.761215
H85	H	0.917702	-0.738910	0.703999
H86	H	0.675556	-0.869791	0.828537
H87	H	0.876917	-0.505060	0.481604
N88	N	0.439323	-0.596008	0.568108
H89	H	0.409692	-0.638168	0.608208
H90	H	0.427757	-0.599061	0.504165
H91	H	1.236678	-0.639860	0.992596
