data_functionalizedCrystal
_audit_creation_method	'MofGen! by Chris Wilmer'
_symmetry_space_group_name_H-M	'P1'
_symmetry_Int_Tables_number	1
_symmetry_cell_setting	triclinic
loop_
_symmetry_equiv_pos_as_xyz
  x,y,z
_cell_length_a	11.169417
_cell_length_b	29.839131
_cell_length_c	11.169409
_cell_angle_alpha	90.040119
_cell_angle_beta	90.019824
_cell_angle_gamma	90.042299
loop_
_atom_site_label
_atom_site_type_symbol
_atom_site_fract_x
_atom_site_fract_y
_atom_site_fract_z
Zn1	Zn	1.834703	-0.178806	0.678478
Zn2	Zn	2.168037	0.154527	1.011811
Zn3	Zn	2.501370	0.487860	1.345144
Zn4	Zn	1.834484	-0.253948	0.477767
Zn5	Zn	2.167817	0.079385	0.811101
Zn6	Zn	2.501150	0.412719	1.144434
Zn7	Zn	1.633989	-0.178834	0.477812
Zn8	Zn	1.967322	0.154500	0.811145
Zn9	Zn	2.300656	0.487833	1.144479
Zn10	Zn	1.633888	-0.253911	0.678412
Zn11	Zn	1.967221	0.079422	1.011746
Zn12	Zn	2.300554	0.412755	1.345079
O13	O	1.734266	-0.216375	0.578117
O14	O	2.067599	0.116958	0.911451
O15	O	2.400933	0.450292	1.244784
O16	O	2.002624	-0.188778	0.651862
O17	O	2.335957	0.144555	0.985195
O18	O	2.669290	0.477889	1.318528
O19	O	1.807838	-0.244011	0.309823
O20	O	2.141171	0.089323	0.643157
O21	O	2.474505	0.422656	0.976490
O22	O	1.660748	-0.115963	0.504477
O23	O	1.994082	0.217370	0.837810
O24	O	2.327415	0.550704	1.171144
O25	O	2.002462	-0.243984	0.504401
O26	O	2.335796	0.089349	0.837734
O27	O	2.669129	0.422683	1.171067
O28	O	1.808212	-0.115943	0.651905
O29	O	2.141546	0.217390	0.985239
O30	O	2.474879	0.550724	1.318572
O31	O	1.660536	-0.188825	0.309856
O32	O	1.993869	0.144509	0.643190
O33	O	2.327202	0.477842	0.976523
O34	O	1.466026	-0.188789	0.504413
O35	O	1.799359	0.144544	0.837747
O36	O	2.132693	0.477877	1.171080
O37	O	1.660576	-0.243922	0.846371
O38	O	1.993909	0.089412	1.179704
O39	O	2.327242	0.422745	1.513037
O40	O	1.465951	-0.243948	0.651794
O41	O	1.799285	0.089385	0.985127
O42	O	2.132618	0.422718	1.318460
O43	O	1.808114	-0.188742	0.846419
O44	O	2.141447	0.144591	1.179752
O45	O	2.474781	0.477924	1.513086
O46	O	1.807740	-0.316810	0.504337
O47	O	2.141073	0.016523	0.837671
O48	O	2.474407	0.349857	1.171004
O49	O	1.660363	-0.316783	0.651750
O50	O	1.993696	0.016550	0.985083
O51	O	2.327030	0.349883	1.318417
C52	C	1.422441	-0.216368	0.578102
C53	C	1.755775	0.116965	0.911435
C54	C	2.089108	0.450299	1.244769
C55	C	1.289041	-0.216376	0.578124
C56	C	1.622375	0.116957	0.911457
C57	C	1.955708	0.450291	1.244790
C58	C	1.734049	-0.333097	0.578058
C59	C	2.067382	0.000236	0.911391
C60	C	2.400716	0.333569	1.244725
C61	C	1.734066	-0.383032	0.578073
C62	C	2.067400	-0.049699	0.911406
C63	C	2.400733	0.283635	1.244739
C64	C	1.811145	-0.692677	0.501472
C65	C	2.144478	-0.359343	0.834805
C66	C	2.477811	-0.026010	1.168138
C67	C	1.811293	-0.880350	0.501518
C68	C	2.144626	-0.547016	0.834852
C69	C	2.477959	-0.213683	1.168185
O70	O	1.876656	-0.904616	0.436344
O71	O	2.209989	-0.571282	0.769677
O72	O	2.543322	-0.237949	1.103010
N73	N	1.734515	-0.903817	0.578208
N74	N	2.067848	-0.570484	0.911541
N75	N	2.401181	-0.237150	1.244875
C76	C	1.657700	-0.880363	0.654897
C77	C	1.991033	-0.547030	0.988230
C78	C	2.324366	-0.213696	1.321564
O79	O	1.592407	-0.904630	0.720136
O80	O	1.925741	-0.571296	1.053469
O81	O	2.259074	-0.237963	1.386803
C82	C	1.657559	-0.692691	0.654856
C83	C	1.990892	-0.359358	0.988189
C84	C	2.324225	-0.026024	1.321522
C85	C	1.734333	-0.669226	0.578152
C86	C	2.067666	-0.335893	0.911486
C87	C	2.401000	-0.002559	1.244819
C88	C	1.887914	-0.669212	0.424776
C89	C	2.221247	-0.335878	0.758109
C90	C	2.554580	-0.002545	1.091442
C91	C	1.887871	-0.622296	0.424760
C92	C	2.221205	-0.288963	0.758093
C93	C	2.554538	0.044370	1.091427
C94	C	1.811060	-0.598846	0.501441
C95	C	2.144393	-0.265512	0.834774
C96	C	2.477726	0.067821	1.168107
C97	C	1.734291	-0.622311	0.578137
C98	C	2.067624	-0.288977	0.911470
C99	C	2.400957	0.044356	1.244803
C100	C	1.580751	-0.669238	0.731550
C101	C	1.914084	-0.335905	1.064883
C102	C	2.247417	-0.002571	1.398216
C103	C	1.580724	-0.622317	0.731535
C104	C	1.914058	-0.288984	1.064868
C105	C	2.247391	0.044350	1.398201
C106	C	1.657499	-0.598852	0.654831
C107	C	1.990832	-0.265519	0.988165
C108	C	2.324165	0.067815	1.321498
C109	C	1.657437	-0.551945	0.654802
C110	C	1.990770	-0.218611	0.988135
C111	C	2.324103	0.114722	1.321469
N112	N	1.734215	-0.528477	0.578112
N113	N	2.067548	-0.195144	0.911446
N114	N	2.400881	0.138189	1.244779
C115	C	1.811026	-0.551928	0.501432
C116	C	2.144360	-0.218595	0.834765
C117	C	2.477693	0.114739	1.168098
C118	C	1.657778	-0.978894	0.654912
C119	C	1.991111	-0.645560	0.988245
C120	C	2.324444	-0.312227	1.321578
C121	C	1.657811	-1.025811	0.654921
C122	C	1.991145	-0.692478	0.988254
C123	C	2.324478	-0.359145	1.321587
C124	C	1.811406	-1.025795	0.501543
C125	C	2.144739	-0.692461	0.834877
C126	C	2.478073	-0.359128	1.168210
C127	C	1.811366	-0.978876	0.501529
C128	C	2.144699	-0.645543	0.834862
C129	C	2.478032	-0.312209	1.168196
C130	C	1.734556	-0.955426	0.578222
C131	C	2.067889	-0.622093	0.911555
C132	C	2.401222	-0.288760	1.244889
C133	C	1.810931	-0.453402	0.501404
C134	C	2.144264	-0.120069	0.834737
C135	C	2.477597	0.213265	1.168071
C136	C	1.810878	-0.406482	0.501392
C137	C	2.144211	-0.073149	0.834725
C138	C	2.477544	0.260184	1.168059
C139	C	1.657288	-0.406503	0.654773
C140	C	1.990621	-0.073170	0.988107
C141	C	2.323955	0.260163	1.321440
C142	C	1.657336	-0.453419	0.654782
C143	C	1.990669	-0.120085	0.988115
C144	C	2.324002	0.213248	1.321448
C145	C	1.734167	-0.476867	0.578093
C146	C	2.067500	-0.143534	0.911426
C147	C	2.400833	0.189800	1.244760
O148	O	1.592118	-0.527650	0.719952
O149	O	1.925451	-0.194316	1.053285
O150	O	2.258784	0.139017	1.386619
O151	O	1.876328	-0.527653	0.436221
O152	O	2.209661	-0.194320	0.769554
O153	O	2.542994	0.139014	1.102888
C154	C	1.811187	-0.739592	0.501487
C155	C	2.144520	-0.406259	0.834820
C156	C	2.477854	-0.072925	1.168154
C157	C	1.734418	-0.763057	0.578183
C158	C	2.067751	-0.429724	0.911517
C159	C	2.401085	-0.096390	1.244850
C160	C	1.657606	-0.739606	0.654864
C161	C	1.990940	-0.406273	0.988197
C162	C	2.324273	-0.072940	1.321530
C163	C	1.734451	-0.809975	0.578192
C164	C	2.067785	-0.476641	0.911526
C165	C	2.401118	-0.143308	1.244859
C166	C	1.811263	-0.833425	0.501512
C167	C	2.144596	-0.500092	0.834845
C168	C	2.477930	-0.166759	1.168178
C169	C	1.888041	-0.809958	0.424822
C170	C	2.221374	-0.476625	0.758155
C171	C	2.554708	-0.143291	1.091489
C172	C	1.887999	-0.763043	0.424807
C173	C	2.221332	-0.429709	0.758140
C174	C	2.554665	-0.096376	1.091473
C175	C	1.580828	-0.763074	0.731553
C176	C	1.914162	-0.429740	1.064887
C177	C	2.247495	-0.096407	1.398220
C178	C	1.580876	-0.809989	0.731562
C179	C	1.914209	-0.476656	1.064895
C180	C	2.247543	-0.143322	1.398228
C181	C	1.657688	-0.833440	0.654881
C182	C	1.991021	-0.500106	0.988215
C183	C	2.324354	-0.166773	1.321548
C184	C	2.047308	-0.216382	0.578134
C185	C	2.380642	0.116951	0.911467
C186	C	2.713975	0.450285	1.244800
C187	C	2.180708	-0.216385	0.578140
C188	C	2.514041	0.116948	0.911474
C189	C	2.847375	0.450282	1.244807
C190	C	1.734358	-0.216325	0.891160
C191	C	2.067691	0.117008	1.224493
C192	C	2.401025	0.450342	1.557827
C193	C	1.734397	-0.216304	1.024560
C194	C	2.067731	0.117030	1.357893
C195	C	2.401064	0.450363	1.691227
C196	C	1.734516	-0.099196	0.578203
C197	C	2.067849	0.234137	0.911537
C198	C	2.401183	0.567470	1.244870
C199	C	1.734623	-0.049262	0.578240
C200	C	2.067956	0.284071	0.911573
C201	C	2.401289	0.617405	1.244907
C202	C	1.734243	-0.216392	0.266293
C203	C	2.067576	0.116941	0.599626
C204	C	2.400910	0.450275	0.932959
C205	C	1.734436	-0.216287	0.132893
C206	C	2.067770	0.117046	0.466227
C207	C	2.401103	0.450380	0.799560
H208	H	1.873496	-0.472488	0.438960
H209	H	2.206830	-0.139155	0.772293
H210	H	2.540163	0.194179	1.105626
O211	O	1.970696	-0.596990	0.342048
O212	O	2.304029	-0.263656	0.675381
O213	O	2.637362	0.069677	1.008715
H214	H	2.024118	-0.621185	0.288749
H215	H	2.357452	-0.287852	0.622082
H216	H	2.690785	0.045482	0.955415
H217	H	1.873949	-1.044896	0.439107
H218	H	2.207283	-0.711563	0.772440
H219	H	2.540616	-0.378230	1.105774
O220	O	1.497975	-0.737781	0.814256
O221	O	1.831309	-0.404448	1.147590
O222	O	2.164642	-0.071114	1.480923
H223	H	1.436932	-0.716445	0.760471
H224	H	1.770265	-0.383112	1.093804
H225	H	2.103599	-0.049779	1.427137
O226	O	1.574923	-0.953601	0.737626
O227	O	1.908256	-0.620268	1.070959
O228	O	2.241590	-0.286935	1.404292
H229	H	1.513883	-0.932263	0.683845
H230	H	1.847216	-0.598929	1.017179
H231	H	2.180549	-0.265596	1.350512
O232	O	1.497951	-0.694540	0.814288
O233	O	1.831284	-0.361207	1.147621
O234	O	2.164618	-0.027873	1.480955
H235	H	1.444555	-0.670344	0.867611
H236	H	1.777888	-0.337010	1.200944
H237	H	2.111221	-0.003677	1.534277
H238	H	1.873397	-0.387379	0.438927
H239	H	2.206730	-0.054045	0.772260
H240	H	2.540063	0.279288	1.105593
H241	H	1.518178	-0.603226	0.793991
H242	H	1.851511	-0.269893	1.127325
H243	H	2.184844	0.063440	1.460658
H244	H	1.950516	-0.743941	0.362348
H245	H	2.283849	-0.410608	0.695681
H246	H	2.617182	-0.077274	1.029015
H247	H	1.518346	-0.829090	0.794022
H248	H	1.851680	-0.495757	1.127355
H249	H	2.185013	-0.162424	1.460688
O250	O	1.574530	-0.478732	0.737505
O251	O	1.907863	-0.145399	1.070838
O252	O	2.241196	0.187935	1.404172
H253	H	1.521115	-0.454541	0.790826
H254	H	1.854449	-0.121207	1.124160
H255	H	2.187782	0.212126	1.457493
O256	O	1.574448	-0.381206	0.737484
O257	O	1.907781	-0.047873	1.070817
O258	O	2.241115	0.285460	1.404150
H259	H	1.587336	-0.344640	0.724591
H260	H	1.920669	-0.011307	1.057924
H261	H	2.254003	0.322027	1.391257
H262	H	1.950580	-0.829060	0.362382
H263	H	2.283914	-0.495726	0.695716
H264	H	2.617247	-0.162393	1.029049
H265	H	1.873882	-0.959774	0.439071
H266	H	2.207216	-0.626440	0.772405
H267	H	2.540549	-0.293107	1.105738
O268	O	1.970764	-0.694504	0.342066
O269	O	2.304098	-0.361171	0.675400
O270	O	2.637431	-0.027838	1.008733
H271	H	1.950207	-0.685534	0.247856
H272	H	2.283541	-0.352200	0.581189
H273	H	2.616874	-0.018867	0.914522
O274	O	1.574997	-1.051119	0.737641
O275	O	1.908331	-0.717785	1.070975
O276	O	2.241664	-0.384452	1.404308
H277	H	1.521593	-1.026925	0.790965
H278	H	1.854927	-0.693592	1.124298
H279	H	2.188260	-0.360258	1.457631
