data_functionalizedCrystal
_audit_creation_method	'MofGen! by Chris Wilmer'
_symmetry_space_group_name_H-M	'P1'
_symmetry_Int_Tables_number	1
_symmetry_cell_setting	triclinic
loop_
_symmetry_equiv_pos_as_xyz
  x,y,z
_cell_length_a	10.654550
_cell_length_b	10.540539
_cell_length_c	9.730223
_cell_angle_alpha	90.000775
_cell_angle_beta	89.996251
_cell_angle_gamma	84.505197
loop_
_atom_site_label
_atom_site_type_symbol
_atom_site_fract_x
_atom_site_fract_y
_atom_site_fract_z
O1	O	1.667897	0.178295	-0.114396
O2	O	1.302424	0.195282	-0.114373
O3	O	1.493499	0.002079	-0.114383
O4	O	1.476822	0.371498	-0.114386
O5	O	1.493496	0.002084	0.114197
O6	O	1.302422	0.195287	0.114207
O7	O	1.667895	0.178300	0.114184
Zn8	Zn	1.485158	0.186794	0.150487
Zn9	Zn	1.485161	0.186788	-0.150677
O10	O	1.476820	0.371503	0.114194
C11	C	1.255625	0.194038	-0.000080
C12	C	1.116180	0.190306	-0.000072
C13	C	1.036734	0.304061	-0.000093
C14	C	0.905712	0.300547	-0.000116
C15	C	0.933595	0.069513	-0.000104
C16	C	1.064614	0.073028	-0.000071
C17	C	1.020636	0.437446	-0.000106
C18	C	0.889614	0.433932	-0.000129
C19	C	1.492247	-0.045221	-0.000096
C20	C	1.488505	-0.186168	-0.000103
C21	C	1.345134	-0.369543	-0.000607
C22	C	1.348927	-0.222926	-0.000093
C23	C	1.555675	-0.247847	0.130423
C24	C	1.550912	-0.394389	0.130533
C25	C	1.553753	-0.394914	-0.129405
C26	C	1.555039	-0.247933	-0.131131
C27	C	1.714694	0.179545	-0.000112
C28	C	1.854139	0.183276	-0.000129
C29	C	1.478072	0.418803	-0.000096
C30	C	1.481813	0.559750	-0.000098
N31	N	1.485165	0.186798	0.356024
N32	N	1.485164	0.186774	-0.356213
C33	C	1.569795	0.101277	0.427945
C34	C	1.569791	0.101261	0.571828
C35	C	1.400525	0.272299	0.571855
C36	C	1.400523	0.272308	0.427975
C37	C	1.667523	0.002533	0.427931
C38	C	1.667520	0.002518	0.571814
H39	H	0.847900	0.484188	-0.095797
H40	H	1.056307	0.479916	-0.098793
H41	H	1.758718	0.033451	0.383299
H42	H	1.290221	-0.399729	0.092477
C43	C	0.827922	0.488419	0.133172
N44	N	0.781453	0.529467	0.233568
C45	C	1.692522	-0.215271	-0.141784
N46	N	1.796082	-0.190676	-0.149795
H47	H	1.295701	-0.181149	0.093636
H48	H	1.049984	0.489615	0.095560
C49	C	1.797880	0.031998	0.624568
N50	N	1.896051	0.054240	0.664301
C51	C	1.638500	-0.129279	0.375167
N52	N	1.616636	-0.228556	0.335426
C53	C	1.307422	0.366353	0.651015
N54	N	1.237294	0.437197	0.710637
C55	C	1.626240	-0.122039	0.632098
N56	N	1.595140	-0.215850	0.677506
H57	H	1.331600	0.341935	0.369418
H58	H	1.129295	-0.019602	-0.000034
H59	H	1.289998	-0.398125	-0.094209
C60	C	0.876859	-0.059486	-0.000111
N61	N	0.834127	-0.156651	-0.000118
H62	H	1.505891	-0.207059	-0.227690
C63	C	1.277514	-0.165344	-0.126490
N64	N	1.223717	-0.121978	-0.221693
H65	H	1.501268	-0.422569	0.228111
C66	C	1.492721	-0.437515	-0.263057
N67	N	1.446737	-0.469600	-0.363717
C68	C	1.694144	-0.217673	0.136994
N69	N	1.798436	-0.194934	0.141946
H70	H	1.651295	-0.442394	0.136449
C71	C	1.492632	-0.190282	0.261657
N72	N	1.445138	-0.146928	0.360499
H73	H	1.654570	-0.442176	-0.130289
