data_functionalizedCrystal
_audit_creation_method	'MofGen! by Chris Wilmer'
_symmetry_space_group_name_H-M	'P1'
_symmetry_Int_Tables_number	1
_symmetry_cell_setting	triclinic
loop_
_symmetry_equiv_pos_as_xyz
  x,y,z
_cell_length_a	14.908520
_cell_length_b	14.908932
_cell_length_c	18.215399
_cell_angle_alpha	86.726112
_cell_angle_beta	93.269364
_cell_angle_gamma	83.580804
loop_
_atom_site_label
_atom_site_type_symbol
_atom_site_fract_x
_atom_site_fract_y
_atom_site_fract_z
Zn1	Zn	-0.280488	-1.362988	-0.365252
Zn2	Zn	-0.431867	-1.354147	-0.249725
Zn3	Zn	-0.289254	-1.211621	-0.249726
Zn4	Zn	-0.440550	-1.202856	-0.380269
O5	O	-0.360540	-1.282903	-0.311243
O6	O	-0.293267	-1.488479	-0.343642
O7	O	-0.412985	-1.335209	-0.146744
O8	O	-0.161421	-1.239069	-0.258767
O9	O	-0.404484	-1.481984	-0.258764
O10	O	-0.154980	-1.350278	-0.343643
O11	O	-0.308207	-1.230496	-0.146745
O12	O	-0.316626	-1.083795	-0.273329
O13	O	-0.419282	-1.224129	-0.481259
O14	O	-0.427782	-1.077355	-0.369238
O15	O	-0.301685	-1.341778	-0.470225
O16	O	-0.559689	-1.326709	-0.273326
O17	O	-0.566068	-1.215556	-0.369237
C18	C	-0.374098	-1.047732	-0.322914
C19	C	-0.379920	-0.947124	-0.327925
C20	C	-0.446087	-0.801987	-0.384842
C21	C	-0.440617	-0.896517	-0.380140
C22	C	-0.324691	-0.903194	-0.280406
C23	C	-0.330161	-0.808663	-0.285109
C24	C	-0.390860	-0.758063	-0.337329
C25	C	-0.396325	-0.663531	-0.342034
C26	C	-0.280404	-0.670209	-0.242297
C27	C	-0.274934	-0.764740	-0.237595
C28	C	-0.595722	-1.269247	-0.322926
C29	C	-0.696329	-1.263487	-0.327944
C30	C	-0.878670	-1.368528	-0.237572
C31	C	-0.973199	-1.363119	-0.242285
C32	C	-0.979917	-1.247267	-0.342085
C33	C	-0.885388	-1.252676	-0.337372
C34	C	-0.834768	-1.313307	-0.285113
C35	C	-0.740237	-1.318710	-0.280398
C36	C	-0.746957	-1.202863	-0.380201
C37	C	-0.841486	-1.197455	-0.384913
C38	C	-0.124438	-1.296637	-0.299530
C39	C	-0.023826	-1.302490	-0.294539
C40	C	-0.360474	-1.282962	-0.503190
C41	C	-0.360446	-1.282987	-0.584987
C42	C	-0.346921	-0.518993	-0.299523
C43	C	-0.341096	-0.619601	-0.294516
C44	C	-0.299158	-1.344271	-0.767433
C45	C	-0.299131	-1.344283	-0.844290
C46	C	-0.421590	-1.221775	-0.855768
C47	C	-0.421612	-1.221759	-0.778913
C48	C	-0.360397	-1.283012	-0.734747
C49	C	-0.360348	-1.283040	-0.888459
C50	C	-0.360320	-1.283053	-0.971791
C51	C	-0.360425	-1.282998	-0.651410
C52	C	-0.360537	-1.282900	-0.120037
C53	C	-0.360300	-1.283066	-0.038220
H54	H	-0.275280	-0.944408	-0.237886
C55	C	-0.463099	-0.607872	-0.399474
N56	N	-0.513398	-0.565952	-0.442737
C57	C	-1.021488	-1.423863	-0.189983
N58	N	-1.057859	-1.469618	-0.150587
H59	H	-0.225517	-0.805951	-0.195077
C60	C	-0.231765	-1.411674	-0.880241
N61	N	-0.181022	-1.462436	-0.907319
C62	C	-0.219652	-0.621886	-0.190028
N63	N	-0.173893	-0.585487	-0.150661
C64	C	-1.035616	-1.180577	-0.399563
N65	N	-1.077569	-1.130342	-0.442855
H66	H	-0.882714	-1.148093	-0.427462
C67	C	-0.488981	-1.154364	-0.742956
N68	N	-0.539719	-1.103602	-0.715873
C69	C	-0.501370	-0.944830	-0.432410
N70	N	-0.547132	-0.981219	-0.471782
C71	C	-0.512851	-0.746325	-0.442288
N72	N	-0.563139	-0.704402	-0.485557
C73	C	-0.698657	-1.142116	-0.432499
N74	N	-0.662277	-1.096362	-0.471889
C75	C	-0.231813	-1.411643	-0.718854
N76	N	-0.181083	-1.462386	-0.682265
H77	H	-0.471431	-1.171907	-0.891737
C78	C	-0.684556	-1.385405	-0.222913
N79	N	-0.642619	-1.435644	-0.179615
H80	H	-0.837454	-1.417890	-0.195016
