data_functionalizedCrystal
_audit_creation_method	'MofGen! by Chris Wilmer'
_symmetry_space_group_name_H-M	'P1'
_symmetry_Int_Tables_number	1
_symmetry_cell_setting	triclinic
loop_
_symmetry_equiv_pos_as_xyz
  x,y,z
_cell_length_a	16.974848
_cell_length_b	16.974813
_cell_length_c	15.455313
_cell_angle_alpha	89.012317
_cell_angle_beta	96.329152
_cell_angle_gamma	96.836389
loop_
_atom_site_label
_atom_site_type_symbol
_atom_site_fract_x
_atom_site_fract_y
_atom_site_fract_z
O1	O	-1.056385	0.093495	-0.152858
O2	O	-0.825432	0.107052	-0.137596
O3	O	-0.946959	-0.014470	-0.137593
O4	O	-0.934858	0.215018	-0.152861
O5	O	-0.940010	-0.007549	0.006671
O6	O	-0.818482	0.113973	0.006668
O7	O	-1.049436	0.100416	-0.008594
Cu8	Cu	-0.933324	0.107826	0.012209
Cu9	Cu	-0.941543	0.099642	-0.158400
O10	O	-0.927908	0.221938	-0.008597
C11	C	-0.792398	0.110124	-0.063362
C12	C	-0.704322	0.108955	-0.057097
C13	C	-0.208137	0.102811	-0.013392
C14	C	-0.290894	0.103908	-0.019280
C15	C	-0.336061	0.100679	-0.100864
C16	C	-0.298467	0.096359	-0.176564
C17	C	-0.215711	0.095267	-0.170676
C18	C	-0.583972	0.103544	-0.126909
C19	C	-0.666734	0.104634	-0.132792
C20	C	-0.659154	0.112185	0.024493
C21	C	-0.576398	0.111088	0.030375
C22	C	-0.538810	0.106773	-0.045326
N23	N	-0.420653	0.101798	-0.106885
N24	N	-0.454219	0.105659	-0.039305
C25	C	-0.942895	-0.040367	-0.063360
C26	C	-0.941129	-0.127841	-0.057098
C27	C	-0.944090	-0.172705	-0.132794
C28	C	-0.942425	-0.254896	-0.126908
C29	C	-0.937806	-0.292223	-0.045325
C30	C	-0.934843	-0.247353	0.030377
C31	C	-0.936502	-0.165162	0.024490
C32	C	-0.932434	-0.537630	-0.019285
C33	C	-0.930778	-0.619827	-0.013403
C34	C	-0.938359	-0.627365	-0.170689
C35	C	-0.940022	-0.545173	-0.176569
C36	C	-0.937055	-0.500310	-0.100867
N37	N	-0.936108	-0.376235	-0.039306
N38	N	-0.938748	-0.416298	-0.106887
C39	C	-0.082470	0.097339	-0.082827
C40	C	-0.170548	0.098489	-0.089087
C41	C	-0.931973	0.247835	-0.082832
C42	C	-0.933739	0.335309	-0.089099
N43	N	-0.927550	0.113582	0.132206
N44	N	-0.947324	0.093880	-0.278396
C45	C	-0.979197	0.061974	0.177599
C46	C	-0.974837	0.066335	0.268407
C47	C	-0.918833	0.122307	0.313819
C48	C	-0.867181	0.173918	0.268420
C49	C	-0.871537	0.169553	0.177615
C50	C	-0.900028	0.141125	0.585399
C51	C	-0.895677	0.145488	0.676211
C52	C	-1.003333	0.037903	0.676191
C53	C	-1.007688	0.033547	0.585383
C54	C	-0.956032	0.085154	0.539993
N55	N	-0.914377	0.126767	0.406639
N56	N	-0.960485	0.080690	0.447175
H57	H	-0.539629	0.113701	0.096810
N58	N	-1.039587	0.001596	0.128613
H59	H	-1.076591	0.029758	0.086344
H60	H	-1.071587	-0.030427	0.171203
N61	N	-0.933319	-0.116767	0.106130
H62	H	-0.884703	-0.075896	0.110178
H63	H	-0.930175	-0.152937	0.158660
N64	N	-1.030571	0.010689	0.317351
H65	H	-1.022093	-0.045973	0.306133
H66	H	-1.087617	0.018890	0.296911
N67	N	-0.331435	0.108554	0.062364
H68	H	-0.390714	0.108758	0.046257
H69	H	-0.309001	0.158858	0.094753
H70	H	-1.045387	-0.004114	0.713157
N71	N	-1.068093	-0.026823	0.536404
H72	H	-1.100150	-0.058856	0.578940
H73	H	-1.039450	-0.063356	0.503316
N74	N	-0.929246	-0.489249	0.062360
H75	H	-0.878170	-0.495304	0.100755
H76	H	-0.976475	-0.508536	0.094703
H77	H	-0.829480	0.211577	0.140657
N78	N	-0.715450	0.101156	-0.220791
H79	H	-0.773579	0.102498	-0.213031
H80	H	-0.708952	0.050469	-0.251115
N81	N	-0.941560	-0.675752	-0.252335
H82	H	-0.891907	-0.703419	-0.250420
H83	H	-0.944767	-0.639583	-0.304863
H84	H	-0.931077	-0.277750	0.096804
N85	N	-0.699694	0.116844	0.106137
H86	H	-0.758973	0.117047	0.090031
H87	H	-0.677257	0.167153	0.138513
H88	H	-0.857970	0.183148	0.548449
H89	H	-0.944840	-0.291422	-0.188548
N90	N	-0.543438	0.098879	-0.208553
H91	H	-0.584612	0.096992	-0.261126
H92	H	-0.515584	0.049410	-0.206540
H93	H	-0.850070	0.191071	0.713182
H94	H	-0.821577	0.219489	0.305401
N95	N	-0.347178	0.092879	-0.264560
H96	H	-0.405309	0.094223	-0.256806
H97	H	-0.340680	0.042190	-0.294880
H98	H	-0.185107	0.091750	-0.232315
N99	N	-0.159426	0.106287	0.074604
H100	H	-0.195870	0.108643	0.121692
H101	H	-0.118973	0.155138	0.077701
N102	N	-0.949079	-0.132450	-0.220789
H103	H	-0.950700	-0.173346	-0.267848
H104	H	-0.900797	-0.091909	-0.223673
H105	H	-0.943784	-0.514788	-0.243003
H106	H	-0.927012	-0.650215	0.053035
