data_functionalizedCrystal
_audit_creation_method	'MofGen! by Chris Wilmer'
_symmetry_space_group_name_H-M	'P1'
_symmetry_Int_Tables_number	1
_symmetry_cell_setting	triclinic
loop_
_symmetry_equiv_pos_as_xyz
  x,y,z
_cell_length_a	18.215407
_cell_length_b	19.077068
_cell_length_c	18.215399
_cell_angle_alpha	92.268164
_cell_angle_beta	89.980167
_cell_angle_gamma	92.327501
loop_
_atom_site_label
_atom_site_type_symbol
_atom_site_fract_x
_atom_site_fract_y
_atom_site_fract_z
Zn1	Zn	1.113288	-0.280200	-0.427869
Zn2	Zn	1.108246	-0.397902	-0.309739
Zn3	Zn	0.990220	-0.280223	-0.304817
Zn4	Zn	0.985238	-0.397863	-0.432763
O5	O	1.049248	-0.339047	-0.368797
O6	O	1.215603	-0.295821	-0.412210
O7	O	1.092565	-0.382318	-0.206103
O8	O	1.010740	-0.181729	-0.317032
O9	O	1.211899	-0.382295	-0.325421
O10	O	1.101157	-0.181712	-0.407437
O11	O	1.005851	-0.295860	-0.202487
O12	O	0.886575	-0.295822	-0.321777
O13	O	1.002249	-0.382229	-0.535097
O14	O	0.882915	-0.382251	-0.415778
O15	O	1.096327	-0.295783	-0.531501
O16	O	1.087734	-0.496388	-0.330167
O17	O	0.997361	-0.496359	-0.420551
C18	C	0.858042	-0.339035	-0.368775
C19	C	0.776243	-0.339047	-0.368784
C20	C	0.586159	-0.384121	-0.417674
C21	C	0.509301	-0.384124	-0.417684
C22	C	0.513088	-0.293986	-0.319936
C23	C	0.589945	-0.293980	-0.319931
C24	C	0.626479	-0.339052	-0.368799
C25	C	0.472763	-0.339060	-0.368814
C26	C	0.389429	-0.339062	-0.368823
C27	C	0.709818	-0.339050	-0.368791
C28	C	1.041480	-0.521911	-0.376440
C29	C	1.038224	-0.600141	-0.379735
C30	C	1.083783	-0.636886	-0.334263
C31	C	1.080725	-0.710391	-0.337366
C32	C	1.032104	-0.747151	-0.385937
C33	C	0.986542	-0.710401	-0.431414
C34	C	0.989604	-0.636897	-0.428314
C35	C	1.017899	-0.966985	-0.400254
C36	C	1.014839	-1.040495	-0.403348
C37	C	1.109023	-1.040479	-0.309301
C38	C	1.112078	-0.966974	-0.306202
C39	C	1.066520	-0.930231	-0.351682
N40	N	1.028975	-0.822285	-0.389109
N41	N	1.069652	-0.855098	-0.348514
C42	C	1.241200	-0.339060	-0.368819
C43	C	1.322999	-0.339065	-0.368828
C44	C	1.049295	-0.338999	-0.560748
C45	C	1.049315	-0.338978	-0.642546
C46	C	1.057067	-0.155469	-0.361140
C47	C	1.060398	-0.077239	-0.357877
C48	C	1.098320	-0.293923	-0.828867
C49	C	1.098329	-0.293903	-0.905725
C50	C	1.000366	-0.383924	-0.909458
C51	C	1.000354	-0.383940	-0.832601
C52	C	1.049335	-0.338941	-0.792308
C53	C	1.049357	-0.338904	-0.946023
C54	C	1.049367	-0.338882	-1.029355
C55	C	1.049324	-0.338962	-0.708970
C56	C	1.049246	-0.339045	-0.177591
C57	C	1.049377	-0.338867	-0.095785
H58	H	0.476476	-0.420822	-0.457484
H59	H	1.138217	-0.257244	-0.935488
C60	C	0.672216	-0.394010	-0.517055
C61	C	0.626321	-0.433657	-0.471395
H62	H	0.697011	-0.424592	-0.550218
H63	H	0.643544	-0.363386	-0.543974
H64	H	0.707227	-0.367172	-0.487936
H65	H	0.591306	-0.460491	-0.500513
H66	H	0.654995	-0.464293	-0.444473
H67	H	1.146116	-1.070403	-0.272275
H68	H	1.138201	-0.257280	-0.796062
H69	H	0.952506	-0.606981	-0.465343
C70	C	0.922059	-1.033131	-0.496019
C71	C	0.961397	-1.080903	-0.456750
H72	H	0.889072	-1.058079	-0.528987
H73	H	0.895114	-1.004507	-0.462728
H74	H	0.955314	-1.004416	-0.522983
H75	H	0.928142	-1.109615	-0.429781
H76	H	0.988343	-1.109539	-0.490045
H77	H	0.960490	-0.420562	-0.942274
C78	C	0.903526	-0.472931	-0.844005
C79	C	0.946508	-0.433431	-0.792410
H80	H	0.870288	-0.503484	-0.819191
H81	H	0.876684	-0.442261	-0.872697
H82	H	0.934456	-0.499847	-0.875112
H83	H	0.915577	-0.406511	-0.761306
H84	H	0.973351	-0.464105	-0.763705
C85	C	1.120646	-0.614315	-0.208726
C86	C	1.137230	-0.596483	-0.280870
H87	H	1.153647	-0.589376	-0.175765
H88	H	1.071712	-0.602311	-0.197409
H89	H	1.125344	-0.663352	-0.204076
H90	H	1.132527	-0.547447	-0.285522
H91	H	1.186176	-0.608482	-0.292191
H92	H	0.483333	-0.257291	-0.280148
H93	H	0.622775	-0.257275	-0.280130
H94	H	1.117824	-0.740305	-0.300338
C95	C	0.980773	-0.854323	-0.437272
C96	C	0.967819	-0.926603	-0.450240
H97	H	0.949856	-0.829391	-0.468137
H98	H	0.970529	-0.842318	-0.387317
H99	H	1.030719	-0.842238	-0.447581
H100	H	0.917874	-0.938689	-0.439926
H101	H	0.978057	-0.938612	-0.500208
C102	C	1.204883	-0.974345	-0.213566
C103	C	1.165534	-0.926570	-0.252820
H104	H	1.237888	-0.949399	-0.180614
H105	H	1.171642	-1.003054	-0.186592
H106	H	1.231816	-1.002974	-0.246873
H107	H	1.138597	-0.897943	-0.219513
H108	H	1.198780	-0.897849	-0.279795
C109	C	0.893759	-0.703028	-0.524070
C110	C	0.933098	-0.750805	-0.484809
H111	H	0.860768	-0.727972	-0.557037
H112	H	0.866820	-0.674405	-0.490774
H113	H	0.927013	-0.674313	-0.551035
H114	H	0.899845	-0.779517	-0.457839
H115	H	0.960040	-0.779441	-0.518109
