data_functionalizedCrystal
_audit_creation_method	'MofGen! by Chris Wilmer'
_symmetry_space_group_name_H-M	'P1'
_symmetry_Int_Tables_number	1
_symmetry_cell_setting	triclinic
loop_
_symmetry_equiv_pos_as_xyz
  x,y,z
_cell_length_a	17.077404
_cell_length_b	18.215405
_cell_length_c	17.077396
_cell_angle_alpha	90.028580
_cell_angle_beta	90.019501
_cell_angle_gamma	90.022957
loop_
_atom_site_label
_atom_site_type_symbol
_atom_site_fract_x
_atom_site_fract_y
_atom_site_fract_z
Zn1	Zn	1.200055	-0.292980	0.443842
Zn2	Zn	1.533389	0.040353	0.777176
Zn3	Zn	1.866722	0.373687	1.110509
Zn4	Zn	1.199963	-0.416053	0.312576
Zn5	Zn	1.533296	-0.082720	0.645909
Zn6	Zn	1.866630	0.250613	0.979243
Zn7	Zn	1.068787	-0.293006	0.312590
Zn8	Zn	1.402121	0.040328	0.645923
Zn9	Zn	1.735454	0.373661	0.979257
Zn10	Zn	1.068756	-0.416010	0.443800
Zn11	Zn	1.402089	-0.082676	0.777133
Zn12	Zn	1.735422	0.250657	1.110466
O13	O	1.134390	-0.354512	0.378202
O14	O	1.467724	-0.021179	0.711535
O15	O	1.801057	0.312155	1.044869
O16	O	1.309890	-0.309313	0.426441
O17	O	1.643223	0.024020	0.759775
O18	O	1.976557	0.357353	1.093108
O19	O	1.182537	-0.399760	0.202731
O20	O	1.515870	-0.066427	0.536064
O21	O	1.849203	0.266907	0.869398
O22	O	1.086252	-0.190018	0.330025
O23	O	1.419586	0.143315	0.663358
O24	O	1.752919	0.476649	0.996691
O25	O	1.309822	-0.399735	0.330001
O26	O	1.643155	-0.066402	0.663334
O27	O	1.976489	0.266932	0.996667
O28	O	1.182694	-0.189999	0.426455
O29	O	1.516028	0.143334	0.759788
O30	O	1.849361	0.476668	1.093122
O31	O	1.086163	-0.309357	0.202741
O32	O	1.419496	0.023976	0.536075
O33	O	1.752829	0.357309	0.869408
O34	O	0.958936	-0.309315	0.329983
O35	O	1.292270	0.024018	0.663317
O36	O	1.625603	0.357352	0.996650
O37	O	1.086198	-0.399660	0.553652
O38	O	1.419532	-0.066327	0.886985
O39	O	1.752865	0.267006	1.220319
O40	O	0.958913	-0.399685	0.426382
O41	O	1.292246	-0.066352	0.759716
O42	O	1.625580	0.266981	1.093049
O43	O	1.182664	-0.309271	0.553683
O44	O	1.515997	0.024062	0.887017
O45	O	1.849330	0.357396	1.220350
O46	O	1.182506	-0.519032	0.329959
O47	O	1.515839	-0.185698	0.663293
O48	O	1.849173	0.147635	0.996626
O49	O	1.086109	-0.519000	0.426369
O50	O	1.419442	-0.185666	0.759702
O51	O	1.752775	0.147667	1.093035
C52	C	0.930442	-0.354499	0.378180
C53	C	1.263776	-0.021165	0.711514
C54	C	1.597109	0.312168	1.044847
C55	C	0.843193	-0.354511	0.378190
C56	C	1.176526	-0.021177	0.711523
C57	C	1.509859	0.312156	1.044856
C58	C	0.802211	-0.401638	0.428304
C59	C	1.135544	-0.068304	0.761637
C60	C	1.468878	0.265029	1.094971
C61	C	0.720230	-0.401639	0.428317
C62	C	1.053564	-0.068306	0.761650
C63	C	1.386897	0.265027	1.094983
C64	C	0.679233	-0.354517	0.378210
C65	C	1.012567	-0.021184	0.711544
C66	C	1.345900	0.312150	1.044877
C67	C	0.720221	-0.307385	0.328094
C68	C	1.053554	0.025948	0.661427
C69	C	1.386887	0.359282	0.994760
C70	C	0.802200	-0.307380	0.328086
C71	C	1.135533	0.025953	0.661419
C72	C	1.468866	0.359286	0.994752
C73	C	0.549351	-0.307400	0.328112
C74	C	0.882684	0.025934	0.661446
C75	C	1.216017	0.359267	0.994779
C76	C	0.467366	-0.307405	0.328119
C77	C	0.800699	0.025928	0.661453
C78	C	1.134033	0.359262	0.994786
C79	C	0.467381	-0.401659	0.428344
C80	C	0.800715	-0.068325	0.761677
C81	C	1.134048	0.265008	1.095010
C82	C	0.549360	-0.401654	0.428336
C83	C	0.882694	-0.068320	0.761669
C84	C	1.216027	0.265013	1.095002
C85	C	0.590342	-0.354522	0.378218
C86	C	0.923676	-0.021189	0.711551
C87	C	1.257009	0.312144	1.044884
C88	C	1.134315	-0.545718	0.378175
C89	C	1.467648	-0.212385	0.711508
C90	C	1.800982	0.120948	1.044842
C91	C	1.134355	-0.627517	0.378190
C92	C	1.467688	-0.294184	0.711523
C93	C	1.801021	0.039149	1.044856
C94	C	1.184596	-0.815640	0.428469
C95	C	1.517929	-0.482307	0.761802
C96	C	1.851263	-0.148974	1.095135
C97	C	1.184625	-0.892499	0.428484
C98	C	1.517958	-0.559166	0.761817
C99	C	1.851291	-0.225832	1.095150
C100	C	1.084282	-0.892632	0.327984
C101	C	1.417615	-0.559299	0.661317
C102	C	1.750948	-0.225965	0.994650
C103	C	1.084250	-0.815775	0.327974
C104	C	1.417583	-0.482441	0.661307
C105	C	1.750916	-0.149108	0.994640
C106	C	1.134411	-0.777281	0.378215
C107	C	1.467745	-0.443947	0.711548
C108	C	1.801078	-0.110614	1.044882
C109	C	1.134472	-0.930997	0.378240
C110	C	1.467805	-0.597663	0.711573
C111	C	1.801138	-0.264330	1.044906
C112	C	1.134502	-1.014330	0.378255
C113	C	1.467836	-0.680997	0.711589
C114	C	1.801169	-0.347664	1.044922
C115	C	1.134380	-0.693942	0.378201
C116	C	1.467713	-0.360608	0.711534
C117	C	1.801047	-0.027275	1.044867
C118	C	1.339135	-0.354526	0.378224
C119	C	1.672468	-0.021193	0.711557
C120	C	2.005801	0.312141	1.044891
C121	C	1.426384	-0.354532	0.378234
C122	C	1.759718	-0.021199	0.711567
C123	C	2.093051	0.312135	1.044900
C124	C	1.134438	-0.354458	0.582946
C125	C	1.467771	-0.021125	0.916280
C126	C	1.801104	0.312209	1.249613
C127	C	1.134458	-0.354435	0.670196
C128	C	1.467791	-0.021101	1.003529
C129	C	1.801125	0.312232	1.336863
C130	C	1.134487	-0.162559	0.378246
C131	C	1.467821	0.170774	0.711580
C132	C	1.801154	0.504107	1.044913
C133	C	1.134529	-0.080760	0.378265
C134	C	1.467862	0.252573	0.711598
C135	C	1.801195	0.585906	1.044932
C136	C	1.134388	-0.354513	0.174254
C137	C	1.467722	-0.021180	0.507587
C138	C	1.801055	0.312154	0.840921
C139	C	1.134520	-0.354329	0.087005
C140	C	1.467853	-0.020995	0.420338
C141	C	1.801187	0.312338	0.753671
C142	C	1.184689	-0.307365	0.711204
C143	C	1.518023	0.025968	1.044537
C144	C	1.851356	0.359302	1.377871
C145	C	1.184699	-0.307341	0.793184
C146	C	1.518032	0.025993	1.126518
C147	C	1.851366	0.359326	1.459851
C148	C	1.134480	-0.354390	0.834156
C149	C	1.467814	-0.021057	1.167489
C150	C	1.801147	0.312277	1.500822
C151	C	1.084243	-0.401462	0.793142
C152	C	1.417577	-0.068129	1.126476
C153	C	1.750910	0.265205	1.459809
C154	C	1.084231	-0.401482	0.711163
C155	C	1.417564	-0.068149	1.044497
C156	C	1.750897	0.265185	1.377830
C157	C	1.084275	-0.401418	0.964012
C158	C	1.417608	-0.068084	1.297346
C159	C	1.750942	0.265249	1.630679
C160	C	1.084289	-0.401399	1.045997
C161	C	1.417622	-0.068065	1.379330
C162	C	1.750955	0.265268	1.712664
C163	C	1.184743	-0.307276	1.046034
C164	C	1.518077	0.026057	1.379367
C165	C	1.851410	0.359391	1.712700
C166	C	1.184730	-0.307296	0.964055
C167	C	1.518064	0.026037	1.297388
C168	C	1.851397	0.359370	1.630721
C169	C	1.134494	-0.354369	0.923047
C170	C	1.467828	-0.021036	1.256380
C171	C	1.801161	0.312297	1.589713
H172	H	0.433988	-0.269025	0.287327
H173	H	0.767322	0.064308	0.620661
H174	H	1.100655	0.397641	0.953994
H175	H	1.225604	-0.269013	0.826569
H176	H	1.558938	0.064320	1.159903
H177	H	1.892271	0.397653	1.493236
N178	N	0.593555	-0.256563	0.274062
N179	N	0.926889	0.076771	0.607395
N180	N	1.260222	0.410104	0.940728
H181	H	0.555146	-0.226713	0.242318
H182	H	0.888479	0.106620	0.575652
H183	H	1.221812	0.439954	0.908985
H184	H	0.627542	-0.286475	0.237676
H185	H	0.960876	0.046859	0.571009
H186	H	1.294209	0.380192	0.904343
H187	H	0.686834	-0.269014	0.287299
H188	H	1.020168	0.064319	0.620633
H189	H	1.353501	0.397652	0.953966
H190	H	1.225646	-0.268946	1.079426
H191	H	1.558979	0.064387	1.412759
H192	H	1.892313	0.397720	1.746093
N193	N	1.238859	-0.256623	0.667016
N194	N	1.572193	0.076710	1.000350
N195	N	1.905526	0.410044	1.333683
H196	H	1.270681	-0.226800	0.705437
H197	H	1.604014	0.106533	1.038771
H198	H	1.937348	0.439866	1.372104
H199	H	1.206920	-0.222572	0.633004
H200	H	1.540253	0.110762	0.966337
H201	H	1.873587	0.444095	1.299671
H202	H	1.225627	-0.268989	0.930698
H203	H	1.558961	0.064345	1.264031
H204	H	1.892294	0.397678	1.597365
N205	N	0.676032	-0.452479	0.482361
N206	N	1.009365	-0.119146	0.815694
N207	N	1.342699	0.214187	1.149027
H208	H	0.642046	-0.422626	0.518806
H209	H	0.975380	-0.089292	0.852139
H210	H	1.308713	0.244041	1.185473
H211	H	0.714496	-0.482322	0.514041
H212	H	1.047830	-0.148989	0.847374
H213	H	1.381163	0.184345	1.180707
H214	H	1.043355	-0.439738	0.930626
H215	H	1.376688	-0.106405	1.263960
H216	H	1.710022	0.226929	1.597293
H217	H	1.043352	-0.439768	0.826508
H218	H	1.376685	-0.106434	1.159841
H219	H	1.710018	0.226899	1.493174
H220	H	1.043395	-0.439709	1.079354
H221	H	1.376728	-0.106375	1.412687
H222	H	1.710061	0.226958	1.746020
H223	H	1.043319	-0.439804	0.677776
H224	H	1.376652	-0.106470	1.011109
H225	H	1.709986	0.226863	1.344442
H226	H	0.835566	-0.269001	0.287281
H227	H	1.168899	0.064332	0.620615
H228	H	1.502233	0.397666	0.953948
H229	H	1.225488	-0.923728	0.469407
H230	H	1.558821	-0.590395	0.802740
H231	H	1.892155	-0.257061	1.136074
H232	H	1.225440	-0.784300	0.469380
H233	H	1.558773	-0.450967	0.802713
H234	H	1.892106	-0.117634	1.136046
H235	H	0.582738	-0.440029	0.469132
H236	H	0.916072	-0.106696	0.802466
H237	H	1.249405	0.226638	1.135799
N238	N	0.846427	-0.452468	0.482343
N239	N	1.179760	-0.119135	0.815676
N240	N	1.513093	0.214199	1.149009
H241	H	0.808022	-0.482322	0.514092
H242	H	1.141355	-0.148988	0.847425
H243	H	1.474689	0.184345	1.180759
H244	H	0.880468	-0.422554	0.518723
H245	H	1.213802	-0.089221	0.852056
H246	H	1.547135	0.244112	1.185390
N247	N	1.030189	-0.934150	0.273789
N248	N	1.363522	-0.600817	0.607123
N249	N	1.696855	-0.267484	0.940456
H250	H	1.037827	-0.988660	0.281416
H251	H	1.371160	-0.655327	0.614750
H252	H	1.704493	-0.321994	0.948083
H253	H	1.042442	-0.920735	0.217740
H254	H	1.375776	-0.587401	0.551073
H255	H	1.709109	-0.254068	0.884407
H256	H	1.043380	-0.784540	0.287051
H257	H	1.376713	-0.451207	0.620384
H258	H	1.710046	-0.117873	0.953717
H259	H	0.434010	-0.440032	0.469154
H260	H	0.767344	-0.106699	0.802487
H261	H	1.100677	0.226634	1.135820
