data_functionalizedCrystal
_audit_creation_method	'MofGen! by Chris Wilmer'
_symmetry_space_group_name_H-M	'P1'
_symmetry_Int_Tables_number	1
_symmetry_cell_setting	triclinic
loop_
_symmetry_equiv_pos_as_xyz
  x,y,z
_cell_length_a	14.519709
_cell_length_b	10.868271
_cell_length_c	14.519709
_cell_angle_alpha	90.001060
_cell_angle_beta	83.680144
_cell_angle_gamma	90.001299
loop_
_atom_site_label
_atom_site_type_symbol
_atom_site_fract_x
_atom_site_fract_y
_atom_site_fract_z
O1	O	1.223867	-0.102145	0.120892
O2	O	1.723867	0.397855	0.620892
O3	O	0.955390	-0.102180	0.135128
O4	O	1.455390	0.397820	0.635128
O5	O	1.096747	-0.102173	-0.006228
O6	O	1.596747	0.397827	0.493772
O7	O	1.082510	-0.102152	0.262248
O8	O	1.582510	0.397848	0.762248
O9	O	1.096735	0.102472	-0.006234
O10	O	1.596735	0.602472	0.493766
O11	O	0.955379	0.102464	0.135123
O12	O	1.455379	0.602464	0.635123
O13	O	1.223856	0.102500	0.120886
O14	O	1.723856	0.602500	0.620886
Zn15	Zn	1.089615	0.134974	0.128004
Zn16	Zn	1.589615	0.634974	0.628004
Zn17	Zn	1.089631	-0.134654	0.128011
Zn18	Zn	1.589631	0.365346	0.628011
O19	O	1.082499	0.102493	0.262243
O20	O	1.582499	0.602493	0.762243
C21	C	0.921025	0.000137	0.134462
C22	C	1.421025	0.500137	0.634462
C23	C	0.818643	0.000123	0.132474
C24	C	1.318643	0.500123	0.632474
N25	N	1.089612	0.318988	0.127998
N26	N	1.589612	0.818988	0.627998
N27	N	1.089642	-0.318668	0.128009
N28	N	1.589642	0.181332	0.628009
C29	C	0.443748	0.000178	0.125154
C30	C	0.943748	0.500178	0.625154
C31	C	0.548056	0.000162	0.127187
C32	C	1.048056	0.500162	0.627187
C33	C	0.631192	0.000149	0.128814
C34	C	1.131192	0.500149	0.628814
C35	C	0.735507	0.000136	0.130847
C36	C	1.235507	0.500136	0.630847
C37	C	1.258221	0.000180	0.121553
C38	C	1.758221	0.500180	0.621553
C39	C	1.360602	0.000186	0.123541
C40	C	1.860602	0.500186	0.623541
C41	C	1.096078	0.000144	-0.040591
C42	C	1.596078	0.500144	0.459409
C43	C	1.094090	0.000127	-0.142972
C44	C	1.594090	0.500127	0.357028
C45	C	1.089626	0.569994	0.128009
C46	C	1.589626	1.069994	0.628009
C47	C	1.089615	0.430317	0.128006
C48	C	1.589615	0.930317	0.628006
C49	C	1.083168	0.000173	0.296605
C50	C	1.583168	0.500173	0.796605
C51	C	1.085156	0.000182	0.398987
C52	C	1.585156	0.500182	0.898987
C53	C	1.092476	0.000134	0.773883
C54	C	1.592476	0.500134	1.273883
C55	C	1.090443	0.000147	0.669575
C56	C	1.590443	0.500147	1.169575
C57	C	1.088816	0.000159	0.586438
C58	C	1.588816	0.500159	1.086438
C59	C	1.086783	0.000170	0.482123
C60	C	1.586783	0.500170	0.982123
