data_functionalizedCrystal
_audit_creation_method	'MofGen! by Chris Wilmer'
_symmetry_space_group_name_H-M	'P1'
_symmetry_Int_Tables_number	1
_symmetry_cell_setting	triclinic
loop_
_symmetry_equiv_pos_as_xyz
  x,y,z
_cell_length_a	14.519709
_cell_length_b	15.500227
_cell_length_c	14.519731
_cell_angle_alpha	92.832636
_cell_angle_beta	83.684499
_cell_angle_gamma	87.156413
loop_
_atom_site_label
_atom_site_type_symbol
_atom_site_fract_x
_atom_site_fract_y
_atom_site_fract_z
O1	O	-1.228152	0.071822	-0.116623
O2	O	-0.728152	0.571822	0.383377
O3	O	-0.959678	0.071851	-0.130858
O4	O	-0.459678	0.571851	0.369142
O5	O	-1.101022	0.071828	0.010496
O6	O	-0.601022	0.571828	0.510496
O7	O	-1.086807	0.071846	-0.257977
O8	O	-0.586807	0.571846	0.242023
O9	O	-1.092445	-0.072059	0.001952
O10	O	-0.592445	0.427941	0.501952
O11	O	-0.951101	-0.072036	-0.139402
O12	O	-0.451101	0.427964	0.360598
O13	O	-1.219575	-0.072065	-0.125167
O14	O	-0.719575	0.427935	0.374833
Cu15	Cu	-1.084555	-0.085188	-0.133064
Cu16	Cu	-0.584555	0.414812	0.366936
Cu17	Cu	-1.094698	0.084975	-0.122960
Cu18	Cu	-0.594698	0.584975	0.377040
O19	O	-1.078230	-0.072042	-0.266521
O20	O	-0.578230	0.427958	0.233479
C21	C	-0.921030	-0.000089	-0.134466
C22	C	-0.421030	0.499911	0.365534
C23	C	-0.818649	-0.000078	-0.132477
C24	C	-0.318649	0.499922	0.367523
C25	C	-0.443750	-0.000114	-0.125160
C26	C	0.056250	0.499886	0.374840
C27	C	-0.548059	-0.000104	-0.127192
C28	C	-0.048059	0.499896	0.372808
C29	C	-0.631196	-0.000095	-0.128818
C30	C	-0.131196	0.499905	0.371182
C31	C	-0.735512	-0.000086	-0.130851
C32	C	-0.235512	0.499914	0.369149
N33	N	-1.077427	-0.204872	-0.140171
N34	N	-0.577427	0.295128	0.359829
C35	C	-1.137340	-0.250159	-0.080296
C36	C	-0.637340	0.249841	0.419704
C37	C	-1.131958	-0.340731	-0.085679
C38	C	-0.631958	0.159269	0.414321
C39	C	-1.066667	-0.386014	-0.150942
C40	C	-0.566667	0.113986	0.349058
C41	C	-1.006747	-0.340722	-0.210819
C42	C	-0.506747	0.159278	0.289181
C43	C	-1.012125	-0.250151	-0.205431
C44	C	-0.512125	0.249849	0.294569
C45	C	-1.047292	-0.659478	-0.170336
C46	C	-0.547292	-0.159478	0.329664
C47	C	-1.041920	-0.750055	-0.175721
C48	C	-0.541920	-0.250055	0.324279
C49	C	-1.167131	-0.750058	-0.050580
C50	C	-0.667131	-0.250058	0.449420
C51	C	-1.172507	-0.659485	-0.045201
C52	C	-0.672507	-0.159485	0.454799
C53	C	-1.112584	-0.614201	-0.105075
C54	C	-0.612584	-0.114201	0.394925
C55	C	-1.061166	-0.478594	-0.156447
C56	C	-0.561166	0.021406	0.343553
C57	C	-1.118081	-0.521623	-0.099564
C58	C	-0.618081	-0.021623	0.400436
C59	C	-0.258223	-0.000121	-0.121558
C60	C	0.241777	0.499879	0.378442
C61	C	-0.360605	-0.000120	-0.123547
C62	C	0.139395	0.499880	0.376453
C63	C	-1.096068	-0.000116	0.040584
C64	C	-0.596068	0.499884	0.540584
C65	C	-1.094072	-0.000116	0.142964
C66	C	-0.594072	0.499884	0.642964
N67	N	-1.101833	0.204659	-0.115847
N68	N	-0.601833	0.704659	0.384153
C69	C	-1.083185	-0.000096	-0.296608
C70	C	-0.583185	0.499904	0.203392
C71	C	-1.085181	-0.000090	-0.398988
C72	C	-0.585181	0.499910	0.101012
C73	C	-1.092450	-0.000114	0.226108
C74	C	-0.592450	0.499886	0.726108
C75	C	-1.090424	-0.000107	0.330417
C76	C	-0.590424	0.499893	0.830417
C77	C	-1.088816	-0.000101	0.413557
C78	C	-0.588816	0.499899	0.913557
C79	C	-1.086790	-0.000096	0.517872
C80	C	-0.586790	0.499904	1.017872
H81	H	-1.190512	-0.213294	-0.027157
H82	H	-0.690512	0.286706	0.472843
H83	H	-0.988748	-0.786921	-0.228870
H84	H	-0.488748	-0.286921	0.271130
H85	H	-0.998501	-0.622614	-0.219089
H86	H	-0.498501	-0.122614	0.280911
H87	H	-1.180744	-0.377602	-0.036924
H88	H	-0.680744	0.122398	0.463076
N89	N	-1.231758	-0.798899	0.013996
N90	N	-0.731758	-0.298899	0.513996
H91	H	-1.218447	-0.863147	0.000683
H92	H	-0.718447	-0.363147	0.500683
H93	H	-1.221935	-0.783080	0.080384
H94	H	-0.721935	-0.283080	0.580384
H95	H	-1.171239	-0.484750	-0.046424
H96	H	-0.671239	0.015250	0.453576
N97	N	-0.936317	-0.389559	-0.281204
N98	N	-0.436317	0.110441	0.218796
H99	H	-0.942001	-0.453807	-0.275534
H100	H	-0.442001	0.046193	0.224466
H101	H	-0.948017	-0.373714	-0.345710
H102	H	-0.448017	0.126286	0.154290
H103	H	-1.225673	-0.622617	0.007940
H104	H	-0.725673	-0.122617	0.507940
N105	N	-0.947500	-0.201302	-0.270004
N106	N	-0.447500	0.298698	0.229996
H107	H	-0.905322	-0.243731	-0.312166
H108	H	-0.405322	0.256269	0.187834
H109	H	-0.985100	-0.163710	-0.308619
H110	H	-0.485100	0.336290	0.191381
H111	H	-1.008005	-0.515471	-0.209587
H112	H	-0.508005	-0.015471	0.290413
