data_functionalizedCrystal
_audit_creation_method	'MofGen! by Chris Wilmer'
_symmetry_space_group_name_H-M	'P1'
_symmetry_Int_Tables_number	1
_symmetry_cell_setting	triclinic
loop_
_symmetry_equiv_pos_as_xyz
  x,y,z
_cell_length_a	12.827893
_cell_length_b	25.639240
_cell_length_c	12.827885
_cell_angle_alpha	89.956835
_cell_angle_beta	89.980919
_cell_angle_gamma	90.032729
loop_
_atom_site_label
_atom_site_type_symbol
_atom_site_fract_x
_atom_site_fract_y
_atom_site_fract_z
Zn1	Zn	1.597543	-0.208126	-0.590746
Zn2	Zn	1.597385	-0.295571	-0.415966
Zn3	Zn	1.422785	-0.208151	-0.416020
Zn4	Zn	1.422717	-0.295532	-0.590666
O5	O	1.510108	-0.251845	-0.503350
O6	O	1.743758	-0.219731	-0.567572
O7	O	1.574185	-0.284002	-0.269737
O8	O	1.446062	-0.134983	-0.439255
O9	O	1.743642	-0.283977	-0.439161
O10	O	1.574456	-0.134964	-0.567625
O11	O	1.445908	-0.219775	-0.269777
O12	O	1.276540	-0.219737	-0.439177
O13	O	1.445946	-0.283911	-0.736913
O14	O	1.276490	-0.283935	-0.567489
O15	O	1.574391	-0.219694	-0.736972
O16	O	1.574120	-0.368731	-0.439084
O17	O	1.445792	-0.368702	-0.567435
C18	C	1.238598	-0.251835	-0.503331
C19	C	1.122445	-0.251843	-0.503347
C20	C	0.950673	-0.220118	-0.567004
C21	C	1.070723	-0.220109	-0.566988
C22	C	1.509960	-0.387688	-0.503268
C23	C	1.509992	-0.445802	-0.503268
C24	C	1.576996	-0.806117	-0.570313
C25	C	1.577027	-0.860721	-0.570334
O26	O	1.633820	-0.888917	-0.627254
N27	N	1.510253	-0.888084	-0.503451
C28	C	1.443436	-0.860840	-0.436549
O29	O	1.386642	-0.889129	-0.379663
C30	C	1.443401	-0.806237	-0.436534
C31	C	1.510186	-0.778876	-0.503414
C32	C	1.643775	-0.778756	-0.637188
C33	C	1.643746	-0.724155	-0.637165
C34	C	1.576936	-0.696915	-0.570267
C35	C	1.510157	-0.724276	-0.503391
C36	C	1.376579	-0.778994	-0.369639
C37	C	1.376549	-0.724387	-0.369630
C38	C	1.443335	-0.697027	-0.436510
C39	C	1.443318	-0.642435	-0.436470
N40	N	1.510092	-0.615072	-0.503353
C41	C	1.576901	-0.642312	-0.570252
C42	C	1.443514	-0.975511	-0.436588
C43	C	1.443554	-1.030113	-0.436597
C44	C	1.577143	-1.029990	-0.570383
C45	C	1.577108	-0.975387	-0.570368
C46	C	1.510288	-0.948148	-0.503471
C47	C	1.576834	-0.527647	-0.570198
C48	C	1.576802	-0.473042	-0.570166
C49	C	1.443209	-0.473170	-0.436384
C50	C	1.443245	-0.527770	-0.436412
C51	C	1.510061	-0.555008	-0.503327
O52	O	1.386551	-0.614205	-0.379582
O53	O	1.633676	-0.614017	-0.627139
C54	C	1.782678	-0.251856	-0.503369
C55	C	1.898831	-0.251860	-0.503378
C56	C	1.510179	-0.251795	-0.775920
C57	C	1.510209	-0.251773	-0.892073
C58	C	1.510284	-0.115472	-0.503455
C59	C	1.510360	-0.057358	-0.503499
C60	C	1.573774	-0.219991	-0.943887
C61	C	1.573807	-0.219968	-1.063937
C62	C	1.510097	-0.251857	-0.231840
C63	C	1.510269	-0.251731	-0.115687
H64	H	1.631190	-0.450766	-0.624628
H65	H	1.389104	-0.953335	-0.382103
C66	C	1.650342	-0.557600	-0.643801
N67	N	1.705715	-0.580161	-0.699233
H68	H	1.388816	-0.450982	-0.381913
C69	C	1.130950	-0.183394	-0.640579
N70	N	1.176315	-0.155740	-0.696012
C71	C	1.647327	-0.183205	-1.124131
N72	N	1.702702	-0.155513	-1.169471
C73	C	1.717220	-0.694066	-0.710736
N74	N	1.772565	-0.671406	-0.766152
C75	C	1.436743	-0.288494	-1.055500
N76	N	1.381361	-0.316183	-1.010160
H77	H	0.906180	-0.192952	-0.621492
C78	C	1.369783	-0.557868	-0.362835
N79	N	1.314443	-0.580533	-0.307423
H80	H	1.322195	-0.801262	-0.315177
C81	C	0.958933	-0.288564	-0.429767
N82	N	1.004201	-0.316209	-0.374320
C83	C	1.647261	-0.183250	-0.883751
N84	N	1.702613	-0.155577	-0.838459
H85	H	1.455806	-0.278964	-0.936590
C86	C	1.717286	-0.808711	-0.710780
N87	N	1.772668	-0.831270	-0.766205
H88	H	1.631541	-1.052179	-0.624857
C89	C	1.650573	-0.945295	-0.643945
N90	N	1.705908	-0.922633	-0.699368
C91	C	1.303041	-0.694428	-0.296034
N92	N	1.247678	-0.671863	-0.240600
C93	C	1.370092	-1.060204	-0.363015
N94	N	1.314753	-1.082866	-0.307596
H95	H	1.077868	-0.279019	-0.448870
