data_functionalizedCrystal
_audit_creation_method	'MofGen! by Chris Wilmer'
_symmetry_space_group_name_H-M	'P1'
_symmetry_Int_Tables_number	1
_symmetry_cell_setting	triclinic
loop_
_symmetry_equiv_pos_as_xyz
  x,y,z
_cell_length_a	13.897449
_cell_length_b	13.032721
_cell_length_c	13.033388
_cell_angle_alpha	103.307097
_cell_angle_beta	82.821228
_cell_angle_gamma	82.794330
loop_
_atom_site_label
_atom_site_type_symbol
_atom_site_fract_x
_atom_site_fract_y
_atom_site_fract_z
Zn1	Zn	1.339232	0.499288	0.654211
Zn2	Zn	1.339174	0.654316	0.499153
Zn3	Zn	1.201446	0.476722	0.476626
Zn4	Zn	1.154433	0.676859	0.676704
O5	O	1.258571	0.576796	0.576673
O6	O	1.474203	0.519863	0.633657
O7	O	1.340556	0.611879	0.347539
O8	O	1.239423	0.331077	0.481342
O9	O	1.474161	0.633761	0.519736
O10	O	1.340653	0.347657	0.611813
O11	O	1.239367	0.481401	0.330988
O12	O	1.060231	0.503261	0.503152
O13	O	1.159296	0.672183	0.822346
O14	O	1.025690	0.650301	0.650149
O15	O	1.295067	0.541722	0.805821
O16	O	1.294969	0.805944	0.541547
O17	O	1.159240	0.822507	0.671993
C18	C	1.222020	0.852769	0.611678
C19	C	1.206466	0.970835	0.626689
C20	C	1.007962	0.576779	0.576647
C21	C	0.900744	0.576800	0.576665
C22	C	1.221943	0.611985	0.853698
C23	C	1.206335	0.626980	0.971750
C24	C	0.704444	0.576808	0.576693
C25	C	0.813680	0.576800	0.576674
C26	C	1.510159	0.576814	0.576700
C27	C	1.617371	0.576822	0.576712
C28	C	1.295289	0.299749	0.541555
C29	C	1.310936	0.181688	0.526590
C30	C	1.266734	1.015250	0.568887
C31	C	1.250660	1.137278	0.584400
C32	C	1.250433	0.584620	1.138218
C33	C	1.266562	0.569113	1.016204
C34	C	1.295046	0.541765	1.300729
C35	C	1.310652	0.526760	1.182676
H36	H	1.330234	0.962937	0.507920
O37	O	1.386811	1.119351	0.453965
C38	C	1.476326	1.149259	0.480655
H39	H	1.465922	1.190566	0.569361
H40	H	1.500695	1.206334	0.431854
C41	C	1.568021	0.998297	0.346953
C42	C	1.555245	1.049022	0.455906
H43	H	1.616704	0.936468	0.331683
H44	H	1.507714	0.978149	0.328968
H45	H	1.588324	1.045870	0.306299
H46	H	1.534930	1.001454	0.496558
H47	H	1.615551	1.069160	0.473897
O48	O	1.174724	0.657546	1.200466
C49	C	1.185336	0.760004	1.186877
H50	H	1.232697	0.752044	1.106597
H51	H	1.221996	0.803655	1.253816
C52	C	1.025257	0.833488	1.288655
C53	C	1.083421	0.823711	1.190049
H54	H	0.962392	0.872788	1.290616
H55	H	1.018109	0.764461	1.297814
H56	H	1.055818	0.869861	1.344427
H57	H	1.052866	0.787327	1.134280
H58	H	1.090562	0.892734	1.180880
O59	O	1.130825	1.033361	0.699497
C60	C	1.168235	1.106151	0.776256
H61	H	1.244154	1.117854	0.740947
H62	H	1.173954	1.073421	0.849580
C63	C	1.005573	1.199693	0.852118
C64	C	1.098815	1.214074	0.808748
H65	H	0.962751	1.266264	0.872165
H66	H	0.980369	1.150651	0.800407
H67	H	1.010354	1.172415	0.913216
H68	H	1.094036	1.241338	0.747644
H69	H	1.124017	1.263123	0.860450
O70	O	1.174925	1.199828	0.657066
C71	C	1.175747	1.307743	0.656393
H72	H	1.216264	1.312380	0.576359
H73	H	1.214625	1.347158	0.723407
C74	C	1.019632	1.360421	0.771545
C75	C	1.069388	1.366116	0.673242
H76	H	0.954025	1.396430	0.781943
H77	H	1.019079	1.287717	0.772002
H78	H	1.052040	1.393265	0.827379
H79	H	1.036986	1.333260	0.617409
H80	H	1.069933	1.438816	0.672775
O81	O	1.342204	0.496241	0.953742
C82	C	1.304793	0.419522	0.880912
H83	H	1.228899	0.454900	0.869143
H84	H	1.299017	0.346200	0.913630
C85	C	1.467464	0.343523	0.787510
C86	C	1.374253	0.386978	0.773049
H87	H	1.510311	0.323443	0.720976
H88	H	1.492669	0.395207	0.836579
H89	H	1.462637	0.282427	0.814778
H90	H	1.379079	0.448080	0.745794
H91	H	1.349050	0.335303	0.723972
O92	O	1.130620	0.699915	1.033987
C93	C	1.141240	0.802368	1.020386
H94	H	1.188610	0.794396	0.940107
H95	H	1.177896	0.846024	1.087326
C96	C	0.981157	0.875867	1.122145
C97	C	1.039330	0.866077	1.023542
H98	H	0.918295	0.915169	1.124097
H99	H	0.974003	0.806844	1.131313
H100	H	1.011715	0.912245	1.177918
H101	H	1.008778	0.829688	0.967772
H102	H	1.046477	0.935096	1.014365
O103	O	1.386290	0.453893	1.120210
C104	C	1.348879	0.377174	1.047380
H105	H	1.272985	0.412552	1.035611
H106	H	1.343103	0.303852	1.080098
C107	C	1.511550	0.301175	0.953978
C108	C	1.418339	0.344630	0.939517
H109	H	1.554397	0.281095	0.887445
H110	H	1.536755	0.352859	1.003048
H111	H	1.506723	0.240079	0.981247
H112	H	1.423165	0.405732	0.912262
H113	H	1.393135	0.292955	0.890440
