data_functionalizedCrystal
_audit_creation_method	'MofGen! by Chris Wilmer'
_symmetry_space_group_name_H-M	'P1'
_symmetry_Int_Tables_number	1
_symmetry_cell_setting	triclinic
loop_
_symmetry_equiv_pos_as_xyz
  x,y,z
_cell_length_a	16.109301
_cell_length_b	16.109301
_cell_length_c	15.186229
_cell_angle_alpha	89.994833
_cell_angle_beta	89.999362
_cell_angle_gamma	83.461481
loop_
_atom_site_label
_atom_site_type_symbol
_atom_site_fract_x
_atom_site_fract_y
_atom_site_fract_z
O1	O	1.103131	0.106866	-0.073176
O2	O	0.861069	0.120165	-0.073190
O3	O	0.988749	-0.007515	-0.073174
O4	O	0.975450	0.234547	-0.073192
O5	O	0.988741	-0.007517	0.073284
O6	O	0.861060	0.120164	0.073267
O7	O	1.103122	0.106864	0.073282
Zn8	Zn	0.982090	0.113514	0.096528
Zn9	Zn	0.982101	0.113516	-0.096436
O10	O	0.975441	0.234545	0.073265
C11	C	0.830090	0.119626	0.000037
C12	C	0.737794	0.118011	0.000032
C13	C	0.515522	0.190018	0.000036
C14	C	0.428801	0.188494	0.000042
C15	C	0.448676	0.037006	0.000050
C16	C	0.535394	0.038530	0.000051
C17	C	0.568815	0.115039	0.000039
C18	C	0.395376	0.111990	0.000045
C19	C	0.301350	0.110337	0.000051
C20	C	0.662847	0.116693	0.000035
C21	C	0.988206	-0.038491	0.000056
C22	C	0.986591	-0.130786	0.000057
C23	C	1.058599	-0.353059	0.000047
C24	C	1.057075	-0.439779	0.000040
C25	C	0.905586	-0.419905	0.000034
C26	C	0.907111	-0.333186	0.000035
C27	C	0.983620	-0.299766	0.000046
C28	C	0.980571	-0.473205	0.000038
C29	C	0.978918	-0.567231	0.000030
C30	C	0.985273	-0.205734	0.000052
C31	C	1.134101	0.107404	0.000053
C32	C	1.226397	0.109019	0.000052
C33	C	0.975984	0.265521	0.000034
C34	C	0.977600	0.357816	0.000027
N35	N	0.982088	0.113511	0.228220
N36	N	0.982109	0.113512	-0.228129
C37	C	1.038644	0.056994	0.453950
C38	C	1.038647	0.056992	0.546140
C39	C	0.925547	0.170032	0.546135
C40	C	0.925541	0.170030	0.453947
C41	C	0.982094	0.113511	0.407857
C42	C	0.982103	0.113512	0.592235
C43	C	0.982105	0.113510	0.692191
C44	C	0.982091	0.113512	0.307894
H45	H	0.578788	-0.022530	0.000056
H46	H	0.421454	-0.025285	0.000065
H47	H	0.385413	0.249550	0.000041
C48	C	1.142756	-0.316295	0.000050
C49	C	1.225231	-0.374921	0.000046
C50	C	1.309391	-0.338160	0.000047
C51	C	1.311075	-0.242774	0.000051
C52	C	1.228597	-0.184142	0.000055
C53	C	1.144437	-0.220903	0.000054
H54	H	1.223987	-0.445536	0.000043
H55	H	1.370447	-0.381563	0.000044
H56	H	1.373375	-0.215561	0.000051
H57	H	1.229841	-0.113526	0.000058
H58	H	1.083382	-0.177500	0.000057
C59	C	1.100855	-0.005176	0.596844
C60	C	1.163066	-0.067335	0.546145
C61	C	1.225276	-0.129506	0.596849
C62	C	1.225275	-0.129519	0.698253
C63	C	1.163062	-0.067358	0.748957
C64	C	1.100852	-0.005187	0.698253
H65	H	1.163069	-0.067327	0.471075
H66	H	1.271331	-0.175522	0.559314
H67	H	1.271326	-0.175542	0.735787
H68	H	1.163059	-0.067365	0.824027
H69	H	1.054797	0.040829	0.735789
C70	C	0.824629	-0.274556	0.000037
C71	C	0.740472	-0.311313	0.000038
C72	C	0.657994	-0.252683	0.000036
C73	C	0.659673	-0.157297	0.000034
C74	C	0.743833	-0.120534	0.000034
C75	C	0.826311	-0.179164	0.000035
H76	H	0.739226	-0.381929	0.000039
H77	H	0.595693	-0.279898	0.000037
H78	H	0.598618	-0.113895	0.000034
H79	H	0.745079	-0.049919	0.000033
H80	H	0.888612	-0.151950	0.000035
H81	H	0.879503	0.216049	0.583670
C82	C	1.139554	-0.498401	0.000044
C83	C	1.202245	-0.494684	0.076101
C84	C	1.284728	-0.553306	0.076104
C85	C	1.304520	-0.615644	0.000049
C86	C	1.241828	-0.619363	-0.076014
C87	C	1.159344	-0.560742	-0.076016
H88	H	1.187595	-0.448536	0.132406
H89	H	1.331138	-0.550553	0.132411
H90	H	1.365579	-0.659040	0.000051
H91	H	1.256477	-0.665512	-0.132319
H92	H	1.112935	-0.563495	-0.132323
C93	C	0.863333	0.232203	0.403235
C94	C	0.801156	0.294403	0.453926
C95	C	0.738949	0.356571	0.403214
C96	C	0.738919	0.356539	0.301811
C97	C	0.801097	0.294337	0.251115
C98	C	0.863304	0.232169	0.301827
H99	H	0.801177	0.294429	0.528996
H100	H	0.692921	0.402617	0.440744
H101	H	0.692869	0.402559	0.264271
H102	H	0.801076	0.294311	0.176045
H103	H	0.909333	0.186123	0.264297
H104	H	0.843295	-0.447127	0.000027
C105	C	0.552287	0.274175	0.000033
C106	C	0.532166	0.336445	0.076086
C107	C	0.568929	0.420604	0.076086
C108	C	0.625811	0.442493	0.000034
C109	C	0.645934	0.380221	-0.076024
C110	C	0.609172	0.296062	-0.076025
H111	H	0.490056	0.320244	0.132389
H112	H	0.554032	0.466702	0.132389
H113	H	0.653024	0.504792	0.000034
H114	H	0.688044	0.396423	-0.132328
H115	H	0.624068	0.249964	-0.132328
C116	C	1.100845	-0.005181	0.403251
C117	C	1.099474	-0.099858	0.415940
C118	C	1.161674	-0.162037	0.365244
C119	C	1.225246	-0.129539	0.301860
C120	C	1.226620	-0.034858	0.289168
C121	C	1.164420	0.027321	0.339864
H122	H	1.052411	-0.123919	0.462864
H123	H	1.160657	-0.232126	0.374640
H124	H	1.271291	-0.175568	0.264332
H125	H	1.273683	-0.010797	0.242244
H126	H	1.165437	0.097410	0.330468
