data_functionalizedCrystal
_audit_creation_method	'MofGen! by Chris Wilmer'
_symmetry_space_group_name_H-M	'P1'
_symmetry_Int_Tables_number	1
_symmetry_cell_setting	triclinic
loop_
_symmetry_equiv_pos_as_xyz
  x,y,z
_cell_length_a	9.065218
_cell_length_b	14.421503
_cell_length_c	9.065215
_cell_angle_alpha	89.994685
_cell_angle_beta	85.015291
_cell_angle_gamma	90.007822
loop_
_atom_site_label
_atom_site_type_symbol
_atom_site_fract_x
_atom_site_fract_y
_atom_site_fract_z
O1	O	1.960408	0.077112	0.216337
O2	O	1.531123	0.077113	0.234083
O3	O	1.754641	0.077109	0.010567
O4	O	1.736890	0.077117	0.439853
O5	O	1.754604	-0.077115	0.010601
O6	O	1.531086	-0.077110	0.234117
O7	O	1.960371	-0.077111	0.216370
Cu8	Cu	1.745725	-0.091193	0.225246
Cu9	Cu	1.745769	0.091194	0.225207
O10	O	1.736853	-0.077107	0.439886
C11	C	1.476118	0.000002	0.232394
C12	C	1.312275	0.000002	0.227295
N13	N	1.745705	-0.219474	0.225273
C14	C	1.642331	-0.469125	0.328580
C15	C	1.776044	-0.530928	0.359001
C16	C	1.745740	-0.408635	0.225238
C17	C	1.612062	-0.530927	0.194852
C18	C	1.745763	-0.591357	0.225208
C19	C	1.879522	-0.469077	0.255727
C20	C	1.715451	-0.469070	0.091519
C21	C	1.849260	-0.530845	0.121885
C22	C	1.745725	-0.303374	0.225260
C23	C	1.745793	-0.696616	0.225186
C24	C	2.015376	0.000002	0.218059
C25	C	2.179219	0.000008	0.223159
C26	C	1.752917	-0.000002	-0.044403
C27	C	1.747819	0.000001	-0.208246
N28	N	1.745801	0.219476	0.225169
C29	C	1.738576	0.000006	0.494856
C30	C	1.743674	0.000009	0.658699
H31	H	1.554972	-0.442026	0.416044
H32	H	1.936816	-0.557775	0.034476
O33	O	2.014540	-0.436967	0.286495
C34	C	2.108985	-0.512531	0.308026
H35	H	2.067821	-0.576388	0.249859
H36	H	2.109386	-0.527229	0.431560
C37	C	2.317775	-0.410526	0.314687
C38	C	2.267224	-0.488955	0.243234
H39	H	2.415386	-0.395984	0.274728
H40	H	2.254145	-0.359617	0.300187
H41	H	2.318096	-0.422786	0.417628
H42	H	2.266885	-0.476691	0.140299
H43	H	2.330857	-0.539862	0.257716
O44	O	1.477242	-0.563291	0.163929
C45	C	1.444468	-0.530401	0.023991
H46	H	1.551801	-0.512071	-0.044762
H47	H	1.371668	-0.466044	0.038740
C48	C	1.230194	-0.628685	0.028526
C49	C	1.362023	-0.606179	-0.055923
H50	H	1.179332	-0.675426	-0.020767
H51	H	1.252270	-0.650842	0.122807
H52	H	1.169545	-0.575048	0.040810
H53	H	1.422677	-0.659813	-0.068189
H54	H	1.339955	-0.584034	-0.150208
O55	O	1.806387	-0.563307	0.493987
C56	C	1.697113	-0.531849	0.602642
H57	H	1.591716	-0.514508	0.548334
H58	H	1.738683	-0.467175	0.658316
C59	C	1.793415	-0.629573	0.786188
C60	C	1.663961	-0.608283	0.719488
H61	H	1.772969	-0.676718	0.858268
H62	H	1.867039	-0.650765	0.712987
H63	H	1.828044	-0.575672	0.832570
H64	H	1.629345	-0.662181	0.673091
H65	H	1.590330	-0.587102	0.792683
O66	O	1.684641	-0.436510	-0.043205
C67	C	1.555808	-0.381394	-0.026878
H68	H	1.539062	-0.354331	0.091542
H69	H	1.455990	-0.424889	-0.051984
C70	C	1.593103	-0.332234	-0.280540
C71	C	1.572543	-0.298987	-0.135097
H72	H	1.603421	-0.281403	-0.347298
H73	H	1.679898	-0.369369	-0.291543
H74	H	1.509918	-0.368480	-0.301441
H75	H	1.655735	-0.262752	-0.114192
H76	H	1.485762	-0.261844	-0.124093
