data_functionalizedCrystal
_audit_creation_method	'MofGen! by Chris Wilmer'
_symmetry_space_group_name_H-M	'P1'
_symmetry_Int_Tables_number	1
_symmetry_cell_setting	triclinic
loop_
_symmetry_equiv_pos_as_xyz
  x,y,z
_cell_length_a	21.395362
_cell_length_b	12.759399
_cell_length_c	21.395355
_cell_angle_alpha	90.012690
_cell_angle_beta	90.043940
_cell_angle_gamma	90.031625
loop_
_atom_site_label
_atom_site_type_symbol
_atom_site_fract_x
_atom_site_fract_y
_atom_site_fract_z
Zn1	Zn	0.957925	-0.417943	0.354611
Zn2	Zn	0.957854	-0.593607	0.249844
Zn3	Zn	0.853140	-0.417992	0.249812
Zn4	Zn	0.853136	-0.593629	0.354549
O5	O	0.905514	-0.505793	0.302204
O6	O	1.045593	-0.441215	0.340753
O7	O	0.943936	-0.570323	0.162162
O8	O	0.867070	-0.270964	0.263727
O9	O	1.045542	-0.570275	0.263781
O10	O	0.944055	-0.270928	0.340722
O11	O	0.867002	-0.441299	0.162139
O12	O	0.765461	-0.441320	0.263666
O13	O	0.867064	-0.570312	0.442235
O14	O	0.765459	-0.570360	0.340616
O15	O	0.944052	-0.441236	0.442281
O16	O	0.943933	-0.740631	0.263721
O17	O	0.866996	-0.740647	0.340647
C18	C	0.742726	-0.505848	0.302131
C19	C	0.673085	-0.505897	0.302115
C20	C	0.640387	-0.573177	0.342123
C21	C	0.574951	-0.573152	0.342151
C22	C	0.542216	-0.505857	0.302160
C23	C	0.574922	-0.438564	0.262149
C24	C	0.640357	-0.438584	0.262127
C25	C	0.438490	-0.497393	0.245754
C26	C	0.373057	-0.497380	0.245775
C27	C	0.340396	-0.505788	0.302229
C28	C	0.373175	-0.514231	0.358663
C29	C	0.438609	-0.514251	0.358641
C30	C	0.471264	-0.505827	0.302180
C31	C	0.236745	-0.573044	0.342270
C32	C	0.171309	-0.573011	0.342299
C33	C	0.171281	-0.438428	0.262292
C34	C	0.236716	-0.438456	0.262269
C35	C	0.269444	-0.505769	0.302257
C36	C	0.905473	-0.778760	0.302194
C37	C	0.905514	-0.895537	0.302211
C38	C	0.865447	-0.950445	0.342237
C39	C	0.865486	-1.060169	0.342249
C40	C	0.945664	-1.060067	0.262207
C41	C	0.945621	-0.950345	0.262192
C42	C	0.791641	-1.210252	0.364564
C43	C	0.751580	-1.265164	0.404600
C44	C	0.741917	-1.229527	0.465719
C45	C	0.772325	-1.138980	0.486814
C46	C	0.812391	-1.084073	0.446781
C47	C	0.822042	-1.119709	0.385654
C48	C	1.019467	-0.800260	0.239884
C49	C	1.059536	-0.745351	0.199854
C50	C	1.069205	-0.780986	0.138734
C51	C	1.038809	-0.871537	0.117641
C52	C	0.998739	-0.926445	0.157671
C53	C	0.989069	-0.890803	0.218791
C54	C	1.068937	-0.505738	0.302277
C55	C	1.138578	-0.505714	0.302309
C56	C	0.905566	-0.505771	0.465627
C57	C	0.905588	-0.505762	0.535269
C58	C	0.905571	-0.231759	0.302228
C59	C	0.905596	-0.114983	0.302238
C60	C	0.905498	-0.505738	0.139417
C61	C	0.905597	-0.505451	0.069776
C62	C	0.945674	-0.438550	0.568007
C63	C	0.945673	-0.438504	0.633442
C64	C	0.905593	-0.505691	0.666137
C65	C	0.865499	-0.572908	0.633391
C66	C	0.865497	-0.572944	0.567957
C67	C	0.900632	-0.600292	0.769807
C68	C	0.900638	-0.600258	0.835240
C69	C	0.905597	-0.505580	0.867958
C70	C	0.910561	-0.410932	0.835235
C71	C	0.910559	-0.410968	0.769801
C72	C	0.905591	-0.505659	0.737090
C73	C	0.945684	-0.438312	0.971648
C74	C	0.945678	-0.438265	1.037085
C75	C	0.865508	-0.572678	1.037033
C76	C	0.865510	-0.572716	0.971598
C77	C	0.905601	-0.505534	0.938909
H78	H	0.548265	-0.383770	0.229590
Br79	Br	1.006333	-0.751876	0.322832
Br80	Br	0.687552	-1.304056	0.520053
Br81	Br	0.530565	-0.664465	0.396452
Br82	Br	1.000089	-0.347137	0.927282
H83	H	1.101835	-0.736270	0.106143
Br84	Br	0.917293	-0.282526	0.725393
H85	H	0.832788	-0.905823	0.374822
H86	H	0.263339	-0.383674	0.229687
H87	H	0.978318	-0.383844	0.541396
Br88	Br	1.000063	-0.347255	0.677882
Br89	Br	0.281166	-0.664391	0.396541
H90	H	0.978319	-1.104704	0.229626
H91	H	0.144687	-0.627796	0.374882
Br92	Br	1.100796	-0.622466	0.228483
H93	H	0.832872	-0.627454	0.944942
Br94	Br	0.126862	-0.347088	0.208024
H95	H	0.832868	-0.627372	1.063653
H96	H	0.914600	-0.333836	0.861873
H97	H	0.896426	-0.677371	0.743173
H98	H	0.465295	-0.521123	0.404591
Br99	Br	0.811089	-0.664167	0.523524
Br100	Br	0.328857	-0.525640	0.435285
H101	H	0.973990	-1.000178	0.140493
H102	H	0.978320	-0.383527	1.063739
H103	H	0.896600	-0.677325	0.861878
Br104	Br	0.811100	-0.664083	0.677761
H105	H	0.667030	-0.627988	0.374685
H106	H	0.837149	-1.010352	0.463957
H107	H	0.666979	-0.383793	0.229548
Br108	Br	0.759220	-1.090633	0.569771
H109	H	0.726822	-1.338888	0.387418
H110	H	0.799498	-1.239268	0.314793
Br111	Br	1.051935	-0.919912	0.034692
H112	H	0.346374	-0.490512	0.199823
H113	H	0.465078	-0.490542	0.199780
