data_functionalizedCrystal
_audit_creation_method	'MofGen! by Chris Wilmer'
_symmetry_space_group_name_H-M	'P1'
_symmetry_Int_Tables_number	1
_symmetry_cell_setting	triclinic
loop_
_symmetry_equiv_pos_as_xyz
  x,y,z
_cell_length_a	10.908937
_cell_length_b	14.044220
_cell_length_c	9.482900
_cell_angle_alpha	100.188801
_cell_angle_beta	83.036371
_cell_angle_gamma	76.637417
loop_
_atom_site_label
_atom_site_type_symbol
_atom_site_fract_x
_atom_site_fract_y
_atom_site_fract_z
O1	O	1.705363	-0.161474	-0.120930
O2	O	1.339830	-0.088769	-0.120927
O3	O	1.517108	-0.262239	-0.120914
O4	O	1.528085	0.011996	-0.120943
O5	O	1.481112	-0.226887	0.120876
O6	O	1.303834	-0.053416	0.120863
O7	O	1.669367	-0.126122	0.120860
Cu8	Cu	1.483314	-0.086541	0.142939
Cu9	Cu	1.525883	-0.128349	-0.143006
O10	O	1.492090	0.047349	0.120847
C11	C	1.274769	-0.064298	-0.000031
C12	C	1.134535	-0.044063	-0.000030
C13	C	0.932134	-0.096995	-0.000050
C14	C	1.077069	-0.117907	-0.000030
C15	C	1.494306	-0.279120	-0.000019
C16	C	1.479978	-0.382087	-0.000017
C17	C	1.453788	-0.570623	-0.000037
C18	C	1.555406	-0.644274	-0.000043
C19	C	1.540833	-0.749182	-0.000054
C20	C	1.468359	-0.465705	-0.000026
C21	C	1.734429	-0.150593	-0.000039
C22	C	1.874664	-0.170829	-0.000051
C23	C	1.514891	0.064229	-0.000052
C24	C	1.529221	0.167195	-0.000063
N25	N	1.453382	-0.057138	0.344057
N26	N	1.555824	-0.157762	-0.344124
C27	C	1.517045	-0.119680	0.416260
C28	C	1.492152	-0.095210	0.583676
H29	H	1.135165	-0.196608	-0.000024
C30	C	1.237455	-0.532681	0.124267
C31	C	1.321569	-0.591849	-0.000033
H32	H	1.155828	-0.545790	0.124265
H33	H	1.269436	-0.548179	0.208563
H34	H	1.230040	-0.463944	0.124258
H35	H	1.328992	-0.660587	-0.000018
H36	H	1.289580	-0.576358	-0.084351
C37	C	1.720706	-0.587316	-0.124305
C38	C	1.687627	-0.623041	-0.000023
H39	H	1.802326	-0.574199	-0.124281
H40	H	1.723376	-0.636192	-0.208613
H41	H	1.658855	-0.527319	-0.124290
H42	H	1.749473	-0.683043	-0.000043
H43	H	1.684966	-0.574162	0.084307
H44	H	1.628758	-0.229430	0.593757
H45	H	1.589975	-0.191344	0.354138
C46	C	1.339571	0.054684	0.568749
C47	C	1.393680	0.001535	0.667521
H48	H	1.278774	0.114405	0.620515
H49	H	1.404822	0.071149	0.509372
H50	H	1.298401	0.014546	0.509388
H51	H	1.434858	0.041670	0.726876
H52	H	1.328418	-0.014928	0.726923
C53	C	0.725314	0.009397	-0.000078
C54	C	0.853715	0.009244	-0.000065
H55	H	0.676905	0.074988	-0.000077
H56	H	0.718535	-0.035662	-0.084392
H57	H	0.693417	-0.011017	0.084244
H58	H	0.885615	0.029650	-0.084392
H59	H	0.860500	0.054318	0.084258
C60	C	1.103186	0.092244	-0.124351
C61	C	1.056126	0.062181	-0.000054
H62	H	1.054774	0.157831	-0.124367
H63	H	1.190286	0.092126	-0.124326
H64	H	1.096392	0.047169	-0.208658
H65	H	1.062929	0.107252	0.084254
H66	H	0.969004	0.062306	-0.000065
C67	C	1.081482	-0.277219	-0.000010
C68	C	0.953082	-0.277067	-0.000028
H69	H	1.129888	-0.342807	0.000012
H70	H	1.113383	-0.256816	-0.084325
H71	H	1.088254	-0.232147	0.084311
H72	H	0.946308	-0.322133	-0.084356
H73	H	0.921172	-0.297482	0.084295
H74	H	1.380443	0.014521	0.406181
