data_functionalizedCrystal
_audit_creation_method	'MofGen! by Chris Wilmer'
_symmetry_space_group_name_H-M	'P1'
_symmetry_Int_Tables_number	1
_symmetry_cell_setting	triclinic
loop_
_symmetry_equiv_pos_as_xyz
  x,y,z
_cell_length_a	13.185407
_cell_length_b	13.339070
_cell_length_c	9.730223
_cell_angle_alpha	90.001563
_cell_angle_beta	90.002208
_cell_angle_gamma	83.801389
loop_
_atom_site_label
_atom_site_type_symbol
_atom_site_fract_x
_atom_site_fract_y
_atom_site_fract_z
O1	O	1.373292	-0.243487	0.114258
O2	O	1.084460	-0.148749	0.114266
O3	O	1.195727	-0.334357	0.114259
O4	O	1.262024	-0.057879	0.114265
O5	O	1.195718	-0.334357	-0.114321
O6	O	1.084451	-0.148750	-0.114314
O7	O	1.373283	-0.243487	-0.114322
Zn8	Zn	1.228866	-0.196118	-0.150610
Zn9	Zn	1.228877	-0.196118	0.150554
O10	O	1.262016	-0.057879	-0.114315
C11	C	1.046733	-0.139145	-0.000023
C12	C	0.934328	-0.110538	-0.000020
C13	C	0.562466	-0.383552	-0.000032
C14	C	0.668075	-0.410433	-0.000044
C15	C	0.734643	-0.335461	-0.000037
C16	C	0.695592	-0.233605	-0.000020
C17	C	0.589973	-0.206722	-0.000019
C18	C	0.762150	-0.158631	-0.000024
C19	C	0.723099	-0.056775	-0.000007
C20	C	0.617490	-0.029896	-0.000005
C21	C	0.550922	-0.104867	-0.000011
C22	C	0.867770	-0.185514	-0.000025
C23	C	0.895277	-0.008684	-0.000012
C24	C	0.789668	0.018197	-0.000001
C25	C	1.184524	-0.368997	-0.000029
C26	C	1.151143	-0.472211	-0.000023
C27	C	1.410698	-0.907668	-0.000031
C28	C	1.442064	-0.810695	-0.000044
C29	C	1.369336	-0.726070	-0.000038
C30	C	1.265237	-0.738426	-0.000020
C31	C	1.233867	-0.835409	-0.000017
C32	C	1.192506	-0.653810	-0.000025
C33	C	1.088406	-0.666167	-0.000006
C34	C	1.057042	-0.763141	-0.000002
C35	C	1.129770	-0.847766	-0.000008
C36	C	1.223876	-0.556828	-0.000028
C37	C	1.047045	-0.484568	-0.000014
C38	C	1.015679	-0.581541	0.000000
C39	C	1.411010	-0.253091	-0.000030
C40	C	1.523415	-0.281698	-0.000024
C41	C	1.273219	-0.023239	-0.000024
C42	C	1.306600	0.079975	-0.000022
N43	N	1.228865	-0.196121	-0.356147
C44	C	1.278169	-0.278292	-0.571968
C45	C	1.278163	-0.278289	-0.428085
C46	C	1.179578	-0.113946	-0.428099
C47	C	1.179591	-0.113947	-0.571979
N48	N	1.228884	-0.196125	0.356090
H49	H	0.949477	0.052364	-0.000012
C50	C	1.332397	-0.368679	-0.651088
H51	H	1.361756	-0.417610	-0.587629
H52	H	1.284388	-0.397743	-0.707228
H53	H	1.384523	-0.346446	-0.707201
C54	C	0.901175	-0.595138	0.000019
H55	H	0.862348	-0.530854	0.000034
H56	H	0.885254	-0.631472	-0.079685
H57	H	0.885278	-0.631464	0.079746
C58	C	1.332372	-0.368676	-0.348954
H59	H	1.361722	-0.417618	-0.412405
H60	H	1.384485	-0.346453	-0.292815
H61	H	1.284341	-0.397736	-0.292839
H62	H	0.972278	-0.773195	0.000003
H63	H	0.899554	-0.268447	-0.000038
H64	H	1.139443	-0.047039	-0.369518
H65	H	1.526822	-0.800642	-0.000062
C66	C	1.125376	-0.023560	-0.651127
H67	H	1.132454	-0.035327	-0.747118
H68	H	1.055053	-0.015437	-0.627568
H69	H	1.155196	0.035847	-0.627538
C70	C	0.850811	-0.365029	-0.000029
H71	H	0.864535	-0.436427	-0.000025
H72	H	0.879792	-0.338453	-0.079729
H73	H	0.879775	-0.338461	0.079702
H74	H	0.508258	-0.444582	-0.000076
H75	H	1.394881	-0.647112	-0.000050
C76	C	0.711025	-0.522464	-0.000058
H77	H	0.656257	-0.563264	-0.000049
H78	H	0.751651	-0.536624	-0.079770
H79	H	0.751656	-0.536628	0.079661
H80	H	0.464925	-0.082986	0.000005
C81	C	1.095269	-0.954438	-0.000001
H82	H	1.153494	-1.003064	-0.000010
H83	H	1.055522	-0.963032	0.079710
H84	H	1.055520	-0.963035	-0.079722
C85	C	1.338374	-0.543238	-0.000043
H86	H	1.346645	-0.473364	-0.000056
H87	H	1.369568	-0.573978	0.079662
H88	H	1.369549	-0.573979	-0.079769
H89	H	1.469901	-0.976575	-0.000047
H90	H	0.987824	-0.415664	-0.000016
H91	H	0.757857	0.101129	0.000012
C92	C	0.574535	0.082142	0.000004
H93	H	0.629303	0.122943	0.000019
H94	H	0.533904	0.096307	-0.079705
H95	H	0.533911	0.096299	0.079726
