data_functionalizedCrystal
_audit_creation_method	'MofGen! by Chris Wilmer'
_symmetry_space_group_name_H-M	'P1'
_symmetry_Int_Tables_number	1
_symmetry_cell_setting	triclinic
loop_
_symmetry_equiv_pos_as_xyz
  x,y,z
_cell_length_a	10.540539
_cell_length_b	16.109301
_cell_length_c	14.586319
_cell_angle_alpha	89.994786
_cell_angle_beta	89.998549
_cell_angle_gamma	83.993486
loop_
_atom_site_label
_atom_site_type_symbol
_atom_site_fract_x
_atom_site_fract_y
_atom_site_fract_z
O1	O	1.684215	0.117165	-0.076200
O2	O	1.314645	0.128205	-0.076212
O3	O	1.509583	0.001716	-0.076197
O4	O	1.489278	0.243654	-0.076216
O5	O	1.509569	0.001714	0.076284
O6	O	1.314631	0.128203	0.076269
O7	O	1.684202	0.117163	0.076280
Cu8	Cu	1.499415	0.122683	0.090197
Cu9	Cu	1.499431	0.122685	-0.090129
O10	O	1.489264	0.243652	0.076265
C11	C	1.508753	-0.029265	0.000044
C12	C	1.506287	-0.121575	0.000046
C13	C	1.267347	0.127376	0.000027
C14	C	1.126434	0.124899	0.000023
C15	C	1.616226	-0.343175	0.000034
C16	C	1.613899	-0.429910	0.000027
C17	C	1.382612	-0.411450	0.000023
C18	C	1.384940	-0.324717	0.000024
C19	C	1.501751	-0.290582	0.000034
C20	C	1.497096	-0.464050	0.000026
C21	C	1.494572	-0.558091	0.000018
C22	C	1.504275	-0.196535	0.000041
C23	C	0.944360	0.029989	0.000386
C24	C	1.090943	0.032500	0.000033
C25	C	1.064135	0.169366	-0.087051
C26	C	0.917636	0.166213	-0.087115
C27	C	0.917105	0.168090	0.086285
C28	C	1.064075	0.168941	0.087426
C29	C	1.731500	0.117992	0.000039
C30	C	1.872413	0.120469	0.000037
C31	C	1.490093	0.274633	0.000022
C32	C	1.492559	0.366943	0.000015
N33	N	1.499413	0.122681	0.217029
N34	N	1.499443	0.122681	-0.216961
C35	C	1.585760	0.066691	0.452042
C36	C	1.585764	0.066689	0.548024
C37	C	1.413087	0.178673	0.548019
C38	C	1.413079	0.178671	0.452040
C39	C	1.499422	0.122680	0.404054
C40	C	1.499435	0.122681	0.596015
C41	C	1.499438	0.122679	0.700082
C42	C	1.499418	0.122681	0.299980
H43	H	1.707116	-0.472728	0.000025
N44	N	1.090986	0.254485	-0.091143
N45	N	1.150131	0.279731	-0.158155
H46	H	1.169098	0.339846	-0.161045
N47	N	1.324902	0.235869	0.403000
N48	N	1.324913	0.235858	0.317305
H49	H	1.262641	0.276252	0.282668
N50	N	1.267999	-0.270988	0.000044
N51	N	1.243497	-0.220537	0.064320
H52	H	1.160912	-0.182591	0.064333
N53	N	1.735551	-0.308320	0.000048
N54	N	1.837751	-0.355292	0.000048
H55	H	1.922029	-0.330679	0.000057
H56	H	1.107170	0.138478	-0.151849
H57	H	1.656065	0.021099	0.412974
H58	H	1.342790	0.224261	0.587099
H59	H	1.134050	-0.002489	0.062452
N60	N	1.263310	-0.446334	0.000011
N61	N	1.261245	-0.523774	0.000010
H62	H	1.176986	-0.548411	0.000003
H63	H	0.916290	-0.006515	0.062833
H64	H	0.914677	-0.006358	-0.061706
N65	N	1.673959	0.009487	0.597028
N66	N	1.751034	-0.040500	0.554168
H67	H	1.813325	-0.080904	0.588777
N68	N	0.878049	0.130573	0.169077
N69	N	0.816791	0.068274	0.165519
H70	H	0.789204	0.041770	0.223987
H71	H	1.105495	0.136456	0.151843
H72	H	1.133196	-0.002734	-0.062488
N73	N	0.882852	0.124987	-0.168765
N74	N	0.966732	0.098739	-0.225304
H75	H	0.942173	0.069621	-0.282972
H76	H	1.087341	0.236306	0.092678
H77	H	0.868720	0.232665	-0.091072
H78	H	0.868927	0.234830	0.086867
