data_functionalizedCrystal
_audit_creation_method	'MofGen! by Chris Wilmer'
_symmetry_space_group_name_H-M	'P1'
_symmetry_Int_Tables_number	1
_symmetry_cell_setting	triclinic
loop_
_symmetry_equiv_pos_as_xyz
  x,y,z
_cell_length_a	27.732048
_cell_length_b	27.732048
_cell_length_c	12.503572
_cell_angle_alpha	93.489054
_cell_angle_beta	86.516589
_cell_angle_gamma	82.642655
loop_
_atom_site_label
_atom_site_type_symbol
_atom_site_fract_x
_atom_site_fract_y
_atom_site_fract_z
O1	O	0.643731	0.054704	-0.089192
O2	O	0.977065	0.388037	0.244141
O3	O	1.310398	0.721370	0.577474
O4	O	0.502939	0.063448	-0.089227
O5	O	0.836272	0.396781	0.244107
O6	O	1.169606	0.730115	0.577440
O7	O	0.577707	-0.011320	-0.089188
O8	O	0.911041	0.322013	0.244145
O9	O	1.244374	0.655347	0.577479
O10	O	0.568963	0.129472	-0.089231
O11	O	0.902297	0.462805	0.244102
O12	O	1.235630	0.796139	0.577436
O13	O	0.572084	-0.005688	0.089451
O14	O	0.905418	0.327645	0.422784
O15	O	1.238751	0.660979	0.756118
O16	O	0.497316	0.069080	0.089412
O17	O	0.830649	0.402414	0.422746
O18	O	1.163983	0.735747	0.756079
O19	O	0.638108	0.060336	0.089447
O20	O	0.971442	0.393669	0.422780
O21	O	1.304775	0.727003	0.756113
Cu22	Cu	0.567199	0.065222	0.105741
Cu23	Cu	0.900532	0.398556	0.439074
Cu24	Cu	1.233865	0.731889	0.772407
Cu25	Cu	0.573849	0.058562	-0.105521
Cu26	Cu	0.907182	0.391895	0.227813
Cu27	Cu	1.240515	0.725228	0.561146
O28	O	0.563340	0.135104	0.089408
O29	O	0.896673	0.468438	0.422741
O30	O	1.230007	0.801771	0.756075
C31	C	0.482121	0.066081	0.000089
C32	C	0.815454	0.399414	0.333422
C33	C	1.148787	0.732747	0.666755
C34	C	0.428466	0.065527	0.000077
C35	C	0.761800	0.398861	0.333410
C36	C	1.095133	0.732194	0.666743
C37	C	0.574712	-0.026511	0.000134
C38	C	0.908045	0.306823	0.333468
C39	C	1.241379	0.640156	0.666801
C40	C	0.574159	-0.080165	0.000143
C41	C	0.907492	0.253168	0.333476
C42	C	1.240826	0.586501	0.666810
C43	C	0.089650	0.106232	0.000111
C44	C	0.422983	0.439566	0.333444
C45	C	0.756317	0.772899	0.666777
C46	C	-0.112010	0.104182	0.000121
C47	C	0.221324	0.437515	0.333454
C48	C	0.554657	0.770848	0.666788
O49	O	-0.143267	0.141403	0.000156
O50	O	0.190067	0.474737	0.333489
O51	O	0.523400	0.808070	0.666823
N52	N	-0.131134	0.059847	0.000133
N53	N	0.202199	0.393180	0.333466
N54	N	0.535533	0.726513	0.666799
C55	C	-0.099840	0.016022	0.000149
C56	C	0.233494	0.349355	0.333482
C57	C	0.566827	0.682688	0.666815
O58	O	-0.120734	-0.021735	0.000170
O59	O	0.212600	0.311599	0.333503
O60	O	0.545933	0.644932	0.666837
C61	C	0.101819	0.018073	0.000146
C62	C	0.435152	0.351406	0.333480
C63	C	0.768486	0.684740	0.666813
C64	C	0.120940	0.062410	0.000124
C65	C	0.454274	0.395744	0.333457
C66	C	0.787607	0.729077	0.666790
C67	C	0.108772	0.150566	0.000089
C68	C	0.442105	0.483899	0.333423
C69	C	0.775439	0.817233	0.666756
C70	C	0.159184	0.151078	0.000081
C71	C	0.492518	0.484411	0.333414
C72	C	0.825851	0.817745	0.666748
C73	C	0.190475	0.107256	0.000094
C74	C	0.523808	0.440590	0.333427
C75	C	0.857141	0.773923	0.666761
C76	C	0.171353	0.062922	0.000115
C77	C	0.504686	0.396256	0.333449
C78	C	0.838019	0.729589	0.666782
C79	C	0.133112	-0.025751	0.000170
C80	C	0.466445	0.307582	0.333503
C81	C	0.799779	0.640915	0.666837
C82	C	0.183529	-0.025234	0.000172
C83	C	0.516862	0.308099	0.333505
C84	C	0.850196	0.641432	0.666839
C85	C	0.202651	0.019103	0.000150
C86	C	0.535984	0.352436	0.333483
C87	C	0.869317	0.685770	0.666816
C88	C	0.253055	0.019613	0.000120
C89	C	0.586388	0.352946	0.333453
C90	C	0.919722	0.686279	0.666786
N91	N	0.272179	0.063948	0.000108
N92	N	0.605512	0.397281	0.333442
N93	N	0.938846	0.730614	0.666775
C94	C	0.240889	0.107769	0.000095
C95	C	0.574222	0.441103	0.333429
C96	C	0.907556	0.774436	0.666762
C97	C	-0.205714	0.014948	0.000148
C98	C	0.127619	0.348281	0.333481
C99	C	0.460953	0.681614	0.666815
C100	C	-0.256128	0.014435	0.000147
C101	C	0.077205	0.347768	0.333480
C102	C	0.410538	0.681101	0.666813
C103	C	-0.268295	0.102595	0.000121
C104	C	0.065038	0.435928	0.333454
C105	C	0.398372	0.769261	0.666788
C106	C	-0.217879	0.103107	0.000115
C107	C	0.115454	0.436440	0.333448
C108	C	0.448787	0.769774	0.666781
C109	C	-0.186590	0.059283	0.000136
C110	C	0.146744	0.392616	0.333470
C111	C	0.480077	0.725949	0.666803
C112	C	0.346759	0.108841	0.000077
C113	C	0.680092	0.442175	0.333410
C114	C	1.013425	0.775508	0.666743
C115	C	0.397176	0.109349	0.000064
C116	C	0.730509	0.442683	0.333397
C117	C	1.063843	0.776016	0.666730
C118	C	0.409338	0.021189	0.000095
C119	C	0.742671	0.354523	0.333429
C120	C	1.076005	0.687856	0.666762
C121	C	0.358925	0.020681	0.000102
C122	C	0.692259	0.354014	0.333436
C123	C	1.025592	0.687348	0.666769
C124	C	0.327636	0.064511	0.000097
C125	C	0.660970	0.397844	0.333430
C126	C	0.994303	0.731178	0.666763
O127	O	0.284340	-0.017589	0.000097
O128	O	0.617673	0.315745	0.333430
O129	O	0.951006	0.649078	0.666763
O130	O	0.261791	0.145521	0.000098
O131	O	0.595125	0.478854	0.333431
O132	O	0.928458	0.812187	0.666765
C133	C	0.039238	0.105720	0.000119
C134	C	0.372571	0.439054	0.333453
C135	C	0.705905	0.772387	0.666786
C136	C	0.020116	0.061386	0.000141
C137	C	0.353449	0.394720	0.333474
C138	C	0.686783	0.728053	0.666807
C139	C	0.051406	0.017565	0.000153
C140	C	0.384740	0.350898	0.333487
C141	C	0.718073	0.684231	0.666820
C142	C	-0.030298	0.060873	0.000139
C143	C	0.303035	0.394207	0.333473
C144	C	0.636368	0.727540	0.666806
C145	C	-0.061589	0.104695	0.000126
C146	C	0.271745	0.438029	0.333460
C147	C	0.605078	0.771362	0.666793
C148	C	-0.042465	0.149030	0.000115
C149	C	0.290869	0.482363	0.333448
C150	C	0.624202	0.815697	0.666781
C151	C	0.007948	0.149542	0.000106
C152	C	0.341281	0.482875	0.333440
C153	C	0.674614	0.816209	0.666773
C154	C	0.032282	-0.026770	0.000165
C155	C	0.365615	0.306563	0.333498
C156	C	0.698949	0.639896	0.666832
C157	C	-0.018131	-0.027279	0.000172
C158	C	0.315203	0.306055	0.333506
C159	C	0.648536	0.639388	0.666839
C160	C	-0.049421	0.016543	0.000159
C161	C	0.283912	0.349876	0.333493
C162	C	0.617246	0.683210	0.666826
C163	C	0.614864	-0.418982	0.000098
C164	C	0.948198	-0.085649	0.333431
C165	C	1.281531	0.247685	0.666764
C166	C	0.612814	-0.620642	0.000082
C167	C	0.946147	-0.287309	0.333416
C168	C	1.279480	0.046025	0.666749
O169	O	0.650036	-0.651899	0.000044
O170	O	0.983369	-0.318566	0.333378
O171	O	1.316702	0.014768	0.666711
N172	N	0.568479	-0.639766	0.000073
N173	N	0.901812	-0.306433	0.333406
N174	N	1.235146	0.026901	0.666739
C175	C	0.524654	-0.608472	0.000060
C176	C	0.857987	-0.275138	0.333393
C177	C	1.191320	0.058195	0.666726
O178	O	0.486897	-0.629366	0.000040
O179	O	0.820231	-0.296032	0.333373
O180	O	1.153564	0.037301	0.666707
C181	C	0.526705	-0.406813	0.000067
C182	C	0.860038	-0.073480	0.333401
C183	C	1.193372	0.259854	0.666734
C184	C	0.571042	-0.387692	0.000088
C185	C	0.904376	-0.054358	0.333421
C186	C	1.237709	0.278975	0.666755
C187	C	0.659198	-0.399860	0.000117
C188	C	0.992531	-0.066527	0.333451
C189	C	1.325865	0.266807	0.666784
C190	C	0.659710	-0.349448	0.000127
C191	C	0.993043	-0.016114	0.333460
C192	C	1.326377	0.317219	0.666794
C193	C	0.615888	-0.318157	0.000117
C194	C	0.949222	0.015176	0.333451
C195	C	1.282555	0.348509	0.666784
C196	C	0.571554	-0.337279	0.000098
C197	C	0.904888	-0.003946	0.333431
C198	C	1.238221	0.329387	0.666764
C199	C	0.482881	-0.375520	0.000047
C200	C	0.816214	-0.042187	0.333380
C201	C	1.149547	0.291147	0.666714
C202	C	0.483397	-0.325103	0.000046
C203	C	0.816731	0.008231	0.333379
C204	C	1.150064	0.341564	0.666713
C205	C	0.527735	-0.305981	0.000067
C206	C	0.861068	0.027352	0.333400
C207	C	1.194401	0.360685	0.666733
C208	C	0.528244	-0.255577	0.000098
C209	C	0.861578	0.077757	0.333431
C210	C	1.194911	0.411090	0.666765
N211	N	0.572579	-0.236453	0.000108
N212	N	0.905913	0.096881	0.333441
N213	N	1.239246	0.430214	0.666774
C214	C	0.616401	-0.267743	0.000117
C215	C	0.949735	0.065590	0.333451
C216	C	1.283068	0.398924	0.666784
C217	C	0.523580	-0.714346	0.000058
C218	C	0.856913	-0.381013	0.333391
C219	C	1.190246	-0.047679	0.666724
C220	C	0.523067	-0.764760	0.000058
C221	C	0.856400	-0.431427	0.333391
C222	C	1.189733	-0.098094	0.666724
C223	C	0.611227	-0.776927	0.000078
C224	C	0.944560	-0.443594	0.333412
C225	C	1.277894	-0.110261	0.666745
C226	C	0.611739	-0.726512	0.000086
C227	C	0.945073	-0.393178	0.333419
C228	C	1.278406	-0.059845	0.666753
C229	C	0.567915	-0.695222	0.000067
C230	C	0.901248	-0.361889	0.333401
C231	C	1.234581	-0.028555	0.666734
C232	C	0.617473	-0.161873	0.000139
C233	C	0.950806	0.171460	0.333472
C234	C	1.284140	0.504794	0.666805
C235	C	0.617981	-0.111456	0.000153
C236	C	0.951314	0.221878	0.333486
C237	C	1.284648	0.555211	0.666819
C238	C	0.529821	-0.099294	0.000126
C239	C	0.863154	0.234040	0.333460
C240	C	1.196488	0.567373	0.666793
C241	C	0.529313	-0.149706	0.000118
C242	C	0.862646	0.183627	0.333451
C243	C	1.195979	0.516960	0.666785
C244	C	0.573143	-0.180996	0.000120
C245	C	0.906476	0.152338	0.333454
C246	C	1.239809	0.485671	0.666787
O247	O	0.491043	-0.224292	0.000124
O248	O	0.824376	0.109041	0.333457
O249	O	1.157710	0.442375	0.666790
O250	O	0.654153	-0.246841	0.000113
O251	O	0.987486	0.086493	0.333446
O252	O	1.320819	0.419826	0.666780
C253	C	0.614352	-0.469394	0.000088
C254	C	0.947686	-0.136061	0.333421
C255	C	1.281019	0.197272	0.666755
C256	C	0.570018	-0.488516	0.000069
C257	C	0.903352	-0.155183	0.333402
C258	C	1.236685	0.178151	0.666735
C259	C	0.526197	-0.457226	0.000059
C260	C	0.859530	-0.123892	0.333392
C261	C	1.192863	0.209441	0.666726
C262	C	0.569505	-0.538930	0.000069
C263	C	0.902839	-0.205597	0.333402
C264	C	1.236172	0.127736	0.666735
C265	C	0.613327	-0.570221	0.000078
C266	C	0.946661	-0.236888	0.333412
C267	C	1.279994	0.096446	0.666745
C268	C	0.657662	-0.551097	0.000088
C269	C	0.990996	-0.217763	0.333421
C270	C	1.324329	0.115570	0.666755
C271	C	0.658174	-0.500685	0.000098
C272	C	0.991508	-0.167351	0.333431
C273	C	1.324841	0.165982	0.666764
C274	C	0.481862	-0.476350	0.000049
C275	C	0.815195	-0.143016	0.333383
C276	C	1.148528	0.190317	0.666716
C277	C	0.481353	-0.526763	0.000041
C278	C	0.814687	-0.193429	0.333374
C279	C	1.148020	0.139904	0.666707
C280	C	0.525175	-0.558053	0.000050
C281	C	0.858508	-0.224720	0.333384
C282	C	1.191842	0.108614	0.666717
C283	C	0.658927	0.057703	0.000129
C284	C	0.992260	0.391037	0.333462
C285	C	1.325593	0.724370	0.666795
C286	C	0.712582	0.058256	0.000134
C287	C	1.045915	0.391590	0.333467
C288	C	1.379248	0.724923	0.666800
C289	C	0.566335	0.150295	0.000083
C290	C	0.899669	0.483628	0.333417
C291	C	1.233002	0.816962	0.666750
C292	C	0.566889	0.203949	0.000067
C293	C	0.900222	0.537283	0.333401
C294	C	1.233555	0.870616	0.666734
N295	N	0.562525	0.069907	0.254331
N296	N	0.895858	0.403240	0.587664
N297	N	1.229192	0.736574	0.920997
N298	N	0.578526	0.053873	-0.254111
N299	N	0.911860	0.387207	0.079223
N300	N	1.245193	0.720540	0.412556
C301	C	0.555650	0.076802	0.473442
C302	C	0.888983	0.410136	0.806776
C303	C	1.222316	0.743469	1.140109
C304	C	0.585400	0.046980	0.526785
C305	C	0.918733	0.380313	0.860118
C306	C	1.252067	0.713646	1.193451
C307	C	0.581574	0.050816	0.648706
C308	C	0.914908	0.384150	0.982039
C309	C	1.248241	0.717483	1.315373
C310	C	0.559475	0.072966	0.351510
C311	C	0.892808	0.406300	0.684843
C312	C	1.226141	0.739633	1.018177
H313	H	0.412742	0.145455	0.000045
H314	H	0.746075	0.478789	0.333378
H315	H	1.079408	0.812122	0.666711
H316	H	0.343357	-0.015423	0.000105
H317	H	0.676690	0.317911	0.333438
H318	H	1.010023	0.651244	0.666772
H319	H	-0.067950	0.184711	0.000100
H320	H	0.265383	0.518044	0.333433
H321	H	0.598717	0.851378	0.666767
H322	H	0.527309	0.105214	0.519335
H323	H	0.860642	0.438547	0.852668
H324	H	1.193976	0.771880	1.186002
H325	H	0.486962	-0.780324	0.000060
H326	H	0.820296	-0.446990	0.333393
H327	H	1.153629	-0.113657	0.666726
Br328	Br	0.671913	-0.700567	0.000116
Br329	Br	1.005247	-0.367233	0.333450
Br330	Br	1.338580	-0.033900	0.666783
H331	H	0.646909	-0.802413	0.000087
H332	H	0.980242	-0.469079	0.333420
H333	H	1.313575	-0.135746	0.666753
Br334	Br	0.632843	-0.000175	0.450292
Br335	Br	0.966176	0.333158	0.783625
Br336	Br	1.299510	0.666491	1.116959
H337	H	0.117552	-0.061855	0.000189
H338	H	0.450886	0.271478	0.333523
H339	H	0.784219	0.604811	0.666856
H340	H	0.487890	-0.688874	0.000043
H341	H	0.821224	-0.355540	0.333376
H342	H	1.154557	-0.022207	0.666709
Br343	Br	0.451813	-0.038280	0.000115
Br344	Br	0.785146	0.295053	0.333449
Br345	Br	1.118479	0.628387	0.666782
Br346	Br	0.718350	-0.474743	0.000119
Br347	Br	1.051683	-0.141409	0.333453
Br348	Br	1.385017	0.191924	0.666786
H349	H	0.446176	-0.450877	0.000039
H350	H	0.779509	-0.117544	0.333372
H351	H	1.112842	0.215789	0.666706
H352	H	0.321288	0.144532	0.000075
H353	H	0.654622	0.477865	0.333409
H354	H	0.987955	0.811199	0.666742
H355	H	0.693343	-0.576582	0.000101
H356	H	1.026677	-0.243249	0.333434
H357	H	1.360010	0.090084	0.666767
Br358	Br	0.185126	0.211254	0.000055
Br359	Br	0.518460	0.544587	0.333389
Br360	Br	0.851793	0.877920	0.666722
Br361	Br	0.033890	0.209717	0.000074
Br362	Br	0.367223	0.543051	0.333407
Br363	Br	0.700557	0.876384	0.666740
H364	H	0.083300	0.186253	0.000083
H365	H	0.416633	0.519587	0.333416
H366	H	0.749966	0.852920	0.666750
Br367	Br	-0.191934	0.163281	0.000084
Br368	Br	0.141399	0.496614	0.333418
Br369	Br	0.474732	0.829948	0.666751
H370	H	-0.271692	-0.021670	0.000148
H371	H	0.061642	0.311664	0.333482
H372	H	0.394975	0.644997	0.666815
Br373	Br	-0.310770	0.162067	0.000105
Br374	Br	0.022564	0.495400	0.333438
Br375	Br	0.355897	0.828734	0.666771
H376	H	0.446777	-0.391079	0.000024
H377	H	0.780110	-0.057746	0.333357
H378	H	1.113443	0.275587	0.666690
H379	H	0.694885	-0.425332	0.000121
H380	H	1.028219	-0.091999	0.333455
H381	H	1.361552	0.241334	0.666788
H382	H	0.209003	-0.060923	0.000191
H383	H	0.542337	0.272411	0.333524
H384	H	0.875670	0.605744	0.666857
Br385	Br	-0.163256	-0.044535	0.000178
Br386	Br	0.170077	0.288799	0.333511
Br387	Br	0.503411	0.622132	0.666844
Br388	Br	0.678157	-0.085509	0.000182
Br389	Br	1.011490	0.247825	0.333515
Br390	Br	1.344824	0.581158	0.666849
H391	H	0.057754	-0.062456	0.000178
H392	H	0.391088	0.270877	0.333512
H393	H	0.724421	0.604211	0.666845
Br394	Br	-0.044073	-0.087457	0.000185
Br395	Br	0.289260	0.245876	0.333518
Br396	Br	0.622593	0.579209	0.666851
H397	H	0.695814	-0.333884	0.000139
H398	H	1.029148	-0.000551	0.333473
H399	H	1.362481	0.332782	0.666806
Br400	Br	0.676957	-0.204329	0.000141
Br401	Br	1.010290	0.129004	0.333474
Br402	Br	1.343624	0.462337	0.666807
Br403	Br	0.423918	-0.282641	0.000016
Br404	Br	0.757251	0.050693	0.333349
Br405	Br	1.090584	0.384026	0.666683
H406	H	0.445245	-0.542325	0.000033
H407	H	0.778579	-0.208992	0.333367
H408	H	1.111912	0.124341	0.666700
H409	H	0.493209	-0.165275	0.000131
H410	H	0.826542	0.168059	0.333464
H411	H	1.159875	0.501392	0.666798
H412	H	0.494142	-0.073808	0.000122
H413	H	0.827476	0.259525	0.333456
H414	H	1.160809	0.592859	0.666789
