data_functionalizedCrystal
_audit_creation_method	'MofGen! by Chris Wilmer'
_symmetry_space_group_name_H-M	'P1'
_symmetry_Int_Tables_number	1
_symmetry_cell_setting	triclinic
loop_
_symmetry_equiv_pos_as_xyz
  x,y,z
_cell_length_a	14.044191
_cell_length_b	10.654550
_cell_length_c	9.730223
_cell_angle_alpha	89.999807
_cell_angle_beta	90.002006
_cell_angle_gamma	88.838340
loop_
_atom_site_label
_atom_site_type_symbol
_atom_site_fract_x
_atom_site_fract_y
_atom_site_fract_z
O1	O	1.259695	0.303022	-0.114217
O2	O	0.983653	0.292080	-0.114234
O3	O	1.128021	0.115450	-0.114220
O4	O	1.115328	0.479652	-0.114231
O5	O	1.128019	0.115454	0.114360
O6	O	0.983652	0.292084	0.114346
O7	O	1.259693	0.303027	0.114363
Zn8	Zn	1.121672	0.297556	0.150647
Zn9	Zn	1.121675	0.297550	-0.150517
O10	O	1.115326	0.479657	0.114349
C11	C	1.127088	0.068560	0.000068
C12	C	1.124300	-0.071163	0.000063
C13	C	0.948307	0.287295	0.000054
C14	C	0.842987	0.273016	0.000047
C15	C	1.209301	-0.142104	0.000073
C16	C	1.206675	-0.273389	0.000063
C17	C	1.034039	-0.262779	0.000040
C18	C	1.036666	-0.131497	0.000040
C19	C	1.296934	-0.081770	0.000096
C20	C	1.381943	-0.152712	0.000108
C21	C	1.379317	-0.283997	0.000098
C22	C	1.291683	-0.344340	0.000077
C23	C	0.593195	0.348181	0.000058
C24	C	0.650158	0.246931	0.000059
C25	C	0.757458	0.261448	0.000052
C26	C	0.485885	0.333666	0.000065
C27	C	1.295040	0.307812	0.000073
C28	C	1.400360	0.322091	0.000070
C29	C	1.116259	0.526546	0.000058
C30	C	1.119047	0.666270	0.000054
N31	N	1.121678	0.297561	0.356183
N32	N	1.121677	0.297537	-0.356054
C33	C	1.185620	0.219379	0.428115
C34	C	1.185618	0.219364	0.571998
C35	C	1.057727	0.375721	0.572004
C36	C	1.057726	0.375730	0.428123
C37	C	1.249572	0.141211	0.356175
C38	C	1.313521	0.063024	0.428107
C39	C	1.313518	0.063009	0.571990
C40	C	1.249567	0.141179	0.643941
H41	H	1.453291	-0.103572	0.000090
H42	H	1.005657	0.439391	0.369556
H43	H	1.448535	-0.341754	0.000093
N44	N	0.608026	0.117662	0.000047
H45	H	0.629807	0.070446	0.084778
H46	H	0.536243	0.125579	-0.000005
H47	H	0.625010	0.445759	0.000051
H48	H	1.005662	0.439366	0.630595
H49	H	0.967451	-0.073735	0.000034
N50	N	1.249568	0.141233	0.200989
H51	H	1.314131	0.166800	0.166338
H52	H	1.235177	0.054271	0.166427
N53	N	1.249571	0.141171	0.799129
H54	H	1.199362	0.202560	0.833789
H55	H	1.235247	0.054182	0.833674
N56	N	1.382471	-0.021300	0.350494
H57	H	1.424784	0.031462	0.290800
H58	H	1.422913	-0.070830	0.417974
N59	N	1.299766	0.059828	0.000107
H60	H	1.368177	0.087287	0.000121
H61	H	1.266469	0.093436	-0.084638
N62	N	1.288847	-0.485940	0.000047
H63	H	1.355994	-0.521728	0.000049
H64	H	1.254282	-0.515386	0.084779
N65	N	0.939525	-0.327857	0.000021
H66	H	0.950760	-0.421789	0.000026
H67	H	0.902290	-0.302593	0.084756
H68	H	1.365581	-0.000663	0.630556
