data_functionalizedCrystal
_audit_creation_method	'MofGen! by Chris Wilmer'
_symmetry_space_group_name_H-M	'P1'
_symmetry_Int_Tables_number	1
_symmetry_cell_setting	triclinic
loop_
_symmetry_equiv_pos_as_xyz
  x,y,z
_cell_length_a	23.532407
_cell_length_b	19.288865
_cell_length_c	18.366186
_cell_angle_alpha	90.011479
_cell_angle_beta	89.988493
_cell_angle_gamma	97.007538
loop_
_atom_site_label
_atom_site_type_symbol
_atom_site_fract_x
_atom_site_fract_y
_atom_site_fract_z
O1	O	0.755438	-0.084319	-0.060599
O2	O	1.255438	0.415681	0.439401
O3	O	0.589600	-0.096519	-0.060592
O4	O	1.089600	0.403481	0.439408
O5	O	0.677311	0.010726	-0.060581
O6	O	1.177311	0.510726	0.439419
O7	O	0.667727	-0.191564	-0.060610
O8	O	1.167727	0.308436	0.439390
O9	O	0.677296	0.010731	0.060518
O10	O	1.177296	0.510731	0.560518
O11	O	0.589585	-0.096514	0.060507
O12	O	1.089585	0.403486	0.560507
O13	O	0.755423	-0.084314	0.060501
O14	O	1.255423	0.415686	0.560501
Zn15	Zn	0.672502	-0.090413	0.079731
Zn16	Zn	1.172502	0.409587	0.579731
Zn17	Zn	0.672521	-0.090420	-0.079823
Zn18	Zn	1.172521	0.409580	0.420177
O19	O	0.667712	-0.191559	0.060490
O20	O	1.167712	0.308441	0.560490
C21	C	0.568376	-0.096206	-0.000042
C22	C	1.068376	0.403794	0.499958
C23	C	0.505157	-0.095272	-0.000039
C24	C	1.005157	0.404728	0.499961
C25	C	0.676995	0.036604	-0.000029
C26	C	1.176995	0.536604	0.499971
C27	C	0.676069	0.113705	-0.000023
C28	C	1.176069	0.613705	0.499977
C29	C	0.776647	-0.084627	-0.000052
C30	C	1.276647	0.415373	0.499948
C31	C	0.839866	-0.085561	-0.000059
C32	C	1.339866	0.414439	0.499941
C33	C	1.238850	-0.027954	-0.000026
C34	C	1.738850	0.472046	0.499974
C35	C	1.298252	-0.028822	-0.000023
C36	C	1.798252	0.471178	0.499977
O37	O	1.334886	0.024580	0.000011
O38	O	1.834886	0.524580	0.500011
N39	N	1.321010	-0.092579	-0.000034
N40	N	1.821010	0.407421	0.499966
C41	C	1.284363	-0.155473	-0.000041
C42	C	1.784363	0.344527	0.499959
O43	O	1.309175	-0.209783	-0.000049
O44	O	1.809175	0.290217	0.499951
C45	C	1.224962	-0.154604	-0.000039
C46	C	1.724962	0.345396	0.499961
C47	C	1.202207	-0.090843	-0.000035
C48	C	1.702207	0.409157	0.499965
C49	C	1.216094	0.035802	-0.000022
C50	C	1.716094	0.535802	0.499978
C51	C	1.156696	0.036669	-0.000026
C52	C	1.656696	0.536669	0.499974
C53	C	1.120054	-0.026220	-0.000035
C54	C	1.620054	0.473780	0.499965
C55	C	1.142809	-0.089976	-0.000040
C56	C	1.642809	0.410024	0.499960
C57	C	1.188316	-0.217497	-0.000040
C58	C	1.688316	0.282503	0.499960
C59	C	1.128912	-0.216623	-0.000038
C60	C	1.628912	0.283377	0.499962
C61	C	1.106157	-0.152862	-0.000034
C62	C	1.606157	0.347138	0.499966
C63	C	1.046769	-0.151997	-0.000053
C64	C	1.546769	0.348003	0.499947
N65	N	1.024011	-0.088240	-0.000042
N66	N	1.524011	0.411760	0.499958
C67	C	1.060653	-0.025351	-0.000033
C68	C	1.560653	0.474649	0.499967
C69	C	1.409109	-0.157292	-0.000044
C70	C	1.909109	0.342708	0.499956
C71	C	1.468509	-0.158161	-0.000051
C72	C	1.968509	0.341839	0.499949
C73	C	1.482394	-0.031510	-0.000032
C74	C	1.982394	0.468490	0.499968
C75	C	1.422993	-0.030641	-0.000030
C76	C	1.922993	0.469359	0.499970
C77	C	1.386351	-0.093535	-0.000033
C78	C	1.886351	0.406465	0.499967
C79	C	0.935913	-0.023534	-0.000043
C80	C	1.435913	0.476466	0.499957
C81	C	0.876509	-0.022672	-0.000050
C82	C	1.376509	0.477328	0.499950
C83	C	0.862629	-0.149323	-0.000066
C84	C	1.362629	0.350677	0.499934
C85	C	0.922028	-0.150185	-0.000062
C86	C	1.422028	0.349815	0.499938
C87	C	0.958669	-0.087285	-0.000048
C88	C	1.458669	0.412715	0.499952
O89	O	1.010100	-0.205371	-0.000084
O90	O	1.510100	0.294629	0.499916
O91	O	1.035833	0.028950	-0.000015
O92	O	1.535833	0.528950	0.499985
C93	C	0.668028	-0.217437	-0.000064
C94	C	1.168028	0.282563	0.499936
C95	C	0.668954	-0.294538	-0.000075
C96	C	1.168954	0.205462	0.499925
N97	N	0.672493	-0.090408	0.188622
N98	N	1.172493	0.409592	0.688622
C99	C	0.727534	0.158560	-0.000021
C100	C	1.227534	0.658560	0.499979
C101	C	0.726664	0.231004	-0.000033
C102	C	1.226664	0.731004	0.499967
C103	C	0.674327	0.258590	-0.000031
C104	C	1.174327	0.758590	0.499969
C105	C	0.622855	0.213725	-0.000037
C106	C	1.122855	0.713725	0.499963
C107	C	0.623727	0.141283	-0.000033
C108	C	1.123727	0.641283	0.499967
C109	C	0.633179	0.366753	0.042389
C110	C	1.133179	0.866753	0.542389
C111	C	0.632310	0.439194	0.042389
C112	C	1.132310	0.939194	0.542389
C113	C	0.671638	0.482028	-0.000048
C114	C	1.171638	0.982028	0.499952
C115	C	0.711845	0.452412	-0.042475
C116	C	1.211845	0.952412	0.457525
C117	C	0.712716	0.379969	-0.042471
C118	C	1.212716	0.879969	0.457529
C119	C	0.673377	0.337141	-0.000036
C120	C	1.173377	0.837141	0.499964
C121	C	0.722163	0.605436	-0.000059
C122	C	1.222163	1.105436	0.499941
C123	C	0.721292	0.677881	-0.000075
C124	C	1.221292	1.177881	0.499925
C125	C	0.617481	0.660601	-0.000072
C126	C	1.117481	1.160601	0.499928
C127	C	0.618354	0.588157	-0.000064
C128	C	1.118354	1.088157	0.499936
C129	C	0.670697	0.560579	-0.000054
C130	C	1.170697	1.060579	0.499946
N131	N	0.672535	-0.090420	-0.188714
N132	N	1.172535	0.409580	0.311286
C133	C	0.711344	-0.042943	0.226727
C134	C	1.211344	0.457057	0.726727
C135	C	0.711347	-0.042940	0.302955
C136	C	1.211347	0.457060	0.802955
C137	C	0.672505	-0.090414	0.341075
C138	C	1.172505	0.409586	0.841075
C139	C	0.633647	-0.137882	0.302960
C140	C	1.133647	0.362118	0.802960
C141	C	0.633640	-0.137880	0.226734
C142	C	1.133640	0.362120	0.726734
C143	C	0.664881	-0.153725	0.461826
C144	C	1.164881	0.346275	0.961826
C145	C	0.664892	-0.153729	0.538051
C146	C	1.164892	0.346271	1.038051
C147	C	0.672521	-0.090422	0.576182
C148	C	1.172521	0.409578	1.076182
C149	C	0.680153	-0.027109	0.538079
C150	C	1.180153	0.472891	1.038079
C151	C	0.680147	-0.027107	0.461853
C152	C	1.180147	0.472893	0.961853
C153	C	0.672507	-0.090422	0.423730
C154	C	1.172507	0.409578	0.923730
C155	C	0.711378	-0.042950	0.696943
C156	C	1.211378	0.457050	1.196943
C157	C	0.711378	-0.042946	0.773172
C158	C	1.211378	0.457054	1.273172
C159	C	0.633680	-0.137895	0.773176
C160	C	1.133680	0.362105	1.273176
C161	C	0.633678	-0.137893	0.696948
C162	C	1.133678	0.362107	1.196948
C163	C	0.672530	-0.090421	0.658836
C164	C	1.172530	0.409579	1.158836
H165	H	0.965739	0.027685	-0.000032
H166	H	1.465739	0.527685	0.499968
H167	H	0.580242	0.236191	-0.000037
H168	H	1.080242	0.736191	0.499963
H169	H	0.743014	-0.004291	0.804198
H170	H	1.243014	0.495709	1.304198
H171	H	0.768575	0.267532	-0.000034
H172	H	1.268575	0.767532	0.499966
H173	H	0.764784	0.582981	-0.000055
H174	H	1.264784	1.082981	0.499945
H175	H	1.404471	0.021279	-0.000026
H176	H	1.904471	0.521279	0.499974
N177	N	0.568212	0.092905	-0.000023
N178	N	1.068212	0.592905	0.499977
H179	H	0.566256	0.062478	0.044873
H180	H	1.066256	0.562478	0.544873
H181	H	0.566295	0.062495	-0.044940
H182	H	1.066295	0.562495	0.455060
H183	H	1.138175	0.088590	-0.000020
H184	H	1.638175	0.588590	0.499980
N185	N	0.656655	-0.222012	0.420707
N186	N	1.156655	0.277988	0.920707
H187	H	0.691229	-0.225914	0.389066
H188	H	1.191229	0.274086	0.889066
H189	H	0.621377	-0.223709	0.389135
H190	H	1.121377	0.276291	0.889135
H191	H	1.512239	0.019698	-0.000025
H192	H	2.012239	0.519698	0.499975
N193	N	0.753279	0.008250	0.655829
N194	N	1.253279	0.508250	1.155829
H195	H	0.777889	0.038324	0.691539
H196	H	1.277889	0.538324	1.191539
H197	H	0.731555	0.038822	0.624216
H198	H	1.231555	0.538822	1.124216
H199	H	1.487030	-0.210082	-0.000065
H200	H	1.987030	0.289918	0.499935
N201	N	0.756077	0.348024	-0.088229
N202	N	1.256077	0.848024	0.411771
H203	H	0.780862	0.386146	-0.115114
H204	H	1.280862	0.886146	0.384886
H205	H	0.735484	0.314471	-0.124464
H206	H	1.235484	0.814471	0.375536
H207	H	1.379278	-0.208510	-0.000052
H208	H	1.879278	0.291490	0.499948
N209	N	0.591736	-0.189083	0.185637
N210	N	1.091736	0.310917	0.685637
H211	H	0.613415	-0.219704	0.153996
H212	H	1.113415	0.280296	0.653996
H213	H	0.566598	-0.162646	0.154068
H214	H	1.066598	0.337354	0.654068
N215	N	0.851969	0.046103	-0.000035
N216	N	1.351969	0.546103	0.499965
H217	H	0.808778	0.037114	-0.000039
H218	H	1.308778	0.537114	0.499961
H219	H	0.865394	0.073604	-0.044922
H220	H	1.365394	0.573604	0.455078
N221	N	0.591781	-0.189095	0.814279
N222	N	1.091781	0.310905	1.314279
H223	H	0.597678	-0.181894	0.868351
H224	H	1.097678	0.318106	1.368351
H225	H	0.598228	-0.238331	0.800941
H226	H	1.098228	0.261669	1.300941
N227	N	0.754270	0.498599	-0.088248
N228	N	1.254270	0.998599	0.411752
H229	H	0.747617	0.548985	-0.081817
H230	H	1.247617	1.048985	0.418183
H231	H	0.749105	0.485035	-0.141166
H232	H	1.249105	0.985035	0.358834
H233	H	1.206832	-0.269419	-0.000047
H234	H	1.706832	0.230581	0.499953
N235	N	0.590754	0.320556	0.088158
N236	N	1.090754	0.820556	0.588158
H237	H	0.565155	0.350309	0.115038
H238	H	1.065155	0.850309	0.615038
H239	H	0.612068	0.293995	0.124398
H240	H	1.112068	0.793995	0.624398
H241	H	0.742978	-0.004287	0.195699
H242	H	1.242978	0.495713	0.695699
H243	H	1.099080	-0.267840	-0.000037
H244	H	1.599080	0.232160	0.499963
H245	H	0.770156	0.136111	-0.000016
H246	H	1.270156	0.636111	0.499984
N247	N	0.688394	0.041173	0.579201
N248	N	1.188394	0.541173	1.079201
H249	H	0.726649	0.067754	0.565928
H250	H	1.226649	0.567754	1.065928
H251	H	0.687212	0.031501	0.633257
H252	H	1.187212	0.531501	1.133257
H253	H	0.602044	-0.176546	0.665920
H254	H	1.102044	0.323454	1.165920
H255	H	0.742985	-0.004287	0.333986
H256	H	1.242985	0.495713	0.833986
N257	N	0.688375	0.041174	0.420754
N258	N	1.188375	0.541174	0.920754
H259	H	0.693210	0.081281	0.456471
H260	H	1.193210	0.581281	0.956471
H261	H	0.653786	0.045015	0.389142
H262	H	1.153786	0.545015	0.889142
N263	N	1.255611	0.103638	-0.000006
N264	N	1.755611	0.603638	0.499994
H265	H	1.232173	0.144152	-0.000002
H266	H	1.732173	0.644152	0.499998
H267	H	1.280565	0.106040	-0.044900
H268	H	1.780565	0.606040	0.455100
N269	N	0.946576	-0.218953	-0.000069
N270	N	1.446576	0.281047	0.499931
H271	H	0.970923	-0.222141	-0.044957
H272	H	1.470923	0.277859	0.455043
H273	H	0.914316	-0.258621	-0.000051
H274	H	1.414316	0.241379	0.499949
N275	N	0.823102	-0.217151	-0.000079
N276	N	1.323102	0.282849	0.499921
H277	H	0.782021	-0.206920	-0.000077
H278	H	1.282021	0.293080	0.499923
H279	H	0.830443	-0.244951	0.044813
H280	H	1.330443	0.255049	0.544813
H281	H	0.763202	0.714402	-0.000078
H282	H	1.263202	1.214402	0.499922
N283	N	0.656658	-0.222012	0.579146
N284	N	1.156658	0.277988	1.079146
H285	H	0.651814	-0.262115	0.543425
H286	H	1.151814	0.237885	1.043425
H287	H	0.621410	-0.223674	0.610784
H288	H	1.121410	0.276326	1.110784
H289	H	0.602020	-0.176535	0.334001
H290	H	1.102020	0.323465	0.834001
H291	H	0.599568	0.463301	0.076932
H292	H	1.099568	0.963301	0.576932
H293	H	0.574867	0.683060	-0.000075
H294	H	1.074867	1.183060	0.499925
H295	H	0.576446	0.551635	-0.000061
H296	H	1.076446	1.051635	0.499939
