data_functionalizedCrystal
_audit_creation_method	'MofGen! by Chris Wilmer'
_symmetry_space_group_name_H-M	'P1'
_symmetry_Int_Tables_number	1
_symmetry_cell_setting	triclinic
loop_
_symmetry_equiv_pos_as_xyz
  x,y,z
_cell_length_a	16.109301
_cell_length_b	16.992695
_cell_length_c	15.186229
_cell_angle_alpha	89.995943
_cell_angle_beta	89.999362
_cell_angle_gamma	87.064852
loop_
_atom_site_label
_atom_site_type_symbol
_atom_site_fract_x
_atom_site_fract_y
_atom_site_fract_z
O1	O	1.109856	0.100784	-0.073174
O2	O	1.609856	0.600784	0.426826
O3	O	0.868631	0.113326	-0.073188
O4	O	1.368631	0.613326	0.426812
O5	O	0.988276	-0.007088	-0.073174
O6	O	1.488276	0.492912	0.426826
O7	O	0.990210	0.221197	-0.073188
O8	O	1.490210	0.721197	0.426812
O9	O	0.988268	-0.007089	0.073284
O10	O	1.488268	0.492911	0.573284
O11	O	0.868622	0.113324	0.073270
O12	O	1.368622	0.613324	0.573270
O13	O	1.109847	0.100782	0.073284
O14	O	1.609847	0.600782	0.573284
Zn15	Zn	0.989233	0.107053	0.096530
Zn16	Zn	1.489233	0.607053	0.596530
Zn17	Zn	0.989245	0.107055	-0.096434
Zn18	Zn	1.489245	0.607055	0.403566
O19	O	0.990202	0.221196	0.073270
O20	O	1.490202	0.721196	0.573270
C21	C	0.837618	0.112817	0.000039
C22	C	1.337618	0.612817	0.500039
C23	C	0.745221	0.111294	0.000034
C24	C	1.245221	0.611294	0.500034
C25	C	0.527480	0.179203	0.000040
C26	C	1.027480	0.679203	0.500040
C27	C	0.440664	0.177766	0.000046
C28	C	0.940664	0.677766	0.500046
C29	C	0.451005	0.034899	0.000051
C30	C	0.951005	0.534899	0.500051
C31	C	0.537819	0.036337	0.000051
C32	C	1.037819	0.536337	0.500051
C33	C	0.576055	0.108492	0.000042
C34	C	1.076055	0.608492	0.500042
C35	C	0.402424	0.105616	0.000047
C36	C	0.902424	0.605616	0.500047
C37	C	0.308294	0.104057	0.000053
C38	C	0.808294	0.604057	0.500053
C39	C	0.670191	0.110051	0.000037
C40	C	1.170191	0.610051	0.500037
C41	C	0.985784	-0.036300	0.000055
C42	C	1.485784	0.463700	0.500055
C43	C	0.978361	-0.123343	0.000054
C44	C	1.478361	0.376657	0.500054
C45	C	1.049987	-0.173601	0.000059
C46	C	1.549987	0.326399	0.500059
C47	C	1.043007	-0.255386	0.000050
C48	C	1.543007	0.244614	0.500050
C49	C	0.964400	-0.286911	0.000043
C50	C	1.464400	0.213089	0.500043
C51	C	0.892768	-0.236645	0.000035
C52	C	1.392768	0.263355	0.500035
C53	C	0.899749	-0.154862	0.000038
C54	C	1.399749	0.345138	0.500038
C55	C	0.935467	-0.530501	0.000029
C56	C	1.435467	-0.030501	0.500029
C57	C	0.928491	-0.612291	0.000029
C58	C	1.428491	-0.112291	0.500029
C59	C	1.078731	-0.631026	0.000043
C60	C	1.578731	-0.131026	0.500043
C61	C	1.085704	-0.549240	0.000051
C62	C	1.585704	-0.049240	0.500051
C63	C	1.014073	-0.498982	0.000038
C64	C	1.514073	0.001018	0.500038
N65	N	0.957263	-0.370508	0.000037
N66	N	1.457263	0.129492	0.500037
N67	N	1.021210	-0.415387	0.000038
N68	N	1.521210	0.084613	0.500038
C69	C	1.140860	0.101291	0.000055
C70	C	1.640860	0.601291	0.500055
C71	C	1.233257	0.102814	0.000054
C72	C	1.733257	0.602814	0.500054
C73	C	0.992694	0.250408	0.000039
C74	C	1.492694	0.750408	0.500039
C75	C	1.000118	0.337451	0.000034
C76	C	1.500118	0.837451	0.500034
N77	N	0.989232	0.107051	0.228223
N78	N	1.489232	0.607051	0.728223
N79	N	0.989253	0.107051	-0.228127
N80	N	1.489253	0.607051	0.271873
C81	C	1.042231	0.053750	0.453952
C82	C	1.542231	0.553750	0.953952
C83	C	1.042234	0.053748	0.546141
C84	C	1.542234	0.553748	1.046141
C85	C	0.936247	0.160355	0.546138
C86	C	1.436247	0.660355	1.046138
C87	C	0.936241	0.160352	0.453950
C88	C	1.436241	0.660352	0.953950
C89	C	0.989238	0.107051	0.407859
C90	C	1.489238	0.607051	0.907859
C91	C	0.989246	0.107051	0.592237
C92	C	1.489246	0.607051	1.092237
C93	C	0.989249	0.107050	0.692193
C94	C	1.489249	0.607050	1.192193
C95	C	0.989235	0.107051	0.307897
C96	C	1.489235	0.607051	0.807897
H97	H	1.113997	-0.147941	0.000071
H98	H	1.613997	0.352059	0.500071
O99	O	1.093672	0.001866	0.590818
O100	O	1.593672	0.501866	1.090818
C101	C	1.074990	-0.075757	0.568314
C102	C	1.574990	0.424243	1.068314
H103	H	1.042946	-0.075669	0.501382
H104	H	1.542946	0.424331	1.001382
H105	H	1.134919	-0.114353	0.565158
H106	H	1.634919	0.385647	1.065158
H107	H	1.032000	-0.100018	0.620203
H108	H	1.532000	0.399982	1.120203
H109	H	0.893100	0.203753	0.583674
H110	H	1.393100	0.703753	1.083674
O111	O	0.413821	-0.035167	-0.000104
O112	O	0.913821	0.464833	0.499896
C113	C	0.363900	-0.040260	-0.075946
C114	C	0.863900	0.459740	0.424054
H115	H	0.387132	0.000712	-0.128961
H116	H	0.887132	0.500712	0.371039
H117	H	0.367488	-0.103452	-0.101407
H118	H	0.867488	0.396548	0.398593
H119	H	0.296716	-0.022159	-0.058800
H120	H	0.796716	0.477841	0.441200
O121	O	0.884735	0.212208	0.409306
O122	O	1.384735	0.712208	0.909306
C123	C	0.837950	0.259246	0.469753
C124	C	1.337950	0.759246	0.969753
H125	H	0.872097	0.260147	0.535466
H126	H	1.372097	0.760147	1.035466
H127	H	0.829424	0.321858	0.443106
H128	H	1.329424	0.821858	0.943106
H129	H	0.774500	0.233769	0.479566
H130	H	1.274500	0.733769	0.979566
H131	H	0.841423	-0.113942	0.000033
H132	H	1.341423	0.386058	0.500033
O133	O	0.816391	-0.267229	-0.000131
O134	O	1.316391	0.232771	0.499869
C135	C	0.772397	-0.241525	-0.075975
C136	C	1.272397	0.258475	0.424025
H137	H	0.818273	-0.224521	-0.128987
H138	H	1.318273	0.275479	0.371013
H139	H	0.733737	-0.291058	-0.101439
H140	H	1.233737	0.208942	0.398561
H141	H	0.729608	-0.188213	-0.058830
H142	H	1.229608	0.311787	0.441170
O143	O	0.393515	0.246477	-0.000115
O144	O	0.893515	0.746477	0.499885
C145	C	0.411600	0.290292	-0.075960
C146	C	0.911600	0.790292	0.424040
H147	H	0.438487	0.248891	-0.128974
H148	H	0.938487	0.748891	0.371026
H149	H	0.352162	0.321751	-0.101421
H150	H	0.852162	0.821751	0.398579
H151	H	0.458771	0.335665	-0.058816
H152	H	0.958771	0.835665	0.441184
O153	O	0.584887	-0.032429	0.000013
O154	O	1.084887	0.467571	0.500013
C155	C	0.532526	-0.096422	0.000036
C156	C	1.032526	0.403578	0.500036
H157	H	0.469125	-0.076509	-0.027695
H158	H	0.969125	0.423491	0.472305
H159	H	0.561230	-0.145963	-0.042482
H160	H	1.061230	0.354037	0.457518
H161	H	0.524882	-0.118541	0.070299
H162	H	1.024882	0.381459	0.570299
H163	H	1.101332	-0.296304	0.000056
H164	H	1.601332	0.203696	0.500056
H165	H	0.877139	-0.489590	0.000019
H166	H	1.377139	0.010410	0.500019
H167	H	1.149714	-0.523580	0.000057
H168	H	1.649714	-0.023580	0.500057
H169	H	0.864477	-0.637954	0.000037
H170	H	1.364477	-0.137954	0.500037
O171	O	0.564660	0.249272	-0.000119
O172	O	1.064660	0.749272	0.499881
C173	C	0.614583	0.254377	-0.075961
C174	C	1.114583	0.754377	0.424039
H175	H	0.591357	0.213409	-0.128976
H176	H	1.091357	0.713409	0.371024
H177	H	0.610992	0.317572	-0.101422
H178	H	1.110992	0.817572	0.398578
H179	H	0.681768	0.236278	-0.058812
H180	H	1.181768	0.736278	0.441188
O181	O	1.148224	-0.679958	0.000008
O182	O	1.648224	-0.179958	0.500008
C183	C	1.125212	-0.758903	0.000026
C184	C	1.625212	-0.258903	0.500026
H185	H	1.059702	-0.762020	-0.027703
H186	H	1.559702	-0.262020	0.472297
H187	H	1.170536	-0.795963	-0.042495
H188	H	1.670536	-0.295963	0.457505
H189	H	1.126791	-0.782562	0.070288
H190	H	1.626791	-0.282562	0.570288
O191	O	1.093569	0.001906	0.409101
O192	O	1.593569	0.501906	0.909101
C193	C	1.045796	-0.046489	0.355831
C194	C	1.545796	0.453511	0.855831
H195	H	0.982833	-0.015247	0.342001
H196	H	1.482833	0.484753	0.842001
H197	H	1.079665	-0.058938	0.291011
H198	H	1.579665	0.441062	0.791011
H199	H	1.036259	-0.104414	0.391402
H200	H	1.536259	0.395586	0.891402
