data_functionalizedCrystal
_audit_creation_method	'MofGen! by Chris Wilmer'
_symmetry_space_group_name_H-M	'P1'
_symmetry_Int_Tables_number	1
_symmetry_cell_setting	triclinic
loop_
_symmetry_equiv_pos_as_xyz
  x,y,z
_cell_length_a	10.723023
_cell_length_b	14.044190
_cell_length_c	9.798715
_cell_angle_alpha	89.992011
_cell_angle_beta	89.996770
_cell_angle_gamma	88.829662
loop_
_atom_site_label
_atom_site_type_symbol
_atom_site_fract_x
_atom_site_fract_y
_atom_site_fract_z
O1	O	1.670502	0.133036	-0.113494
O2	O	1.308624	0.145772	-0.113502
O3	O	1.484127	0.001384	-0.113471
O4	O	1.495000	0.277424	-0.113525
O5	O	1.484113	0.001384	0.113511
O6	O	1.308610	0.145771	0.113481
O7	O	1.670488	0.133036	0.113488
Zn8	Zn	1.489547	0.139404	0.149523
Zn9	Zn	1.489565	0.139404	-0.149536
O10	O	1.494985	0.277424	0.113458
C11	C	1.262025	0.144845	-0.000011
C12	C	1.123193	0.142073	-0.000013
C13	C	1.061290	0.140836	0.117570
C14	C	0.917800	0.137971	0.117571
C15	C	1.479363	-0.033962	0.000024
C16	C	1.465175	-0.139280	0.000036
C17	C	1.539861	-0.389081	-0.000016
C18	C	1.439257	-0.332106	-0.000009
C19	C	1.453681	-0.224808	0.000016
C20	C	1.525438	-0.496389	-0.000041
C21	C	1.717087	0.133963	-0.000005
C22	C	1.855919	0.136735	-0.000013
C23	C	1.499749	0.312769	-0.000040
C24	C	1.513937	0.418088	-0.000061
N25	N	1.489543	0.139403	0.353622
N26	N	1.489578	0.139398	-0.353636
C27	C	1.563205	0.078511	0.421412
C28	C	1.563225	0.078508	0.578575
H29	H	1.069961	0.141007	-0.100679
O30	O	1.323669	-0.370198	0.000044
C31	C	1.334807	-0.470404	-0.000012
H32	H	1.429714	-0.492893	0.042953
H33	H	1.257960	-0.501373	0.065883
H34	H	1.325752	-0.497975	-0.108912
O35	O	1.638394	0.016180	0.647963
C36	C	1.607298	-0.077813	0.613196
H37	H	1.559247	-0.077994	0.509424
H38	H	1.695800	-0.124069	0.608445
H39	H	1.541706	-0.107383	0.693604
O40	O	1.414136	0.201500	0.423118
C41	C	1.288712	0.185528	0.388303
H42	H	1.279338	0.109629	0.348944
H43	H	1.227377	0.196067	0.482345
H44	H	1.257998	0.237972	0.305469
H45	H	1.636816	-0.357277	-0.000000
H46	H	1.626251	0.026378	0.363100
O47	O	1.414474	0.201729	0.576898
C48	C	1.445522	0.295722	0.611723
H49	H	1.545532	0.296692	0.651072
H50	H	1.436693	0.343186	0.517687
H51	H	1.379448	0.323293	0.694567
O52	O	1.124740	0.141933	0.237705
C53	C	1.097923	0.059301	0.313054
H54	H	1.065473	0.001265	0.240719
H55	H	1.185451	0.033485	0.369060
H56	H	1.021165	0.076333	0.390310
O57	O	0.854258	0.136531	0.237639
C58	C	0.783770	0.053027	0.244936
H59	H	0.826660	-0.003504	0.174783
H60	H	0.783838	0.025464	0.354372
H61	H	0.683818	0.069595	0.211556
H62	H	0.909146	0.137804	-0.100685
