data_functionalizedCrystal
_audit_creation_method	'MofGen! by Chris Wilmer'
_symmetry_space_group_name_H-M	'P1'
_symmetry_Int_Tables_number	1
_symmetry_cell_setting	triclinic
loop_
_symmetry_equiv_pos_as_xyz
  x,y,z
_cell_length_a	16.959455
_cell_length_b	11.169416
_cell_length_c	11.169417
_cell_angle_alpha	90.003977
_cell_angle_beta	90.005932
_cell_angle_gamma	90.007287
loop_
_atom_site_label
_atom_site_type_symbol
_atom_site_fract_x
_atom_site_fract_y
_atom_site_fract_z
Zn1	Zn	1.208372	-0.478126	0.678625
Zn2	Zn	1.208336	-0.678773	0.477948
Zn3	Zn	1.076220	-0.478091	0.477952
Zn4	Zn	1.076187	-0.678755	0.678585
O5	O	1.142279	-0.578436	0.578277
O6	O	1.318978	-0.504764	0.652020
O7	O	1.190809	-0.652144	0.309999
O8	O	1.093778	-0.310146	0.504591
O9	O	1.318952	-0.652178	0.504583
O10	O	1.190870	-0.310172	0.652025
O11	O	1.093744	-0.504705	0.310002
O12	O	0.965604	-0.504688	0.504551
O13	O	1.093723	-0.652149	0.846540
O14	O	0.965581	-0.652115	0.651955
O15	O	1.190839	-0.504748	0.846570
O16	O	1.190778	-0.846720	0.504544
O17	O	1.093689	-0.846707	0.651951
C18	C	0.936912	-0.578397	0.578250
C19	C	0.849056	-0.578409	0.578267
C20	C	1.142247	-0.890261	0.578268
C21	C	1.142306	-1.023661	0.578305
C22	C	0.477568	-0.501608	0.501685
C23	C	0.477592	-0.655363	0.654939
C24	C	0.560138	-0.655346	0.654932
C25	C	0.601403	-0.578460	0.578298
C26	C	0.560122	-0.501591	0.501672
C27	C	0.601426	-0.732222	0.731548
C28	C	0.683977	-0.732209	0.731542
C29	C	0.725243	-0.655316	0.654914
C30	C	0.683956	-0.578443	0.578286
C31	C	0.725221	-0.501557	0.501653
C32	C	0.683936	-0.424677	0.425030
C33	C	0.601388	-0.424698	0.425044
C34	C	0.807791	-0.655295	0.654900
C35	C	0.807775	-0.501540	0.501641
C36	C	1.348447	-0.578477	0.578306
C37	C	1.436303	-0.578494	0.578318
C38	C	1.142281	-0.578450	0.891320
C39	C	1.142283	-0.578456	1.024720
C40	C	1.142332	-0.265394	0.578313
C41	C	1.142354	-0.131994	0.578328
C42	C	1.142273	-0.578454	1.266453
C43	C	1.142280	-0.578461	1.133053
H44	H	0.841367	-0.438922	0.439243
H45	H	0.443950	-0.439012	0.439303
C46	C	0.556030	-0.816794	0.815835
N47	N	0.521834	-0.880495	0.879325
H48	H	0.717584	-0.794808	0.793934
H49	H	0.567766	-0.362109	0.362661
H50	H	0.717545	-0.362082	0.362630
H51	H	0.443990	-0.717967	0.717323
C52	C	0.853201	-0.739857	0.739180
N53	N	0.887402	-0.803551	0.802667
