data_functionalizedCrystal
_audit_creation_method	'MofGen! by Chris Wilmer'
_symmetry_space_group_name_H-M	'P1'
_symmetry_Int_Tables_number	1
_symmetry_cell_setting	triclinic
loop_
_symmetry_equiv_pos_as_xyz
  x,y,z
_cell_length_a	19.288864
_cell_length_b	23.532357
_cell_length_c	18.366186
_cell_angle_alpha	89.988209
_cell_angle_beta	89.977106
_cell_angle_gamma	82.982267
loop_
_atom_site_label
_atom_site_type_symbol
_atom_site_fract_x
_atom_site_fract_y
_atom_site_fract_z
O1	O	0.921118	0.071047	-0.060792
O2	O	0.718826	0.080631	-0.060743
O3	O	0.826090	-0.007082	-0.060754
O4	O	0.813854	0.158760	-0.060781
O5	O	0.826072	-0.007086	0.060345
O6	O	0.718808	0.080627	0.060356
O7	O	0.921100	0.071043	0.060308
Zn8	Zn	0.819951	0.075834	0.079559
Zn9	Zn	0.819975	0.075840	-0.079995
O10	O	0.813836	0.158756	0.060318
C11	C	0.692941	0.080320	-0.000187
C12	C	0.615841	0.079395	-0.000168
C13	C	0.825775	-0.028301	-0.000202
C14	C	0.824855	-0.091522	-0.000195
C15	C	0.570975	0.130861	-0.000188
C16	C	0.498530	0.129991	-0.000196
C17	C	0.470956	0.077652	-0.000198
C18	C	0.515832	0.026180	-0.000174
C19	C	0.588274	0.027051	-0.000159
C20	C	0.362836	0.036510	-0.042643
C21	C	0.290394	0.035641	-0.042662
C22	C	0.247519	0.074963	-0.000242
C23	C	0.277093	0.115164	0.042189
C24	C	0.349535	0.116036	0.042204
C25	C	0.392405	0.076702	-0.000214
C26	C	0.124100	0.125490	-0.000269
C27	C	0.051655	0.124618	-0.000273
C28	C	0.068958	0.020805	-0.000259
C29	C	0.141401	0.021678	-0.000248
C30	C	0.168968	0.074022	-0.000257
C31	C	0.819088	-0.483543	-0.066244
C32	C	0.818213	-0.542944	-0.066248
O33	O	0.817745	-0.573659	-0.122388
N34	N	0.817769	-0.572659	-0.000238
C35	C	0.818193	-0.542968	0.065781
O36	O	0.817735	-0.573697	0.121928
C37	C	0.819063	-0.483567	0.065784
C38	C	0.819514	-0.453857	-0.000230
C39	C	0.819538	-0.453832	-0.132254
C40	C	0.820414	-0.394435	-0.132249
C41	C	0.820840	-0.364749	-0.066236
C42	C	0.820390	-0.394460	-0.000226
C43	C	0.819482	-0.453877	0.131802
C44	C	0.820351	-0.394472	0.131800
C45	C	0.820802	-0.364762	0.065785
C46	C	0.821692	-0.305376	0.065792
N47	N	0.822136	-0.275662	-0.000219
C48	C	0.821710	-0.305348	-0.066233
C49	C	0.816366	-0.667713	0.065769
C50	C	0.815501	-0.727113	0.065767
C51	C	0.815519	-0.727085	-0.066262
C52	C	0.816389	-0.667685	-0.066259
C53	C	0.816809	-0.637999	-0.000241
C54	C	0.823550	-0.180610	-0.066219
C55	C	0.824429	-0.121208	-0.066209
C56	C	0.824407	-0.121241	0.065820
C57	C	0.823531	-0.180638	0.065811
C58	C	0.823101	-0.210321	-0.000215
O59	O	0.822157	-0.274623	0.121903
O60	O	0.822159	-0.274611	-0.122370
C61	C	0.946985	0.071353	-0.000250
C62	C	1.024085	0.072279	-0.000274
C63	C	0.814151	0.179975	-0.000235
C64	C	0.815071	0.243196	-0.000247
N65	N	0.819940	0.075830	0.188450
N66	N	0.819992	0.075839	-0.188886
C67	C	0.867452	0.037009	0.226546
C68	C	0.867456	0.037007	0.302774
C69	C	0.819955	0.075834	0.340903
C70	C	0.772434	0.114658	0.302798
C71	C	0.772427	0.114655	0.226572
C72	C	0.810486	0.127727	0.461656
C73	C	0.810498	0.127730	0.537881
C74	C	0.819975	0.075842	0.576010
C75	C	0.829454	0.023948	0.537905
C76	C	0.829446	0.023946	0.461679
C77	C	0.819958	0.075841	0.423558
C78	C	0.867494	0.037015	0.696761
C79	C	0.867494	0.037012	0.772990
C80	C	0.772475	0.114668	0.773013
C81	C	0.772472	0.114666	0.696785
C82	C	0.819986	0.075841	0.658664
H83	H	0.593414	0.173483	-0.000196
F84	F	0.918061	-0.004311	0.813536
F85	F	0.823091	-0.212193	-0.136490
H86	H	0.819188	-0.477996	-0.186013
F87	F	0.153441	0.181198	-0.000273
H88	H	0.242185	0.147184	0.076732
H89	H	0.820778	-0.370250	-0.186005
H90	H	0.624805	-0.014860	-0.000143
H91	H	0.733736	0.146268	0.195554
F92	F	0.721907	0.155987	0.656238
H93	H	0.802784	0.169985	0.568900
H94	H	0.816755	-0.643498	-0.120014
F95	F	0.721917	0.155987	0.813590
F96	F	0.450772	0.184770	-0.000215
H97	H	0.815170	-0.751267	-0.120014
H98	H	0.820683	-0.370304	0.185561
F99	F	0.408461	-0.005346	-0.087795
F100	F	0.839528	-0.031282	0.421128
F101	F	0.815034	-0.758729	0.136029
H102	H	0.373611	0.148767	0.076755
F103	F	0.800449	0.182959	0.421083
F104	F	0.721878	0.155979	0.343378
H105	H	0.015124	0.166530	-0.000285
H106	H	0.046507	-0.021810	-0.000306
F107	F	0.823064	-0.212261	0.136071
H108	H	0.177933	-0.020231	-0.000236
H109	H	0.266321	0.002909	-0.077215
H110	H	0.816710	-0.643547	0.119533
F111	F	0.824910	-0.089592	-0.136474
F112	F	0.486484	-0.029523	-0.000174
H113	H	0.819116	-0.478057	0.185559
H114	H	0.824757	-0.097060	0.119567
F115	F	0.918028	-0.004313	0.343324
F116	F	0.918016	-0.004314	0.185976
H117	H	0.837170	-0.018305	0.568949
H118	H	0.906181	0.005399	0.665721
