data_functionalizedCrystal
_audit_creation_method	'MofGen! by Chris Wilmer'
_symmetry_space_group_name_H-M	'P1'
_symmetry_Int_Tables_number	1
_symmetry_cell_setting	triclinic
loop_
_symmetry_equiv_pos_as_xyz
  x,y,z
_cell_length_a	16.120490
_cell_length_b	16.120484
_cell_length_c	13.897441
_cell_angle_alpha	92.865635
_cell_angle_beta	87.082329
_cell_angle_gamma	90.164100
loop_
_atom_site_label
_atom_site_type_symbol
_atom_site_fract_x
_atom_site_fract_y
_atom_site_fract_z
Zn1	Zn	1.254497	-0.395643	-0.642066
Zn2	Zn	1.587830	-0.062310	-0.308732
Zn3	Zn	1.921164	0.271024	0.024601
Zn4	Zn	1.247335	-0.534710	-0.488495
Zn5	Zn	1.580668	-0.201377	-0.155162
Zn6	Zn	1.914002	0.131956	0.178172
Zn7	Zn	1.115431	-0.388611	-0.472224
Zn8	Zn	1.448764	-0.055278	-0.138890
Zn9	Zn	1.782097	0.278056	0.194443
Zn10	Zn	1.108349	-0.527588	-0.641187
Zn11	Zn	1.441682	-0.194255	-0.307853
Zn12	Zn	1.775016	0.139079	0.025480
O13	O	1.181403	-0.461638	-0.560993
O14	O	1.514736	-0.128305	-0.227660
O15	O	1.848070	0.205029	0.105674
O16	O	1.369913	-0.420014	-0.628872
O17	O	1.703246	-0.086681	-0.295538
O18	O	2.036580	0.246653	0.037795
O19	O	1.229804	-0.515368	-0.351355
O20	O	1.563137	-0.182034	-0.018022
O21	O	1.896471	0.151299	0.315311
O22	O	1.139839	-0.273181	-0.488312
O23	O	1.473173	0.060152	-0.154979
O24	O	1.806506	0.393485	0.178355
O25	O	1.364651	-0.522186	-0.516044
O26	O	1.697984	-0.188853	-0.182711
O27	O	2.031318	0.144480	0.150623
O28	O	1.242011	-0.278348	-0.613094
O29	O	1.575344	0.054986	-0.279761
O30	O	1.908677	0.388319	0.053573
O31	O	1.132894	-0.408029	-0.339401
O32	O	1.466228	-0.074696	-0.006067
O33	O	1.799561	0.258637	0.327266
O34	O	0.998125	-0.401123	-0.487460
O35	O	1.331459	-0.067790	-0.154126
O36	O	1.664792	0.265543	0.179207
O37	O	1.127770	-0.510047	-0.776285
O38	O	1.461103	-0.176714	-0.442952
O39	O	1.794436	0.156619	-0.109618
O40	O	0.992923	-0.503229	-0.611596
O41	O	1.326256	-0.169896	-0.278263
O42	O	1.659589	0.163438	0.055071
O43	O	1.235144	-0.413108	-0.776931
O44	O	1.568477	-0.079775	-0.443597
O45	O	1.901811	0.253559	-0.110264
O46	O	1.222937	-0.650128	-0.515192
O47	O	1.556271	-0.316795	-0.181858
O48	O	1.889604	0.016539	0.151475
O49	O	1.120825	-0.644895	-0.627374
O50	O	1.454158	-0.311562	-0.294040
O51	O	1.787492	0.021771	0.039293
C52	C	0.965352	-0.450641	-0.547667
C53	C	1.298685	-0.117307	-0.214334
C54	C	1.632018	0.216026	0.118999
C55	C	0.872923	-0.445956	-0.541991
C56	C	1.206256	-0.112623	-0.208657
C57	C	1.539589	0.220711	0.124676
C58	C	1.170358	-0.677684	-0.572975
C59	C	1.503691	-0.344351	-0.239642
C60	C	1.837025	-0.011018	0.093691
C61	C	1.165709	-0.770114	-0.578139
C62	C	1.499042	-0.436780	-0.244805
C63	C	1.832376	-0.103447	0.088528
C64	C	0.659955	-0.485932	-0.590440
C65	C	0.993288	-0.152598	-0.257107
C66	C	1.326621	0.180735	0.076227
C67	C	0.703699	-0.437411	-0.531626
C68	C	1.037032	-0.104077	-0.198292
C69	C	1.370366	0.229256	0.135041
C70	C	0.797864	-0.442167	-0.537395
C71	C	1.131197	-0.108833	-0.204061
C72	C	1.464531	0.224500	0.129272
C73	C	0.565781	-0.481177	-0.584672
C74	C	0.899115	-0.147843	-0.251339
C75	C	1.232448	0.185490	0.081994
C76	C	1.157226	-0.939344	-0.587585
C77	C	1.490559	-0.606010	-0.254252
C78	C	1.823893	-0.272677	0.079082
C79	C	1.205729	-0.983100	-0.534426
C80	C	1.539062	-0.649766	-0.201092
C81	C	1.872396	-0.316433	0.132241
C82	C	1.201009	-1.077265	-0.539682
C83	C	1.534342	-0.743932	-0.206348
C84	C	1.867676	-0.410598	0.126985
C85	C	1.161945	-0.845170	-0.582330
C86	C	1.495278	-0.511836	-0.248997
C87	C	1.828611	-0.178503	0.084336
C88	C	1.398298	-0.472679	-0.574371
C89	C	1.731631	-0.139346	-0.241038
C90	C	2.064965	0.193988	0.092296
C91	C	1.490726	-0.477384	-0.580072
C92	C	1.824059	-0.144051	-0.246738
C93	C	2.157392	0.189283	0.086595
C94	C	1.181466	-0.461568	-0.812586
C95	C	1.514799	-0.128234	-0.479252
C96	C	1.848132	0.205099	-0.145919
C97	C	1.181492	-0.461538	-0.919799
C98	C	1.514826	-0.128204	-0.586466
C99	C	1.848159	0.205129	-0.253133
C100	C	1.192514	-0.244749	-0.548986
C101	C	1.525847	0.088584	-0.215653
C102	C	1.859180	0.421917	0.117681
C103	C	1.197249	-0.152324	-0.543869
C104	C	1.530582	0.181009	-0.210536
C105	C	1.863915	0.514342	0.122797
C106	C	1.181518	-0.461482	-1.116093
C107	C	1.514851	-0.128149	-0.782760
C108	C	1.848185	0.205184	-0.449426
C109	C	1.181501	-0.461515	-1.006861
C110	C	1.514834	-0.128182	-0.673528
C111	C	1.848168	0.205151	-0.340195
C112	C	1.181391	-0.461651	-0.310379
C113	C	1.514725	-0.128317	0.022955
C114	C	1.848058	0.205016	0.356288
C115	C	1.181538	-0.461455	-0.203162
C116	C	1.514871	-0.128121	0.130171
C117	C	1.848204	0.205212	0.463504
H118	H	0.670430	-0.392299	-0.476941
H119	H	1.003763	-0.058965	-0.143607
H120	H	1.337096	0.274368	0.189726
H121	H	0.693222	-0.531041	-0.645120
H122	H	1.026555	-0.197708	-0.311787
H123	H	1.359889	0.135626	0.021547
H124	H	1.250798	-0.949840	-0.484966
H125	H	1.584131	-0.616506	-0.151633
H126	H	1.917465	-0.283173	0.181701
H127	H	1.112159	-0.972601	-0.637039
H128	H	1.445493	-0.639268	-0.303706
H129	H	1.778826	-0.305935	0.029627
