data_functionalizedCrystal
_audit_creation_method	'MofGen! by Chris Wilmer'
_symmetry_space_group_name_H-M	'P1'
_symmetry_Int_Tables_number	1
_symmetry_cell_setting	triclinic
loop_
_symmetry_equiv_pos_as_xyz
  x,y,z
_cell_length_a	15.995292
_cell_length_b	15.944493
_cell_length_c	14.472310
_cell_angle_alpha	90.004804
_cell_angle_beta	89.985801
_cell_angle_gamma	83.471830
loop_
_atom_site_label
_atom_site_type_symbol
_atom_site_fract_x
_atom_site_fract_y
_atom_site_fract_z
O1	O	1.111010	0.108034	-0.076854
O2	O	0.867227	0.121456	-0.076849
O3	O	0.995801	-0.007535	-0.076859
O4	O	0.982436	0.237025	-0.076843
O5	O	0.995768	-0.007527	0.076823
O6	O	0.867193	0.121463	0.076833
O7	O	1.110977	0.108042	0.076828
Cu8	Cu	0.989082	0.114753	0.090863
Cu9	Cu	0.989122	0.114744	-0.090884
O10	O	0.982403	0.237032	0.076839
C11	C	0.836014	0.120913	-0.000007
C12	C	0.743062	0.119276	-0.000006
C13	C	0.405324	0.113255	-0.000017
C14	C	0.428623	0.206357	-0.000354
C15	C	0.525298	0.208127	-0.000003
C16	C	0.572880	0.116242	-0.000012
C17	C	0.543766	0.069700	0.087742
C18	C	0.446976	0.068579	0.087812
C19	C	0.447158	0.066670	-0.086954
C20	C	0.543650	0.070120	-0.088109
C21	C	0.667576	0.117926	-0.000006
C22	C	0.310629	0.111569	-0.000016
C23	C	0.995238	-0.038826	-0.000022
C24	C	0.993600	-0.132074	-0.000034
C25	C	1.069282	-0.367854	-0.000018
C26	C	1.028486	-0.418415	-0.075790
C27	C	0.990566	-0.302794	-0.000022
C28	C	1.028435	-0.418384	0.075729
C29	C	0.987641	-0.467703	-0.000007
C30	C	0.949791	-0.352127	-0.075857
C31	C	0.949752	-0.352092	0.075730
C32	C	0.908898	-0.402620	-0.000061
C33	C	0.992253	-0.207795	-0.000032
C34	C	0.985947	-0.562700	-0.000004
C35	C	1.142189	0.108584	-0.000015
C36	C	1.235142	0.110222	-0.000023
C37	C	0.982966	0.268323	-0.000000
C38	C	0.984603	0.361572	0.000005
N39	N	0.989061	0.114759	0.218694
N40	N	0.989150	0.114732	-0.218714
C41	C	0.989120	0.114741	0.592785
C42	C	0.920092	0.183530	0.553625
C43	C	0.920251	0.183781	0.446537
C44	C	0.989090	0.114750	0.407194
C45	C	1.076454	0.133875	0.446031
C46	C	1.076066	0.134364	0.553153
C47	C	0.971564	0.026623	0.553309
C48	C	0.969560	0.027211	0.446182
C49	C	0.989079	0.114753	0.302306
C50	C	0.989138	0.114739	0.697673
H51	H	0.544332	0.244572	-0.062911
C52	C	0.568756	0.115894	-0.175816
N53	N	0.587674	0.150371	-0.241875
C54	C	0.586859	-0.021633	0.092167
N55	N	0.619328	-0.090421	0.095506
C56	C	0.570829	0.113378	0.175978
N57	N	0.591208	0.146282	0.242435
C58	C	0.887351	0.001791	0.589842
N59	N	0.823917	-0.016903	0.617358
C60	C	0.390808	0.254838	-0.085371
N61	N	0.362320	0.291354	-0.149408
H62	H	1.137087	-0.352243	-0.000095
C63	C	0.832077	0.168410	0.588485
N64	N	0.765783	0.157024	0.614754
H65	H	0.931461	0.249172	0.420907
C66	C	0.389400	0.254573	0.084196
N67	N	0.359857	0.290887	0.147881
C68	C	0.882737	0.007604	0.411898
N69	N	0.817340	-0.007161	0.386072
H70	H	1.061743	-0.447373	-0.139851
C71	C	0.904936	-0.313189	-0.162498
N72	N	0.871155	-0.283860	-0.227757
H73	H	0.432435	0.000317	0.091792
H74	H	0.433176	-0.001860	-0.087553
H75	H	1.016573	-0.026375	0.419404
C76	C	0.409006	0.106074	-0.176813
N77	N	0.380271	0.135764	-0.244490
H78	H	1.129036	0.086236	0.579055
C79	C	1.039565	-0.042534	0.587525
N80	N	1.090785	-0.094617	0.613303
C81	C	0.817228	-0.423494	-0.000114
N82	N	0.748182	-0.439218	-0.000158
H83	H	0.916524	-0.323120	0.139794
H84	H	0.576632	0.003054	-0.093416
C85	C	0.935025	0.271374	0.589982
N86	N	0.946275	0.337538	0.617367
C87	C	1.073345	-0.457466	0.162271
N88	N	1.107176	-0.486900	0.227452
C89	C	0.832516	0.168406	0.411065
N90	N	0.766428	0.156831	0.384351
C91	C	1.096953	0.221186	0.586901
N92	N	1.112679	0.286585	0.612315
H93	H	1.092297	0.197405	0.419197
C94	C	0.550139	0.257662	0.085140
N95	N	0.568849	0.294971	0.149276
C96	C	0.410717	0.112150	0.176430
N97	N	0.383411	0.144974	0.243176
H98	H	1.129047	0.085104	0.420544
