data_functionalizedCrystal
_audit_creation_method	'MofGen! by Chris Wilmer'
_symmetry_space_group_name_H-M	'P1'
_symmetry_Int_Tables_number	1
_symmetry_cell_setting	triclinic
loop_
_symmetry_equiv_pos_as_xyz
  x,y,z
_cell_length_a	12.645331
_cell_length_b	15.297327
_cell_length_c	15.296720
_cell_angle_alpha	107.319222
_cell_angle_beta	80.338737
_cell_angle_gamma	80.294043
loop_
_atom_site_label
_atom_site_type_symbol
_atom_site_fract_x
_atom_site_fract_y
_atom_site_fract_z
Zn1	Zn	1.406801	0.461247	0.589842
Zn2	Zn	1.406681	0.589869	0.461236
Zn3	Zn	1.266632	0.434373	0.434359
Zn4	Zn	1.192395	0.616708	0.616679
O5	O	1.318127	0.525549	0.525529
O6	O	1.555126	0.478324	0.572799
O7	O	1.419121	0.546763	0.327547
O8	O	1.316345	0.307802	0.432504
O9	O	1.555038	0.572822	0.478313
O10	O	1.419326	0.327546	0.546737
O11	O	1.316228	0.432521	0.307801
O12	O	1.108443	0.458545	0.458527
O13	O	1.189818	0.618565	0.743243
O14	O	1.053902	0.592506	0.592477
O15	O	1.347342	0.504349	0.723526
O16	O	1.347137	0.723566	0.504336
O17	O	1.189702	0.743284	0.618539
C18	C	1.260374	0.767171	0.567287
C19	C	1.235757	0.870543	0.585182
C20	C	1.042709	0.525523	0.525499
C21	C	0.924874	0.525537	0.525511
C22	C	1.260313	0.567448	0.768068
C23	C	1.235676	0.585303	0.871423
C24	C	0.791571	0.441001	0.441583
C25	C	0.914161	0.441133	0.441300
C26	C	0.863358	0.618873	0.515680
C27	C	0.740970	0.618394	0.515124
C28	C	0.740143	0.517719	0.619709
C29	C	0.863402	0.515435	0.618783
C30	C	1.594620	0.525577	0.525561
C31	C	1.712445	0.525589	0.525574
C32	C	1.376130	0.282988	0.483629
C33	C	1.400847	0.179622	0.465774
C34	C	1.494433	1.120770	0.397948
C35	C	1.517563	1.023646	0.381130
C36	C	1.447114	0.985365	0.432141
C37	C	1.353530	1.044219	0.499974
C38	C	1.330393	1.141351	0.516788
C39	C	1.283074	1.005947	0.550982
C40	C	1.189490	1.064800	0.618814
C41	C	1.166358	1.161923	0.635626
C42	C	1.236807	1.200204	0.584615
C43	C	1.306211	0.908814	0.534167
C44	C	1.142171	0.929396	0.653008
C45	C	1.119041	1.026520	0.669826
C46	C	1.375794	0.483746	0.283923
C47	C	1.400699	0.465630	0.180523
C48	C	1.494291	0.397775	1.121703
C49	C	1.517445	0.381001	1.024596
C50	C	1.447005	0.432075	0.986298
C51	C	1.353406	0.499926	1.045117
C52	C	1.330255	0.516707	1.142234
C53	C	1.282968	0.551007	1.006829
C54	C	1.189370	0.618858	1.065648
C55	C	1.166222	0.635635	1.162756
C56	C	1.236662	0.584561	1.201054
C57	C	1.306120	0.534226	0.909711
C58	C	1.142083	0.653158	0.930242
C59	C	1.118929	0.669932	1.027350
H60	H	0.957598	0.371390	0.445519
H61	H	1.090146	1.209838	0.690849
H62	H	0.775538	0.371008	0.445584
H63	H	0.774151	0.444730	0.371878
H64	H	1.042720	0.725176	1.075253
O65	O	0.668273	0.599591	0.702336
H66	H	0.613078	0.645679	0.676543
O67	O	0.668356	0.703499	0.593835
H68	H	0.580482	0.703792	0.594031
H69	H	0.956926	0.444971	0.371197
H70	H	1.465951	0.906282	0.418443
O71	O	1.018093	1.089997	0.742973
H72	H	1.013839	1.163963	0.746083
O73	O	1.066182	0.888108	0.708023
H74	H	0.982364	0.904036	0.695232
O75	O	1.066093	0.708247	0.888950
H76	H	1.097907	0.685172	0.811539
O77	O	1.211856	1.304961	0.602742
H78	H	1.281221	1.333764	0.626013
H79	H	0.905883	0.628036	0.448201
H80	H	0.720190	0.451740	0.631919
O81	O	0.868572	0.703615	0.595151
H82	H	0.824514	0.768612	0.586553
H83	H	1.090015	0.690892	1.210645
O84	O	1.471963	0.413980	0.881560
H85	H	1.548874	0.358212	0.847092
O86	O	1.407065	0.461049	0.846274
H87	H	1.401893	0.391278	0.852300
H88	H	1.382407	0.860904	0.478937
O89	O	0.918360	0.424572	0.629026
H90	H	0.989166	0.386758	0.567949
O91	O	1.618390	0.307827	0.961156
H92	H	1.663479	0.275126	1.004099
H93	H	0.724465	0.627061	0.446810
O94	O	0.870833	0.592903	0.704292
H95	H	0.912747	0.561507	0.749755
H96	H	1.593757	0.975730	0.325900
H97	H	1.551777	1.151946	0.356416
H98	H	1.551638	0.356203	1.152897
H99	H	1.217815	0.598215	1.280126
