data_functionalizedCrystal
_audit_creation_method	'MofGen! by Chris Wilmer'
_symmetry_space_group_name_H-M	'P1'
_symmetry_Int_Tables_number	1
_symmetry_cell_setting	triclinic
loop_
_symmetry_equiv_pos_as_xyz
  x,y,z
_cell_length_a	15.995292
_cell_length_b	12.837942
_cell_length_c	11.295675
_cell_angle_alpha	85.464514
_cell_angle_beta	85.907039
_cell_angle_gamma	90.851222
loop_
_atom_site_label
_atom_site_type_symbol
_atom_site_fract_x
_atom_site_fract_y
_atom_site_fract_z
O1	O	1.116571	-0.140308	0.099054
O2	O	1.616571	0.359692	0.599054
O3	O	0.874111	-0.156871	0.099050
O4	O	1.374111	0.343129	0.599050
O5	O	0.989965	0.002312	0.099045
O6	O	1.489965	0.502312	0.599045
O7	O	1.000717	-0.299491	0.099060
O8	O	1.500717	0.200509	0.599060
O9	O	1.000116	0.016272	-0.099000
O10	O	1.500116	0.516272	0.401000
O11	O	0.884262	-0.142911	-0.098995
O12	O	1.384262	0.357089	0.401005
O13	O	1.126722	-0.126348	-0.098991
O14	O	1.626722	0.373652	0.401009
Cu15	Cu	1.006419	-0.133355	-0.117076
Cu16	Cu	1.506419	0.366645	0.382924
Cu17	Cu	0.994414	-0.149864	0.117135
Cu18	Cu	1.494414	0.350136	0.617135
O19	O	1.010868	-0.285532	-0.098986
O20	O	1.510868	0.214468	0.401014
C21	C	0.847937	-0.149217	0.000027
C22	C	1.347937	0.350783	0.500027
C23	C	0.754823	-0.147196	0.000025
C24	C	1.254823	0.352804	0.500025
C25	C	0.416491	-0.139767	0.000038
C26	C	0.916491	0.360233	0.500038
C27	C	0.448948	-0.254692	0.000485
C28	C	0.948948	0.245308	0.500485
C29	C	0.545821	-0.256844	0.000034
C30	C	1.045821	0.243156	0.500034
C31	C	0.584341	-0.143453	0.000032
C32	C	1.084341	0.356547	0.500032
C33	C	0.556453	-0.078040	-0.113060
C34	C	1.056453	0.421960	0.386940
C35	C	0.459557	-0.076650	-0.113150
C36	C	0.959557	0.423350	0.386850
C37	C	0.447971	-0.090179	0.112064
C38	C	0.947971	0.409821	0.612064
C39	C	0.544727	-0.094542	0.113554
C40	C	1.044727	0.405458	0.613554
C41	C	0.679204	-0.145530	0.000025
C42	C	1.179204	0.354470	0.500025
C43	C	0.321629	-0.137686	0.000037
C44	C	0.821629	0.362314	0.500037
C45	C	0.991408	0.047912	0.000023
C46	C	1.491408	0.547912	0.500023
C47	C	0.980575	0.162986	0.000024
C48	C	1.480575	0.662986	0.500024
C49	C	1.152896	-0.134003	0.000035
C50	C	1.652896	0.365997	0.500035
C51	C	1.246009	-0.136024	0.000045
C52	C	1.746009	0.363976	0.500045
C53	C	1.009425	-0.331131	0.000039
C54	C	1.509425	0.168869	0.500039
C55	C	1.020258	-0.446206	0.000045
C56	C	1.520258	0.053794	0.500045
N57	N	1.014868	-0.121743	-0.281808
N58	N	1.514868	0.378257	0.218192
C59	C	1.110812	0.403976	0.000052
C60	C	1.610812	0.903976	0.500052
C61	C	1.100637	0.512099	0.000054
C62	C	1.600637	1.012099	0.500054
C63	C	0.950049	0.487357	0.000038
C64	C	1.450049	0.987357	0.500038
C65	C	0.960224	0.379234	0.000037
C66	C	1.460224	0.879234	0.500037
C67	C	1.040608	0.337548	0.000042
C68	C	1.540608	0.837548	0.500042
C69	C	1.050783	0.229423	0.000031
C70	C	1.550783	0.729423	0.500031
C71	C	0.900196	0.204682	0.000024
C72	C	1.400196	0.704682	0.500024
C73	C	0.890021	0.312805	0.000026
C74	C	1.390021	0.812805	0.500026
C75	C	0.925055	-0.245112	-0.531147
C76	C	1.425055	0.254888	-0.031147
C77	C	0.931459	-0.236326	-0.655807
C78	C	1.431459	0.263674	-0.155807
C79	C	1.034084	-0.095393	-0.655790
C80	C	1.534084	0.404607	-0.155790
C81	C	1.027680	-0.104178	-0.531130
C82	C	1.527680	0.395822	-0.031130
C83	C	0.973163	-0.179039	-0.468813
C84	C	1.473163	0.320961	0.031187
C85	C	0.966755	-0.187818	-0.344150
C86	C	1.466755	0.312182	0.155850
C87	C	1.069384	-0.046890	-0.344136
C88	C	1.569384	0.453110	0.155864
C89	C	1.075788	-0.038105	-0.468796
C90	C	1.575788	0.461895	0.031204
N91	N	0.985971	-0.161468	0.281867
N92	N	1.485971	0.338532	0.781867
H93	H	0.420328	-0.304694	0.081590
H94	H	0.920328	0.195306	0.581590
H95	H	0.427576	-0.293047	-0.080158
H96	H	0.927576	0.206953	0.419842
Br97	Br	0.589458	-0.322730	-0.135315
Br98	Br	1.089458	0.177270	0.364685
Br99	Br	1.134668	0.042793	-0.259529
Br100	Br	1.634668	0.542793	0.240471
H101	H	1.157804	0.566182	0.000066
H102	H	1.657804	1.066182	0.500066
Br103	Br	0.866171	-0.326005	-0.740401
Br104	Br	1.366171	0.173995	-0.240401
H105	H	0.440247	-0.110473	-0.197687
H106	H	0.940247	0.389527	0.302313
H107	H	0.880659	-0.306059	-0.480407
H108	H	1.380659	0.193941	0.019593
H109	H	0.438548	0.007952	-0.118289
H110	H	0.938548	0.507952	0.381711
H111	H	1.176264	0.370036	0.000044
H112	H	1.676264	0.870036	0.500044
H113	H	0.824574	0.346761	0.000027
H114	H	1.324574	0.846761	0.500027
Br115	Br	0.576593	-0.341343	0.135156
Br116	Br	1.076593	0.158657	0.635156
Br117	Br	0.598817	0.061535	-0.120070
Br118	Br	1.098817	0.561535	0.379930
H119	H	1.116236	0.195485	0.000031
H120	H	1.616236	0.695485	0.500031
H121	H	1.120178	0.022843	-0.519550
H122	H	1.620178	0.522843	-0.019550
H123	H	0.584009	-0.111997	-0.197222
H124	H	1.084009	0.388003	0.302778
Br125	Br	0.398220	-0.160113	0.254934
Br126	Br	0.898220	0.339887	0.754934
H127	H	0.562345	-0.142263	0.197219
H128	H	1.062345	0.357737	0.697219
Br129	Br	0.588081	0.042608	0.124936
Br130	Br	1.088081	0.542608	0.624936
H131	H	0.427191	-0.005663	0.112827
H132	H	0.927191	0.494337	0.612827
Br133	Br	0.840963	0.543947	0.000075
Br134	Br	1.340963	1.043947	0.500075
Br135	Br	0.804915	0.114525	-0.000011
Br136	Br	1.304915	0.614525	0.499989
Br137	Br	0.892764	-0.289409	-0.259578
Br138	Br	1.392764	0.210591	0.240422
H139	H	1.078477	-0.034450	-0.706546
H140	H	1.578477	0.465550	-0.206546
