data_functionalizedCrystal
_audit_creation_method	'MofGen! by Chris Wilmer'
_symmetry_space_group_name_H-M	'P1'
_symmetry_Int_Tables_number	1
_symmetry_cell_setting	triclinic
loop_
_symmetry_equiv_pos_as_xyz
  x,y,z
_cell_length_a	11.026607
_cell_length_b	11.295483
_cell_length_c	11.026607
_cell_angle_alpha	85.000258
_cell_angle_beta	108.586017
_cell_angle_gamma	95.006835
loop_
_atom_site_label
_atom_site_type_symbol
_atom_site_fract_x
_atom_site_fract_y
_atom_site_fract_z
O1	O	1.733442	0.099022	0.526917
O2	O	1.366862	0.099024	0.466153
O3	O	1.519770	0.099019	0.313245
O4	O	1.580534	0.099027	0.679825
O5	O	1.506334	-0.099031	0.326649
O6	O	1.353426	-0.099026	0.479557
O7	O	1.720006	-0.099028	0.540321
Cu8	Cu	1.535489	-0.117111	0.511163
Cu9	Cu	1.551379	0.117107	0.495311
O10	O	1.567098	-0.099023	0.693229
C11	C	1.312485	-0.000001	0.461645
C12	C	1.170471	-0.000000	0.428228
N13	N	1.524323	-0.281847	0.522313
C14	C	1.116822	0.000003	0.520498
C15	C	0.970043	0.000004	0.485962
C16	C	1.642923	-0.531140	0.403816
C17	C	1.634495	-0.655804	0.412253
C18	C	1.499032	-0.655839	0.547617
C19	C	1.507460	-0.531176	0.539180
C20	C	1.579409	-0.468831	0.467278
C21	C	1.587844	-0.344165	0.458849
C22	C	1.452374	-0.344203	0.594205
C23	C	1.443946	-0.468866	0.602643
C24	C	1.774384	-0.000001	0.544829
C25	C	1.916398	0.000006	0.578245
C26	C	1.501842	-0.000005	0.272288
C27	C	1.468426	-0.000000	0.130273
N28	N	1.562554	0.281843	0.484153
C29	C	1.560695	0.000001	0.076624
C30	C	1.526160	0.000005	-0.070155
C31	C	1.585026	0.000003	0.734186
C32	C	1.618443	0.000007	0.876200
H33	H	1.179554	-0.000002	0.625061
H34	H	1.723019	0.000096	-0.061079
Cl35	Cl	1.306984	0.000013	0.033428
H36	H	1.421591	0.000014	-0.132885
Cl37	Cl	1.353497	-0.547251	0.693026
H38	H	0.907316	0.000032	0.381390
H39	H	0.979125	0.000001	0.682816
Cl40	Cl	1.073625	-0.000012	0.266787
H41	H	1.400662	-0.293456	0.645885
Cl42	Cl	1.678297	-0.265791	0.368463
Cl43	Cl	1.714341	-0.734132	0.332464
Cl44	Cl	1.733387	-0.452762	0.313443
Cl45	Cl	1.408571	-0.734228	0.637987
Cl46	Cl	1.722138	0.000008	0.173469
