data_functionalizedCrystal
_audit_creation_method	'MofGen! by Chris Wilmer'
_symmetry_space_group_name_H-M	'P1'
_symmetry_Int_Tables_number	1
_symmetry_cell_setting	triclinic
loop_
_symmetry_equiv_pos_as_xyz
  x,y,z
_cell_length_a	17.077404
_cell_length_b	12.759400
_cell_length_c	17.077396
_cell_angle_alpha	89.974414
_cell_angle_beta	89.980499
_cell_angle_gamma	90.014910
loop_
_atom_site_label
_atom_site_type_symbol
_atom_site_fract_x
_atom_site_fract_y
_atom_site_fract_z
Zn1	Zn	1.200099	-0.418260	-0.443859
Zn2	Zn	1.200025	-0.593961	-0.312599
Zn3	Zn	1.068831	-0.418297	-0.312606
Zn4	Zn	1.068818	-0.593898	-0.443823
O5	O	1.134443	-0.506104	-0.378222
O6	O	1.309936	-0.441578	-0.426459
O7	O	1.182597	-0.570700	-0.202753
O8	O	1.086281	-0.271271	-0.330035
O9	O	1.309882	-0.570664	-0.330023
O10	O	1.182723	-0.271244	-0.426466
O11	O	1.086209	-0.441641	-0.202759
O12	O	0.958983	-0.441580	-0.330001
O13	O	1.086258	-0.570558	-0.553674
O14	O	0.958973	-0.570594	-0.426405
O15	O	1.182710	-0.441517	-0.553701
O16	O	1.182584	-0.740973	-0.329988
O17	O	1.086186	-0.740927	-0.426398
C18	C	0.930496	-0.506085	-0.378200
C19	C	0.843246	-0.506102	-0.378209
C20	C	1.134397	-0.779071	-0.378205
C21	C	1.134449	-0.895848	-0.378225
C22	C	0.802271	-0.573381	-0.428326
C23	C	0.720291	-0.573383	-0.428339
C24	C	0.679286	-0.506111	-0.378230
C25	C	0.720267	-0.438825	-0.328111
C26	C	0.802246	-0.438818	-0.328103
C27	C	0.549397	-0.438846	-0.328130
C28	C	0.467412	-0.438854	-0.328136
C29	C	0.467442	-0.573410	-0.428366
C30	C	0.549421	-0.573404	-0.428358
C31	C	0.590395	-0.506119	-0.378237
C32	C	1.184699	-0.950699	-0.328080
C33	C	1.184747	-1.060423	-0.328104
C34	C	1.084289	-1.060435	-0.428420
C35	C	1.084245	-0.950713	-0.428399
C36	C	1.234902	-0.895833	-0.277905
C37	C	1.285156	-0.950685	-0.227755
C38	C	1.285204	-1.060409	-0.227780
C39	C	1.234999	-1.115282	-0.277954
C40	C	1.339188	-0.506124	-0.378244
C41	C	1.426437	-0.506132	-0.378253
C42	C	1.134491	-0.506026	-0.582966
C43	C	1.134511	-0.505993	-0.670216
C44	C	1.134512	-0.232071	-0.378255
C45	C	1.134541	-0.115294	-0.378270
C46	C	1.184735	-0.438796	-0.711221
C47	C	1.184745	-0.438761	-0.793202
C48	C	1.134533	-0.505930	-0.834175
C49	C	1.084304	-0.573130	-0.793165
C50	C	1.084291	-0.573159	-0.711186
C51	C	1.084335	-0.573066	-0.964035
C52	C	1.084349	-0.573039	-1.046019
C53	C	1.184789	-0.438669	-1.046051
C54	C	1.184777	-0.438698	-0.964072
C55	C	1.134547	-0.505900	-0.923066
C56	C	1.134441	-0.506105	-0.174274
C57	C	1.134573	-0.505842	-0.087025
H58	H	0.686933	-0.628169	-0.469149
N59	N	0.846494	-0.645946	-0.482368
H60	H	0.808094	-0.688566	-0.514119
H61	H	0.880532	-0.603241	-0.518747
N62	N	1.238900	-0.366264	-0.837429
H63	H	1.270705	-0.323717	-0.799033
H64	H	1.275224	-0.409004	-0.871454
H65	H	0.582756	-0.384046	-0.287323
H66	H	0.686875	-0.384046	-0.287314
H67	H	0.582804	-0.628188	-0.469157
N68	N	0.423254	-0.645986	-0.482424
H69	H	0.365098	-0.635782	-0.474830
H70	H	0.437613	-0.629735	-0.538506
H71	H	1.234867	-0.806491	-0.277878
N72	N	0.423183	-0.366298	-0.274092
H73	H	0.461578	-0.323666	-0.242344
H74	H	0.389188	-0.317744	-0.306116
H75	H	0.835606	-0.384027	-0.287296
N76	N	1.339311	-0.891508	-0.173650
H77	H	1.331657	-0.813676	-0.181242
H78	H	1.327135	-0.910756	-0.117581
N79	N	1.339408	-1.119573	-0.173700
H80	H	1.371203	-1.068163	-0.141914
H81	H	1.307494	-1.165168	-0.137356
N82	N	1.030052	-0.891543	-0.482486
H83	H	0.998251	-0.942947	-0.514271
H84	H	0.993726	-0.846084	-0.450493
N85	N	1.238898	-0.366357	-0.667031
H86	H	1.270715	-0.323782	-0.705450
H87	H	1.206953	-0.317745	-0.633017
H88	H	1.235048	-1.204626	-0.277975
H89	H	1.043418	-0.627815	-0.826532
N90	N	1.030113	-0.645625	-0.666954
H91	H	0.998305	-0.688171	-0.705349
H92	H	1.062041	-0.694263	-0.632935
H93	H	1.225668	-0.384010	-0.930713
N94	N	1.030140	-1.119614	-0.482531
H95	H	1.037791	-1.197446	-0.474933
H96	H	0.974078	-1.100505	-0.470257
N97	N	1.238969	-0.366189	-1.090272
H98	H	1.231357	-0.376357	-1.148422
H99	H	1.226773	-0.291158	-1.075948
N100	N	1.030192	-0.645460	-1.090233
H101	H	1.042345	-0.720542	-1.075971
H102	H	0.974128	-0.629040	-1.075952
N103	N	1.030157	-0.645541	-0.919805
H104	H	0.998351	-0.688091	-0.958200
H105	H	1.062093	-0.694176	-0.885790
