data_functionalizedCrystal
_audit_creation_method	'MofGen! by Chris Wilmer'
_symmetry_space_group_name_H-M	'P1'
_symmetry_Int_Tables_number	1
_symmetry_cell_setting	triclinic
loop_
_symmetry_equiv_pos_as_xyz
  x,y,z
_cell_length_a	17.038278
_cell_length_b	17.019294
_cell_length_c	9.730223
_cell_angle_alpha	86.119703
_cell_angle_beta	89.999541
_cell_angle_gamma	87.243447
loop_
_atom_site_label
_atom_site_type_symbol
_atom_site_fract_x
_atom_site_fract_y
_atom_site_fract_z
O1	O	1.037215	0.171273	-0.134567
O2	O	0.809587	0.168555	-0.134245
O3	O	0.929752	0.055508	-0.120860
O4	O	0.917050	0.284320	-0.147952
O5	O	0.929750	0.055511	0.107720
O6	O	0.809585	0.168558	0.094334
O7	O	1.037214	0.171276	0.094013
Zn8	Zn	0.923399	0.169917	0.130466
Zn9	Zn	0.923401	0.169913	-0.170698
O10	O	0.917049	0.284323	0.080627
C11	C	0.780460	0.166083	-0.019663
C12	C	0.693673	0.158704	-0.018790
C13	C	0.203301	0.113367	-0.013427
C14	C	0.284845	0.120307	-0.014240
C15	C	0.316214	0.195008	-0.023091
C16	C	0.266034	0.262773	-0.031116
C17	C	0.184492	0.255832	-0.030292
C18	C	0.561951	0.219528	-0.025991
C19	C	0.643500	0.226463	-0.026818
C20	C	0.662305	0.083997	-0.009939
C21	C	0.580760	0.077063	-0.009125
C22	C	0.530587	0.144828	-0.017142
C23	C	0.399566	0.202103	-0.023927
C24	C	0.447237	0.137732	-0.016296
C25	C	0.929269	0.026088	-0.003089
C26	C	0.927825	-0.061579	0.007282
C27	C	0.927149	-0.102763	-0.112443
C28	C	0.925787	-0.185135	-0.102694
C29	C	0.925106	-0.226323	0.026782
C30	C	0.925780	-0.185133	0.146517
C31	C	0.927137	-0.102762	0.136766
C32	C	0.921006	-0.475030	0.062457
C33	C	0.919652	-0.557407	0.072199
C34	C	0.919657	-0.557402	-0.177013
C35	C	0.921018	-0.475030	-0.186752
C36	C	0.921688	-0.433848	-0.067018
C37	C	0.923717	-0.310520	0.036751
C38	C	0.923072	-0.349651	-0.076988
C39	C	1.066341	0.173748	-0.020573
C40	C	1.153127	0.181127	-0.021455
C41	C	0.917531	0.313743	-0.037146
C42	C	0.918976	0.401410	-0.047527
N43	N	0.923404	0.169920	0.336002
N44	N	0.923403	0.169905	-0.376233
C45	C	0.976626	0.119881	0.413853
C46	C	0.976624	0.119872	0.557737
C47	C	0.870175	0.219946	0.545905
C48	C	0.870174	0.219951	0.402024
C49	C	1.029856	0.069850	0.347830
C50	C	1.083084	0.019809	0.425681
C51	C	1.083082	0.019799	0.569565
C52	C	1.029852	0.069831	0.635598
H53	H	0.291582	0.323595	-0.038314
O54	O	0.918855	-0.597440	-0.293267
C55	C	0.850400	-0.640707	-0.295562
H56	H	0.803513	-0.612806	-0.228152
H57	H	0.827661	-0.640175	-0.405824
H58	H	0.864671	-0.704125	-0.254566
H59	H	0.703164	0.028827	-0.003411
O60	O	0.818444	0.268437	0.610212
C61	C	0.770255	0.222924	0.698799
H62	H	0.801464	0.163308	0.727398
H63	H	0.757854	0.255006	0.796185
H64	H	0.712482	0.213657	0.644451
O65	O	1.134729	-0.028747	0.361326
C66	C	1.123293	-0.018040	0.217641
H67	H	1.094038	0.042710	0.190791
H68	H	1.182497	-0.022854	0.163504
H69	H	1.084098	-0.065317	0.182440
H70	H	0.925221	-0.218675	0.251939
H71	H	0.921566	-0.441510	0.159953
O72	O	1.134856	-0.028836	0.644982
C73	C	1.181820	-0.073006	0.555851
H74	H	1.182663	-0.040599	0.449458
H75	H	1.244266	-0.080812	0.598344
H76	H	1.156510	-0.133321	0.547676
H77	H	0.425116	0.262925	-0.031138
H78	H	1.029850	0.069813	0.752759
O79	O	0.927666	-0.062788	-0.238256
C80	C	0.859666	-0.078550	-0.312192
H81	H	0.811995	-0.098119	-0.236956
H82	H	0.837837	-0.022911	-0.375311
H83	H	0.874178	-0.127363	-0.384096
H84	H	0.826834	0.260696	0.338637
H85	H	0.669037	0.287296	-0.034006
H86	H	0.521109	0.274707	-0.032526
H87	H	0.177767	0.052539	-0.006228
H88	H	0.325694	0.065130	-0.007698
O89	O	0.922964	-0.350617	0.162440
C90	C	0.854498	-0.393861	0.175037
H91	H	0.831720	-0.404724	0.068142
H92	H	0.868774	-0.452779	0.234720
H93	H	0.807636	-0.359051	0.232436
H94	H	0.927676	-0.069231	0.234259
O95	O	0.135639	0.321573	-0.038026
C96	C	0.056941	0.299430	-0.035433
H97	H	0.053888	0.237267	0.015208
H98	H	0.019944	0.342287	0.025853
H99	H	0.033354	0.300832	-0.145260
H100	H	0.555225	0.016234	-0.001918
H101	H	0.925240	-0.218663	-0.200187
H102	H	0.921573	-0.441500	-0.292185
O103	O	0.416861	0.065128	-0.007880
C104	C	0.442487	0.023495	-0.121355
H105	H	0.499022	0.048782	-0.163817
H106	H	0.453873	-0.041433	-0.087047
H107	H	0.395290	0.029471	-0.204958
O108	O	0.918852	-0.597381	0.198003
C109	C	0.851515	-0.572864	0.270927
H110	H	0.804584	-0.547145	0.194986
H111	H	0.827912	-0.625571	0.333663
H112	H	0.867598	-0.526053	0.343101
O113	O	0.923619	-0.309557	-0.202686
C114	C	0.856712	-0.257540	-0.216305
H115	H	0.834356	-0.243738	-0.109751
H116	H	0.872878	-0.200602	-0.275784
H117	H	0.808801	-0.286215	-0.274394
H118	H	1.029864	0.069855	0.230673
