data_functionalizedCrystal
_audit_creation_method	'MofGen! by Chris Wilmer'
_symmetry_space_group_name_H-M	'P1'
_symmetry_Int_Tables_number	1
_symmetry_cell_setting	triclinic
loop_
_symmetry_equiv_pos_as_xyz
  x,y,z
_cell_length_a	27.354012
_cell_length_b	27.353283
_cell_length_c	27.349551
_cell_angle_alpha	60.005606
_cell_angle_beta	60.011434
_cell_angle_gamma	59.993282
loop_
_atom_site_label
_atom_site_type_symbol
_atom_site_fract_x
_atom_site_fract_y
_atom_site_fract_z
O1	O	0.067635	-0.714267	0.597330
O2	O	0.025429	-0.556105	0.481282
O3	O	0.125575	-0.656186	0.481214
O4	O	-0.032512	-0.614186	0.597397
O5	O	0.158797	-0.622968	0.514367
O6	O	0.058650	-0.522887	0.514434
O7	O	0.100856	-0.681048	0.630482
Zn8	Zn	0.085028	-0.596693	0.577722
Zn9	Zn	0.041257	-0.640460	0.534042
O10	O	0.000709	-0.580967	0.630549
N11	N	0.114901	-0.566828	0.607534
N12	N	0.011389	-0.670331	0.504229
C13	C	0.179404	-0.338196	0.672015
C14	C	0.179501	-0.502386	0.836160
C15	C	0.179415	-0.502363	0.671996
C16	C	0.343611	-0.502373	0.671960
C17	C	0.197478	-0.392371	0.690061
C18	C	0.197534	-0.484321	0.781984
C19	C	0.289434	-0.484312	0.690032
C20	C	0.197486	-0.484308	0.690051
C21	C	0.156398	-0.269238	0.649045
C22	C	0.156418	-0.525342	0.649015
C23	C	0.220484	-0.461329	0.713032
C24	C	0.443889	-0.485097	0.619172
C25	C	0.506571	-0.505993	0.598266
C26	C	0.506589	-0.607412	0.636940
C27	C	0.443909	-0.586515	0.657848
C28	C	0.171510	-0.237888	0.587422
C29	C	0.150593	-0.175201	0.566543
C30	C	0.099458	-0.175218	0.668913
C31	C	0.120375	-0.237905	0.689792
C32	C	0.094789	-0.510201	0.664176
C33	C	0.073888	-0.531091	0.643278
C34	C	0.176239	-0.582263	0.592072
C35	C	0.197142	-0.561373	0.612963
C36	C	0.094933	-0.510244	0.936476
C37	C	0.074073	-0.531151	0.999161
C38	C	0.176453	-0.582335	0.999126
C39	C	0.197312	-0.561429	0.936439
C40	C	0.156551	-0.525382	0.905116
C41	C	0.412561	-0.525357	0.648961
C42	C	-0.098513	-0.688235	0.485867
C43	C	-0.006461	-0.688368	0.394066
C44	C	-0.006645	-0.780264	0.486040
C45	C	-0.006630	-0.688361	0.486097
C46	C	-0.029562	-0.711308	0.463018
N47	N	0.537030	-0.566846	0.607436
O48	O	0.741877	-0.576849	0.459995
O49	O	0.742050	-0.693241	0.618010
O50	O	0.741986	-0.692977	0.517791
O51	O	0.741941	-0.577114	0.560214
O52	O	0.642405	-0.659839	0.551046
O53	O	0.642469	-0.660104	0.651265
O54	O	0.642296	-0.543712	0.493251
Zn55	Zn	0.626572	-0.596646	0.577538
Zn56	Zn	0.757774	-0.640307	0.533723
O57	O	0.642360	-0.543976	0.593469
N58	N	0.847316	-0.670107	0.503818
N59	N	0.114877	-0.144758	0.607577
O60	O	-0.032498	0.060193	0.597441
O61	O	0.125523	0.060193	0.481067
O62	O	0.025289	0.060179	0.481345
O63	O	0.067736	0.060207	0.597163
O64	O	0.058511	-0.039410	0.514543
O65	O	0.158745	-0.039397	0.514265
O66	O	0.000724	-0.039396	0.630638
Zn67	Zn	0.085009	-0.055208	0.577722
Zn68	Zn	0.041238	0.076005	0.533983
O69	O	0.100958	-0.039382	0.630360
N70	N	0.011362	0.165555	0.504130
N71	N	0.115121	-0.566884	1.029592
O72	O	0.104990	-0.714248	1.234528
O73	O	-0.011371	-0.556177	1.234539
O74	O	-0.011103	-0.656395	1.234497
O75	O	0.104722	-0.614030	1.234569
O76	O	0.022090	-0.623190	1.134913
O77	O	0.021822	-0.522972	1.134954
O78	O	0.138182	-0.681044	1.134943
Zn79	Zn	0.085272	-0.596736	1.119137
Zn80	Zn	0.041539	-0.640484	1.250344
O81	O	0.137914	-0.580826	1.134984
N82	N	0.011689	-0.670343	1.339890
C83	C	0.038085	-0.519567	0.481870
C84	C	0.162104	-0.643505	0.481786
C85	C	0.088200	-0.717587	0.629893
C86	C	-0.035819	-0.593649	0.629977
C87	C	0.692280	-0.692701	0.654545
C88	C	0.692203	-0.692374	0.530435
C89	C	0.692063	-0.544251	0.456717
C90	C	0.692144	-0.544580	0.580825
C91	C	0.162000	0.010521	0.481600
C92	C	0.037914	0.010381	0.481984
C93	C	-0.035795	0.010399	0.630065
C94	C	0.088333	0.010415	0.629722
C95	C	-0.010799	-0.519660	1.184747
C96	C	-0.010461	-0.643761	1.184677
C97	C	0.137610	-0.717561	1.184734
C98	C	0.137280	-0.593452	1.184783
H99	H	0.061737	-0.480889	0.910978
H100	H	0.692221	-0.728771	0.521355
H101	H	0.173667	-0.584388	1.184797
H102	H	0.097420	0.010424	0.666105
H103	H	-0.081177	0.010398	0.666600
H104	H	0.029071	-0.474132	0.445424
H105	H	0.692134	-0.508185	0.589902
C106	C	0.049312	-0.779146	0.730418
C107	C	0.100362	-0.778919	0.679099
H108	H	0.056823	-0.817009	0.760796
H109	H	0.016665	-0.771880	0.721073
H110	H	0.039833	-0.748709	0.744194
H111	H	0.109838	-0.809353	0.665320
H112	H	0.133019	-0.786192	0.688445
C113	C	-0.038803	-0.421306	1.184778
C114	C	-0.060119	-0.458376	1.184752
H115	H	-0.069253	-0.383473	1.184785
H116	H	-0.004782	-0.416068	1.150060
H117	H	-0.027926	-0.439233	1.219515
H118	H	-0.070991	-0.440451	1.150013
H119	H	-0.094150	-0.463612	1.219474
C120	C	0.260419	-0.714007	0.453946
C121	C	0.223398	-0.655587	0.432530
H122	H	0.298260	-0.721463	0.423537
H123	H	0.242470	-0.741670	0.464848
H124	H	0.265639	-0.718503	0.487972
H125	H	0.218174	-0.651092	0.398506
H126	H	0.241351	-0.627916	0.421619
H127	H	0.692005	-0.507708	0.411338
C128	C	-0.107834	-0.533454	0.693037
C129	C	-0.097113	-0.581570	0.679236
H130	H	-0.145672	-0.526001	0.723451
H131	H	-0.107730	-0.498800	0.658245
H132	H	-0.077375	-0.542935	0.706786
H133	H	-0.127570	-0.572087	0.665483
H134	H	-0.097222	-0.616232	0.714036
C135	C	-0.025027	-0.478439	0.992891
C136	C	0.006339	-0.514498	1.033626
H137	H	-0.066844	-0.468157	1.014169
H138	H	-0.014764	-0.499701	0.968439
H139	H	-0.014753	-0.442999	0.968443
H140	H	-0.003932	-0.549940	1.058071
H141	H	-0.003929	-0.493235	1.058088
C142	C	0.260187	0.011024	0.453423
C143	C	0.223136	0.010899	0.432150
H144	H	0.297928	0.011262	0.422893
H145	H	0.265639	-0.023777	0.487335
H146	H	0.242125	0.045680	0.464461
H147	H	0.241196	-0.023759	0.421116
H148	H	0.217685	0.045704	0.398227
H149	H	0.692323	-0.729239	0.699929
C150	C	-0.032775	0.010333	0.454452
C151	C	0.025660	0.010348	0.432871
H152	H	-0.040335	0.010302	0.424134
H153	H	-0.060396	0.045069	0.465335
H154	H	-0.037220	-0.024389	0.488517
H155	H	0.030104	0.045072	0.398808
H156	H	0.053289	-0.024392	0.421979
C157	C	0.200811	-0.789599	1.133523
C158	C	0.186931	-0.778845	1.184729
H159	H	0.231257	-0.827435	1.133522
H160	H	0.214537	-0.759138	1.098812
H161	H	0.166052	-0.789528	1.133513
H162	H	0.221689	-0.778912	1.184737
H163	H	0.173207	-0.809314	1.219449
H164	H	-0.046832	-0.652809	1.184615
H165	H	0.209648	-0.611676	1.024626
H166	H	0.061625	-0.480862	0.693528
C167	C	0.296416	-0.614114	0.942703
C168	C	0.265048	-0.578067	0.901970
H169	H	0.338232	-0.624381	0.921423
H170	H	0.286156	-0.649557	0.967147
H171	H	0.286140	-0.592845	0.967159
H172	H	0.275320	-0.599338	0.877517
H173	H	0.275312	-0.542619	0.877516
H174	H	0.023705	-0.518748	0.655609
H175	H	0.209407	-0.611608	0.562721
H176	H	0.247325	-0.573698	0.600612
H177	H	0.418403	-0.619300	0.682106
H178	H	0.532110	-0.657210	0.644171
H179	H	0.418366	-0.435297	0.611936
C180	C	0.525836	-0.419436	0.514175
C181	C	0.541014	-0.461740	0.565515
H182	H	0.547103	-0.392119	0.493952
H183	H	0.484024	-0.398239	0.525358
H184	H	0.536097	-0.439262	0.488391
H185	H	0.530749	-0.441914	0.591301
H186	H	0.582835	-0.482939	0.554332
C187	C	0.219942	-0.231571	0.484131
C188	C	0.211103	-0.272328	0.542631
H189	H	0.244383	-0.252836	0.456481
H190	H	0.239079	-0.207122	0.478106
H191	H	0.182358	-0.207121	0.478130
H192	H	0.248688	-0.296775	0.548634
H193	H	0.191968	-0.296787	0.548658
H194	H	0.162897	-0.149674	0.516363
H195	H	0.070133	-0.149706	0.702094
H196	H	0.108067	-0.263426	0.739970
