data_functionalizedCrystal
_audit_creation_method	'MofGen! by Chris Wilmer'
_symmetry_space_group_name_H-M	'P1'
_symmetry_Int_Tables_number	1
_symmetry_cell_setting	triclinic
loop_
_symmetry_equiv_pos_as_xyz
  x,y,z
_cell_length_a	10.654554
_cell_length_b	8.559649
_cell_length_c	9.730223
_cell_angle_alpha	90.000781
_cell_angle_beta	89.999030
_cell_angle_gamma	77.132754
loop_
_atom_site_label
_atom_site_type_symbol
_atom_site_fract_x
_atom_site_fract_y
_atom_site_fract_z
O1	O	1.644670	0.224213	-0.114307
O2	O	1.276986	0.245564	-0.114304
O3	O	1.493221	0.002647	-0.114304
O4	O	1.428435	0.467131	-0.114306
O5	O	1.493218	0.002653	0.114276
O6	O	1.276984	0.245570	0.114276
O7	O	1.644667	0.224219	0.114273
Zn8	Zn	1.460825	0.234896	0.150567
Zn9	Zn	1.460829	0.234888	-0.150597
O10	O	1.428432	0.467137	0.114274
C11	C	1.230349	0.243998	-0.000013
C12	C	1.091391	0.239303	-0.000012
C13	C	1.498130	-0.056826	-0.000017
C14	C	1.512744	-0.234044	-0.000024
C15	C	0.924516	0.087448	-0.000029
C16	C	1.055082	0.091859	-0.000015
C17	C	0.997126	0.382346	-0.000009
C18	C	0.866563	0.377934	-0.000013
C19	C	0.957977	-0.080263	-0.000039
C20	C	1.088543	-0.075852	-0.000025
C21	C	1.691304	0.225786	-0.000020
C22	C	1.830262	0.230481	-0.000030
C23	C	1.423524	0.526609	-0.000017
C24	C	1.408909	0.703827	-0.000018
N25	N	1.460832	0.234901	0.356103
N26	N	1.460833	0.234871	-0.356134
C27	C	1.556598	0.127373	0.428029
C28	C	1.556597	0.127354	0.571912
C29	C	1.365056	0.342403	0.571931
C30	C	1.365054	0.342413	0.428050
C31	C	1.667186	0.003221	0.428019
C32	C	1.667185	0.003201	0.571902
H33	H	0.789824	0.494405	0.000002
H34	H	1.308832	-0.213787	-0.000013
C35	C	0.917293	-0.152423	-0.133357
H36	H	0.989525	-0.181512	-0.192721
H37	H	0.851743	-0.075495	-0.177658
H38	H	0.885530	-0.244808	-0.111937
H39	H	1.612828	-0.316438	-0.000014
C40	C	1.784943	0.055722	0.367721
H41	H	1.837388	0.079087	0.440432
H42	H	1.756831	0.148665	0.312774
H43	H	1.833275	-0.028220	0.312771
C44	C	1.259704	0.460683	0.348936
H45	H	1.202673	0.524718	0.412395
H46	H	1.213037	0.402643	0.292804
H47	H	1.298412	0.527681	0.292814
C48	C	1.037064	0.544532	-0.000003
H49	H	1.128322	0.526677	-0.000008
H50	H	1.003753	0.603492	0.079704
H51	H	1.003767	0.603478	-0.079728
H52	H	1.139415	-0.126529	0.098674
H53	H	1.287076	0.429936	0.630525
C54	C	1.153779	-0.161197	-0.129252
H55	H	1.092005	-0.199275	-0.182414
H56	H	1.220833	-0.248946	-0.102691
H57	H	1.188727	-0.087995	-0.182390
C58	C	1.655328	-0.162500	0.375251
H59	H	1.650439	-0.230659	0.451187
H60	H	1.728507	-0.207853	0.321009
H61	H	1.579696	-0.151219	0.321018
H62	H	1.648648	-0.112734	0.616519
C63	C	1.793737	0.040152	0.624666
H64	H	1.845778	0.055378	0.548728
H65	H	1.838466	-0.046878	0.678893
H66	H	1.775032	0.134781	0.678913
H67	H	0.935389	-0.145854	0.095615
