data_functionalizedCrystal
_audit_creation_method	'MofGen! by Chris Wilmer'
_symmetry_space_group_name_H-M	'P1'
_symmetry_Int_Tables_number	1
_symmetry_cell_setting	triclinic
loop_
_symmetry_equiv_pos_as_xyz
  x,y,z
_cell_length_a	15.297475
_cell_length_b	15.297327
_cell_length_c	15.296720
_cell_angle_alpha	107.319222
_cell_angle_beta	88.382886
_cell_angle_gamma	88.374454
loop_
_atom_site_label
_atom_site_type_symbol
_atom_site_fract_x
_atom_site_fract_y
_atom_site_fract_z
Zn1	Zn	1.116342	0.695081	0.823122
Zn2	Zn	1.116246	0.823682	0.694497
Zn3	Zn	1.005113	0.644908	0.644396
Zn4	Zn	0.946204	0.814903	0.814406
O5	O	1.045976	0.744644	0.744105
O6	O	1.234042	0.736812	0.830675
O7	O	1.126118	0.782644	0.562870
O8	O	1.044561	0.526600	0.650785
O9	O	1.233972	0.831295	0.736174
O10	O	1.126281	0.563461	0.782095
O11	O	1.044469	0.651299	0.526062
O12	O	0.879585	0.642787	0.642333
O13	O	0.944159	0.816332	0.940543
O14	O	0.836305	0.767682	0.767239
O15	O	1.069159	0.728299	0.946946
O16	O	1.068996	0.947482	0.727722
O17	O	0.944066	0.941032	0.815819
C18	C	0.827423	0.698838	0.698404
C19	C	0.733917	0.679267	0.678877
C20	C	1.000147	0.976666	0.776286
C21	C	0.980613	1.075946	0.790099
C22	C	0.380296	0.884531	0.883671
C23	C	0.468149	0.902925	0.902016
C24	C	0.534595	0.847012	0.846233
C25	C	0.513180	0.772701	0.772102
C26	C	0.425318	0.754309	0.753750
C27	C	0.579617	0.716791	0.716312
C28	C	0.558202	0.642480	0.642181
C29	C	0.470348	0.624091	0.623833
C30	C	0.403902	0.680004	0.679616
C31	C	0.667479	0.735183	0.734664
C32	C	0.712501	0.604961	0.604743
C33	C	0.624648	0.586567	0.586398
C34	C	1.000098	0.776933	0.977057
C35	C	0.980548	0.790693	1.076327
C36	C	1.265382	0.790629	0.789986
C37	C	1.358880	0.810225	0.809537
C38	C	1.092003	0.511723	0.711823
C39	C	1.111617	0.412466	0.698067
C40	C	1.185880	1.369169	0.645759
C41	C	1.204235	1.275889	0.632777
C42	C	1.148331	1.225899	0.672106
C43	C	1.074069	1.269198	0.724420
C44	C	1.055710	1.362485	0.737398
C45	C	1.018160	1.219215	0.763745
C46	C	0.943898	1.262513	0.816059
C47	C	0.925542	1.355791	0.829035
C48	C	0.981446	1.405781	0.789706
C49	C	1.036520	1.125928	0.750767
C50	C	0.906349	1.119243	0.842406
C51	C	0.887995	1.212523	0.855389
C52	C	1.091736	0.712426	0.512061
C53	C	1.111499	0.698449	0.412791
C54	C	1.185768	0.646151	1.369491
C55	C	1.204141	0.633225	1.276224
C56	C	1.148244	0.672591	1.226245
C57	C	1.073971	0.724884	1.269543
C58	C	1.055600	0.737817	1.362821
C59	C	1.018076	0.764257	1.219575
C60	C	0.943803	0.816551	1.262873
C61	C	0.925434	0.829480	1.356142
C62	C	0.981331	0.790115	1.406121
C63	C	1.036448	0.751324	1.126296
C64	C	0.906280	0.842991	1.119626
C65	C	0.887906	0.855916	1.212894
H66	H	0.606128	0.861993	0.861175
O67	O	1.276403	1.233758	0.582085
C68	C	1.413098	1.150530	0.579262
C69	C	1.331396	1.198197	0.636771
H70	H	1.457590	1.121784	0.623457
H71	H	1.392351	1.092300	0.518410
H72	H	1.449865	1.202283	0.553355
H73	H	1.294591	1.146514	0.662742
H74	H	1.352200	1.256443	0.697576
O75	O	0.603797	0.514494	0.514298
C76	C	0.530680	0.464812	0.371355
C77	C	0.554250	0.546515	0.452943
H78	H	0.490603	0.490669	0.321737
H79	H	0.593229	0.428004	0.334561
H80	H	0.490708	0.415260	0.397405
H81	H	0.594200	0.596131	0.426969
H82	H	0.491668	0.583252	0.489721
O83	O	0.777146	0.550708	0.550665
C84	C	0.932450	0.521366	0.521324
C85	C	0.859323	0.582858	0.582649
H86	H	0.998907	0.547347	0.547149
H87	H	0.926346	0.447948	0.523544
H88	H	0.926228	0.523313	0.447830
H89	H	0.865499	0.580989	0.656170
H90	H	0.865450	0.656247	0.580351
O91	O	0.852149	1.070692	0.880733
C92	C	0.837749	0.979614	0.984220
C93	C	0.899215	1.034595	0.940908
H94	H	0.875781	0.950398	1.032866
H95	H	0.781525	1.026552	1.023896
H96	H	0.810443	0.921130	0.927903
H97	H	0.926585	1.093081	0.997167
H98	H	0.955390	0.987596	0.901210
O99	O	0.489103	0.975084	0.973968
C100	C	0.604496	1.061088	1.059857
C101	C	0.580889	0.979350	0.978321
H102	H	0.678704	1.064553	1.063415
H103	H	0.576179	1.127303	1.050452
H104	H	0.576069	1.051883	1.126111
H105	H	0.609309	0.988467	0.912029
H106	H	0.609190	0.913166	0.987806
H107	H	1.096921	0.708746	1.091052
H108	H	1.096984	1.090683	0.708172
H109	H	1.163279	1.149947	0.661531
O110	O	0.815841	1.254454	0.906261
C111	C	0.688637	1.237976	0.995742
C112	C	0.770330	1.190380	0.938169
H113	H	0.651809	1.186188	1.021541
H114	H	0.709392	1.296133	1.056657
H115	H	0.644196	1.266837	0.951590
H116	H	0.814807	1.161463	0.982245
H117	H	0.749512	1.132267	0.877249
O118	O	0.853386	1.397719	0.879905
C119	C	0.726182	1.381228	0.969380
C120	C	0.807880	1.333639	0.911811
H121	H	0.689357	1.329437	0.995176
H122	H	0.746931	1.439387	1.030296
H123	H	0.681740	1.410085	0.925225
H124	H	0.852357	1.304727	0.955889
H125	H	0.787068	1.275525	0.850889
O126	O	0.815821	0.906725	1.255111
C127	C	0.729810	0.967219	1.395838
C128	C	0.811486	0.909676	1.348147
H129	H	0.726269	0.969608	1.471061
H130	H	0.733946	1.039810	1.390640
H131	H	0.668709	0.934783	1.361094
H132	H	0.872628	0.942032	1.382857
H133	H	0.807273	0.837090	1.353338
H134	H	0.860765	0.875047	1.078934
O135	O	1.166194	0.659908	1.135641
C136	C	1.264006	0.591098	1.005464
C137	C	1.243770	0.605379	1.108078
H138	H	1.326736	0.547028	0.983152
H139	H	1.207560	0.555344	0.963902
H140	H	1.272732	0.660417	0.993386
H141	H	1.235062	0.536100	1.120242
H142	H	1.300226	0.641177	1.149587
H143	H	1.231385	1.409877	0.613736
O144	O	0.963668	1.496433	0.802479
C145	C	0.941982	1.646619	0.911257
C146	C	0.962134	1.543982	0.896919
H147	H	0.940717	1.685089	0.987609
H148	H	0.994709	1.674965	0.874231
H149	H	0.875533	1.655773	0.882537
H150	H	1.028558	1.534748	0.925643
H151	H	0.909354	1.515684	0.933926
O152	O	0.449518	0.552032	0.551710
C153	C	0.376457	0.502400	0.408730
C154	C	0.399990	0.584080	0.490360
H155	H	0.336395	0.528279	0.359116
H156	H	0.439021	0.465619	0.371949
H157	H	0.336481	0.452819	0.434732
H158	H	0.439943	0.633725	0.464434
H159	H	0.337393	0.620790	0.527126
H160	H	0.326190	0.930052	0.929077
O161	O	0.318569	0.662016	0.661859
C162	C	0.204835	0.553248	0.646700
C163	C	0.301490	0.573497	0.666840
H164	H	0.191001	0.481674	0.650701
H165	H	0.160997	0.605923	0.699325
H166	H	0.190965	0.557140	0.575091
H167	H	0.315443	0.569592	0.738424
H168	H	0.345277	0.520821	0.614158
O169	O	1.276208	0.582278	1.234180
C170	C	1.352688	0.434988	1.193217
C171	C	1.271016	0.492587	1.240837
H172	H	1.348526	0.362467	1.198599
H173	H	1.356248	0.432414	1.117943
H174	H	1.413791	0.467470	1.227915
H175	H	1.209868	0.460149	1.206214
H176	H	1.267534	0.495162	1.316112
O177	O	0.963457	0.802836	1.496748
C178	C	0.941844	0.911519	1.646997
C179	C	0.962069	0.897247	1.544383
H180	H	0.940733	0.987846	1.685542
H181	H	0.875353	0.882910	1.656186
H182	H	0.994540	0.874349	1.675239
H183	H	0.909429	0.934415	1.516073
H184	H	1.028586	0.925832	1.535254
O185	O	0.853262	0.880172	1.398286
C186	C	0.716563	0.882987	1.481487
C187	C	0.798259	0.825476	1.433805
H188	H	0.672062	0.838784	1.510200
H189	H	0.737316	0.943809	1.539746
H190	H	0.679801	0.908936	1.429749
H191	H	0.835058	0.799463	1.485473
H192	H	0.777449	0.764701	1.375531
H193	H	0.684906	0.795687	0.795023
H194	H	1.231275	0.614111	1.410194
