data_functionalizedCrystal
_audit_creation_method	'MofGen! by Chris Wilmer'
_symmetry_space_group_name_H-M	'P1'
_symmetry_Int_Tables_number	1
_symmetry_cell_setting	triclinic
loop_
_symmetry_equiv_pos_as_xyz
  x,y,z
_cell_length_a	12.759401
_cell_length_b	12.759400
_cell_length_c	12.759393
_cell_angle_alpha	89.969552
_cell_angle_beta	89.980324
_cell_angle_gamma	90.016209
loop_
_atom_site_label
_atom_site_type_symbol
_atom_site_fract_x
_atom_site_fract_y
_atom_site_fract_z
Zn1	Zn	1.606253	-0.418173	-0.594020
Zn2	Zn	1.606148	-0.593889	-0.418340
Zn3	Zn	1.430556	-0.418229	-0.418355
Zn4	Zn	1.430544	-0.593815	-0.593978
O5	O	1.518375	-0.506026	-0.506173
O6	O	1.753260	-0.441490	-0.570727
O7	O	1.582817	-0.570641	-0.271321
O8	O	1.453912	-0.271200	-0.441682
O9	O	1.753183	-0.570587	-0.441656
O10	O	1.582996	-0.271160	-0.570742
O11	O	1.453810	-0.441585	-0.271332
O12	O	1.283533	-0.441514	-0.441640
O13	O	1.453891	-0.570462	-0.741004
O14	O	1.283525	-0.570516	-0.570669
O15	O	1.582984	-0.441418	-0.741036
O16	O	1.582805	-0.740900	-0.441615
O17	O	1.453789	-0.740846	-0.570655
C18	C	1.245408	-0.506014	-0.506152
C19	C	1.128631	-0.506033	-0.506168
C20	C	1.518313	-0.778994	-0.506151
C21	C	1.518383	-0.895770	-0.506177
C22	C	1.073792	-0.573307	-0.573248
C23	C	0.964068	-0.573311	-0.573269
C24	C	0.964032	-0.438765	-0.439122
C25	C	1.073754	-0.438756	-0.439107
C26	C	1.585636	-0.950626	-0.439060
C27	C	1.585700	-1.060350	-0.439093
C28	C	1.451250	-1.060354	-0.573362
C29	C	1.451191	-0.950632	-0.573334
C30	C	1.663256	-0.950624	-0.361538
C31	C	1.663321	-1.060348	-0.361570
C32	C	1.792409	-0.506040	-0.506195
C33	C	1.909185	-0.506046	-0.506204
C34	C	1.518448	-0.505926	-0.780207
C35	C	1.518479	-0.505883	-0.896984
C36	C	1.518467	-0.231993	-0.506218
C37	C	1.518506	-0.115217	-0.506237
C38	C	1.585656	-0.573057	-0.951837
C39	C	1.585688	-0.573012	-1.061561
C40	C	1.451356	-0.438616	-1.061568
C41	C	1.451330	-0.438657	-0.951846
C42	C	1.663208	-0.650653	-0.951834
C43	C	1.663240	-0.650608	-1.061558
C44	C	1.518364	-0.506051	-0.233206
C45	C	1.518536	-0.505798	-0.116430
H46	H	1.118470	-0.628086	-0.627857
Br47	Br	0.889648	-0.664611	-0.664314
Br48	Br	0.889549	-0.347465	-0.348113
H49	H	1.118405	-0.383967	-0.384482
H50	H	1.396438	-0.905970	-0.627995
Br51	Br	1.360069	-1.134815	-0.664501
H52	H	1.396687	-0.383882	-1.106251
H53	H	1.740625	-1.094292	-0.390784
Br54	Br	1.627097	-1.110129	-0.225935
Br55	Br	1.798829	-0.900846	-0.397959
H56	H	1.634132	-0.916676	-0.284211
H57	H	1.396637	-0.383949	-0.907189
Br58	Br	1.798828	-0.614366	-0.902216
Br59	Br	1.792117	-0.602065	-1.118310
H60	H	1.634037	-0.727960	-0.917785
Br61	Br	1.626877	-0.786202	-1.111177
