data_functionalizedCrystal
_audit_creation_method	'MofGen! by Chris Wilmer'
_symmetry_space_group_name_H-M	'P1'
_symmetry_Int_Tables_number	1
_symmetry_cell_setting	triclinic
loop_
_symmetry_equiv_pos_as_xyz
  x,y,z
_cell_length_a	14.560438
_cell_length_b	18.878441
_cell_length_c	14.560438
_cell_angle_alpha	90.000064
_cell_angle_beta	60.001579
_cell_angle_gamma	60.000434
loop_
_atom_site_label
_atom_site_type_symbol
_atom_site_fract_x
_atom_site_fract_y
_atom_site_fract_z
Zr1	Zr	1.005306	0.682380	-0.120536
O2	O	1.196901	0.569275	-0.267175
O3	O	0.813707	0.717052	-0.075586
O4	O	1.005307	0.717050	-0.267185
O5	O	1.005301	0.569279	0.075564
O6	O	1.005312	0.833618	-0.267190
O7	O	1.005301	0.569277	-0.075576
O8	O	0.662575	0.833622	0.075545
O9	O	1.348039	0.569275	-0.267172
O10	O	0.892520	0.818833	-0.056416
O11	O	0.892516	0.731841	0.056381
O12	O	1.118101	0.731839	-0.169201
O13	O	1.118097	0.644847	-0.056404
Zr14	Zr	1.005315	0.868295	0.120506
Zr15	Zr	1.005314	0.868292	-0.120544
Zr16	Zr	1.005307	0.682383	0.120514
Zr17	Zr	1.246354	0.682380	-0.120531
Zr18	Zr	0.764268	0.868295	0.120501
O19	O	1.196914	0.833622	0.075556
O20	O	1.196913	0.833618	-0.267186
O21	O	1.196902	0.569279	0.075567
O22	O	0.813720	0.981400	0.267144
O23	O	0.813719	0.981395	-0.075597
O24	O	0.813708	0.717056	0.267156
O25	O	1.005320	0.981396	-0.075594
O26	O	1.005314	0.833624	0.267154
O27	O	1.005309	0.717057	0.267159
O28	O	1.005320	0.981398	0.075545
O29	O	1.348046	0.717051	-0.267178
O30	O	0.662576	0.833624	0.267148
O31	O	0.662582	0.981399	0.267141
O32	O	0.662582	0.981397	0.075539
O33	O	1.348039	0.569278	-0.075569
O34	O	1.348046	0.717053	-0.075576
O35	O	0.892521	0.818836	0.169171
O36	O	0.892524	0.905828	0.056374
O37	O	1.118105	0.818833	-0.056412
O38	O	1.118101	0.731842	0.056386
C39	C	0.703797	0.775337	-0.000021
C40	C	0.601466	0.775337	-0.000023
C41	C	1.005300	0.542790	-0.000005
C42	C	1.005296	0.463865	-0.000001
C43	C	0.553392	0.820744	-0.058902
C44	C	0.457232	0.820747	-0.058891
C45	C	0.457234	0.729929	0.058879
C46	C	0.553385	0.729932	0.058874
C47	C	0.887547	0.472194	0.058867
C48	C	0.887551	0.398033	0.058868
C49	C	1.005306	0.315544	-0.000007
C50	C	1.123065	0.307217	-0.058878
C51	C	1.123059	0.381377	-0.058871
C52	C	1.123068	0.152646	-0.058889
C53	C	1.123075	0.078481	-0.058898
C54	C	0.887560	0.169302	0.058850
C55	C	0.887554	0.243463	0.058857
C56	C	1.005314	0.235130	-0.000016
C57	C	1.306824	0.775338	-0.000009
C58	C	1.409155	0.775338	-0.000008
C59	C	1.005310	0.775334	-0.301532
C60	C	1.005309	0.775333	-0.403863
C61	C	1.005321	1.007885	-0.000025
C62	C	1.005325	1.086810	-0.000029
C63	C	1.005309	0.711120	-0.548099
C64	C	1.005303	0.711117	-0.451944
C65	C	1.005308	0.839561	-0.451936
C66	C	1.005305	0.839567	-0.548084
C67	C	1.005312	0.775341	0.301501
C68	C	1.005312	0.775342	0.403833
C69	C	0.703808	1.007885	-0.000031
C70	C	0.601480	1.086809	-0.000036
C71	C	0.703798	0.775341	0.301496
C72	C	0.601467	0.775342	0.403826
C73	C	0.703809	1.007888	0.301485
C74	C	0.601482	1.086814	0.403812
C75	C	1.306813	0.542786	-0.301516
C76	C	1.409140	0.463861	-0.403842
C77	C	1.306814	0.542790	0.000001
C78	C	1.409141	0.463866	0.000006
C79	C	1.306823	0.775334	-0.301526
C80	C	1.409154	0.775333	-0.403856
C81	C	0.553424	1.078463	-0.058924
C82	C	0.457290	1.152613	-0.058952
C83	C	0.409207	1.235110	-0.000084
C84	C	0.457273	1.243455	0.058805
C85	C	0.553412	1.169305	0.058825
C86	C	0.553430	1.169295	0.392986
C87	C	0.457296	1.243461	0.489124
C88	C	0.409209	1.235144	0.596086
C89	C	0.457271	1.152655	0.606909
C90	C	0.553409	1.078490	0.510773
C91	C	1.457203	0.381380	-0.393017
C92	C	1.553367	0.307214	-0.489154
C93	C	1.601459	0.315530	-0.596116
C94	C	1.553391	0.398020	-0.606939
C95	C	1.457236	0.472184	-0.510803
C96	C	1.457207	0.472212	0.058884
C97	C	1.553368	0.398061	0.058885
C98	C	1.601454	0.315565	0.000014
C99	C	1.553384	0.307220	-0.058871
C100	C	1.457231	0.381370	-0.058878
C101	C	0.553392	0.820752	0.510776
C102	C	0.457251	0.820743	0.606922
C103	C	0.457264	0.729913	0.489154
C104	C	0.553410	0.729917	0.393010
H105	H	0.592535	0.857717	-0.106858
H106	H	1.005305	0.891851	-0.412779
H107	H	0.592526	0.692955	0.106826
C108	C	0.404367	0.870698	0.724563
H109	H	0.446755	0.897755	0.717228
H110	H	0.420127	0.831504	0.764522
H111	H	0.313587	0.913670	0.764511
H112	H	0.418110	1.310633	0.106733
C113	C	0.606305	0.987726	-0.123690
H114	H	0.563915	0.993388	-0.158772
H115	H	0.590544	0.956905	-0.072877
H116	H	0.697084	0.956914	-0.179405
C117	C	1.005311	0.910214	-0.600964
H118	H	1.005326	0.948456	-0.558568
H119	H	0.929981	0.941936	-0.600808
H120	H	1.080650	0.883829	-0.676140
C121	C	1.404350	0.372183	-0.123631
H122	H	1.340201	0.428154	-0.115216
H123	H	1.366854	0.341363	-0.094547
H124	H	1.473380	0.341368	-0.201094
H125	H	1.218960	0.145855	-0.106808
C126	C	0.606301	0.679964	0.275356
H127	H	0.670455	0.686465	0.219647
H128	H	0.537286	0.702382	0.266909
H129	H	0.643822	0.620217	0.266924
H130	H	1.418103	0.539342	-0.519631
H131	H	1.592491	0.404873	0.106840
C132	C	0.404384	0.679961	0.477266
H133	H	0.340226	0.686469	0.549842
H134	H	0.473404	0.620218	0.437317
H135	H	0.366871	0.702394	0.437314
C136	C	0.758014	0.562926	0.123637
H137	H	0.687888	0.557262	0.158707
H138	H	0.753107	0.593751	0.072826
H139	H	0.753123	0.593737	0.179360
H140	H	0.418174	1.310621	0.480291
C141	C	1.005309	0.640469	-0.399078
H142	H	1.005322	0.602219	-0.441493
H143	H	0.929980	0.666843	-0.323907
H144	H	1.080649	0.608745	-0.399241
C145	C	0.303461	1.316727	0.701829
H146	H	0.281706	1.299967	0.767088
H147	H	0.228450	1.350278	0.701825
H148	H	0.335006	1.350264	0.701816
C149	C	0.606312	1.178461	0.275341
H150	H	0.563924	1.238210	0.282679
H151	H	0.590549	1.151425	0.235382
H152	H	0.697092	1.151416	0.235392
C153	C	1.606221	0.216485	-0.477235
H154	H	1.670388	0.173500	-0.549803
H155	H	1.537190	0.209985	-0.437291
H156	H	1.643716	0.209993	-0.437268
H157	H	1.679747	0.255194	0.000029
C158	C	0.404344	0.870699	-0.123650
H159	H	0.340180	0.864206	-0.115202
H160	H	0.473358	0.848276	-0.201111
H161	H	0.366835	0.930444	-0.094568
H162	H	0.791668	0.310627	0.106787
H163	H	1.592550	0.240041	-0.106802
H164	H	0.418104	1.145896	0.694010
C165	C	0.606251	0.987764	0.522688
H166	H	0.670402	0.944778	0.450120
H167	H	0.537211	0.981275	0.562648
H168	H	0.643764	0.981263	0.562641
C169	C	1.404334	0.372214	-0.275372
H170	H	1.446755	0.312465	-0.282709
H171	H	1.313561	0.399247	-0.235408
H172	H	1.420104	0.399260	-0.235426
H173	H	0.418166	1.145802	-0.106906
C174	C	0.606271	0.870702	0.522672
H175	H	0.563877	0.897736	0.600141
H176	H	0.590518	0.913677	0.487614
H177	H	0.697049	0.831497	0.487616
C178	C	1.707209	0.233945	-0.701856
H179	H	1.728927	0.183633	-0.680079
H180	H	1.782241	0.233924	-0.745366
H181	H	1.675680	0.233936	-0.745345
C182	C	0.404354	0.679978	0.123648
H183	H	0.340214	0.686472	0.115209
H184	H	0.366847	0.702402	0.201106
H185	H	0.473388	0.620233	0.094565
H186	H	0.330923	1.295481	-0.000109
H187	H	0.791667	0.404822	0.106807
C188	C	1.005265	0.640495	-0.600962
H189	H	1.005240	0.602256	-0.558548
H190	H	1.080582	0.608766	-0.676138
H191	H	0.929912	0.666902	-0.600782
C192	C	1.252597	0.216484	-0.123635
H193	H	1.322723	0.222147	-0.158685
H194	H	1.257501	0.185664	-0.179355
H195	H	1.257488	0.185669	-0.072806
C196	C	0.606267	1.178492	0.123605
H197	H	0.670420	1.122521	0.115186
H198	H	0.537234	1.209313	0.201059
H199	H	0.643781	1.209304	0.094514
C200	C	1.606283	0.407162	-0.724597
H201	H	1.563896	0.466906	-0.717288
H202	H	1.590523	0.380108	-0.764539
H203	H	1.697063	0.380120	-0.764549
C204	C	1.404329	0.562948	0.123648
H205	H	1.446747	0.557287	0.158700
H206	H	1.313557	0.593765	0.179366
H207	H	1.420092	0.593765	0.072821
H208	H	0.791676	0.176085	0.106778
H209	H	1.218961	0.011316	-0.106839
H210	H	1.218943	0.374590	-0.106794
