data_functionalizedCrystal
_audit_creation_method	'MofGen! by Chris Wilmer'
_symmetry_space_group_name_H-M	'P1'
_symmetry_Int_Tables_number	1
_symmetry_cell_setting	triclinic
loop_
_symmetry_equiv_pos_as_xyz
  x,y,z
_cell_length_a	16.974897
_cell_length_b	14.044190
_cell_length_c	16.053802
_cell_angle_alpha	92.795827
_cell_angle_beta	83.774775
_cell_angle_gamma	88.286117
loop_
_atom_site_label
_atom_site_type_symbol
_atom_site_fract_x
_atom_site_fract_y
_atom_site_fract_z
O1	O	1.063874	0.112742	-0.141246
O2	O	0.834073	0.129006	-0.125738
O3	O	0.945521	-0.017092	-0.133243
O4	O	0.952426	0.258841	-0.133741
O5	O	0.939384	-0.009083	0.006030
O6	O	0.827936	0.137015	0.013534
O7	O	1.057737	0.120751	-0.001974
Zn8	Zn	0.941862	0.130155	0.027893
Zn9	Zn	0.949948	0.119603	-0.155604
O10	O	0.946290	0.266849	0.005531
C11	C	0.801417	0.132538	-0.054105
C12	C	0.713256	0.131120	-0.048155
C13	C	0.675175	0.126090	-0.121271
C14	C	0.592337	0.124773	-0.115667
C15	C	0.547581	0.128479	-0.036948
C16	C	0.585667	0.133511	0.036173
C17	C	0.668504	0.134835	0.030569
C18	C	0.299478	0.124994	-0.012047
C19	C	0.216636	0.123667	-0.006449
C20	C	0.223311	0.114930	-0.158290
C21	C	0.306149	0.116249	-0.163887
C22	C	0.344228	0.121286	-0.090766
N23	N	0.462907	0.127129	-0.031219
N24	N	0.428900	0.122642	-0.096496
C25	C	0.939432	-0.048386	-0.063400
C26	C	0.930422	-0.153566	-0.062785
C27	C	0.977850	-0.404097	-0.066018
C28	C	0.913964	-0.346141	-0.061701
C29	C	0.923123	-0.238982	-0.062304
C30	C	0.968692	-0.511265	-0.065415
C31	C	1.090393	0.117219	-0.073609
C32	C	1.178555	0.118637	-0.079564
C33	C	0.952379	0.298144	-0.064313
C34	C	0.961389	0.403323	-0.064934
N35	N	0.936350	0.137355	0.153124
N36	N	0.955466	0.112395	-0.280836
C37	C	0.983792	0.075212	0.193623
C38	C	0.979944	0.080258	0.281289
C39	C	0.928658	0.147452	0.328454
C40	C	0.881211	0.209598	0.287949
C41	C	0.885055	0.204547	0.200285
C42	C	0.911863	0.169489	0.590995
C43	C	0.908024	0.174538	0.678664
C44	C	1.006757	0.045196	0.671999
C45	C	1.010600	0.040155	0.584333
C46	C	0.963150	0.102297	0.543836
N47	N	0.924725	0.152614	0.418063
N48	N	0.967079	0.097130	0.454229
H49	H	0.342584	0.113225	-0.227989
H50	H	0.699507	0.138935	0.090108
H51	H	0.852390	-0.377001	-0.057551
O52	O	1.026069	0.020034	0.320724
C53	C	1.076362	0.073492	0.367851
H54	H	1.049442	0.148532	0.382748
H55	H	1.136907	0.077730	0.330067
C56	C	1.118943	-0.067369	0.431947
C57	C	1.085875	0.024794	0.450250
H58	H	1.124814	-0.097409	0.482773
H59	H	1.085061	-0.103386	0.400195
H60	H	1.169393	-0.063825	0.400459
H61	H	1.035422	0.021248	0.481728
H62	H	1.119749	0.060810	0.482010
H63	H	1.039419	-0.373238	-0.070164
H64	H	1.052361	-0.014560	0.545933
H65	H	1.025558	0.020500	0.155227
H66	H	1.045387	-0.005399	0.704980
H67	H	0.180196	0.126711	0.057658
H68	H	0.866259	0.229259	0.717062
O69	O	0.865748	0.229956	0.551794
C70	C	0.819648	0.290330	0.612225
H71	H	0.849499	0.294855	0.672504
H72	H	0.758155	0.260362	0.625696
C73	C	0.775368	0.385095	0.504574
C74	C	0.812036	0.390658	0.578609
H75	H	0.770669	0.446981	0.483838
H76	H	0.806424	0.344418	0.463860
H77	H	0.724128	0.360117	0.515810
H78	H	0.863278	0.415624	0.567369
H79	H	0.780988	0.431342	0.619320
O80	O	0.186276	0.110216	-0.229290
C81	C	0.135377	0.191236	-0.230375
H82	H	0.156233	0.251463	-0.188836
H83	H	0.072416	0.172854	-0.205779
C84	C	0.111036	0.149240	-0.371915
C85	C	0.136656	0.223215	-0.320902
H86	H	0.111822	0.168965	-0.427756
H87	H	0.145325	0.094654	-0.371183
H88	H	0.058571	0.133929	-0.351408
H89	H	0.189123	0.238517	-0.341402
H90	H	0.102376	0.277805	-0.321639
O91	O	0.831275	0.274772	0.333735
C92	C	0.752629	0.258491	0.317693
H93	H	0.747934	0.181242	0.293998
H94	H	0.735281	0.308183	0.268125
C95	C	0.702263	0.372814	0.428239
C96	C	0.696495	0.277932	0.399144
H97	H	0.667635	0.384809	0.478480
H98	H	0.755248	0.383785	0.439045
H99	H	0.687807	0.414212	0.386925
H100	H	0.710960	0.236535	0.440453
H101	H	0.643511	0.266954	0.388346
H102	H	0.846422	0.255149	0.167311
H103	H	0.711610	0.123070	-0.185373
H104	H	0.561335	0.120678	-0.175206
H105	H	0.330472	0.129089	0.047493
H106	H	0.549220	0.136534	0.100269
