data_functionalizedCrystal
_audit_creation_method	'MofGen! by Chris Wilmer'
_symmetry_space_group_name_H-M	'P1'
_symmetry_Int_Tables_number	1
_symmetry_cell_setting	triclinic
loop_
_symmetry_equiv_pos_as_xyz
  x,y,z
_cell_length_a	6.817900
_cell_length_b	15.301126
_cell_length_c	16.418042
_cell_angle_alpha	95.179687
_cell_angle_beta	103.389568
_cell_angle_gamma	104.177575
loop_
_atom_site_label
_atom_site_type_symbol
_atom_site_fract_x
_atom_site_fract_y
_atom_site_fract_z
V1	V	-4.029051	-0.125492	-0.261410
O2	O	-4.012948	0.005276	-0.256172
O3	O	-3.983989	-0.248105	-0.259874
O4	O	-3.980081	-0.123893	-0.375305
O5	O	-4.016883	-0.119796	-0.139942
V6	V	-4.512320	-0.109812	-0.246851
O7	O	-4.290866	-0.159889	-0.293346
O8	O	-4.700703	-0.075415	-0.214914
O9	O	-4.334176	0.012801	-0.248386
O10	O	-4.645821	-0.240581	-0.252089
O11	O	-4.641886	-0.115509	-0.368319
O12	O	-4.338084	-0.111411	-0.132956
C13	C	-3.829821	-0.277985	-0.255815
C14	C	-3.874260	-0.378224	-0.255318
C15	C	-3.824834	-0.119539	-0.403057
C16	C	-3.866102	-0.119043	-0.496169
C17	C	-4.077354	-0.429922	-0.259272
C18	C	-4.119101	-0.524108	-0.258811
C19	C	-3.957747	-0.566594	-0.254389
C20	C	-3.754637	-0.514891	-0.250437
C21	C	-3.712897	-0.420707	-0.250905
C22	C	-3.841649	-0.711199	-0.249461
C23	C	-3.883391	-0.805388	-0.248991
C24	C	-4.247853	-0.814599	-0.257366
C25	C	-4.206113	-0.720416	-0.257834
C26	C	-4.003004	-0.668719	-0.253881
C27	C	-4.143216	-0.122397	-0.714661
C28	C	-4.181971	-0.121923	-0.802148
C29	C	-3.817512	-0.112903	-0.793587
C30	C	-3.778756	-0.113370	-0.706101
C31	C	-3.941617	-0.118122	-0.666641
C32	C	-4.019129	-0.117180	-0.841614
C33	C	-4.061148	-0.116666	-0.936470
C34	C	-3.899595	-0.118635	-0.571778
C35	C	-4.151687	0.042676	-0.252443
C36	C	-4.086485	0.142915	-0.252945
C37	C	-4.156673	-0.115768	-0.105199
C38	C	-4.094644	-0.116260	-0.012086
H39	H	-4.208749	-0.395335	-0.262865
H40	H	-4.346129	-0.125402	-0.841242
N41	N	-4.380146	-0.674592	-0.262614
H42	H	-4.439723	-0.684091	-0.212187
H43	H	-4.494306	-0.701929	-0.316581
N44	N	-4.318860	-0.127519	-0.672099
H45	H	-4.452451	-0.130153	-0.715798
H46	H	-4.281844	-0.071728	-0.627735
H47	H	-4.413226	-0.856694	-0.260573
H48	H	-3.684923	-0.109036	-0.825726
N49	N	-3.709370	-0.851220	-0.244204
H50	H	-3.745943	-0.899009	-0.295995
H51	H	-3.691307	-0.881120	-0.191602
H52	H	-3.676264	-0.669110	-0.246248
N53	N	-3.580597	-0.560710	-0.245655
H54	H	-3.617155	-0.608493	-0.297449
H55	H	-3.562514	-0.590614	-0.193055
H56	H	-3.614579	-0.109882	-0.667000
N57	N	-4.338204	-0.579831	-0.263105
H58	H	-4.437897	-0.574312	-0.317205
H59	H	-4.383053	-0.556510	-0.212805
N60	N	-3.493848	-0.364944	-0.246647
H61	H	-3.397962	-0.406149	-0.243774
H62	H	-3.441204	-0.316759	-0.194477
