data_functionalizedCrystal
_audit_creation_method	'MofGen! by Chris Wilmer'
_symmetry_space_group_name_H-M	'P1'
_symmetry_Int_Tables_number	1
_symmetry_cell_setting	triclinic
loop_
_symmetry_equiv_pos_as_xyz
  x,y,z
_cell_length_a	14.519709
_cell_length_b	16.109301
_cell_length_c	15.186229
_cell_angle_alpha	89.997109
_cell_angle_beta	90.001226
_cell_angle_gamma	96.429187
loop_
_atom_site_label
_atom_site_type_symbol
_atom_site_fract_x
_atom_site_fract_y
_atom_site_fract_z
O1	O	0.118535	-1.103339	0.073175
O2	O	0.618535	-0.603339	0.573175
O3	O	0.133287	-0.861303	0.073189
O4	O	0.633287	-0.361303	0.573189
O5	O	-0.008341	-0.988738	0.073174
O6	O	0.491659	-0.488738	0.573174
O7	O	0.260163	-0.975904	0.073190
O8	O	0.760163	-0.475904	0.573190
O9	O	-0.008333	-0.988723	-0.073284
O10	O	0.491667	-0.488723	0.426716
O11	O	0.133295	-0.861288	-0.073268
O12	O	0.633295	-0.361288	0.426732
O13	O	0.118543	-1.103324	-0.073282
O14	O	0.618543	-0.603324	0.426718
Zn15	Zn	0.125920	-0.982303	-0.096529
Zn16	Zn	0.625920	-0.482303	0.403471
Zn17	Zn	0.125910	-0.982323	0.096435
Zn18	Zn	0.625910	-0.482323	0.596435
O19	O	0.260171	-0.975889	-0.073267
O20	O	0.760171	-0.475889	0.426733
C21	C	0.132693	-0.830319	-0.000038
C22	C	0.632693	-0.330319	0.499962
C23	C	0.130902	-0.738021	-0.000033
C24	C	0.630902	-0.238021	0.499967
C25	C	-0.042696	-0.988132	-0.000055
C26	C	0.457304	-0.488132	0.499945
C27	C	-0.145073	-0.986340	-0.000056
C28	C	0.354927	-0.486340	0.499944
C29	C	0.119136	-1.134307	-0.000054
C30	C	0.619136	-0.634307	0.499946
C31	C	0.120928	-1.226606	-0.000053
C32	C	0.620928	-0.726606	0.499947
C33	C	-0.519955	-0.979741	-0.000032
C34	C	-0.019955	-0.479741	0.499968
C35	C	-0.415651	-0.981574	-0.000039
C36	C	0.084349	-0.481574	0.499961
C37	C	-0.332517	-0.983041	-0.000045
C38	C	0.167483	-0.483041	0.499955
C39	C	-0.228207	-0.984873	-0.000050
C40	C	0.271793	-0.484873	0.499950
C41	C	0.294526	-0.976494	-0.000036
C42	C	0.794526	-0.476494	0.499964
C43	C	0.396903	-0.978287	-0.000030
C44	C	0.896903	-0.478287	0.499970
N45	N	0.125927	-0.982296	-0.228221
N46	N	0.625927	-0.482296	0.271779
C47	C	0.210775	-0.515887	-0.000038
C48	C	0.710775	-0.015887	0.499962
C49	C	0.209085	-0.429163	-0.000044
C50	C	0.709085	0.070837	0.499956
C51	C	0.041048	-0.448747	-0.000050
C52	C	0.541048	0.051253	0.499950
C53	C	0.042739	-0.535468	-0.000051
C54	C	0.542739	-0.035468	0.499949
C55	C	0.127606	-0.569036	-0.000040
C56	C	0.627606	-0.069036	0.499960
C57	C	0.124224	-0.395591	-0.000045
C58	C	0.624224	0.104409	0.499955
C59	C	0.122390	-0.301562	-0.000052
C60	C	0.622390	0.198438	0.499948
C61	C	0.129440	-0.663071	-0.000036
C62	C	0.629440	-0.163071	0.499964
C63	C	0.181864	-1.032817	-0.453944
C64	C	0.681864	-0.532817	0.046056
C65	C	0.181857	-1.032826	-0.546133
C66	C	0.681857	-0.532826	-0.046133
C67	C	0.069952	-0.931815	-0.546143
C68	C	0.569952	-0.431815	-0.046143
C69	C	0.069955	-0.931810	-0.453956
C70	C	0.569955	-0.431810	0.046044
C71	C	0.125916	-0.982310	-0.407858
C72	C	0.625916	-0.482310	0.092142
C73	C	0.125907	-0.982323	-0.592236
C74	C	0.625907	-0.482323	-0.092236
C75	C	0.125899	-0.982333	-0.692192
C76	C	0.625899	-0.482333	-0.192192
C77	C	0.125922	-0.982302	-0.307895
C78	C	0.625922	-0.482302	0.192105
N79	N	0.125896	-0.982337	0.228128
N80	N	0.625896	-0.482337	0.728128
H81	H	0.279879	-0.543214	-0.000036
H82	H	0.779879	-0.043214	0.499964
H83	H	0.227414	-1.073954	-0.583652
H84	H	0.727414	-0.573954	-0.083652
Cl85	Cl	0.252207	-1.096309	-0.395995
Cl86	Cl	0.752207	-0.596309	0.104005
Cl87	Cl	-0.061825	-0.602290	-0.000061
Cl88	Cl	0.438175	-0.102290	0.499939
H89	H	0.024392	-0.890699	-0.583687
H90	H	0.524392	-0.390699	-0.083687
Cl91	Cl	-0.000384	-0.868309	-0.396015
Cl92	Cl	0.499616	-0.368309	0.103985
H93	H	0.276810	-0.385892	-0.000044
H94	H	0.776810	0.114108	0.499956
Cl95	Cl	-0.065635	-0.406541	-0.000058
Cl96	Cl	0.434365	0.093459	0.499942
