data_functionalizedCrystal
_audit_creation_method	'MofGen! by Chris Wilmer'
_symmetry_space_group_name_H-M	'P1'
_symmetry_Int_Tables_number	1
_symmetry_cell_setting	triclinic
loop_
_symmetry_equiv_pos_as_xyz
  x,y,z
_cell_length_a	18.050591
_cell_length_b	25.639239
_cell_length_c	18.050582
_cell_angle_alpha	89.975362
_cell_angle_beta	89.979078
_cell_angle_gamma	90.034692
loop_
_atom_site_label
_atom_site_type_symbol
_atom_site_fract_x
_atom_site_fract_y
_atom_site_fract_z
Zn1	Zn	1.135238	-0.208240	-0.420021
Zn2	Zn	1.635238	0.291760	0.079979
Zn3	Zn	1.135126	-0.295667	-0.295826
Zn4	Zn	1.635126	0.204333	0.204174
Zn5	Zn	1.011058	-0.208242	-0.295832
Zn6	Zn	1.511058	0.291758	0.204168
Zn7	Zn	1.010983	-0.295640	-0.419962
Zn8	Zn	1.510983	0.204360	0.080038
O9	O	1.073101	-0.251947	-0.357910
O10	O	1.573101	0.248053	0.142090
O11	O	1.239148	-0.219848	-0.403568
O12	O	1.739148	0.280152	0.096432
O13	O	1.118653	-0.284083	-0.191902
O14	O	1.618653	0.215917	0.308098
O15	O	1.027609	-0.135076	-0.312333
O16	O	1.527609	0.364924	0.187667
O17	O	1.239066	-0.284081	-0.312323
O18	O	1.739066	0.215919	0.187677
O19	O	1.118844	-0.135075	-0.403574
O20	O	1.618844	0.364925	0.096426
O21	O	1.027500	-0.219851	-0.191906
O22	O	1.527500	0.280149	0.308094
O23	O	0.907123	-0.219825	-0.312276
O24	O	1.407123	0.280175	0.187724
O25	O	1.027481	-0.284034	-0.523894
O26	O	1.527481	0.215966	-0.023894
O27	O	0.907068	-0.284036	-0.403473
O28	O	1.407068	0.215964	0.096527
O29	O	1.118771	-0.219821	-0.523938
O30	O	1.618771	0.280179	-0.023938
O31	O	1.118580	-0.368829	-0.312266
O32	O	1.618580	0.131171	0.187734
O33	O	1.027373	-0.368809	-0.403468
O34	O	1.527373	0.131191	0.096532
C35	C	0.880149	-0.251928	-0.357869
C36	C	1.380149	0.248072	0.142131
C37	C	0.797604	-0.251932	-0.357869
C38	C	1.297604	0.248068	0.142131
C39	C	0.598161	-0.216974	-0.308390
C40	C	1.098161	0.283026	0.191610
C41	C	0.548729	-0.264661	-0.290112
C42	C	1.048729	0.235339	0.209888
C43	C	0.646473	-0.251948	-0.357903
C44	C	1.146473	0.248052	0.142097
C45	C	0.548824	-0.204277	-0.376179
C46	C	1.048824	0.295723	0.123821
C47	C	0.500488	-0.251959	-0.357934
C48	C	1.000488	0.248041	0.142066
C49	C	0.598128	-0.299660	-0.339589
C50	C	1.098128	0.200340	0.160411
C51	C	0.598227	-0.239244	-0.425688
C52	C	1.098227	0.260756	0.074312
C53	C	0.548817	-0.286965	-0.407435
C54	C	1.048817	0.213035	0.092565
C55	C	0.730571	-0.251941	-0.357883
C56	C	1.230571	0.248059	0.142117
C57	C	0.416392	-0.251971	-0.357954
C58	C	0.916392	0.248029	0.142046
C59	C	1.072977	-0.387790	-0.357876
C60	C	1.572977	0.112210	0.142124
C61	C	1.072991	-0.445904	-0.357886
C62	C	1.572991	0.054096	0.142114
C63	C	1.120717	-0.806265	-0.310502
C64	C	1.620717	-0.306265	0.189498
C65	C	1.120746	-0.860869	-0.310512
C66	C	1.620746	-0.360869	0.189488
O67	O	1.161195	-0.889104	-0.270187
O68	O	1.661195	-0.389104	0.229813
N69	N	1.073232	-0.888186	-0.357959
N70	N	1.573232	-0.388186	0.142041
C71	C	1.025691	-0.860896	-0.405405
C72	C	1.525691	-0.360896	0.094595
O73	O	0.985280	-0.889145	-0.445764
O74	O	1.485280	-0.389145	0.054236
C75	C	1.025667	-0.806293	-0.405398
C76	C	1.525667	-0.306293	0.094602
C77	C	1.073179	-0.778979	-0.357943
C78	C	1.573179	-0.278979	0.142057
C79	C	1.168226	-0.778951	-0.263051
C80	C	1.668226	-0.278951	0.236949
C81	C	1.168196	-0.724350	-0.263040
C82	C	1.668196	-0.224350	0.236960
C83	C	1.120657	-0.697064	-0.310481
C84	C	1.620657	-0.197064	0.189519
C85	C	1.073149	-0.724378	-0.357932
C86	C	1.573149	-0.224378	0.142068
C87	C	0.978131	-0.779004	-0.452847
C88	C	1.478131	-0.279004	0.047153
C89	C	0.978111	-0.724397	-0.452837
C90	C	1.478111	-0.224397	0.047163
C91	C	1.025622	-0.697083	-0.405381
C92	C	1.525622	-0.197083	0.094619
C93	C	1.025580	-0.642491	-0.405362
C94	C	1.525580	-0.142491	0.094638
N95	N	1.073094	-0.615174	-0.357914
N96	N	1.573094	-0.115174	0.142086
C97	C	1.120633	-0.642460	-0.310474
C98	C	1.620633	-0.142460	0.189526
C99	C	1.025747	-0.975567	-0.405416
C100	C	1.525747	-0.475567	0.094584
C101	C	1.025768	-1.030169	-0.405420
C102	C	1.525768	-0.530169	0.094580
C103	C	1.120823	-1.030138	-0.310528
C104	C	1.620823	-0.530138	0.189472
C105	C	1.120799	-0.975535	-0.310521
C106	C	1.620799	-0.475535	0.189479
C107	C	1.073261	-0.948250	-0.357969
C108	C	1.573261	-0.448250	0.142031
C109	C	1.120566	-0.527795	-0.310455
C110	C	1.620566	-0.027795	0.189545
C111	C	1.120530	-0.473190	-0.310446
C112	C	1.620530	0.026810	0.189554
C113	C	1.025477	-0.473226	-0.405340
C114	C	1.525477	0.026774	0.094660
C115	C	1.025510	-0.527826	-0.405347
C116	C	1.525510	-0.027826	0.094653
C117	C	1.073061	-0.555110	-0.357901
C118	C	1.573061	-0.055110	0.142099
O119	O	0.985154	-0.614222	-0.445668
O120	O	1.485154	-0.114222	0.054332
O121	O	1.161044	-0.614205	-0.270129
O122	O	1.661044	-0.114205	0.229871
C123	C	1.266807	-0.251967	-0.357952
C124	C	1.766807	0.248033	0.142048
C125	C	1.349353	-0.251976	-0.357970
C126	C	1.849353	0.248024	0.142030
C127	C	1.073131	-0.251924	-0.551616
C128	C	1.573131	0.248076	-0.051616
C129	C	1.073143	-0.251914	-0.634162
C130	C	1.573143	0.248086	-0.134162
C131	C	1.073247	-0.115574	-0.357961
C132	C	1.573247	0.384426	0.142039
C133	C	1.073309	-0.057460	-0.357982
C134	C	1.573309	0.442540	0.142018
C135	C	1.023537	-0.286785	-0.833589
C136	C	1.523537	0.213215	-0.333589
C137	C	1.091289	-0.299569	-0.882987
C138	C	1.591289	0.200431	-0.382987
C139	C	1.073180	-0.251874	-0.785292
C140	C	1.573180	0.248126	-0.285292
C141	C	1.005465	-0.239076	-0.882976
C142	C	1.505465	0.260924	-0.382976
C143	C	1.073209	-0.251837	-0.931277
C144	C	1.573209	0.248163	-0.431277
C145	C	1.140967	-0.264683	-0.833603
C146	C	1.640967	0.235317	-0.333603
C147	C	1.055097	-0.204168	-0.833588
C148	C	1.555097	0.295832	-0.333588
C149	C	1.122896	-0.216933	-0.882963
C150	C	1.622896	0.283067	-0.382963
C151	C	1.073162	-0.251897	-0.701194
C152	C	1.573162	0.248103	-0.201194
C153	C	1.073235	-0.251814	-1.015374
C154	C	1.573235	0.248186	-0.515374
C155	C	1.073115	-0.251933	-0.164958
C156	C	1.573115	0.248067	0.335042
C157	C	1.073247	-0.251795	-0.082413
C158	C	1.573247	0.248205	0.417587
H159	H	0.619696	-0.339992	-0.324080
H160	H	1.119696	0.160008	0.175920
O161	O	0.520294	-0.326192	-0.462916
O162	O	1.020294	0.173808	0.037084
H163	H	0.486493	-0.305852	-0.505374
H164	H	0.986493	0.194148	-0.005374
O165	O	0.967983	-0.325941	-0.804868
O166	O	1.467983	0.174059	-0.304868
H167	H	0.925617	-0.305530	-0.771038
H168	H	1.425617	0.194470	-0.271038
H169	H	1.159219	-0.450952	-0.271799
H170	H	1.659219	0.049048	0.228201
H171	H	0.939401	-0.702184	-0.491477
H172	H	1.439401	-0.202184	0.008523
O173	O	1.178583	-0.177807	-0.911504
O174	O	1.678583	0.322193	-0.411504
H175	H	1.163999	-0.138360	-0.890832
H176	H	1.663999	0.361640	-0.390832
O177	O	0.626867	-0.177840	-0.252869
O178	O	1.126867	0.322160	0.247131
H179	H	0.660731	-0.148029	-0.281936
H180	H	1.160731	0.351971	0.218064
O181	O	1.172050	-0.946075	-0.259346
O182	O	1.672050	-0.446075	0.240654
H183	H	1.205111	-0.974228	-0.226365
H184	H	1.705111	-0.474228	0.273635
H185	H	1.198261	-0.275538	-0.812006
H186	H	1.698261	0.224462	-0.312006
O187	O	0.627079	-0.224991	-0.501574
O188	O	1.127079	0.275009	-0.001574
H189	H	0.579707	-0.217511	-0.539292
H190	H	1.079707	0.282489	-0.039292
O191	O	1.172101	-1.059577	-0.259363
O192	O	1.672101	-0.559577	0.240637
H193	H	1.205135	-1.031414	-0.226359
H194	H	1.705135	-0.531414	0.273641
H195	H	1.106602	-0.339897	-0.904685
H196	H	1.606602	0.160103	-0.404685
O197	O	1.034784	-0.150771	-0.804795
O198	O	1.534784	0.349229	-0.304795
H199	H	0.978508	-0.140253	-0.824525
H200	H	1.478508	0.359747	-0.324525
O201	O	0.929597	-0.224749	-0.911701
O202	O	1.429597	0.275251	-0.411701
H203	H	0.888484	-0.253800	-0.891915
H204	H	1.388484	0.246200	-0.391915
H205	H	0.527126	-0.163963	-0.391599
H206	H	1.027126	0.336037	0.108401
O207	O	0.519920	-0.278908	-0.214201
O208	O	1.019920	0.221092	0.285799
H209	H	0.539676	-0.249816	-0.173186
H210	H	1.039676	0.250184	0.326814
O211	O	1.171844	-0.557219	-0.259277
O212	O	1.671844	-0.057219	0.240723
H213	H	1.204865	-0.529045	-0.226278
H214	H	1.704865	-0.029045	0.273722
O215	O	1.219498	-0.808377	-0.211874
O216	O	1.719498	-0.308377	0.288126
H217	H	1.252520	-0.780202	-0.178879
H218	H	1.752520	-0.280202	0.321121
O219	O	1.219454	-0.694895	-0.211867
O220	O	1.719454	-0.194895	0.288133
H221	H	1.206771	-0.705411	-0.153569
H222	H	1.706771	-0.205411	0.346431
O223	O	0.974518	-1.059628	-0.456598
O224	O	1.474518	-0.559628	0.043402
H225	H	0.941463	-1.031475	-0.489586
H226	H	1.441463	-0.531475	0.010414
H227	H	0.987030	-0.953354	-0.444052
H228	H	1.487030	-0.453354	0.055948
O229	O	0.926890	-0.808457	-0.504036
O230	O	1.426890	-0.308457	-0.004036
H231	H	0.893843	-0.780301	-0.537026
H232	H	1.393843	-0.280301	-0.037026
O233	O	0.974266	-0.557292	-0.456527
O234	O	1.474266	-0.057292	0.043473
H235	H	0.941207	-0.529142	-0.489515
H236	H	1.441207	-0.029142	0.010485
H237	H	0.986769	-0.451001	-0.443964
H238	H	1.486769	0.048999	0.056036
