data_functionalizedCrystal
_audit_creation_method	'MofGen! by Chris Wilmer'
_symmetry_space_group_name_H-M	'P1'
_symmetry_Int_Tables_number	1
_symmetry_cell_setting	triclinic
loop_
_symmetry_equiv_pos_as_xyz
  x,y,z
_cell_length_a	26.809956
_cell_length_b	19.188930
_cell_length_c	19.188930
_cell_angle_alpha	83.144779
_cell_angle_beta	89.999211
_cell_angle_gamma	89.977321
loop_
_atom_site_label
_atom_site_type_symbol
_atom_site_fract_x
_atom_site_fract_y
_atom_site_fract_z
O1	O	0.041646	-0.926150	-0.087158
O2	O	0.541646	-0.426150	0.412842
O3	O	0.041612	-0.722839	-0.098892
O4	O	0.541612	-0.222839	0.401108
O5	O	0.041620	-0.830362	0.008631
O6	O	0.541620	-0.330362	0.508631
O7	O	0.041638	-0.818628	-0.194681
O8	O	0.541638	-0.318628	0.305319
O9	O	-0.041339	-0.830342	0.008614
O10	O	0.458661	-0.330342	0.508614
O11	O	-0.041347	-0.722819	-0.098908
O12	O	0.458653	-0.222819	0.401092
O13	O	-0.041314	-0.926130	-0.087174
O14	O	0.458686	-0.426130	0.412826
Zn15	Zn	-0.054502	-0.824471	-0.093044
Zn16	Zn	0.445498	-0.324471	0.406956
Zn17	Zn	0.054800	-0.824498	-0.093022
Zn18	Zn	0.554800	-0.324498	0.406978
O19	O	-0.041322	-0.818607	-0.194697
O20	O	0.458678	-0.318607	0.305303
C21	C	0.000128	-0.696818	-0.098520
C22	C	0.500128	-0.196818	0.401480
C23	C	0.000115	-0.619313	-0.097380
C24	C	0.500115	-0.119313	0.402620
N25	N	-0.129098	-0.824458	-0.093058
N26	N	0.370902	-0.324458	0.406942
C27	C	0.000139	-0.829972	0.034634
C28	C	0.500139	-0.329972	0.534634
C29	C	0.000134	-0.828831	0.112138
C30	C	0.500134	-0.328831	0.612138
C31	C	-0.473721	-0.872103	-0.045423
C32	C	0.026279	-0.372103	0.454577
C33	C	-0.682598	-0.872119	-0.045412
C34	C	-0.182598	-0.372119	0.454588
O35	O	-0.709599	-0.912600	-0.004915
O36	O	-0.209599	-0.412600	0.495085
N37	N	-0.708725	-0.824502	-0.093007
N38	N	-0.208725	-0.324502	0.406993
C39	C	-0.682629	-0.776873	-0.140604
C40	C	-0.182629	-0.276873	0.359396
O41	O	-0.709645	-0.736367	-0.181082
O42	O	-0.209645	-0.236367	0.318918
C43	C	-0.473753	-0.776854	-0.140611
C44	C	0.026247	-0.276854	0.359389
C45	C	-0.447628	-0.824480	-0.093018
C46	C	0.052372	-0.324480	0.406982
C47	C	-0.447596	-0.919724	0.002167
C48	C	0.052404	-0.419724	0.502167
C49	C	-0.395380	-0.919722	0.002161
C50	C	0.104620	-0.419722	0.502161
C51	C	-0.369288	-0.872099	-0.045434
C52	C	0.130712	-0.372099	0.454566
C53	C	-0.395412	-0.824478	-0.093024
C54	C	0.104588	-0.324478	0.406976
C55	C	-0.447658	-0.729223	-0.188205
C56	C	0.052342	-0.229223	0.311795
C57	C	-0.395435	-0.729221	-0.188201
C58	C	0.104565	-0.229221	0.311799
C59	C	-0.369311	-0.776847	-0.140608
C60	C	0.130689	-0.276847	0.359392
C61	C	-0.317104	-0.776852	-0.140625
C62	C	0.182896	-0.276852	0.359375
N63	N	-0.290977	-0.824470	-0.093030
N64	N	0.209023	-0.324470	0.406970
C65	C	-0.317069	-0.872093	-0.045435
C66	C	0.182931	-0.372093	0.454565
C67	C	-0.792293	-0.776888	-0.140598
C68	C	-0.292293	-0.276888	0.359402
C69	C	-0.844512	-0.776893	-0.140598
C70	C	-0.344512	-0.276893	0.359402
C71	C	-0.844477	-0.872139	-0.045404
C72	C	-0.344477	-0.372139	0.454596
C73	C	-0.792257	-0.872136	-0.045409
C74	C	-0.292257	-0.372136	0.454591
C75	C	-0.766166	-0.824506	-0.093004
C76	C	-0.266166	-0.324506	0.406996
C77	C	-0.207411	-0.872086	-0.045451
C78	C	0.292589	-0.372086	0.454549
C79	C	-0.155190	-0.872081	-0.045463
C80	C	0.344810	-0.372081	0.454537
C81	C	-0.155229	-0.776834	-0.140653
C82	C	0.344771	-0.276834	0.359347
C83	C	-0.207446	-0.776840	-0.140644
C84	C	0.292554	-0.276840	0.359356
C85	C	-0.233535	-0.824469	-0.093037
C86	C	0.266465	-0.324469	0.406963
O87	O	-0.290071	-0.736387	-0.181095
O88	O	0.209929	-0.236387	0.318905
O89	O	-0.290045	-0.912583	-0.004954
O90	O	0.209955	-0.412583	0.495046
C91	C	-0.525937	-0.872105	-0.045417
C92	C	-0.025937	-0.372105	0.454583
C93	C	-0.552061	-0.824484	-0.093007
C94	C	-0.052061	-0.324484	0.406993
C95	C	-0.525969	-0.776861	-0.140602
C96	C	-0.025969	-0.276861	0.359398
C97	C	-0.604280	-0.824489	-0.093006
C98	C	-0.104280	-0.324489	0.406994
C99	C	-0.630372	-0.872113	-0.045411
C100	C	-0.130372	-0.372113	0.454589
C101	C	-0.604245	-0.919730	0.002184
C102	C	-0.104245	-0.419730	0.502184
C103	C	-0.552029	-0.919728	0.002178
C104	C	-0.052029	-0.419728	0.502178
C105	C	-0.552096	-0.729243	-0.188197
C106	C	-0.052096	-0.229243	0.311803
C107	C	-0.604312	-0.729249	-0.188188
C108	C	-0.104312	-0.229249	0.311812
C109	C	-0.630404	-0.776873	-0.140592
C110	C	-0.130404	-0.276873	0.359408
N111	N	0.129396	-0.824517	-0.093002
N112	N	0.629396	-0.324517	0.406998
C113	C	0.000171	-0.952151	-0.087546
C114	C	0.500171	-0.452151	0.412454
C115	C	0.000188	-1.029656	-0.088687
C116	C	0.500188	-0.529656	0.411313
C117	C	0.000128	-0.574389	-0.160470
C118	C	0.500128	-0.074389	0.339530
C119	C	0.000133	-0.501566	-0.159399
C120	C	0.500133	-0.001566	0.340601
C121	C	0.000136	-0.473669	-0.095233
C122	C	0.500136	0.026331	0.404767
C123	C	0.000120	-0.518603	-0.032133
C124	C	0.500120	-0.018603	0.467867
C125	C	0.000109	-0.591425	-0.033207
C126	C	0.500109	-0.091425	0.466793
N127	N	0.028386	-0.365696	-0.046180
N128	N	0.528386	0.134304	0.453820
N129	N	0.028397	-0.296517	-0.045165
N130	N	0.528397	0.203483	0.454835
C131	C	0.000166	-0.254260	-0.091994
C132	C	0.500166	0.245740	0.408006
N133	N	-0.028070	-0.283794	-0.139889
N134	N	0.471930	0.216206	0.360111
N135	N	-0.028079	-0.352979	-0.140906
N136	N	0.471921	0.147021	0.359094
C137	C	0.000147	-0.394707	-0.094061
C138	C	0.500147	0.105293	0.405939
C139	C	0.000184	-0.130372	-0.153928
C140	C	0.500184	0.369628	0.346072
C141	C	0.000187	-0.057547	-0.152853
C142	C	0.500187	0.442453	0.347147
C143	C	0.000178	-0.074586	-0.025586
C144	C	0.500178	0.425414	0.474414
C145	C	0.000170	-0.147409	-0.026662
C146	C	0.500170	0.352591	0.473338
C147	C	0.000176	-0.175298	-0.090835
C148	C	0.500176	0.324702	0.409165
C149	C	0.000161	-0.818997	-0.220700
C150	C	0.500161	-0.318997	0.279300
C151	C	0.000168	-0.820138	-0.298204
C152	C	0.500168	-0.320138	0.201796
C153	C	0.000142	-0.891922	0.157062
C154	C	0.500142	-0.391922	0.657062
C155	C	0.000150	-0.890850	0.229886
C156	C	0.500150	-0.390850	0.729886
C157	C	0.000140	-0.826684	0.257782
C158	C	0.500140	-0.326684	0.757782
C159	C	0.000135	-0.763585	0.212849
C160	C	0.500135	-0.263585	0.712849
C161	C	0.000132	-0.764658	0.140026
C162	C	0.500132	-0.264658	0.640026
N163	N	-0.028101	-0.777630	0.365782
N164	N	0.471899	-0.277630	0.865782
N165	N	-0.028099	-0.776614	0.434960
N166	N	0.471901	-0.276614	0.934960
C167	C	0.000150	-0.823446	0.477191
C168	C	0.500150	-0.323446	0.977191
N169	N	0.028390	-0.871342	0.447631
N170	N	0.528390	-0.371342	0.947631
N171	N	0.028386	-0.872359	0.378446
N172	N	0.528386	-0.372359	0.878446
C173	C	0.000143	-0.825513	0.336745
C174	C	0.500143	-0.325513	0.836745
C175	C	0.000167	-0.885379	0.601079
C176	C	0.500167	-0.385379	1.101079
C177	C	0.000178	-0.884305	0.673904
C178	C	0.500178	-0.384305	1.173904
C179	C	0.000157	-0.757038	0.656865
C180	C	0.500157	-0.257038	1.156865
C181	C	0.000151	-0.758114	0.584042
C182	C	0.500151	-0.258114	1.084042
C183	C	0.000154	-0.822287	0.556154
C184	C	0.500154	-0.322287	1.056154
H185	H	-0.133921	-0.910866	-0.006707
H186	H	0.366079	-0.410866	0.493293
C187	C	0.000122	-0.693004	0.243532
C188	C	0.500122	-0.193004	0.743532
H189	H	0.000119	-0.701400	0.293337
H190	H	0.500119	-0.201400	0.793337
H191	H	0.029047	-0.667041	0.228098
H192	H	0.529047	-0.167041	0.728098
H193	H	-0.028816	-0.667030	0.228098
H194	H	0.471184	-0.167030	0.728098
H195	H	0.000128	-0.495885	0.020111
H196	H	0.500128	0.004115	0.520111
C197	C	0.000156	-0.452141	-0.228801
C198	C	0.500156	0.047859	0.271199
H199	H	0.000162	-0.479180	-0.267173
H200	H	0.500162	0.020820	0.232827
H201	H	-0.028767	-0.423348	-0.231041
H202	H	0.471233	0.076652	0.268959
H203	H	0.029096	-0.423410	-0.231010
H204	H	0.529096	0.076590	0.268990
C205	C	0.000155	-0.960253	0.279311
C206	C	0.500155	-0.460253	0.779311
H207	H	0.000153	-0.998624	0.252272
H208	H	0.500153	-0.498624	0.752272
H209	H	0.029085	-0.962491	0.308075
H210	H	0.529085	-0.462491	0.808075
H211	H	-0.028778	-0.962463	0.308071
H212	H	0.471222	-0.462463	0.808071
H213	H	-0.625498	-0.958510	0.040936
H214	H	-0.125498	-0.458510	0.540936
H215	H	0.000134	-0.597091	-0.212725
H216	H	0.500134	-0.097091	0.287275
H217	H	-0.228647	-0.910868	-0.006684
H218	H	0.271353	-0.410868	0.493316
C219	C	0.000119	-0.695256	0.090608
C220	C	0.500119	-0.195256	0.590608
H221	H	0.000111	-0.656885	0.117649
H222	H	0.500111	-0.156885	0.617649
H223	H	0.029045	-0.693036	0.061840
H224	H	0.529045	-0.193036	0.561840
H225	H	-0.028818	-0.693024	0.061853
H226	H	0.471182	-0.193024	0.561853
C227	C	0.000098	-0.640846	0.036194
C228	C	0.500098	-0.140846	0.536194
H229	H	0.000090	-0.688211	0.026364
H230	H	0.500090	-0.188211	0.526364
H231	H	0.029027	-0.632435	0.062522
H232	H	0.529027	-0.132435	0.562522
H233	H	-0.028837	-0.632390	0.062508
H234	H	0.471163	-0.132390	0.562508
H235	H	-0.374194	-0.690433	-0.226958
H236	H	0.125806	-0.190433	0.273042
C237	C	-0.873243	-0.724506	-0.192950
C238	C	-0.373243	-0.224506	0.307050
H239	H	-0.850220	-0.696139	-0.221288
H240	H	-0.350220	-0.196139	0.278712
H241	H	-0.893608	-0.749523	-0.221958
H242	H	-0.393608	-0.249523	0.278042
H243	H	-0.893619	-0.695521	-0.167896
H244	H	-0.393619	-0.195521	0.332104
H245	H	0.000162	-0.183988	0.024713
H246	H	0.500162	0.316012	0.524713
H247	H	0.000187	-0.935683	0.710481
H248	H	0.500187	-0.435683	1.210481
H249	H	0.000182	-0.153080	-0.206181
H250	H	0.500182	0.346920	0.293819
C251	C	0.000201	-0.008130	-0.222257
C252	C	0.500201	0.491870	0.277743
H253	H	0.000208	-0.035172	-0.260626
H254	H	0.500208	0.464828	0.239374
H255	H	-0.028725	0.020656	-0.224494
H256	H	0.471275	0.520656	0.275506
H257	H	0.029139	0.020607	-0.224472
H258	H	0.529139	0.520607	0.275528
H259	H	-0.228716	-0.738066	-0.179406
H260	H	0.271284	-0.238066	0.320594
H261	H	-0.770990	-0.910916	-0.006654
H262	H	-0.270990	-0.410916	0.493346
H263	H	0.000210	-0.051874	0.026659
H264	H	0.500210	0.448126	0.526659
H265	H	0.000171	-0.937632	0.578372
H266	H	0.500171	-0.437632	1.078372
C267	C	-0.873182	-0.924522	0.006954
C268	C	-0.373182	-0.424522	0.506954
H269	H	-0.850148	-0.952886	0.035301
H270	H	-0.350148	-0.452886	0.535301
H271	H	-0.893561	-0.899492	0.035950
H272	H	-0.393561	-0.399492	0.535950
H273	H	-0.893543	-0.953511	-0.018094
H274	H	-0.393543	-0.453511	0.481906
H275	H	0.000151	-0.704792	0.679578
H276	H	0.500151	-0.204792	1.179578
C277	C	0.000134	-0.688713	0.534624
C278	C	0.500134	-0.188713	1.034624
H279	H	0.000125	-0.650343	0.561666
H280	H	0.500125	-0.150343	1.061666
H281	H	0.029061	-0.686491	0.505857
H282	H	0.529061	-0.186491	1.005857
H283	H	-0.028802	-0.686483	0.505867
H284	H	0.471198	-0.186483	1.005867
C285	C	0.000154	-0.962509	0.126388
C286	C	0.500154	-0.462509	0.626388
H287	H	0.000165	-0.999930	0.163578
H288	H	0.500165	-0.499930	0.663578
H289	H	-0.028775	-0.965569	0.098333
H290	H	0.471225	-0.465569	0.598333
H291	H	0.029089	-0.965578	0.098337
H292	H	0.529089	-0.465578	0.598337
C293	C	-0.763599	-0.724497	-0.192962
C294	C	-0.263599	-0.224497	0.307038
H295	H	-0.786642	-0.696147	-0.221308
H296	H	-0.286642	-0.196147	0.278692
H297	H	-0.743237	-0.695504	-0.167926
H298	H	-0.243237	-0.195504	0.332074
H299	H	-0.743222	-0.749524	-0.221970
H300	H	-0.243222	-0.249524	0.278030
H301	H	-0.468836	-0.958505	0.040928
H302	H	0.031164	-0.458505	0.540928
C303	C	-0.366650	-0.972102	0.054522
C304	C	0.133350	-0.472102	0.554522
H305	H	-0.389674	-1.000456	0.082870
H306	H	0.110326	-0.500456	0.582870
H307	H	-0.346268	-1.001091	0.029486
H308	H	0.153732	-0.501091	0.529486
H309	H	-0.346290	-0.947070	0.083528
H310	H	0.153710	-0.447070	0.583528
H311	H	-0.468921	-0.690442	-0.226959
H312	H	0.031079	-0.190442	0.273041
H313	H	-0.133977	-0.738061	-0.179407
H314	H	0.366023	-0.238061	0.320593
H315	H	-0.530762	-0.958509	0.040933
H316	H	-0.030762	-0.458509	0.540933
H317	H	-0.625579	-0.690468	-0.226950
H318	H	-0.125579	-0.190468	0.273050
H319	H	-0.530856	-0.690461	-0.226954
H320	H	-0.030856	-0.190461	0.273046
