data_functionalizedCrystal
_audit_creation_method	'MofGen! by Chris Wilmer'
_symmetry_space_group_name_H-M	'P1'
_symmetry_Int_Tables_number	1
_symmetry_cell_setting	triclinic
loop_
_symmetry_equiv_pos_as_xyz
  x,y,z
_cell_length_a	12.759401
_cell_length_b	16.120484
_cell_length_c	12.759393
_cell_angle_alpha	92.862621
_cell_angle_beta	89.982620
_cell_angle_gamma	92.925560
loop_
_atom_site_label
_atom_site_type_symbol
_atom_site_fract_x
_atom_site_fract_y
_atom_site_fract_z
Zn1	Zn	1.584960	-0.331851	-0.615146
Zn2	Zn	1.575915	-0.471289	-0.448359
Zn3	Zn	1.409262	-0.331895	-0.439488
Zn4	Zn	1.400312	-0.471225	-0.623996
O5	O	1.492612	-0.401565	-0.531747
O6	O	1.730780	-0.350357	-0.593029
O7	O	1.553768	-0.452844	-0.300164
O8	O	1.440101	-0.215224	-0.455373
O9	O	1.724135	-0.452801	-0.470492
O10	O	1.569185	-0.215192	-0.584428
O11	O	1.431330	-0.350432	-0.293646
O12	O	1.261055	-0.350369	-0.463955
O13	O	1.424845	-0.452691	-0.769840
O14	O	1.254478	-0.452734	-0.599512
O15	O	1.560505	-0.350294	-0.763338
O16	O	1.545089	-0.587946	-0.479074
O17	O	1.416074	-0.587899	-0.608114
C18	C	1.219646	-0.401550	-0.531732
C19	C	1.102868	-0.401563	-0.531751
C20	C	1.044604	-0.454950	-0.602230
C21	C	0.934879	-0.454961	-0.602242
C22	C	0.941693	-0.348196	-0.461287
C23	C	1.051416	-0.348181	-0.461281
C24	C	1.096056	-0.508332	-0.672701
C25	C	1.037792	-0.561724	-0.743185
C26	C	0.928067	-0.561734	-0.743197
C27	C	0.876607	-0.508353	-0.672725
C28	C	1.478657	-0.618172	-0.545539
C29	C	1.472783	-0.710838	-0.551475
C30	C	1.462065	-0.880498	-0.562333
C31	C	1.523347	-0.921791	-0.501178
C32	C	1.517384	-1.016197	-0.507219
C33	C	1.468028	-0.786085	-0.556293
C34	C	1.766644	-0.401581	-0.531763
C35	C	1.883421	-0.401588	-0.531770
C36	C	1.492686	-0.401480	-0.805775
C37	C	1.492717	-0.401444	-0.922549
C38	C	1.506650	-0.184112	-0.517924
C39	C	1.512632	-0.091447	-0.512033
C40	C	1.428993	-0.348108	-0.974023
C41	C	1.429026	-0.348083	-1.083746
C42	C	1.556517	-0.454733	-1.090511
C43	C	1.556478	-0.454761	-0.980791
C44	C	1.365232	-0.294791	-0.915782
C45	C	1.301503	-0.241450	-0.967256
C46	C	1.301536	-0.241426	-1.076978
C47	C	1.365299	-0.294742	-1.135227
C48	C	1.492603	-0.401590	-0.258781
C49	C	1.492790	-0.401391	-0.141992
H50	H	1.098856	-0.304703	-0.403898
O51	O	1.239661	-0.189692	-0.910518
C52	C	1.253275	-0.201163	-0.802638
H53	H	1.332586	-0.228476	-0.789384
H54	H	1.250168	-0.138724	-0.756977
H55	H	1.188080	-0.245562	-0.774317
O56	O	1.591184	-0.879261	-0.433318
C57	C	1.582120	-0.793104	-0.442322
H58	H	1.501753	-0.781352	-0.475935
H59	H	1.591327	-0.759988	-0.361552
H60	H	1.645949	-0.768304	-0.496758
H61	H	1.365200	-0.294804	-0.826440
O62	O	0.871586	-0.613552	-0.811807
C63	C	0.899585	-0.595418	-0.915402
H64	H	0.981312	-0.563362	-0.915600
H65	H	0.899488	-0.655632	-0.966216
H66	H	0.840599	-0.552597	-0.948160
H67	H	0.787262	-0.508359	-0.672749
H68	H	1.249638	-0.197998	-1.118885
O69	O	1.202632	-0.508475	-0.672696
C70	C	1.234142	-0.588340	-0.650595
H71	H	1.167829	-0.636386	-0.671507
H72	H	1.306612	-0.603200	-0.698888
H73	H	1.253464	-0.590018	-0.563522
H74	H	1.365318	-0.294719	-1.224570
H75	H	0.899785	-0.304736	-0.403912
H76	H	1.405125	-0.916045	-0.619223
O77	O	1.618316	-0.506687	-0.930901
C78	C	1.589974	-0.589770	-0.962967
H79	H	1.549515	-0.591474	-1.042748
H80	H	1.663381	-0.627164	-0.969079
H81	H	1.534112	-0.617855	-0.903005
H82	H	1.079698	-0.605179	-0.800566
O83	O	1.618580	-0.506395	-1.147129
C84	C	1.689506	-0.458915	-1.207595
H85	H	1.700220	-0.393263	-1.170358
H86	H	1.768415	-0.489070	-1.210752
H87	H	1.657239	-0.456018	-1.290570
