data_functionalizedCrystal
_audit_creation_method	'MofGen! by Chris Wilmer'
_symmetry_space_group_name_H-M	'P1'
_symmetry_Int_Tables_number	1
_symmetry_cell_setting	triclinic
loop_
_symmetry_equiv_pos_as_xyz
  x,y,z
_cell_length_a	12.594517
_cell_length_b	12.759400
_cell_length_c	12.759393
_cell_angle_alpha	89.968436
_cell_angle_beta	90.021999
_cell_angle_gamma	89.985516
loop_
_atom_site_label
_atom_site_type_symbol
_atom_site_fract_x
_atom_site_fract_y
_atom_site_fract_z
Zn1	Zn	1.627284	0.418210	0.594080
Zn2	Zn	1.627177	0.593929	0.418400
Zn3	Zn	1.449286	0.418264	0.418408
Zn4	Zn	1.449274	0.593847	0.594030
O5	O	1.538255	0.506062	0.506229
O6	O	1.776216	0.441531	0.570792
O7	O	1.603540	0.570683	0.271380
O8	O	1.472947	0.271236	0.441736
O9	O	1.776137	0.570631	0.441721
O10	O	1.603722	0.271196	0.570800
O11	O	1.472844	0.441623	0.271386
O12	O	1.300339	0.441544	0.441688
O13	O	1.472928	0.570491	0.741058
O14	O	1.300330	0.570544	0.570717
O15	O	1.603711	0.441452	0.741094
O16	O	1.603528	0.740939	0.441673
O17	O	1.472824	0.740879	0.570708
C18	C	1.261714	0.506041	0.506199
C19	C	1.143409	0.506058	0.506210
C20	C	1.538330	0.505956	0.780263
C21	C	1.538362	0.505911	0.897040
C22	C	1.538192	0.779030	0.506208
C23	C	1.538263	0.895806	0.506233
C24	C	1.074130	0.435799	0.436165
C25	C	1.003321	0.531634	0.410323
C26	C	1.003419	0.410269	0.532070
C27	C	1.074158	0.601943	0.480318
C28	C	1.074263	0.480514	0.602110
C29	C	1.003486	0.576415	0.576304
C30	C	1.815876	0.506084	0.506261
C31	C	1.934182	0.506094	0.506275
C32	C	1.538348	0.232029	0.506274
C33	C	1.538387	0.115252	0.506294
C34	C	1.606396	0.950665	0.439119
C35	C	1.606461	1.060389	0.439151
C36	C	1.470251	1.060386	0.573415
C37	C	1.470192	0.950664	0.573387
C38	C	1.674467	0.895807	0.371965
C39	C	1.742605	0.950666	0.304844
C40	C	1.742670	1.060390	0.304877
C41	C	1.674597	1.115255	0.372030
C42	C	1.538242	0.506092	0.233262
C43	C	1.538417	0.505841	0.116486
C44	C	1.606470	0.438714	0.951922
C45	C	1.606495	0.438676	1.061646
C46	C	1.470301	0.573042	1.061596
C47	C	1.470271	0.573073	0.951874
C48	C	1.674560	0.371551	0.897088
C49	C	1.742675	0.304349	0.951971
C50	C	1.742700	0.304311	1.061695
C51	C	1.674611	0.371475	1.116537
H52	H	1.105148	0.376441	0.376858
H53	H	1.674549	0.371577	0.807745
Br54	Br	1.835055	0.213182	0.877547
Br55	Br	1.377833	0.664267	0.877383
Br56	Br	0.952107	0.675579	0.675082
Br57	Br	1.835140	0.213113	1.136177
H58	H	0.972161	0.553262	0.329250
Br59	Br	1.126237	0.444422	0.737202
H60	H	1.414866	0.627723	1.106256
Br61	Br	1.125724	0.737027	0.443751
Br62	Br	0.951616	0.275231	0.568478
Br63	Br	1.674628	0.371404	1.265449
H64	H	1.674418	0.806464	0.371928
H65	H	1.798034	0.905988	0.250176
H66	H	1.798159	1.105052	0.250231
H67	H	1.674665	1.204600	0.372059
H68	H	1.414829	1.105066	0.628087
Br69	Br	1.377729	0.876206	0.664478
