data_functionalizedCrystal
_audit_creation_method	'MofGen! by Chris Wilmer'
_symmetry_space_group_name_H-M	'P1'
_symmetry_Int_Tables_number	1
_symmetry_cell_setting	triclinic
loop_
_symmetry_equiv_pos_as_xyz
  x,y,z
_cell_length_a	19.121063
_cell_length_b	19.121147
_cell_length_c	18.215399
_cell_angle_alpha	92.459497
_cell_angle_beta	92.409843
_cell_angle_gamma	89.873734
loop_
_atom_site_label
_atom_site_type_symbol
_atom_site_fract_x
_atom_site_fract_y
_atom_site_fract_z
Zn1	Zn	-0.324920	-1.059850	-0.477954
Zn2	Zn	0.175080	-0.559850	0.022046
Zn3	Zn	-0.442158	-1.054756	-0.359893
Zn4	Zn	0.057842	-0.554756	0.140107
Zn5	Zn	-0.319932	-0.942612	-0.349442
Zn6	Zn	0.180068	-0.442612	0.150558
Zn7	Zn	-0.437109	-0.937575	-0.477459
Zn8	Zn	0.062891	-0.437575	0.022541
O9	O	-0.381030	-0.998698	-0.416187
O10	O	0.118970	-0.498698	0.083813
O11	O	-0.344673	-1.157279	-0.466873
O12	O	0.155327	-0.657279	0.033127
O13	O	-0.425969	-1.039856	-0.255522
O14	O	0.074031	-0.539856	0.244478
O15	O	-0.222490	-0.962404	-0.362323
O16	O	0.277510	-0.462404	0.137677
O17	O	-0.430806	-1.153536	-0.380134
O18	O	0.069194	-0.653536	0.119866
O19	O	-0.226155	-1.048538	-0.456740
O20	O	0.273845	-0.548538	0.043260
O21	O	-0.336170	-0.957464	-0.247844
O22	O	0.163830	-0.457464	0.252156
O23	O	-0.331275	-0.843839	-0.361843
O24	O	0.168725	-0.343839	0.138157
O25	O	-0.422202	-0.953819	-0.580509
O26	O	0.077798	-0.453819	-0.080509
O27	O	-0.417365	-0.840138	-0.455896
O28	O	0.082635	-0.340138	0.044104
O29	O	-0.339777	-1.043654	-0.580872
O30	O	0.160223	-0.543654	-0.080872
O31	O	-0.539591	-1.034971	-0.379654
O32	O	-0.039591	-0.534971	0.120346
O33	O	-0.535882	-0.948879	-0.466029
O34	O	-0.035882	-0.448879	0.033971
C35	C	-0.373231	-0.816551	-0.407682
C36	C	0.126769	-0.316551	0.092318
C37	C	-0.369912	-0.738627	-0.404062
C38	C	0.130088	-0.238627	0.095938
C39	C	-0.348853	-0.298002	-0.381135
C40	C	0.151147	0.201998	0.118865
C41	C	-0.351976	-0.371219	-0.384540
C42	C	0.148024	0.128781	0.115460
C43	C	-0.398434	-0.405914	-0.435138
C44	C	0.101566	0.094086	0.064862
C45	C	-0.441766	-0.367388	-0.482338
C46	C	0.058234	0.132612	0.017662
C47	C	-0.438639	-0.294172	-0.478936
C48	C	0.061361	0.205828	0.021064
C49	C	-0.410117	-0.626884	-0.447861
C50	C	0.089883	-0.126884	0.052139
C51	C	-0.413242	-0.700106	-0.451258
C52	C	0.086758	-0.200106	0.048742
C53	C	-0.323451	-0.703932	-0.353460
C54	C	0.176549	-0.203932	0.146540
C55	C	-0.320331	-0.630714	-0.350059
C56	C	0.179669	-0.130714	0.149941
C57	C	-0.363661	-0.592194	-0.397262
C58	C	0.136339	-0.092194	0.102738
C59	C	-0.401628	-0.480754	-0.438619
C60	C	0.098372	0.019246	0.061381
C61	C	-0.360462	-0.517356	-0.393785
C62	C	0.139538	-0.017356	0.106215
C63	C	-0.563175	-0.990845	-0.423939
C64	C	-0.063175	-0.490845	0.076061
C65	C	-0.641100	-0.987550	-0.427283
C66	C	-0.141100	-0.487550	0.072717
C67	C	-0.679619	-1.030860	-0.383924
C68	C	-0.179619	-0.530860	0.116076
C69	C	-0.752838	-1.027764	-0.387073
C70	C	-0.252838	-0.527764	0.112927
C71	C	-0.787536	-0.981355	-0.433579
C72	C	-0.287536	-0.481355	0.066421
C73	C	-0.749012	-0.938043	-0.476943
C74	C	-0.249012	-0.438043	0.023057
C75	C	-0.675795	-0.941142	-0.473797
C76	C	-0.175795	-0.441142	0.026203
C77	C	-1.008511	-0.969756	-0.445330
C78	C	-0.508511	-0.469756	0.054670
C79	C	-1.081733	-0.966659	-0.448471
C80	C	-0.581733	-0.466659	0.051529
C81	C	-1.085553	-1.056381	-0.358602
C82	C	-0.585553	-0.556381	0.141398
C83	C	-1.012334	-1.059474	-0.355457
C84	C	-0.512334	-0.559474	0.144543
C85	C	-0.973817	-1.016164	-0.398824
C86	C	-0.473817	-0.516164	0.101176
C87	C	-0.862378	-0.978189	-0.436798
C88	C	-0.362378	-0.478189	0.063202
C89	C	-0.898977	-1.019335	-0.395608
C90	C	-0.398977	-0.519335	0.104392
C91	C	-0.198174	-1.006601	-0.408421
C92	C	0.301826	-0.506601	0.091579
C93	C	-0.120252	-1.009969	-0.405112
C94	C	0.379748	-0.509969	0.094888
C95	C	-0.380983	-0.998743	-0.608140
C96	C	0.119017	-0.498743	-0.108140
C97	C	-0.380963	-0.998762	-0.689939
C98	C	0.119037	-0.498762	-0.189939
C99	C	-0.388856	-0.181557	-0.424716
C100	C	0.111144	0.318443	0.075284
C101	C	-0.392184	-0.259480	-0.428330
C102	C	0.107816	0.240520	0.071670
C103	C	-0.338004	-1.045557	-0.878322
C104	C	0.161996	-0.545557	-0.378322
C105	C	-0.337983	-1.045566	-0.955180
C106	C	0.162017	-0.545566	-0.455180
C107	C	-0.423817	-0.952021	-0.954791
C108	C	0.076183	-0.452021	-0.454791
C109	C	-0.423833	-0.952009	-0.877933
C110	C	0.076167	-0.452009	-0.377933
C111	C	-0.380927	-0.998781	-0.839701
C112	C	0.119073	-0.498781	-0.339701
C113	C	-0.380891	-0.998802	-0.993417
C114	C	0.119109	-0.498802	-0.493417
C115	C	-0.380870	-0.998812	-1.076750
C116	C	0.119130	-0.498812	-0.576750
C117	C	-0.380948	-0.998771	-0.756363
C118	C	0.119052	-0.498771	-0.256363
C119	C	-0.381027	-0.998696	-0.224980
C120	C	0.118973	-0.498696	0.275020
C121	C	-0.380855	-0.998821	-0.143180
C122	C	0.119145	-0.498821	0.356820
H123	H	-0.288174	-0.735303	-0.315031
H124	H	0.211826	-0.235303	0.184969
H125	H	-0.479590	-0.395642	-0.523539
H126	H	0.020410	0.104358	-0.023539
Cl127	Cl	-0.284026	-1.104379	-1.003730
Cl128	Cl	0.215974	-0.604379	-0.503730
H129	H	-0.451074	-0.728352	-0.492465
H130	H	0.048926	-0.228352	0.007535
Cl131	Cl	-0.855354	-1.077679	-0.337149
Cl132	Cl	-0.355354	-0.577679	0.162851
H133	H	-0.311023	-0.269758	-0.339932
H134	H	0.188977	0.230242	0.160068
Cl135	Cl	-0.477794	-0.893196	-0.829377
Cl136	Cl	0.022206	-0.393196	-0.329377
Cl137	Cl	-0.968719	-1.117829	-0.297001
Cl138	Cl	-0.468719	-0.617829	0.202999
Cl139	Cl	-0.792634	-0.879704	-0.535412
Cl140	Cl	-0.292634	-0.379704	-0.035412
Cl141	Cl	-0.906005	-0.919846	-0.495259
Cl142	Cl	-0.406005	-0.419846	0.004741
Cl143	Cl	-0.627371	-0.886695	-0.528311
Cl144	Cl	-0.127371	-0.386695	-0.028311
H145	H	-0.282506	-0.602471	-0.308852
H146	H	0.217494	-0.102471	0.191148
H147	H	-0.473922	-0.262808	-0.517370
H148	H	0.026078	0.237192	-0.017370
H149	H	-1.109983	-0.928875	-0.486355
H150	H	-0.609983	-0.428875	0.013645
Cl151	Cl	-0.297495	-0.419643	-0.325211
Cl152	Cl	0.202505	0.080357	0.174789
Cl153	Cl	-0.464593	-0.578469	-0.507199
Cl154	Cl	0.035407	-0.078469	-0.007199
Cl155	Cl	-0.284063	-1.104353	-0.830261
Cl156	Cl	0.215937	-0.604353	-0.330261
H157	H	-0.322634	-0.489104	-0.352591
H158	H	0.177366	0.010896	0.147409
H159	H	-0.439456	-0.509011	-0.479814
H160	H	0.060544	-0.009011	0.020186
Cl161	Cl	-0.477756	-0.893230	-1.002859
Cl162	Cl	0.022244	-0.393230	-0.502859
H163	H	-0.651372	-1.068648	-0.346051
H164	H	-0.151372	-0.568648	0.153949
H165	H	-0.784196	-1.063032	-0.351765
H166	H	-0.284196	-0.563032	0.148235
H167	H	-1.116922	-1.091642	-0.323296
H168	H	-0.616922	-0.591642	0.176704
H169	H	-0.977155	-0.934491	-0.480640
H170	H	-0.477155	-0.434491	0.019360
