data_functionalizedCrystal
_audit_creation_method	'MofGen! by Chris Wilmer'
_symmetry_space_group_name_H-M	'P1'
_symmetry_Int_Tables_number	1
_symmetry_cell_setting	triclinic
loop_
_symmetry_equiv_pos_as_xyz
  x,y,z
_cell_length_a	17.699083
_cell_length_b	16.992695
_cell_length_c	16.176319
_cell_angle_alpha	89.993125
_cell_angle_beta	89.998611
_cell_angle_gamma	86.975619
loop_
_atom_site_label
_atom_site_type_symbol
_atom_site_fract_x
_atom_site_fract_y
_atom_site_fract_z
O1	O	1.010252	0.099146	-0.068631
O2	O	1.510252	0.599146	0.431369
O3	O	0.790676	0.112045	-0.068658
O4	O	1.290676	0.612045	0.431342
O5	O	0.899584	-0.008546	-0.068638
O6	O	1.399584	0.491454	0.431362
O7	O	0.901344	0.219736	-0.068651
O8	O	1.401344	0.719736	0.431349
O9	O	0.899567	-0.008553	0.068855
O10	O	1.399567	0.491447	0.568855
O11	O	0.790660	0.112037	0.068835
O12	O	1.290660	0.612037	0.568835
O13	O	1.010235	0.099138	0.068862
O14	O	1.510235	0.599138	0.568862
Cu15	Cu	0.900446	0.105587	0.081403
Cu16	Cu	1.400446	0.605587	0.581403
Cu17	Cu	0.900465	0.105596	-0.081199
Cu18	Cu	1.400465	0.605596	0.418801
O19	O	0.901328	0.219729	0.068842
O20	O	1.401328	0.719729	0.568842
C21	C	0.762442	0.111579	0.000085
C22	C	1.262442	0.611579	0.500085
C23	C	0.678338	0.110192	0.000075
C24	C	1.178338	0.610192	0.500075
C25	C	0.634124	0.180976	0.000071
C26	C	1.134124	0.680976	0.500071
C27	C	0.555099	0.179669	0.000082
C28	C	1.055099	0.679669	0.500082
C29	C	0.520290	0.107576	0.000091
C30	C	1.020290	0.607576	0.500091
C31	C	0.564510	0.036787	0.000097
C32	C	1.064510	0.536787	0.500097
C33	C	0.643533	0.038095	0.000092
C34	C	1.143533	0.538095	0.500092
C35	C	0.245818	0.031509	0.000118
C36	C	0.745818	0.531509	0.500118
C37	C	0.166789	0.030206	0.000120
C38	C	0.666789	0.530206	0.500120
C39	C	0.157384	0.173082	0.000108
C40	C	0.657384	0.673082	0.500108
C41	C	0.236408	0.174391	0.000103
C42	C	0.736408	0.674391	0.500103
C43	C	0.280621	0.103602	0.000113
C44	C	0.780621	0.603602	0.500113
C45	C	0.366308	0.105020	0.000103
C46	C	0.866308	0.605020	0.500103
C47	C	0.434604	0.106157	0.000095
C48	C	0.934604	0.606157	0.500095
C49	C	0.897311	-0.037758	0.000108
C50	C	1.397311	0.462242	0.500108
C51	C	0.890554	-0.124789	0.000107
C52	C	1.390554	0.375211	0.500107
C53	C	0.955751	-0.175154	0.000116
C54	C	1.455751	0.324846	0.500116
C55	C	0.949398	-0.256928	0.000107
C56	C	1.449398	0.243072	0.500107
C57	C	0.877846	-0.288336	0.000096
C58	C	1.377846	0.211664	0.500096
C59	C	0.812643	-0.237965	0.000084
C60	C	1.312643	0.262035	0.500084
C61	C	0.818998	-0.156192	0.000087
C62	C	1.318998	0.343808	0.500087
C63	C	0.851510	-0.531884	0.000081
C64	C	1.351510	-0.031884	0.500081
C65	C	0.845160	-0.613663	0.000081
C66	C	1.345160	-0.113663	0.500081
C67	C	0.981915	-0.632621	0.000102
C68	C	1.481915	-0.132621	0.500102
C69	C	0.988263	-0.550845	0.000110
C70	C	1.488263	-0.050845	0.500110
C71	C	0.923061	-0.500481	0.000094
C72	C	1.423061	-0.000481	0.500094
N73	N	0.871350	-0.371923	0.000090
N74	N	1.371350	0.128077	0.500090
N75	N	0.929558	-0.416897	0.000095
N76	N	1.429558	0.083103	0.500095
C77	C	1.038469	0.099604	0.000117
C78	C	1.538469	0.599604	0.500117
C79	C	1.122574	0.100991	0.000122
C80	C	1.622574	0.600991	0.500122
C81	C	0.903601	0.248941	0.000094
C82	C	1.403601	0.748941	0.500094
C83	C	0.910358	0.335972	0.000090
C84	C	1.410358	0.835972	0.500090
N85	N	0.900438	0.105580	0.195768
N86	N	1.400438	0.605580	0.695768
N87	N	0.900479	0.105597	-0.195564
N88	N	1.400479	0.605597	0.304436
C89	C	0.948679	0.052204	0.239041
C90	C	1.448679	0.552204	0.739041
C91	C	0.948683	0.052203	0.325588
C92	C	1.448683	0.552203	0.825588
C93	C	0.900449	0.105583	0.368861
C94	C	1.400449	0.605583	0.868861
C95	C	0.852202	0.158961	0.325582
C96	C	1.352202	0.658961	0.825582
C97	C	0.852195	0.158957	0.239036
C98	C	1.352195	0.658957	0.739036
C99	C	0.852229	0.158976	0.674610
C100	C	1.352229	0.658976	1.174610
C101	C	0.852242	0.158977	0.761161
C102	C	1.352242	0.658977	1.261161
C103	C	0.948717	0.052222	0.761162
C104	C	1.448717	0.552222	1.261162
C105	C	0.948709	0.052218	0.674617
C106	C	1.448709	0.552218	1.174617
C107	C	0.900461	0.105593	0.631345
C108	C	1.400461	0.605593	1.131345
C109	C	0.900456	0.105593	0.537501
C110	C	1.400456	0.605593	1.037501
C111	C	0.900457	0.105588	0.462703
C112	C	1.400457	0.605588	0.962703
H113	H	0.536162	-0.021912	0.000116
H114	H	1.036162	0.478088	0.500116
O115	O	0.132887	-0.039780	0.000243
O116	O	0.632887	0.460220	0.500243
C117	C	0.087471	-0.044814	0.071464
C118	C	0.587471	0.455186	0.571464
H119	H	0.071553	0.017018	0.095194
H120	H	0.571553	0.517018	0.595194
H121	H	0.033891	-0.075965	0.055453
H122	H	0.533891	0.424035	0.555453
H123	H	0.120244	-0.079566	0.121332
H124	H	0.620244	0.420434	0.621332
O125	O	1.045227	-0.681577	-0.000037
O126	O	1.545227	-0.181577	0.499963
C127	C	1.045641	-0.729448	-0.071237
C128	C	1.545641	-0.229448	0.428763
H129	H	1.008758	-0.699419	-0.121010
H130	H	1.508758	-0.199419	0.378990
H131	H	1.106046	-0.738756	-0.095134
H132	H	1.606046	-0.238756	0.404866
H133	H	1.022456	-0.788878	-0.055142
H134	H	1.522456	-0.288878	0.444858
H135	H	0.812961	0.202446	0.796393
H136	H	1.312961	0.702446	1.296393
H137	H	0.662460	0.239682	0.000064
H138	H	1.162460	0.739682	0.500064
O139	O	0.114515	0.241901	0.000215
O140	O	0.614515	0.741901	0.500215
C141	C	0.130955	0.285673	0.071427
C142	C	0.630955	0.785673	0.571427
H143	H	0.189669	0.266306	0.095165
H144	H	0.689669	0.766306	0.595165
H145	H	0.129357	0.351072	0.055402
H146	H	0.629357	0.851072	0.555402
H147	H	0.087133	0.275037	0.121295
H148	H	0.587133	0.775037	0.621295
H149	H	0.812945	0.202437	0.639385
H150	H	1.312945	0.702437	1.139385
O151	O	0.270130	0.244472	-0.000017
O152	O	0.770130	0.744472	0.499983
C153	C	0.247967	0.287607	-0.071238
C154	C	0.747967	0.787607	0.428762
H155	H	0.191930	0.266341	-0.094974
H156	H	0.691930	0.766341	0.405026
H157	H	0.240956	0.352916	-0.055228
H158	H	0.740956	0.852916	0.444772
H159	H	0.293093	0.278446	-0.121104
H160	H	0.793093	0.778446	0.378896
H161	H	0.754384	-0.263544	0.000070
H162	H	1.254384	0.236456	0.500070
O163	O	0.288647	-0.037325	0.000088
O164	O	0.788647	0.462675	0.500088
C165	C	0.240975	-0.101233	0.000115
C166	C	0.740975	0.398767	0.500115
H167	H	0.183267	-0.081217	-0.025918
H168	H	0.683267	0.418783	0.474082
H169	H	0.267095	-0.150821	-0.039798
H170	H	0.767095	0.349179	0.460202
H171	H	0.234014	-0.123338	0.066080
H172	H	0.734014	0.376662	0.566080
H173	H	0.786891	-0.639232	0.000085
H174	H	1.286891	-0.139232	0.500085
O175	O	0.788097	-0.483080	0.000114
O176	O	1.288097	0.016920	0.500114
C177	C	0.723585	-0.528340	0.000089
C178	C	1.223585	-0.028340	0.500089
H179	H	0.739104	-0.589413	0.026117
H180	H	1.239104	-0.089413	0.526117
H181	H	0.677595	-0.498092	0.040006
H182	H	1.177595	0.001908	0.540006
H183	H	0.701889	-0.534113	-0.065875
H184	H	1.201889	-0.034113	0.434125
H185	H	0.765906	-0.115186	0.000080
H186	H	1.265906	0.384814	0.500080
H187	H	0.812925	0.202421	0.360819
H188	H	1.312925	0.702421	0.860819
H189	H	1.002489	-0.297933	0.000117
H190	H	1.502489	0.202067	0.500117
H191	H	0.679531	-0.019545	0.000095
H192	H	1.179531	0.480455	0.500095
O193	O	0.805312	0.210885	0.197126
O194	O	1.305312	0.710885	0.697126
C195	C	0.762728	0.257988	0.253875
C196	C	1.262728	0.757988	0.753875
H197	H	0.793813	0.258837	0.315564
H198	H	1.293813	0.758837	0.815564
H199	H	0.754963	0.320614	0.228858
H200	H	1.254963	0.820614	0.728858
H201	H	0.704974	0.232602	0.263093
H202	H	1.204974	0.732602	0.763093
H203	H	0.519103	0.237308	0.000078
H204	H	1.019103	0.737308	0.500078
O205	O	1.025274	-0.144684	-0.000021
O206	O	1.525274	0.355316	0.499979
C207	C	1.065331	-0.170442	-0.071216
C208	C	1.565331	0.329558	0.428784
H209	H	1.023581	-0.187367	-0.120991
H210	H	1.523581	0.312633	0.379009
H211	H	1.100528	-0.120963	-0.095115
H212	H	1.600528	0.379037	0.404885
H213	H	1.104275	-0.223821	-0.055115
H214	H	1.604275	0.276179	0.444885
O215	O	1.057788	-0.520380	-0.000025
O216	O	1.557788	-0.020380	0.499975
C217	C	1.097852	-0.546136	-0.071216
C218	C	1.597852	-0.046136	0.428784
H219	H	1.056107	-0.563057	-0.120998
H220	H	1.556107	-0.063057	0.379002
H221	H	1.133054	-0.496658	-0.095108
H222	H	1.633054	0.003342	0.404892
H223	H	1.136793	-0.599518	-0.055112
H224	H	1.636793	-0.099518	0.444888
O225	O	0.995558	0.000275	0.197138
O226	O	1.495558	0.500275	0.697138
C227	C	1.038150	-0.046823	0.253895
C228	C	1.538150	0.453177	0.753895
H229	H	1.007074	-0.047664	0.315592
H230	H	1.507074	0.452336	0.815592
H231	H	1.045909	-0.109452	0.228901
H232	H	1.545909	0.390548	0.728901
H233	H	1.095906	-0.021438	0.263089
H234	H	1.595906	0.478562	0.763089
H235	H	0.987964	0.008741	0.360821
H236	H	1.487964	0.508741	0.860821
O237	O	0.995587	0.000289	0.632711
O238	O	1.495587	0.500289	1.132711
C239	C	1.038181	-0.046811	0.689464
C240	C	1.538181	0.453189	1.189464
H241	H	1.007108	-0.047654	0.751162
H242	H	1.507108	0.452346	1.251162
H243	H	1.045938	-0.109439	0.664468
H244	H	1.545938	0.390561	1.164468
H245	H	1.095938	-0.021428	0.698655
H246	H	1.595938	0.478572	1.198655
H247	H	0.988001	0.008758	0.796403
H248	H	1.488001	0.508758	1.296403
