data_functionalizedCrystal
_audit_creation_method	'MofGen! by Chris Wilmer'
_symmetry_space_group_name_H-M	'P1'
_symmetry_Int_Tables_number	1
_symmetry_cell_setting	triclinic
loop_
_symmetry_equiv_pos_as_xyz
  x,y,z
_cell_length_a	18.050591
_cell_length_b	29.839126
_cell_length_c	29.839131
_cell_angle_alpha	90.031806
_cell_angle_beta	89.968767
_cell_angle_gamma	89.974078
loop_
_atom_site_label
_atom_site_type_symbol
_atom_site_fract_x
_atom_site_fract_y
_atom_site_fract_z
Zn1	Zn	1.135293	-0.254057	0.178936
Zn2	Zn	1.635293	0.245943	0.678936
Zn3	Zn	1.135178	-0.178916	0.254056
Zn4	Zn	1.635178	0.321084	0.754056
Zn5	Zn	1.011101	-0.178931	0.178936
Zn6	Zn	1.511101	0.321069	0.678936
Zn7	Zn	1.011045	-0.254010	0.254034
Zn8	Zn	1.511045	0.245990	0.754034
O9	O	1.073154	-0.216478	0.216490
O10	O	1.573154	0.283522	0.716490
O11	O	1.239202	-0.244103	0.188910
O12	O	1.739202	0.255897	0.688910
O13	O	1.118694	-0.116051	0.244100
O14	O	1.618694	0.383949	0.744100
O15	O	1.027647	-0.188922	0.116069
O16	O	1.527647	0.311078	0.616069
O17	O	1.239118	-0.188898	0.244100
O18	O	1.739118	0.311102	0.744100
O19	O	1.118891	-0.244117	0.116068
O20	O	1.618891	0.255883	0.616068
O21	O	1.027536	-0.116062	0.188910
O22	O	1.527536	0.383938	0.688910
O23	O	0.907169	-0.188877	0.188888
O24	O	1.407169	0.311123	0.688888
O25	O	1.027551	-0.316883	0.244063
O26	O	1.527551	0.183117	0.744063
O27	O	0.907128	-0.244037	0.244063
O28	O	1.407128	0.255963	0.744063
O29	O	1.118836	-0.316918	0.188888
O30	O	1.618836	0.183082	0.688888
O31	O	1.118639	-0.188852	0.316920
O32	O	1.618639	0.311148	0.816920
O33	O	1.027440	-0.244023	0.316904
O34	O	1.527440	0.255977	0.816904
C35	C	0.880202	-0.216454	0.216474
C36	C	1.380202	0.283546	0.716474
C37	C	0.797656	-0.216454	0.216477
C38	C	1.297656	0.283546	0.716477
C39	C	0.598207	-0.186527	0.186439
C40	C	1.098207	0.313473	0.686439
C41	C	0.548777	-0.175463	0.227414
C42	C	1.048777	0.324537	0.727414
C43	C	0.646526	-0.216474	0.216491
C44	C	1.146526	0.283526	0.716491
C45	C	0.548874	-0.227536	0.175530
C46	C	1.048874	0.272464	0.675530
C47	C	0.500541	-0.216493	0.216500
C48	C	1.000541	0.283507	0.716500
C49	C	0.598184	-0.205389	0.257488
C50	C	1.098184	0.294611	0.757488
C51	C	0.598285	-0.257481	0.205576
C52	C	1.098285	0.242519	0.705576
C53	C	0.548877	-0.246433	0.246580
C54	C	1.048877	0.253567	0.746580
C55	C	0.730624	-0.216462	0.216485
C56	C	1.230624	0.283538	0.716485
C57	C	0.416444	-0.216505	0.216511
C58	C	0.916444	0.283495	0.716511
C59	C	1.073200	-0.333657	0.216473
C60	C	1.573200	0.166343	0.716473
C61	C	1.073220	-0.383591	0.216466
C62	C	1.573220	0.116409	0.716466
C63	C	1.025769	-0.693243	0.187683
C64	C	1.525769	-0.193243	0.687683
C65	C	1.025790	-0.880916	0.187652
C66	C	1.525790	-0.380916	0.687652
O67	O	0.985408	-0.905188	0.163225
O68	O	1.485408	-0.405188	0.663225
N69	N	1.073255	-0.904377	0.216382
N70	N	1.573255	-0.404377	0.716382
C71	C	1.120715	-0.880916	0.245123
C72	C	1.620715	-0.380916	0.745123
O73	O	1.161083	-0.905176	0.269562
O74	O	1.661083	-0.405176	0.769562
C75	C	1.120690	-0.693243	0.245156
C76	C	1.620690	-0.193243	0.745156
C77	C	1.073227	-0.669786	0.216421
C78	C	1.573227	-0.169786	0.716421
C79	C	0.978309	-0.669785	0.158951
C80	C	1.478309	-0.169785	0.658951
C81	C	0.978307	-0.622870	0.158957
C82	C	1.478307	-0.122870	0.658957
C83	C	1.025765	-0.599412	0.187696
C84	C	1.525765	-0.099412	0.687696
C85	C	1.073225	-0.622870	0.216428
C86	C	1.573225	-0.122870	0.716428
C87	C	1.168146	-0.669783	0.273900
C88	C	1.668146	-0.169783	0.773900
C89	C	1.168134	-0.622862	0.273906
C90	C	1.668134	-0.122862	0.773906
C91	C	1.120671	-0.599404	0.245171
C92	C	1.620671	-0.099404	0.745171
C93	C	1.120681	-0.552497	0.245173
C94	C	1.620681	-0.052497	0.745173
N95	N	1.073215	-0.529037	0.216443
N96	N	1.573215	-0.029037	0.716443
C97	C	1.025757	-0.552494	0.187705
C98	C	1.525757	-0.052494	0.687705
C99	C	1.120726	-0.979446	0.245103
C100	C	1.620726	-0.479446	0.745103
C101	C	1.120734	-1.026364	0.245094
C102	C	1.620734	-0.526364	0.745094
C103	C	1.025807	-1.026362	0.187624
C104	C	1.525807	-0.526362	0.687624
C105	C	1.025804	-0.979443	0.187630
C106	C	1.525804	-0.479443	0.687630
C107	C	1.073261	-0.955986	0.216373
C108	C	1.573261	-0.455986	0.716373
C109	C	1.025757	-0.453969	0.187720
C110	C	1.525757	0.046031	0.687720
C111	C	1.025762	-0.407049	0.187727
C112	C	1.525762	0.092951	0.687727
C113	C	1.120685	-0.407056	0.245200
C114	C	1.620685	0.092944	0.745200
C115	C	1.120684	-0.453971	0.245190
C116	C	1.620684	0.046029	0.745190
C117	C	1.073214	-0.477426	0.216449
C118	C	1.573214	0.022574	0.716449
O119	O	1.161036	-0.528196	0.269591
O120	O	1.661036	-0.028196	0.769591
O121	O	0.985384	-0.528226	0.163276
O122	O	1.485384	-0.028226	0.663276
C123	C	1.025770	-0.740159	0.187677
C124	C	1.525770	-0.240159	0.687677
C125	C	1.073230	-0.763617	0.216409
C126	C	1.573230	-0.263617	0.716409
C127	C	1.120689	-0.740159	0.245147
C128	C	1.620689	-0.240159	0.745147
C129	C	1.073238	-0.810534	0.216400
C130	C	1.573238	-0.310534	0.716400
C131	C	1.025780	-0.833992	0.187662
C132	C	1.525780	-0.333992	0.687662
C133	C	0.978314	-0.810532	0.158932
C134	C	1.478314	-0.310532	0.658932
C135	C	0.978312	-0.763616	0.158938
C136	C	1.478312	-0.263616	0.658938
C137	C	1.168154	-0.763619	0.273877
C138	C	1.668154	-0.263619	0.773877
C139	C	1.168153	-0.810535	0.273868
C140	C	1.668153	-0.310535	0.773868
C141	C	1.120695	-0.833992	0.245129
C142	C	1.620695	-0.333992	0.745129
C143	C	1.266860	-0.216504	0.216507
C144	C	1.766860	0.283496	0.716507
C145	C	1.349406	-0.216514	0.216515
C146	C	1.849406	0.283486	0.716515
C147	C	1.073041	-0.216441	0.333213
C148	C	1.573041	0.283559	0.833213
C149	C	1.073060	-0.216439	0.383147
C150	C	1.573060	0.283561	0.883147
C151	C	1.073151	-0.099756	0.216475
C152	C	1.573151	0.400244	0.716475
C153	C	1.073276	-0.049822	0.216356
C154	C	1.573276	0.450178	0.716356
C155	C	1.073288	-0.216526	0.099312
C156	C	1.573288	0.283474	0.599312
C157	C	1.073345	-0.216547	0.049378
C158	C	1.573345	0.283453	0.549378
C159	C	1.120654	-0.245259	0.692756
C160	C	1.620654	0.254741	1.192756
C161	C	1.120735	-0.245286	0.880429
C162	C	1.620735	0.254714	1.380429
O163	O	1.161090	-0.269762	0.904664
O164	O	1.661090	0.230238	1.404664
N165	N	1.073280	-0.216528	0.903932
N166	N	1.573280	0.283472	1.403932
C167	C	1.025799	-0.187764	0.880515
C168	C	1.525799	0.312236	1.380515
O169	O	0.985433	-0.163307	0.904812
O170	O	1.485433	0.336693	1.404812
C171	C	1.025715	-0.187739	0.692843
C172	C	1.525715	0.312261	1.192843
C173	C	1.073178	-0.216496	0.669342
C174	C	1.573178	0.283504	1.169342
C175	C	1.168112	-0.274014	0.669255
C176	C	1.668112	0.225986	1.169255
C177	C	1.168095	-0.274005	0.622339
C178	C	1.668095	0.225995	1.122339
C179	C	1.120619	-0.245242	0.598925
C180	C	1.620619	0.254758	1.098925
C181	C	1.073160	-0.216487	0.622426
C182	C	1.573160	0.283513	1.122426
C183	C	0.978231	-0.158977	0.669426
C184	C	1.478231	0.341023	1.169426
C185	C	0.978213	-0.158975	0.622505
C186	C	1.478213	0.341025	1.122505
C187	C	1.025675	-0.187731	0.599004
C188	C	1.525675	0.312269	1.099004
C189	C	1.025666	-0.187715	0.552096
C190	C	1.525666	0.312285	1.052096
N191	N	1.073121	-0.216473	0.528593
N192	N	1.573121	0.283527	1.028593
C193	C	1.120597	-0.245236	0.552007
C194	C	1.620597	0.254764	1.052007
C195	C	1.025847	-0.187778	0.979045
C196	C	1.525847	0.312222	1.479045
C197	C	1.025869	-0.187783	1.025963
C198	C	1.525869	0.312217	1.525963
C199	C	1.120804	-0.245307	1.025874
C200	C	1.620804	0.254693	1.525874
C201	C	1.120786	-0.245299	0.978955
C202	C	1.620786	0.254701	1.478955
C203	C	1.073302	-0.216536	0.955542
C204	C	1.573302	0.283464	1.455542
C205	C	1.120556	-0.245215	0.453481
C206	C	1.620556	0.254785	0.953481
C207	C	1.120537	-0.245203	0.406562
C208	C	1.620537	0.254797	0.906562
C209	C	1.025599	-0.187681	0.406655
C210	C	1.525599	0.312319	0.906655
C211	C	1.025621	-0.187692	0.453570
C212	C	1.525621	0.312308	0.953570
C213	C	1.073103	-0.216463	0.476982
C214	C	1.573103	0.283537	0.976982
O215	O	0.985327	-0.163256	0.527832
O216	O	1.485327	0.336744	1.027832
O217	O	1.160946	-0.269696	0.527702
O218	O	1.660946	0.230304	1.027702
C219	C	1.120672	-0.245268	0.739671
C220	C	1.620672	0.254732	1.239671
C221	C	1.073214	-0.216513	0.763172
C222	C	1.573214	0.283487	1.263172
C223	C	1.025737	-0.187750	0.739758
C224	C	1.525737	0.312250	1.239758
C225	C	1.073235	-0.216519	0.810090
C226	C	1.573235	0.283481	1.310090
C227	C	1.120711	-0.245282	0.833505
C228	C	1.620711	0.254718	1.333505
C229	C	1.168166	-0.274040	0.810001
C230	C	1.668166	0.225960	1.310001
C231	C	1.168148	-0.274031	0.763086
C232	C	1.668148	0.225969	1.263086
C233	C	0.978283	-0.158992	0.763262
C234	C	1.478283	0.341008	1.263262
C235	C	0.978305	-0.159003	0.810177
C236	C	1.478305	0.340997	1.310177
C237	C	1.025781	-0.187766	0.833591
C238	C	1.525781	0.312234	1.333591
H239	H	0.527032	-0.140793	0.236653
H240	H	1.027032	0.359207	0.736653
Cl241	Cl	1.180487	-0.281466	1.055318
Cl242	Cl	1.680487	0.218534	1.555318
H243	H	0.987111	-0.387952	0.164326
H244	H	1.487111	0.112048	0.664326
Cl245	Cl	1.180397	-0.949964	0.281239
Cl246	Cl	1.680397	-0.449964	0.781239
H247	H	0.527174	-0.236869	0.140890
H248	H	1.027174	0.263131	0.640890
H249	H	1.159215	-0.268646	0.472538
H250	H	1.659215	0.231354	0.972538
Cl251	Cl	0.966085	-0.483448	0.151584
Cl252	Cl	1.466085	0.016552	0.651584
H253	H	1.206825	-0.297459	0.829073
H254	H	1.706825	0.202541	1.329073
Cl255	Cl	0.631481	-0.190893	0.310991
Cl256	Cl	1.131481	0.309107	0.810991
H257	H	0.987228	-0.164362	1.045094
H258	H	1.487228	0.335638	1.545094
Cl259	Cl	0.918630	-0.593387	0.122835
Cl260	Cl	1.418630	-0.093387	0.622835
H261	H	0.939656	-0.135582	0.829308
H262	H	1.439656	0.364418	1.329308
Cl263	Cl	0.631651	-0.147386	0.147243
Cl264	Cl	1.131651	0.352614	0.647243
Cl265	Cl	0.918630	-0.699267	0.122823
Cl266	Cl	1.418630	-0.199267	0.622823
Cl267	Cl	0.515643	-0.285547	0.285867
Cl268	Cl	1.015643	0.214453	0.785867
H269	H	0.987179	-0.164355	0.959985
H270	H	1.487179	0.335645	1.459985
H271	H	0.987155	-0.960347	0.164232
H272	H	1.487155	-0.460347	0.664232
H273	H	0.986979	-0.164273	0.472706
H274	H	1.486979	0.335727	0.972706
H275	H	1.206796	-0.297448	0.743954
H276	H	1.706796	0.202552	1.243954
H277	H	0.939675	-0.829639	0.135530
H278	H	1.439675	-0.329639	0.635530
Cl279	Cl	0.918589	-0.122831	0.733834
Cl280	Cl	1.418589	0.377169	1.233834
Cl281	Cl	0.631884	-0.310996	0.191294
Cl282	Cl	1.131884	0.189004	0.691294
H283	H	1.159391	-1.045460	0.268488
H284	H	1.659391	-0.545460	0.768488
H285	H	1.206741	-0.297422	0.603207
H286	H	1.706741	0.202578	1.103207
Cl287	Cl	0.966144	-1.055860	0.151496
Cl288	Cl	1.466144	-0.555860	0.651496
Cl289	Cl	0.918515	-0.122813	0.593074
Cl290	Cl	1.418515	0.377187	1.093074
Cl291	Cl	1.180454	-0.281452	0.949416
Cl292	Cl	1.680454	0.218548	1.449416
H293	H	1.206795	-0.688875	0.297299
H294	H	1.706795	-0.188875	0.797299
H295	H	1.206785	-0.603766	0.297310
H296	H	1.706785	-0.103766	0.797310
Cl297	Cl	1.227803	-0.310180	0.698681
Cl298	Cl	1.727803	0.189820	1.198681
H299	H	1.159341	-0.473071	0.268584
H300	H	1.659341	0.026929	0.768584
Cl301	Cl	1.180347	-0.377557	0.281324
Cl302	Cl	1.680347	0.122443	0.781324
Cl303	Cl	0.918640	-0.734134	0.122813
Cl304	Cl	1.418640	-0.234134	0.622813
Cl305	Cl	1.227829	-0.840019	0.309994
Cl306	Cl	1.727829	-0.340019	0.809994
Cl307	Cl	0.918556	-0.122826	0.698959
Cl308	Cl	1.418556	0.377174	1.198959
H309	H	0.986947	-0.164261	0.387584
H310	H	1.486947	0.335739	0.887584
H311	H	1.206798	-0.744525	0.297281
H312	H	1.706798	-0.244525	0.797281
H313	H	1.159189	-0.268620	0.387428
H314	H	1.659189	0.231380	0.887428
