data_functionalizedCrystal
_audit_creation_method	'MofGen! by Chris Wilmer'
_symmetry_space_group_name_H-M	'P1'
_symmetry_Int_Tables_number	1
_symmetry_cell_setting	triclinic
loop_
_symmetry_equiv_pos_as_xyz
  x,y,z
_cell_length_a	10.268362
_cell_length_b	16.992694
_cell_length_c	16.992695
_cell_angle_alpha	89.331777
_cell_angle_beta	90.005527
_cell_angle_gamma	90.001137
loop_
_atom_site_label
_atom_site_type_symbol
_atom_site_fract_x
_atom_site_fract_y
_atom_site_fract_z
O1	O	0.108138	-1.050851	0.166917
O2	O	0.608138	-0.550851	0.666917
O3	O	0.108177	-0.822451	0.165086
O4	O	0.608177	-0.322451	0.665086
O5	O	0.108147	-0.935735	0.051802
O6	O	0.608147	-0.435735	0.551802
O7	O	0.108168	-0.937566	0.280202
O8	O	0.608168	-0.437566	0.780202
O9	O	-0.108453	-0.935724	0.051796
O10	O	0.391547	-0.435724	0.551796
O11	O	-0.108424	-0.822440	0.165080
O12	O	0.391576	-0.322440	0.665080
O13	O	-0.108462	-1.050840	0.166912
O14	O	0.391538	-0.550840	0.666912
Cu15	Cu	-0.128221	-0.936639	0.165995
Cu16	Cu	0.371779	-0.436639	0.665995
Cu17	Cu	0.127935	-0.936652	0.166002
Cu18	Cu	0.627935	-0.436652	0.666002
O19	O	-0.108433	-0.937555	0.280196
O20	O	0.391567	-0.437555	0.780196
C21	C	-0.000119	-0.793085	0.162727
C22	C	0.499881	-0.293085	0.662727
C23	C	-0.000105	-0.705600	0.155699
C24	C	0.499895	-0.205600	0.655699
N25	N	-0.308386	-0.936636	0.165991
N26	N	0.191614	-0.436636	0.665991
C27	C	-0.000153	-0.933374	0.022439
C28	C	0.499847	-0.433374	0.522439
C29	C	-0.000151	-0.926345	-0.065046
C30	C	0.499849	-0.426345	0.434954
C31	C	-0.574057	-0.936648	0.166000
C32	C	-0.074057	-0.436648	0.666000
C33	C	-0.426219	-0.936638	0.165997
C34	C	0.073781	-0.436638	0.665997
N35	N	0.308101	-0.936661	0.166001
N36	N	0.808101	-0.436661	0.666001
C37	C	-0.000164	-1.080205	0.169270
C38	C	0.499836	-0.580205	0.669270
C39	C	-0.000170	-1.167690	0.176299
C40	C	0.499830	-0.667690	0.676299
C41	C	-0.000099	-0.659610	0.223517
C42	C	0.499901	-0.159610	0.723517
C43	C	-0.000118	-0.577409	0.216908
C44	C	0.499882	-0.077409	0.716908
C45	C	-0.000132	-0.541201	0.142480
C46	C	0.499868	-0.041201	0.642480
C47	C	-0.000141	-0.587198	0.074657
C48	C	0.499859	-0.087198	0.574657
C49	C	-0.000132	-0.669397	0.081267
C50	C	0.499868	-0.169397	0.581267
C51	C	-0.000170	-0.295886	0.115086
C52	C	0.499830	0.204114	0.615086
C53	C	-0.000175	-0.213681	0.108481
C54	C	0.499825	0.286319	0.608481
C55	C	-0.000154	-0.203898	0.250732
C56	C	0.499846	0.296102	0.750732
C57	C	-0.000137	-0.286099	0.257335
C58	C	0.499863	0.213901	0.757335
C59	C	-0.000153	-0.332089	0.189512
C60	C	0.499847	0.167911	0.689512
N61	N	-0.000147	-0.457178	0.135723
N62	N	0.499853	0.042822	0.635723
N63	N	-0.000147	-0.416110	0.196270
N64	N	0.499853	0.083890	0.696270
C65	C	-0.000164	-0.994163	-0.111037
C66	C	0.499836	-0.494163	0.388963
C67	C	-0.000150	-0.987554	-0.193238
C68	C	0.499850	-0.487554	0.306762
C69	C	-0.000133	-0.913127	-0.229446
C70	C	0.499867	-0.413127	0.270554
C71	C	-0.000117	-0.845303	-0.183449
C72	C	0.499883	-0.345303	0.316551
C73	C	-0.000121	-0.851913	-0.101250
C74	C	0.499879	-0.351913	0.398750
C75	C	-0.000111	-0.885732	-0.474760
C76	C	0.499889	-0.385732	0.025240
C77	C	-0.000111	-0.879127	-0.556966
C78	C	0.499889	-0.379127	-0.056966
C79	C	-0.000142	-1.021379	-0.566749
C80	C	0.499858	-0.521379	-0.066749
C81	C	-0.000154	-1.027982	-0.484547
C82	C	0.499846	-0.527982	0.015453
C83	C	-0.000130	-0.960159	-0.438558
C84	C	0.499870	-0.460159	0.061442
N85	N	-0.000124	-0.906369	-0.313468
N86	N	0.499876	-0.406369	0.186532
N87	N	-0.000131	-0.966917	-0.354537
N88	N	0.499869	-0.466917	0.145463
C89	C	-0.000130	-0.939917	0.309559
C90	C	0.499870	-0.439917	0.809559
C91	C	-0.000123	-0.946945	0.397044
C92	C	0.499877	-0.446945	0.897044
H93	H	-0.000087	-0.689084	0.284124
H94	H	0.499913	-0.189084	0.784124
H95	H	-0.000164	-1.042779	-0.230680
H96	H	0.499836	-0.542779	0.269320
H97	H	-0.000184	-0.333322	0.059859
H98	H	0.499816	0.166678	0.559859
H99	H	-0.000168	-1.088589	-0.455073
H100	H	0.499832	-0.588589	0.044927
H101	H	-0.000186	-1.054770	-0.081563
H102	H	0.499814	-0.554770	0.418437
H103	H	-0.000144	-0.166444	0.305950
H104	H	0.499856	0.333556	0.805950
Br105	Br	-0.000107	-0.514995	0.308951
Br106	Br	0.499893	-0.014995	0.808951
H107	H	-0.000135	-0.706842	0.026042
H108	H	0.499865	-0.206842	0.526042
Br109	Br	-0.000103	-0.335233	0.358348
Br110	Br	0.499897	0.164767	0.858348
Br111	Br	-0.000222	-0.164541	0.007465
Br112	Br	0.499778	0.335459	0.507465
Br113	Br	-0.000174	-0.538059	-0.026353
Br114	Br	0.499826	-0.038059	0.473647
Br115	Br	-0.000174	-1.113419	-0.629167
Br116	Br	0.499826	-0.613419	-0.129167
H117	H	-0.000118	-0.818517	-0.586443
H118	H	0.499882	-0.318517	-0.086443
H119	H	-0.000092	-0.830505	-0.437325
H120	H	0.499908	-0.330505	0.062675
Br121	Br	-0.000072	-0.744293	-0.232588
Br122	Br	0.499928	-0.244293	0.267412
H123	H	-0.000110	-0.796688	-0.063804
H124	H	0.499890	-0.296688	0.436196
