data_functionalizedCrystal
_audit_creation_method	'MofGen! by Chris Wilmer'
_symmetry_space_group_name_H-M	'P1'
_symmetry_Int_Tables_number	1
_symmetry_cell_setting	triclinic
loop_
_symmetry_equiv_pos_as_xyz
  x,y,z
_cell_length_a	12.811438
_cell_length_b	12.837942
_cell_length_c	15.186229
_cell_angle_alpha	89.996774
_cell_angle_beta	84.565184
_cell_angle_gamma	89.411773
loop_
_atom_site_label
_atom_site_type_symbol
_atom_site_fract_x
_atom_site_fract_y
_atom_site_fract_z
O1	O	1.406645	0.139685	-0.185553
O2	O	1.102580	0.154873	-0.161274
O3	O	1.247870	-0.003653	-0.172870
O4	O	1.261355	0.298211	-0.173958
O5	O	1.247859	-0.003655	-0.026412
O6	O	1.102569	0.154871	-0.014816
O7	O	1.406634	0.139683	-0.039095
Zn8	Zn	1.254600	0.147277	-0.003702
Zn9	Zn	1.254614	0.147280	-0.196667
O10	O	1.261344	0.298209	-0.027499
C11	C	1.063385	0.154021	-0.084916
C12	C	0.946612	0.151472	-0.075592
C13	C	1.243309	-0.042294	-0.099278
C14	C	1.229723	-0.157430	-0.098194
C15	C	0.782020	0.147879	0.017379
C16	C	0.891739	0.150274	0.008622
C17	C	0.891759	0.150278	-0.151055
C18	C	0.782041	0.147882	-0.142298
C19	C	0.727175	0.146681	-0.058078
C20	C	0.617455	0.144278	-0.049322
C21	C	0.617477	0.144289	-0.208999
C22	C	0.727195	0.146685	-0.217756
C23	C	1.393053	-0.397684	-0.111254
C24	C	1.380293	-0.505864	-0.110237
C25	C	1.191443	-0.481974	-0.095148
C26	C	1.204203	-0.373794	-0.096166
C27	C	1.305012	-0.331652	-0.104218
C28	C	1.317771	-0.223469	-0.105229
C29	C	1.128922	-0.199582	-0.090147
C30	C	1.116162	-0.307762	-0.089129
C31	C	1.445829	0.140535	-0.115455
C32	C	1.562602	0.143084	-0.124785
C33	C	1.265905	0.336850	-0.101094
C34	C	1.279491	0.451986	-0.102183
N35	N	1.254597	0.147274	0.127991
N36	N	1.254624	0.147274	-0.328361
C37	C	1.318959	0.077102	0.348577
C38	C	1.318962	0.077100	0.440766
C39	C	1.190255	0.217449	0.451047
C40	C	1.190248	0.217446	0.358860
C41	C	1.254605	0.147273	0.307627
C42	C	1.254616	0.147274	0.492003
C43	C	1.254619	0.147272	0.591959
C44	C	1.254601	0.147274	0.207664
H45	H	0.572785	0.143308	0.019254
C46	C	1.477138	-0.578495	-0.117972
H47	H	1.538999	-0.537900	-0.122906
H48	H	1.476088	-0.621191	-0.168960
H49	H	1.476083	-0.621194	-0.066808
C50	C	1.389747	-0.000081	0.292219
H51	H	1.380537	0.009973	0.231449
H52	H	1.371429	-0.069353	0.308794
H53	H	1.460957	0.011535	0.301637
C54	C	1.389748	-0.000086	0.485812
H55	H	1.380530	0.009955	0.548054
H56	H	1.460955	0.011515	0.465012
H57	H	1.371415	-0.069359	0.472170
C58	C	0.721661	0.146533	0.110012
H59	H	0.648462	0.144923	0.104419
H60	H	0.737668	0.207319	0.141552
H61	H	0.741607	0.086504	0.141209
C62	C	0.787548	0.148007	-0.310391
H63	H	0.739167	0.146956	-0.354077
H64	H	0.832316	0.088541	-0.317282
H65	H	0.828382	0.209355	-0.316971
H66	H	0.936389	0.151253	0.070068
H67	H	0.936449	0.151265	-0.219623
H68	H	1.137858	0.274583	0.492771
C69	C	1.080566	-0.528343	-0.086293
H70	H	1.085581	-0.602229	-0.086691
H71	H	1.043856	-0.505701	-0.134430
H72	H	1.043862	-0.505718	-0.032278
C73	C	1.503934	-0.351324	-0.120104
H74	H	1.554543	-0.406145	-0.124150
H75	H	1.512830	-0.309622	-0.069741
H76	H	1.512841	-0.309616	-0.171894
C77	C	1.005282	-0.354124	-0.080268
H78	H	1.010290	-0.428010	-0.080663
H79	H	0.968569	-0.331482	-0.128403
H80	H	0.968584	-0.331493	-0.026252
C81	C	0.557145	0.142975	-0.292005
H82	H	0.483942	0.141382	-0.274731
H83	H	0.577096	0.082967	-0.326400
H84	H	0.573166	0.203781	-0.326087
H85	H	1.399854	-0.189160	-0.111782
C86	C	1.032072	-0.126945	-0.082414
H87	H	1.054107	-0.056480	-0.084179
H88	H	0.991179	-0.139771	-0.028077
H89	H	0.991191	-0.139762	-0.130230
H90	H	1.137838	0.274588	0.325517
