data_functionalizedCrystal
_audit_creation_method	'MofGen! by Chris Wilmer'
_symmetry_space_group_name_H-M	'P1'
_symmetry_Int_Tables_number	1
_symmetry_cell_setting	triclinic
loop_
_symmetry_equiv_pos_as_xyz
  x,y,z
_cell_length_a	10.540539
_cell_length_b	14.853567
_cell_length_c	13.330367
_cell_angle_alpha	90.004582
_cell_angle_beta	89.997527
_cell_angle_gamma	95.919789
loop_
_atom_site_label
_atom_site_type_symbol
_atom_site_fract_x
_atom_site_fract_y
_atom_site_fract_z
O1	O	0.165727	-1.197288	-0.083349
O2	O	0.185470	-0.934938	-0.083366
O3	O	-0.009174	-1.072099	-0.083356
O4	O	0.360371	-1.060128	-0.083359
O5	O	-0.009178	-1.072079	0.083491
O6	O	0.185465	-0.934918	0.083481
O7	O	0.165723	-1.197268	0.083498
Cu8	Cu	0.175594	-1.066092	0.098724
Cu9	Cu	0.175599	-1.066115	-0.098592
O10	O	0.360367	-1.060108	0.083488
C11	C	0.184573	-0.901335	0.000055
C12	C	0.181892	-0.801236	0.000049
C13	C	-0.056469	-1.071191	0.000066
C14	C	-0.197388	-1.068505	0.000060
N15	N	0.175589	-1.066081	0.237505
C16	C	-0.379682	-0.965588	-0.000321
C17	C	-0.233094	-0.968311	0.000055
C18	C	-0.259578	-1.116712	0.095341
C19	C	-0.406085	-1.113292	0.095421
C20	C	-0.406621	-1.115353	-0.094315
C21	C	-0.259649	-1.116276	-0.095575
C22	C	0.407662	-1.061016	0.000064
C23	C	0.548580	-1.063702	0.000063
C24	C	0.166620	-1.230872	0.000074
C25	C	0.169300	-1.330971	0.000074
C26	C	0.054938	-0.387998	0.000072
C27	C	0.286179	-0.368000	0.000069
C28	C	0.288700	-0.462048	0.000066
C29	C	0.174338	-0.519075	0.000065
C30	C	0.057455	-0.482055	0.000066
C31	C	0.405580	-0.499075	0.000054
C32	C	0.408105	-0.593129	0.000050
C33	C	0.293742	-0.650158	0.000056
C34	C	0.176855	-0.613132	0.000058
C35	C	0.062493	-0.670159	0.000057
C36	C	-0.054396	-0.633135	0.000067
C37	C	-0.056908	-0.539084	0.000072
C38	C	0.296254	-0.744209	0.000050
C39	C	0.065010	-0.764216	0.000050
N40	N	0.175593	-1.066133	-0.237374
C41	C	0.261753	-1.005378	0.710124
C42	C	0.089435	-1.126877	0.710101
C43	C	0.089431	-1.126867	0.605082
C44	C	0.175591	-1.066112	0.552580
C45	C	0.261754	-1.005368	0.605096
C46	C	0.003277	-1.187616	0.552559
C47	C	0.003271	-1.187609	0.447534
C48	C	0.089426	-1.126849	0.395029
C49	C	0.175592	-1.066102	0.447552
C50	C	0.261752	-1.005347	0.395049
C51	C	0.347913	-0.944594	0.447570
C52	C	0.347909	-0.944608	0.552591
C53	C	0.089430	-1.126836	0.290008
C54	C	0.261753	-1.005337	0.290021
H55	H	-0.190072	-0.930378	-0.068247
H56	H	-0.238034	-1.190292	0.098888
C57	C	0.411966	-0.305274	0.000073
H58	H	0.393727	-0.243958	0.000083
H59	H	0.459894	-0.316579	-0.058108
H60	H	0.459876	-0.316576	0.058266
H61	H	-0.152072	-0.508930	0.000104
C62	C	0.536671	-0.633852	0.000044
H63	H	0.521795	-0.698033	0.000035
H64	H	0.583767	-0.614325	0.058225
H65	H	0.583761	-0.614332	-0.058149
C66	C	-0.091511	-1.254425	0.389770
H67	H	-0.142830	-1.290604	0.436082
H68	H	-0.045760	-1.292240	0.348785
H69	H	-0.144442	-1.221643	0.348818
C70	C	-0.417718	-0.912122	-0.092622
H71	H	-0.373383	-0.853105	-0.091453
H72	H	-0.506987	-0.907772	-0.091361
H73	H	-0.396229	-0.942498	-0.152004
C74	C	-0.091499	-1.254436	0.610306
H75	H	-0.142806	-1.290619	0.563988
H76	H	-0.144422	-1.221665	0.651278
H77	H	-0.045736	-1.292261	0.651271
C78	C	0.424811	-0.784937	0.000036
H79	H	0.409933	-0.849118	0.000027
H80	H	0.471913	-0.765412	0.058215
H81	H	0.471895	-0.765418	-0.058159
H82	H	0.331901	-0.955911	0.752889
C83	C	-0.419887	-0.912325	0.091463
H84	H	-0.480199	-0.949623	0.130019
H85	H	-0.457189	-0.860192	0.069555
H86	H	-0.347071	-0.894318	0.131455
C87	C	-0.203811	-1.068709	-0.190804
H88	H	-0.241850	-1.097917	-0.248401
H89	H	-0.114251	-1.071713	-0.192554
H90	H	-0.220898	-1.007152	-0.190213
H91	H	-0.147509	-0.679579	0.000058
C92	C	-0.060791	-0.826939	0.000043
H93	H	-0.130759	-0.791416	0.000042
H94	H	-0.064621	-0.864050	0.058219
H95	H	-0.064612	-0.864038	-0.058154
C96	C	-0.443659	-1.065130	0.191623
H97	H	-0.369416	-1.047831	0.230285
H98	H	-0.501153	-1.105030	0.229721
H99	H	-0.483564	-1.012799	0.174208
C100	C	-0.005335	-1.193654	0.232240
H101	H	-0.056650	-1.229837	0.278550
H102	H	0.040426	-1.231466	0.191256
H103	H	-0.058270	-1.160878	0.191284
H104	H	0.331911	-0.955860	0.247280
H105	H	0.418071	-0.895131	0.404810
H106	H	-0.454643	-1.187723	-0.094951
C107	C	-0.471964	-1.210631	0.101286
H108	H	-0.409152	-1.252086	0.103617
H109	H	-0.524271	-1.222739	0.043837
H110	H	-0.523093	-1.217119	0.160044
H111	H	-0.040229	-0.357849	0.000084
H112	H	-0.216612	-1.083208	0.166242
H113	H	-0.190919	-0.930096	0.068465
H114	H	-0.437815	-1.082934	-0.166532
C115	C	-0.228025	-1.214962	-0.103343
H116	H	-0.176214	-1.228384	-0.048113
H117	H	-0.183523	-1.222894	-0.164153
H118	H	-0.304842	-1.254499	-0.102531
H119	H	0.498687	-0.452638	0.000045
H120	H	0.019292	-1.176346	0.752851
H121	H	0.418060	-0.895146	0.595360
