data_functionalizedCrystal
_audit_creation_method	'MofGen! by Chris Wilmer'
_symmetry_space_group_name_H-M	'P1'
_symmetry_Int_Tables_number	1
_symmetry_cell_setting	triclinic
loop_
_symmetry_equiv_pos_as_xyz
  x,y,z
_cell_length_a	23.532407
_cell_length_b	15.944551
_cell_length_c	14.421503
_cell_angle_alpha	89.996660
_cell_angle_beta	90.002238
_cell_angle_gamma	83.173708
loop_
_atom_site_label
_atom_site_type_symbol
_atom_site_fract_x
_atom_site_fract_y
_atom_site_fract_z
O1	O	-0.755658	-0.101953	-0.076998
O2	O	-0.589852	-0.116706	-0.077025
O3	O	-0.677283	0.012983	-0.077003
O4	O	-0.668227	-0.231642	-0.077021
O5	O	-0.677268	0.012964	0.077221
O6	O	-0.589837	-0.116726	0.077198
O7	O	-0.755643	-0.101972	0.077225
Cu8	Cu	-0.672739	-0.109351	0.091294
Cu9	Cu	-0.672756	-0.109328	-0.091094
O10	O	-0.668213	-0.231662	0.077203
C11	C	-0.676899	0.044265	0.000109
C12	C	-0.675772	0.137501	0.000110
C13	C	-0.568627	-0.116340	0.000083
C14	C	-0.505406	-0.115211	0.000073
C15	C	-0.776868	-0.102338	0.000115
C16	C	-0.840090	-0.103468	0.000119
C17	C	-0.106572	-0.184874	0.000109
C18	C	-0.047168	-0.183824	0.000115
O19	O	-0.010674	-0.248403	0.000144
N20	N	-0.024243	-0.106724	0.000119
C21	C	-0.060726	-0.030668	0.000127
O22	O	-0.035772	0.035009	0.000132
C23	C	-0.120129	-0.031718	0.000128
C24	C	-0.143051	-0.108823	0.000114
C25	C	-0.129494	-0.261973	0.000097
C26	C	-0.188894	-0.263022	0.000089
C27	C	-0.225373	-0.186971	0.000094
C28	C	-0.202451	-0.109872	0.000107
C29	C	-0.156611	0.044337	0.000143
C30	C	-0.216018	0.043281	0.000144
C31	C	-0.238939	-0.033825	0.000131
C32	C	-0.298329	-0.034871	0.000105
N33	N	-0.321254	-0.111971	0.000100
C34	C	-0.284776	-0.188022	0.000095
C35	C	0.064025	-0.028468	0.000127
C36	C	0.123427	-0.027417	0.000119
C37	C	0.136981	-0.180574	0.000109
C38	C	0.077578	-0.181624	0.000110
C39	C	0.041100	-0.105569	0.000123
C40	C	-0.409521	-0.190219	0.000079
C41	C	-0.468927	-0.191261	0.000067
C42	C	-0.482476	-0.038104	0.000083
C43	C	-0.423075	-0.037062	0.000089
C44	C	-0.386599	-0.113126	0.000090
O45	O	-0.334859	0.029673	0.000080
O46	O	-0.309738	-0.253687	0.000103
C47	C	-0.668596	-0.262943	0.000089
C48	C	-0.669723	-0.356179	0.000082
N49	N	-0.672731	-0.109366	0.219575
C50	C	-0.618885	0.351879	0.000087
C51	C	-0.645294	0.413109	0.076133
C52	C	-0.673733	0.308210	0.000102
C53	C	-0.645322	0.413111	-0.075919
C54	C	-0.671760	0.473106	0.000091
C55	C	-0.700158	0.368212	0.076211
C56	C	-0.700178	0.368208	-0.075910
C57	C	-0.726627	0.429421	0.000155
C58	C	-0.674869	0.213217	0.000109
C59	C	-0.670629	0.568097	0.000090
N60	N	-0.672769	-0.109306	-0.219375
C61	C	-0.632296	-0.169308	0.469218
C62	C	-0.683757	-0.185182	0.531028
C63	C	-0.672745	-0.109346	0.408736
C64	C	-0.621298	-0.093492	0.531020
C65	C	-0.672754	-0.109328	0.591458
C66	C	-0.724232	-0.125257	0.469185
C67	C	-0.661739	-0.033535	0.469172
C68	C	-0.713237	-0.049376	0.530954
C69	C	-0.672739	-0.109358	0.303475
C70	C	-0.672766	-0.109315	0.696717
H71	H	-0.487586	-0.254052	0.000056
N72	N	-0.730894	0.341812	-0.161059
H73	H	-0.710144	0.357946	-0.218475
H74	H	-0.731744	0.278638	-0.160015
N75	N	-0.696101	-0.270086	0.567036
H76	H	-0.734665	-0.282520	0.543576
H77	H	-0.665492	-0.315298	0.544581
H78	H	-0.723331	0.348409	0.140572
N79	N	0.176317	-0.262616	0.000123
H80	H	0.201271	-0.265607	-0.057040
H81	H	0.201224	-0.265550	0.057339
H82	H	-0.772194	0.462964	0.000205
H83	H	-0.767753	-0.138736	0.442138
H84	H	-0.652405	0.030549	0.441981
H85	H	-0.379828	-0.252157	0.000083
N86	N	-0.213613	-0.346186	0.000070
H87	H	-0.181483	-0.394197	0.000067
H88	H	-0.237963	-0.349973	0.057240
N89	N	-0.090155	-0.344005	0.000144
H90	H	-0.113699	-0.392999	0.000153
H91	H	-0.065201	-0.346934	-0.057014
H92	H	-0.622089	0.433014	0.140416
N93	N	0.052857	-0.264786	0.000092
H94	H	0.084985	-0.312800	0.000085
H95	H	0.028509	-0.268573	0.057265
H96	H	-0.137960	0.107125	0.000154
N97	N	0.148146	0.055746	0.000117
H98	H	0.116018	0.103760	0.000119
H99	H	0.172496	0.059515	0.057293
H100	H	-0.573358	0.318187	0.000156
H101	H	0.034327	0.033470	0.000129
N102	N	-0.398357	0.046105	0.000105
H103	H	-0.374018	0.049946	0.057285
H104	H	-0.374037	0.049923	-0.057094
N105	N	-0.255362	0.125314	0.000164
H106	H	-0.231823	0.174313	0.000174
H107	H	-0.280305	0.128229	-0.057010
H108	H	-0.622122	0.433001	-0.140214
H109	H	-0.598124	-0.220056	0.442111
H110	H	-0.512187	0.023814	0.000083
H111	H	-0.747484	0.001343	0.557891
H112	H	-0.577786	-0.080090	0.558184
