data_functionalizedCrystal
_audit_creation_method	'MofGen! by Chris Wilmer'
_symmetry_space_group_name_H-M	'P1'
_symmetry_Int_Tables_number	1
_symmetry_cell_setting	triclinic
loop_
_symmetry_equiv_pos_as_xyz
  x,y,z
_cell_length_a	12.645330
_cell_length_b	12.645331
_cell_length_c	12.759393
_cell_angle_alpha	90.018307
_cell_angle_beta	89.971026
_cell_angle_gamma	89.981279
loop_
_atom_site_label
_atom_site_type_symbol
_atom_site_fract_x
_atom_site_fract_y
_atom_site_fract_z
Zn1	Zn	-0.421959	-1.620734	-0.593957
Zn2	Zn	-0.599260	-1.620615	-0.418282
Zn3	Zn	-0.422014	-1.443448	-0.418301
Zn4	Zn	-0.599184	-1.443430	-0.593928
O5	O	-0.510604	-1.532057	-0.506117
O6	O	-0.445487	-1.769065	-0.570659
O7	O	-0.575802	-1.597071	-0.271264
O8	O	-0.273659	-1.467022	-0.441622
O9	O	-0.575749	-1.768978	-0.441591
O10	O	-0.273619	-1.597274	-0.570676
O11	O	-0.445580	-1.466907	-0.271277
O12	O	-0.445507	-1.295098	-0.441593
O13	O	-0.575620	-1.466993	-0.740953
O14	O	-0.575673	-1.295085	-0.570625
O15	O	-0.445414	-1.597257	-0.740975
O16	O	-0.747597	-1.597054	-0.441562
O17	O	-0.747541	-1.466877	-0.570608
C18	C	-0.510589	-1.256627	-0.506109
C19	C	-0.510608	-1.138797	-0.506130
C20	C	-0.592636	-1.093942	-0.587185
C21	C	-0.592974	-0.971382	-0.586945
C22	C	-0.540456	-0.970843	-0.395273
C23	C	-0.541034	-1.093441	-0.395743
C24	C	-0.398561	-1.093651	-0.534962
C25	C	-0.399181	-0.971046	-0.537403
C26	C	-0.786034	-1.531979	-0.506102
C27	C	-0.903864	-1.532043	-0.506131
C28	C	-1.071437	-1.450487	-0.587564
C29	C	-0.948878	-1.450070	-0.587302
C30	C	-0.948467	-1.501797	-0.395410
C31	C	-1.071065	-1.501299	-0.395905
C32	C	-1.070949	-1.644344	-0.534521
C33	C	-0.948342	-1.643656	-0.536942
C34	C	-0.234099	-1.532163	-0.506155
C35	C	-0.116269	-1.532209	-0.506171
C36	C	-0.510502	-1.532136	-0.780150
C37	C	-0.510459	-1.532170	-0.896927
C38	C	-0.510623	-0.808562	-0.506126
C39	C	-0.510638	-0.926392	-0.506129
C40	C	-0.442650	-1.600003	-0.951802
C41	C	-0.442604	-1.600021	-1.061526
C42	C	-0.578186	-1.464369	-1.061491
C43	C	-0.578226	-1.464347	-0.951769
C44	C	-0.510629	-1.532039	-0.233150
C45	C	-0.510374	-1.532210	-0.116373
H46	H	-0.482546	-0.941700	-0.333222
H47	H	-0.633362	-1.409152	-1.106156
H48	H	-0.633443	-1.409101	-0.907088
N49	N	-0.373355	-1.669316	-1.117596
N50	N	-0.373325	-1.669328	-1.215561
H51	H	-0.324415	-1.718269	-1.255162
N52	N	-0.911751	-1.672311	-0.639147
N53	N	-0.938385	-1.758854	-0.678435
H54	H	-0.912533	-1.779094	-0.750616
N55	N	-0.569629	-0.933691	-0.690045
N56	N	-0.552974	-0.997931	-0.762682
H57	H	-0.536488	-0.971318	-0.835503
H58	H	-0.917859	-1.420680	-0.370959
N59	N	-1.107316	-1.720714	-0.460143
N60	N	-1.166352	-1.692821	-0.386546
H61	H	-1.192041	-1.746749	-0.334011
N62	N	-0.373408	-1.669270	-0.895799
N63	N	-0.275584	-1.662275	-0.908072
H64	H	-0.226675	-1.711194	-0.868523
H65	H	-1.102341	-1.367874	-0.569023
N66	N	-0.696196	-1.132554	-0.563463
N67	N	-0.737395	-1.112599	-0.476607
H68	H	-0.810533	-1.139874	-0.459848
N69	N	-0.569598	-1.130969	-0.690615
N70	N	-0.626616	-1.103450	-0.765818
H71	H	-0.610347	-1.129607	-0.838869
H72	H	-1.099759	-1.419327	-0.371887
N73	N	-0.697146	-0.934560	-0.562955
N74	N	-0.769824	-0.999406	-0.546330
H75	H	-0.843401	-0.973403	-0.529386
H76	H	-0.622925	-1.122005	-0.371373
N77	N	-0.370982	-0.934624	-0.639761
N78	N	-0.432684	-0.875994	-0.689550
H79	H	-0.412777	-0.850273	-0.761846
H80	H	-1.100843	-1.469237	-0.669932
H81	H	-0.919312	-1.559432	-0.333109
N82	N	-0.469296	-1.130654	-0.317372
N83	N	-0.418969	-1.066077	-0.262500
H84	H	-0.368305	-1.092353	-0.207151
N85	N	-0.642066	-0.932278	-0.364184
N86	N	-0.692695	-0.872070	-0.423477
H87	H	-0.764459	-0.844834	-0.401526
H88	H	-0.371316	-1.124607	-0.614436
N89	N	-0.318474	-0.932623	-0.468795
N90	N	-0.341893	-0.871436	-0.395400
H91	H	-0.284896	-0.844300	-0.346936
N92	N	-0.321908	-1.130043	-0.460903
N93	N	-0.349534	-1.188971	-0.387179
H94	H	-0.295407	-1.214678	-0.334870
N95	N	-0.911022	-1.473822	-0.690285
N96	N	-0.853924	-1.553147	-0.705086
H97	H	-0.827194	-1.569924	-0.777822
H98	H	-0.919646	-1.366937	-0.568521
N99	N	-1.108265	-1.572706	-0.317211
N100	N	-1.043680	-1.622745	-0.262096
H101	H	-1.069948	-1.673163	-0.206507
N102	N	-1.109646	-1.678950	-0.634080
N103	N	-1.171104	-1.621378	-0.685354
H104	H	-1.198437	-1.645808	-0.755671
H105	H	-0.917695	-1.707750	-0.481976
