data_functionalizedCrystal
_audit_creation_method	'MofGen! by Chris Wilmer'
_symmetry_space_group_name_H-M	'P1'
_symmetry_Int_Tables_number	1
_symmetry_cell_setting	triclinic
loop_
_symmetry_equiv_pos_as_xyz
  x,y,z
_cell_length_a	14.853567
_cell_length_b	13.448316
_cell_length_c	14.971486
_cell_angle_alpha	90.002892
_cell_angle_beta	83.624530
_cell_angle_gamma	90.001944
loop_
_atom_site_label
_atom_site_type_symbol
_atom_site_fract_x
_atom_site_fract_y
_atom_site_fract_z
O1	O	1.196344	0.082624	0.116777
O2	O	1.696344	0.582624	0.616777
O3	O	0.933882	0.082641	0.130688
O4	O	1.433882	0.582641	0.630688
O5	O	1.072148	0.082625	-0.006466
O6	O	1.572148	0.582625	0.493534
O7	O	1.058078	0.082640	0.253931
O8	O	1.558078	0.582640	0.753931
O9	O	1.072134	-0.082759	-0.006465
O10	O	1.572134	0.417241	0.493535
O11	O	0.933868	-0.082743	0.130689
O12	O	1.433868	0.417257	0.630689
O13	O	1.196330	-0.082760	0.116778
O14	O	1.696330	0.417240	0.616778
Cu15	Cu	1.065098	-0.097852	0.123734
Cu16	Cu	1.565098	0.402148	0.623734
Cu17	Cu	1.065114	0.097733	0.123732
Cu18	Cu	1.565114	0.597733	0.623732
O19	O	1.058065	-0.082744	0.253932
O20	O	1.558065	0.417256	0.753932
C21	C	0.900287	-0.000049	0.130058
C22	C	1.400287	0.499951	0.630058
C23	C	0.800203	-0.000043	0.128169
C24	C	1.300203	0.499957	0.628169
N25	N	1.065093	-0.235417	0.123734
N26	N	1.565093	0.264583	0.623734
C27	C	1.010394	-0.712664	0.069374
C28	C	1.510394	-0.212664	0.569374
C29	C	1.010391	-0.608561	0.069371
C30	C	1.510391	-0.108561	0.569371
C31	C	1.065116	-0.556498	0.123725
C32	C	1.565116	-0.056498	0.623725
C33	C	1.119854	-0.608544	0.178077
C34	C	1.619854	-0.108544	0.678077
C35	C	1.119862	-0.712645	0.178074
C36	C	1.619862	-0.212645	0.678074
C37	C	1.119834	-0.391564	0.178080
C38	C	1.619834	0.108436	0.678080
C39	C	1.119826	-0.287455	0.178085
C40	C	1.619826	0.212545	0.678085
C41	C	1.010363	-0.287479	0.069378
C42	C	1.510363	0.212521	0.569378
C43	C	1.010370	-0.391580	0.069375
C44	C	1.510370	0.108420	0.569375
C45	C	1.065108	-0.443619	0.123729
C46	C	1.565108	0.056381	0.623729
C47	C	0.387686	-0.000070	0.038712
C48	C	0.887686	0.499930	0.538712
C49	C	0.366375	-0.000060	0.201655
C50	C	0.866375	0.499940	0.701655
C51	C	0.460408	-0.000056	0.203431
C52	C	0.960408	0.499944	0.703431
C53	C	0.518085	-0.000058	0.122846
C54	C	1.018085	0.499942	0.622846
C55	C	0.481728	-0.000064	0.040486
C56	C	0.981728	0.499936	0.540486
C57	C	0.496772	-0.000041	0.285790
C58	C	0.996772	0.499959	0.785790
C59	C	0.590811	-0.000036	0.287569
C60	C	1.090811	0.499964	0.787569
C61	C	0.648490	-0.000046	0.206984
C62	C	1.148490	0.499954	0.706984
C63	C	0.612127	-0.000052	0.124620
C64	C	1.112127	0.499948	0.624620
C65	C	0.669804	-0.000054	0.044035
C66	C	1.169804	0.499946	0.544035
C67	C	0.633444	-0.000068	-0.038330
C68	C	1.133444	0.499932	0.461670
C69	C	0.539407	-0.000073	-0.040100
C70	C	1.039407	0.499927	0.459900
C71	C	0.742527	-0.000040	0.208754
C72	C	1.242527	0.499960	0.708754
C73	C	0.763847	-0.000048	0.045809
C74	C	1.263847	0.499952	0.545809
C75	C	1.229926	-0.000068	0.117408
C76	C	1.729926	0.499932	0.617408
C77	C	1.330009	-0.000068	0.119297
C78	C	1.830009	0.499932	0.619297
C79	C	1.071512	-0.000067	-0.039791
C80	C	1.571512	0.499933	0.460209
C81	C	1.069626	-0.000066	-0.139088
C82	C	1.569626	0.499934	0.360912
N83	N	1.065126	0.235297	0.123725
N84	N	1.565126	0.735297	0.623725
C85	C	1.150854	-0.000072	-0.196299
C86	C	1.650854	0.499928	0.303701
C87	C	1.149076	-0.000062	-0.289598
C88	C	1.649076	0.499938	0.210402
C89	C	1.066071	-0.000053	-0.325686
C90	C	1.566071	0.499947	0.174314
C91	C	0.984838	-0.000044	-0.268468
C92	C	1.484838	0.499956	0.231532
C93	C	0.986616	-0.000047	-0.175170
C94	C	1.486616	0.499953	0.324830
C95	C	0.981137	-0.000040	-0.462931
C96	C	1.481137	0.499960	0.037069
C97	C	0.979359	-0.000039	-0.556235
C98	C	1.479359	0.499961	-0.056235
C99	C	1.143598	-0.000055	-0.577360
C100	C	1.643598	0.499945	-0.077360
C101	C	1.145376	-0.000058	-0.484062
C102	C	1.645376	0.499942	0.015938
C103	C	1.064142	-0.000051	-0.426850
C104	C	1.564142	0.499949	0.073150
C105	C	1.058701	-0.000050	0.287257
C106	C	1.558701	0.499950	0.787257
C107	C	1.060586	-0.000045	0.386554
C108	C	1.560586	0.499955	0.886554
H109	H	0.965826	-0.755046	0.025118
H110	H	1.465826	-0.255046	0.525118
Cl111	Cl	0.293867	-0.000043	0.302955
Cl112	Cl	0.793867	0.499957	0.802955
Cl113	Cl	0.941553	-0.543145	0.001070
Cl114	Cl	1.441553	-0.043145	0.501070
H115	H	1.215220	-0.000069	-0.336176
H116	H	1.715220	0.499931	0.163824
Cl117	Cl	1.188675	-0.778066	0.246399
Cl118	Cl	1.688675	-0.278066	0.746399
Cl119	Cl	0.875008	-0.000028	-0.601601
Cl120	Cl	1.375008	0.499972	-0.101601
Cl121	Cl	0.705962	-0.000063	-0.139631
Cl122	Cl	1.205962	0.499937	0.360369
H123	H	0.965804	-0.433967	0.025120
H124	H	1.465804	0.066033	0.525120
Cl125	Cl	0.493691	-0.000084	-0.143634
Cl126	Cl	0.993691	0.499916	0.356366
H127	H	0.917253	-0.000030	-0.297857
H128	H	1.417253	0.499970	0.202143
H129	H	0.810802	-0.000053	-0.019814
H130	H	1.310802	0.499947	0.480186
H131	H	0.620407	-0.000025	0.354635
H132	H	1.120407	0.499975	0.854635
H133	H	0.358077	-0.000085	-0.028347
H134	H	0.858077	0.499915	0.471653
H135	H	0.920472	-0.000042	-0.128589
H136	H	1.420472	0.499958	0.371411
Cl137	Cl	1.188659	-0.222006	0.246380
Cl138	Cl	1.688659	0.277994	0.746380
Cl139	Cl	0.941549	-0.222060	0.001048
Cl140	Cl	1.441549	0.277940	0.501048
H141	H	0.449806	-0.000029	0.351397
H142	H	0.949806	0.499971	0.851397
Cl143	Cl	1.249727	-0.000064	-0.438696
Cl144	Cl	1.749727	0.499936	0.061304
H145	H	0.772127	-0.000031	0.275814
H146	H	1.272127	0.499969	0.775814
Cl147	Cl	1.188651	-0.456983	0.246409
Cl148	Cl	1.688651	0.043017	0.746409
Cl149	Cl	1.255209	-0.000093	-0.150942
Cl150	Cl	1.755209	0.499907	0.349058
H151	H	0.914988	-0.000031	-0.416351
H152	H	1.414988	0.499969	0.083649
H153	H	1.209742	-0.000058	-0.623946
H154	H	1.709742	0.499942	-0.123946
H155	H	1.164417	-0.566146	0.222328
H156	H	1.664417	-0.066146	0.722328
