data_functionalizedCrystal
_audit_creation_method	'MofGen! by Chris Wilmer'
_symmetry_space_group_name_H-M	'P1'
_symmetry_Int_Tables_number	1
_symmetry_cell_setting	triclinic
loop_
_symmetry_equiv_pos_as_xyz
  x,y,z
_cell_length_a	16.625548
_cell_length_b	11.169416
_cell_length_c	11.169417
_cell_angle_alpha	89.996023
_cell_angle_beta	90.007040
_cell_angle_gamma	89.988592
loop_
_atom_site_label
_atom_site_type_symbol
_atom_site_fract_x
_atom_site_fract_y
_atom_site_fract_z
Zn1	Zn	1.232641	0.477994	0.678661
Zn2	Zn	1.565974	0.811328	1.011994
Zn3	Zn	1.899307	1.144661	1.345328
Zn4	Zn	1.232604	0.678641	0.477983
Zn5	Zn	1.565938	1.011974	0.811316
Zn6	Zn	1.899271	1.345307	1.144650
Zn7	Zn	1.097834	0.477974	0.477984
Zn8	Zn	1.431168	0.811307	0.811317
Zn9	Zn	1.764501	1.144641	1.144650
Zn10	Zn	1.097802	0.678638	0.678616
Zn11	Zn	1.431135	1.011971	1.011949
Zn12	Zn	1.764468	1.345304	1.345283
O13	O	1.165220	0.578312	0.578311
O14	O	1.498554	0.911645	0.911644
O15	O	1.831887	1.244978	1.244978
O16	O	1.345468	0.504620	0.652059
O17	O	1.678802	0.837954	0.985392
O18	O	2.012135	1.171287	1.318726
O19	O	1.214725	0.652014	0.310034
O20	O	1.548059	0.985348	0.643367
O21	O	1.881392	1.318681	0.976700
O22	O	1.115746	0.310027	0.504623
O23	O	1.449079	0.643360	0.837956
O24	O	1.782412	0.976694	1.171290
O25	O	1.345442	0.652034	0.504622
O26	O	1.678775	0.985367	0.837955
O27	O	2.012108	1.318701	1.171289
O28	O	1.214787	0.310042	0.652060
O29	O	1.548121	0.643375	0.985393
O30	O	1.881454	0.976709	1.318726
O31	O	1.115710	0.504585	0.310034
O32	O	1.449044	0.837919	0.643367
O33	O	1.782377	1.171252	0.976701
O34	O	0.984998	0.504583	0.504580
O35	O	1.318331	0.837916	0.837913
O36	O	1.651664	1.171249	1.171246
O37	O	1.115690	0.652029	0.846572
O38	O	1.449023	0.985363	1.179905
O39	O	1.782356	1.318696	1.513238
O40	O	0.984973	0.652010	0.651983
O41	O	1.318307	0.985343	0.985317
O42	O	1.651640	1.318676	1.318650
O43	O	1.214755	0.504617	0.846605
O44	O	1.548089	0.837951	1.179938
O45	O	1.881422	1.171284	1.513271
O46	O	1.214693	0.846590	0.504579
O47	O	1.548027	1.179923	0.837912
O48	O	1.881360	1.513257	1.171245
O49	O	1.115654	0.846588	0.651983
O50	O	1.448988	1.179921	0.985316
O51	O	1.782321	1.513255	1.318649
C52	C	0.955729	0.578294	0.578277
C53	C	1.289063	0.911628	0.911611
C54	C	1.622396	1.244961	1.244944
C55	C	0.866108	0.578316	0.578292
C56	C	1.199442	0.911649	0.911625
C57	C	1.532775	1.244983	1.244958
C58	C	1.165223	0.578325	0.891353
C59	C	1.498556	0.911659	1.224687
C60	C	1.831890	1.244992	1.558020
C61	C	1.165224	0.578331	1.024753
C62	C	1.498557	0.911665	1.358087
C63	C	1.831891	1.244998	1.691420
C64	C	1.165188	0.890136	0.578302
C65	C	1.498522	1.223470	0.911635
C66	C	1.831855	1.556803	1.244969
C67	C	1.165248	1.023536	0.578338
C68	C	1.498582	1.356870	0.911671
C69	C	1.831915	1.690203	1.245005
C70	C	0.537933	0.578324	0.578343
C71	C	0.871266	0.911657	0.911676
C72	C	1.204599	1.244991	1.245010
C73	C	0.629241	0.578318	0.578325
C74	C	0.962574	0.911652	0.911658
C75	C	1.295908	1.244985	1.244991
C76	C	0.702018	0.578321	0.578316
C77	C	1.035351	0.911654	0.911650
C78	C	1.368684	1.244987	1.244983
C79	C	0.793332	0.578314	0.578300
C80	C	1.126665	0.911647	0.911633
C81	C	1.459998	1.244981	1.244967
C82	C	1.375529	0.578330	0.578345
C83	C	1.708862	0.911663	0.911679
C84	C	2.042196	1.244996	1.245012
C85	C	1.465150	0.578337	0.578360
C86	C	1.798484	0.911671	0.911693
C87	C	2.131817	1.245004	1.245027
C88	C	1.165274	0.265269	0.578346
C89	C	1.498608	0.598603	0.911680
C90	C	1.831941	0.931936	1.245013
C91	C	1.165297	0.131869	0.578362
C92	C	1.498631	0.465203	0.911695
C93	C	1.831964	0.798536	1.245028
C94	C	1.165214	0.578329	1.266486
C95	C	1.498548	0.911662	1.599820
C96	C	1.831881	1.244996	1.933153
C97	C	1.165221	0.578336	1.133086
C98	C	1.498555	0.911669	1.466420
C99	C	1.831888	1.245003	1.799753
