data_functionalizedCrystal
_audit_creation_method	'MofGen! by Chris Wilmer'
_symmetry_space_group_name_H-M	'P1'
_symmetry_Int_Tables_number	1
_symmetry_cell_setting	triclinic
loop_
_symmetry_equiv_pos_as_xyz
  x,y,z
_cell_length_a	12.759401
_cell_length_b	12.594516
_cell_length_c	12.759393
_cell_angle_alpha	89.971950
_cell_angle_beta	89.980198
_cell_angle_gamma	90.015138
loop_
_atom_site_label
_atom_site_type_symbol
_atom_site_fract_x
_atom_site_fract_y
_atom_site_fract_z
Zn1	Zn	1.606256	-0.423717	-0.594006
Zn2	Zn	2.106256	0.076283	-0.094006
Zn3	Zn	1.606143	-0.601733	-0.418334
Zn4	Zn	2.106143	-0.101733	0.081666
Zn5	Zn	1.430555	-0.423766	-0.418345
Zn6	Zn	1.930555	0.076234	0.081655
Zn7	Zn	1.430543	-0.601651	-0.593974
Zn8	Zn	1.930543	-0.101651	-0.093974
O9	O	1.518375	-0.512716	-0.506165
O10	O	2.018375	-0.012716	-0.006165
O11	O	1.753262	-0.447345	-0.570711
O12	O	2.253262	0.052655	-0.070711
O13	O	1.582809	-0.578180	-0.271314
O14	O	2.082809	-0.078180	0.228686
O15	O	1.453915	-0.274813	-0.441664
O16	O	1.953915	0.225187	0.058336
O17	O	1.753179	-0.578132	-0.441646
O18	O	2.253179	-0.078132	0.058354
O19	O	1.583002	-0.274777	-0.570722
O20	O	2.083002	0.225223	-0.070722
O21	O	1.453805	-0.447428	-0.271322
O22	O	1.953805	0.052572	0.228678
O23	O	1.283533	-0.447349	-0.441634
O24	O	1.783533	0.052651	0.058366
O25	O	1.453894	-0.577992	-0.741000
O26	O	1.953894	-0.077992	-0.241000
O27	O	1.283524	-0.578040	-0.570668
O28	O	1.783524	-0.078040	-0.070668
O29	O	1.582990	-0.447265	-0.741023
O30	O	2.082990	0.052735	-0.241023
O31	O	1.582797	-0.750667	-0.441615
O32	O	2.082797	-0.250667	0.058385
O33	O	1.453784	-0.750607	-0.570657
O34	O	1.953784	-0.250607	-0.070657
C35	C	1.245407	-0.512692	-0.506149
C36	C	1.745407	-0.012692	-0.006149
C37	C	1.128631	-0.512707	-0.506168
C38	C	1.628631	-0.012707	-0.006168
C39	C	0.964075	-0.444753	-0.573483
C40	C	1.464075	0.055247	-0.073483
C41	C	1.073799	-0.444732	-0.573476
C42	C	1.573799	0.055268	-0.073476
C43	C	1.073732	-0.580714	-0.438869
C44	C	1.573732	-0.080714	0.061131
C45	C	0.964010	-0.580739	-0.438882
C46	C	1.464010	-0.080739	0.061118
C47	C	1.518306	-0.789257	-0.506154
C48	C	2.018306	-0.289257	-0.006154
C49	C	1.518372	-0.907563	-0.506185
C50	C	2.018372	-0.407563	-0.006185
C51	C	1.448195	-0.976822	-0.576322
C52	C	1.948195	-0.476822	-0.076322
C53	C	1.422594	-1.047690	-0.480455
C54	C	1.922594	-0.547690	0.019545
C55	C	1.544069	-1.047494	-0.602068
C56	C	2.044069	-0.547494	-0.102068
C57	C	1.492720	-0.976873	-0.410268
C58	C	1.992720	-0.476873	0.089732
C59	C	1.614240	-0.976670	-0.531945
C60	C	2.114240	-0.476670	-0.031945
C61	C	1.588675	-1.047506	-0.436013
C62	C	2.088675	-0.547506	0.063987
C63	C	1.792408	-0.512742	-0.506181
C64	C	2.292408	-0.012742	-0.006181
C65	C	1.909184	-0.512753	-0.506188
C66	C	2.409184	-0.012753	-0.006188
C67	C	1.518453	-0.512614	-0.780198
C68	C	2.018453	-0.012614	-0.280198
C69	C	1.518487	-0.512571	-0.896975
C70	C	2.018487	-0.012571	-0.396975
C71	C	1.518472	-0.235095	-0.506198
C72	C	2.018472	0.264905	-0.006198
C73	C	1.518514	-0.116790	-0.506212
C74	C	2.018514	0.383210	-0.006212
C75	C	1.585712	-0.444490	-0.951851
C76	C	2.085712	0.055510	-0.451851
C77	C	1.585730	-0.444444	-1.061575
C78	C	2.085730	0.055556	-0.561575
C79	C	1.451294	-0.580569	-1.061538
C80	C	1.951294	-0.080569	-0.561538
C81	C	1.451272	-0.580608	-0.951816
C82	C	1.951272	-0.080608	-0.451816
C83	C	1.518357	-0.512741	-0.233197
C84	C	2.018357	-0.012741	0.266803
C85	C	1.518527	-0.512485	-0.116421
C86	C	2.018527	-0.012485	0.383579
H87	H	1.118384	-0.636064	-0.384070
H88	H	1.618384	-0.136064	0.115930
H89	H	1.341587	-1.078908	-0.458689
H90	H	1.841587	-0.578908	0.041311
H91	H	1.640470	-0.389004	-1.106250
H92	H	2.140470	0.110996	-0.606250
H93	H	1.470950	-0.945979	-0.329169
H94	H	1.970950	-0.445979	0.170831
H95	H	1.648082	-1.078347	-0.376643
H96	H	2.148082	-0.578347	0.123357
H97	H	0.919316	-0.636119	-0.384081
H98	H	1.419316	-0.136119	0.115919
H99	H	1.695229	-0.945454	-0.553757
H100	H	2.195229	-0.445454	-0.053757
H101	H	1.565747	-1.078515	-0.683145
H102	H	2.065747	-0.578515	-0.183145
H103	H	1.396521	-0.636047	-0.907135
H104	H	1.896521	-0.136047	-0.407135
H105	H	1.396572	-0.635965	-1.106202
H106	H	1.896572	-0.135965	-0.606202
H107	H	0.919440	-0.389394	-0.628287
H108	H	1.419440	0.110606	-0.128287
H109	H	1.388743	-0.945784	-0.635548
H110	H	1.888743	-0.445784	-0.135548
H111	H	1.640440	-0.389086	-0.907203
H112	H	2.140440	0.110914	-0.407203
H113	H	1.118487	-0.389361	-0.628276
H114	H	1.618487	0.110639	-0.128276
