data_functionalizedCrystal
_audit_creation_method	'MofGen! by Chris Wilmer'
_symmetry_space_group_name_H-M	'P1'
_symmetry_Int_Tables_number	1
_symmetry_cell_setting	triclinic
loop_
_symmetry_equiv_pos_as_xyz
  x,y,z
_cell_length_a	10.489711
_cell_length_b	10.489746
_cell_length_c	16.776229
_cell_angle_alpha	89.993070
_cell_angle_beta	89.991344
_cell_angle_gamma	84.534155
loop_
_atom_site_label
_atom_site_type_symbol
_atom_site_fract_x
_atom_site_fract_y
_atom_site_fract_z
O1	O	1.694084	0.179790	-0.066318
O2	O	1.322883	0.196722	-0.066313
O3	O	1.516927	0.002658	-0.066310
O4	O	1.500040	0.373854	-0.066321
O5	O	1.516900	0.002645	0.066267
O6	O	1.322857	0.196710	0.066263
O7	O	1.694058	0.179778	0.066259
Zn8	Zn	1.508453	0.188242	0.087310
Zn9	Zn	1.508488	0.188258	-0.087365
O10	O	1.500014	0.373842	0.066255
C11	C	1.275338	0.195445	-0.000024
C12	C	1.133707	0.191643	-0.000022
C13	C	0.951322	0.308348	-0.000035
C14	C	1.043480	0.250058	-0.065399
C15	C	1.043427	0.250015	0.065311
C16	C	0.973526	0.126516	-0.065457
C17	C	0.973464	0.126490	0.065312
C18	C	1.065594	0.068111	-0.000068
C19	C	1.515637	-0.044880	-0.000022
C20	C	1.511817	-0.186509	-0.000022
C21	C	1.386092	-0.339353	-0.000030
C22	C	1.448962	-0.261961	-0.065397
C23	C	1.448966	-0.262015	0.065313
C24	C	1.567945	-0.361466	-0.065460
C25	C	1.567931	-0.361524	0.065309
C26	C	1.630889	-0.284182	-0.000073
C27	C	1.741603	0.181055	-0.000032
C28	C	1.883234	0.184857	-0.000039
C29	C	1.501304	0.421380	-0.000035
C30	C	1.505124	0.563008	-0.000039
N31	N	1.508439	0.188230	0.206522
N32	N	1.508512	0.188260	-0.206576
C33	C	1.594388	0.102334	0.248240
C34	C	1.594395	0.102333	0.331693
C35	C	1.508458	0.188235	0.373425
C36	C	1.422500	0.274135	0.331700
C37	C	1.422488	0.274129	0.248249
C38	C	1.422547	0.274161	0.668247
C39	C	1.422568	0.274163	0.751704
C40	C	1.594454	0.102365	0.751690
C41	C	1.594442	0.102359	0.668240
C42	C	1.508479	0.188254	0.626523
C43	C	1.508471	0.188252	0.536034
C44	C	1.508472	0.188244	0.463911
H45	H	1.074486	0.302319	-0.120661
H46	H	0.942727	0.074318	-0.120782
H47	H	1.618171	-0.404747	-0.120785
H48	H	1.618125	-0.405034	0.120574
H49	H	1.352583	0.344117	0.785681
H50	H	1.074373	0.302283	0.120572
H51	H	0.901634	0.409849	-0.000103
H52	H	1.398724	-0.218476	-0.120659
H53	H	1.664381	0.032390	0.365659
H54	H	1.115050	-0.033484	-0.000098
H55	H	1.664423	0.032414	0.634264
H56	H	1.398683	-0.218570	0.120576
H57	H	0.942429	0.074276	0.120578
H58	H	1.664373	0.032388	0.214268
H59	H	1.282589	-0.364061	-0.000094
H60	H	1.734470	-0.259718	-0.000110
H61	H	1.352555	0.344102	0.634288
H62	H	1.664445	0.032420	0.785665
H63	H	1.352522	0.344074	0.365683
H64	H	1.352498	0.344073	0.214283
