data_functionalizedCrystal
_audit_creation_method	'MofGen! by Chris Wilmer'
_symmetry_space_group_name_H-M	'P1'
_symmetry_Int_Tables_number	1
_symmetry_cell_setting	triclinic
loop_
_symmetry_equiv_pos_as_xyz
  x,y,z
_cell_length_a	10.654541
_cell_length_b	10.654545
_cell_length_c	13.448316
_cell_angle_alpha	90.001297
_cell_angle_beta	90.003736
_cell_angle_gamma	84.484678
loop_
_atom_site_label
_atom_site_type_symbol
_atom_site_fract_x
_atom_site_fract_y
_atom_site_fract_z
O1	O	1.667846	0.176382	0.082656
O2	O	1.302367	0.193192	0.082664
O3	O	1.493509	0.002048	0.082659
O4	O	1.476704	0.367526	0.082661
O5	O	1.493489	0.002046	-0.082725
O6	O	1.302348	0.193190	-0.082720
O7	O	1.667827	0.176380	-0.082728
Cu8	Cu	1.485085	0.184785	-0.097825
Cu9	Cu	1.485108	0.184787	0.097761
O10	O	1.476685	0.367524	-0.082723
C11	C	1.255559	0.191957	-0.000027
C12	C	1.116116	0.188266	-0.000024
C13	C	1.492265	-0.044751	-0.000031
C14	C	1.488572	-0.184195	-0.000025
C15	C	1.088146	0.416831	-0.000010
C16	C	1.008652	0.529374	0.000001
C17	C	0.877634	0.525898	0.000002
C18	C	0.826108	0.409867	-0.000011
C19	C	0.905602	0.297324	-0.000022
C20	C	1.036622	0.300812	-0.000020
C21	C	0.933572	0.068763	-0.000043
C22	C	1.064590	0.072235	-0.000036
C23	C	0.882046	-0.047269	-0.000055
C24	C	0.961540	-0.159814	-0.000059
C25	C	1.092565	-0.156334	-0.000059
C26	C	1.144084	-0.040308	-0.000047
C27	C	1.488608	-0.184201	0.180281
C28	C	1.486896	-0.249714	0.270434
C29	C	1.483427	-0.380733	0.270435
C30	C	1.481666	-0.446241	0.180274
C31	C	1.483378	-0.380728	0.090121
C32	C	1.486851	-0.249707	0.090130
C33	C	1.483333	-0.380720	-0.090183
C34	C	1.486811	-0.249703	-0.090187
C35	C	1.481572	-0.446229	-0.180344
C36	C	1.483293	-0.380716	-0.270499
C37	C	1.486764	-0.249690	-0.270497
C38	C	1.488523	-0.184190	-0.180339
C39	C	1.714634	0.177615	-0.000035
C40	C	1.854078	0.181306	-0.000032
C41	C	1.477929	0.414323	-0.000031
C42	C	1.481621	0.553766	-0.000030
N43	N	1.485079	0.184783	-0.235389
C44	C	1.561908	0.261665	-0.287427
C45	C	1.561924	0.261660	-0.391530
C46	C	1.485102	0.184778	-0.443594
C47	C	1.408270	0.107887	-0.391549
C48	C	1.408262	0.107886	-0.287448
C49	C	1.408290	0.107895	-0.608529
C50	C	1.408296	0.107897	-0.712638
C51	C	1.561951	0.261669	-0.712611
C52	C	1.561943	0.261668	-0.608510
C53	C	1.485109	0.184779	-0.556472
N54	N	1.485125	0.184779	0.235325
H55	H	1.194826	0.419672	0.000011
H56	H	1.488328	-0.196363	0.343842
H57	H	1.488139	-0.196355	-0.343911
H58	H	1.624457	0.324279	-0.245044
H59	H	1.345727	0.045282	-0.433948
H60	H	1.624492	0.324278	-0.566122
H61	H	1.624488	0.324263	-0.433894
H62	H	1.478741	-0.552910	-0.180337
H63	H	0.719425	0.407048	-0.000022
H64	H	1.157283	-0.247981	-0.000071
H65	H	1.481851	-0.434062	-0.343901
H66	H	1.345699	0.045281	-0.245080
H67	H	1.482022	-0.434072	0.343846
H68	H	1.624508	0.324280	-0.754985
H69	H	1.491355	-0.077508	-0.180329
H70	H	0.775363	-0.050090	-0.000060
H71	H	1.050619	0.623844	0.000009
H72	H	1.478826	-0.552922	0.180283
H73	H	0.812909	0.617541	0.000003
H74	H	0.919576	-0.254278	-0.000069
H75	H	1.345739	0.045295	-0.755025
H76	H	1.250764	-0.037463	-0.000035
H77	H	1.491448	-0.077520	0.180289
H78	H	1.345724	0.045282	-0.566163
