data_functionalizedCrystal
_audit_creation_method	'MofGen! by Chris Wilmer'
_symmetry_space_group_name_H-M	'P1'
_symmetry_Int_Tables_number	1
_symmetry_cell_setting	triclinic
loop_
_symmetry_equiv_pos_as_xyz
  x,y,z
_cell_length_a	10.654548
_cell_length_b	10.654550
_cell_length_c	9.730223
_cell_angle_alpha	90.004253
_cell_angle_beta	90.000020
_cell_angle_gamma	95.515466
loop_
_atom_site_label
_atom_site_type_symbol
_atom_site_fract_x
_atom_site_fract_y
_atom_site_fract_z
O1	O	1.667840	-0.176387	-0.114185
O2	O	1.302362	-0.193196	-0.114211
O3	O	1.493504	-0.002052	-0.114188
O4	O	1.476698	-0.367531	-0.114207
O5	O	1.493492	-0.002047	0.114391
O6	O	1.302349	-0.193190	0.114369
O7	O	1.667828	-0.176382	0.114395
Zn8	Zn	1.485087	-0.184785	0.150674
Zn9	Zn	1.485103	-0.184792	-0.150490
O10	O	1.476686	-0.367525	0.114373
C11	C	1.255557	-0.191959	0.000076
C12	C	1.116114	-0.188268	0.000067
C13	C	1.492264	0.044749	0.000101
C14	C	1.488572	0.184192	0.000098
C15	C	1.714632	-0.177618	0.000105
C16	C	1.854076	-0.181309	0.000106
N17	N	1.485085	-0.184780	0.356211
C18	C	2.050625	-0.186527	0.124676
C19	C	1.919605	-0.183043	0.124697
C20	C	1.919575	-0.183047	-0.124514
C21	C	2.050593	-0.186522	-0.124533
C22	C	1.477926	-0.414326	0.000081
C23	C	1.481618	-0.553769	0.000074
C24	C	1.601114	0.263678	0.000106
C25	C	1.597637	0.394699	0.000089
C26	C	1.369068	0.366734	0.000063
C27	C	1.372545	0.235716	0.000070
N28	N	1.485115	-0.184788	-0.356026
C29	C	1.569752	-0.100177	0.428146
C30	C	1.569764	-0.100178	0.572029
C31	C	1.400439	-0.269394	0.572028
C32	C	1.400421	-0.269387	0.428148
H33	H	1.866289	-0.181625	0.226167
N34	N	1.848906	-0.181161	-0.258897
H35	H	1.755968	-0.178698	-0.239979
H36	H	1.862295	-0.259487	-0.313320
H37	H	2.103917	-0.187936	-0.226011
N38	N	1.726250	0.208102	0.000134
H39	H	1.797016	0.278342	0.000134
H40	H	1.732679	0.154340	-0.084598
N41	N	1.251161	0.149963	0.000062
H42	H	1.200597	0.166639	-0.084678
H43	H	1.200683	0.166691	0.084848
H44	H	1.638688	-0.031284	0.369578
N45	N	1.661101	-0.008946	0.649619
H46	H	1.714734	0.044643	0.582210
H47	H	1.717031	-0.057571	0.709290
N48	N	1.309127	-0.360645	0.649618
H49	H	1.321986	-0.347816	0.751682
H50	H	1.324399	-0.449877	0.624450
N51	N	1.309087	-0.360630	0.350547
H52	H	1.255460	-0.414234	0.417949
H53	H	1.357632	-0.416599	0.290828
H54	H	2.103968	-0.187949	0.226133
H55	H	1.689280	0.459412	0.000092
H56	H	1.274602	0.408702	0.000042
