data_functionalizedCrystal
_audit_creation_method	'MofGen! by Chris Wilmer'
_symmetry_space_group_name_H-M	'P1'
_symmetry_Int_Tables_number	1
_symmetry_cell_setting	triclinic
loop_
_symmetry_equiv_pos_as_xyz
  x,y,z
_cell_length_a	19.288864
_cell_length_b	14.971486
_cell_length_c	13.448316
_cell_angle_alpha	89.998909
_cell_angle_beta	89.979390
_cell_angle_gamma	83.375189
loop_
_atom_site_label
_atom_site_type_symbol
_atom_site_fract_x
_atom_site_fract_y
_atom_site_fract_z
O1	O	0.921714	0.111582	-0.082999
O2	O	0.719503	0.126634	-0.082929
O3	O	0.826028	-0.011122	-0.082973
O4	O	0.815189	0.249337	-0.082955
O5	O	0.826015	-0.011130	0.082410
O6	O	0.719489	0.126625	0.082454
O7	O	0.921701	0.111573	0.082385
Cu8	Cu	0.820594	0.119098	0.097521
Cu9	Cu	0.820610	0.119108	-0.098065
O10	O	0.815175	0.249329	0.082429
C11	C	0.693618	0.126145	-0.000229
C12	C	0.616510	0.124691	-0.000203
N13	N	0.820588	0.119091	0.235085
C14	C	0.825537	-0.044448	-0.000285
C15	C	0.824084	-0.143737	-0.000297
C16	C	0.572077	0.205520	-0.000213
C17	C	0.499625	0.204154	-0.000224
C18	C	0.471610	0.121955	-0.000245
C19	C	0.516052	0.041116	-0.000229
C20	C	0.588502	0.042484	-0.000208
C21	C	0.363142	0.057340	-0.058224
C22	C	0.290693	0.055975	-0.058251
C23	C	0.248150	0.117732	-0.000305
C24	C	0.278064	0.180868	0.057655
C25	C	0.350514	0.182236	0.057676
C26	C	0.393051	0.120462	-0.000267
C27	C	0.125157	0.197085	-0.000326
C28	C	0.052704	0.195715	-0.000331
C29	C	0.069133	0.032675	-0.000346
C30	C	0.141584	0.034046	-0.000332
C31	C	0.169591	0.116254	-0.000326
C32	C	0.947586	0.112062	-0.000318
C33	C	1.024694	0.113516	-0.000350
C34	C	0.815667	0.282655	-0.000261
C35	C	0.817119	0.381944	-0.000256
C36	C	0.754538	0.439508	-0.000236
C37	C	0.755908	0.532800	-0.000250
C38	C	0.819858	0.568526	-0.000277
C39	C	0.882444	0.510955	-0.000301
C40	C	0.881074	0.417665	-0.000294
C41	C	0.885295	0.705402	-0.000312
C42	C	0.886665	0.798699	-0.000317
C43	C	0.760128	0.820537	-0.000268
C44	C	0.758758	0.727247	-0.000261
C45	C	0.821344	0.669682	-0.000283
N46	N	0.820621	0.119109	-0.235629
C47	C	0.867772	0.058118	0.287106
C48	C	0.867776	0.058117	0.391209
C49	C	0.820599	0.119094	0.443289
C50	C	0.773410	0.180070	0.391261
C51	C	0.773403	0.180066	0.287160
C52	C	0.773429	0.180076	0.608241
C53	C	0.773437	0.180082	0.712350
C54	C	0.867803	0.058127	0.712290
C55	C	0.867796	0.058123	0.608189
C56	C	0.820607	0.119100	0.556168
H57	H	0.594875	0.272460	-0.000210
O58	O	0.236764	0.240828	0.114014
C59	C	0.255510	0.229446	0.214934
H60	H	0.311586	0.196158	0.220478
H61	H	0.219104	0.185134	0.252792
C62	C	0.180543	0.362724	0.259735
C63	C	0.249419	0.321845	0.266544
H64	H	0.176783	0.419719	0.291573
H65	H	0.167911	0.370391	0.191744
H66	H	0.150212	0.325788	0.291283
H67	H	0.279747	0.358776	0.234986
H68	H	0.262055	0.314187	0.334531
H69	H	0.374867	0.233641	0.104872
H70	H	0.706684	0.698162	-0.000234
H71	H	0.735020	0.229735	0.754749
H72	H	0.463441	0.269976	-0.000229
H73	H	0.147961	0.264023	-0.000307
H74	H	0.906214	0.008475	0.565785
H75	H	0.016527	0.261539	-0.000333
H76	H	0.934514	0.540051	-0.000321
H77	H	0.936259	0.658535	-0.000338
O78	O	0.404531	-0.002529	-0.114579
C79	C	0.441812	0.044317	-0.183658
H80	H	0.445516	0.115335	-0.155206
H81	H	0.413513	0.047838	-0.258210
C82	C	0.511211	-0.092426	-0.231785
C83	C	0.515765	-0.005203	-0.196836
H84	H	0.556827	-0.122974	-0.239919
H85	H	0.486092	-0.123989	-0.185248
H86	H	0.487625	-0.089480	-0.293908
H87	H	0.539342	-0.008150	-0.134709
H88	H	0.540889	0.026358	-0.243363
H89	H	0.735001	0.229728	0.565889
H90	H	0.046324	-0.034253	-0.000425
O91	O	0.727553	0.239180	0.441961
C92	C	0.684662	0.191419	0.502194
H93	H	0.712271	0.121336	0.517775
H94	H	0.633321	0.185507	0.462112
C95	C	0.635956	0.327977	0.581950
C96	C	0.669869	0.241903	0.601094
H97	H	0.626828	0.359120	0.642955
H98	H	0.664850	0.360157	0.541368
H99	H	0.593176	0.323039	0.548546
H100	H	0.712652	0.246843	0.634486
H101	H	0.640982	0.209726	0.641684
O102	O	0.727544	0.239384	0.236778
C103	C	0.685894	0.293192	0.305065
H104	H	0.714376	0.294115	0.379253
H105	H	0.634277	0.264317	0.316175
C106	C	0.636668	0.388597	0.173318
C107	C	0.671652	0.389736	0.264434
H108	H	0.627879	0.448149	0.148254
H109	H	0.664726	0.352344	0.127310
H110	H	0.593658	0.364530	0.182588
H111	H	0.714665	0.413792	0.255160
H112	H	0.643601	0.425996	0.310439
O113	O	0.184651	-0.044554	-0.000377
C114	C	0.144391	-0.117400	-0.000372
H115	H	0.090350	-0.094477	-0.031695
H116	H	0.139181	-0.142615	0.078966
C117	C	0.246825	-0.222034	-0.026758
C118	C	0.180453	-0.193880	-0.065237
H119	H	0.269071	-0.269212	-0.066765
H120	H	0.273950	-0.172956	-0.026757
H121	H	0.242474	-0.243040	0.039357
H122	H	0.184805	-0.172864	-0.131346
H123	H	0.153330	-0.242956	-0.065250
O124	O	0.488957	-0.038811	-0.000211
C125	C	0.543715	-0.109863	-0.000225
H126	H	0.592939	-0.084992	0.031107
H127	H	0.553979	-0.134777	-0.079568
C128	C	0.462713	-0.217964	0.026131
C129	C	0.523170	-0.187419	0.064622
H130	H	0.450040	-0.265806	0.066128
H131	H	0.425821	-0.170096	0.026137
H132	H	0.471275	-0.238719	-0.039987
H133	H	0.514605	-0.166654	0.130734
H134	H	0.560060	-0.235285	0.064629
O135	O	0.261754	-0.005438	-0.114573
C136	C	0.314835	-0.059647	-0.165719
H137	H	0.366453	-0.058560	-0.124729
H138	H	0.319861	-0.032595	-0.244318
C139	C	0.232906	-0.158211	-0.221129
C140	C	0.296302	-0.156881	-0.170780
H141	H	0.221474	-0.218188	-0.224256
H142	H	0.197143	-0.121687	-0.186675
H143	H	0.237103	-0.135662	-0.286623
H144	H	0.292102	-0.179418	-0.105284
H145	H	0.332064	-0.193411	-0.205224
O146	O	0.913627	-0.001203	0.236673
C147	C	0.955284	-0.055005	0.304917
H148	H	0.926811	-0.055918	0.379143
H149	H	1.006903	-0.026130	0.315953
C150	C	1.004491	-0.150426	0.173124
C151	C	0.969518	-0.151553	0.264287
H152	H	1.013275	-0.209981	0.148061
H153	H	0.976428	-0.114177	0.127146
H154	H	1.047503	-0.126360	0.182333
H155	H	0.926503	-0.175609	0.255075
H156	H	0.997574	-0.187809	0.310263
O157	O	0.913641	-0.000984	0.441856
C158	C	0.956536	0.046789	0.502024
H159	H	0.928924	0.116871	0.517627
H160	H	1.007871	0.052702	0.461874
C161	C	1.005261	-0.089757	0.581743
C162	C	0.971344	-0.003684	0.600914
H163	H	1.014399	-0.120893	0.642741
H164	H	0.976364	-0.121944	0.541204
H165	H	1.048036	-0.084817	0.548282
H166	H	0.928567	-0.008625	0.634363
H167	H	1.000235	0.028501	0.641460
H168	H	0.906225	0.008477	0.754652
O169	O	0.695052	0.588589	-0.000178
C170	C	0.638314	0.537052	-0.000168
H171	H	0.655887	0.467351	0.031139
H172	H	0.618715	0.530484	-0.079500
C173	C	0.557492	0.669388	0.026268
C174	C	0.579074	0.583783	0.064727
H175	H	0.520948	0.698215	0.066293
H176	H	0.595717	0.704111	0.026257
H177	H	0.541164	0.663904	-0.039842
H178	H	0.595410	0.589269	0.130829
H179	H	0.540850	0.549062	0.064750
H180	H	0.624680	-0.023339	-0.000201
H181	H	0.709168	0.867411	-0.000247
H182	H	0.938739	0.827784	-0.000341
H183	H	0.702462	0.410427	-0.000202
H184	H	0.932034	0.370797	-0.000315
