data_functionalizedCrystal
_audit_creation_method	'MofGen! by Chris Wilmer'
_symmetry_space_group_name_H-M	'P1'
_symmetry_Int_Tables_number	1
_symmetry_cell_setting	triclinic
loop_
_symmetry_equiv_pos_as_xyz
  x,y,z
_cell_length_a	12.759401
_cell_length_b	12.759400
_cell_length_c	12.759393
_cell_angle_alpha	90.030490
_cell_angle_beta	90.020938
_cell_angle_gamma	90.016209
loop_
_atom_site_label
_atom_site_type_symbol
_atom_site_fract_x
_atom_site_fract_y
_atom_site_fract_z
Zn1	Zn	1.606266	-0.418173	0.594020
Zn2	Zn	2.106266	0.081827	1.094020
Zn3	Zn	1.606158	-0.593888	0.418340
Zn4	Zn	2.106158	-0.093888	0.918340
Zn5	Zn	1.430565	-0.418229	0.418355
Zn6	Zn	1.930565	0.081771	0.918355
Zn7	Zn	1.430557	-0.593815	0.593978
Zn8	Zn	1.930557	-0.093815	1.093978
O9	O	1.518387	-0.506026	0.506173
O10	O	2.018387	-0.006026	1.006173
O11	O	1.753273	-0.441489	0.570727
O12	O	2.253273	0.058511	1.070727
O13	O	1.582823	-0.570641	0.271321
O14	O	2.082823	-0.070641	0.771321
O15	O	1.453921	-0.271200	0.441682
O16	O	1.953921	0.228800	0.941682
O17	O	1.753193	-0.570587	0.441656
O18	O	2.253193	-0.070587	0.941656
O19	O	1.583008	-0.271159	0.570742
O20	O	2.083008	0.228841	1.070742
O21	O	1.453816	-0.441584	0.271332
O22	O	1.953816	0.058416	0.771332
O23	O	1.283543	-0.441513	0.441640
O24	O	1.783543	0.058487	0.941640
O25	O	1.453908	-0.570461	0.741004
O26	O	1.953908	-0.070461	1.241004
O27	O	1.283537	-0.570516	0.570669
O28	O	1.783537	-0.070516	1.070669
O29	O	1.583000	-0.441418	0.741036
O30	O	2.083000	0.058582	1.241036
O31	O	1.582815	-0.740900	0.441615
O32	O	2.082815	-0.240900	0.941615
O33	O	1.453802	-0.740846	0.570655
O34	O	1.953802	-0.240846	1.070655
C35	C	1.245419	-0.506013	0.506152
C36	C	1.745419	-0.006013	1.006152
C37	C	1.128643	-0.506033	0.506168
C38	C	1.628643	-0.006033	1.006168
C39	C	1.073805	-0.573307	0.573248
C40	C	1.573805	-0.073307	1.073248
C41	C	0.964081	-0.573311	0.573269
C42	C	1.464081	-0.073311	1.073269
C43	C	0.964042	-0.438764	0.439122
C44	C	1.464042	0.061236	0.939122
C45	C	1.073764	-0.438756	0.439107
C46	C	1.573764	0.061244	0.939107
C47	C	1.518324	-0.778994	0.506151
C48	C	2.018324	-0.278994	1.006151
C49	C	1.518394	-0.895770	0.506177
C50	C	2.018394	-0.395770	1.006177
C51	C	1.585645	-0.950625	0.439060
C52	C	2.085645	-0.450625	0.939060
C53	C	1.585710	-1.060349	0.439093
C54	C	2.085710	-0.560349	0.939093
C55	C	1.451262	-1.060353	0.573362
C56	C	1.951262	-0.560353	1.073362
C57	C	1.451204	-0.950631	0.573334
C58	C	1.951204	-0.450631	1.073334
C59	C	1.652835	-0.895764	0.371904
C60	C	2.152835	-0.395764	0.871904
C61	C	1.720091	-0.950619	0.304781
C62	C	2.220091	-0.450619	0.804781
C63	C	1.720156	-1.060343	0.304813
C64	C	2.220156	-0.560343	0.804813
C65	C	1.652964	-1.115212	0.371969
C66	C	2.152964	-0.615212	0.871969
C67	C	1.792420	-0.506040	0.506195
C68	C	2.292420	-0.006040	1.006195
C69	C	1.909197	-0.506046	0.506204
C70	C	2.409197	-0.006046	1.006204
C71	C	1.518465	-0.505925	0.780207
C72	C	2.018465	-0.005925	1.280207
C73	C	1.518499	-0.505882	0.896984
C74	C	2.018499	-0.005882	1.396984
C75	C	1.518478	-0.231993	0.506218
C76	C	2.018478	0.268007	1.006218
C77	C	1.518517	-0.115216	0.506238
C78	C	2.018517	0.384784	1.006238
C79	C	1.518369	-0.506051	0.233206
C80	C	2.018369	-0.006051	0.733206
C81	C	1.518539	-0.505798	0.116430
C82	C	2.018539	-0.005798	0.616430
C83	C	1.585722	-0.438679	0.951864
C84	C	2.085722	0.061321	1.451864
C85	C	1.585740	-0.438633	1.061588
C86	C	2.085740	0.061367	1.561588
C87	C	1.451308	-0.573004	1.061542
C88	C	1.951308	-0.073004	1.561542
C89	C	1.451285	-0.573044	0.951820
C90	C	1.951285	-0.073044	1.451820
H91	H	0.919346	-0.383991	0.384521
H92	H	1.419346	0.116009	0.884521
Br93	Br	1.360098	-0.664151	1.135970
Br94	Br	1.860098	-0.164151	1.635970
H95	H	0.919437	-0.628090	0.627893
H96	H	1.419437	-0.128090	1.127893
Br97	Br	1.359938	-0.876178	0.664427
Br98	Br	1.859938	-0.376178	1.164427
Br99	Br	1.148193	-0.347439	0.348074
Br100	Br	1.648193	0.152561	0.848074
Br101	Br	1.360037	-0.664246	0.877333
Br102	Br	1.860037	-0.164246	1.377333
Br103	Br	1.653075	-0.746854	0.372180
Br104	Br	2.153075	-0.246854	0.872180
Br105	Br	1.676938	-0.347530	0.877445
Br106	Br	2.176938	0.152470	1.377445
H107	H	1.774803	-0.905940	0.250111
H108	H	2.274803	-0.405940	0.750111
Br109	Br	1.652573	-1.264123	0.371530
Br110	Br	2.152573	-0.764123	0.871530
H111	H	1.118484	-0.628086	0.627857
H112	H	1.618484	-0.128086	1.127857
Br113	Br	1.811442	-1.134788	0.213732
Br114	Br	2.311442	-0.634788	0.713732
H115	H	1.640479	-0.383908	1.106266
H116	H	2.140479	0.116092	1.606266
Br117	Br	1.360079	-1.134817	0.664494
Br118	Br	1.860079	-0.634817	1.164494
