data_functionalizedCrystal
_audit_creation_method	'MofGen! by Chris Wilmer'
_symmetry_space_group_name_H-M	'P1'
_symmetry_Int_Tables_number	1
_symmetry_cell_setting	triclinic
loop_
_symmetry_equiv_pos_as_xyz
  x,y,z
_cell_length_a	18.215405
_cell_length_b	21.395364
_cell_length_c	21.395355
_cell_angle_alpha	90.025600
_cell_angle_beta	89.983159
_cell_angle_gamma	89.979767
loop_
_atom_site_label
_atom_site_type_symbol
_atom_site_fract_x
_atom_site_fract_y
_atom_site_fract_z
Zn1	Zn	-0.293119	-0.957894	-0.354286
Zn2	Zn	0.040215	-0.624560	-0.020953
Zn3	Zn	0.373548	-0.291227	0.312380
Zn4	Zn	-0.416167	-0.957811	-0.249512
Zn5	Zn	-0.082834	-0.624478	0.083822
Zn6	Zn	0.250500	-0.291144	0.417155
Zn7	Zn	-0.293113	-0.853109	-0.249521
Zn8	Zn	0.040220	-0.519775	0.083812
Zn9	Zn	0.373553	-0.186442	0.417146
Zn10	Zn	-0.416143	-0.853093	-0.354250
Zn11	Zn	-0.082809	-0.519759	-0.020917
Zn12	Zn	0.250524	-0.186426	0.312417
O13	O	-0.354635	-0.905476	-0.301892
O14	O	-0.021302	-0.572143	0.031441
O15	O	0.312031	-0.238810	0.364774
O16	O	-0.309454	-1.045561	-0.340399
O17	O	0.023880	-0.712227	-0.007066
O18	O	0.357213	-0.378894	0.326268
O19	O	-0.399852	-0.943894	-0.161835
O20	O	-0.066518	-0.610561	0.171498
O21	O	0.266815	-0.277227	0.504832
O22	O	-0.190130	-0.867050	-0.263437
O23	O	0.143204	-0.533717	0.069896
O24	O	0.476537	-0.200384	0.403229
O25	O	-0.399857	-1.045500	-0.263422
O26	O	-0.066523	-0.712166	0.069912
O27	O	0.266810	-0.378833	0.403245
O28	O	-0.190134	-0.944035	-0.340408
O29	O	0.143200	-0.610702	-0.007075
O30	O	0.476533	-0.277369	0.326259
O31	O	-0.309445	-0.866970	-0.161842
O32	O	0.023889	-0.533636	0.171491
O33	O	0.357222	-0.200303	0.504825
O34	O	-0.309421	-0.765429	-0.263402
O35	O	0.023912	-0.432095	0.069931
O36	O	0.357246	-0.098762	0.403264
O37	O	-0.399815	-0.867023	-0.441933
O38	O	-0.066482	-0.533689	-0.108599
O39	O	0.266852	-0.200356	0.224734
O40	O	-0.399810	-0.765417	-0.340346
O41	O	-0.066477	-0.432083	-0.007013
O42	O	0.266857	-0.098750	0.326320
O43	O	-0.309430	-0.944020	-0.441959
O44	O	0.023903	-0.610686	-0.108626
O45	O	0.357237	-0.277353	0.224707
O46	O	-0.519148	-0.943878	-0.263387
O47	O	-0.185815	-0.610545	0.069947
O48	O	0.147519	-0.277212	0.403280
O49	O	-0.519130	-0.866942	-0.340337
O50	O	-0.185797	-0.533609	-0.007004
O51	O	0.147537	-0.200275	0.326329
C52	C	-0.354613	-0.742689	-0.301872
C53	C	-0.021280	-0.409356	0.031462
C54	C	0.312054	-0.076022	0.364795
C55	C	-0.354621	-0.673048	-0.301878
C56	C	-0.021288	-0.339714	0.031456
C57	C	0.312046	-0.006381	0.364789
C58	C	-0.401775	-0.171262	-0.341907
C59	C	-0.068441	0.162072	-0.008574
C60	C	0.264892	0.495405	0.324760
C61	C	-0.401776	-0.236697	-0.341902
C62	C	-0.068442	0.096636	-0.008568
C63	C	0.264891	0.429970	0.324765
C64	C	-0.354641	-0.269409	-0.301902
C65	C	-0.021307	0.063924	0.031431
C66	C	0.312026	0.397257	0.364764
C67	C	-0.307514	-0.236681	-0.261895
C68	C	0.025819	0.096653	0.071439
C69	C	0.359153	0.429986	0.404772
C70	C	-0.307519	-0.171247	-0.261897
C71	C	0.025814	0.162087	0.071436
C72	C	0.359148	0.495420	0.404770
C73	C	-0.288320	-0.373090	-0.297051
C74	C	0.045014	-0.039757	0.036282
C75	C	0.378347	0.293576	0.369616
C76	C	-0.288313	-0.438523	-0.297053
C77	C	0.045020	-0.105190	0.036280
C78	C	0.378353	0.228143	0.369613
C79	C	-0.354625	-0.471230	-0.301892
C80	C	-0.021291	-0.137897	0.031442
C81	C	0.312042	0.195437	0.364775
C82	C	-0.420945	-0.438496	-0.306741
C83	C	-0.087611	-0.105163	0.026592
C84	C	0.245722	0.228171	0.359925
C85	C	-0.420950	-0.373062	-0.306744
C86	C	-0.087617	-0.039728	0.026590
C87	C	0.245717	0.293605	0.359923
C88	C	-0.354630	-0.340362	-0.301895
C89	C	-0.021297	-0.007028	0.031438
C90	C	0.312037	0.326305	0.364771
C91	C	-0.401753	-0.574903	-0.341888
C92	C	-0.068420	-0.241570	-0.008555
C93	C	0.264913	0.091763	0.324779
C94	C	-0.401756	-0.640340	-0.341878
C95	C	-0.068423	-0.307007	-0.008545
C96	C	0.264911	0.026327	0.324789
C97	C	-0.307487	-0.640322	-0.261874
C98	C	0.025846	-0.306989	0.071459
C99	C	0.359179	0.026344	0.404792
C100	C	-0.307491	-0.574887	-0.261881
C101	C	0.025842	-0.241554	0.071452
C102	C	0.359175	0.091780	0.404786
C103	C	-0.354623	-0.542181	-0.301891
C104	C	-0.021290	-0.208848	0.031442
C105	C	0.312043	0.124485	0.364775
C106	C	-0.545842	-0.905416	-0.301871
C107	C	-0.212508	-0.572083	0.031463
C108	C	0.120825	-0.238750	0.364796
C109	C	-0.627640	-0.905448	-0.301882
C110	C	-0.294307	-0.572115	0.031451
C111	C	0.039026	-0.238781	0.364784
C112	C	-0.815775	-0.945553	-0.342015
C113	C	-0.482442	-0.612220	-0.008682
C114	C	-0.149109	-0.278887	0.324651
C115	C	-0.892634	-0.945576	-0.342027
C116	C	-0.559301	-0.612243	-0.008694
C117	C	-0.225967	-0.278909	0.324640
C118	C	-0.892743	-0.865477	-0.261808
C119	C	-0.559410	-0.532144	0.071525
C120	C	-0.226077	-0.198810	0.404858
C121	C	-0.815886	-0.865452	-0.261800
C122	C	-0.482553	-0.532118	0.071533
C123	C	-0.149219	-0.198785	0.404867
C124	C	-0.777404	-0.905493	-0.301903
C125	C	-0.444071	-0.572160	0.031431
C126	C	-0.110737	-0.238827	0.364764
C127	C	-0.931120	-0.905541	-0.301923
C128	C	-0.597787	-0.572208	0.031411
C129	C	-0.264453	-0.238875	0.364744
C130	C	-1.014454	-0.905566	-0.301935
C131	C	-0.681120	-0.572233	0.031398
C132	C	-0.347787	-0.238899	0.364732
C133	C	-0.694065	-0.905468	-0.301891
C134	C	-0.360732	-0.572135	0.031442
C135	C	-0.027398	-0.238802	0.364775
C136	C	-0.162682	-0.905554	-0.301928
C137	C	0.170651	-0.572220	0.031406
C138	C	0.503984	-0.238887	0.364739
C139	C	-0.080883	-0.905587	-0.301943
C140	C	0.252450	-0.572253	0.031391
C141	C	0.585783	-0.238920	0.364724
C142	C	-0.354620	-0.905528	-0.465316
C143	C	-0.021287	-0.572195	-0.131982
C144	C	0.312046	-0.238862	0.201351
C145	C	-0.354614	-0.905551	-0.534957
C146	C	-0.021281	-0.572217	-0.201624
C147	C	0.312053	-0.238884	0.131710
C148	C	-0.354654	-0.068900	-0.301909
C149	C	-0.021321	0.264434	0.031424
C150	C	0.312013	0.597767	0.364757
C151	C	-0.354651	-0.138541	-0.301907
C152	C	-0.021318	0.194792	0.031426
C153	C	0.312016	0.528126	0.364760
C154	C	-0.307549	-0.945641	-0.567685
C155	C	0.025785	-0.612308	-0.234352
C156	C	0.359118	-0.278975	0.098982
C157	C	-0.307517	-0.945640	-0.633120
C158	C	0.025816	-0.612307	-0.299787
C159	C	0.359150	-0.278974	0.033546
C160	C	-0.354564	-0.905556	-0.665825
C161	C	-0.021231	-0.572222	-0.332492
C162	C	0.312103	-0.238889	0.000841
C163	C	-0.401633	-0.865457	-0.633089
C164	C	-0.068299	-0.532124	-0.299756
C165	C	0.265034	-0.198790	0.033577
C166	C	-0.401658	-0.865455	-0.567655
C167	C	-0.068325	-0.532121	-0.234322
C168	C	0.265009	-0.198788	0.099011
C169	C	-0.420828	-0.900587	-0.769492
C170	C	-0.087494	-0.567254	-0.436159
C171	C	0.245839	-0.233921	-0.102826
C172	C	-0.420804	-0.900594	-0.834925
C173	C	-0.087471	-0.567261	-0.501592
C174	C	0.245863	-0.233928	-0.168259
C175	C	-0.354486	-0.905559	-0.867646
C176	C	-0.021153	-0.572226	-0.534313
C177	C	0.312181	-0.238893	-0.200979
C178	C	-0.288190	-0.910531	-0.834926
C179	C	0.045143	-0.577198	-0.501593
C180	C	0.378476	-0.243864	-0.168259
C181	C	-0.288215	-0.910528	-0.769492
C182	C	0.045118	-0.577195	-0.436158
C183	C	0.378451	-0.243862	-0.102825
C184	C	-0.354542	-0.905553	-0.736778
C185	C	-0.021208	-0.572220	-0.403444
C186	C	0.312125	-0.238887	-0.070111
C187	C	-0.307382	-0.945651	-0.971327
C188	C	0.025951	-0.612318	-0.637993
C189	C	0.359284	-0.278985	-0.304660
C190	C	-0.307349	-0.945646	-1.036763
C191	C	0.025984	-0.612313	-0.703430
C192	C	0.359317	-0.278979	-0.370097
C193	C	-0.401472	-0.865466	-1.036731
C194	C	-0.068139	-0.532133	-0.703398
C195	C	0.265195	-0.198799	-0.370065
C196	C	-0.401498	-0.865468	-0.971296
C197	C	-0.068165	-0.532135	-0.637962
C198	C	0.265168	-0.198801	-0.304629
C199	C	-0.354454	-0.905564	-0.938597
C200	C	-0.021121	-0.572231	-0.605264
C201	C	0.312212	-0.238897	-0.271931
C202	C	-0.354597	-0.905461	-0.139105
C203	C	-0.021264	-0.572127	0.194229
C204	C	0.312070	-0.238794	0.527562
C205	C	-0.354396	-0.905560	-0.069464
C206	C	-0.021063	-0.572227	0.263870
C207	C	0.312271	-0.238893	0.597203
H208	H	-0.269116	-0.548245	-0.229311
H209	H	0.064217	-0.214912	0.104023
H210	H	0.397551	0.118421	0.437356
H211	H	-0.474941	-0.465124	-0.310686
H212	H	-0.141608	-0.131791	0.022647
H213	H	0.191725	0.201542	0.355981
H214	H	-0.923873	-0.978195	-0.374692
H215	H	-0.590539	-0.644862	-0.041359
H216	H	-0.257206	-0.311529	0.291975
Br217	Br	-0.944973	-0.811135	-0.207388
Br218	Br	-0.611640	-0.477802	0.125945
Br219	Br	-0.278307	-0.144469	0.459279
Br220	Br	-0.198318	-0.328709	-0.290474
Br221	Br	0.135015	0.004624	0.042860
Br222	Br	0.468348	0.337958	0.376193
Br223	Br	-0.243537	-1.000064	-0.926947
Br224	Br	0.089797	-0.666730	-0.593613
Br225	Br	0.423130	-0.333397	-0.260280
Br226	Br	-0.465478	-0.811051	-0.677473
Br227	Br	-0.132145	-0.477718	-0.344139
Br228	Br	0.201189	-0.144385	-0.010806
H229	H	-0.474786	-0.896550	-0.861561
H230	H	-0.141453	-0.563217	-0.528228
H231	H	0.191881	-0.229883	-0.194895
Br232	Br	-0.465314	-0.811056	-1.081109
Br233	Br	-0.131980	-0.477723	-0.747776
Br234	Br	0.201353	-0.144389	-0.414443
H235	H	-0.269111	-0.666956	-0.229304
H236	H	0.064222	-0.333623	0.104029
H237	H	0.397555	-0.000289	0.437362
H238	H	-0.784642	-0.832827	-0.229135
H239	H	-0.451308	-0.499494	0.104198
H240	H	-0.117975	-0.166160	0.437531
Br241	Br	-0.510951	-0.328638	-0.313323
Br242	Br	-0.177617	0.004695	0.020011
Br243	Br	0.155716	0.338028	0.353344
H244	H	-0.234188	-0.914575	-0.861566
H245	H	0.099145	-0.581242	-0.528232
H246	H	0.432479	-0.247908	-0.194899
H247	H	-0.234311	-0.465170	-0.293112
H248	H	0.099022	-0.131837	0.040222
H249	H	0.432356	0.201496	0.373555
H250	H	-0.234235	-0.914575	-0.742854
H251	H	0.099098	-0.581241	-0.409520
H252	H	0.432432	-0.247908	-0.076187
H253	H	-0.440135	-0.666980	-0.374449
H254	H	-0.106801	-0.333647	-0.041116
H255	H	0.226532	-0.000313	0.292217
H256	H	-0.269137	-0.263319	-0.229326
H257	H	0.064196	0.070014	0.104007
H258	H	0.397530	0.403347	0.437341
Br259	Br	-0.465734	-0.281114	-0.396191
Br260	Br	-0.132401	0.052220	-0.062857
Br261	Br	0.200933	0.385553	0.270476
Br262	Br	-0.763552	-0.999894	-0.396441
Br263	Br	-0.430219	-0.666561	-0.063108
Br264	Br	-0.096885	-0.333227	0.270226
Br265	Br	-0.243561	-0.126837	-0.207607
Br266	Br	0.089773	0.206497	0.125727
Br267	Br	0.423106	0.539830	0.459060
Br268	Br	-0.243701	-1.000054	-0.523311
Br269	Br	0.089632	-0.666721	-0.189978
Br270	Br	0.422966	-0.333388	0.143355
Br271	Br	-0.243480	-1.000069	-1.081182
Br272	Br	0.089853	-0.666736	-0.747848
Br273	Br	0.423187	-0.333403	-0.414515
H274	H	-0.474818	-0.896377	-0.742857
H275	H	-0.141484	-0.563043	-0.409523
H276	H	0.191849	-0.229710	-0.076190
Br277	Br	-0.465378	-0.811057	-0.926876
Br278	Br	-0.132045	-0.477724	-0.593543
Br279	Br	0.201289	-0.144391	-0.260209
Br280	Br	-0.465536	-0.811041	-0.523235
Br281	Br	-0.132203	-0.477707	-0.189902
Br282	Br	0.201130	-0.144374	0.143431
Br283	Br	-0.465742	-0.126878	-0.396203
Br284	Br	-0.132409	0.206455	-0.062870
Br285	Br	0.200924	0.539788	0.270463
Br286	Br	-0.465719	-0.530513	-0.396184
Br287	Br	-0.132385	-0.197180	-0.062851
Br288	Br	0.200948	0.136153	0.270483
H289	H	-0.269186	-0.978286	-0.659773
H290	H	0.064147	-0.644952	-0.326439
H291	H	0.397480	-0.311619	0.006894
