data_functionalizedCrystal
_audit_creation_method	'MofGen! by Chris Wilmer'
_symmetry_space_group_name_H-M	'P1'
_symmetry_Int_Tables_number	1
_symmetry_cell_setting	triclinic
loop_
_symmetry_equiv_pos_as_xyz
  x,y,z
_cell_length_a	19.188900
_cell_length_b	23.532407
_cell_length_c	17.666332
_cell_angle_alpha	89.988854
_cell_angle_beta	90.017738
_cell_angle_gamma	97.009417
loop_
_atom_site_label
_atom_site_type_symbol
_atom_site_fract_x
_atom_site_fract_y
_atom_site_fract_z
O1	O	-0.925936	0.071020	-0.063103
O2	O	-0.425936	0.571020	0.436897
O3	O	-0.722591	0.080610	-0.063073
O4	O	-0.222591	0.580610	0.436927
O5	O	-0.830396	-0.007104	-0.063075
O6	O	-0.330396	0.492896	0.436925
O7	O	-0.818132	0.158734	-0.063101
O8	O	-0.318132	0.658734	0.436899
O9	O	-0.830377	-0.007109	0.062822
O10	O	-0.330377	0.492891	0.562822
O11	O	-0.722573	0.080605	0.062824
O12	O	-0.222573	0.580605	0.562824
O13	O	-0.925918	0.071016	0.062794
O14	O	-0.425918	0.571016	0.562794
Cu15	Cu	-0.824243	0.075810	0.074304
Cu16	Cu	-0.324243	0.575810	0.574304
Cu17	Cu	-0.824266	0.075816	-0.074583
Cu18	Cu	-0.324266	0.575816	0.425417
O19	O	-0.818113	0.158730	0.062796
O20	O	-0.318113	0.658730	0.562796
C21	C	-0.696572	0.080300	-0.000121
C22	C	-0.196572	0.580300	0.499879
C23	C	-0.619069	0.079376	-0.000109
C24	C	-0.119069	0.579376	0.499891
C25	C	-0.582689	0.078935	-0.068736
C26	C	-0.082689	0.578935	0.431264
C27	C	-0.509868	0.078061	-0.068744
C28	C	-0.009868	0.578061	0.431256
C29	C	-0.473432	0.077616	-0.000120
C30	C	0.026568	0.577616	0.499880
C31	C	-0.509820	0.078061	0.068516
C32	C	-0.009820	0.578061	0.568516
C33	C	-0.582639	0.078941	0.068522
C34	C	-0.082639	0.578941	0.568522
N35	N	-0.364511	0.043824	0.050957
N36	N	0.135489	0.543824	0.550957
N37	N	-0.295337	0.042986	0.050947
N38	N	0.204663	0.542986	0.550947
C39	C	-0.254033	0.074967	-0.000133
C40	C	0.245967	0.574967	0.499867
N41	N	-0.284518	0.107808	-0.051214
N42	N	0.215482	0.607808	0.448786
N43	N	-0.353699	0.108643	-0.051206
N44	N	0.146301	0.608643	0.448794
C45	C	-0.394472	0.076663	-0.000118
C46	C	0.105528	0.576663	0.499882
C47	C	-0.138692	0.073578	-0.068773
C48	C	0.361308	0.573578	0.431227
C49	C	-0.065869	0.072708	-0.068778
C50	C	0.434131	0.572708	0.431222
C51	C	-0.065823	0.072702	0.068485
C52	C	0.434177	0.572702	0.568485
C53	C	-0.138644	0.073578	0.068487
C54	C	0.361356	0.573578	0.568487
C55	C	-0.175074	0.074014	-0.000144
C56	C	0.324926	0.574014	0.499856
C57	C	-0.830074	-0.028323	-0.000125
C58	C	-0.330074	0.471677	0.499875
C59	C	-0.829135	-0.091542	-0.000119
C60	C	-0.329135	0.408458	0.499881
C61	C	-0.887042	-0.490527	-0.000169
C62	C	-0.387042	0.009473	0.499831
C63	C	-0.886170	-0.549929	-0.000174
C64	C	-0.386170	-0.049929	0.499826
O65	O	-0.939851	-0.586565	-0.000210
O66	O	-0.439851	-0.086565	0.499790
N67	N	-0.822080	-0.572686	-0.000164
N68	N	-0.322080	-0.072686	0.499836
C69	C	-0.758859	-0.536037	-0.000156
C70	C	-0.258859	-0.036037	0.499844
O71	O	-0.704266	-0.560848	-0.000149
O72	O	-0.204266	-0.060848	0.499851
C73	C	-0.759732	-0.476636	-0.000156
C74	C	-0.259732	0.023364	0.499844
C75	C	-0.823826	-0.453883	-0.000159
C76	C	-0.323826	0.046117	0.499841
C77	C	-0.951131	-0.467774	-0.000172
C78	C	-0.451131	0.032226	0.499828
C79	C	-0.952003	-0.408376	-0.000165
C80	C	-0.452003	0.091624	0.499835
C81	C	-0.888786	-0.371731	-0.000155
C82	C	-0.388786	0.128269	0.499845
C83	C	-0.824698	-0.394485	-0.000151
C84	C	-0.324698	0.105515	0.499849
C85	C	-0.696511	-0.439988	-0.000154
C86	C	-0.196511	0.060012	0.499846
C87	C	-0.697390	-0.380584	-0.000154
C88	C	-0.197390	0.119416	0.499846
C89	C	-0.761483	-0.357831	-0.000156
C90	C	-0.261483	0.142169	0.499844
C91	C	-0.762353	-0.298443	-0.000134
C92	C	-0.262353	0.201557	0.499866
N93	N	-0.826443	-0.275686	-0.000144
N94	N	-0.326443	0.224314	0.499856
C95	C	-0.889659	-0.312331	-0.000154
C96	C	-0.389659	0.187669	0.499846
C97	C	-0.757031	-0.660783	-0.000158
C98	C	-0.257031	-0.160783	0.499842
C99	C	-0.756157	-0.720183	-0.000153
C100	C	-0.256157	-0.220183	0.499847
C101	C	-0.883468	-0.734071	-0.000172
C102	C	-0.383468	-0.234071	0.499828
C103	C	-0.884341	-0.674670	-0.000172
C104	C	-0.384341	-0.174670	0.499828
C105	C	-0.821120	-0.638027	-0.000168
C106	C	-0.321120	-0.138027	0.499832
C107	C	-0.891485	-0.187590	-0.000139
C108	C	-0.391485	0.312410	0.499861
C109	C	-0.892352	-0.128186	-0.000129
C110	C	-0.392352	0.371814	0.499871
C111	C	-0.765041	-0.114303	-0.000114
C112	C	-0.265041	0.385697	0.499886
C113	C	-0.764174	-0.173702	-0.000120
C114	C	-0.264174	0.326298	0.499880
C115	C	-0.827402	-0.210344	-0.000135
C116	C	-0.327402	0.289656	0.499865
O117	O	-0.708701	-0.261773	-0.000102
O118	O	-0.208701	0.238227	0.499898
O119	O	-0.944243	-0.287512	-0.000171
O120	O	-0.444243	0.212488	0.499829
C121	C	0.048063	0.071330	-0.000154
C122	C	0.548063	0.571330	0.499846
C123	C	-0.029438	0.072264	-0.000153
C124	C	0.470562	0.572264	0.499847
C125	C	-0.818435	0.179949	-0.000156
C126	C	-0.318435	0.679949	0.499844
C127	C	-0.819374	0.243168	-0.000167
C128	C	-0.319374	0.743168	0.499833
N129	N	-0.824233	0.075806	0.179024
N130	N	-0.324233	0.575806	0.679024
N131	N	-0.824282	0.075815	-0.179303
N132	N	-0.324282	0.575815	0.320697
C133	C	-0.871984	0.036985	0.218633
C134	C	-0.371984	0.536985	0.718633
C135	C	-0.871988	0.036982	0.297880
C136	C	-0.371988	0.536982	0.797880
C137	C	-0.824248	0.075810	0.337516
C138	C	-0.324248	0.575810	0.837516
C139	C	-0.776488	0.114634	0.297897
C140	C	-0.276488	0.614634	0.797897
C141	C	-0.776480	0.114632	0.218651
C142	C	-0.276480	0.614632	0.718651
N143	N	-0.815010	0.126226	0.461927
N144	N	-0.315010	0.626226	0.961927
N145	N	-0.815022	0.126226	0.537208
N146	N	-0.315022	0.626226	1.037208
C147	C	-0.824266	0.075818	0.576280
C148	C	-0.324266	0.575818	1.076280
N149	N	-0.833513	0.025408	0.537227
N150	N	-0.333513	0.525408	1.037227
N151	N	-0.833505	0.025408	0.461940
N152	N	-0.333505	0.525408	0.961940
C153	C	-0.824250	0.075817	0.423445
C154	C	-0.324250	0.575817	0.923445
C155	C	-0.872024	0.036991	0.701818
C156	C	-0.372024	0.536991	1.201818
C157	C	-0.872023	0.036988	0.781067
C158	C	-0.372023	0.536988	1.281067
C159	C	-0.776526	0.114644	0.781083
C160	C	-0.276526	0.614644	1.281083
C161	C	-0.776524	0.114643	0.701835
C162	C	-0.276524	0.614643	1.201835
C163	C	-0.824276	0.075817	0.662208
C164	C	-0.324276	0.575817	1.162208
H165	H	-0.944547	-0.109664	-0.000129
H166	H	-0.444547	0.390336	0.499871
H167	H	-0.480241	0.077703	-0.124630
H168	H	0.019759	0.577703	0.375370
Cl169	Cl	-0.716446	0.163440	0.168854
Cl170	Cl	-0.216446	0.663440	0.668854
H171	H	-0.737643	0.146257	0.669583
H172	H	-0.237643	0.646257	1.169583
H173	H	-0.910865	0.005369	0.186370
H174	H	-0.410865	0.505369	0.686370
Cl175	Cl	-0.932024	-0.011825	0.347683
Cl176	Cl	-0.432024	0.488175	0.847683
Cl177	Cl	-0.020024	0.072149	0.154756
Cl178	Cl	0.479976	0.572149	0.654756
H179	H	-0.612259	0.079300	0.124408
H180	H	-0.112259	0.579300	0.624408
H181	H	-0.612346	0.079290	-0.124621
H182	H	-0.112346	0.579290	0.375379
H183	H	-0.910905	0.005375	0.669552
H184	H	-0.410905	0.505375	1.169552
H185	H	-0.703965	-0.738703	-0.000138
H186	H	-0.203965	-0.238703	0.499862
H187	H	-0.168266	0.073934	0.124371
H188	H	0.331734	0.573934	0.624371
H189	H	-0.942972	-0.217418	-0.000154
H190	H	-0.442972	0.282582	0.499846
H191	H	-0.036249	0.072352	-0.124664
H192	H	0.463751	0.572352	0.375336
Cl193	Cl	-1.032582	-0.379781	-0.000189
Cl194	Cl	-0.532582	0.120219	0.499811
H195	H	-0.713572	-0.084457	-0.000103
H196	H	-0.213572	0.415543	0.499897
H197	H	-0.480149	0.077700	0.124390
H198	H	0.019851	0.577700	0.624390
Cl199	Cl	-0.932054	-0.011823	0.830864
Cl200	Cl	-0.432054	0.488177	1.330864
Cl201	Cl	-0.617906	-0.334521	-0.000150
Cl202	Cl	-0.117906	0.165479	0.499850
H203	H	-0.168354	0.073939	-0.124656
H204	H	0.331646	0.573939	0.375344
H205	H	-0.737616	0.146247	0.330173
H206	H	-0.237616	0.646247	0.830173
H207	H	-0.737653	0.146256	0.813353
H208	H	-0.237653	0.646256	1.313353
H209	H	-0.711984	-0.192228	-0.000097
H210	H	-0.211984	0.307772	0.499903
Cl211	Cl	-0.964919	-0.646073	-0.000176
Cl212	Cl	-0.464919	-0.146073	0.499824
Cl213	Cl	-1.030615	-0.513831	-0.000183
Cl214	Cl	-0.530615	-0.013831	0.499817
Cl215	Cl	-0.962941	-0.780149	-0.000190
Cl216	Cl	-0.462941	-0.280149	0.499810
Cl217	Cl	-0.615931	-0.468577	-0.000156
Cl218	Cl	-0.115931	0.031423	0.499844
Cl219	Cl	-0.677544	-0.614722	-0.000145
Cl220	Cl	-0.177544	-0.114722	0.499855
