data_functionalizedCrystal
_audit_creation_method	'MofGen! by Chris Wilmer'
_symmetry_space_group_name_H-M	'P1'
_symmetry_Int_Tables_number	1
_symmetry_cell_setting	triclinic
loop_
_symmetry_equiv_pos_as_xyz
  x,y,z
_cell_length_a	13.033286
_cell_length_b	21.295417
_cell_length_c	13.032268
_cell_angle_alpha	82.858212
_cell_angle_beta	74.836591
_cell_angle_gamma	82.860374
loop_
_atom_site_label
_atom_site_type_symbol
_atom_site_fract_x
_atom_site_fract_y
_atom_site_fract_z
Zn1	Zn	1.547332	-0.398975	0.393858
Zn2	Zn	2.047332	0.101025	0.893858
Zn3	Zn	1.569755	-0.492381	0.216251
Zn4	Zn	2.069755	0.007619	0.716251
Zn5	Zn	1.392290	-0.375297	0.238870
Zn6	Zn	1.892290	0.124703	0.738870
Zn7	Zn	1.369669	-0.492357	0.416405
Zn8	Zn	1.869669	0.007643	0.916405
O9	O	1.469762	-0.439753	0.316346
O10	O	1.969762	0.060247	0.816346
O11	O	1.698929	-0.421285	0.351395
O12	O	2.198929	0.078715	0.851395
O13	O	1.565065	-0.466951	0.070623
O14	O	2.065065	0.033049	0.570623
O15	O	1.412940	-0.290357	0.259459
O16	O	1.912940	0.209643	0.759459
O17	O	1.715402	-0.489910	0.220908
O18	O	2.215402	0.010090	0.720908
O19	O	1.526849	-0.307753	0.373328
O20	O	2.026849	0.192247	0.873328
O21	O	1.434682	-0.380930	0.087241
O22	O	1.934682	0.119070	0.587241
O23	O	1.240668	-0.380906	0.281322
O24	O	1.740668	0.119094	0.781322
O25	O	1.374386	-0.489868	0.562042
O26	O	1.874386	0.010132	1.062042
O27	O	1.224048	-0.466909	0.411756
O28	O	1.724048	0.033091	0.911756
O29	O	1.504914	-0.421261	0.545476
O30	O	2.004914	0.078739	1.045476
O31	O	1.543130	-0.580459	0.242771
O32	O	2.043130	-0.080459	0.742771
O33	O	1.396128	-0.580441	0.389824
O34	O	1.896128	-0.080441	0.889824
C35	C	1.193822	-0.421336	0.351441
C36	C	1.693822	0.078664	0.851441
C37	C	1.075770	-0.413474	0.366480
C38	C	1.575770	0.086526	0.866480
C39	C	1.031303	-0.443858	0.308523
C40	C	1.531303	0.056142	0.808523
C41	C	0.909291	-0.435733	0.324065
C42	C	1.409291	0.064267	0.824065
C43	C	1.469633	-0.603292	0.316309
C44	C	1.969633	-0.103292	0.816309
C45	C	1.469671	-0.673263	0.316317
C46	C	1.969671	-0.173263	0.816317
C47	C	1.528938	-0.715131	0.375662
C48	C	2.028938	-0.215131	0.875662
C49	C	1.528972	-0.780878	0.375683
C50	C	2.028972	-0.280878	0.875683
C51	C	1.469753	-0.804754	0.316339
C52	C	1.969753	-0.304754	0.816339
C53	C	1.410473	-0.762876	0.256991
C54	C	1.910473	-0.262876	0.756991
C55	C	1.410432	-0.697131	0.256980
C56	C	1.910432	-0.197131	0.756980
N57	N	1.473542	-0.901277	0.224406
N58	N	1.973542	-0.401277	0.724406
N59	N	1.473586	-0.963733	0.224419
N60	N	1.973586	-0.463733	0.724419
C61	C	1.469871	-1.002840	0.316371
C62	C	1.969871	-0.502840	0.816371
N63	N	1.466129	-0.977133	0.408310
N64	N	1.966129	-0.477133	0.908310
N65	N	1.466090	-0.914671	0.408295
N66	N	1.966090	-0.414671	0.908295
C67	C	1.469790	-0.876042	0.316345
C68	C	1.969790	-0.376042	0.816345
C69	C	1.529178	-1.115999	0.375745
C70	C	2.029178	-0.615999	0.875745
C71	C	1.529204	-1.181746	0.375769
C72	C	2.029204	-0.681746	0.875769
C73	C	1.410712	-1.163743	0.257067
C74	C	1.910712	-0.663743	0.757067
C75	C	1.410679	-1.097997	0.257053
C76	C	1.910679	-0.597997	0.757053
C77	C	1.469917	-1.074129	0.316390
C78	C	1.969917	-0.574129	0.816390
C79	C	1.746779	-0.458242	0.281114
C80	C	2.246779	0.041758	0.781114
C81	C	1.864827	-0.466120	0.266100
C82	C	2.364827	0.033880	0.766100
C83	C	1.434625	-0.458203	0.593374
C84	C	1.934625	0.041797	1.093374
C85	C	1.419652	-0.466066	0.711427
C86	C	1.919652	0.033934	1.211427
C87	C	1.469917	-0.275578	0.316402
C88	C	1.969917	0.224422	0.816402
C89	C	1.469983	-0.205617	0.316426
C90	C	1.969983	0.294383	0.816426
C91	C	1.504822	-0.421333	0.040387
C92	C	2.004822	0.078667	0.540387
C93	C	1.520001	-0.413306	-0.077692
C94	C	2.020001	0.086694	0.422308
C95	C	1.477560	-0.435625	0.755863
C96	C	1.977560	0.064375	1.255863
C97	C	1.462086	-0.443751	0.877877
C98	C	1.962086	0.056249	1.377877
H99	H	1.577171	-0.695700	0.423980
H100	H	2.077171	-0.195700	0.923980
Cl101	Cl	1.614254	-0.363788	0.841594
Cl102	Cl	2.114254	0.136212	1.341594
Cl103	Cl	1.603493	-0.833522	0.450286
Cl104	Cl	2.103493	-0.333522	0.950286
Cl105	Cl	1.571766	-0.386082	0.675147
Cl106	Cl	2.071766	0.113918	1.175147
H107	H	1.083562	-0.475887	0.247401
H108	H	1.583562	0.024113	0.747401
H109	H	0.917081	-0.498156	0.204978
H110	H	1.417081	0.001844	0.704978
Cl111	Cl	1.325414	-0.515587	0.792147
Cl112	Cl	1.825414	-0.015587	1.292147
Cl113	Cl	1.336167	-1.045360	0.182443
Cl114	Cl	1.836167	-0.545360	0.682443
Cl115	Cl	1.336018	-0.792890	0.182395
Cl116	Cl	1.836018	-0.292890	0.682395
H117	H	1.362169	-0.663040	0.208653
H118	H	1.862169	-0.163040	0.708653
H119	H	0.857035	-0.403705	0.385199
H120	H	1.357035	0.096295	0.885199
Cl121	Cl	1.367843	-0.493275	0.958593
Cl122	Cl	1.867843	0.006725	1.458593
H123	H	1.023511	-0.381449	0.427610
H124	H	1.523511	0.118551	0.927610
H125	H	1.577410	-1.096565	0.424064
H126	H	2.077410	-0.596565	0.924064
Cl127	Cl	1.603704	-1.234382	0.450396
Cl128	Cl	2.103704	-0.734382	0.950396
Cl129	Cl	1.336260	-1.193752	0.182465
Cl130	Cl	1.836260	-0.693752	0.682465
