data_functionalizedCrystal
_audit_creation_method	'MofGen! by Chris Wilmer'
_symmetry_space_group_name_H-M	'P1'
_symmetry_Int_Tables_number	1
_symmetry_cell_setting	triclinic
loop_
_symmetry_equiv_pos_as_xyz
  x,y,z
_cell_length_a	18.266242
_cell_length_b	15.995350
_cell_length_c	15.995292
_cell_angle_alpha	96.519505
_cell_angle_beta	90.003154
_cell_angle_gamma	89.994611
loop_
_atom_site_label
_atom_site_type_symbol
_atom_site_fract_x
_atom_site_fract_y
_atom_site_fract_z
O1	O	0.060814	-1.110968	0.107931
O2	O	0.060828	-0.867190	0.121259
O3	O	0.060822	-0.995769	-0.007296
O4	O	0.060820	-0.982390	0.236486
O5	O	-0.060940	-0.995747	-0.007303
O6	O	-0.060934	-0.867169	0.121252
O7	O	-0.060948	-1.110947	0.107924
Zn8	Zn	-0.080273	-0.989054	0.114587
Zn9	Zn	0.080153	-0.989083	0.114596
O10	O	-0.060942	-0.982368	0.236479
C11	C	-0.000051	-0.835985	0.120704
C12	C	-0.000045	-0.743035	0.119053
N13	N	-0.189760	-0.989041	0.114581
C14	C	-0.000058	-0.995213	-0.038495
C15	C	-0.000052	-0.993581	-0.131448
C16	C	-0.228072	-1.045994	0.057684
C17	C	-0.304717	-1.045999	0.057681
C18	C	-0.343047	-0.989059	0.114587
C19	C	-0.304726	-0.932095	0.171488
C20	C	-0.228083	-0.932086	0.171484
N21	N	-0.463380	-0.978386	0.188678
N22	N	-0.536188	-0.978400	0.188678
C23	C	-0.573970	-0.989083	0.114599
N24	N	-0.536193	-0.999767	0.040518
N25	N	-0.463378	-0.999758	0.040518
C26	C	-0.426154	-0.989063	0.114597
C27	C	-0.695389	-1.046045	0.057694
C28	C	-0.772035	-1.046044	0.057689
C29	C	-0.772043	-0.932145	0.171504
C30	C	-0.695398	-0.932141	0.171502
C31	C	-0.657075	-0.989096	0.114598
N32	N	0.189640	-0.989103	0.114596
C33	C	-0.000068	-1.142152	0.108479
C34	C	-0.000069	-1.235102	0.110130
C35	C	-0.000060	-0.405288	0.113120
C36	C	-0.000332	-0.452742	0.021566
C37	C	-0.000052	-0.549431	0.023218
C38	C	-0.000053	-0.572848	0.116063
C39	C	0.069476	-0.531764	0.161224
C40	C	0.069529	-0.435129	0.158924
C41	C	-0.068938	-0.434765	0.160808
C42	C	-0.069851	-0.531710	0.160787
C43	C	-0.000047	-0.667546	0.117731
C44	C	-0.000062	-0.310591	0.111455
C45	C	-0.000058	-0.987580	-0.469186
C46	C	-0.000336	-1.080384	-0.445874
C47	C	-0.000059	-1.082148	-0.349199
C48	C	-0.000056	-0.990557	-0.301631
C49	C	0.069477	-0.944172	-0.330728
C50	C	0.069533	-0.943055	-0.427518
C51	C	-0.068933	-0.941135	-0.427383
C52	C	-0.069850	-0.944574	-0.330890
C53	C	-0.000052	-0.992235	-0.206934
C54	C	-0.000057	-0.985899	-0.563882
C55	C	-0.000061	-0.982924	0.267678
C56	C	-0.000062	-0.984556	0.360631
H57	H	-0.196872	-1.092367	0.011348
Br58	Br	0.082311	-0.420107	-0.039155
H59	H	-0.664185	-1.092418	0.011357
Br60	Br	0.073804	-0.555308	0.274906
Br61	Br	-0.155584	-0.577118	0.105744
H62	H	0.121221	-0.560154	0.129863
Br63	Br	0.155722	-0.997888	-0.297294
Br64	Br	-0.156778	-0.400538	0.110914
H65	H	-0.803229	-1.092420	0.011353
Br66	Br	0.083311	-0.595863	-0.036074
Br67	Br	-0.643397	-0.854847	0.248724
H68	H	-0.074047	-0.877721	-0.297921
Br69	Br	-0.076854	-0.557287	0.273638
H70	H	-0.069409	-0.402989	0.228311
Br71	Br	-0.824056	-0.854860	0.248726
Br72	Br	-0.083124	-0.596817	-0.035950
Br73	Br	-0.083147	-1.142673	-0.317485
Br74	Br	-0.083440	-0.421865	-0.039438
H75	H	0.121504	-0.416837	0.125996
H76	H	0.072683	-0.402867	0.226142
H77	H	-0.050201	-1.116146	-0.473874
H78	H	-0.335939	-0.885733	0.217821
H79	H	0.049245	-1.115965	-0.474889
Br80	Br	0.083157	-1.143083	-0.318510
Br81	Br	-0.356721	-1.123298	-0.019543
H82	H	-0.196889	-0.885707	0.217817
Br83	Br	0.156157	-0.996632	-0.472215
H84	H	0.072685	-0.875011	-0.442068
Br85	Br	0.073797	-0.831837	-0.277612
H86	H	-0.121639	-0.970352	-0.455474
H87	H	-0.121289	-0.978349	-0.312328
Br88	Br	-0.069712	-0.827279	-0.450700
