data_functionalizedCrystal
_audit_creation_method	'MofGen! by Chris Wilmer'
_symmetry_space_group_name_H-M	'P1'
_symmetry_Int_Tables_number	1
_symmetry_cell_setting	triclinic
loop_
_symmetry_equiv_pos_as_xyz
  x,y,z
_cell_length_a	18.215407
_cell_length_b	21.295417
_cell_length_c	18.215407
_cell_angle_alpha	90.015372
_cell_angle_beta	90.010236
_cell_angle_gamma	90.030150
loop_
_atom_site_label
_atom_site_type_symbol
_atom_site_fract_x
_atom_site_fract_y
_atom_site_fract_z
Zn1	Zn	1.124978	-0.250706	0.416099
Zn2	Zn	1.624978	0.249294	0.916099
Zn3	Zn	1.124896	-0.355948	0.293026
Zn4	Zn	1.624896	0.144052	0.793026
Zn5	Zn	1.001931	-0.250698	0.293047
Zn6	Zn	1.501931	0.249302	0.793047
Zn7	Zn	1.001866	-0.355942	0.416051
Zn8	Zn	1.501866	0.144058	0.916051
O9	O	1.063418	-0.303323	0.354556
O10	O	1.563418	0.196677	0.854556
O11	O	1.227951	-0.264673	0.399785
O12	O	1.727951	0.235327	0.899785
O13	O	1.108578	-0.341986	0.190045
O14	O	1.608578	0.158014	0.690045
O15	O	1.018314	-0.162609	0.309399
O16	O	1.518314	0.337391	0.809399
O17	O	1.227891	-0.341994	0.309364
O18	O	1.727891	0.158006	0.809364
O19	O	1.108716	-0.162615	0.399805
O20	O	1.608716	0.337385	0.899805
O21	O	1.018236	-0.264658	0.190060
O22	O	1.518236	0.235342	0.690060
O23	O	0.898938	-0.264652	0.309352
O24	O	1.398938	0.235348	0.809352
O25	O	1.018204	-0.341983	0.519042
O26	O	1.518204	0.158017	1.019042
O27	O	0.898890	-0.341975	0.399723
O28	O	1.398890	0.158025	0.899723
O29	O	1.108653	-0.264667	0.519077
O30	O	1.608653	0.235333	1.019077
O31	O	1.108515	-0.444037	0.309317
O32	O	1.608515	0.055963	0.809317
O33	O	1.018125	-0.444032	0.399703
O34	O	1.518125	0.055968	0.899703
C35	C	0.872211	-0.303313	0.354535
C36	C	1.372211	0.196687	0.854535
C37	C	0.790412	-0.303323	0.354543
C38	C	1.290412	0.196677	0.854543
C39	C	0.602213	-0.343648	0.401540
C40	C	1.102213	0.156352	0.901540
C41	C	0.525354	-0.343650	0.401550
C42	C	1.025354	0.156350	0.901550
C43	C	0.525374	-0.263010	0.307588
C44	C	1.025374	0.236990	0.807588
C45	C	0.602232	-0.263005	0.307583
C46	C	1.102232	0.236995	0.807583
C47	C	0.640649	-0.303328	0.354558
C48	C	1.140649	0.196672	0.854558
C49	C	0.486933	-0.303335	0.354572
C50	C	0.986933	0.196665	0.854572
C51	C	0.403599	-0.303336	0.354582
C52	C	0.903599	0.196664	0.854582
C53	C	0.723988	-0.303326	0.354550
C54	C	1.223988	0.196674	0.854550
C55	C	1.063324	-0.466875	0.354519
C56	C	1.563324	0.033125	0.854519
C57	C	1.063351	-0.536843	0.354527
C58	C	1.563351	-0.036843	0.854527
C59	C	1.110396	-0.569656	0.401636
C60	C	1.610396	-0.069656	0.901636
C61	C	1.110422	-0.635398	0.401654
C62	C	1.610422	-0.135398	0.901654
C63	C	1.063411	-0.668326	0.354551
C64	C	1.563411	-0.168326	0.854551
C65	C	1.016356	-0.635505	0.307439
C66	C	1.516356	-0.135505	0.807439
C67	C	1.016326	-0.569764	0.307428
C68	C	1.516326	-0.069764	0.807428
N69	N	1.057863	-0.771573	0.290144
N70	N	1.557863	-0.271573	0.790144
N71	N	1.057895	-0.834024	0.290157
N72	N	1.557895	-0.334024	0.790157
C73	C	1.063497	-0.866400	0.354584
C74	C	1.563497	-0.366400	0.854584
N75	N	1.069078	-0.833966	0.418998
N76	N	1.569078	-0.333966	0.918998
N77	N	1.069050	-0.771508	0.418984
N78	N	1.569050	-0.271508	0.918984
C79	C	1.063437	-0.739611	0.354558
C80	C	1.563437	-0.239611	0.854558
C81	C	1.110573	-0.970498	0.401716
C82	C	1.610573	-0.470498	0.901716
C83	C	1.110593	-1.036242	0.401735
C84	C	1.610593	-0.536242	0.901735
C85	C	1.016531	-1.036348	0.307514
C86	C	1.516531	-0.536348	0.807514
C87	C	1.016506	-0.970605	0.307501
C88	C	1.516506	-0.470605	0.807501
C89	C	1.063531	-0.937685	0.354601
C90	C	1.563531	-0.437685	0.854601
C91	C	1.255370	-0.303335	0.354578
C92	C	1.755370	0.196665	0.854578
C93	C	1.337169	-0.303339	0.354587
C94	C	1.837169	0.196661	0.854587
C95	C	1.063430	-0.303325	0.546509
C96	C	1.563430	0.196675	1.046509
C97	C	1.063436	-0.303326	0.628308
C98	C	1.563436	0.196674	1.128308
C99	C	1.063532	-0.139133	0.354610
C100	C	1.563532	0.360867	0.854610
C101	C	1.063580	-0.069165	0.354632
C102	C	1.563580	0.430835	0.854632
C103	C	1.110518	-0.263074	0.816521
C104	C	1.610518	0.236926	1.316521
C105	C	1.110514	-0.263073	0.893380
C106	C	1.610514	0.236927	1.393380
C107	C	1.016329	-0.343587	0.893332
C108	C	1.516329	0.156413	1.393332
C109	C	1.016330	-0.343584	0.816475
C110	C	1.516330	0.156416	1.316475
C111	C	1.063429	-0.303328	0.778071
C112	C	1.563429	0.196672	1.278071
C113	C	1.063424	-0.303331	0.931787
C114	C	1.563424	0.196669	1.431787
C115	C	1.063419	-0.303331	1.015121
C116	C	1.563419	0.196669	1.515121
C117	C	1.063433	-0.303327	0.694732
C118	C	1.563433	0.196673	1.194732
C119	C	1.063405	-0.303335	1.163350
C120	C	1.563405	0.196665	1.663350
C121	C	1.063417	-0.303333	1.081551
C122	C	1.563417	0.196667	1.581551
H123	H	0.633527	-0.230168	0.269324
H124	H	1.133527	0.269832	0.769324
C125	C	0.965362	-1.072054	0.256464
C126	C	1.465362	-0.572054	0.756464
C127	C	0.892530	-1.056121	0.272434
C128	C	1.392530	-0.556121	0.772434
C129	C	0.845368	-1.089009	0.225429
C130	C	1.345368	-0.589009	0.725429
H131	H	0.976066	-1.061316	0.206998
H132	H	1.476066	-0.561316	0.706998
H133	H	0.972064	-1.115913	0.263223
H134	H	1.472064	-0.615913	0.763223
H135	H	0.885832	-1.012271	0.265669
H136	H	1.385832	-0.512271	0.765669
H137	H	0.881803	-1.066860	0.321891
H138	H	1.381803	-0.566860	0.821891
H139	H	0.852070	-1.132869	0.232188
H140	H	1.352070	-0.632869	0.732188
H141	H	0.856079	-1.078269	0.175967
H142	H	1.356079	-0.578269	0.675967
H143	H	0.795946	-1.078208	0.236263
H144	H	1.295946	-0.578208	0.736263
H145	H	0.494063	-0.376482	0.439808
H146	H	0.994063	0.123518	0.939808
C147	C	1.161414	-0.533801	0.452699
C148	C	1.661414	-0.033801	0.952699
C149	C	1.151333	-0.469203	0.442597
C150	C	1.651333	0.030797	0.942597
C151	C	1.198322	-0.436153	0.489619
C152	C	1.698322	0.063847	0.989619
H153	H	1.150657	-0.544492	0.502167
H154	H	1.650657	-0.044492	1.002167
H155	H	1.210891	-0.544502	0.441969
H156	H	1.710891	-0.044502	0.941969
H157	H	1.101868	-0.458506	0.453332
H158	H	1.601868	0.041494	0.953332
H159	H	1.162095	-0.458493	0.393140
H160	H	1.662095	0.041507	0.893140
H161	H	1.247799	-0.446854	0.478889
H162	H	1.747799	0.053146	0.978889
H163	H	1.187561	-0.446849	0.539084
H164	H	1.687561	0.053151	1.039084
H165	H	1.191493	-0.392320	0.482767
H166	H	1.691493	0.107680	0.982767
H167	H	1.148726	-0.662120	0.440023
H168	H	1.648726	-0.162120	0.940023
H169	H	0.978077	-0.662319	0.269089
H170	H	1.478077	-0.162319	0.769089
C171	C	0.643791	-0.387444	0.452627
C172	C	1.143791	0.112556	0.952627
C173	C	0.593676	-0.422742	0.493789
C174	C	1.093676	0.077258	0.993789
C175	C	0.631948	-0.463087	0.540868
C176	C	1.131948	0.036913	1.040868
H177	H	0.673755	-0.414891	0.424501
H178	H	1.173755	0.085109	0.924501
H179	H	0.673777	-0.363416	0.484780
H180	H	1.173777	0.136584	0.984780
H181	H	0.563702	-0.446769	0.461640
H182	H	1.063702	0.053231	0.961640
H183	H	0.563710	-0.395312	0.521930
H184	H	1.063710	0.104688	1.021930
H185	H	0.661934	-0.439059	0.573021
H186	H	1.161934	0.060941	1.073021
H187	H	0.661911	-0.490529	0.512736
H188	H	1.161911	0.009471	1.012736
H189	H	0.597951	-0.487037	0.568807
H190	H	1.097951	0.012963	1.068807
H191	H	0.977985	-0.376363	0.924609
H192	H	1.477985	0.123637	1.424609
H193	H	0.978015	-0.543047	0.269066
H194	H	1.478015	-0.043047	0.769066
H195	H	0.978201	-0.943887	0.269138
H196	H	1.478201	-0.443887	0.769138
H197	H	1.148858	-0.230293	0.924683
H198	H	1.648858	0.269707	1.424683
C199	C	1.161674	-0.219295	0.774958
C200	C	1.661674	0.280705	1.274958
C201	C	1.202897	-0.184030	0.825086
C202	C	1.702897	0.315970	1.325086
C203	C	1.250022	-0.143686	0.786827
C204	C	1.750022	0.356314	1.286827
H205	H	1.193792	-0.243302	0.744970
H206	H	1.693792	0.256698	1.244970
H207	H	1.133556	-0.191832	0.744997
H208	H	1.633556	0.308168	1.244997
H209	H	1.231014	-0.211490	0.855034
H210	H	1.731014	0.288510	1.355034
H211	H	1.170799	-0.160010	0.855075
H212	H	1.670799	0.339990	1.355075
H213	H	1.221903	-0.116223	0.756866
H214	H	1.721903	0.383777	1.256866
H215	H	1.282135	-0.167699	0.756841
H216	H	1.782135	0.332301	1.256841
H217	H	1.277993	-0.119750	0.820833
H218	H	1.777993	0.380250	1.320833
H219	H	1.148861	-0.943693	0.440070
H220	H	1.648861	-0.443693	0.940070
C221	C	1.161758	-1.071757	0.452910
C222	C	1.661758	-0.571757	0.952910
C223	C	1.202946	-1.028852	0.494136
C224	C	1.702946	-0.528852	0.994136
C225	C	1.250096	-1.061545	0.541278
C226	C	1.750096	-0.561545	1.041278
H227	H	1.133681	-1.097415	0.485024
H228	H	1.633681	-0.597415	0.985024
H229	H	1.193890	-1.097374	0.424803
H230	H	1.693890	-0.597374	0.924803
H231	H	1.170818	-1.003245	0.522241
H232	H	1.670818	-0.503245	1.022241
H233	H	1.231038	-1.003192	0.462041
H234	H	1.731038	-0.503192	0.962041
H235	H	1.282228	-1.087162	0.513171
H236	H	1.782228	-0.587162	1.013171
H237	H	1.222013	-1.087202	0.573387
H238	H	1.722013	-0.587202	1.073387
H239	H	1.278052	-1.032439	0.569250
H240	H	1.778052	-0.532439	1.069250
C241	C	0.965111	-0.387188	0.774685
C242	C	1.465111	0.112812	1.274685
C243	C	0.917954	-0.351539	0.730580
C244	C	1.417954	0.148461	1.230580
C245	C	0.870755	-0.391681	0.692081
C246	C	1.370755	0.108319	1.192081
H247	H	0.993160	-0.414626	0.744637
H248	H	1.493160	0.085374	1.244637
H249	H	0.937021	-0.411155	0.808540
H250	H	1.437021	0.088845	1.308540
H251	H	0.946040	-0.327582	0.696729
H252	H	1.446040	0.172418	1.196729
H253	H	0.889889	-0.324102	0.760610
H254	H	1.389889	0.175898	1.260610
H255	H	0.842665	-0.415648	0.725936
H256	H	1.342665	0.084352	1.225936
H257	H	0.898810	-0.419117	0.662037
H258	H	1.398810	0.080883	1.162037
H259	H	0.838749	-0.367499	0.662157
H260	H	1.338749	0.132501	1.162157
C261	C	0.483529	-0.219303	0.256615
C262	C	0.983529	0.280697	0.756615
C263	C	0.407994	-0.227947	0.266660
C264	C	0.907994	0.272053	0.766660
C265	C	0.369426	-0.187700	0.219708
C266	C	0.869426	0.312300	0.719708
H267	H	0.496062	-0.176996	0.267429
H268	H	0.996062	0.323004	0.767429
H269	H	0.496065	-0.228454	0.207131
H270	H	0.996065	0.271546	0.707131
H271	H	0.395463	-0.218791	0.316132
H272	H	0.895463	0.281209	0.816132
H273	H	0.395439	-0.270245	0.255840
H274	H	0.895439	0.229755	0.755840
H275	H	0.381962	-0.196851	0.170225
H276	H	0.881962	0.303149	0.670225
H277	H	0.381964	-0.145395	0.230527
H278	H	0.881964	0.354605	0.730527
H279	H	0.318171	-0.193563	0.226513
H280	H	0.818171	0.306437	0.726513
