data_functionalizedCrystal
_audit_creation_method	'MofGen! by Chris Wilmer'
_symmetry_space_group_name_H-M	'P1'
_symmetry_Int_Tables_number	1
_symmetry_cell_setting	triclinic
loop_
_symmetry_equiv_pos_as_xyz
  x,y,z
_cell_length_a	12.503572
_cell_length_b	14.044220
_cell_length_c	14.044220
_cell_angle_alpha	93.188878
_cell_angle_beta	93.843168
_cell_angle_gamma	86.164750
loop_
_atom_site_label
_atom_site_type_symbol
_atom_site_fract_x
_atom_site_fract_y
_atom_site_fract_z
O1	O	0.089210	-1.282200	-0.225116
O2	O	0.089237	-1.005530	-0.216809
O3	O	0.089213	-1.139712	-0.082627
O4	O	0.089234	-1.148019	-0.359298
O5	O	-0.089427	-1.129622	-0.092737
O6	O	-0.089403	-0.995440	-0.226918
O7	O	-0.089430	-1.272110	-0.235226
Cu8	Cu	-0.105728	-1.132854	-0.231995
Cu9	Cu	0.105535	-1.144786	-0.220040
O10	O	-0.089406	-1.137929	-0.369407
C11	C	-0.000080	-0.964864	-0.218228
C12	C	-0.000070	-0.858721	-0.207383
N13	N	-0.254319	-1.124469	-0.240404
C14	C	-0.000107	-1.131031	-0.052060
C15	C	-0.000107	-1.120187	0.054082
C16	C	-0.473432	-1.112134	-0.252782
C17	C	-0.526768	-1.165511	-0.199249
C18	C	-0.648690	-1.158648	-0.206136
C19	C	-0.351499	-1.118996	-0.245896
N20	N	0.254126	-1.153179	-0.211624
C21	C	-0.000111	-1.312777	-0.233807
C22	C	-0.000114	-1.418920	-0.244651
C23	C	-0.000092	-0.664382	-0.187558
C24	C	-0.000091	-0.613253	-0.264472
C25	C	-0.000104	-0.505116	-0.253441
C26	C	-0.000080	-0.772529	-0.198587
C27	C	-0.000084	-1.146609	-0.399974
C28	C	-0.000077	-1.157454	-0.506117
C29	C	-0.000090	-1.100361	0.248421
C30	C	-0.000094	-1.177275	0.299551
C31	C	-0.000084	-1.166244	0.407687
C32	C	-0.000099	-1.111391	0.140274
H33	H	-0.519330	-1.061285	-0.303783
O34	O	-0.472181	-1.226204	-0.138325
C35	C	-0.545785	-1.274508	-0.089926
H36	H	-0.625984	-1.230824	-0.090035
H37	H	-0.513191	-1.284319	-0.013090
H38	H	-0.557697	-1.347440	-0.127512
H39	H	-0.000104	-0.626945	-0.113431
H40	H	-0.000029	-1.251413	0.262115
O41	O	-0.000255	-0.657863	-0.352942
C42	C	-0.092750	-0.625909	-0.408088
H43	H	-0.157437	-0.597123	-0.358672
H44	H	-0.123780	-0.687995	-0.455462
H45	H	-0.071829	-0.566772	-0.454722
H46	H	-0.000080	-1.026234	0.285859
