data_functionalizedCrystal
_audit_creation_method	'MofGen! by Chris Wilmer'
_symmetry_space_group_name_H-M	'P1'
_symmetry_Int_Tables_number	1
_symmetry_cell_setting	triclinic
loop_
_symmetry_equiv_pos_as_xyz
  x,y,z
_cell_length_a	19.077105
_cell_length_b	12.759400
_cell_length_c	19.077174
_cell_angle_alpha	92.275311
_cell_angle_beta	85.483752
_cell_angle_gamma	87.711168
loop_
_atom_site_label
_atom_site_type_symbol
_atom_site_fract_x
_atom_site_fract_y
_atom_site_fract_z
Zn1	Zn	1.093766	-0.510482	-0.441863
Zn2	Zn	1.088970	-0.678821	-0.323981
Zn3	Zn	0.971149	-0.495796	-0.319260
Zn4	Zn	0.975864	-0.678752	-0.437099
O5	O	1.032437	-0.590963	-0.380551
O6	O	1.191780	-0.538988	-0.430195
O7	O	1.069361	-0.648424	-0.224705
O8	O	0.987448	-0.350726	-0.335541
O9	O	1.188257	-0.662665	-0.343588
O10	O	1.077534	-0.361516	-0.425617
O11	O	0.982798	-0.513957	-0.221236
O12	O	0.873124	-0.513890	-0.330922
O13	O	0.995484	-0.662548	-0.536381
O14	O	0.876588	-0.648307	-0.417498
O15	O	1.082106	-0.538921	-0.539881
O16	O	1.073933	-0.825829	-0.338969
O17	O	0.990835	-0.825779	-0.422076
C18	C	0.849277	-0.579498	-0.373181
C19	C	0.770921	-0.574620	-0.370045
C20	C	0.735928	-0.642409	-0.413576
C21	C	0.662304	-0.637812	-0.410633
C22	C	0.623674	-0.565430	-0.364154
C23	C	0.658672	-0.497634	-0.320621
C24	C	0.732294	-0.502227	-0.323569
C25	C	0.403291	-0.544174	-0.350517
C26	C	0.329663	-0.539588	-0.347571
C27	C	0.333300	-0.679766	-0.437584
C28	C	0.406924	-0.684356	-0.440525
C29	C	0.441915	-0.616557	-0.396994
N30	N	0.548418	-0.560732	-0.361143
N31	N	0.517170	-0.621251	-0.400009
C32	C	1.032395	-0.863926	-0.380534
C33	C	1.032442	-0.980707	-0.380554
C34	C	1.075764	-1.035567	-0.337331
C35	C	1.075808	-1.145295	-0.337355
C36	C	0.989203	-1.145294	-0.423824
C37	C	0.989163	-1.035568	-0.423804
C38	C	1.119043	-0.980706	-0.294081
C39	C	1.162367	-1.035566	-0.250855
C40	C	1.162411	-1.145294	-0.250878
C41	C	1.119131	-1.200162	-0.294128
C42	C	1.216313	-0.602473	-0.387950
C43	C	1.294670	-0.607377	-0.391103
C44	C	1.039856	-0.602365	-0.564425
C45	C	1.043018	-0.607224	-0.642781
C46	C	1.032500	-0.316935	-0.380583
C47	C	1.032526	-0.200161	-0.380597
C48	C	0.999436	-0.539498	-0.677787
C49	C	1.002404	-0.544073	-0.751410
C50	C	1.048957	-0.616368	-0.790028
C51	C	1.092540	-0.684101	-0.755017
C52	C	1.089569	-0.679532	-0.681395
C53	C	1.062675	-0.637548	-1.010410
C54	C	1.065645	-0.642110	-1.084038
C55	C	0.975507	-0.502082	-1.080426
C56	C	0.972542	-0.497515	-1.006802
C57	C	1.016123	-0.565251	-0.971798
N58	N	1.051993	-0.621043	-0.865283
N59	N	1.013082	-0.560581	-0.896543
C60	C	1.025088	-0.579531	-0.197394
C61	C	1.022063	-0.574385	-0.119043
H62	H	0.298212	-0.480635	-0.309727
H63	H	0.953966	-1.189976	-0.459035
H64	H	0.953888	-0.990901	-0.459000
C65	C	0.448827	-0.762818	-0.491109
C66	C	0.433763	-0.743295	-0.560169
C67	C	0.472356	-0.815548	-0.606785
H68	H	0.436362	-0.832031	-0.480321
H69	H	0.497695	-0.755844	-0.486679
H70	H	0.384906	-0.750278	-0.564596
H71	H	0.446230	-0.674096	-0.570979
H72	H	0.521224	-0.808574	-0.602356
H73	H	0.459888	-0.884756	-0.595991
H74	H	0.462146	-0.802306	-0.653648
C75	C	1.209281	-0.975807	-0.203926
C76	C	1.199958	-0.867970	-0.213140
C77	C	1.243158	-0.812890	-0.169914
H78	H	1.257091	-0.997197	-0.216146
H79	H	1.197089	-0.990194	-0.156127
H80	H	1.212155	-0.853590	-0.260929
H81	H	1.152157	-0.846549	-0.200916
H82	H	1.230965	-0.827277	-0.122115
H83	H	1.290965	-0.834288	-0.182137
H84	H	1.236833	-0.739716	-0.176155
C85	C	1.110082	-0.711126	-0.972542
C86	C	1.151504	-0.775388	-1.022123
C87	C	1.195196	-0.843170	-0.987263
H88	H	1.082032	-0.753536	-0.942730
H89	H	1.139686	-0.671097	-0.945082
H90	H	1.121904	-0.815413	-1.049571
H91	H	1.179569	-0.733006	-1.051938
H92	H	1.224800	-0.803141	-0.959803
H93	H	1.167140	-0.885573	-0.957451
H94	H	1.223311	-0.886773	-1.020898
C95	C	0.295181	-0.753241	-0.484817
C96	C	0.222437	-0.733713	-0.472305
C97	C	0.187301	-0.801369	-0.515813
H98	H	0.306732	-0.823956	-0.474945
H99	H	0.309131	-0.741651	-0.532697
H100	H	0.208492	-0.745312	-0.424436
H101	H	0.210865	-0.663011	-0.482181
H102	H	0.201252	-0.789778	-0.563693
H103	H	0.198858	-0.872079	-0.505937
H104	H	0.137941	-0.788122	-0.507334
C105	C	1.119332	-1.319307	-0.294168
C106	C	1.187180	-1.360825	-0.314898
C107	C	1.187392	-1.470573	-0.314932
H108	H	1.087404	-1.344262	-0.326112
H109	H	1.105390	-1.340636	-0.248176
H110	H	1.201113	-1.339506	-0.360883
H111	H	1.219120	-1.335900	-0.282961
H112	H	1.173450	-1.491902	-0.268940
H113	H	1.155461	-1.495518	-0.346876
H114	H	1.233427	-1.498757	-0.328991
C115	C	1.209473	-1.204665	-0.203876
C116	C	1.247350	-1.133129	-0.165985
C117	C	1.290702	-1.187780	-0.122669
H118	H	1.241334	-1.251009	-0.232033
H119	H	1.181319	-1.243909	-0.172027
H120	H	1.275502	-1.093903	-0.197830
H121	H	1.215507	-1.086784	-0.137815
H122	H	1.262548	-1.227023	-0.090819
H123	H	1.322559	-1.234121	-0.150831
H124	H	1.316402	-1.139251	-0.096950
C125	C	0.948817	-0.460969	-0.635986
C126	C	0.911272	-0.402659	-0.682404
C127	C	0.864626	-0.330320	-0.643925
H128	H	0.974554	-0.414998	-0.608350
H129	H	0.916896	-0.497431	-0.606040
H130	H	0.943189	-0.366199	-0.712338
H131	H	0.885521	-0.448602	-0.710041
H132	H	0.832704	-0.366782	-0.613979
H133	H	0.890368	-0.284356	-0.616291
H134	H	0.839141	-0.290755	-0.675413
H135	H	0.966913	-0.488927	-0.779908
H136	H	1.119010	-0.891360	-0.294055
C137	C	0.770249	-0.428754	-0.276183
C138	C	0.749523	-0.446045	-0.205689
C139	C	0.784479	-0.378388	-0.162018
H140	H	0.758643	-0.358037	-0.286005
H141	H	0.819633	-0.441863	-0.284549
H142	H	0.700151	-0.432929	-0.197327
H143	H	0.761131	-0.516749	-0.195846
H144	H	0.833863	-0.391497	-0.170384
H145	H	0.772870	-0.307675	-0.171846
H146	H	0.770427	-0.390118	-0.114183
H147	H	0.934632	-0.438647	-0.975364
C148	C	0.928273	-0.428380	-1.118397
C149	C	0.942934	-0.324281	-1.101135
C150	C	0.899439	-0.256358	-1.136108
H151	H	0.880393	-0.439906	-1.104452
H152	H	0.936714	-0.441383	-1.167782
H153	H	0.934488	-0.311282	-1.051761
H154	H	0.990806	-0.312722	-1.115082
H155	H	0.907880	-0.269361	-1.185493
H156	H	0.851562	-0.267893	-1.122160
H157	H	0.909385	-0.185720	-1.124406
H158	H	1.103557	-0.700984	-1.115478
H159	H	1.130441	-0.742971	-0.786465
H160	H	0.431771	-0.488974	-0.315066
C161	C	1.136847	-0.753237	-0.643473
C162	C	1.122204	-0.857333	-0.660765
C163	C	1.165748	-0.925265	-0.625852
H164	H	1.128452	-0.740308	-0.594087
H165	H	1.184718	-0.741645	-0.657458
H166	H	1.074345	-0.868920	-0.646775
H167	H	1.130604	-0.870295	-0.710145
H168	H	1.213618	-0.913673	-0.639838
H169	H	1.157349	-0.912327	-0.576468
H170	H	1.155823	-0.995902	-0.637585
C171	C	0.777742	-0.721033	-0.464113
C172	C	0.731335	-0.779394	-0.501620
C173	C	0.769827	-0.851821	-0.548190
H174	H	0.805367	-0.766963	-0.438324
H175	H	0.807700	-0.684637	-0.496062
H176	H	0.701389	-0.815788	-0.469675
H177	H	0.703709	-0.733492	-0.527423
H178	H	0.799785	-0.815425	-0.580140
H179	H	0.797450	-0.897744	-0.522395
H180	H	0.738346	-0.891421	-0.573649
H181	H	0.633816	-0.693014	-0.446080
H182	H	0.627213	-0.438695	-0.282780
