data_functionalizedCrystal
_audit_creation_method	'MofGen! by Chris Wilmer'
_symmetry_space_group_name_H-M	'P1'
_symmetry_Int_Tables_number	1
_symmetry_cell_setting	triclinic
loop_
_symmetry_equiv_pos_as_xyz
  x,y,z
_cell_length_a	17.077404
_cell_length_b	18.050590
_cell_length_c	17.077396
_cell_angle_alpha	89.969391
_cell_angle_beta	89.983895
_cell_angle_gamma	90.016523
loop_
_atom_site_label
_atom_site_type_symbol
_atom_site_fract_x
_atom_site_fract_y
_atom_site_fract_z
Zn1	Zn	1.200061	-0.295694	-0.443812
Zn2	Zn	1.533394	0.037640	-0.110478
Zn3	Zn	1.866727	0.370973	0.222855
Zn4	Zn	1.199983	-0.419893	-0.312543
Zn5	Zn	1.533316	-0.086559	0.020791
Zn6	Zn	1.866650	0.246774	0.354124
Zn7	Zn	1.068798	-0.295717	-0.312562
Zn8	Zn	1.402131	0.037617	0.020771
Zn9	Zn	1.735464	0.370950	0.354104
Zn10	Zn	1.068770	-0.419842	-0.443769
Zn11	Zn	1.402104	-0.086508	-0.110436
Zn12	Zn	1.735437	0.246825	0.222898
O13	O	1.134403	-0.357786	-0.378171
O14	O	1.467736	-0.024453	-0.044838
O15	O	1.801070	0.308881	0.288495
O16	O	1.309897	-0.312180	-0.426408
O17	O	1.643231	0.021153	-0.093075
O18	O	1.976564	0.354486	0.240258
O19	O	1.182560	-0.403451	-0.202698
O20	O	1.515893	-0.070118	0.130635
O21	O	1.849226	0.263215	0.463968
O22	O	1.086254	-0.191789	-0.329999
O23	O	1.419587	0.141544	0.003334
O24	O	1.752921	0.474878	0.336668
O25	O	1.309840	-0.403429	-0.329966
O26	O	1.643174	-0.070096	0.003368
O27	O	1.976507	0.263238	0.336701
O28	O	1.182692	-0.191772	-0.426427
O29	O	1.516026	0.141561	-0.093094
O30	O	1.849359	0.474895	0.240239
O31	O	1.086179	-0.312220	-0.202713
O32	O	1.419512	0.021114	0.130621
O33	O	1.752845	0.354447	0.463954
O34	O	0.958947	-0.312170	-0.329957
O35	O	1.292281	0.021163	0.003376
O36	O	1.625614	0.354496	0.336709
O37	O	1.086208	-0.403342	-0.553622
O38	O	1.419541	-0.070009	-0.220288
O39	O	1.752874	0.263324	0.113045
O40	O	0.958927	-0.403365	-0.426354
O41	O	1.292261	-0.070031	-0.093021
O42	O	1.625594	0.263302	0.240312
O43	O	1.182666	-0.312131	-0.553653
O44	O	1.515999	0.021202	-0.220320
O45	O	1.849333	0.354535	0.113014
O46	O	1.182533	-0.523810	-0.329924
O47	O	1.515867	-0.190477	0.003409
O48	O	1.849200	0.142856	0.336742
O49	O	1.086132	-0.523773	-0.426336
O50	O	1.419465	-0.190440	-0.093002
O51	O	1.752799	0.142894	0.240331
C52	C	0.930455	-0.357765	-0.378154
C53	C	1.263788	-0.024432	-0.044821
C54	C	1.597122	0.308902	0.288513
C55	C	0.843205	-0.357774	-0.378165
C56	C	1.176539	-0.024441	-0.044832
C57	C	1.509872	0.308893	0.288502
C58	C	0.802246	-0.310345	-0.428459
C59	C	1.135579	0.022988	-0.095126
C60	C	1.468912	0.356321	0.238207
C61	C	0.720265	-0.310350	-0.428463
C62	C	1.053599	0.022983	-0.095130
C63	C	1.386932	0.356317	0.238204
C64	C	0.679246	-0.357788	-0.378176
C65	C	1.012579	-0.024454	-0.044842
C66	C	1.345913	0.308879	0.288491
C67	C	0.720211	-0.405219	-0.327876
C68	C	1.053545	-0.071885	0.005458
C69	C	1.386878	0.261448	0.338791
C70	C	0.802190	-0.405209	-0.327869
C71	C	1.135524	-0.071876	0.005465
C72	C	1.468857	0.261457	0.338798
C73	C	0.549341	-0.405235	-0.327895
C74	C	0.882675	-0.071902	0.005438
C75	C	1.216008	0.261431	0.338772
C76	C	0.467357	-0.405246	-0.327903
C77	C	0.800690	-0.071912	0.005430
C78	C	1.134023	0.261421	0.338764
C79	C	0.467416	-0.310376	-0.428489
C80	C	0.800750	0.022957	-0.095156
C81	C	1.134083	0.356291	0.238177
C82	C	0.549395	-0.310367	-0.428482
C83	C	0.882729	0.022966	-0.095149
C84	C	1.216062	0.356300	0.238184
C85	C	0.590355	-0.357799	-0.378183
C86	C	0.923688	-0.024466	-0.044850
C87	C	1.257022	0.308868	0.288483
C88	C	1.134343	-0.550738	-0.378140
C89	C	1.467676	-0.217405	-0.044807
C90	C	1.801009	0.115928	0.288526
C91	C	1.134389	-0.633284	-0.378153
C92	C	1.467722	-0.299951	-0.044820
C93	C	1.801055	0.033383	0.288514
C94	C	1.186921	-0.832728	-0.325798
C95	C	1.520254	-0.499395	0.007536
C96	C	1.853587	-0.166061	0.340869
C97	C	1.206093	-0.882059	-0.397440
C98	C	1.539426	-0.548725	-0.064107
C99	C	1.872759	-0.215392	0.269227
C100	C	1.134433	-0.784414	-0.378184
C101	C	1.467767	-0.451081	-0.044851
C102	C	1.801100	-0.117748	0.288482
C103	C	1.115341	-0.882165	-0.306574
C104	C	1.448674	-0.548832	0.026759
C105	C	1.782008	-0.215499	0.360092
C106	C	1.134478	-0.930399	-0.378208
C107	C	1.467811	-0.597066	-0.044875
C108	C	1.801144	-0.263733	0.288458
C109	C	1.153642	-0.832658	-0.449864
C110	C	1.486975	-0.499324	-0.116531
C111	C	1.820309	-0.165991	0.216802
C112	C	1.062857	-0.832760	-0.358950
C113	C	1.396190	-0.499427	-0.025617
C114	C	1.729524	-0.166094	0.307716
C115	C	1.082002	-0.882069	-0.430642
C116	C	1.415335	-0.548735	-0.097309
C117	C	1.748668	-0.215402	0.236025
C118	C	1.134410	-0.700316	-0.378170
C119	C	1.467743	-0.366983	-0.044836
C120	C	1.801076	-0.033649	0.288497
C121	C	1.134501	-1.014496	-0.378231
C122	C	1.467835	-0.681163	-0.044898
C123	C	1.801168	-0.347829	0.288435
C124	C	1.339147	-0.357808	-0.378190
C125	C	1.672481	-0.024474	-0.044856
C126	C	2.005814	0.308859	0.288477
C127	C	1.426397	-0.357817	-0.378197
C128	C	1.759730	-0.024484	-0.044864
C129	C	2.093064	0.308850	0.288469
C130	C	1.134442	-0.357729	-0.582916
C131	C	1.467776	-0.024395	-0.249583
C132	C	1.801109	0.308938	0.083751
C133	C	1.134459	-0.357704	-0.670166
C134	C	1.467793	-0.024371	-0.336832
C135	C	1.801126	0.308963	-0.003499
C136	C	1.134485	-0.164081	-0.378220
C137	C	1.467818	0.169253	-0.044887
C138	C	1.801152	0.502586	0.288447
C139	C	1.134520	-0.081535	-0.378241
C140	C	1.467853	0.251799	-0.044907
C141	C	1.801187	0.585132	0.288426
C142	C	1.084289	-0.310194	-0.711163
C143	C	1.417622	0.023139	-0.377829
C144	C	1.750955	0.356473	-0.044496
C145	C	1.084302	-0.310177	-0.793143
C146	C	1.417635	0.023156	-0.459810
C147	C	1.750968	0.356489	-0.126477
C148	C	1.134489	-0.357667	-0.834125
C149	C	1.467823	-0.024334	-0.500792
C150	C	1.801156	0.308999	-0.167459
C151	C	1.184662	-0.405182	-0.793122
C152	C	1.517995	-0.071849	-0.459789
C153	C	1.851329	0.261484	-0.126456
C154	C	1.184645	-0.405202	-0.711143
C155	C	1.517978	-0.071869	-0.377810
C156	C	1.851311	0.261464	-0.044477
C157	C	1.184696	-0.405136	-0.963993
C158	C	1.518029	-0.071803	-0.630659
C159	C	1.851363	0.261531	-0.297326
C160	C	1.184715	-0.405115	-1.045977
C161	C	1.518048	-0.071782	-0.712644
C162	C	1.851381	0.261552	-0.379311
C163	C	1.084353	-0.310111	-1.045992
C164	C	1.417686	0.023223	-0.712659
C165	C	1.751020	0.356556	-0.379326
C166	C	1.084336	-0.310131	-0.964013
C167	C	1.417669	0.023203	-0.630680
C168	C	1.751002	0.356536	-0.297347
C169	C	1.134509	-0.357645	-0.923016
C170	C	1.467843	-0.024312	-0.589683
C171	C	1.801176	0.309021	-0.256350
C172	C	1.134409	-0.357790	-0.174224
C173	C	1.467742	-0.024457	0.159110
C174	C	1.801076	0.308877	0.492443
C175	C	1.134544	-0.357605	-0.086974
C176	C	1.467877	-0.024272	0.246359
C177	C	1.801211	0.309062	0.579692
H178	H	0.433961	-0.443874	-0.286955
H179	H	0.767294	-0.110541	0.046378
H180	H	1.100628	0.222793	0.379712
H181	H	1.002325	-0.811088	-0.342645
H182	H	1.335658	-0.477754	-0.009312
H183	H	1.668992	-0.144421	0.324022
H184	H	1.043445	-0.271493	-0.826519
H185	H	1.376778	0.061841	-0.493186
H186	H	1.710112	0.395174	-0.159853
Br187	Br	0.664680	-0.245980	-0.496723
Br188	Br	0.998013	0.087353	-0.163390
Br189	Br	1.331346	0.420686	0.169943
H190	H	1.043472	-0.271457	-0.930648
H191	H	1.376805	0.061876	-0.597315
H192	H	1.710138	0.395210	-0.263981
Br193	Br	1.016264	-0.245623	-1.101630
Br194	Br	1.349597	0.087710	-0.768297
Br195	Br	1.682930	0.421044	-0.434963
H196	H	0.835638	-0.271718	-0.469411
H197	H	1.168971	0.061615	-0.136078
H198	H	1.502304	0.394949	0.197255
H199	H	0.582688	-0.443858	-0.286934
H200	H	0.916021	-0.110524	0.046399
H201	H	1.249355	0.222809	0.379732
Br202	Br	1.252835	-0.469559	-1.101596
Br203	Br	1.586168	-0.136226	-0.768262
Br204	Br	1.919501	0.197107	-0.434929
Br205	Br	1.016179	-0.245734	-0.655552
Br206	Br	1.349512	0.087599	-0.322219
Br207	Br	1.682846	0.420933	0.011114
Br208	Br	0.664543	-0.469593	-0.259621
Br209	Br	0.997877	-0.136260	0.073712
Br210	Br	1.331210	0.197073	0.407046
Br211	Br	1.180716	-0.796573	-0.550846
Br212	Br	1.514049	-0.463239	-0.217512
Br213	Br	1.847382	-0.129906	0.115821
H214	H	1.225560	-0.443821	-0.930615
H215	H	1.558893	-0.110487	-0.597282
H216	H	1.892226	0.222846	-0.263949
H217	H	1.225522	-0.443853	-0.826496
H218	H	1.558855	-0.110520	-0.493163
H219	H	1.892188	0.222813	-0.159830
H220	H	1.225504	-0.443884	-0.677765
H221	H	1.558838	-0.110551	-0.344431
H222	H	1.892171	0.222782	-0.011098
Br223	Br	1.088396	-0.918414	-0.205623
Br224	Br	1.421729	-0.585080	0.127710
Br225	Br	1.755063	-0.251747	0.461043
Br226	Br	0.605064	-0.245995	-0.496739
Br227	Br	0.938398	0.087338	-0.163406
Br228	Br	1.271731	0.420672	0.169927
Br229	Br	0.857780	-0.469578	-0.259608
Br230	Br	1.191113	-0.136245	0.073725
Br231	Br	1.524446	0.197089	0.407059
H232	H	1.231323	-0.811063	-0.281542
H233	H	1.564656	-0.477729	0.051792
H234	H	1.897989	-0.144396	0.385125
H235	H	1.266642	-0.903715	-0.413724
H236	H	1.599976	-0.570382	-0.080391
H237	H	1.933309	-0.237049	0.252943
H238	H	0.434063	-0.271754	-0.469443
H239	H	0.767396	0.061579	-0.136110
H240	H	1.100730	0.394913	0.197223
Br241	Br	1.008050	-0.917954	-0.504579
Br242	Br	1.341384	-0.584621	-0.171245
Br243	Br	1.674717	-0.251288	0.162088
