data_functionalizedCrystal
_audit_creation_method	'MofGen! by Chris Wilmer'
_symmetry_space_group_name_H-M	'P1'
_symmetry_Int_Tables_number	1
_symmetry_cell_setting	triclinic
loop_
_symmetry_equiv_pos_as_xyz
  x,y,z
_cell_length_a	19.188933
_cell_length_b	17.699083
_cell_length_c	16.176319
_cell_angle_alpha	89.999648
_cell_angle_beta	89.993996
_cell_angle_gamma	83.214292
loop_
_atom_site_label
_atom_site_type_symbol
_atom_site_fract_x
_atom_site_fract_y
_atom_site_fract_z
O1	O	0.926253	0.094500	-0.068707
O2	O	1.426253	0.594500	0.431293
O3	O	0.722956	0.107219	-0.068714
O4	O	1.222956	0.607219	0.431286
O5	O	0.830348	-0.009337	-0.068718
O6	O	1.330348	0.490663	0.431282
O7	O	0.818860	0.211056	-0.068702
O8	O	1.318860	0.711056	0.431298
O9	O	0.830333	-0.009344	0.068775
O10	O	1.330333	0.490656	0.568775
O11	O	0.722941	0.107212	0.068780
O12	O	1.222941	0.607212	0.568780
O13	O	0.926238	0.094493	0.068786
O14	O	1.426238	0.594493	0.568786
Cu15	Cu	0.824588	0.100852	0.081337
Cu16	Cu	1.324588	0.600852	0.581337
Cu17	Cu	0.824605	0.100860	-0.081265
Cu18	Cu	1.324605	0.600860	0.418735
O19	O	0.818846	0.211049	0.068791
O20	O	1.318846	0.711049	0.568791
C21	C	0.696937	0.106803	0.000032
C22	C	1.196937	0.606803	0.500032
C23	C	0.619431	0.105566	0.000029
C24	C	1.119431	0.605566	0.500029
C25	C	0.066174	0.096740	-0.074910
C26	C	0.566174	0.596740	0.425090
C27	C	0.138999	0.097898	-0.074913
C28	C	0.638999	0.597898	0.425087
C29	C	0.175409	0.098477	0.000034
C30	C	0.675409	0.598477	0.500034
C31	C	0.138989	0.097878	0.074990
C32	C	0.638989	0.597878	0.574990
C33	C	0.066166	0.096712	0.074991
C34	C	0.566166	0.596712	0.574991
N35	N	0.284473	0.143372	0.055824
N36	N	0.784473	0.643372	0.555824
N37	N	0.353652	0.144481	0.055818
N38	N	0.853652	0.644481	0.555818
C39	C	0.394822	0.101987	0.000036
C40	C	0.894822	0.601987	0.500036
N41	N	0.364198	0.058351	-0.055753
N42	N	0.864198	0.558351	0.444247
N43	N	0.295012	0.057246	-0.055749
N44	N	0.795012	0.557246	0.444251
C45	C	0.254374	0.099740	0.000041
C46	C	0.754374	0.599740	0.500041
C47	C	0.510199	0.103836	-0.074919
C48	C	1.010199	0.603836	0.425081
C49	C	0.583026	0.104989	-0.074919
C50	C	1.083026	0.604989	0.425081
C51	C	0.583014	0.104976	0.074987
C52	C	1.083014	0.604976	0.574987
C53	C	0.510189	0.103815	0.074984
C54	C	1.010189	0.603815	0.574984
C55	C	0.473785	0.103249	0.000029
C56	C	0.973785	0.603249	0.500029
C57	C	0.829929	-0.037537	0.000024
C58	C	1.329929	0.462463	0.500024
C59	C	0.828694	-0.121554	0.000013
C60	C	1.328694	0.378446	0.500013
C61	C	0.952257	0.094909	0.000038
C62	C	1.452257	0.594909	0.500038
C63	C	1.029762	0.096146	0.000036
C64	C	1.529762	0.596146	0.500036
N65	N	0.824581	0.100845	0.195702
N66	N	1.324581	0.600845	0.695702
C67	C	0.819265	0.239249	0.000046
C68	C	1.319265	0.739249	0.500046
C69	C	0.820500	0.323266	0.000052
C70	C	1.320500	0.823266	0.500052
C71	C	0.757463	0.371969	0.000050
C72	C	1.257463	0.871969	0.500050
C73	C	0.758627	0.450911	0.000041
C74	C	1.258627	0.950911	0.500041
C75	C	0.822829	0.481148	0.000039
C76	C	1.322829	0.981148	0.500039
C77	C	0.885871	0.432438	0.000038
C78	C	1.385871	0.932438	0.500038
C79	C	0.884706	0.353498	0.000042
C80	C	1.384706	0.853498	0.500042
C81	C	0.890571	0.750795	0.000022
C82	C	1.390571	1.250795	0.500022
C83	C	0.891732	0.829741	0.000021
C84	C	1.391732	1.329741	0.500021
C85	C	0.764493	0.848208	0.000021
C86	C	1.264493	1.348208	0.500021
C87	C	0.763327	0.769268	0.000024
C88	C	1.263327	1.269268	0.500024
C89	C	0.826369	0.720565	0.000019
C90	C	1.326369	1.220565	0.500019
C91	C	0.825105	0.634967	0.000028
C92	C	1.325105	1.134967	0.500028
C93	C	0.824093	0.566744	0.000036
C94	C	1.324093	1.066744	0.500036
N95	N	0.824618	0.100861	-0.195630
N96	N	1.324618	0.600861	0.304370
C97	C	0.872148	0.049255	0.238964
C98	C	1.372148	0.549255	0.738964
C99	C	0.872152	0.049254	0.325511
C100	C	1.372152	0.549254	0.825511
C101	C	0.824591	0.100848	0.368795
C102	C	1.324591	0.600848	0.868795
C103	C	0.777018	0.152440	0.325527
C104	C	1.277018	0.652440	0.825527
C105	C	0.777012	0.152437	0.238981
C106	C	1.277012	0.652437	0.738981
C107	C	0.777042	0.152454	0.674555
C108	C	1.277042	0.652454	1.174555
C109	C	0.777053	0.152455	0.761107
C110	C	1.277053	0.652455	1.261107
C111	C	0.872182	0.049272	0.761085
C112	C	1.372182	0.549272	1.261085
C113	C	0.872176	0.049268	0.674540
C114	C	1.372176	0.549268	1.174540
C115	C	0.824601	0.100858	0.631279
C116	C	1.324601	0.600858	1.131279
C117	C	0.824597	0.100857	0.537435
C118	C	1.324597	0.600857	1.037435
C119	C	0.824598	0.100852	0.462637
C120	C	1.324598	0.600852	0.962637
H121	H	0.168651	0.098387	-0.135945
H122	H	0.668651	0.598387	0.364055
Br123	Br	0.188401	0.098656	0.176705
Br124	Br	0.688401	0.598656	0.676705
Br125	Br	0.632421	0.105745	0.176703
Br126	Br	1.132421	0.605745	0.676703
H127	H	0.480542	0.103334	0.136014
H128	H	0.980542	0.603334	0.636014
H129	H	0.941904	0.711150	0.000023
H130	H	1.441904	1.211150	0.500023
H131	H	0.480558	0.103372	-0.135952
H132	H	0.980558	0.603372	0.364048
Br133	Br	0.678935	0.914309	0.000025
Br134	Br	1.178935	1.414309	0.500025
H135	H	0.036520	0.096231	0.136023
H136	H	0.536520	0.596231	0.636023
Br137	Br	0.970259	0.287398	0.000036
Br138	Br	1.470259	0.787398	0.500036
H139	H	0.711048	0.744654	0.000030
H140	H	1.211048	1.244654	0.500030
H141	H	0.738306	0.194461	0.639339
H142	H	1.238306	0.694461	1.139339
H143	H	0.910884	0.007245	0.360735
H144	H	1.410884	0.507245	0.860735
H145	H	0.036539	0.096276	-0.135945
H146	H	0.536539	0.596276	0.364055
Br147	Br	0.632445	0.105784	-0.176641
Br148	Br	1.132445	0.605784	0.323359
Br149	Br	0.670326	0.330942	0.000062
Br150	Br	1.170326	0.830942	0.500062
H151	H	0.707296	0.490563	0.000037
H152	H	1.207296	0.990563	0.500037
H153	H	0.944016	0.854356	0.000018
H154	H	1.444016	1.354356	0.500018
Br155	Br	0.973004	0.473472	0.000026
Br156	Br	1.473004	0.973472	0.500026
H157	H	0.910918	0.007262	0.796317
H158	H	1.410918	0.507262	1.296317
Br159	Br	0.936705	-0.020764	0.180231
Br160	Br	1.436705	0.479236	0.680231
Br161	Br	0.936728	-0.020749	0.615800
Br162	Br	1.436728	0.479251	1.115800
H163	H	0.738321	0.194470	0.796347
H164	H	1.238321	0.694470	1.296347
H165	H	0.738290	0.194446	0.360773
H166	H	1.238290	0.694446	0.860773
Br167	Br	0.712449	0.222450	0.180268
Br168	Br	1.212449	0.722450	0.680268
