data_functionalizedCrystal
_audit_creation_method	'MofGen! by Chris Wilmer'
_symmetry_space_group_name_H-M	'P1'
_symmetry_Int_Tables_number	1
_symmetry_cell_setting	triclinic
loop_
_symmetry_equiv_pos_as_xyz
  x,y,z
_cell_length_a	14.044220
_cell_length_b	14.044220
_cell_length_c	13.101039
_cell_angle_alpha	93.667477
_cell_angle_beta	86.340132
_cell_angle_gamma	93.188878
loop_
_atom_site_label
_atom_site_type_symbol
_atom_site_fract_x
_atom_site_fract_y
_atom_site_fract_z
O1	O	1.281968	0.225348	-0.085109
O2	O	1.531968	0.475348	0.164891
O3	O	1.781968	0.725348	0.414891
O4	O	2.031968	0.975348	0.664891
O5	O	1.005298	0.217041	-0.085135
O6	O	1.255298	0.467041	0.164865
O7	O	1.505298	0.717041	0.414865
O8	O	1.755298	0.967041	0.664865
O9	O	1.139480	0.082860	-0.085112
O10	O	1.389480	0.332860	0.164888
O11	O	1.639480	0.582860	0.414888
O12	O	1.889480	0.832860	0.664888
O13	O	1.147787	0.359530	-0.085132
O14	O	1.397787	0.609530	0.164868
O15	O	1.647787	0.859530	0.414868
O16	O	1.897787	1.109530	0.664868
O17	O	1.129854	0.092504	0.085316
O18	O	1.379854	0.342504	0.335316
O19	O	1.629854	0.592504	0.585316
O20	O	1.879854	0.842504	0.835316
O21	O	0.995673	0.226686	0.085293
O22	O	1.245673	0.476686	0.335293
O23	O	1.495673	0.726686	0.585293
O24	O	1.745673	0.976686	0.835293
O25	O	1.272343	0.234993	0.085319
O26	O	1.522343	0.484993	0.335319
O27	O	1.772343	0.734993	0.585319
O28	O	2.022343	0.984993	0.835319
Zn29	Zn	1.132479	0.232371	0.112365
Zn30	Zn	1.382479	0.482371	0.362365
Zn31	Zn	1.632479	0.732371	0.612365
Zn32	Zn	1.882479	0.982371	0.862365
Zn33	Zn	1.145162	0.219663	-0.112181
Zn34	Zn	1.395162	0.469663	0.137819
Zn35	Zn	1.645162	0.719663	0.387819
Zn36	Zn	1.895162	0.969663	0.637819
O37	O	1.138161	0.369175	0.085296
O38	O	1.388161	0.619175	0.335296
O39	O	1.638161	0.869175	0.585296
O40	O	1.888161	1.119175	0.835296
C41	C	0.964864	0.218228	0.000076
C42	C	1.214864	0.468228	0.250076
C43	C	1.464864	0.718228	0.500076
C44	C	1.714864	0.968228	0.750076
C45	C	0.858722	0.207383	0.000066
C46	C	1.108722	0.457383	0.250066
C47	C	1.358722	0.707383	0.500066
C48	C	1.608722	0.957383	0.750066
C49	C	0.664383	0.187558	0.000088
C50	C	0.914383	0.437558	0.250088
C51	C	1.164383	0.687558	0.500088
C52	C	1.414383	0.937558	0.750088
C53	C	0.613253	0.264472	0.000087
C54	C	0.863253	0.514472	0.250087
C55	C	1.113253	0.764472	0.500087
C56	C	1.363253	1.014472	0.750087
C57	C	0.505116	0.253441	0.000099
C58	C	0.755116	0.503441	0.250099
C59	C	1.005116	0.753441	0.500099
C60	C	1.255116	1.003441	0.750099
C61	C	0.772529	0.198587	0.000076
C62	C	1.022529	0.448587	0.250076
C63	C	1.272529	0.698587	0.500076
C64	C	1.522529	0.948587	0.750076
C65	C	1.131031	0.052060	0.000102
C66	C	1.381031	0.302060	0.250102
C67	C	1.631031	0.552060	0.500102
C68	C	1.881031	0.802060	0.750102
C69	C	1.120187	-0.054083	0.000102
C70	C	1.370187	0.195917	0.250102
C71	C	1.620187	0.445917	0.500102
C72	C	1.870187	0.695917	0.750102
C73	C	1.100362	-0.248421	0.000086
C74	C	1.350362	0.001579	0.250086
C75	C	1.600362	0.251579	0.500086
C76	C	1.850362	0.501579	0.750086
C77	C	1.177276	-0.299551	0.000090
C78	C	1.427276	-0.049551	0.250090
C79	C	1.677276	0.200449	0.500090
C80	C	1.927276	0.450449	0.750090
C81	C	1.166245	-0.407688	0.000080
C82	C	1.416245	-0.157688	0.250080
C83	C	1.666245	0.092312	0.500080
C84	C	1.916245	0.342312	0.750080
C85	C	1.111391	-0.140275	0.000095
C86	C	1.361391	0.109725	0.250095
C87	C	1.611391	0.359725	0.500095
C88	C	1.861391	0.609725	0.750095
C89	C	1.312777	0.233806	0.000106
C90	C	1.562777	0.483806	0.250106
C91	C	1.812777	0.733806	0.500106
C92	C	2.062777	0.983806	0.750106
C93	C	1.418920	0.244651	0.000109
C94	C	1.668920	0.494651	0.250109
C95	C	1.918920	0.744651	0.500109
C96	C	2.168920	0.994651	0.750109
C97	C	1.146610	0.399974	0.000080
C98	C	1.396610	0.649974	0.250080
C99	C	1.646610	0.899974	0.500080
C100	C	1.896610	1.149974	0.750080
C101	C	1.157455	0.506116	0.000073
C102	C	1.407455	0.756116	0.250073
C103	C	1.657455	1.006116	0.500073
C104	C	1.907455	1.256116	0.750073
N105	N	1.123831	0.241043	0.265612
N106	N	1.373831	0.491043	0.515612
N107	N	1.623831	0.741043	0.765612
N108	N	1.873831	0.991043	1.015612
N109	N	1.153817	0.210984	-0.265428
N110	N	1.403817	0.460984	-0.015428
N111	N	1.653817	0.710984	0.234572
N112	N	1.903817	0.960984	0.484572
C113	C	1.112065	0.252851	0.474653
C114	C	1.362065	0.502851	0.724653
C115	C	1.612065	0.752851	0.974653
C116	C	1.862065	1.002851	1.224653
C117	C	1.165580	0.199179	0.525538
C118	C	1.415580	0.449179	0.775538
C119	C	1.665580	0.699179	1.025538
C120	C	1.915580	0.949179	1.275538
C121	C	1.159034	0.205749	0.641855
C122	C	1.409034	0.455749	0.891855
C123	C	1.659034	0.705749	1.141855
C124	C	1.909034	0.955749	1.391855
C125	C	1.118610	0.246282	0.358325
C126	C	1.368610	0.496282	0.608325
C127	C	1.618610	0.746282	0.858325
C128	C	1.868610	0.996282	1.108325
H129	H	0.650693	0.338605	0.000077
H130	H	0.900693	0.588605	0.250077
H131	H	1.150693	0.838605	0.500077
H132	H	1.400693	1.088605	0.750077
H133	H	0.626945	0.113431	0.000099
H134	H	0.876945	0.363431	0.250099
H135	H	1.126945	0.613431	0.500099
H136	H	1.376945	0.863431	0.750099
H137	H	1.251413	-0.262115	0.000028
H138	H	1.501413	-0.012115	0.250028
H139	H	1.751413	0.237885	0.500028
H140	H	2.001413	0.487885	0.750028
C141	C	1.000217	-0.298998	0.000090
C142	C	1.250217	-0.048998	0.250090
C143	C	1.500217	0.201002	0.500090
C144	C	1.750217	0.451002	0.750090
N145	N	0.924788	-0.337102	0.000101
N146	N	1.174788	-0.087102	0.250101
N147	N	1.424788	0.162898	0.500101
N148	N	1.674788	0.412898	0.750101
C149	C	1.234131	0.130447	0.466377
C150	C	1.484131	0.380447	0.716377
C151	C	1.734131	0.630447	0.966377
C152	C	1.984131	0.880447	1.216377
N153	N	1.285767	0.078686	0.421813
N154	N	1.535767	0.328686	0.671813
N155	N	1.785767	0.578686	0.921813
N156	N	2.035767	0.828686	1.171813
C157	C	1.043529	0.321588	0.533813
C158	C	1.293529	0.571588	0.783813
C159	C	1.543529	0.821588	1.033813
C160	C	1.793529	1.071588	1.283813
N161	N	0.991910	0.373361	0.578385
N162	N	1.241910	0.623361	0.828385
N163	N	1.491910	0.873361	1.078385
N164	N	1.741910	1.123361	1.328385
