data_functionalizedCrystal
_audit_creation_method	'MofGen! by Chris Wilmer'
_symmetry_space_group_name_H-M	'P1'
_symmetry_Int_Tables_number	1
_symmetry_cell_setting	triclinic
loop_
_symmetry_equiv_pos_as_xyz
  x,y,z
_cell_length_a	31.640172
_cell_length_b	19.902436
_cell_length_c	31.640172
_cell_angle_alpha	60.001569
_cell_angle_beta	90.008445
_cell_angle_gamma	60.000798
loop_
_atom_site_label
_atom_site_type_symbol
_atom_site_fract_x
_atom_site_fract_y
_atom_site_fract_z
Zr1	Zr	0.407191	0.735393	-0.055451
O2	O	0.339702	0.875573	-0.122950
O3	O	0.427879	0.595213	-0.034753
O4	O	0.427879	0.735375	-0.122930
O5	O	0.339702	0.735424	0.034775
O6	O	0.497436	0.735361	-0.122920
O7	O	0.339702	0.735410	-0.034774
O8	O	0.497435	0.484636	0.034811
O9	O	0.339704	0.986149	-0.122957
O10	O	0.488613	0.652860	-0.025926
O11	O	0.436704	0.652881	0.025970
O12	O	0.436705	0.817904	-0.077846
O13	O	0.384796	0.817925	-0.025950
Zr14	Zr	0.518128	0.735393	0.055485
Zr15	Zr	0.518126	0.735370	-0.055436
Zr16	Zr	0.407192	0.735415	0.055470
Zr17	Zr	0.407193	0.911749	-0.055462
Zr18	Zr	0.518126	0.559036	0.055496
O19	O	0.497440	0.875573	0.034787
O20	O	0.497438	0.875541	-0.122929
O21	O	0.339704	0.875604	0.034766
O22	O	0.585617	0.595213	0.122984
O23	O	0.585614	0.595181	-0.034732
O24	O	0.427881	0.595244	0.122963
O25	O	0.585616	0.735361	-0.034741
O26	O	0.497440	0.735410	0.122963
O27	O	0.427883	0.735424	0.122954
O28	O	0.585617	0.735375	0.034807
O29	O	0.427882	0.986131	-0.122945
O30	O	0.497436	0.484654	0.122979
O31	O	0.585615	0.484636	0.122990
O32	O	0.585614	0.484618	0.034823
O33	O	0.339705	0.986167	-0.034789
O34	O	0.427884	0.986149	-0.034777
O35	O	0.488614	0.652881	0.077880
O36	O	0.540523	0.652860	0.025984
O37	O	0.488615	0.817904	-0.025936
O38	O	0.436706	0.817925	0.025960
C39	C	0.462656	0.514797	0.000030
C40	C	0.462655	0.439929	0.000035
C41	C	0.323896	0.735420	-0.000002
C42	C	0.276801	0.735430	-0.000008
C43	C	0.462661	0.167919	0.000011
C44	C	0.430074	0.196171	0.032906
C45	C	0.429897	0.274289	0.032771
C46	C	0.462658	0.302866	0.000023
C47	C	0.438776	0.338423	-0.056383
C48	C	0.438531	0.260586	-0.056210
C49	C	0.519146	0.133397	0.023069
C50	C	0.519063	0.210450	0.024217
C51	C	0.462657	0.379135	0.000027
C52	C	0.462660	0.091655	0.000003
C53	C	0.011891	0.649232	0.027129
C54	C	-0.165094	0.649216	0.027139
O55	O	-0.164937	0.575947	0.050207
N56	N	-0.214320	0.735367	0.000037
C57	C	-0.219298	0.821527	-0.027067
O58	O	-0.265228	0.894803	-0.050115
C59	C	-0.042313	0.821543	-0.027074
C60	C	0.006911	0.735387	0.000026
C61	C	0.061113	0.563083	0.054227
C62	C	0.105356	0.563088	0.054222
C63	C	0.100377	0.649242	0.027119
C64	C	0.051155	0.735392	0.000021
C65	C	-0.047292	0.907703	-0.054175
C66	C	-0.003041	0.907699	-0.054173
C67	C	0.046184	0.821543	-0.027073
C68	C	0.090419	0.821551	-0.027088
N69	N	0.139644	0.735400	0.000015
C70	C	0.144623	0.649246	0.027118
C71	C	-0.312215	0.821513	-0.027063
C72	C	-0.356462	0.821510	-0.027062
C73	C	-0.302255	0.649198	0.027146
C74	C	-0.258008	0.649202	0.027142
C75	C	-0.262990	0.735363	0.000040
C76	C	0.237535	0.649263	0.027105
C77	C	0.281780	0.649276	0.027095
C78	C	0.227570	0.821587	-0.027110
C79	C	0.183329	0.821575	-0.027103
C80	C	0.188315	0.735405	0.000008
O81	O	0.090300	0.894781	-0.050139
O82	O	0.190558	0.575981	0.050172
C83	C	-0.032353	0.649227	0.027134
C84	C	-0.081575	0.735377	0.000036
C85	C	-0.086555	0.821531	-0.027067
C86	C	-0.125821	0.735373	0.000037
C87	C	-0.120842	0.649219	0.027140
C88	C	-0.071617	0.563068	0.054243
C89	C	-0.027374	0.563073	0.054237
C90	C	-0.135780	0.907681	-0.054170
C91	C	-0.180021	0.907669	-0.054163
C92	C	-0.175042	0.821515	-0.027060
C93	C	0.601423	0.735365	0.000035
C94	C	0.648518	0.735355	0.000042
C95	C	0.462657	0.735365	-0.138729
C96	C	0.462657	0.735355	-0.185818
C97	C	0.462662	0.955988	0.000003
C98	C	0.462663	1.030856	-0.000001
C99	C	0.435569	0.821553	-0.504955
C100	C	0.435569	0.821569	-0.681950
O101	O	0.412544	0.894838	-0.727886
N102	N	0.462664	0.735419	-0.676979
C103	C	0.489763	0.649258	-0.627754
O104	O	0.512813	0.575982	-0.627586
C105	C	0.489765	0.649242	-0.450759
C106	C	0.462664	0.735399	-0.455735
C107	C	0.408471	0.907702	-0.509928
C108	C	0.408469	0.907697	-0.465682
C109	C	0.435564	0.821543	-0.416462
C110	C	0.462662	0.735394	-0.411488
C111	C	0.516867	0.563082	-0.401535
C112	C	0.516866	0.563086	-0.357286
C113	C	0.489765	0.649242	-0.362262
C114	C	0.489756	0.649234	-0.318022
N115	N	0.462661	0.735385	-0.322994
C116	C	0.435565	0.821539	-0.372214
C117	C	0.489759	0.649272	-0.720680
C118	C	0.489758	0.649276	-0.764928
C119	C	0.435565	0.821587	-0.819122
C120	C	0.435563	0.821583	-0.774873
C121	C	0.462664	0.735423	-0.725652
C122	C	0.435563	0.821522	-0.279291
C123	C	0.435561	0.821510	-0.235038
C124	C	0.489756	0.649198	-0.180848
C125	C	0.489756	0.649210	-0.225097
C126	C	0.462658	0.735380	-0.274320
O127	O	0.512774	0.576004	-0.272072
O128	O	0.412528	0.894804	-0.372370
C129	C	0.435571	0.821558	-0.549201
C130	C	0.462669	0.735409	-0.544228
C131	C	0.489764	0.649254	-0.495008
C132	C	0.462667	0.735412	-0.588476
C133	C	0.435572	0.821566	-0.637696
C134	C	0.408477	0.907717	-0.642668
C135	C	0.408475	0.907712	-0.598421
C136	C	0.516859	0.563104	-0.490036
C137	C	0.516858	0.563116	-0.534285
C138	C	0.489763	0.649270	-0.583505
C139	C	0.462661	0.735420	0.138763
C140	C	0.462662	0.735430	0.185852
C141	C	0.601420	0.514769	0.000049
C142	C	0.648514	0.439892	0.000060
C143	C	0.462658	0.514825	0.138776
C144	C	0.462658	0.439966	0.185870
C145	C	0.601422	0.514797	0.138795
C146	C	0.648516	0.439929	0.185895
C147	C	0.323897	0.955988	-0.138761
C148	C	0.276802	1.030856	-0.185861
C149	C	0.323899	0.956016	-0.000015
C150	C	0.276805	1.030893	-0.000026
C151	C	0.462660	0.955960	-0.138742
C152	C	0.462661	1.030819	-0.185836
C153	C	0.643533	0.404729	-0.027036
C154	C	0.687779	0.334383	-0.027037
C155	C	0.737004	0.299197	0.000063
C156	C	0.741984	0.334367	0.027159
C157	C	0.697739	0.404717	0.027156
C158	C	0.489755	0.404812	0.235087
C159	C	0.489752	0.334484	0.279340
C160	C	0.462656	0.299307	0.274376
C161	C	0.435556	0.334469	0.225154
C162	C	0.435556	0.404800	0.180901
C163	C	0.697733	0.404759	0.180924
C164	C	0.741988	0.334423	0.225175
C165	C	0.737025	0.299252	0.274396
C166	C	0.687803	0.334429	0.279366
C167	C	0.643549	0.404769	0.235115
C168	C	0.227586	1.066034	-0.180890
C169	C	0.183331	1.136393	-0.225141
C170	C	0.188294	1.171567	-0.274363
C171	C	0.237516	1.136386	-0.279332
C172	C	0.281770	1.066033	-0.235082
C173	C	0.281786	1.066064	0.027066
C174	C	0.237540	1.136429	0.027053
C175	C	0.188314	1.171617	-0.000047
C176	C	0.183334	1.136444	-0.027142
C177	C	0.227580	1.066085	-0.027133
C178	C	0.489762	1.065973	-0.180855
C179	C	0.489772	1.136302	-0.225100
C180	C	0.462678	1.171479	-0.274326
C181	C	0.435576	1.136317	-0.279306
C182	C	0.435569	1.065985	-0.235061
H183	H	0.445917	0.247649	0.074306
Br184	Br	-0.191207	0.532272	0.063921
Br185	Br	0.562943	0.236440	-0.011563
H186	H	0.683714	0.305756	-0.049102
Br187	Br	0.116537	1.184122	-0.218385
Br188	Br	0.371701	1.024640	-0.709475
H189	H	0.413498	1.037370	-0.239124
H190	H	0.241605	1.165055	0.049119
Br191	Br	0.576757	0.452487	0.241871
Br192	Br	0.704508	0.452425	0.063936
H193	H	0.782062	0.305789	0.221119
Br194	Br	0.361049	0.239372	0.006514
H195	H	0.511820	0.433445	0.239138
Br196	Br	0.526534	0.286779	0.346135
H197	H	0.701784	0.433385	0.140849
H198	H	0.388233	0.338753	0.016783
H199	H	-0.316280	0.891679	-0.049136
H200	H	0.413517	1.164969	-0.319391
Br201	Br	0.526554	1.184010	-0.218330
H202	H	0.413492	0.433413	0.140829
Br203	Br	0.348587	1.018327	0.063848
Br204	Br	0.116524	1.184207	-0.063918
Br205	Br	0.553637	0.446178	-0.527523
H206	H	0.773027	0.241914	0.000061
Br207	Br	0.398773	0.938444	-0.241796
Br208	Br	0.128230	1.267047	-0.334413
Br209	Br	0.456642	0.088673	0.102317
H210	H	-0.139842	0.977840	-0.076242
Br211	Br	0.220810	1.018357	-0.063901
Br212	Br	0.808795	0.286602	0.063936
H213	H	0.396965	0.290132	-0.074669
H214	H	0.773063	0.241977	0.310424
Br215	Br	0.559803	0.101957	-0.016676
Br216	Br	0.526537	1.018249	-0.114055
H217	H	0.321843	1.037392	-0.239135
Br218	Br	0.475542	0.233972	-0.099273
Br219	Br	0.576732	0.452468	-0.063820
H220	H	0.683769	0.305783	0.319448
Br221	Br	0.244243	1.184131	-0.346137
Br222	Br	0.220836	1.018311	-0.114095
Br223	Br	0.462662	0.203857	0.334439
H224	H	0.413496	0.305817	0.221120
Br225	Br	0.128272	1.267106	-0.000055
H226	H	0.462688	1.228748	-0.310349
H227	H	0.461371	0.359306	-0.081955
Br228	Br	0.370160	0.450109	-0.087364
H229	H	0.539099	0.065354	0.063967
H230	H	0.321861	0.579114	0.049165
Br231	Br	0.548803	0.162542	0.093480
Br232	Br	0.244310	0.532318	0.063898
H233	H	0.065176	0.492922	0.076301
Br234	Br	0.172157	0.446155	0.091006
H235	H	-0.396539	0.891667	-0.049136
Br236	Br	-0.295506	0.532274	0.063928
H237	H	-0.007103	0.977863	-0.076236
Br238	Br	-0.114088	1.024637	-0.090952
H239	H	0.386403	0.977854	-0.469740
Br240	Br	0.116523	0.938502	-0.063894
Br241	Br	0.039427	0.446140	0.091018
Br242	Br	0.220823	0.938505	-0.063883
H243	H	-0.067570	0.492918	0.076308
Br244	Br	-0.246824	1.024607	-0.090947
Br245	Br	0.526525	0.532280	-0.114043
H246	H	0.386406	0.977863	-0.550003
Br247	Br	0.398787	0.938467	-0.346086
H248	H	0.413500	0.891738	-0.859206
Br249	Br	0.398784	0.938513	-0.781631
H250	H	0.511819	0.579119	-0.760871
H251	H	0.511829	0.579106	-0.680604
H252	H	0.538936	0.492922	-0.317209
Br253	Br	0.526528	0.532284	-0.218345
Br254	Br	0.553647	0.446148	-0.394769
H255	H	0.386407	0.977869	-0.602479
H256	H	0.538925	0.492945	-0.449962
