data_functionalizedCrystal
_audit_creation_method	'MofGen! by Chris Wilmer'
_symmetry_space_group_name_H-M	'P1'
_symmetry_Int_Tables_number	1
_symmetry_cell_setting	triclinic
loop_
_symmetry_equiv_pos_as_xyz
  x,y,z
_cell_length_a	11.792254
_cell_length_b	14.519731
_cell_length_c	10.868271
_cell_angle_alpha	89.993880
_cell_angle_beta	89.995741
_cell_angle_gamma	83.943725
loop_
_atom_site_label
_atom_site_type_symbol
_atom_site_fract_x
_atom_site_fract_y
_atom_site_fract_z
O1	O	1.506211	0.126459	-0.102324
O2	O	1.756211	0.376459	0.147676
O3	O	2.006211	0.626459	0.397676
O4	O	2.256211	0.876459	0.647676
O5	O	1.175801	0.139474	-0.102327
O6	O	1.425801	0.389474	0.147673
O7	O	1.675801	0.639474	0.397673
O8	O	1.925801	0.889474	0.647673
O9	O	1.349753	-0.001238	-0.102314
O10	O	1.599753	0.248762	0.147686
O11	O	1.849753	0.498762	0.397686
O12	O	2.099753	0.748762	0.647686
O13	O	1.332258	0.267171	-0.102337
O14	O	1.582258	0.517171	0.147663
O15	O	1.832258	0.767171	0.397663
O16	O	2.082258	1.017171	0.647663
O17	O	1.349739	-0.001244	0.102330
O18	O	1.599739	0.248756	0.352330
O19	O	1.849739	0.498756	0.602330
O20	O	2.099739	0.748756	0.852330
O21	O	1.175786	0.139468	0.102317
O22	O	1.425786	0.389468	0.352317
O23	O	1.675786	0.639468	0.602317
O24	O	1.925786	0.889468	0.852317
O25	O	1.506196	0.126453	0.102320
O26	O	1.756196	0.376453	0.352320
O27	O	2.006196	0.626453	0.602320
O28	O	2.256196	0.876453	0.852320
Zn29	Zn	1.340989	0.132960	0.134811
Zn30	Zn	1.590989	0.382960	0.384811
Zn31	Zn	1.840989	0.632960	0.634811
Zn32	Zn	2.090989	0.882960	0.884811
Zn33	Zn	1.341008	0.132967	-0.134817
Zn34	Zn	1.591008	0.382967	0.115183
Zn35	Zn	1.841008	0.632967	0.365183
Zn36	Zn	2.091008	0.882967	0.615183
O37	O	1.332244	0.267166	0.102308
O38	O	1.582244	0.517166	0.352308
O39	O	1.832244	0.767166	0.602308
O40	O	2.082244	1.017166	0.852308
C41	C	1.133507	0.138651	-0.000005
C42	C	1.383507	0.388651	0.249995
C43	C	1.633507	0.638651	0.499995
C44	C	1.883507	0.888651	0.749995
C45	C	1.007508	0.136197	-0.000006
C46	C	1.257508	0.386197	0.249994
C47	C	1.507508	0.636197	0.499994
C48	C	1.757508	0.886197	0.749994
C49	C	0.905182	0.134203	-0.000011
C50	C	1.155182	0.384203	0.249989
C51	C	1.405182	0.634203	0.499989
C52	C	1.655182	0.884203	0.749989
C53	C	0.776809	0.131710	-0.000012
C54	C	1.026809	0.381710	0.249988
C55	C	1.276809	0.631710	0.499988
C56	C	1.526809	0.881710	0.749988
C57	C	1.348926	-0.035604	0.000008
C58	C	1.598926	0.214396	0.250008
C59	C	1.848926	0.464396	0.500008
C60	C	2.098926	0.714396	0.750008
C61	C	1.346470	-0.137993	0.000009
C62	C	1.596470	0.112007	0.250009
C63	C	1.846470	0.362007	0.500009
C64	C	2.096470	0.612007	0.750009
C65	C	1.344474	-0.221145	0.000006
C66	C	1.594474	0.028855	0.250006
C67	C	1.844474	0.278855	0.500006
C68	C	2.094474	0.528855	0.750006
C69	C	1.341980	-0.325463	-0.000003
C70	C	1.591980	-0.075463	0.249997
C71	C	1.841980	0.174537	0.499997
C72	C	2.091980	0.424537	0.749997
C73	C	1.340000	-0.408609	-0.000011
C74	C	1.590000	-0.158609	0.249989
C75	C	1.840000	0.091391	0.499989
C76	C	2.090000	0.341391	0.749989
C77	C	1.337506	-0.512934	-0.000018
C78	C	1.587506	-0.262934	0.249982
C79	C	1.837506	-0.012934	0.499982
C80	C	2.087506	0.237066	0.749982
C81	C	1.548490	0.127276	-0.000004
C82	C	1.798490	0.377276	0.249996
C83	C	2.048490	0.627276	0.499996
C84	C	2.298490	0.877276	0.749996
C85	C	1.674489	0.129730	-0.000012
C86	C	1.924489	0.379730	0.249988
C87	C	2.174489	0.629730	0.499988
C88	C	2.424489	0.879730	0.749988
C89	C	1.333071	0.301531	-0.000018
C90	C	1.583071	0.551531	0.249982
C91	C	1.833071	0.801531	0.499982
C92	C	2.083071	1.051531	0.749982
C93	C	1.335527	0.403920	-0.000026
C94	C	1.585527	0.653920	0.249974
C95	C	1.835527	0.903920	0.499974
C96	C	2.085527	1.153920	0.749974
N97	N	1.340984	0.132954	0.318825
N98	N	1.590984	0.382954	0.568825
N99	N	1.840984	0.632954	0.818825
N100	N	2.090984	0.882954	1.068825
N101	N	1.341021	0.132965	-0.318831
N102	N	1.591021	0.382965	-0.068831
N103	N	1.841021	0.632965	0.181169
N104	N	2.091021	0.882965	0.431169
C105	C	1.341002	0.132965	0.569831
C106	C	1.591002	0.382965	0.819831
C107	C	1.841002	0.632965	1.069831
C108	C	2.091002	0.882965	1.319831
C109	C	1.340989	0.132962	0.430153
C110	C	1.590989	0.382962	0.680153
C111	C	1.840989	0.632962	0.930153
C112	C	2.090989	0.882962	1.180153
