data_functionalizedCrystal
_audit_creation_method	'MofGen! by Chris Wilmer'
_symmetry_space_group_name_H-M	'P1'
_symmetry_Int_Tables_number	1
_symmetry_cell_setting	triclinic
loop_
_symmetry_equiv_pos_as_xyz
  x,y,z
_cell_length_a	23.532407
_cell_length_b	22.010155
_cell_length_c	23.532407
_cell_angle_alpha	89.999577
_cell_angle_beta	97.151322
_cell_angle_gamma	90.003069
loop_
_atom_site_label
_atom_site_type_symbol
_atom_site_fract_x
_atom_site_fract_y
_atom_site_fract_z
O1	O	0.755264	0.050455	-0.069127
O2	O	0.589400	0.050474	-0.079130
O3	O	0.677334	0.050453	0.008803
O4	O	0.667330	0.050476	-0.157060
O5	O	0.677318	-0.050597	0.008790
O6	O	0.589384	-0.050576	-0.079143
O7	O	0.755248	-0.050595	-0.069140
Cu8	Cu	0.672315	-0.059812	-0.074143
Cu9	Cu	0.672333	0.059691	-0.074127
O10	O	0.667314	-0.050574	-0.157073
C11	C	0.568176	-0.000049	-0.078882
C12	C	0.504959	-0.000042	-0.078116
N13	N	0.672305	-0.143865	-0.074153
C14	C	0.105856	-0.000063	-0.125350
C15	C	0.046456	-0.000067	-0.124638
O16	O	0.009711	-0.000083	-0.168424
N17	N	0.023830	-0.000073	-0.072362
C18	C	0.060607	-0.000082	-0.020794
O19	O	0.035908	-0.000088	0.023737
C20	C	0.120006	-0.000082	-0.021506
C21	C	0.142629	-0.000070	-0.073785
C22	C	0.128479	-0.000051	-0.177625
C23	C	0.187876	-0.000046	-0.178336
C24	C	0.224649	-0.000053	-0.126772
C25	C	0.202025	-0.000065	-0.074497
C26	C	0.156783	-0.000096	0.030062
C27	C	0.216185	-0.000097	0.029345
C28	C	0.238808	-0.000084	-0.022934
C29	C	0.298194	-0.000067	-0.023643
N30	N	0.320820	-0.000061	-0.075920
C31	C	0.284048	-0.000054	-0.127484
C32	C	-0.064135	-0.000082	-0.019302
C33	C	-0.123533	-0.000077	-0.018589
C34	C	-0.137680	-0.000063	-0.122434
C35	C	-0.078281	-0.000064	-0.123146
C36	C	-0.041509	-0.000076	-0.071578
C37	C	0.408784	-0.000043	-0.128974
C38	C	0.468186	-0.000035	-0.129680
C39	C	0.482329	-0.000052	-0.025836
C40	C	0.422932	-0.000057	-0.025129
C41	C	0.386160	-0.000054	-0.076702
O42	O	0.334974	-0.000054	0.020119
O43	O	0.308755	-0.000055	-0.172007
C44	C	0.711273	-0.563653	-0.035196
C45	C	0.711275	-0.627261	-0.035192
O46	O	0.744384	-0.660160	-0.002076
N47	N	0.672333	-0.659072	-0.074115
C48	C	0.633382	-0.627272	-0.113041
O49	O	0.600259	-0.660170	-0.146148
C50	C	0.633377	-0.563665	-0.113042
C51	C	0.672326	-0.531858	-0.074120
C52	C	0.750217	-0.531846	0.003723
C53	C	0.750215	-0.468243	0.003719
C54	C	0.711268	-0.436447	-0.035205
C55	C	0.672324	-0.468255	-0.074125
C56	C	0.594424	-0.531866	-0.151965
C57	C	0.594422	-0.468256	-0.151962
C58	C	0.633370	-0.436448	-0.113040
C59	C	0.633374	-0.372856	-0.113054
N60	N	0.672317	-0.341045	-0.074130
C61	C	0.711263	-0.372841	-0.035206
C62	C	0.633395	-0.760850	-0.113036
C63	C	0.633402	-0.824455	-0.113039
C64	C	0.711294	-0.824440	-0.035188
C65	C	0.711290	-0.760833	-0.035189
C66	C	0.672337	-0.729039	-0.074113
C67	C	0.711256	-0.239269	-0.035220
C68	C	0.711252	-0.175660	-0.035229
C69	C	0.633358	-0.175681	-0.113077
C70	C	0.633364	-0.239284	-0.113070
C71	C	0.672315	-0.271077	-0.074136
O72	O	0.600282	-0.339916	-0.146151
O73	O	0.744376	-0.339935	-0.002100
C74	C	0.776472	-0.000071	-0.069388
C75	C	0.839689	-0.000073	-0.070154
C76	C	0.677071	-0.000074	0.030013
C77	C	0.676305	-0.000078	0.093230
N78	N	0.672347	0.143744	-0.074112
C79	C	0.667577	-0.000046	-0.178283
C80	C	0.668343	-0.000037	-0.241500
C81	C	0.723539	-0.000050	0.492333
C82	C	0.722827	-0.000046	0.551733
O83	O	0.766613	-0.000028	0.588478
N84	N	0.670551	-0.000040	0.574359
C85	C	0.618983	-0.000033	0.537582
O86	O	0.574452	-0.000027	0.562281
C87	C	0.619695	-0.000033	0.478182
C88	C	0.671974	-0.000045	0.455560
C89	C	0.775814	-0.000061	0.469710
C90	C	0.776525	-0.000067	0.410313
C91	C	0.724961	-0.000062	0.373540
C92	C	0.672685	-0.000051	0.396164
C93	C	0.568127	-0.000022	0.441406
C94	C	0.568844	-0.000022	0.382004
C95	C	0.621123	-0.000034	0.359381
C96	C	0.621832	-0.000052	0.299995
N97	N	0.674109	-0.000057	0.277368
C98	C	0.725673	-0.000062	0.314141
C99	C	0.617491	-0.000031	0.662324
C100	C	0.616778	-0.000035	0.721722
C101	C	0.720623	-0.000047	0.735869
C102	C	0.721335	-0.000047	0.676470
C103	C	0.669767	-0.000037	0.639698
C104	C	0.727163	-0.000075	0.189405
C105	C	0.727869	-0.000083	0.130003
C106	C	0.624025	-0.000069	0.115860
C107	C	0.623318	-0.000064	0.175257
C108	C	0.674891	-0.000065	0.212029
O109	O	0.578070	-0.000067	0.263215
O110	O	0.770196	-0.000060	0.289433
H111	H	0.378851	-0.000042	-0.170970
H112	H	0.770443	-0.000094	0.111587
C113	C	0.834032	-0.000076	0.385433
H114	H	0.827078	-0.000082	0.344790
H115	H	0.855253	0.035160	0.398077
H116	H	0.855240	-0.035322	0.398079
C117	C	0.832540	-0.000072	0.510151
H118	H	0.863770	-0.000083	0.488162
H119	H	0.834436	0.035164	0.533621
H120	H	0.834415	-0.035317	0.533613
C121	C	0.590501	-0.274274	-0.155861
H122	H	0.567297	-0.246225	-0.179034
H123	H	0.610823	-0.299105	-0.179473
H124	H	0.566919	-0.299068	-0.135461
H125	H	0.762610	-0.000048	0.765821
C126	C	0.493068	-0.000025	-0.187190
H127	H	0.462657	-0.000028	-0.217797
H128	H	0.515946	0.035215	-0.189625
H129	H	0.515944	-0.035267	-0.189631
H130	H	0.404512	-0.000058	0.017441
C131	C	0.559271	-0.000028	0.746601
H132	H	0.528666	-0.000021	0.716188
H133	H	0.556825	-0.035262	0.769481
H134	H	0.556840	0.035219	0.769473
C135	C	0.551576	-0.433282	-0.194780
H136	H	0.557147	-0.390844	-0.189208
H137	H	0.557542	-0.443710	-0.232758
H138	H	0.513603	-0.443711	-0.188781
C139	C	0.754134	-0.859420	0.007632
H140	H	0.777332	-0.831370	0.030813
H141	H	0.733782	-0.884235	0.031234
H142	H	0.777725	-0.884231	-0.012739
C143	C	-0.148414	-0.000080	0.038916
H144	H	-0.189057	-0.000076	0.031961
H145	H	-0.135771	-0.035319	0.060131
H146	H	-0.135769	0.035162	0.060133
H147	H	0.742971	-0.149765	-0.003534
H148	H	0.575496	-0.000028	0.632386
H149	H	0.206289	-0.000036	-0.220908
C150	C	0.522786	-0.000065	0.030880
H151	H	0.561400	-0.000068	0.022964
H152	H	0.515965	0.035167	0.052342
H153	H	0.515957	-0.035315	0.052320
C154	C	0.510618	-0.000004	0.466278
H155	H	0.480016	0.000007	0.435863
H156	H	0.508166	-0.035239	0.489157
H157	H	0.508189	0.035242	0.489151
H158	H	0.781929	-0.442349	0.035414
H159	H	0.601650	-0.149783	-0.144771
H160	H	0.769159	-0.000073	0.219337
C161	C	-0.053402	-0.000055	-0.180653
H162	H	-0.083814	-0.000054	-0.211258
H163	H	-0.030520	0.035182	-0.183088
H164	H	-0.030530	-0.035300	-0.183096
H165	H	0.526850	-0.000013	0.352066
C166	C	0.131911	-0.000118	0.087571
H167	H	0.162326	-0.000131	0.118173
H168	H	0.109034	0.035117	0.090024
H169	H	0.109036	-0.035365	0.089999
C170	C	0.778842	-0.000054	0.651591
H171	H	0.809447	-0.000054	0.682003
H172	H	0.781276	-0.035291	0.628711
H173	H	0.781286	0.035190	0.628717
C174	C	0.754104	-0.274232	0.007604
H175	H	0.777298	-0.246172	0.030776
H176	H	0.733760	-0.299047	0.031214
H177	H	0.777698	-0.299042	-0.012764
C178	C	0.793066	-0.566811	0.046541
H179	H	0.816258	-0.538750	0.069713
H180	H	0.772726	-0.591630	0.070151
H181	H	0.816661	-0.591617	0.026170
H182	H	0.098544	-0.000048	-0.219617
C183	C	0.565812	-0.000050	0.200144
H184	H	0.535205	-0.000043	0.169733
H185	H	0.563364	-0.035281	0.223029
H186	H	0.563386	0.035201	0.223013
C187	C	0.567307	-0.000059	0.075406
H188	H	0.536068	-0.000055	0.097383
H189	H	0.565439	0.035179	0.051940
H190	H	0.565420	-0.035302	0.051940
H191	H	-0.034198	-0.000086	0.022693
H192	H	-0.167632	-0.000060	-0.164421
H193	H	0.246123	-0.000107	0.071339
H194	H	0.743004	-0.734939	-0.003495
H195	H	0.601692	-0.850348	-0.144738
H196	H	0.601676	-0.734966	-0.144737
H197	H	0.562708	-0.557755	-0.183658
