data_functionalizedCrystal
_audit_creation_method	'MofGen! by Chris Wilmer'
_symmetry_space_group_name_H-M	'P1'
_symmetry_Int_Tables_number	1
_symmetry_cell_setting	triclinic
loop_
_symmetry_equiv_pos_as_xyz
  x,y,z
_cell_length_a	6.817900
_cell_length_b	17.284672
_cell_length_c	17.078481
_cell_angle_alpha	92.839858
_cell_angle_beta	99.306161
_cell_angle_gamma	103.040903
loop_
_atom_site_label
_atom_site_type_symbol
_atom_site_fract_x
_atom_site_fract_y
_atom_site_fract_z
V1	V	-3.974048	-0.108879	-0.240610
O2	O	-3.968323	0.005421	-0.242989
O3	O	-3.920387	-0.216071	-0.232272
O4	O	-3.905184	-0.107121	-0.348602
O5	O	-3.983632	-0.104283	-0.125853
V6	V	-4.461009	-0.095217	-0.227697
O7	O	-4.227764	-0.138847	-0.268936
O8	O	-4.657490	-0.065249	-0.199372
O9	O	-4.291464	0.011975	-0.236036
O10	O	-4.584131	-0.209518	-0.225319
O11	O	-4.568822	-0.099814	-0.342454
O12	O	-4.306667	-0.096975	-0.119706
C13	C	-3.764770	-0.242205	-0.226749
C14	C	-3.802046	-0.329835	-0.220651
C15	C	-3.845390	-0.382209	-0.289742
C16	C	-3.880394	-0.464546	-0.284005
C17	C	-3.872067	-0.494507	-0.209177
C18	C	-3.828713	-0.442126	-0.140081
C19	C	-3.793696	-0.359790	-0.145818
C20	C	-3.974012	-0.739550	-0.184301
C21	C	-4.009040	-0.821892	-0.178568
C22	C	-4.060715	-0.844306	-0.322493
C23	C	-4.025706	-0.761969	-0.328224
C24	C	-3.982345	-0.709595	-0.259128
N25	N	-3.907853	-0.578668	-0.203311
N26	N	-3.946546	-0.625435	-0.264995
C27	C	-3.745376	-0.103227	-0.375139
C28	C	-3.770321	-0.102499	-0.463379
C29	C	-3.963179	-0.106092	-0.508632
C30	C	-3.986605	-0.105408	-0.591543
C31	C	-3.817174	-0.101136	-0.629199
C32	C	-3.624299	-0.097540	-0.583940
C33	C	-3.600873	-0.098219	-0.501030
C34	C	-3.867810	-0.098679	-0.876755
C35	C	-3.891253	-0.098003	-0.959671
C36	C	-4.253558	-0.105869	-0.967268
C37	C	-4.230117	-0.106552	-0.884357
C38	C	-4.037243	-0.102952	-0.839104
N39	N	-3.841116	-0.100439	-0.713947
N40	N	-4.013301	-0.103644	-0.754357
C41	C	-4.110423	0.038104	-0.241556
C42	C	-4.052384	0.125734	-0.247659
C43	C	-4.129817	-0.100872	-0.093164
C44	C	-4.084111	-0.101596	-0.004924
H45	H	-3.915686	-0.507187	-0.340266
H46	H	-3.443820	-0.095274	-0.464184
H47	H	-3.710777	-0.095776	-0.839923
H48	H	-3.852201	-0.357823	-0.350676
O49	O	-4.033771	-0.732998	-0.400974
C50	C	-4.079582	-0.796883	-0.460728
H51	H	-4.034057	-0.850896	-0.434254
H52	H	-4.250684	-0.812617	-0.485511
C53	C	-4.015903	-0.706113	-0.560798
C54	C	-3.959972	-0.772450	-0.528284
H55	H	-3.942132	-0.691041	-0.602472
H56	H	-3.985047	-0.663071	-0.520541
H57	H	-4.158489	-0.719233	-0.581444
H58	H	-3.817395	-0.759326	-0.507629
H59	H	-3.990802	-0.815489	-0.568539
H60	H	-4.002249	-0.846282	-0.117631
O61	O	-4.102756	-0.895291	-0.389527
C62	C	-4.131930	-0.974388	-0.368424
H63	H	-4.051599	-0.974609	-0.304507
H64	H	-4.302528	-1.001817	-0.373475
C65	C	-4.140523	-1.023171	-0.503393
C66	C	-4.041845	-1.023442	-0.424891
H67	H	-4.084965	-1.053431	-0.538226
H68	H	-4.120877	-0.969882	-0.517612
H69	H	-4.282683	-1.046026	-0.507591
H70	H	-3.899694	-1.000578	-0.420692
H71	H	-4.061466	-1.076728	-0.410672
H72	H	-4.143645	-0.108329	-0.628384
H73	H	-3.938725	-0.696917	-0.128038
H74	H	-3.821924	-0.466526	-0.079154
H75	H	-4.368090	-0.110030	-0.853703
O76	O	-4.441008	-0.109507	-1.011209
C77	C	-4.578113	-0.180636	-0.999753
H78	H	-4.488474	-0.226451	-0.979282
H79	H	-4.670101	-0.167978	-0.952529
C80	C	-4.834804	-0.157275	-1.103829
C81	C	-4.724708	-0.213548	-1.078692
H82	H	-4.925238	-0.177576	-1.152520
H83	H	-4.742438	-0.109353	-1.111545
H84	H	-4.911443	-0.146731	-1.064469
H85	H	-4.648053	-0.224083	-1.118047
H86	H	-4.817066	-0.261473	-1.070984
H87	H	-3.758393	-0.317147	-0.089557
O88	O	-3.726530	-0.093703	-0.996204
C89	C	-3.577972	-0.022902	-0.967116
H90	H	-3.654731	0.022538	-0.941994
H91	H	-3.458772	-0.036341	-0.918098
C92	C	-3.378753	-0.044600	-1.066350
C93	C	-3.473031	0.011213	-1.035501
H94	H	-3.314012	-0.023557	-1.108531
H95	H	-3.478834	-0.092302	-1.085946
H96	H	-3.279433	-0.055795	-1.025495
H97	H	-3.572366	0.022399	-1.076353
H98	H	-3.372964	0.058918	-1.015913
H99	H	-4.101156	-0.109576	-0.477979
H100	H	-3.486344	-0.094057	-0.614606
