data_functionalizedCrystal
_audit_creation_method	'MofGen! by Chris Wilmer'
_symmetry_space_group_name_H-M	'P1'
_symmetry_Int_Tables_number	1
_symmetry_cell_setting	triclinic
loop_
_symmetry_equiv_pos_as_xyz
  x,y,z
_cell_length_a	12.784890
_cell_length_b	23.532357
_cell_length_c	22.610064
_cell_angle_alpha	89.994951
_cell_angle_beta	89.999495
_cell_angle_gamma	77.967425
loop_
_atom_site_label
_atom_site_type_symbol
_atom_site_fract_x
_atom_site_fract_y
_atom_site_fract_z
O1	O	1.410278	0.003552	0.049167
O2	O	1.100557	0.027957	0.049174
O3	O	1.264785	-0.067615	0.049158
O4	O	1.246050	0.099124	0.049183
O5	O	1.264773	-0.067592	-0.049211
O6	O	1.100545	0.027979	-0.049195
O7	O	1.410267	0.003575	-0.049202
Zn8	Zn	1.255404	0.015781	-0.064817
Zn9	Zn	1.255419	0.015751	0.064789
O10	O	1.246039	0.099147	-0.049186
C11	C	1.060934	0.029555	-0.000009
C12	C	0.942889	0.034278	-0.000007
C13	C	1.264311	-0.088798	-0.000028
C14	C	1.262902	-0.151951	-0.000034
C15	C	0.763268	0.093466	0.000003
C16	C	0.874181	0.089032	0.000002
C17	C	0.900677	-0.016046	-0.000014
C18	C	0.789763	-0.011613	-0.000013
C19	C	0.721062	0.043145	-0.000006
C20	C	0.610147	0.047578	-0.000009
C21	C	0.636645	-0.057500	-0.000021
C22	C	0.747558	-0.061934	-0.000021
C23	C	1.254063	-0.543564	0.053619
C24	C	1.252724	-0.602901	0.053623
O25	O	1.252000	-0.633594	0.099225
N26	N	1.252053	-0.632569	0.000003
C27	C	1.252711	-0.602895	-0.053625
O28	O	1.252017	-0.633578	-0.099233
C29	C	1.254043	-0.543558	-0.053627
C30	C	1.254724	-0.513895	-0.000004
C31	C	1.254743	-0.513900	0.107239
C32	C	1.256084	-0.454567	0.107235
C33	C	1.256745	-0.424898	0.053612
C34	C	1.256065	-0.454562	-0.000007
C35	C	1.254694	-0.513884	-0.107254
C36	C	1.256025	-0.454543	-0.107252
C37	C	1.256706	-0.424880	-0.053628
C38	C	1.258068	-0.365560	-0.053634
N39	N	1.258738	-0.335892	-0.000014
C40	C	1.258077	-0.365561	0.053609
C41	C	1.249913	-0.727506	-0.053615
C42	C	1.248589	-0.786843	-0.053613
C43	C	1.248599	-0.786845	0.053635
C44	C	1.249931	-0.727508	0.053632
C45	C	1.250583	-0.697839	0.000006
C46	C	1.260895	-0.240958	0.053598
C47	C	1.262240	-0.181620	0.053589
C48	C	1.262224	-0.181623	-0.053658
C49	C	1.260884	-0.240956	-0.053650
C50	C	1.260216	-0.270622	-0.000017
O51	O	1.258788	-0.334828	-0.099213
O52	O	1.258757	-0.334869	0.099210
C53	C	1.449889	0.001977	-0.000017
C54	C	1.567935	-0.002746	-0.000016
C55	C	1.246513	0.120330	0.000002
C56	C	1.247922	0.183483	0.000011
N57	N	1.255402	0.015801	-0.153269
C58	C	1.182658	0.058074	-0.438110
C59	C	1.182655	0.058080	-0.376190
O60	O	1.120774	0.094048	-0.344166
N61	N	1.255394	0.015779	-0.345222
C62	C	1.328134	-0.026535	-0.376176
O63	O	1.390003	-0.062515	-0.344149
C64	C	1.328131	-0.026542	-0.438095
C65	C	1.255394	0.015765	-0.469060
C66	C	1.109927	0.100378	-0.469076
C67	C	1.109931	0.100372	-0.530991
C68	C	1.182667	0.058064	-0.561942
C69	C	1.255399	0.015760	-0.530976
C70	C	1.400865	-0.068857	-0.469048
C71	C	1.400855	-0.068861	-0.530971
C72	C	1.328118	-0.026554	-0.561937
C73	C	1.328140	-0.026554	-0.623842
N74	N	1.255400	0.015747	-0.654810
C75	C	1.182664	0.058056	-0.623860
C76	C	1.328133	-0.026516	-0.246142
C77	C	1.328142	-0.026506	-0.184225
C78	C	1.182662	0.058107	-0.184243
C79	C	1.182659	0.058100	-0.246162
C80	C	1.255394	0.015785	-0.277111
C81	C	1.182680	0.058042	-0.753888
C82	C	1.182694	0.058035	-0.815809
C83	C	1.328170	-0.026580	-0.815785
C84	C	1.328160	-0.026571	-0.753869
C85	C	1.255406	0.015743	-0.722922
O86	O	1.389987	-0.062506	-0.655906
O87	O	1.120796	0.094026	-0.655895
N88	N	1.255430	0.015726	0.153241
H89	H	0.707330	0.138052	0.000001
H90	H	1.050700	0.134821	-0.556200
N91	N	1.479314	-0.114493	-0.435662
H92	H	1.468292	-0.108076	-0.391738
H93	H	1.554679	-0.111624	-0.446492
H94	H	1.387399	-0.061017	-0.728656
N95	N	0.974783	-0.075102	-0.000017
H96	H	1.051449	-0.070272	-0.000015
H97	H	0.961185	-0.097262	-0.036488
H98	H	1.123436	0.092498	-0.728697
N99	N	1.247930	-0.818870	0.111465
H100	H	1.314116	-0.816434	0.134891
H101	H	1.246958	-0.860944	0.103260
H102	H	1.248051	-0.810992	-0.097278
N103	N	0.591121	-0.111778	-0.000026
H104	H	0.651476	-0.147137	-0.000032
H105	H	0.545681	-0.112217	-0.036495
N106	N	1.260174	-0.272954	-0.111487
H107	H	1.325553	-0.305458	-0.113875
H108	H	1.260767	-0.245110	-0.145420
N109	N	1.031463	0.146012	-0.435700
H110	H	0.985394	0.172804	-0.464721
H111	H	1.071892	0.169207	-0.410017
H112	H	0.908539	0.130009	0.000007
N113	N	1.479317	-0.114500	-0.564348
H114	H	1.526164	-0.095044	-0.590041
H115	H	1.438887	-0.137722	-0.590000
N116	N	1.250629	-0.695509	-0.111459
H117	H	1.250005	-0.723312	-0.145422
H118	H	1.317119	-0.678776	-0.113799
N119	N	0.536060	0.106640	-0.000014
H120	H	0.549571	0.128833	0.036453
H121	H	0.459418	0.101774	-0.000042
H122	H	1.250484	-0.703360	0.097298
N123	N	0.821658	-0.120991	-0.000028
H124	H	0.898327	-0.116165	-0.000027
H125	H	0.808053	-0.143147	-0.036500
H126	H	1.262797	-0.157471	0.097258
H127	H	1.260345	-0.265104	0.097270
H128	H	1.254141	-0.538026	-0.150920
H129	H	1.256635	-0.430420	0.150901
N130	N	1.254102	-0.545903	0.165080
H131	H	1.254760	-0.518102	0.199041
H132	H	1.319513	-0.578392	0.167388
N133	N	1.104230	0.103666	-0.849204
H134	H	1.057389	0.084203	-0.874890
H135	H	1.144660	0.126884	-0.874864
H136	H	1.256540	-0.430388	-0.150923
H137	H	1.262768	-0.157456	-0.097317
N138	N	1.406622	-0.072210	-0.849172
H139	H	1.395578	-0.065791	-0.893096
H140	H	1.394779	-0.112029	-0.838344
H141	H	1.123430	0.092550	-0.271371
N142	N	1.104207	0.103742	-0.150856
H143	H	1.115249	0.097322	-0.106932
H144	H	1.028840	0.100869	-0.161674
H145	H	1.387372	-0.060973	-0.271338
N146	N	1.406608	-0.072131	-0.150830
H147	H	1.452683	-0.098931	-0.179838
H148	H	1.366178	-0.095320	-0.125135
