data_functionalizedCrystal
_audit_creation_method	'MofGen! by Chris Wilmer'
_symmetry_space_group_name_H-M	'P1'
_symmetry_Int_Tables_number	1
_symmetry_cell_setting	triclinic
loop_
_symmetry_equiv_pos_as_xyz
  x,y,z
_cell_length_a	27.732048
_cell_length_b	10.654550
_cell_length_c	9.730223
_cell_angle_alpha	89.995747
_cell_angle_beta	90.002210
_cell_angle_gamma	83.563793
loop_
_atom_site_label
_atom_site_type_symbol
_atom_site_fract_x
_atom_site_fract_y
_atom_site_fract_z
O1	O	0.641857	0.149416	-0.114113
O2	O	0.501205	0.172135	-0.114154
O3	O	0.574765	-0.022100	-0.114124
O4	O	0.568297	0.343651	-0.114143
O5	O	0.574760	-0.022105	0.114456
O6	O	0.501200	0.172130	0.114426
O7	O	0.641852	0.149411	0.114467
Zn8	Zn	0.571525	0.160770	0.150738
Zn9	Zn	0.571532	0.160776	-0.150425
O10	O	0.568292	0.343646	0.114437
C11	C	0.574287	-0.068880	0.000165
C12	C	0.572867	-0.208264	0.000163
C13	C	0.483193	0.171655	0.000130
C14	C	0.429529	0.170219	0.000115
C15	C	0.616177	-0.289570	0.000175
C16	C	0.614840	-0.420535	0.000158
C17	C	0.526876	-0.388874	0.000122
C18	C	0.528215	-0.257912	0.000129
C19	C	0.091372	0.275959	0.000169
C20	C	-0.110321	0.270631	0.000181
O21	O	-0.140974	0.367322	0.000236
N22	N	-0.130162	0.155458	0.000185
C23	C	-0.099576	0.041609	0.000194
O24	O	-0.121080	-0.056475	0.000212
C25	C	0.102116	0.046938	0.000192
C26	C	0.121954	0.162118	0.000174
C27	C	0.111211	0.391130	0.000153
C28	C	0.161631	0.392461	0.000142
C29	C	0.192213	0.278620	0.000148
C30	C	0.172374	0.163449	0.000164
C31	C	0.132701	-0.066910	0.000211
C32	C	0.183126	-0.065567	0.000214
C33	C	0.202964	0.049613	0.000196
C34	C	0.253376	0.050940	0.000158
N35	N	0.273217	0.166113	0.000155
C36	C	0.242635	0.279953	0.000149
C37	C	-0.205467	0.038819	0.000193
C38	C	-0.255890	0.037486	0.000191
C39	C	-0.266631	0.266509	0.000181
C40	C	-0.216208	0.267840	0.000173
C41	C	-0.185626	0.153992	0.000190
C42	C	0.348522	0.282739	0.000126
C43	C	0.398947	0.284060	0.000109
C44	C	0.409684	0.055038	0.000127
C45	C	0.359263	0.053716	0.000136
C46	C	0.328683	0.167577	0.000140
O47	O	0.284058	-0.045700	0.000119
O48	O	0.264149	0.378023	0.000162
C49	C	0.040952	0.274628	0.000179
C50	C	0.021113	0.159457	0.000195
C51	C	0.051695	0.045616	0.000201
C52	C	-0.029309	0.158124	0.000194
C53	C	-0.059891	0.271965	0.000188
C54	C	-0.040050	0.387138	0.000185
C55	C	0.010370	0.388468	0.000174
C56	C	0.031854	-0.069557	0.000204
C57	C	-0.018567	-0.070878	0.000213
C58	C	-0.049148	0.042962	0.000208
C59	C	0.659864	0.149890	0.000179
C60	C	0.713528	0.151326	0.000186
C61	C	0.568769	0.390426	0.000145
C62	C	0.570190	0.529810	0.000138
N63	N	0.571525	0.160764	0.356275
N64	N	0.571536	0.160772	-0.355962
C65	C	0.604108	0.074793	0.428214
C66	C	0.604113	0.074793	0.572097
C67	C	0.538949	0.246747	0.572089
C68	C	0.538942	0.246740	0.428208
H69	H	0.652536	-0.249152	0.000199
H70	H	0.343110	-0.040073	0.000130
H71	H	0.512422	0.316749	0.630671
H72	H	0.650108	-0.486730	0.000165
O73	O	0.478717	-0.442421	0.000115
H74	H	0.485061	-0.547147	0.000132
O75	O	-0.299624	0.389293	0.000187
H76	H	-0.277362	0.469615	0.000182
H77	H	0.492943	-0.191708	0.000115
O78	O	0.503793	0.339458	0.350598
H79	H	0.524335	0.400116	0.285012
O80	O	0.420345	0.408294	0.000113
H81	H	0.390605	0.487227	0.000132
H82	H	0.323629	0.375456	0.000133
H83	H	0.086316	0.483838	0.000153
O84	O	0.183026	0.516691	0.000164
H85	H	0.153283	0.595616	0.000185
O86	O	-0.194814	0.392072	0.000182
H87	H	-0.207073	0.446735	-0.092979
O88	O	-0.277286	-0.086743	0.000207
H89	H	-0.247544	-0.165672	0.000229
H90	H	-0.180572	-0.053896	0.000207
O91	O	0.111311	-0.191141	0.000259
H92	H	0.141054	-0.270064	0.000288
H93	H	0.208024	-0.158279	0.000228
O94	O	0.639262	-0.017917	0.649694
H95	H	0.661920	-0.077688	0.575497
H96	H	0.630638	0.004784	0.369649
H97	H	0.434592	-0.037648	0.000126
H98	H	-0.064959	0.479831	0.000175
O99	O	0.031761	0.512704	0.000184
H100	H	0.019499	0.567369	-0.092973
O101	O	-0.039962	-0.195116	0.000246
H102	H	-0.010220	-0.274045	0.000266
H103	H	0.056749	-0.162261	0.000212
