data_functionalizedCrystal
_audit_creation_method	'MofGen! by Chris Wilmer'
_symmetry_space_group_name_H-M	'P1'
_symmetry_Int_Tables_number	1
_symmetry_cell_setting	triclinic
loop_
_symmetry_equiv_pos_as_xyz
  x,y,z
_cell_length_a	25.639239
_cell_length_b	19.805407
_cell_length_c	19.805399
_cell_angle_alpha	89.980427
_cell_angle_beta	89.971274
_cell_angle_gamma	90.038686
loop_
_atom_site_label
_atom_site_type_symbol
_atom_site_fract_x
_atom_site_fract_y
_atom_site_fract_z
Zn1	Zn	-0.208163	1.034678	-0.382714
Zn2	Zn	-0.295597	1.034569	-0.269524
Zn3	Zn	-0.208177	0.921493	-0.269539
Zn4	Zn	-0.295569	0.921432	-0.382670
O5	O	-0.251877	0.978043	-0.326112
O6	O	-0.219767	1.129380	-0.367711
O7	O	-0.284018	1.019548	-0.174809
O8	O	-0.135010	0.936578	-0.284576
O9	O	-0.284004	1.129300	-0.284551
O10	O	-0.135000	1.019735	-0.367726
O11	O	-0.219791	0.936472	-0.174820
O12	O	-0.219764	0.826768	-0.284534
O13	O	-0.283957	0.936475	-0.477393
O14	O	-0.283971	0.826723	-0.367651
O15	O	-0.219740	1.019676	-0.477425
O16	O	-0.368758	1.019489	-0.284508
O17	O	-0.368738	0.936368	-0.367637
C18	C	-0.251867	0.802187	-0.326090
C19	C	-0.251875	0.726955	-0.326097
C20	C	-0.285357	0.691605	-0.369306
C21	C	-0.285358	0.620917	-0.369315
C22	C	-0.251879	0.585579	-0.326112
C23	C	-0.218393	0.620934	-0.282901
C24	C	-0.218390	0.691621	-0.282895
C25	C	-0.218404	0.335860	-0.282923
C26	C	-0.218411	0.265168	-0.282931
C27	C	-0.285373	0.265156	-0.369343
C28	C	-0.285370	0.335843	-0.369338
C29	C	-0.251882	0.371192	-0.326129
C30	C	-0.251881	0.447840	-0.326121
C31	C	-0.251883	0.508932	-0.326117
C32	C	-0.387719	0.977929	-0.326081
C33	C	-0.445833	0.977942	-0.326090
C34	C	-0.806194	1.021437	-0.282901
C35	C	-0.860799	1.021463	-0.282910
O36	O	-0.889034	1.058326	-0.246154
N37	N	-0.888116	0.978162	-0.326157
C38	C	-0.860825	0.934836	-0.369402
O39	O	-0.889075	0.898008	-0.406189
C40	C	-0.806222	0.934814	-0.369396
C41	C	-0.778908	0.978113	-0.326141
C42	C	-0.778880	1.064733	-0.239650
C43	C	-0.724279	1.064706	-0.239640
C44	C	-0.696993	1.021382	-0.282881
C45	C	-0.724307	0.978086	-0.326132
C46	C	-0.778933	0.891492	-0.412645
C47	C	-0.724326	0.891474	-0.412635
C48	C	-0.697012	0.934773	-0.369381
C49	C	-0.642421	0.934735	-0.369363
N50	N	-0.615104	0.978036	-0.326116
C51	C	-0.642390	1.021360	-0.282875
C52	C	-0.975496	0.934887	-0.369413
C53	C	-1.030098	0.934906	-0.369416
C54	C	-1.030068	1.021533	-0.282924
C55	C	-0.975464	1.021511	-0.282918
C56	C	-0.948179	0.978188	-0.326166
C57	C	-0.527725	1.021299	-0.282857
C58	C	-0.473119	1.021266	-0.282849
C59	C	-0.473155	0.934641	-0.369343
C60	C	-0.527756	0.934671	-0.369349
C61	C	-0.555039	0.978006	-0.326104
O62	O	-0.614151	0.897893	-0.406101
O63	O	-0.614134	1.058188	-0.246101
C64	C	-0.115504	0.978175	-0.326158
C65	C	-0.057389	0.978232	-0.326177
C66	C	-0.251844	0.978081	-0.502655
C67	C	-0.251830	0.978097	-0.577887
C68	C	-0.251887	1.154585	-0.326134
C69	C	-0.251891	1.229817	-0.326144
C70	C	-0.218390	1.021421	-0.613249
C71	C	-0.218375	1.021428	-0.683937
C72	C	-0.251802	0.978114	-0.719262
C73	C	-0.285243	0.934785	-0.683895
C74	C	-0.285255	0.934775	-0.613208
C75	C	-0.285194	0.934823	-0.968969
C76	C	-0.285181	0.934838	-1.039661
C77	C	-0.218314	1.021476	-1.039698
C78	C	-0.218326	1.021466	-0.969011
C79	C	-0.251765	0.978135	-0.933650
C80	C	-0.251780	0.978127	-0.857001
C81	C	-0.251790	0.978125	-0.795909
C82	C	-0.251872	0.978044	-0.150256
C83	C	-0.251738	0.978159	-0.075024
H84	H	-0.191140	0.364633	-0.247735
O85	O	-0.185843	1.063425	-0.578968
C86	C	-0.096912	1.096388	-0.557417
C87	C	-0.133715	1.048767	-0.596265
H88	H	-0.054759	1.084564	-0.571398
H89	H	-0.102617	1.088941	-0.500811
H90	H	-0.106120	1.150954	-0.571316
H91	H	-0.124529	0.994183	-0.582422
H92	H	-0.128003	1.056273	-0.652861
O93	O	-0.185809	1.063627	-1.073944
C94	C	-0.119464	1.149535	-1.066517
C95	C	-0.156255	1.101845	-1.027653
H96	H	-0.095552	1.180436	-1.029108
H97	H	-0.143439	1.184952	-1.099593
H98	H	-0.092138	1.118481	-1.099631
H99	H	-0.183589	1.132844	-0.994502
H100	H	-0.132248	1.066425	-0.994619
O101	O	-1.056547	0.892818	-0.411492
C102	C	-1.050800	0.806865	-0.497250
C103	C	-1.020784	0.854504	-0.449640
H104	H	-1.021898	0.775865	-0.528095
H105	H	-1.076306	0.837895	-0.532724
H106	H	-1.076422	0.771531	-0.466138
H107	H	-0.995134	0.889847	-0.480697
H108	H	-0.995311	0.823431	-0.414164
H109	H	-0.801163	0.856230	-0.447864
O110	O	-0.185810	0.725991	-0.241016
C111	C	-0.115226	0.805879	-0.232067
C112	C	-0.152085	0.766988	-0.279571
H113	H	-0.087957	0.839045	-0.263219
H114	H	-0.091261	0.768510	-0.201200
H115	H	-0.139204	0.838909	-0.196602
H116	H	-0.128148	0.733957	-0.315076
H117	H	-0.176051	0.804393	-0.310390
H118	H	-0.312480	0.899489	-0.584417
O119	O	-0.317836	0.370138	-0.411404
C120	C	-0.343348	0.391763	-0.526476
C121	C	-0.306541	0.352896	-0.478910
H122	H	-0.334237	0.377826	-0.581063
H123	H	-0.337593	0.448365	-0.519109
H124	H	-0.385493	0.377835	-0.514459
H125	H	-0.264382	0.366767	-0.490897
H126	H	-0.312342	0.296303	-0.486285
H127	H	-0.312402	0.899563	-1.068421
H128	H	-0.450882	1.056525	-0.247624
H129	H	-1.052294	1.056812	-0.247717
O130	O	-0.317659	0.892612	-0.718177
C131	C	-0.343051	0.777459	-0.739741
C132	C	-0.306297	0.825141	-0.700890
H133	H	-0.333885	0.722900	-0.725768
H134	H	-0.337300	0.784849	-0.796346
H135	H	-0.385210	0.789338	-0.725835
H136	H	-0.264124	0.813293	-0.714740
H137	H	-0.312094	0.817743	-0.644295
O138	O	-0.317910	0.586500	-0.411190
C139	C	-0.388531	0.506665	-0.420122
C140	C	-0.351690	0.545589	-0.372622
H141	H	-0.415859	0.473590	-0.388959
H142	H	-0.364594	0.473560	-0.455564
H143	H	-0.412440	0.544073	-0.451014
H144	H	-0.327774	0.508230	-0.341687
H145	H	-0.375657	0.578704	-0.337225
O146	O	-0.185832	1.063414	-0.718313
C147	C	-0.115236	1.072595	-0.798160
C148	C	-0.152057	1.024969	-0.759264
H149	H	-0.087927	1.041532	-0.831288
H150	H	-0.091312	1.103536	-0.760794
H151	H	-0.139240	1.107984	-0.831228
H152	H	-0.128093	0.989539	-0.726194
H153	H	-0.175983	0.994076	-0.796665
H154	H	-0.312639	0.236367	-0.404528
O155	O	-0.185940	0.230736	-0.240977
C156	C	-0.156263	0.121841	-0.202705
C157	C	-0.193064	0.160752	-0.250242
H158	H	-0.162002	0.065253	-0.210189
H159	H	-0.165392	0.135664	-0.148092
H160	H	-0.114118	0.135809	-0.214676
H161	H	-0.235221	0.146806	-0.238332
H162	H	-0.183890	0.146926	-0.304841
H163	H	-0.702113	0.856196	-0.447855
O164	O	-0.554211	0.892587	-0.411427
C165	C	-0.548472	0.806640	-0.497192
C166	C	-0.518452	0.854269	-0.449577
H167	H	-0.519574	0.775637	-0.528038
H168	H	-0.573974	0.837678	-0.532664
H169	H	-0.574099	0.771309	-0.466083
H170	H	-0.492797	0.889610	-0.480631
H171	H	-0.492983	0.823189	-0.414102
O172	O	-0.949014	1.063638	-0.240882
C173	C	-0.954762	1.149529	-0.155061
C174	C	-0.984778	1.101864	-0.202646
H175	H	-0.983664	1.180437	-0.124125
H176	H	-0.929172	1.184941	-0.186131
H177	H	-0.929223	1.118455	-0.119666
H178	H	-1.010345	1.132883	-0.238051
H179	H	-1.010334	1.066449	-0.171534
H180	H	-0.312430	0.899550	-0.940187
H181	H	-0.191108	1.056739	-0.940252
H182	H	-0.312622	0.720372	-0.404485
O183	O	-0.554142	1.063412	-0.240783
C184	C	-0.548334	1.149352	-0.155016
C185	C	-0.518352	1.101688	-0.202622
H186	H	-0.519411	1.180320	-0.124161
H187	H	-0.573925	1.118344	-0.119552
H188	H	-0.573869	1.184714	-0.186132
H189	H	-0.492789	1.066316	-0.171561
H190	H	-0.492795	1.132738	-0.238089
O191	O	-0.446563	0.892623	-0.411325
C192	C	-0.362450	0.854181	-0.449613
C193	C	-0.392502	0.901806	-0.402041
H194	H	-0.318737	0.861579	-0.442113
H195	H	-0.373109	0.866044	-0.504218
H196	H	-0.373262	0.799620	-0.437692
H197	H	-0.381706	0.956383	-0.413901
H198	H	-0.381840	0.889884	-0.347450
H199	H	-0.953283	0.899603	-0.404628
O200	O	-0.185917	0.586504	-0.240958
C201	C	-0.156217	0.477615	-0.202701
C202	C	-0.193032	0.516520	-0.250225
H203	H	-0.161949	0.421026	-0.210187
H204	H	-0.165340	0.491432	-0.148084
H205	H	-0.114076	0.491594	-0.214682
H206	H	-0.235185	0.502562	-0.238304
H207	H	-0.183865	0.502700	-0.304827
H208	H	-0.702043	1.099966	-0.204421
H209	H	-0.801091	1.100016	-0.204438
