data_functionalizedCrystal
_audit_creation_method	'MofGen! by Chris Wilmer'
_symmetry_space_group_name_H-M	'P1'
_symmetry_Int_Tables_number	1
_symmetry_cell_setting	triclinic
loop_
_symmetry_equiv_pos_as_xyz
  x,y,z
_cell_length_a	29.839134
_cell_length_b	29.839131
_cell_length_c	16.625539
_cell_angle_alpha	90.032094
_cell_angle_beta	90.030315
_cell_angle_gamma	90.036281
loop_
_atom_site_label
_atom_site_type_symbol
_atom_site_fract_x
_atom_site_fract_y
_atom_site_fract_z
Zn1	Zn	0.686757	-0.178914	0.456098
Zn2	Zn	1.186757	0.321086	0.956098
Zn3	Zn	0.686678	-0.254045	0.321256
Zn4	Zn	1.186678	0.245955	0.821256
Zn5	Zn	0.611628	-0.178923	0.321255
Zn6	Zn	1.111628	0.321077	0.821255
Zn7	Zn	0.611587	-0.254011	0.456023
Zn8	Zn	1.111587	0.245989	0.956023
O9	O	0.649163	-0.216473	0.388658
O10	O	1.149163	0.283527	0.888658
O11	O	0.749613	-0.188891	0.438242
O12	O	1.249613	0.311109	0.938242
O13	O	0.676707	-0.244098	0.208423
O14	O	1.176707	0.255902	0.708423
O15	O	0.621645	-0.116055	0.339173
O16	O	1.121645	0.383945	0.839173
O17	O	0.749555	-0.244089	0.339175
O18	O	1.249555	0.255911	0.839175
O19	O	0.676841	-0.116048	0.438242
O20	O	1.176841	0.383952	0.938242
O21	O	0.621568	-0.188906	0.208423
O22	O	1.121568	0.311094	0.708423
O23	O	0.548756	-0.188873	0.339101
O24	O	1.048756	0.311127	0.839101
O25	O	0.621574	-0.244031	0.568865
O26	O	1.121574	0.255969	1.068865
O27	O	0.548726	-0.244040	0.438114
O28	O	1.048726	0.255960	0.938114
O29	O	0.676801	-0.188858	0.568920
O30	O	1.176801	0.311142	1.068920
O31	O	0.676667	-0.316908	0.339102
O32	O	1.176667	0.183092	0.839102
O33	O	0.621498	-0.316883	0.438115
O34	O	1.121498	0.183117	0.938115
C35	C	0.532440	-0.216454	0.388600
C36	C	1.032440	0.283546	0.888600
C37	C	0.482506	-0.216457	0.388594
C38	C	0.982506	0.283543	0.888594
C39	C	0.649081	-0.333196	0.388618
C40	C	1.149081	0.166804	0.888618
C41	C	0.649088	-0.383130	0.388628
C42	C	1.149088	0.116870	0.888628
C43	C	0.172856	-0.245241	0.440151
C44	C	0.672856	0.254759	0.940151
C45	C	-0.014817	-0.245254	0.440187
C46	C	0.485183	0.254746	0.940187
O47	O	-0.039087	-0.269706	0.483988
O48	O	0.460913	0.230294	0.983988
N49	N	-0.038280	-0.216490	0.388719
N50	N	0.461720	0.283510	0.888719
C51	C	-0.014821	-0.187718	0.337242
C52	C	0.485179	0.312282	0.837242
O53	O	-0.039083	-0.163250	0.293472
O54	O	0.460917	0.336750	0.793472
C55	C	0.172851	-0.187704	0.337210
C56	C	0.672851	0.312296	0.837210
C57	C	0.196311	-0.216473	0.388676
C58	C	0.696311	0.283527	0.888676
C59	C	0.196316	-0.274008	0.491613
C60	C	0.696316	0.225992	0.991613
C61	C	0.243231	-0.274006	0.491600
C62	C	0.743231	0.225994	0.991600
C63	C	0.266687	-0.245238	0.440126
C64	C	0.766687	0.254762	0.940126
C65	C	0.243227	-0.216471	0.388664
C66	C	0.743227	0.283529	0.888664
C67	C	0.196309	-0.158931	0.285738
C68	C	0.696309	0.341069	0.785738
C69	C	0.243230	-0.158929	0.285736
C70	C	0.743230	0.341071	0.785736
C71	C	0.266690	-0.187698	0.337202
C72	C	0.766690	0.312302	0.837202
C73	C	0.313598	-0.187701	0.337176
C74	C	0.813598	0.312299	0.837176
N75	N	0.337060	-0.216465	0.388644
N76	N	0.837060	0.283535	0.888644
C77	C	0.313605	-0.245234	0.440119
C78	C	0.813605	0.254766	0.940119
C79	C	-0.113351	-0.187729	0.337261
C80	C	0.386649	0.312271	0.837261
C81	C	-0.160269	-0.187733	0.337267
C82	C	0.339731	0.312267	0.837267
C83	C	-0.160263	-0.245268	0.440214
C84	C	0.339737	0.254732	0.940214
C85	C	-0.113344	-0.245266	0.440202
C86	C	0.386656	0.254734	0.940202
C87	C	-0.089889	-0.216493	0.388729
C88	C	0.410111	0.283507	0.888729
C89	C	0.412130	-0.245228	0.440088
C90	C	0.912130	0.254772	0.940088
C91	C	0.459050	-0.245225	0.440069
C92	C	0.959050	0.254775	0.940069
C93	C	0.459039	-0.187689	0.337126
C94	C	0.959039	0.312311	0.837126
C95	C	0.412124	-0.187693	0.337142
C96	C	0.912124	0.312307	0.837142
C97	C	0.388670	-0.216464	0.388630
C98	C	0.888670	0.283536	0.888630
O99	O	0.337897	-0.163258	0.293405
O100	O	0.837897	0.336742	0.793405
O101	O	0.337875	-0.269691	0.483895
O102	O	0.837875	0.230309	0.983895
C103	C	0.125940	-0.245243	0.440164
C104	C	0.625940	0.254757	0.940164
C105	C	0.102480	-0.216476	0.388701
C106	C	0.602480	0.283524	0.888701
C107	C	0.125936	-0.187708	0.337227
C108	C	0.625936	0.312292	0.837227
C109	C	0.055563	-0.216481	0.388708
C110	C	0.555563	0.283519	0.888708
C111	C	0.032107	-0.245249	0.440183
C112	C	0.532107	0.254751	0.940183
C113	C	0.055569	-0.274013	0.491651
C114	C	0.555569	0.225987	0.991651
C115	C	0.102485	-0.274011	0.491638
C116	C	0.602485	0.225989	0.991638
C117	C	0.102474	-0.158944	0.285759
C118	C	0.602474	0.341056	0.785759
C119	C	0.055558	-0.158949	0.285775
C120	C	0.555558	0.341051	0.785775
C121	C	0.032103	-0.187717	0.337249
C122	C	0.532103	0.312283	0.837249
C123	C	0.677941	-0.692774	0.337177
C124	C	1.177941	-0.192774	0.837177
C125	C	0.677997	-0.880447	0.337209
C126	C	1.177997	-0.380447	0.837209
O127	O	0.702464	-0.904712	0.293433
O128	O	1.202464	-0.404712	0.793433
N129	N	0.649256	-0.903915	0.388719
N130	N	1.149256	-0.403915	0.888719
C131	C	0.620501	-0.880462	0.440228
C132	C	1.120501	-0.380462	0.940228
O133	O	0.596060	-0.904730	0.484047
O134	O	1.096060	-0.404730	0.984047
C135	C	0.620448	-0.692790	0.440201
C136	C	1.120448	-0.192790	0.940201
C137	C	0.649188	-0.669324	0.388681
C138	C	1.149188	-0.169324	0.888681
C139	C	0.706679	-0.669308	0.285663
C140	C	1.206679	-0.169308	0.785663
C141	C	0.706663	-0.622393	0.285653
C142	C	1.206663	-0.122393	0.785653
C143	C	0.677909	-0.598943	0.337157
C144	C	1.177909	-0.098943	0.837157
C145	C	0.649172	-0.622409	0.388671
C146	C	1.149172	-0.122409	0.888671
C147	C	0.591696	-0.669338	0.491714
C148	C	1.091696	-0.169338	0.991714
C149	C	0.591686	-0.622417	0.491704
C150	C	1.091686	-0.122417	0.991704
C151	C	0.620426	-0.598951	0.440184
C152	C	1.120426	-0.098951	0.940184
C153	C	0.620402	-0.552044	0.440165
C154	C	1.120402	-0.052044	0.940165
N155	N	0.649143	-0.528576	0.388654
N156	N	1.149143	-0.028576	0.888654
C157	C	0.677897	-0.552025	0.337151
C158	C	1.177897	-0.052025	0.837151
C159	C	0.620530	-0.978993	0.440238
C160	C	1.120530	-0.478993	0.940238
C161	C	0.620543	-1.025911	0.440244
C162	C	1.120543	-0.525911	0.940244
C163	C	0.678039	-1.025892	0.337226
C164	C	1.178039	-0.525892	0.837226
C165	C	0.678024	-0.978974	0.337216
C166	C	1.178024	-0.478974	0.837216
C167	C	0.649271	-0.955525	0.388728
C168	C	1.149271	-0.455525	0.888728
C169	C	0.677861	-0.453499	0.337132
C170	C	1.177861	0.046501	0.837132
C171	C	0.677841	-0.406580	0.337124
C172	C	1.177841	0.093420	0.837124
C173	C	0.620347	-0.406603	0.440145
C174	C	1.120347	0.093397	0.940145
C175	C	0.620365	-0.453518	0.440151
C176	C	1.120365	0.046482	0.940151
C177	C	0.649125	-0.476965	0.388642
C178	C	1.149125	0.023035	0.888642
O179	O	0.595951	-0.527750	0.483924
O180	O	1.095951	-0.027750	0.983924
O181	O	0.702342	-0.527750	0.293351
O182	O	1.202342	-0.027750	0.793351
C183	C	0.677957	-0.739689	0.337188
C184	C	1.177957	-0.239689	0.837188
C185	C	0.649219	-0.763155	0.388702
C186	C	1.149219	-0.263155	0.888702
C187	C	0.620466	-0.739706	0.440206
C188	C	1.120466	-0.239706	0.940206
C189	C	0.649232	-0.810073	0.388708
C190	C	1.149232	-0.310073	0.888708
C191	C	0.677985	-0.833523	0.337204
C192	C	1.177985	-0.333523	0.837204
C193	C	0.706726	-0.810054	0.285694
C194	C	1.206726	-0.310054	0.785694
C195	C	0.706711	-0.763139	0.285684
C196	C	1.206711	-0.263139	0.785684
C197	C	0.591725	-0.763174	0.491716
C198	C	1.091725	-0.263174	0.991716
C199	C	0.591743	-0.810090	0.491722
C200	C	1.091743	-0.310090	0.991722
C201	C	0.620496	-0.833539	0.440218
C202	C	1.120496	-0.333539	0.940218
C203	C	0.766341	-0.216493	0.388717
C204	C	1.266341	0.283507	0.888717
C205	C	0.816275	-0.216501	0.388742
C206	C	1.316275	0.283499	0.888742
C207	C	0.649192	-0.216440	0.598967
C208	C	1.149192	0.283560	1.098967
C209	C	0.649204	-0.216426	0.688588
C210	C	1.149204	0.283574	1.188588
C211	C	0.649256	-0.099295	0.388716
C212	C	1.149256	0.400705	0.888716
C213	C	0.649296	-0.049360	0.388740
C214	C	1.149296	0.450640	0.888740
C215	C	0.649159	-0.216474	0.179167
C216	C	1.149159	0.283526	0.679167
C217	C	0.649234	-0.216362	0.089546
C218	C	1.149234	0.283638	0.589546
C219	C	0.649225	-0.216375	1.016764
C220	C	1.149225	0.283625	1.516764
C221	C	0.649218	-0.216391	0.925455
C222	C	1.149218	0.283609	1.425455
C223	C	0.649215	-0.216401	0.852679
C224	C	1.149215	0.283599	1.352679
C225	C	0.649207	-0.216415	0.761365
C226	C	1.149207	0.283585	1.261365
H227	H	0.478149	-0.268654	0.481979
H228	H	0.978149	0.231346	0.981979
H229	H	0.701244	-0.387475	0.295168
H230	H	1.201244	0.112525	0.795168
Cl231	Cl	0.584406	-1.055405	0.505005
Cl232	Cl	1.084406	-0.555405	1.005005
H233	H	-0.094246	-0.268691	0.482111
H234	H	0.405754	0.231309	0.982111
Cl235	Cl	0.584225	-0.483019	0.504902
Cl236	Cl	1.084225	0.016981	1.004902
Cl237	Cl	0.382654	-0.281399	0.504816
Cl238	Cl	0.882654	0.218601	1.004816
H239	H	0.568311	-0.744085	0.533658
H240	H	1.068311	-0.244085	1.033658
H241	H	0.701451	-1.044993	0.295289
H242	H	1.201451	-0.544993	0.795289
Cl243	Cl	0.382630	-0.151533	0.272429
Cl244	Cl	0.882630	0.348467	0.772429
Cl245	Cl	0.272713	-0.122754	0.221023
Cl246	Cl	0.772713	0.377246	0.721023
H247	H	0.036461	-0.135522	0.243858
H248	H	0.536461	0.364478	0.743858
H249	H	0.730113	-0.744036	0.243732
H250	H	1.230113	-0.244036	0.743732
H251	H	0.262328	-0.297432	0.533511
H252	H	0.762328	0.202568	1.033511
H253	H	-0.179368	-0.268692	0.482126
H254	H	0.320632	0.231308	0.982126
Cl255	Cl	0.166837	-0.310179	0.556333
Cl256	Cl	0.666837	0.189821	1.056333
Cl257	Cl	-0.189756	-0.151570	0.272554
Cl258	Cl	0.310244	0.348430	0.772554
H259	H	0.478145	-0.164268	0.295214
H260	H	0.978145	0.335732	0.795214
Cl261	Cl	0.131970	-0.310179	0.556343
Cl262	Cl	0.631970	0.189821	1.056343
H263	H	0.036464	-0.297438	0.533561
H264	H	0.536464	0.202562	1.033561
Cl265	Cl	0.584379	-0.949521	0.505002
Cl266	Cl	1.084379	-0.449521	1.005002
H267	H	0.121566	-0.135517	0.243841
H268	H	0.621566	0.364483	0.743841
Cl269	Cl	0.714017	-0.482969	0.272375
Cl270	Cl	1.214017	0.017031	0.772375
Cl271	Cl	0.742802	-0.592900	0.220894
Cl272	Cl	1.242802	-0.092900	0.720894
H273	H	-0.094259	-0.164298	0.295341
H274	H	0.405741	0.335702	0.795341
H275	H	0.730096	-0.688396	0.243722
H276	H	1.230096	-0.188396	0.743722
Cl277	Cl	0.166829	-0.122758	0.221040
Cl278	Cl	0.666829	0.377242	0.721040
H279	H	0.701426	-0.959870	0.295265
H280	H	1.201426	-0.459870	0.795265
H281	H	0.568291	-0.688436	0.533662
H282	H	1.068291	-0.188436	1.033662
Cl283	Cl	0.555538	-0.592942	0.556467
Cl284	Cl	1.055538	-0.092942	1.056467
H285	H	0.596935	-0.387503	0.482077
H286	H	1.096935	0.112497	0.982077
Cl287	Cl	0.742872	-0.839543	0.220946
Cl288	Cl	1.242872	-0.339543	0.720946
H289	H	0.568336	-0.829191	0.533674
H290	H	1.068336	-0.329191	1.033674
