data_functionalizedCrystal
_audit_creation_method	'MofGen! by Chris Wilmer'
_symmetry_space_group_name_H-M	'P1'
_symmetry_Int_Tables_number	1
_symmetry_cell_setting	triclinic
loop_
_symmetry_equiv_pos_as_xyz
  x,y,z
_cell_length_a	11.026607
_cell_length_b	10.654541
_cell_length_c	9.482900
_cell_angle_alpha	99.425331
_cell_angle_beta	78.636152
_cell_angle_gamma	96.534973
loop_
_atom_site_label
_atom_site_type_symbol
_atom_site_fract_x
_atom_site_fract_y
_atom_site_fract_z
O1	O	1.633379	0.511462	-0.120903
O2	O	1.279568	0.451466	-0.120904
O3	O	1.464608	0.300491	-0.120894
O4	O	1.448338	0.662436	-0.120912
O5	O	1.427024	0.331315	0.120896
O6	O	1.241984	0.482290	0.120887
O7	O	1.595794	0.542285	0.120888
Cu8	Cu	1.415457	0.515102	0.142965
Cu9	Cu	1.459905	0.478649	-0.142981
O10	O	1.410754	0.693260	0.120879
C11	C	1.215472	0.455810	-0.000009
C12	C	1.080481	0.422815	-0.000009
C13	C	1.007442	0.513918	-0.000014
C14	C	0.867921	0.479818	-0.000014
C15	C	1.444622	0.268846	0.000000
C16	C	1.441049	0.128627	-0.000002
C17	C	1.662314	0.148689	0.000017
C18	C	1.771262	0.092846	0.000029
C19	C	1.767898	-0.038903	0.000025
C20	C	1.655575	-0.114814	0.000003
C21	C	1.546627	-0.058971	-0.000009
C22	C	1.550002	0.072783	-0.000000
C23	C	1.325366	-0.079034	-0.000039
C24	C	1.328726	0.052716	-0.000024
C25	C	1.213043	-0.154945	-0.000060
C26	C	1.104091	-0.099101	-0.000062
C27	C	1.107459	0.032657	-0.000056
C28	C	1.219778	0.108559	-0.000036
C29	C	1.659891	0.537941	-0.000010
C30	C	1.794884	0.570934	-0.000020
C31	C	1.430741	0.724905	-0.000019
C32	C	1.434315	0.865123	-0.000026
N33	N	1.384204	0.540742	0.344083
N34	N	1.491168	0.453001	-0.344099
C35	C	1.450678	0.486203	0.416286
C36	C	1.424684	0.507548	0.583702
H37	H	0.827172	0.376566	-0.000047
Br38	Br	0.862792	0.743027	-0.000001
Br39	Br	0.959594	0.108429	-0.000090
Br40	Br	1.651029	-0.293632	-0.000117
H41	H	1.012647	-0.160918	-0.000089
Br42	Br	1.923696	0.195869	0.000043
Br43	Br	1.618398	0.349190	0.552376
H44	H	1.039726	0.319570	-0.000041
H45	H	1.856615	-0.084371	0.000023
H46	H	1.348518	0.570041	0.645823
H47	H	1.048201	0.617159	-0.000011
Br48	Br	1.666880	0.327498	0.000064
H49	H	1.222530	0.215838	-0.000022
Br50	Br	1.257258	0.644895	0.447618
H51	H	1.210313	-0.262222	-0.000073
Br52	Br	1.577304	0.381653	0.312752
