data_functionalizedCrystal
_audit_creation_method	'MofGen! by Chris Wilmer'
_symmetry_space_group_name_H-M	'P1'
_symmetry_Int_Tables_number	1
_symmetry_cell_setting	triclinic
loop_
_symmetry_equiv_pos_as_xyz
  x,y,z
_cell_length_a	14.044191
_cell_length_b	12.503567
_cell_length_c	10.654550
_cell_angle_alpha	86.444345
_cell_angle_beta	91.161660
_cell_angle_gamma	86.157210
loop_
_atom_site_label
_atom_site_type_symbol
_atom_site_fract_x
_atom_site_fract_y
_atom_site_fract_z
O1	O	1.265126	-0.089263	-0.296380
O2	O	1.598459	0.244070	0.036953
O3	O	1.931793	0.577403	0.370286
O4	O	0.989085	-0.089277	-0.285437
O5	O	1.322419	0.244056	0.047897
O6	O	1.655752	0.577389	0.381230
O7	O	1.133452	-0.089266	-0.108807
O8	O	1.466786	0.244067	0.224526
O9	O	1.800119	0.577401	0.557859
O10	O	1.120759	-0.089275	-0.473009
O11	O	1.454093	0.244059	-0.139676
O12	O	1.787426	0.577392	0.193657
O13	O	1.122581	0.089376	-0.122105
O14	O	1.455915	0.422709	0.211228
O15	O	1.789248	0.756042	0.544562
O16	O	0.978215	0.089364	-0.298734
O17	O	1.311548	0.422698	0.034599
O18	O	1.644881	0.756031	0.367933
O19	O	1.254255	0.089378	-0.309678
O20	O	1.587589	0.422712	0.023656
O21	O	1.920922	0.756045	0.356989
Cu22	Cu	1.115242	0.105683	-0.305420
Cu23	Cu	1.448576	0.439016	0.027913
Cu24	Cu	1.781909	0.772349	0.361247
Cu25	Cu	1.128098	-0.105582	-0.289694
Cu26	Cu	1.461432	0.227752	0.043639
Cu27	Cu	1.794765	0.561085	0.376972
O28	O	1.109889	0.089367	-0.486307
O29	O	1.443222	0.422700	-0.152973
O30	O	1.776555	0.756034	0.180360
C31	C	0.948304	0.000042	-0.287298
C32	C	1.281637	0.333375	0.046035
C33	C	1.614971	0.666709	0.379369
C34	C	0.842985	0.000037	-0.273019
C35	C	1.176318	0.333370	0.060315
C36	C	1.509651	0.666703	0.393648
N37	N	1.106207	0.254275	-0.316481
N38	N	1.439541	0.587608	0.016853
N39	N	1.772874	0.920941	0.350186
C40	C	0.593192	0.000046	-0.348185
C41	C	0.926525	0.333379	-0.014851
C42	C	1.259858	0.666712	0.318482
C43	C	0.650155	0.000046	-0.246934
C44	C	0.983488	0.333379	0.086399
C45	C	1.316822	0.666713	0.419732
C46	C	0.757455	0.000041	-0.261451
C47	C	1.090789	0.333374	0.071882
C48	C	1.424122	0.666707	0.405215
C49	C	0.485882	0.000051	-0.333670
C50	C	0.819215	0.333384	-0.000337
C51	C	1.152548	0.666717	0.332997
C52	C	1.150422	0.526711	-0.262364
C53	C	1.483755	0.860045	0.070969
C54	C	1.817089	1.193378	0.404303
C55	C	1.092924	0.473383	-0.332752
C56	C	1.426257	0.806716	0.000581
C57	C	1.759591	1.140049	0.333914
C58	C	1.100317	0.351460	-0.323696
C59	C	1.433650	0.684793	0.009637
C60	C	1.766983	1.018126	0.342970
C61	C	1.143031	0.648645	-0.271418
C62	C	1.476364	0.981979	0.061915
C63	C	1.809697	1.315312	0.395248
C64	C	1.295037	0.000057	-0.307816
C65	C	1.628370	0.333390	0.025517
C66	C	1.961703	0.666723	0.358851
C67	C	1.400357	0.000055	-0.322095
C68	C	1.733690	0.333388	0.011238
C69	C	2.067023	0.666722	0.344572
C70	C	1.127085	0.000053	-0.068564
C71	C	1.460418	0.333387	0.264769
C72	C	1.793752	0.666720	0.598102
C73	C	1.124297	0.000050	0.071159
C74	C	1.457630	0.333383	0.404493
C75	C	1.790963	0.666716	0.737826
N76	N	1.137136	0.745826	-0.278639
N77	N	1.470469	1.079160	0.054694
N78	N	1.803802	1.412493	0.388027
C79	C	1.116256	0.000045	-0.526550
C80	C	1.449589	0.333378	-0.193216
C81	C	1.782923	0.666712	0.140117
C82	C	1.119045	0.000042	-0.666273
C83	C	1.452378	0.333375	-0.332940
C84	C	1.785711	0.666709	0.000394
C85	C	1.209297	0.000057	0.142100
C86	C	1.542631	0.333390	0.475433
C87	C	1.875964	0.666724	0.808767
C88	C	1.206672	0.000049	0.273385
C89	C	1.540005	0.333383	0.606719
C90	C	1.873339	0.666716	0.940052
C91	C	1.034037	0.000031	0.262777
C92	C	1.367371	0.333365	0.596110
C93	C	1.700704	0.666698	0.929444
C94	C	1.036664	0.000031	0.131495
C95	C	1.369998	0.333365	0.464828
C96	C	1.703331	0.666698	0.798161
C97	C	1.308967	0.000072	0.148225
C98	C	1.642300	0.333405	0.481559
C99	C	1.975633	0.666739	0.814892
C100	C	1.306341	0.000065	0.279511
C101	C	1.639675	0.333398	0.612844
C102	C	1.973008	0.666731	0.946177
H103	H	0.618343	-0.000027	-0.149343
H104	H	0.951676	0.333306	0.183990
H105	H	1.285009	0.666639	0.517323
H106	H	0.625007	0.000040	-0.445762
H107	H	0.958341	0.333373	-0.112429
H108	H	1.291674	0.666707	0.220904
H109	H	1.339346	0.074826	0.311931
H110	H	1.672679	0.408159	0.645264
H111	H	2.006013	0.741493	0.978597
H112	H	1.038147	0.519294	-0.399816
H113	H	1.371481	0.852628	-0.066482
H114	H	1.704814	1.185961	0.266851
H115	H	1.205197	0.480805	-0.195307
H116	H	1.538530	0.814139	0.138027
H117	H	1.871863	1.147472	0.471360
H118	H	0.962690	0.000016	0.311918
H119	H	1.296023	0.333349	0.645252
H120	H	1.629357	0.666682	0.978585
H121	H	1.336011	0.077208	0.103666
H122	H	1.669345	0.410541	0.436999
H123	H	2.002678	0.743874	0.770333
H124	H	1.352500	-0.074682	0.120513
H125	H	1.685833	0.258651	0.453846
H126	H	2.019167	0.591985	0.787179
C127	C	1.386898	-0.172420	0.253784
C128	C	1.720232	0.160913	0.587117
C129	C	2.053565	0.494247	0.920450
C130	C	1.353349	-0.104048	0.344803
C131	C	1.686682	0.229285	0.678137
C132	C	2.020016	0.562618	1.011470
H133	H	1.415923	-0.236689	0.294097
H134	H	1.749257	0.096645	0.627431
H135	H	2.082590	0.429978	0.960764
H136	H	1.335029	-0.189167	0.201595
H137	H	1.668362	0.144167	0.534928
H138	H	2.001696	0.477500	0.868261
H139	H	1.432509	-0.137776	0.203944
H140	H	1.765843	0.195557	0.537277
H141	H	2.099176	0.528890	0.870610
H142	H	1.307733	-0.138689	0.394638
H143	H	1.641066	0.194644	0.727971
H144	H	1.974400	0.527977	1.061304
H145	H	1.405225	-0.087303	0.397014
H146	H	1.738558	0.246030	0.730347
H147	H	2.071892	0.579364	1.063680
H148	H	0.967449	0.000010	0.073741
H149	H	1.300782	0.333344	0.407074
H150	H	1.634116	0.666677	0.740407
