data_functionalizedCrystal
_audit_creation_method	'MofGen! by Chris Wilmer'
_symmetry_space_group_name_H-M	'P1'
_symmetry_Int_Tables_number	1
_symmetry_cell_setting	triclinic
loop_
_symmetry_equiv_pos_as_xyz
  x,y,z
_cell_length_a	10.967874
_cell_length_b	9.482944
_cell_length_c	9.065218
_cell_angle_alpha	100.297871
_cell_angle_beta	84.859232
_cell_angle_gamma	112.344705
loop_
_atom_site_label
_atom_site_type_symbol
_atom_site_fract_x
_atom_site_fract_y
_atom_site_fract_z
O1	O	1.739444	0.556661	0.302195
O2	O	2.239444	1.056661	0.802195
O3	O	1.362562	0.462246	0.305847
O4	O	1.862562	0.962246	0.805847
O5	O	1.558793	0.511402	0.089669
O6	O	2.058793	1.011402	0.589669
O7	O	1.543213	0.507505	0.518372
O8	O	2.043213	1.007505	1.018372
O9	O	1.522078	0.260411	0.046717
O10	O	2.022078	0.760411	0.546717
O11	O	1.325847	0.211255	0.262894
O12	O	1.825847	0.711255	0.762894
O13	O	1.702729	0.305671	0.259243
O14	O	2.202729	0.805671	0.759243
Cu15	Cu	1.510936	0.235546	0.257147
Cu16	Cu	2.010936	0.735546	0.757147
Cu17	Cu	1.554355	0.532371	0.307943
Cu18	Cu	2.054355	1.032371	0.807943
O19	O	1.506498	0.256515	0.475420
O20	O	2.006498	0.756515	0.975420
C21	C	1.295930	0.324657	0.280860
C22	C	1.795930	0.824657	0.780860
C23	C	1.152088	0.288622	0.270381
C24	C	1.652088	0.788622	0.770381
N25	N	1.480406	0.026777	0.221419
N26	N	1.980406	0.526777	0.721419
C27	C	1.106978	0.402577	0.287959
C28	C	1.606978	0.902577	0.787959
C29	C	0.958310	0.365336	0.277129
C30	C	1.458310	0.865336	0.777129
C31	C	1.545341	-0.029154	0.297403
C32	C	2.045341	0.470846	0.797403
C33	C	1.519950	-0.202933	0.267664
C34	C	2.019950	0.297067	0.767664
C35	C	1.769361	0.443263	0.284230
C36	C	2.269361	0.943263	0.784230
C37	C	1.913205	0.479307	0.294711
C38	C	2.413205	0.979307	0.794711
C39	C	1.538938	0.385534	0.013151
C40	C	2.038938	0.885534	0.513151
C41	C	1.534462	0.384420	-0.150858
C42	C	2.034462	0.884420	0.349142
N43	N	1.584895	0.741142	0.343659
N44	N	2.084895	1.241142	0.843659
C45	C	1.526353	0.382386	0.551939
C46	C	2.026353	0.882386	1.051939
C47	C	1.530831	0.383510	0.715950
C48	C	2.030831	0.883510	1.215950
H49	H	1.178420	0.527708	0.311035
H50	H	1.678420	1.027708	0.811035
F51	F	1.006573	0.642876	0.324882
F52	F	1.506573	1.142876	0.824882
H53	H	1.445559	-0.283695	0.180584
H54	H	1.945559	0.216305	0.680584
F55	F	1.642583	0.076410	0.411205
F56	F	2.142583	0.576410	0.911205
H57	H	0.886869	0.240196	0.254069
H58	H	1.386869	0.740196	0.754069
H59	H	1.659293	-0.178096	0.430732
H60	H	2.159293	0.321904	0.930732
H61	H	1.406019	-0.053990	0.134345
H62	H	1.906019	0.446010	0.634345
H63	H	1.080644	0.163491	0.247321
H64	H	1.580644	0.663491	0.747321
