data_functionalizedCrystal
_audit_creation_method	'MofGen! by Chris Wilmer'
_symmetry_space_group_name_H-M	'P1'
_symmetry_Int_Tables_number	1
_symmetry_cell_setting	triclinic
loop_
_symmetry_equiv_pos_as_xyz
  x,y,z
_cell_length_a	16.959454
_cell_length_b	16.959455
_cell_length_c	16.959447
_cell_angle_alpha	90.019044
_cell_angle_beta	89.973264
_cell_angle_gamma	89.981743
loop_
_atom_site_label
_atom_site_type_symbol
_atom_site_fract_x
_atom_site_fract_y
_atom_site_fract_z
Zn1	Zn	-0.314704	-1.208384	-0.447028
Zn2	Zn	-0.446897	-1.208306	-0.314858
Zn3	Zn	-0.314732	-1.076212	-0.314855
Zn4	Zn	-0.446840	-1.076177	-0.446985
O5	O	-0.380793	-1.142270	-0.380931
O6	O	-0.332252	-1.318984	-0.429514
O7	O	-0.429400	-1.190766	-0.204246
O8	O	-0.204117	-1.093792	-0.332404
O9	O	-0.429373	-1.318927	-0.332409
O10	O	-0.204097	-1.190898	-0.429511
O11	O	-0.332299	-1.093717	-0.204244
O12	O	-0.332244	-0.965597	-0.332363
O13	O	-0.429277	-1.093732	-0.557602
O14	O	-0.429304	-0.965571	-0.429439
O15	O	-0.332197	-1.190864	-0.557633
O16	O	-0.557500	-1.190732	-0.332368
O17	O	-0.557459	-1.093657	-0.429442
C18	C	-0.380772	-0.936904	-0.380896
C19	C	-0.380781	-0.849047	-0.380900
C20	C	-0.330174	-0.807763	-0.330436
C21	C	-0.431393	-0.807777	-0.431372
C22	C	-0.431401	-0.725231	-0.431380
C23	C	-0.380794	-0.683948	-0.380917
C24	C	-0.330179	-0.725209	-0.330445
C25	C	-0.482010	-0.683963	-0.481857
C26	C	-0.482019	-0.601412	-0.481868
C27	C	-0.431416	-0.560127	-0.431400
C28	C	-0.380799	-0.601394	-0.380925
C29	C	-0.330192	-0.560110	-0.330461
C30	C	-0.279579	-0.601376	-0.279982
C31	C	-0.279575	-0.683924	-0.279977
C32	C	-0.431419	-0.477579	-0.431405
C33	C	-0.330197	-0.477557	-0.330470
C34	C	-0.586160	-1.142204	-0.380918
C35	C	-0.674016	-1.142248	-0.380939
C36	C	-1.045500	-1.091796	-0.431472
C37	C	-1.045483	-1.192964	-0.330471
C38	C	-0.962937	-1.192936	-0.330464
C39	C	-0.921669	-1.142337	-0.380961
C40	C	-0.962947	-1.091765	-0.431465
C41	C	-0.921654	-1.243501	-0.279955
C42	C	-0.839103	-1.243475	-0.279945
C43	C	-0.797833	-1.192879	-0.330446
C44	C	-0.839116	-1.142306	-0.380953
C45	C	-0.797847	-1.091707	-0.431450
C46	C	-0.839128	-1.041137	-0.481962
C47	C	-0.921677	-1.041170	-0.481966
C48	C	-0.715284	-1.192847	-0.330442
C49	C	-0.715294	-1.091676	-0.431443
C50	C	-0.174625	-1.142358	-0.380962
C51	C	-0.086768	-1.142395	-0.380975
C52	C	-0.380728	-1.142303	-0.587100
C53	C	-0.380700	-1.142317	-0.674956
C54	C	-0.380812	-0.348438	-0.380957
C55	C	-0.380812	-0.436295	-0.380942
C56	C	-0.431162	-1.091839	-1.046418
C57	C	-0.330072	-1.192983	-1.046446
C58	C	-0.330088	-1.192962	-0.963900
C59	C	-0.380643	-1.142380	-0.922609
C60	C	-0.431182	-1.091818	-0.963865
C61	C	-0.279557	-1.243529	-0.922639
C62	C	-0.279572	-1.243510	-0.840088
C63	C	-0.330124	-1.192923	-0.798795
C64	C	-0.380663	-1.142359	-0.840056
C65	C	-0.431218	-1.091776	-0.798765
C66	C	-0.481755	-1.041207	-0.840024
C67	C	-0.481733	-1.041231	-0.922573
C68	C	-0.330145	-1.192899	-0.716247
C69	C	-0.431238	-1.091755	-0.716212
C70	C	-0.380801	-1.142283	-0.175565
C71	C	-0.380607	-1.142422	-0.087709
H72	H	-0.288969	-0.841365	-0.289335
H73	H	-0.472305	-1.050665	-1.080015
C74	C	-1.070862	-1.053221	-0.565285
C75	C	-1.090873	-1.036214	-0.486994
H76	H	-1.098878	-1.018909	-0.599561
H77	H	-1.015799	-1.045957	-0.572499
H78	H	-1.084349	-1.106330	-0.576896
H79	H	-1.077381	-0.983107	-0.475381
H80	H	-1.145948	-1.043472	-0.479777
H81	H	-0.522880	-1.000063	-0.956173
C82	C	-0.179639	-1.343486	-0.848416
C83	C	-0.224017	-1.299086	-0.794740
H84	H	-0.145338	-1.377791	-0.820417
H85	H	-0.214074	-1.373717	-0.880601
H86	H	-0.149399	-1.309060	-0.880623
H87	H	-0.254262	-1.333513	-0.762536
H88	H	-0.189578	-1.268853	-0.762541
C89	C	-0.268465	-0.776727	-0.173674
C90	C	-0.223943	-0.729290	-0.224501
H91	H	-0.234118	-0.804740	-0.139431
H92	H	-0.302860	-0.744503	-0.143382
H93	H	-0.298604	-0.813118	-0.203740
H94	H	-0.193809	-0.692894	-0.194435
H95	H	-0.189535	-0.761516	-0.254796
H96	H	-0.805497	-1.284651	-0.238817
C97	C	-0.285164	-1.237927	-1.172999
C98	C	-0.274506	-1.248584	-1.091831
H99	H	-0.250854	-1.272252	-1.201018
H100	H	-0.338265	-1.249477	-1.186507
H101	H	-0.273585	-1.184825	-1.186520
H102	H	-0.286090	-1.301685	-1.078309
H103	H	-0.221393	-1.237040	-1.078317
H104	H	-1.079089	-1.234154	-0.289354
C105	C	-0.234653	-0.474822	-0.235183
C106	C	-0.223956	-0.555990	-0.224509
H107	H	-0.200318	-0.446803	-0.200932
H108	H	-0.223141	-0.461330	-0.288306
H109	H	-0.287753	-0.461285	-0.223535
H110	H	-0.170856	-0.569528	-0.236163
H111	H	-0.235462	-0.569488	-0.171374
H112	H	-0.955295	-0.999998	-0.523089
H113	H	-0.681698	-1.050475	-0.472567
H114	H	-0.289001	-1.234074	-0.682658
H115	H	-0.681677	-1.234016	-0.289312
H116	H	-0.288987	-0.443949	-0.289374
H117	H	-0.472592	-0.841396	-0.472461
H118	H	-0.472400	-1.050557	-0.682599
H119	H	-0.238403	-1.284715	-0.956263
H120	H	-0.955260	-1.284690	-0.238837
C121	C	-0.537759	-0.384724	-0.442236
C122	C	-0.487045	-0.432221	-0.486890
H123	H	-0.572098	-0.356721	-0.476494
H124	H	-0.567952	-0.416906	-0.407755
H125	H	-0.507617	-0.348324	-0.412184
H126	H	-0.517187	-0.468626	-0.516937
H127	H	-0.456848	-0.400037	-0.521384
H128	H	-0.805518	-0.999936	-0.523073
C129	C	-0.493105	-0.776853	-0.588137
C130	C	-0.537633	-0.729347	-0.537321
H131	H	-0.527448	-0.804878	-0.622374
H132	H	-0.458713	-0.744675	-0.618435
H133	H	-0.462964	-0.813234	-0.558062
H134	H	-0.567770	-0.692962	-0.567395
H135	H	-0.572039	-0.761529	-0.507020
C136	C	-0.582080	-0.609727	-0.581632
C137	C	-0.537661	-0.556057	-0.537344
H138	H	-0.616436	-0.581724	-0.615874
H139	H	-0.547675	-0.641939	-0.611924
H140	H	-0.612265	-0.641909	-0.547131
H141	H	-0.507471	-0.523880	-0.571844
H142	H	-0.572070	-0.523832	-0.507049
C143	C	-0.526666	-0.996275	-0.713465
C144	C	-0.537323	-0.985607	-0.794632
H145	H	-0.560968	-0.961947	-0.685441
H146	H	-0.538247	-1.049370	-0.699950
H147	H	-0.473556	-0.984729	-0.699956
H148	H	-0.590432	-0.997159	-0.808141
H149	H	-0.525748	-0.932500	-0.808152
