data_functionalizedCrystal
_audit_creation_method	'MofGen! by Chris Wilmer'
_symmetry_space_group_name_H-M	'P1'
_symmetry_Int_Tables_number	1
_symmetry_cell_setting	triclinic
loop_
_symmetry_equiv_pos_as_xyz
  x,y,z
_cell_length_a	9.798715
_cell_length_b	16.109301
_cell_length_c	16.109301
_cell_angle_alpha	83.461481
_cell_angle_beta	89.995430
_cell_angle_gamma	89.999034
loop_
_atom_site_label
_atom_site_type_symbol
_atom_site_fract_x
_atom_site_fract_y
_atom_site_fract_z
O1	O	0.113409	-1.103131	-0.106865
O2	O	0.613409	-0.603131	0.393135
O3	O	0.113431	-0.861069	-0.120165
O4	O	0.613431	-0.361069	0.379835
O5	O	0.113406	-0.988750	0.007516
O6	O	0.613406	-0.488750	0.507516
O7	O	0.113435	-0.975450	-0.234546
O8	O	0.613435	-0.475450	0.265454
O9	O	-0.113577	-0.988740	0.007516
O10	O	0.386423	-0.488740	0.507516
O11	O	-0.113551	-0.861060	-0.120164
O12	O	0.386449	-0.361060	0.379836
O13	O	-0.113573	-1.103122	-0.106865
O14	O	0.386427	-0.603122	0.393135
Zn15	Zn	-0.149600	-0.982089	-0.113515
Zn16	Zn	0.350400	-0.482089	0.386485
Zn17	Zn	0.149458	-0.982102	-0.113515
Zn18	Zn	0.649458	-0.482102	0.386485
O19	O	-0.113547	-0.975441	-0.234546
O20	O	0.386453	-0.475441	0.265454
C21	C	-0.000057	-0.830090	-0.119626
C22	C	0.499943	-0.330090	0.380374
C23	C	-0.000049	-0.737794	-0.118011
C24	C	0.499951	-0.237794	0.381989
N25	N	-0.353700	-0.982087	-0.113514
N26	N	0.146300	-0.482087	0.386486
C27	C	-0.000086	-0.988206	0.038491
C28	C	0.499914	-0.488206	0.538491
C29	C	-0.000088	-0.986591	0.130786
C30	C	0.499912	-0.486591	0.630786
C31	C	-0.421488	-1.035698	-0.059670
C32	C	0.078512	-0.535698	0.440330
C33	C	-0.578650	-1.035712	-0.059667
C34	C	-0.078650	-0.535712	0.440333
N35	N	0.353558	-0.982111	-0.113509
N36	N	0.853558	-0.482111	0.386491
C37	C	-0.000082	-1.134101	-0.107404
C38	C	0.499918	-0.634101	0.392596
C39	C	-0.000081	-1.226397	-0.109019
C40	C	0.499919	-0.726397	0.390981
C41	C	-0.000056	-0.515522	-0.190018
C42	C	0.499944	-0.015522	0.309982
C43	C	-0.000065	-0.428801	-0.188494
C44	C	0.499935	0.071199	0.311506
C45	C	-0.000078	-0.448676	-0.037006
C46	C	0.499922	0.051324	0.462994
C47	C	-0.000078	-0.535394	-0.038530
C48	C	0.499922	-0.035394	0.461470
C49	C	-0.000061	-0.568815	-0.115039
C50	C	0.499939	-0.068815	0.384961
C51	C	-0.000069	-0.395376	-0.111990
C52	C	0.499931	0.104624	0.388010
C53	C	-0.000079	-0.301350	-0.110337
C54	C	0.499921	0.198650	0.389663
C55	C	-0.000054	-0.662847	-0.116693
C56	C	0.499946	-0.162847	0.383307
C57	C	-0.000053	-0.975984	-0.265521
C58	C	0.499947	-0.475984	0.234479
C59	C	-0.000042	-0.977600	-0.357816
C60	C	0.499958	-0.477600	0.142184
C61	C	-0.000073	-1.058599	0.353059
C62	C	0.499927	-0.558599	0.853059
C63	C	-0.000061	-1.057075	0.439779
C64	C	0.499939	-0.557075	0.939779
C65	C	-0.000053	-0.905586	0.419905
C66	C	0.499947	-0.405586	0.919905
C67	C	-0.000055	-0.907111	0.333186
C68	C	0.499945	-0.407111	0.833186
C69	C	-0.000071	-0.983620	0.299766
C70	C	0.499929	-0.483620	0.799766
C71	C	-0.000058	-0.980571	0.473205
C72	C	0.499942	-0.480571	0.973205
C73	C	-0.000046	-0.978918	0.567231
C74	C	0.499954	-0.478918	1.067231
C75	C	-0.000081	-0.985273	0.205734
C76	C	0.499919	-0.485273	0.705734
H77	H	-0.636945	-1.081614	-0.013572
H78	H	-0.136945	-0.581614	0.486428
N79	N	-0.000069	-0.826240	0.275693
N80	N	0.499931	-0.326240	0.775693
H81	H	0.084073	-0.823499	0.239266
H82	H	0.584073	-0.323499	0.739266
H83	H	-0.000123	-0.777585	0.310077
H84	H	0.499877	-0.277585	0.810077
N85	N	-0.000080	-1.141115	0.317010
N86	N	0.499920	-0.641115	0.817010
H87	H	-0.084227	-1.145123	0.281482
H88	H	0.415773	-0.645123	0.781482
H89	H	-0.000027	-1.188332	0.363980
H90	H	0.499973	-0.688332	0.863980
H91	H	-0.000064	-0.385413	-0.249550
H92	H	0.499936	0.114587	0.250450
N93	N	-0.344234	-1.096466	0.001401
N94	N	0.155766	-0.596466	0.501401
H95	H	-0.284921	-1.133327	-0.030295
H96	H	0.215079	-0.633327	0.469705
H97	H	-0.411133	-1.132191	0.037330
H98	H	0.088867	-0.632191	0.537330
H99	H	-0.588156	-0.936212	-0.159612
H100	H	-0.088156	-0.436212	0.340388
N101	N	-0.430936	-0.921294	-0.174570
N102	N	0.069064	-0.421294	0.325430
H103	H	-0.490212	-0.953201	-0.211257
H104	H	0.009788	-0.453201	0.288743
H105	H	-0.364020	-0.885528	-0.210446
H106	H	0.135980	-0.385528	0.289554
N107	N	-0.000075	-1.137949	0.497254
N108	N	0.499925	-0.637949	0.997254
H109	H	-0.084215	-1.140688	0.533683
H110	H	0.415785	-0.640688	1.033683
H111	H	0.084126	-1.140652	0.533617
H112	H	0.584126	-0.640652	1.033617
H113	H	-0.000052	-0.542730	-0.252317
H114	H	0.499948	-0.042730	0.247683
H115	H	-0.000042	-0.843295	0.447127
H116	H	0.499958	-0.343295	0.947127
N117	N	-0.000104	-0.412629	0.045511
N118	N	0.499896	0.087371	0.545511
H119	H	-0.000102	-0.349606	0.035102
H120	H	0.499898	0.150394	0.535102
H121	H	0.084035	-0.432127	0.078323
H122	H	0.584035	0.067873	0.578323
H123	H	-0.000086	-0.578788	0.022530
H124	H	0.499914	-0.078788	0.522530
