data_functionalizedCrystal
_audit_creation_method	'MofGen! by Chris Wilmer'
_symmetry_space_group_name_H-M	'P1'
_symmetry_Int_Tables_number	1
_symmetry_cell_setting	triclinic
loop_
_symmetry_equiv_pos_as_xyz
  x,y,z
_cell_length_a	12.837943
_cell_length_b	11.295483
_cell_length_c	12.837942
_cell_angle_alpha	94.530417
_cell_angle_beta	85.171060
_cell_angle_gamma	94.538773
loop_
_atom_site_label
_atom_site_type_symbol
_atom_site_fract_x
_atom_site_fract_y
_atom_site_fract_z
O1	O	1.408689	0.099003	-0.265788
O2	O	1.105556	0.099010	-0.252345
O3	O	1.250401	0.098999	-0.107500
O4	O	1.263845	0.099013	-0.410633
O5	O	1.237676	-0.099051	-0.120201
O6	O	1.092832	-0.099040	-0.265045
O7	O	1.395965	-0.099047	-0.278489
Cu8	Cu	1.243237	-0.117127	-0.272927
Cu9	Cu	1.258285	0.117090	-0.257907
O10	O	1.251121	-0.099037	-0.423333
C11	C	1.060125	-0.000014	-0.254153
C12	C	0.943710	-0.000012	-0.240609
N13	N	1.232661	-0.281863	-0.283491
C14	C	0.718835	-0.000021	-0.403439
C15	C	0.609453	-0.000020	-0.390717
C16	C	0.615561	-0.000016	-0.202446
C17	C	0.724943	-0.000017	-0.215167
C18	C	0.776576	-0.000018	-0.315667
C19	C	0.885961	-0.000011	-0.328387
C20	C	0.892066	-0.000016	-0.140117
C21	C	0.782684	-0.000015	-0.127396
C22	C	1.344996	-0.531161	-0.171231
C23	C	1.337012	-0.655824	-0.179223
C24	C	1.208702	-0.655854	-0.307459
C25	C	1.216687	-0.531191	-0.299467
C26	C	1.284837	-0.468849	-0.231353
C27	C	1.292826	-0.344183	-0.223367
C28	C	1.164512	-0.344216	-0.351597
C29	C	1.156528	-0.468879	-0.359589
C30	C	1.441396	-0.000021	-0.276680
C31	C	1.557812	-0.000015	-0.290224
C32	C	1.239497	-0.000025	-0.074781
C33	C	1.225953	-0.000023	0.041634
N34	N	1.268868	0.281825	-0.247335
C35	C	1.262024	-0.000010	-0.456052
C36	C	1.275569	-0.000004	-0.572467
C37	C	1.388784	-0.000002	0.266509
C38	C	1.376062	0.000000	0.375892
C39	C	1.187791	-0.000008	0.369784
C40	C	1.200512	-0.000010	0.260402
C41	C	1.301011	-0.000009	0.208768
C42	C	1.313731	-0.000020	0.099383
C43	C	1.125461	-0.000019	0.093278
C44	C	1.112740	-0.000017	0.202660
H45	H	0.928000	-0.000014	-0.410219
C46	C	1.559710	0.101811	0.244548
C47	C	1.499246	-0.000000	0.209741
H48	H	1.627902	0.101814	0.209495
H49	H	1.564699	0.101801	0.317945
H50	H	1.527539	0.170867	0.229790
H51	H	1.531412	-0.069056	0.224506
H52	H	1.494261	-0.000001	0.136327
H53	H	1.053990	-0.000034	0.046252
C54	C	0.799709	-0.000003	0.057424
C55	C	0.725924	-0.000009	-0.016930
H56	H	0.764667	-0.000003	0.125622
H57	H	0.846678	0.069056	0.052967
H58	H	0.837811	-0.069073	0.044118
H59	H	0.687827	0.069066	-0.003628
H60	H	0.678936	-0.069075	-0.012469
H61	H	1.400494	-0.480401	-0.115777
H62	H	1.348320	-0.293425	-0.167908
H63	H	1.385998	-0.706555	-0.130265
C64	C	0.701817	-0.000014	-0.588259
C65	C	0.775599	-0.000017	-0.513903
H66	H	0.736861	-0.000018	-0.656456
H67	H	0.663721	0.069047	-0.574954
H68	H	0.654841	-0.069083	-0.583805
H69	H	0.822570	0.069057	-0.518352
H70	H	0.813713	-0.069085	-0.527213
C71	C	1.477517	0.101821	0.508960
C72	C	1.472545	0.000008	0.439361
H73	H	1.537089	0.101829	0.548137
H74	H	1.415855	0.101810	0.555365
H75	H	1.482998	0.170876	0.470574
H76	H	1.467057	-0.069047	0.477747
H77	H	1.534223	0.000009	0.392950
C78	C	1.036883	-0.356774	-0.479164
C79	C	1.098380	-0.275722	-0.417691
H80	H	0.996066	-0.314485	-0.519973
H81	H	0.991806	-0.405399	-0.434966
H82	H	1.081075	-0.405393	-0.524258
H83	H	1.054187	-0.227108	-0.372592
H84	H	1.143461	-0.227076	-0.461894
C85	C	1.484647	0.101812	0.077431
C86	C	1.424196	-0.000008	0.042621
H87	H	1.552842	0.101824	0.042384
H88	H	1.489631	0.101805	0.150829
H89	H	1.452470	0.170862	0.062669
H90	H	1.456370	-0.069058	0.057389
H91	H	1.419217	-0.000012	-0.030795
C92	C	0.502616	0.101781	-0.072400
C93	C	0.558789	-0.000023	-0.091986
H94	H	0.467572	0.101776	-0.004204
H95	H	0.452583	0.101770	-0.122855
H96	H	0.549603	0.170842	-0.076843
H97	H	0.511801	-0.069084	-0.087551
H98	H	0.608827	-0.000023	-0.041517
H99	H	0.562444	-0.000025	-0.462191
H100	H	1.105969	0.000004	0.411844
C101	C	1.025153	0.101802	-0.038675
C102	C	0.955538	-0.000011	-0.043628
H103	H	1.064340	0.101803	0.020889
H104	H	0.986785	0.170850	-0.033200
H105	H	1.071558	0.101787	-0.100350
H106	H	0.909128	0.000008	0.018043
H107	H	0.993908	-0.069076	-0.049095
C108	C	1.031081	-0.694297	-0.353367
C109	C	1.133784	-0.724405	-0.382308
H110	H	0.984828	-0.736627	-0.399570
H111	H	1.027230	-0.611148	-0.357234
H112	H	1.011528	-0.714718	-0.283672
H113	H	1.153340	-0.703975	-0.452001
H114	H	1.137639	-0.807573	-0.378452
C115	C	1.009641	-0.000025	0.367625
C116	C	1.002274	-0.000026	0.259422
H117	H	0.941441	-0.000041	0.402662
H118	H	1.050656	0.069042	0.391224
H119	H	1.041808	-0.069087	0.382370
H120	H	0.970114	0.069042	0.244676
H121	H	0.961244	-0.069100	0.235814
H122	H	1.101038	-0.519653	-0.415044
