data_functionalizedCrystal
_audit_creation_method	'MofGen! by Chris Wilmer'
_symmetry_space_group_name_H-M	'P1'
_symmetry_Int_Tables_number	1
_symmetry_cell_setting	triclinic
loop_
_symmetry_equiv_pos_as_xyz
  x,y,z
_cell_length_a	33.510554
_cell_length_b	33.509711
_cell_length_c	33.506470
_cell_angle_alpha	60.004186
_cell_angle_beta	60.008358
_cell_angle_gamma	59.994760
loop_
_atom_site_label
_atom_site_type_symbol
_atom_site_fract_x
_atom_site_fract_y
_atom_site_fract_z
O1	O	0.055430	-0.583081	0.487524
O2	O	0.555430	-0.083081	0.987524
O3	O	0.020931	-0.453975	0.392819
O4	O	0.520931	0.046025	0.892819
O5	O	0.102693	-0.535652	0.392731
O6	O	0.602693	-0.035652	0.892731
O7	O	-0.026332	-0.501404	0.487613
O8	O	0.473668	-0.001404	0.987613
O9	O	0.129823	-0.508526	0.419767
O10	O	0.629823	-0.008526	0.919767
O11	O	0.048062	-0.426850	0.419856
O12	O	0.548062	0.073150	0.919856
O13	O	0.082561	-0.555956	0.514561
O14	O	0.582561	-0.055956	1.014561
Cu15	Cu	0.067789	-0.488926	0.469677
Cu16	Cu	0.567789	0.011074	0.969677
Cu17	Cu	0.035703	-0.521005	0.437703
Cu18	Cu	0.535703	-0.021005	0.937703
O19	O	0.000799	-0.474279	0.514649
O20	O	0.500799	0.025721	1.014649
N21	N	0.090357	-0.466366	0.492168
N22	N	0.590357	0.033634	0.992168
N23	N	0.013139	-0.543569	0.415212
N24	N	0.513139	-0.043569	0.915212
C25	C	0.143028	-0.279707	0.544737
C26	C	0.643028	0.220293	1.044737
C27	C	0.143165	-0.413746	0.678712
C28	C	0.643165	0.086254	1.178712
C29	C	0.143043	-0.413725	0.544739
C30	C	0.643043	0.086275	1.044739
C31	C	0.277090	-0.413694	0.544637
C32	C	0.777090	0.086306	1.044637
C33	C	0.157791	-0.323929	0.559462
C34	C	0.657791	0.176071	1.059462
C35	C	0.157869	-0.398994	0.634489
C36	C	0.657869	0.101006	1.134489
C37	C	0.232865	-0.398963	0.559407
C38	C	0.732865	0.101037	1.059407
C39	C	0.157801	-0.398982	0.559463
C40	C	0.657801	0.101018	1.059463
C41	C	0.124237	-0.223419	0.525994
C42	C	0.624237	0.276581	1.025994
C43	C	0.124262	-0.432490	0.525997
C44	C	0.624262	0.067510	1.025997
C45	C	0.176583	-0.380217	0.578205
C46	C	0.676583	0.119783	1.078205
C47	C	0.358938	-0.399566	0.501510
C48	C	0.858938	0.100434	1.001510
C49	C	0.410104	-0.416609	0.484423
C50	C	0.910104	0.083391	0.984423
C51	C	0.410135	-0.499402	0.515995
C52	C	0.910135	0.000598	1.015995
C53	C	0.358969	-0.482358	0.533084
C54	C	0.858969	0.017642	1.033084
C55	C	0.136554	-0.197822	0.475693
C56	C	0.636554	0.302178	0.975693
C57	C	0.119469	-0.146653	0.458657
C58	C	0.619469	0.353347	0.958657
C59	C	0.077755	-0.146680	0.542223
C60	C	0.577755	0.353320	1.042223
C61	C	0.094840	-0.197850	0.559260
C62	C	0.594840	0.302150	1.059260
C63	C	0.073954	-0.420144	0.538396
C64	C	0.573954	0.079856	1.038396
C65	C	0.056884	-0.437203	0.521352
C66	C	0.556884	0.062797	1.021352
C67	C	0.140427	-0.478952	0.479524
C68	C	0.640427	0.021048	0.979524
C69	C	0.157498	-0.461894	0.496561
C70	C	0.657498	0.038106	0.996561
C71	C	0.074158	-0.420182	0.760618
C72	C	0.574158	0.079818	1.260618
C73	C	0.057149	-0.437256	0.811786
C74	C	0.557149	0.062744	1.311786
C75	C	0.140732	-0.479014	0.811717
C76	C	0.640732	0.020986	1.311717
C77	C	0.157740	-0.461942	0.760547
C78	C	0.657740	0.038058	1.260547
C79	C	0.124452	-0.432525	0.734999
C80	C	0.624452	0.067475	1.234999
C81	C	0.333372	-0.432439	0.525839
C82	C	0.833372	0.067561	1.025839
C83	C	-0.020612	-0.577650	0.170305
C84	C	0.479388	-0.077650	0.670305
C85	C	-0.020943	-0.788098	0.380897
C86	C	0.479057	-0.288098	0.880897
C87	C	-0.020912	-0.577638	0.380991
C88	C	0.479088	-0.077638	0.880991
C89	C	-0.231336	-0.577418	0.380585
C90	C	0.268664	-0.077418	0.880585
C91	C	-0.129735	-0.611383	0.346870
C92	C	0.370265	-0.111383	0.846870
C93	C	-0.054722	-0.611464	0.347017
C94	C	0.445278	-0.111464	0.847017
C95	C	-0.073450	-0.630202	0.328195
C96	C	0.426550	-0.130202	0.828195
C97	C	-0.087616	-0.712029	0.371239
C98	C	0.412384	-0.212029	0.871239
C99	C	-0.070599	-0.763199	0.388315
C100	C	0.429401	-0.263199	0.888315
C101	C	0.012191	-0.763282	0.356872
C102	C	0.512191	-0.263282	0.856872
C103	C	-0.004828	-0.712113	0.339795
C104	C	0.495172	-0.212113	0.839795
C105	C	-0.155381	-0.623711	0.397158
C106	C	0.344619	-0.123711	0.897158
C107	C	-0.206547	-0.606601	0.414133
C108	C	0.293453	-0.106601	0.914133
C109	C	-0.206417	-0.564839	0.330529
C110	C	0.293583	-0.064839	0.830529
C111	C	-0.155251	-0.581949	0.313554
C112	C	0.344749	-0.081949	0.813554
C113	C	-0.067051	-0.561160	0.334643
C114	C	0.432949	-0.061160	0.834643
C115	C	-0.050026	-0.544131	0.351759
C116	C	0.449974	-0.044131	0.851759
C117	C	-0.008343	-0.627704	0.393612
C118	C	0.491657	-0.127704	0.893612
C119	C	-0.025368	-0.644736	0.376502
C120	C	0.474632	-0.144736	0.876502
C121	C	-0.066922	-0.561168	0.246303
C122	C	0.433078	-0.061168	0.746303
C123	C	-0.049794	-0.544141	0.195134
C124	C	0.450206	-0.044141	0.695134
C125	C	-0.008048	-0.627719	0.195183
C126	C	0.491952	-0.127719	0.695183
C127	C	-0.025175	-0.644745	0.246352
C128	C	0.474825	-0.144745	0.746352
C129	C	-0.054614	-0.611468	0.271911
C130	C	0.445386	-0.111468	0.771911
C131	C	-0.054732	-0.686488	0.346980
C132	C	0.445268	-0.186488	0.846980
C133	C	-0.002117	-0.558258	0.114025
C134	C	0.497883	-0.058258	0.614025
C135	C	-0.002879	-0.844379	0.399940
C136	C	0.497121	-0.344379	0.899940
C137	C	-0.002504	-0.558243	0.399473
C138	C	0.497496	-0.058243	0.899473
C139	C	-0.287615	-0.558285	0.398601
C140	C	0.212385	-0.058285	0.898601
N141	N	0.434975	-0.466279	0.491900
N142	N	0.934975	0.033721	0.991900
O143	O	0.591199	-0.470749	0.375150
O144	O	1.091199	0.029251	0.875150
O145	O	0.591395	-0.565767	0.504116
O146	O	1.091395	-0.065767	1.004116
O147	O	0.591311	-0.565550	0.422329
O148	O	1.091311	-0.065550	0.922329
O149	O	0.591283	-0.470966	0.456937
O150	O	1.091283	0.029034	0.956937
O151	O	0.510024	-0.538522	0.449509
O152	O	1.010024	-0.038522	0.949509
O153	O	0.510108	-0.538739	0.531297
O154	O	1.010108	-0.038739	1.031297
O155	O	0.509913	-0.443721	0.402330
O156	O	1.009913	0.056279	0.902330
Cu157	Cu	0.502588	-0.488762	0.469295
Cu158	Cu	1.002588	0.011238	0.969295
Cu159	Cu	0.598719	-0.520726	0.437151
Cu160	Cu	1.098719	-0.020726	0.937151
O161	O	0.509997	-0.443938	0.484117
O162	O	1.009997	0.056062	0.984117
N163	N	0.666332	-0.543209	0.414541
N164	N	1.166332	-0.043209	0.914541
N165	N	0.090323	-0.121809	0.492157
N166	N	0.590323	0.378191	0.992157
O167	O	-0.026342	0.034503	0.487582
O168	O	0.473658	0.534503	0.987582
O169	O	0.102626	0.034543	0.392540
O170	O	0.602626	0.534543	0.892540
O171	O	0.020797	0.034507	0.392812
O172	O	0.520797	0.534507	0.892812
O173	O	0.055487	0.034539	0.487310
O174	O	0.555487	0.534539	0.987310
O175	O	0.047933	-0.046785	0.419900
O176	O	0.547933	0.453215	0.919900
O177	O	0.129763	-0.046749	0.419628
O178	O	0.629763	0.453251	0.919628
O179	O	0.000794	-0.046789	0.514670
O180	O	0.500794	0.453211	1.014670
Cu181	Cu	0.067756	-0.054192	0.469623
Cu182	Cu	0.567756	0.445808	0.969623
Cu183	Cu	0.035664	0.041946	0.437588
Cu184	Cu	0.535664	0.541946	0.937588
O185	O	0.082623	-0.046753	0.514399
O186	O	0.582623	0.453247	1.014399
N187	N	0.013091	0.109564	0.415054
N188	N	0.513091	0.609564	0.915054
N189	N	0.090671	-0.466416	0.836606
N190	N	0.590671	0.033584	1.336606
O191	O	0.086120	-0.583065	0.992910
O192	O	0.586120	-0.083065	1.492910
O193	O	-0.008880	-0.454051	0.992954
O194	O	0.491120	0.045949	1.492954
O195	O	-0.008658	-0.535864	0.992931
O196	O	0.491342	-0.035864	1.492931
O197	O	0.085897	-0.501252	0.992933
O198	O	0.585897	-0.001252	1.492933
O199	O	0.018407	-0.508749	0.911642
O200	O	0.518407	-0.008749	1.411642
O201	O	0.018185	-0.426936	0.911665
O202	O	0.518185	0.073064	1.411665
O203	O	0.113185	-0.555949	0.911621
O204	O	0.613185	-0.055949	1.411621
Cu205	Cu	0.068156	-0.488967	0.904221
Cu206	Cu	0.568156	0.011033	1.404221
Cu207	Cu	0.036148	-0.521034	1.000355
Cu208	Cu	0.536148	-0.021034	1.500355
O209	O	0.112963	-0.474136	0.911644
O210	O	0.612963	0.025864	1.411644
N211	N	0.013633	-0.543590	1.067970
N212	N	0.513633	-0.043590	1.567970
C213	C	0.031262	-0.424144	0.393290
C214	C	0.531262	0.075856	0.893290
C215	C	0.132513	-0.525291	0.393180
C216	C	0.632513	-0.025291	0.893180
C217	C	0.072229	-0.585787	0.514090
C218	C	0.572229	-0.085787	1.014090
C219	C	-0.029022	-0.484640	0.514200
C220	C	0.470978	0.015360	1.014200
C221	C	0.550775	-0.565338	0.533954
C222	C	1.050775	-0.065338	1.033954
C223	C	0.550672	-0.565070	0.432670
C224	C	1.050672	-0.065070	0.932670
C225	C	0.550530	-0.444149	0.372492
C226	C	1.050530	0.055851	0.872492
C227	C	0.550635	-0.444418	0.473776
C228	C	1.050635	0.055582	0.973776
C229	C	0.132408	-0.005998	0.392963
C230	C	0.632408	0.494002	0.892963
C231	C	0.031106	-0.006142	0.393333
C232	C	0.531106	0.493858	0.893333
C233	C	-0.029021	-0.006147	0.514213
C234	C	0.470979	0.493853	1.014213
C235	C	0.072314	-0.006104	0.513878
C236	C	0.572314	0.493896	1.013878
C237	C	-0.008430	-0.424240	0.952316
C238	C	0.491570	0.075760	1.452316
C239	C	-0.008150	-0.525550	0.952271
C240	C	0.491850	-0.025550	1.452271
C241	C	0.112735	-0.585760	0.952260
C242	C	0.612735	-0.085760	1.452260
C243	C	0.112461	-0.484444	0.952286
C244	C	0.612461	0.015556	1.452286
H245	H	0.016194	-0.427197	0.832639
H246	H	0.516194	0.072803	1.332639
O247	O	-0.073208	-0.006091	0.549828
O248	O	0.426792	0.493909	1.049828
C249	C	-0.094838	0.036020	0.562934
C250	C	0.405162	0.536020	1.062934
H251	H	-0.065197	0.050069	0.553001
H252	H	0.434803	0.550069	1.053001
H253	H	-0.121532	0.065492	0.542435
H254	H	0.378468	0.565492	1.042435
C255	C	-0.158854	0.005976	0.630556
C256	C	0.341146	0.505976	1.130556
C257	C	-0.122447	0.023228	0.618361
C258	C	0.377553	0.523228	1.118361
H259	H	-0.175886	-0.001913	0.664746
H260	H	0.324114	0.498087	1.164746
H261	H	-0.144282	-0.022395	0.621726
H262	H	0.355718	0.477605	1.121726
H263	H	-0.181093	0.030539	0.613470
H264	H	0.318907	0.530539	1.113470
H265	H	-0.100205	-0.001337	0.635442
H266	H	0.399795	0.498663	1.135442
H267	H	-0.137016	0.051595	0.627196
H268	H	0.362984	0.551595	1.127196
O269	O	0.550712	-0.408984	0.482554
O270	O	1.050712	0.091016	0.982554
C271	C	0.592768	-0.395783	0.449009
C272	C	1.092768	0.104217	0.949009
H273	H	0.622199	-0.427080	0.434653
H274	H	1.122199	0.072920	0.934653
H275	H	0.583193	-0.361743	0.417213
H276	H	1.083193	0.138257	0.917213
C277	C	0.575736	-0.346630	0.492341
C278	C	1.075736	0.153370	0.992341
C279	C	0.611886	-0.385071	0.474712
C280	C	1.111886	0.114929	0.974712
H281	H	0.587528	-0.340020	0.508194
H282	H	1.087528	0.159980	1.008194
H283	H	0.547401	-0.355522	0.514940
H284	H	1.047401	0.144478	1.014940
H285	H	0.567761	-0.318268	0.465841
H286	H	1.067761	0.181732	0.965841
H287	H	0.619856	-0.413434	0.501212
H288	H	1.119856	0.086566	1.001212
H289	H	0.640223	-0.376184	0.452117
H290	H	1.140223	0.123816	0.952117
O291	O	-0.073249	-0.475850	0.549700
O292	O	0.426751	0.024150	1.049700
C293	C	-0.103635	-0.427830	0.532037
C294	C	0.396365	0.072170	1.032037
H295	H	-0.080106	-0.404613	0.500640
H296	H	0.419894	0.095387	1.000640
H297	H	-0.128327	-0.428578	0.518477
H298	H	0.371673	0.071422	1.018477
C299	C	-0.164154	-0.434241	0.612035
C300	C	0.335846	0.065759	1.112035
C301	C	-0.135255	-0.405725	0.573475
C302	C	0.364745	0.094275	1.073475
H303	H	-0.183661	-0.420606	0.637595
H304	H	0.316339	0.079394	1.137595
H305	H	-0.143684	-0.466594	0.623935
H306	H	0.356316	0.033406	1.123935
H307	H	-0.184726	-0.434862	0.600728
H308	H	0.315274	0.065138	1.100728
H309	H	-0.114680	-0.405109	0.584780
H310	H	0.385320	0.094891	1.084780
H311	H	-0.155723	-0.373371	0.561577
H312	H	0.344277	0.126629	1.061577
O313	O	0.147890	-0.475663	0.952365
O314	O	0.647890	0.024337	1.452365
C315	C	0.161073	-0.509181	0.994448
C316	C	0.661073	-0.009181	1.494448
H317	H	0.129771	-0.523513	1.023879
H318	H	0.629771	-0.023513	1.523879
H319	H	0.195109	-0.540997	0.984915
H320	H	0.695109	-0.040997	1.484915
C321	C	0.210227	-0.465851	0.977391
C322	C	0.710227	0.034149	1.477391
C323	C	0.171780	-0.483450	1.013540
C324	C	0.671780	0.016550	1.513540
H325	H	0.216834	-0.449980	0.989167
H326	H	0.716834	0.050020	1.489167
H327	H	0.201347	-0.443270	0.949038
H328	H	0.701347	0.056730	1.449038
H329	H	0.238586	-0.492368	0.969450
H330	H	0.738586	0.007632	1.469450
H331	H	0.143420	-0.456932	1.021476
H332	H	0.643420	0.043068	1.521476
H333	H	0.180656	-0.506026	1.041896
H334	H	0.680656	-0.006026	1.541896
H335	H	0.550826	-0.595166	0.570996
H336	H	1.050826	-0.095166	1.070996
H337	H	0.079744	-0.006095	0.543566
H338	H	0.579744	0.493905	1.043566
H339	H	-0.227194	-0.540877	0.303400
H340	H	0.272806	-0.040877	0.803400
H341	H	0.142562	-0.622811	0.952240
H342	H	0.642562	-0.122811	1.452240
O343	O	-0.043967	-0.380018	0.952353
O344	O	0.456033	0.119982	1.452353
C345	C	-0.026370	-0.349596	0.952346
C346	C	0.473630	0.150404	1.452346
H347	H	0.005014	-0.373098	0.967727
H348	H	0.505014	0.126902	1.467727
H349	H	-0.012813	-0.324907	0.913351
H350	H	0.487187	0.175093	1.413351
C351	C	-0.106403	-0.289103	0.965348
C352	C	0.393597	0.210897	1.465348
C353	C	-0.067859	-0.317969	0.984243
C354	C	0.432141	0.182031	1.484243
H355	H	-0.131995	-0.269592	0.985021
H356	H	0.368005	0.230408	1.485021
H357	H	-0.118258	-0.309598	0.965350
H358	H	0.381742	0.190402	1.465350
H359	H	-0.095099	-0.268533	0.932852
H360	H	0.404901	0.231467	1.432852
H361	H	-0.079161	-0.338542	1.016736
H362	H	0.420839	0.161458	1.516736
H363	H	-0.056006	-0.297476	0.984247
H364	H	0.443994	0.202524	1.484247
H365	H	-0.037843	-0.532946	0.952238
H366	H	0.462157	-0.032946	1.452238
O367	O	0.041754	-0.391626	0.735878
O368	O	0.541754	0.108374	1.235878
C369	C	-0.006284	-0.384383	0.769464
C370	C	0.493716	0.115617	1.269464
H371	H	-0.006156	-0.415240	0.805927
H372	H	0.493844	0.084760	1.305927
H373	H	-0.020944	-0.347935	0.774917
H374	H	0.479056	0.152065	1.274917
C375	C	-0.039289	-0.346122	0.704744
C376	C	0.460711	0.153878	1.204744
C377	C	-0.039131	-0.384024	0.749527
C378	C	0.460869	0.115976	1.249527
H379	H	-0.059551	-0.345898	0.692446
H380	H	0.440449	0.154102	1.192446
H381	H	-0.006925	-0.351000	0.682116
H382	H	0.493075	0.149000	1.182116
H383	H	-0.051504	-0.315753	0.709294
H384	H	0.448496	0.184247	1.209294
H385	H	-0.026910	-0.414392	0.744976
H386	H	0.473090	0.085608	1.244976
H387	H	-0.071494	-0.379150	0.772154
H388	H	0.428506	0.120850	1.272154
O389	O	0.173085	-0.507655	0.836515
O390	O	0.673085	-0.007655	1.336515
C391	C	0.202676	-0.550556	0.823981
C392	C	0.702676	-0.050556	1.323981
H393	H	0.182904	-0.557671	0.809930
H394	H	0.682904	-0.057671	1.309930
H395	H	0.238608	-0.545894	0.794262
H396	H	0.738608	-0.045894	1.294262
C397	C	0.237455	-0.585367	0.886672
C398	C	0.737455	-0.085367	1.386672
C399	C	0.213169	-0.594107	0.869418
C400	C	0.713169	-0.094107	1.369418
H401	H	0.243930	-0.612231	0.914699
H402	H	0.743930	-0.112231	1.414699
H403	H	0.217521	-0.556463	0.895116
H404	H	0.717521	-0.056463	1.395116
H405	H	0.267396	-0.581481	0.861902
H406	H	0.767396	-0.081481	1.361902
H407	H	0.183227	-0.597987	0.894185
H408	H	0.683227	-0.097987	1.394185
H409	H	0.233099	-0.623013	0.860980
H410	H	0.733099	-0.123013	1.360980
O411	O	0.206594	-0.473990	0.735642
O412	O	0.706594	0.026010	1.235642
C413	C	0.218938	-0.499733	0.706033
C414	C	0.718938	0.000267	1.206033
H415	H	0.190101	-0.517057	0.721472
H416	H	0.690101	-0.017057	1.221472
H417	H	0.220602	-0.473414	0.667263
H418	H	0.720602	0.026586	1.167263
C419	C	0.304548	-0.518723	0.686248
C420	C	0.804548	-0.018723	1.186248
C421	C	0.269131	-0.540005	0.705212
C422	C	0.769131	-0.040005	1.205212
H423	H	0.335510	-0.543564	0.685739
H424	H	0.835510	-0.043564	1.185739
H425	H	0.296232	-0.501379	0.706194
H426	H	0.796232	-0.001379	1.206194
H427	H	0.305929	-0.496791	0.653941
H428	H	0.805929	0.003209	1.153941
H429	H	0.267747	-0.561932	0.737520
H430	H	0.767747	-0.061932	1.237520
H431	H	0.277448	-0.557355	0.685271
H432	H	0.777448	-0.057355	1.185271
O433	O	0.176544	-0.005780	0.357339
O434	O	0.676544	0.494220	0.857339
C435	C	0.213582	-0.047785	0.373836
C436	C	0.713582	0.452215	0.873836
H437	H	0.200284	-0.061983	0.415496
H438	H	0.700284	0.438017	0.915496
H439	H	0.222840	-0.077221	0.359848
H440	H	0.722840	0.422779	0.859848
C441	C	0.275830	-0.017290	0.303308
C442	C	0.775830	0.482710	0.803308
C443	C	0.259499	-0.034725	0.354476
C444	C	0.759499	0.465275	0.854476
H445	H	0.304155	-0.009235	0.291365
H446	H	0.804155	0.490765	0.791365
H447	H	0.250877	0.011009	0.292193
H448	H	0.750877	0.511009	0.792193
H449	H	0.283542	-0.041823	0.291658
H450	H	0.783542	0.458177	0.791658
H451	H	0.251782	-0.010191	0.366126
H452	H	0.751782	0.489809	0.866126
H453	H	0.284452	-0.063020	0.365593
H454	H	0.784452	0.436980	0.865593
O455	O	0.049150	-0.121784	0.574488
O456	O	0.549150	0.378216	1.074488
C457	C	0.003630	-0.092205	0.567175
C458	C	0.503630	0.407795	1.067175
H459	H	0.007708	-0.084533	0.528357
H460	H	0.507708	0.415467	1.028357
H461	H	-0.024154	-0.111938	0.594387
H462	H	0.475846	0.388062	1.094387
C463	C	-0.019078	-0.053025	0.622542
C464	C	0.480922	0.446975	1.122542
C465	C	-0.014068	-0.043599	0.574864
C466	C	0.485932	0.456401	1.074864
H467	H	-0.029997	-0.023043	0.627287
H468	H	0.470003	0.476957	1.127287
H469	H	0.011589	-0.072954	0.627470
H470	H	0.511589	0.427046	1.127470
H471	H	-0.042230	-0.069470	0.645213
H472	H	0.457770	0.430530	1.145213
H473	H	0.009088	-0.027160	0.552194
H474	H	0.509088	0.472840	1.052194
H475	H	-0.044731	-0.023666	0.569932
H476	H	0.455269	0.476334	1.069932
O477	O	0.022320	-0.006130	0.357850
O478	O	0.522320	0.493870	0.857850
C479	C	0.064274	-0.006133	0.315662
C480	C	0.564274	0.493867	0.815662
H481	H	0.087619	0.009270	0.316056
H482	H	0.587619	0.509270	0.816056
H483	H	0.086341	-0.045132	0.315073
H484	H	0.586341	0.454868	0.815073
C485	C	0.020085	0.006821	0.269355
C486	C	0.520085	0.506821	0.769355
C487	C	0.048756	0.025743	0.269838
C488	C	0.548756	0.525743	0.769838
H489	H	0.010514	0.026481	0.241089
H490	H	0.510514	0.526481	0.741089
H491	H	-0.008179	0.006820	0.297779
H492	H	0.491821	0.506820	0.797779
H493	H	0.038479	-0.025678	0.268867
H494	H	0.538479	0.474322	0.768867
H495	H	0.030360	0.058238	0.270332
H496	H	0.530360	0.558238	0.770332
H497	H	0.077017	0.025749	0.241413
H498	H	0.577017	0.525749	0.741413
O499	O	-0.095638	-0.528818	0.306079
O500	O	0.404362	-0.028818	0.806079
C501	C	-0.138559	-0.499192	0.331865
C502	C	0.361441	0.000808	0.831865
H503	H	-0.145732	-0.518938	0.372811
H504	H	0.354268	-0.018938	0.872811
H505	H	-0.133892	-0.463261	0.320991
H506	H	0.366108	0.036739	0.820991
C507	C	-0.173249	-0.464442	0.269118
C508	C	0.326751	0.035558	0.769118
C509	C	-0.182061	-0.488697	0.319409
C510	C	0.317939	0.011303	0.819409
H511	H	-0.200083	-0.457966	0.261434
H512	H	0.299917	0.042034	0.761434
H513	H	-0.144332	-0.484400	0.251745
H514	H	0.355668	0.015600	0.751745
H515	H	-0.169359	-0.434502	0.260063
H516	H	0.330641	0.065498	0.760063
H517	H	-0.185945	-0.518639	0.328462
H518	H	0.314055	-0.018639	0.828462
H519	H	-0.210980	-0.468743	0.336784
H520	H	0.289020	0.031257	0.836784
H521	H	0.046887	-0.396202	0.562361
H522	H	0.546887	0.103798	1.062361
O523	O	0.550620	-0.600536	0.423919
O524	O	1.050620	-0.100536	0.923919
C525	C	0.508552	-0.613720	0.457447
C526	C	1.008552	-0.113720	0.957447
H527	H	0.494543	-0.603990	0.491327
H528	H	0.994543	-0.103990	0.991327
H529	H	0.479037	-0.593106	0.439765
H530	H	0.979037	-0.093106	0.939765
C531	C	0.538597	-0.681063	0.430580
C532	C	1.038597	-0.181063	0.930580
C533	C	0.521394	-0.669116	0.472193
C534	C	1.021394	-0.169116	0.972193
H535	H	0.546517	-0.715233	0.439675
H536	H	1.046517	-0.215233	0.939675
H537	H	0.566938	-0.672179	0.407990
H538	H	1.066938	-0.172179	0.907990
H539	H	0.513999	-0.663880	0.415849
H540	H	1.013999	-0.163880	0.915849
H541	H	0.545994	-0.686293	0.486920
H542	H	1.045994	-0.186293	0.986920
H543	H	0.493057	-0.678003	0.494786
H544	H	0.993057	-0.178003	0.994786
O545	O	0.172739	-0.507444	0.450861
O546	O	0.672739	-0.007444	0.950861
C547	C	0.202295	-0.481593	0.407944
C548	C	0.702295	0.018407	0.907944
H549	H	0.182519	-0.440658	0.400848
H550	H	0.682519	0.059342	0.900848
H551	H	0.238255	-0.492479	0.412567
H552	H	0.738255	0.007521	0.912567
C553	C	0.237006	-0.544224	0.373121
C554	C	0.737006	-0.044224	0.873121
C555	C	0.212715	-0.493947	0.364403
C556	C	0.712715	0.006053	0.864403
H557	H	0.243436	-0.551846	0.346263
H558	H	0.743436	-0.051846	0.846263
H559	H	0.217095	-0.561642	0.402036
H560	H	0.717095	-0.061642	0.902036
H561	H	0.266970	-0.553289	0.376975
H562	H	0.766970	-0.053289	0.876975
H563	H	0.182749	-0.484883	0.360556
H564	H	0.682749	0.015117	0.860556
H565	H	0.232622	-0.476528	0.335487
H566	H	0.732622	0.023472	0.835487
O567	O	0.206363	-0.473797	0.484463
O568	O	0.706363	0.026203	0.984463
C569	C	0.218694	-0.430791	0.458716
C570	C	0.718694	0.069209	0.958716
H571	H	0.189820	-0.400057	0.441430
H572	H	0.689820	0.099943	0.941430
H573	H	0.220412	-0.420027	0.485021
H574	H	0.720412	0.079973	0.985021
C575	C	0.304311	-0.477621	0.439639
C576	C	0.804311	0.022379	0.939639
C577	C	0.268849	-0.439874	0.418404
C578	C	0.768849	0.060126	0.918404
H579	H	0.335250	-0.483223	0.414775
H580	H	0.835250	0.016777	0.914775
H581	H	0.296003	-0.506595	0.456987
H582	H	0.796003	-0.006595	0.956987
H583	H	0.305736	-0.468646	0.461560
H584	H	0.805736	0.031354	0.961560
H585	H	0.267419	-0.448852	0.396489
H586	H	0.767419	0.051148	0.896489
H587	H	0.277157	-0.410901	0.401052
H588	H	0.777157	0.089099	0.901052
H589	H	0.015920	-0.427139	0.531437
H590	H	0.515920	0.072861	1.031437
H591	H	0.084809	-0.218687	0.600218
H592	H	0.584809	0.281313	1.100218
H593	H	0.338156	-0.509129	0.552896
H594	H	0.838156	-0.009129	1.052896
H595	H	0.430973	-0.540048	0.521891
H596	H	0.930973	-0.040048	1.021891
H597	H	-0.134607	-0.647683	0.424287
H598	H	0.365393	-0.147683	0.924287
O599	O	0.550392	-0.408573	0.328311
O600	O	1.050392	0.091427	0.828311
C601	C	0.508263	-0.397247	0.319594
C602	C	1.008263	0.102753	0.819594
H603	H	0.494273	-0.429578	0.342402
H604	H	0.994273	0.070422	0.842402
H605	H	0.478768	-0.363752	0.330150
H606	H	0.978768	0.136248	0.830150
C607	C	0.538168	-0.346737	0.236989
C608	C	1.038168	0.153263	0.736989
C609	C	0.520987	-0.386449	0.264999
C610	C	1.020987	0.113551	0.764999
H611	H	0.546015	-0.340074	0.203312
H612	H	1.046015	0.159926	0.703312
H613	H	0.566550	-0.354366	0.242861
H614	H	1.066550	0.145634	0.742861
H615	H	0.513586	-0.318829	0.245791
H616	H	1.013586	0.181171	0.745791
H617	H	0.545571	-0.414357	0.256201
H618	H	1.045571	0.085643	0.756201
H619	H	0.492609	-0.378824	0.259123
H620	H	0.992609	0.121176	0.759123
O621	O	0.434866	-0.384607	0.460778
O622	O	0.934866	0.115393	0.960778
C623	C	0.401303	-0.336893	0.458057
C624	C	0.901303	0.163107	0.958057
H625	H	0.364821	-0.334907	0.461439
H626	H	0.864821	0.165093	0.961439
H627	H	0.395891	-0.327341	0.489050
H628	H	0.895891	0.172659	0.989050
C629	C	0.466043	-0.302796	0.404498
C630	C	0.966043	0.197204	0.904498
C631	C	0.421235	-0.300356	0.408647
C632	C	0.921235	0.199644	0.908647
H633	H	0.478338	-0.280258	0.374021
H634	H	0.978338	0.219742	0.874021
H635	H	0.488655	-0.334942	0.406332
H636	H	0.988655	0.165058	0.906332
H637	H	0.461526	-0.294838	0.430328
H638	H	0.961526	0.205162	0.930328
H639	H	0.425754	-0.308320	0.382821
H640	H	0.925754	0.191680	0.882821
H641	H	0.398624	-0.268210	0.406808
H642	H	0.898624	0.231790	0.906808
H643	H	0.338097	-0.358917	0.495611
H644	H	0.838097	0.141083	0.995611
O645	O	0.027173	-0.687355	0.316181
O646	O	0.527173	-0.187355	0.816181
C647	C	0.061942	-0.699882	0.274015
C648	C	0.561942	-0.199882	0.774015
H649	H	0.064341	-0.737026	0.278627
H650	H	0.564341	-0.237026	0.778627
H651	H	0.050432	-0.671083	0.240836
H652	H	0.550432	-0.171083	0.740836
C653	C	0.109285	-0.656675	0.260883
C654	C	0.609285	-0.156675	0.760883
C655	C	0.112234	-0.702298	0.266548
C656	C	0.612234	-0.202298	0.766548
H657	H	0.140307	-0.658163	0.256275
H658	H	0.640307	-0.158163	0.756275
H659	H	0.085859	-0.648233	0.289289
H660	H	0.585859	-0.148233	0.789289
H661	H	0.099691	-0.632681	0.233234
H662	H	0.599691	-0.132681	0.733234
H663	H	0.121822	-0.726290	0.294200
H664	H	0.621822	-0.226290	0.794200
H665	H	0.135663	-0.710744	0.238146
H666	H	0.635663	-0.210744	0.738146
O667	O	0.165035	-0.222637	0.443359
O668	O	0.665035	0.277363	0.943359
C669	C	0.139168	-0.210127	0.413799
C670	C	0.639168	0.289873	0.913799
H671	H	0.098238	-0.196077	0.433584
H672	H	0.598238	0.303923	0.933584
H673	H	0.150027	-0.180414	0.377849
H674	H	0.650027	0.319586	0.877849
C675	C	0.201802	-0.272836	0.379043
C676	C	0.701802	0.227164	0.879043
C677	C	0.151531	-0.255583	0.403346
C678	C	0.651531	0.244417	0.903346
H679	H	0.209430	-0.300874	0.372593
H680	H	0.709430	0.199126	0.872593
H681	H	0.219231	-0.281263	0.398957
H682	H	0.719231	0.218737	0.898957
H683	H	0.210845	-0.248071	0.349088
H684	H	0.710845	0.251929	0.849088
H685	H	0.142490	-0.280346	0.433303
H686	H	0.642490	0.219654	0.933303
H687	H	0.134101	-0.247161	0.383437
H688	H	0.634101	0.252839	0.883437
O689	O	-0.061845	-0.495270	0.170286
O690	O	0.438155	0.004730	0.670286
C691	C	-0.113088	-0.473980	0.182722
C692	C	0.386912	0.026020	0.682722
H693	H	-0.129591	-0.503091	0.196754
H694	H	0.370409	-0.003091	0.696754
H695	H	-0.128278	-0.457817	0.212424
H696	H	0.371722	0.042183	0.712424
C697	C	-0.105981	-0.397476	0.119992
C698	C	0.394019	0.102524	0.619992
C699	C	-0.126250	-0.433230	0.137223
C700	C	0.373750	0.066770	0.637223
H701	H	-0.114101	-0.372338	0.091927
H702	H	0.385899	0.127662	0.591927
H703	H	-0.071458	-0.411819	0.111615
H704	H	0.428542	0.088181	0.611615
H705	H	-0.118641	-0.384013	0.144748
H706	H	0.381359	0.115987	0.644748
H707	H	-0.113585	-0.446697	0.112468
H708	H	0.386415	0.053303	0.612468
H709	H	-0.160772	-0.418889	0.145594
H710	H	0.339228	0.081111	0.645594
O711	O	0.020553	-0.660111	0.170434
O712	O	0.520553	-0.160111	0.670434
C713	C	0.027729	-0.708158	0.204012
C714	C	0.527729	-0.208158	0.704012
H715	H	0.021963	-0.708057	0.240502
H716	H	0.521963	-0.208057	0.740502
H717	H	0.000494	-0.722780	0.209400
H718	H	0.500494	-0.222780	0.709400
C719	C	0.087229	-0.741152	0.139301
C720	C	0.587229	-0.241152	0.639301
C721	C	0.080151	-0.741028	0.184118
C722	C	0.580151	-0.241028	0.684118
H723	H	0.119564	-0.761428	0.127029
H724	H	0.619564	-0.261428	0.627029
H725	H	0.082393	-0.708782	0.116679
H726	H	0.582393	-0.208782	0.616679
H727	H	0.064530	-0.753336	0.143797
H728	H	0.564530	-0.253336	0.643797
H729	H	0.102845	-0.728838	0.179620
H730	H	0.602845	-0.228838	0.679620
H731	H	0.084992	-0.773397	0.206739
H732	H	0.584992	-0.273397	0.706739
O733	O	-0.061930	-0.495263	0.339652
O734	O	0.438070	0.004737	0.839652
C735	C	-0.044359	-0.474050	0.288404
C736	C	0.455641	0.025950	0.788404
H737	H	-0.012804	-0.503219	0.271954
H738	H	0.487196	-0.003219	0.771954
H739	H	-0.075014	-0.457858	0.273178
H740	H	0.424986	0.042142	0.773178
C741	C	-0.065135	-0.397523	0.295415
C742	C	0.434865	0.102477	0.795415
C743	C	-0.026377	-0.433348	0.275211
C744	C	0.473623	0.066652	0.775211
H745	H	-0.054045	-0.372414	0.287276
H746	H	0.445955	0.127586	0.787276
H747	H	-0.076975	-0.411813	0.329941
H748	H	0.423025	0.088187	0.829941
H749	H	-0.090678	-0.384036	0.282724
H750	H	0.409322	0.115964	0.782724
H751	H	-0.000837	-0.446839	0.287906
H752	H	0.499163	0.053161	0.787906
H753	H	-0.014532	-0.419059	0.240686
H754	H	0.485468	0.080941	0.740686
O755	O	0.131452	-0.121731	0.409804
O756	O	0.631452	0.378269	0.909804
C757	C	0.157210	-0.092129	0.397419
C758	C	0.657210	0.407871	0.897419
H759	H	0.148006	-0.084470	0.431134
H760	H	0.648006	0.415530	0.931134
H761	H	0.198162	-0.111834	0.383347
H762	H	0.698162	0.388166	0.883347
C763	C	0.153768	-0.052926	0.315943
C764	C	0.653768	0.447074	0.815943
C765	C	0.142459	-0.043516	0.357353
C766	C	0.642459	0.456484	0.857353
H767	H	0.144670	-0.022940	0.291227
H768	H	0.644670	0.477060	0.791227
H769	H	0.136415	-0.072871	0.324287
H770	H	0.636415	0.427129	0.824287
H771	H	0.187894	-0.069349	0.304223
H772	H	0.687894	0.430651	0.804223
H773	H	0.108332	-0.027100	0.369076
H774	H	0.608332	0.472900	0.869076
H775	H	0.159805	-0.023567	0.349010
H776	H	0.659805	0.476433	0.849010
O777	O	0.020150	-0.660092	0.422262
O778	O	0.520150	-0.160092	0.922262
C779	C	0.027391	-0.708141	0.429497
C780	C	0.527391	-0.208141	0.929497
H781	H	-0.003435	-0.708016	0.423714
H782	H	0.496565	-0.208016	0.923714
H783	H	0.063862	-0.722835	0.402305
H784	H	0.563862	-0.222835	0.902305
C785	C	0.065533	-0.741102	0.489048
C786	C	0.565533	-0.241102	0.989048
C787	C	0.027670	-0.740949	0.481948
C788	C	0.527670	-0.240949	0.981948
H789	H	0.065708	-0.761340	0.521401
H790	H	0.565708	-0.261340	1.021401
H791	H	0.060657	-0.708731	0.484172
H792	H	0.560657	-0.208731	0.984172
H793	H	0.095922	-0.753346	0.466384
H794	H	0.595922	-0.253346	0.966384
H795	H	-0.002718	-0.728700	0.504607
H796	H	0.497282	-0.228700	1.004607
H797	H	0.032541	-0.773319	0.486829
H798	H	0.532541	-0.273319	0.986829
O799	O	0.060650	-0.788253	0.349956
O800	O	0.560650	-0.288253	0.849956
C801	C	0.068621	-0.838893	0.370220
C802	C	0.568621	-0.338893	0.870220
H803	H	0.033383	-0.845842	0.399503
H804	H	0.533383	-0.345842	0.899503
H805	H	0.080446	-0.853422	0.340262
H806	H	0.580446	-0.353422	0.840262
C807	C	0.152233	-0.856662	0.357302
C808	C	0.652233	-0.356662	0.857302
C809	C	0.108954	-0.865197	0.393271
C810	C	0.608954	-0.365197	0.893271
H811	H	0.177115	-0.872889	0.371518
H812	H	0.677115	-0.372889	0.871518
H813	H	0.146865	-0.822545	0.343648
H814	H	0.646865	-0.322545	0.843648
H815	H	0.162082	-0.868770	0.332339
H816	H	0.662082	-0.368770	0.832339
H817	H	0.099104	-0.853084	0.418229
H818	H	0.599104	-0.353084	0.918229
H819	H	0.114323	-0.899313	0.406929
H820	H	0.614323	-0.399313	0.906929
O821	O	-0.102619	-0.787935	0.411946
O822	O	0.397381	-0.287935	0.911946
C823	C	-0.150319	-0.754345	0.414647
C824	C	0.349681	-0.254345	0.914647
H825	H	-0.152275	-0.717863	0.411239
H826	H	0.347725	-0.217863	0.911239
H827	H	-0.159878	-0.748936	0.383661
H828	H	0.340122	-0.248936	0.883661
C829	C	-0.184465	-0.819048	0.468245
C830	C	0.315535	-0.319048	0.968245
C831	C	-0.186869	-0.774242	0.464063
C832	C	0.313131	-0.274242	0.964063
H833	H	-0.207012	-0.831321	0.498726
H834	H	0.292988	-0.331321	0.998726
H835	H	-0.152329	-0.841679	0.466424
H836	H	0.347671	-0.341679	0.966424
H837	H	-0.192431	-0.814534	0.442420
H838	H	0.307569	-0.314534	0.942420
H839	H	-0.178898	-0.778757	0.489884
H840	H	0.321102	-0.278757	0.989884
H841	H	-0.219005	-0.751612	0.465889
H842	H	0.280995	-0.251612	0.965889
H843	H	-0.134369	-0.571905	0.272603
H844	H	0.365631	-0.071905	0.772603
O845	O	-0.231444	-0.618660	0.462990
O846	O	0.268556	-0.118660	0.962990
C847	C	-0.218977	-0.669908	0.484254
C848	C	0.281023	-0.169908	0.984254
H849	H	-0.204872	-0.686410	0.455114
H850	H	0.295128	-0.186410	0.955114
H851	H	-0.189320	-0.685090	0.500475
H852	H	0.310680	-0.185090	1.000475
C853	C	-0.281797	-0.662822	0.560727
C854	C	0.218203	-0.162822	1.060727
C855	C	-0.264477	-0.683089	0.524936
C856	C	0.235523	-0.183089	1.024936
H857	H	-0.309862	-0.670954	0.585823
H858	H	0.190138	-0.170954	1.085823
H859	H	-0.290195	-0.628296	0.546401
H860	H	0.209805	-0.128296	1.046401
H861	H	-0.257078	-0.675476	0.574238
H862	H	0.242922	-0.175476	1.074238
H863	H	-0.289192	-0.670431	0.511422
H864	H	0.210808	-0.170431	1.011422
H865	H	-0.256084	-0.717614	0.539260
H866	H	0.243916	-0.217614	1.039260
O867	O	0.022419	-0.379922	0.357788
O868	O	0.522419	0.120078	0.857788
C869	C	-0.017169	-0.371202	0.346565
C870	C	0.482831	0.128798	0.846565
H871	H	-0.021052	-0.407511	0.357351
H872	H	0.478948	0.092489	0.857351
H873	H	-0.052204	-0.347670	0.367607
H874	H	0.447796	0.152330	0.867607
C875	C	-0.003074	-0.299824	0.278064
C876	C	0.496926	0.200176	0.778064
C877	C	-0.007840	-0.344419	0.291307
C878	C	0.492160	0.155581	0.791307
H879	H	0.002679	-0.283300	0.243979
H880	H	0.502679	0.216700	0.743979
H881	H	0.023596	-0.305697	0.285626
H882	H	0.523596	0.194303	0.785626
H883	H	-0.032271	-0.280219	0.295603
H884	H	0.467729	0.219781	0.795603
H885	H	0.021358	-0.364025	0.273773
H886	H	0.521358	0.135975	0.773773
H887	H	-0.034506	-0.338549	0.283741
H888	H	0.465494	0.161451	0.783741
O889	O	0.176718	-0.534073	0.357649
O890	O	0.676718	-0.034073	0.857649
C891	C	0.185451	-0.573621	0.346356
C892	C	0.685451	-0.073621	0.846356
H893	H	0.162617	-0.597110	0.378683
H894	H	0.662617	-0.097110	0.878683
H895	H	0.174939	-0.559099	0.312839
H896	H	0.674939	-0.059099	0.812839
C897	C	0.268079	-0.575860	0.295924
C898	C	0.768079	-0.075860	0.795924
C899	C	0.240037	-0.604711	0.335630
C900	C	0.740037	-0.104711	0.835630
H901	H	0.301750	-0.595037	0.289305
H902	H	0.801750	-0.095037	0.789305
H903	H	0.262195	-0.549214	0.303530
H904	H	0.762195	-0.049214	0.803530
H905	H	0.259314	-0.563760	0.267998
H906	H	0.759314	-0.063760	0.767998
H907	H	0.248798	-0.616805	0.363556
H908	H	0.748798	-0.116805	0.863556
H909	H	0.245923	-0.631360	0.328028
H910	H	0.745923	-0.131360	0.828028
H911	H	-0.090896	-0.534066	0.267110
H912	H	0.409104	-0.034066	0.767110
H913	H	-0.015331	-0.685697	0.386578
H914	H	0.484669	-0.185697	0.886578
O915	O	0.081013	-0.630068	0.549533
O916	O	0.581013	-0.130068	1.049533
C917	C	0.092502	-0.666879	0.532753
C918	C	0.592502	-0.166879	1.032753
H919	H	0.076744	-0.650206	0.502393
H920	H	0.576744	-0.150206	1.002393
H921	H	0.133891	-0.684060	0.518044
H922	H	0.633891	-0.184060	1.018044
C923	C	0.089786	-0.726881	0.612595
C924	C	0.589786	-0.226881	1.112595
C925	C	0.070427	-0.706404	0.575309
C926	C	0.570427	-0.206404	1.075309
H927	H	0.076171	-0.751264	0.638845
H928	H	0.576171	-0.251264	1.138845
H929	H	0.082048	-0.702082	0.623900
H930	H	0.582048	-0.202082	1.123900
H931	H	0.124276	-0.741195	0.600331
H932	H	0.624276	-0.241195	1.100331
H933	H	0.035939	-0.692085	0.587571
H934	H	0.535939	-0.192085	1.087571
H935	H	0.078160	-0.731202	0.564007
H936	H	0.578160	-0.231202	1.064007
H937	H	-0.128252	-0.691169	0.377093
H938	H	0.371748	-0.191169	0.877093
H939	H	-0.015148	-0.685706	0.267200
H940	H	0.484852	-0.185706	0.767200
