data_functionalizedCrystal
_audit_creation_method	'MofGen! by Chris Wilmer'
_symmetry_space_group_name_H-M	'P1'
_symmetry_Int_Tables_number	1
_symmetry_cell_setting	triclinic
loop_
_symmetry_equiv_pos_as_xyz
  x,y,z
_cell_length_a	14.853558
_cell_length_b	17.038272
_cell_length_c	16.098691
_cell_angle_alpha	92.867641
_cell_angle_beta	93.045970
_cell_angle_gamma	87.371345
loop_
_atom_site_label
_atom_site_type_symbol
_atom_site_fract_x
_atom_site_fract_y
_atom_site_fract_z
O1	O	1.200221	0.098926	-0.069245
O2	O	0.938676	0.111094	-0.069249
O3	O	1.067894	-0.008807	-0.069241
O4	O	1.071002	0.218827	-0.069254
O5	O	1.075541	-0.002558	0.069269
O6	O	0.946322	0.117343	0.069260
O7	O	1.207867	0.105175	0.069264
Zn8	Zn	1.078309	0.112251	0.091253
Zn9	Zn	1.068234	0.104018	-0.091239
O10	O	1.078649	0.225076	0.069255
C11	C	0.908869	0.113669	0.000005
C12	C	0.808660	0.112020	0.000004
C13	C	0.757414	0.107841	-0.075501
C14	C	0.765748	0.114644	0.075507
C15	C	0.671597	0.113091	0.075509
C16	C	0.620351	0.108912	0.000004
C17	C	0.663255	0.106285	-0.075502
C18	C	0.628687	0.115710	0.151013
C19	C	0.534531	0.114156	0.151018
C20	C	0.483282	0.109982	0.075512
C21	C	0.526192	0.107357	0.000003
C22	C	0.474945	0.103177	-0.075501
C23	C	0.517853	0.100557	-0.151011
C24	C	0.612006	0.102112	-0.151007
C25	C	0.389129	0.108428	0.075508
C26	C	0.380786	0.101622	-0.075502
C27	C	1.068890	-0.034815	0.000014
C28	C	1.060454	-0.121618	0.000013
C29	C	1.137907	-0.171633	0.000015
C30	C	1.129975	-0.253194	0.000007
C31	C	1.044588	-0.284739	0.000003
C32	C	0.967129	-0.234718	-0.000001
C33	C	0.975062	-0.153158	0.000001
C34	C	1.016562	-0.530533	-0.000009
C35	C	1.008635	-0.612099	-0.000008
C36	C	1.171482	-0.630569	-0.000001
C37	C	1.179408	-0.549007	0.000006
C38	C	1.101948	-0.498994	-0.000003
C39	C	1.036478	-0.368107	-0.000002
C40	C	1.110059	-0.415628	-0.000003
C41	C	1.237674	0.102600	0.000008
C42	C	1.337882	0.104248	0.000004
C43	C	1.077653	0.251083	-0.000001
C44	C	1.086089	0.337887	-0.000006
N45	N	1.085190	0.117869	0.215799
C46	C	1.029298	0.072327	0.259410
C47	C	1.034135	0.076267	0.346597
C48	C	1.094871	0.125745	0.390171
C49	C	1.150766	0.171292	0.346554
C50	C	1.145923	0.167356	0.259369
C51	C	1.112405	0.140009	0.653413
C52	C	1.117246	0.143940	0.740604
C53	C	1.000614	0.048915	0.740641
C54	C	0.995780	0.044980	0.653454
C55	C	1.051672	0.090530	0.609845
C56	C	1.099819	0.129771	0.479290
C57	C	1.046719	0.086508	0.520728
N58	N	1.061353	0.098398	0.784215
H59	H	0.354197	0.110568	0.136987
H60	H	0.966956	-0.393800	-0.000004
F61	F	1.212412	-0.306420	0.000011
F62	F	0.982078	0.033855	0.474351
F63	F	0.917752	-0.645668	-0.000008
H64	H	0.979843	0.032034	0.223938
H65	H	0.897605	-0.260408	-0.000010
H66	H	0.911991	-0.112437	-0.000001
F67	F	0.683231	0.120159	0.231365
F68	F	1.171870	0.188508	0.607012
H69	H	0.988622	0.039181	0.382101
F70	F	0.326252	0.097179	-0.155866
F71	F	1.215398	0.223957	0.392931
F72	F	0.931111	-0.007657	0.607086
F73	F	1.200930	-0.382054	-0.000004
H74	H	0.955109	0.011832	0.776157
F75	F	1.228788	-0.138068	0.000028
H76	H	1.166705	0.184234	0.776080
F77	F	1.205413	0.215827	0.212955
H78	H	1.149272	0.170053	0.514778
F79	F	0.657678	0.099315	-0.231363
F80	F	0.463303	0.096094	-0.231366
H81	H	0.807479	0.118041	0.136980
F82	F	0.803078	0.105053	-0.155860
H83	H	0.499604	0.116289	0.212503
H84	H	1.234545	-0.671299	0.000005
F85	F	1.270286	-0.515443	-0.000011
H86	H	0.953489	-0.489821	-0.000016
