data_functionalizedCrystal
_audit_creation_method	'MofGen! by Chris Wilmer'
_symmetry_space_group_name_H-M	'P1'
_symmetry_Int_Tables_number	1
_symmetry_cell_setting	triclinic
loop_
_symmetry_equiv_pos_as_xyz
  x,y,z
_cell_length_a	11.792241
_cell_length_b	16.176319
_cell_length_c	11.792254
_cell_angle_alpha	90.006957
_cell_angle_beta	95.803993
_cell_angle_gamma	89.996803
loop_
_atom_site_label
_atom_site_type_symbol
_atom_site_fract_x
_atom_site_fract_y
_atom_site_fract_z
O1	O	1.506920	-0.068667	-0.155570
O2	O	2.006920	0.431333	0.344430
O3	O	1.176580	-0.068686	-0.171603
O4	O	1.676580	0.431314	0.328397
O5	O	1.349759	-0.068670	0.001583
O6	O	1.849759	0.431330	0.501583
O7	O	1.333741	-0.068683	-0.328756
O8	O	1.833741	0.431317	0.171244
O9	O	1.349735	0.068823	0.001595
O10	O	1.849735	0.568823	0.501595
O11	O	1.176556	0.068807	-0.171591
O12	O	1.676556	0.568807	0.328409
O13	O	1.506896	0.068827	-0.155559
O14	O	2.006896	0.568827	0.344441
Cu15	Cu	1.341724	0.081371	-0.163574
Cu16	Cu	1.841724	0.581371	0.336426
Cu17	Cu	1.341752	-0.081231	-0.163587
Cu18	Cu	1.841752	0.418769	0.336413
O19	O	1.333717	0.068811	-0.328745
O20	O	1.833717	0.568811	0.171255
C21	C	1.134277	0.000058	-0.170590
C22	C	1.634277	0.500058	0.329410
C23	C	1.008263	0.000051	-0.167576
C24	C	1.508263	0.500051	0.332424
N25	N	1.341712	0.195736	-0.163564
N26	N	1.841712	0.695736	0.336436
N27	N	1.341773	-0.195596	-0.163588
N28	N	1.841773	0.304404	0.336412
C29	C	0.777551	0.000075	-0.162033
C30	C	1.277551	0.500075	0.337967
C31	C	0.905936	0.000062	-0.165112
C32	C	1.405936	0.500062	0.334888
C33	C	1.549199	0.000081	-0.156571
C34	C	2.049199	0.500081	0.343429
C35	C	1.675213	0.000082	-0.159586
C36	C	2.175213	0.500082	0.340414
C37	C	1.348738	0.000076	0.043880
C38	C	1.848738	0.500076	0.543880
C39	C	1.345718	0.000075	0.169893
C40	C	1.845718	0.500075	0.669893
C41	C	1.418419	0.239008	-0.086909
C42	C	1.918419	0.739008	0.413091
C43	C	1.418425	0.325555	-0.086908
C44	C	1.918425	0.825555	0.413092
C45	C	1.341728	0.368829	-0.163568
C46	C	1.841728	0.868829	0.336432
C47	C	1.265013	0.325552	-0.240227
C48	C	1.765013	0.825552	0.259773
C49	C	1.265003	0.239006	-0.240221
C50	C	1.765003	0.739006	0.259779
C51	C	1.265052	0.674580	-0.240248
C52	C	1.765052	1.174580	0.259752
C53	C	1.265070	0.761131	-0.240250
C54	C	1.765070	1.261131	0.259750
C55	C	1.418474	0.761128	-0.086934
C56	C	1.918474	1.261128	0.413066
C57	C	1.418464	0.674583	-0.086929
C58	C	1.918464	1.174583	0.413071
C59	C	1.341745	0.631313	-0.163583
C60	C	1.841745	1.131313	0.336417
C61	C	1.341738	0.537469	-0.163582
C62	C	1.841738	1.037469	0.336418
C63	C	1.341740	0.462671	-0.163575
C64	C	1.841740	0.962671	0.336425
C65	C	1.334738	0.000062	-0.371041
C66	C	1.834738	0.500062	0.128959
C67	C	1.337758	0.000058	-0.497054
C68	C	1.837758	0.500058	0.002946
C69	C	1.343264	0.000072	0.272229
C70	C	1.843264	0.500072	0.772229
C71	C	1.340196	0.000064	0.400616
C72	C	1.840196	0.500064	0.900616
H73	H	1.480879	0.203779	-0.024488
H74	H	1.980879	0.703779	0.475512
H75	H	1.202538	0.203775	-0.302640
H76	H	1.702538	0.703775	0.197360
H77	H	1.480921	0.639352	-0.024509
H78	H	1.980921	1.139352	0.475491
H79	H	1.480885	0.360786	-0.024489
H80	H	1.980885	0.860786	0.475511
H81	H	1.202610	0.796364	-0.302678
H82	H	1.702610	1.296364	0.197322
H83	H	1.480940	0.796368	-0.024515
H84	H	1.980940	1.296368	0.475485
H85	H	1.202587	0.639356	-0.302665
H86	H	1.702587	1.139356	0.197335
H87	H	1.202559	0.360790	-0.302641
H88	H	1.702559	0.860790	0.197359
