data_functionalizedCrystal
_audit_creation_method	'MofGen! by Chris Wilmer'
_symmetry_space_group_name_H-M	'P1'
_symmetry_Int_Tables_number	1
_symmetry_cell_setting	triclinic
loop_
_symmetry_equiv_pos_as_xyz
  x,y,z
_cell_length_a	10.654554
_cell_length_b	16.776229
_cell_length_c	10.654550
_cell_angle_alpha	89.994543
_cell_angle_beta	95.514127
_cell_angle_gamma	90.007866
loop_
_atom_site_label
_atom_site_type_symbol
_atom_site_fract_x
_atom_site_fract_y
_atom_site_fract_z
O1	O	1.667842	0.066300	-0.176430
O2	O	1.302365	0.066299	-0.193230
O3	O	1.493506	0.066296	-0.002091
O4	O	1.476700	0.066302	-0.367569
O5	O	1.493481	-0.066280	-0.002079
O6	O	1.302339	-0.066278	-0.193218
O7	O	1.667817	-0.066276	-0.176418
Zn8	Zn	1.485074	-0.087327	-0.184816
Zn9	Zn	1.485107	0.087349	-0.184832
O10	O	1.476675	-0.066274	-0.367557
C11	C	1.255554	0.000010	-0.191989
C12	C	1.116111	0.000009	-0.188295
C13	C	0.933549	0.000018	-0.068808
C14	C	1.064571	0.000010	-0.072279
C15	C	1.036622	0.000009	-0.300848
C16	C	0.905603	0.000011	-0.297376
C17	C	0.949686	0.000022	0.063154
C18	C	1.080708	0.000014	0.059684
N19	N	1.485060	-0.206538	-0.184804
C20	C	1.569724	-0.248256	-0.100203
C21	C	1.569731	-0.331708	-0.100202
C22	C	1.485079	-0.373441	-0.184809
C23	C	1.400406	-0.331717	-0.269415
C24	C	1.400394	-0.248266	-0.269408
C25	C	1.400451	-0.668264	-0.269440
C26	C	1.400472	-0.751721	-0.269442
C27	C	1.569788	-0.751706	-0.100234
C28	C	1.569776	-0.668255	-0.100227
C29	C	1.485099	-0.626539	-0.184827
C30	C	1.485091	-0.536050	-0.184826
C31	C	1.485092	-0.463927	-0.184818
C32	C	1.714627	0.000014	-0.177659
C33	C	1.854070	0.000020	-0.181353
C34	C	1.492260	0.000009	0.044713
C35	C	1.488568	0.000012	0.184156
N36	N	1.485131	0.206560	-0.184834
C37	C	1.477921	0.000015	-0.414361
C38	C	1.481613	0.000017	-0.553804
C39	C	1.601109	0.000010	0.263640
C40	C	1.597632	0.000016	0.394661
C41	C	1.369063	0.000022	0.366702
C42	C	1.372541	0.000022	0.235683
C43	C	1.733072	0.000003	0.279784
C44	C	1.729595	0.000009	0.410805
H45	H	0.914069	0.057266	0.105170
F46	F	1.659878	-0.623843	-0.010182
F47	F	1.787965	-0.074822	0.233214
F48	F	1.252760	0.000041	0.151094
H49	H	0.920312	-0.055458	0.114772
H50	H	1.274598	0.000030	0.408671
H51	H	0.840895	0.000004	-0.389021
H52	H	1.331534	-0.785698	-0.338341
F53	F	1.091478	0.000000	-0.424322
H54	H	1.331507	-0.634305	-0.338326
F55	F	1.800549	0.072517	0.241396
H56	H	1.126335	-0.057232	0.099566
H57	H	1.638662	-0.214282	-0.031312
H58	H	1.638733	-0.785680	-0.031343
H59	H	1.638669	-0.365674	-0.031313
F60	F	1.781735	0.074827	0.470462
H61	H	1.331450	-0.214300	-0.338298
H62	H	1.122476	0.055497	0.109394
F63	F	1.310305	-0.376132	-0.359455
H64	H	1.779306	-0.055473	0.452569
