data_functionalizedCrystal
_audit_creation_method	'MofGen! by Chris Wilmer'
_symmetry_space_group_name_H-M	'P1'
_symmetry_Int_Tables_number	1
_symmetry_cell_setting	triclinic
loop_
_symmetry_equiv_pos_as_xyz
  x,y,z
_cell_length_a	18.215405
_cell_length_b	18.215407
_cell_length_c	18.215399
_cell_angle_alpha	89.982223
_cell_angle_beta	90.030551
_cell_angle_gamma	89.979495
loop_
_atom_site_label
_atom_site_type_symbol
_atom_site_fract_x
_atom_site_fract_y
_atom_site_fract_z
Zn1	Zn	-0.293078	-1.125072	0.416062
Zn2	Zn	0.206922	-0.625072	0.916062
Zn3	Zn	-0.416149	-1.124980	0.292990
Zn4	Zn	0.083851	-0.624980	0.792990
Zn5	Zn	-0.293092	-1.002004	0.293014
Zn6	Zn	0.206908	-0.502004	0.793014
Zn7	Zn	-0.416098	-1.001970	0.416020
Zn8	Zn	0.083902	-0.501970	0.916020
O9	O	-0.354604	-1.063507	0.354521
O10	O	0.145396	-0.563507	0.854521
O11	O	-0.309419	-1.228044	0.399744
O12	O	0.190581	-0.728044	0.899744
O13	O	-0.399852	-1.108643	0.190009
O14	O	0.100148	-0.608643	0.690009
O15	O	-0.190105	-1.018382	0.309364
O16	O	0.309895	-0.518382	0.809364
O17	O	-0.399839	-1.227977	0.309324
O18	O	0.100161	-0.727977	0.809324
O19	O	-0.190095	-1.108799	0.399767
O20	O	0.309905	-0.608799	0.899767
O21	O	-0.309443	-1.018293	0.190026
O22	O	0.190557	-0.518293	0.690026
O23	O	-0.309393	-0.899016	0.309323
O24	O	0.190607	-0.399016	0.809323
O25	O	-0.399752	-1.018324	0.519010
O26	O	0.100248	-0.518324	1.019010
O27	O	-0.399765	-0.898991	0.399695
O28	O	0.100235	-0.398991	0.899695
O29	O	-0.309369	-1.108766	0.519041
O30	O	0.190631	-0.608766	1.019041
O31	O	-0.519127	-1.108610	0.309283
O32	O	-0.019127	-0.608610	0.809283
O33	O	-0.519089	-1.018235	0.399672
O34	O	-0.019089	-0.518235	0.899672
C35	C	-0.354575	-0.872300	0.354507
C36	C	0.145425	-0.372300	0.854507
C37	C	-0.354581	-0.790502	0.354519
C38	C	0.145419	-0.290502	0.854519
C39	C	-0.307590	-0.602342	0.401673
C40	C	0.192410	-0.102342	0.901673
C41	C	-0.307594	-0.525483	0.401675
C42	C	0.192406	-0.025483	0.901675
C43	C	-0.401607	-0.525424	0.307375
C44	C	0.098393	-0.025424	0.807375
C45	C	-0.401599	-0.602281	0.307370
C46	C	0.098401	-0.102281	0.807370
C47	C	-0.354591	-0.640738	0.354523
C48	C	0.145409	-0.140738	0.854523
C49	C	-0.354603	-0.487022	0.354530
C50	C	0.145397	0.012978	0.854530
C51	C	-0.354608	-0.403688	0.354532
C52	C	0.145392	0.096312	0.854532
C53	C	-0.354586	-0.724077	0.354521
C54	C	0.145414	-0.224077	0.854521
C55	C	-0.545810	-1.063429	0.354486
C56	C	-0.045810	-0.563429	0.854486
C57	C	-0.627609	-1.063463	0.354496
C58	C	-0.127609	-0.563463	0.854496
C59	C	-0.815798	-1.110632	0.307517
C60	C	-0.315798	-0.610632	0.807517
C61	C	-0.892657	-1.110665	0.307534
C62	C	-0.392657	-0.610665	0.807534
C63	C	-0.892658	-1.016476	0.401579
C64	C	-0.392658	-0.516476	0.901579
C65	C	-0.815800	-1.016447	0.401565
C66	C	-0.315800	-0.516447	0.901565
C67	C	-0.777373	-1.063524	0.354529
C68	C	-0.277373	-0.563524	0.854529
C69	C	-0.931089	-1.063586	0.354562
C70	C	-0.431089	-0.563586	0.854562
C71	C	-1.014422	-1.063621	0.354581
C72	C	-0.514422	-0.563621	0.854581
C73	C	-0.694034	-1.063490	0.354510
C74	C	-0.194034	-0.563490	0.854510
C75	C	-0.162651	-1.063605	0.354573
C76	C	0.337349	-0.563605	0.854573
C77	C	-0.080852	-1.063647	0.354595
C78	C	0.419148	-0.563647	0.854595
C79	C	-0.354553	-1.063552	0.546474
C80	C	0.145447	-0.563552	1.046474
C81	C	-0.354532	-1.063571	0.628273
C82	C	0.145468	-0.563571	1.128273
C83	C	-0.354625	-0.255460	0.354534
C84	C	0.145375	0.244540	0.854534
C85	C	-0.354614	-0.337259	0.354535
C86	C	0.145386	0.162741	0.854535
C87	C	-0.354602	-1.063504	0.163315
C88	C	0.145398	-0.563504	0.663315
C89	C	-0.354416	-1.063628	0.081517
C90	C	0.145584	-0.563628	0.581517
C91	C	-0.307426	-1.110681	0.816485
C92	C	0.192574	-0.610681	1.316485
C93	C	-0.307404	-1.110690	0.893344
C94	C	0.192596	-0.610690	1.393344
C95	C	-0.401524	-1.016513	0.893300
C96	C	0.098476	-0.516513	1.393300
C97	C	-0.401541	-1.016501	0.816443
C98	C	0.098459	-0.516501	1.316443
C99	C	-0.354493	-1.063589	0.778037
C100	C	0.145507	-0.563589	1.278037
C101	C	-0.354454	-1.063610	0.931753
C102	C	0.145546	-0.563610	1.431753
C103	C	-0.354432	-1.063619	1.015087
C104	C	0.145568	-0.563619	1.515087
C105	C	-0.354515	-1.063579	0.694698
C106	C	0.145485	-0.563579	1.194698
H107	H	-0.269320	-0.494224	0.440069
H108	H	0.230680	0.005776	0.940069
N109	N	-0.452315	-0.965711	0.774970
N110	N	0.047685	-0.465711	1.274970
H111	H	-0.445184	-0.972848	0.720454
H112	H	0.054816	-0.472848	1.220454
H113	H	-0.440853	-0.913158	0.788398
H114	H	0.059147	-0.413158	1.288398
N115	N	-0.452276	-0.965729	0.934714
N116	N	0.047724	-0.465729	1.434714
H117	H	-0.440840	-0.913152	0.921330
H118	H	0.059160	-0.413152	1.421330
H119	H	-0.445109	-0.972938	0.989225
H120	H	0.054891	-0.472938	1.489225
N121	N	-0.452304	-0.483945	0.256517
N122	N	0.047696	0.016055	0.756517
H123	H	-0.445178	-0.429430	0.263675
H124	H	0.054822	0.070570	0.763675
H125	H	-0.504877	-0.497370	0.267874
H126	H	-0.004877	0.002630	0.767874
N127	N	-0.774346	-1.161410	0.256796
N128	N	-0.274346	-0.661410	0.756796
H129	H	-0.787768	-1.150022	0.204205
H130	H	-0.287768	-0.650022	0.704205
H131	H	-0.787691	-1.213969	0.268344
H132	H	-0.287691	-0.713969	0.768344
H133	H	-0.923940	-1.149026	0.269253
H134	H	-0.423940	-0.649026	0.769253
N135	N	-0.934105	-0.965699	0.452305
N136	N	-0.434105	-0.465699	0.952305
H137	H	-0.988625	-0.972862	0.445180
H138	H	-0.488625	-0.472862	0.945180
H139	H	-0.920715	-0.913143	0.440798
H140	H	-0.420715	-0.413143	0.940798
H141	H	-0.439874	-0.633544	0.268971
H142	H	0.060126	-0.133544	0.768971
N143	N	-0.774349	-0.965638	0.452275
N144	N	-0.274349	-0.465638	0.952275
H145	H	-0.810354	-0.935815	0.482070
H146	H	-0.310354	-0.435815	0.982070
H147	H	-0.742506	-0.931589	0.422280
H148	H	-0.242506	-0.431589	0.922280
H149	H	-0.269076	-1.149035	0.924645
H150	H	0.230924	-0.649035	1.424645
N151	N	-0.256891	-0.643822	0.452528
N152	N	0.243109	-0.143822	0.952528
H153	H	-0.227116	-0.607832	0.482396
H154	H	0.272884	-0.107832	0.982396
H155	H	-0.222794	-0.675709	0.422631
H156	H	0.277206	-0.175709	0.922631
N157	N	-0.256683	-1.161465	0.775060
N158	N	0.243317	-0.661465	1.275060
H159	H	-0.226862	-1.191298	0.811082
H160	H	0.273138	-0.691298	1.311082
H161	H	-0.222630	-1.131520	0.743176
H162	H	0.277370	-0.631520	1.243176
