data_functionalizedCrystal
_audit_creation_method	'MofGen! by Chris Wilmer'
_symmetry_space_group_name_H-M	'P1'
_symmetry_Int_Tables_number	1
_symmetry_cell_setting	triclinic
loop_
_symmetry_equiv_pos_as_xyz
  x,y,z
_cell_length_a	13.262402
_cell_length_b	13.339070
_cell_length_c	14.586319
_cell_angle_alpha	89.998714
_cell_angle_beta	105.914826
_cell_angle_gamma	99.431904
loop_
_atom_site_label
_atom_site_type_symbol
_atom_site_fract_x
_atom_site_fract_y
_atom_site_fract_z
O1	O	1.432387	0.136461	0.280962
O2	O	1.131126	0.151288	0.205834
O3	O	1.247182	-0.003536	0.234778
O4	O	1.316332	0.291284	0.252017
O5	O	1.247170	-0.003538	0.387256
O6	O	1.131114	0.151285	0.358312
O7	O	1.432375	0.136459	0.433440
Cu8	Cu	1.281744	0.143872	0.409798
Cu9	Cu	1.281758	0.143875	0.229475
O10	O	1.316320	0.291282	0.404495
C11	C	1.091774	0.150454	0.272261
C12	C	0.974533	0.147962	0.243023
C13	C	0.919458	0.146791	0.146169
C14	C	0.809305	0.144459	0.118701
C15	C	0.754216	0.143290	0.188084
C16	C	0.809289	0.144454	0.284940
C17	C	0.919454	0.146794	0.312411
C18	C	0.754212	0.143293	0.354326
C19	C	0.809286	0.144457	0.451182
C20	C	0.919439	0.146796	0.478648
C21	C	0.974529	0.147965	0.409265
C22	C	0.644047	0.140953	0.326854
C23	C	0.644043	0.140956	0.493096
C24	C	0.754196	0.143288	0.520565
C25	C	1.235495	-0.041275	0.308103
C26	C	1.200677	-0.153725	0.299417
C27	C	1.471401	-0.517371	0.366930
C28	C	1.504117	-0.411720	0.375097
C29	C	1.428260	-0.347216	0.356177
C30	C	1.319681	-0.388373	0.329089
C31	C	1.286961	-0.494035	0.320928
C32	C	1.243820	-0.323880	0.310176
C33	C	1.135241	-0.365038	0.283088
C34	C	1.102527	-0.470689	0.274928
C35	C	1.178385	-0.535193	0.293848
C36	C	1.276540	-0.218218	0.318337
C37	C	1.092100	-0.194883	0.272336
C38	C	1.059384	-0.300534	0.264168
C39	C	1.471727	0.137292	0.367011
C40	C	1.588968	0.139785	0.396242
C41	C	1.328006	0.329022	0.331168
C42	C	1.362824	0.441471	0.339849
N43	N	1.281741	0.143869	0.536629
N44	N	1.281766	0.143869	0.102646
C45	C	1.333161	0.075337	0.784460
C46	C	1.333163	0.075334	0.880442
C47	C	1.230340	0.212405	0.854807
C48	C	1.230332	0.212402	0.758825
C49	C	1.281748	0.143869	0.723656
C50	C	1.281759	0.143870	0.915619
C51	C	1.281761	0.143868	1.019687
C52	C	1.281745	0.143869	0.619581
H53	H	0.764472	0.143512	0.039841
H54	H	0.964323	0.147750	0.089689
O55	O	1.463550	-0.233263	0.364981
H56	H	1.432364	-0.200369	0.419353
H57	H	1.188479	0.268204	0.883452
O58	O	0.584658	0.139694	0.222394
H59	H	0.498804	0.137880	0.214943
H60	H	1.533152	-0.569898	0.382339
H61	H	1.592522	-0.378217	0.397153
H62	H	1.064223	0.149856	0.431625
H63	H	1.188460	0.268209	0.709313
O64	O	0.978833	0.148076	0.583117
H65	H	1.018307	0.080199	0.596953
O66	O	0.813603	0.144562	0.625030
H67	H	0.853074	0.076683	0.638852
O68	O	0.635397	0.140708	0.158462
H69	H	0.606351	0.140064	0.079456
H70	H	0.599190	0.140007	0.549594
H71	H	1.364945	-0.184719	0.340392
H72	H	1.151752	-0.621224	0.287196
O73	O	1.010269	-0.125326	0.251923
H74	H	1.051261	-0.044942	0.262138
H75	H	0.970977	-0.334060	0.242114
O76	O	0.985420	-0.515087	0.245724
H77	H	0.938166	-0.452488	0.233933
O78	O	1.388588	0.001408	0.746508
H79	H	1.474279	0.014684	0.786284
O80	O	1.388631	0.001431	0.946031
H81	H	1.424391	-0.046213	0.905449
