data_functionalizedCrystal
_audit_creation_method	'MofGen! by Chris Wilmer'
_symmetry_space_group_name_H-M	'P1'
_symmetry_Int_Tables_number	1
_symmetry_cell_setting	triclinic
loop_
_symmetry_equiv_pos_as_xyz
  x,y,z
_cell_length_a	18.101398
_cell_length_b	25.639239
_cell_length_c	18.101389
_cell_angle_alpha	89.979551
_cell_angle_beta	89.975673
_cell_angle_gamma	90.033952
loop_
_atom_site_label
_atom_site_type_symbol
_atom_site_fract_x
_atom_site_fract_y
_atom_site_fract_z
Zn1	Zn	1.132082	-0.208272	-0.418828
Zn2	Zn	1.131961	-0.295693	-0.294982
Zn3	Zn	1.008241	-0.208266	-0.294989
Zn4	Zn	1.008175	-0.295671	-0.418771
O5	O	1.070115	-0.251975	-0.356893
O6	O	1.235699	-0.219880	-0.402421
O7	O	1.115527	-0.284103	-0.191350
O8	O	1.024747	-0.135102	-0.311444
O9	O	1.235610	-0.284108	-0.311432
O10	O	1.115732	-0.135106	-0.402428
O11	O	1.024630	-0.219871	-0.191356
O12	O	0.904599	-0.219849	-0.311388
O13	O	1.024635	-0.284070	-0.522411
O14	O	0.904551	-0.284065	-0.402330
O15	O	1.115668	-0.219858	-0.522454
O16	O	1.115463	-0.368855	-0.311376
O17	O	1.024518	-0.368839	-0.402323
C18	C	0.877704	-0.251954	-0.356854
C19	C	0.795390	-0.251958	-0.356855
C20	C	0.496299	-0.251990	-0.356917
C21	C	0.527630	-0.211386	-0.299978
C22	C	0.613248	-0.211495	-0.299735
C23	C	0.644682	-0.251974	-0.356886
C24	C	0.613553	-0.307048	-0.335559
C25	C	0.527908	-0.306822	-0.335163
C26	C	0.527917	-0.238000	-0.435317
C27	C	0.613568	-0.236773	-0.434890
C28	C	0.728541	-0.251968	-0.356870
C29	C	0.412440	-0.252000	-0.356932
C30	C	1.069990	-0.387818	-0.356859
C31	C	1.070005	-0.445932	-0.356869
C32	C	1.117594	-0.806291	-0.309617
C33	C	1.117622	-0.860895	-0.309627
O34	O	1.157955	-0.889129	-0.269415
N35	N	1.070245	-0.888214	-0.356942
C36	C	1.022841	-0.860926	-0.404255
O37	O	0.982546	-0.889177	-0.444501
C38	C	1.022817	-0.806323	-0.404248
C39	C	1.070192	-0.779007	-0.356925
C40	C	1.164965	-0.778975	-0.262299
C41	C	1.164936	-0.724374	-0.262288
C42	C	1.117534	-0.697090	-0.309596
C43	C	1.070162	-0.724406	-0.356914
C44	C	0.975417	-0.779036	-0.451564
C45	C	0.975397	-0.724429	-0.451554
C46	C	1.022773	-0.697113	-0.404231
C47	C	1.022731	-0.642522	-0.404212
N48	N	1.070108	-0.615202	-0.356897
C49	C	1.117509	-0.642487	-0.309589
C50	C	1.022897	-0.975597	-0.404266
C51	C	1.022917	-1.030199	-0.404270
C52	C	1.117699	-1.030164	-0.309643
C53	C	1.117675	-0.975561	-0.309636
C54	C	1.070274	-0.948278	-0.356952
C55	C	1.117443	-0.527822	-0.309570
C56	C	1.117406	-0.473216	-0.309561
C57	C	1.022627	-0.473256	-0.404190
C58	C	1.022661	-0.527856	-0.404197
C59	C	1.070074	-0.555138	-0.356884
O60	O	0.982421	-0.614254	-0.444405
O61	O	1.157804	-0.614229	-0.269357
C62	C	1.263277	-0.251997	-0.356932
C63	C	1.345591	-0.252006	-0.356949
C64	C	1.070158	-0.251962	-0.550055
C65	C	1.070176	-0.251957	-0.632369
C66	C	1.070260	-0.115602	-0.356943
C67	C	1.070322	-0.057488	-0.356964
C68	C	1.070219	-0.251859	-0.931460
C69	C	1.012746	-0.292130	-0.900108
C70	C	1.012901	-0.292317	-0.814490
C71	C	1.070197	-0.251907	-0.783077
C72	C	1.148220	-0.266868	-0.814182
C73	C	1.147899	-0.267132	-0.899827
C74	C	1.050348	-0.196537	-0.899887
C75	C	1.048612	-0.196856	-0.814236
C76	C	1.070189	-0.251934	-0.699218
C77	C	1.070232	-0.251833	-1.015320
C78	C	1.070115	-0.251951	-0.164482
C79	C	1.070240	-0.251809	-0.082169
H80	H	0.634966	-0.319119	-0.278864
H81	H	0.984333	-1.052436	-0.442798
C82	C	1.169593	-0.557825	-0.257522
C83	C	1.227746	-0.595311	-0.289664
C84	C	1.279892	-0.625315	-0.237612
C85	C	1.273885	-0.617832	-0.153418
C86	C	1.215730	-0.580345	-0.121272
C87	C	1.163584	-0.550341	-0.173323
H88	H	1.232195	-0.600852	-0.351994
H89	H	1.322942	-0.653066	-0.261410
H90	H	1.312487	-0.640043	-0.114886
H91	H	1.211281	-0.574804	-0.058942
H92	H	1.120534	-0.522591	-0.149526
H93	H	0.507180	-0.338099	-0.374826
H94	H	0.955044	-0.282955	-0.793458
C95	C	0.923252	-0.694418	-0.503600
C96	C	0.839071	-0.701987	-0.497473
C97	C	0.786924	-0.671977	-0.549516
C98	C	0.818958	-0.634397	-0.607685
C99	C	0.903143	-0.626826	-0.613815
C100	C	0.955290	-0.656836	-0.561772
H101	H	0.815353	-0.729807	-0.454410
H102	H	0.724604	-0.677581	-0.544978
H103	H	0.780355	-0.612182	-0.646211
H104	H	0.926860	-0.599006	-0.656877
H105	H	1.017609	-0.651232	-0.566309
C106	C	1.170673	-0.321763	-0.926816
C107	C	1.124364	-0.369772	-0.905035
C108	C	1.147146	-0.424404	-0.932014
C109	C	1.216237	-0.431028	-0.980774
C110	C	1.262550	-0.383018	-1.002557
C111	C	1.239768	-0.328386	-0.975578
H112	H	1.073215	-0.364870	-0.868938
H113	H	1.112862	-0.459944	-0.915888
H114	H	1.233102	-0.471470	-1.000745
H115	H	1.313700	-0.387920	-1.038654
H116	H	1.274053	-0.292845	-0.991704
H117	H	0.633919	-0.196245	-0.450971
H118	H	0.984292	-0.953386	-0.442794
C119	C	0.642477	-0.273818	-0.495271
C120	C	0.587766	-0.306275	-0.541421
C121	C	0.616679	-0.343326	-0.601798
C122	C	0.700302	-0.347920	-0.616025
C123	C	0.755018	-0.315462	-0.569874
C124	C	0.726106	-0.278411	-0.509497
H125	H	0.525858	-0.302876	-0.530891
H126	H	0.576173	-0.367354	-0.635962
H127	H	0.721705	-0.375347	-0.660719
H128	H	0.816926	-0.318861	-0.580404
H129	H	0.766611	-0.254383	-0.475333
C130	C	1.207627	-0.228489	-0.786704
C131	C	1.185931	-0.183009	-0.735579
C132	C	1.245337	-0.144629	-0.708103
C133	C	1.326439	-0.151728	-0.731751
C134	C	1.348138	-0.197210	-0.782879
C135	C	1.288733	-0.235591	-0.810355
H136	H	1.125892	-0.177752	-0.718071
H137	H	1.229273	-0.110960	-0.670254
H138	H	1.370414	-0.123316	-0.711411
H139	H	1.408178	-0.202467	-0.800387
H140	H	1.304797	-0.269259	-0.848203
C141	C	0.498496	-0.223730	-0.221959
C142	C	0.452278	-0.182994	-0.179901
C143	C	0.423135	-0.195339	-0.101886
C144	C	0.440210	-0.248420	-0.065928
C145	C	0.486430	-0.289159	-0.107986
C146	C	0.515573	-0.276814	-0.186002
H147	H	0.439636	-0.143698	-0.206519
H148	H	0.388919	-0.165182	-0.070752
H149	H	0.418636	-0.257559	-0.008177
H150	H	0.499072	-0.328456	-0.081369
H151	H	0.549789	-0.306972	-0.217136
H152	H	1.026019	-0.333323	-0.794005
H153	H	0.507654	-0.267575	-0.477742
C154	C	0.970488	-0.443235	-0.456226
C155	C	0.886305	-0.450792	-0.450105
C156	C	0.834169	-0.420769	-0.502144
C157	C	0.866217	-0.383188	-0.560305
C158	C	0.950404	-0.375629	-0.566428
C159	C	1.002540	-0.405653	-0.514389
H160	H	0.862577	-0.478613	-0.407049
H161	H	0.771848	-0.426365	-0.497610
H162	H	0.827623	-0.360963	-0.598827
H163	H	0.974132	-0.347808	-0.609485
H164	H	1.064861	-0.400057	-0.518923
C165	C	1.169525	-0.443170	-0.257505
C166	C	1.163538	-0.450715	-0.173312
C167	C	1.215655	-0.420671	-0.121259
C168	C	1.273759	-0.383081	-0.153398
C169	C	1.279749	-0.375534	-0.237595
C170	C	1.227631	-0.405578	-0.289649
H171	H	1.120523	-0.478542	-0.149517
H172	H	1.211221	-0.426258	-0.058930
H173	H	1.312340	-0.360841	-0.114865
H174	H	1.322763	-0.347707	-0.261391
H175	H	1.232065	-0.399991	-0.351977
H176	H	0.984086	-0.550098	-0.442733
C177	C	0.971048	-0.181606	-0.786768
C178	C	0.908769	-0.171036	-0.842724
C179	C	0.831206	-0.155786	-0.815250
C180	C	0.815923	-0.151105	-0.731822
C181	C	0.878204	-0.161674	-0.675861
C182	C	0.955767	-0.176925	-0.703334
H183	H	0.920081	-0.174502	-0.904487
H184	H	0.785101	-0.147962	-0.856677
H185	H	0.758506	-0.139815	-0.711484
H186	H	0.866892	-0.158209	-0.614097
H187	H	1.001871	-0.184749	-0.661908
H188	H	0.936836	-0.801268	-0.490096
C189	C	1.217112	-0.808980	-0.210252
C190	C	1.211106	-0.801492	-0.126059
C191	C	1.263252	-0.831493	-0.074004
C192	C	1.321404	-0.868982	-0.106143
C193	C	1.327412	-0.876471	-0.190340
C194	C	1.275266	-0.846471	-0.242395
H195	H	1.168057	-0.773740	-0.102265
H196	H	1.258804	-0.825948	-0.011675
H197	H	1.360005	-0.891190	-0.067608
H198	H	1.370461	-0.904224	-0.214135
H199	H	1.279713	-0.852015	-0.304724
C200	C	1.207724	-0.229242	-0.927855
C201	C	1.255638	-0.198842	-0.872304
C202	C	1.315469	-0.160959	-0.900328
C203	C	1.327386	-0.153476	-0.983902
C204	C	1.279470	-0.183878	-1.039458
C205	C	1.219639	-0.221760	-1.011434
H206	H	1.246818	-0.204380	-0.810433
H207	H	1.350940	-0.138454	-0.859201
H208	H	1.371677	-0.125433	-1.004647
H209	H	1.288290	-0.178339	-1.101329
H210	H	1.184169	-0.244265	-1.052561
C211	C	0.934345	-0.279614	-0.927912
C212	C	0.921546	-0.232673	-0.979427
C213	C	0.843143	-0.220156	-1.007237
C214	C	0.777538	-0.254580	-0.983533
C215	C	0.790335	-0.301524	-0.932016
C216	C	0.868738	-0.314041	-0.904205
H217	H	0.970112	-0.207188	-0.996976
H218	H	0.833670	-0.185405	-1.045374
H219	H	0.719499	-0.245315	-1.004120
H220	H	0.741769	-0.327010	-0.914466
H221	H	0.878211	-0.348792	-0.866069
H222	H	1.203514	-0.702136	-0.223756
H223	H	1.156252	-0.953323	-0.271102
C224	C	0.498787	-0.184692	-0.461517
C225	C	0.445908	-0.153182	-0.412050
C226	C	0.416776	-0.099873	-0.438240
C227	C	0.440524	-0.078073	-0.513897
C228	C	0.493406	-0.109583	-0.563369
C229	C	0.522538	-0.162893	-0.537179
H230	H	0.428326	-0.169319	-0.356039
H231	H	0.377630	-0.076547	-0.401617
H232	H	0.418960	-0.038610	-0.533285
H233	H	0.510989	-0.093446	-0.619379
H234	H	0.561685	-0.186219	-0.573802
H235	H	1.092209	-0.166532	-0.920164
C236	C	1.169848	-1.060184	-0.257607
C237	C	1.169875	-1.120245	-0.257625
C238	C	1.222020	-1.150266	-0.205592
C239	C	1.274137	-1.120225	-0.153541
C240	C	1.274113	-1.060161	-0.153521
C241	C	1.221968	-1.030140	-0.205554
H242	H	1.131292	-1.142486	-0.296158
H243	H	1.222038	-1.194730	-0.205607
H244	H	1.312738	-1.142449	-0.115023
H245	H	1.312695	-1.037920	-0.114989
H246	H	1.221950	-0.985676	-0.205539
C247	C	1.171376	-0.320922	-0.785222
C248	C	1.119631	-0.351533	-0.733391
C249	C	1.142782	-0.405589	-0.704432
C250	C	1.217678	-0.429034	-0.727305
C251	C	1.269427	-0.398423	-0.779139
C252	C	1.246276	-0.344367	-0.808097
H253	H	1.064185	-0.334178	-0.716456
H254	H	1.104473	-0.428249	-0.666061
H255	H	1.234816	-0.469049	-0.705868
H256	H	1.324874	-0.415778	-0.796073
H257	H	1.284585	-0.321707	-0.846469
H258	H	1.025734	-0.332886	-0.921632
H259	H	1.087419	-0.165258	-0.792854
H260	H	0.994443	-0.182907	-0.921474
H261	H	0.634297	-0.170655	-0.313104
C262	C	0.500865	-0.322847	-0.257735
C263	C	0.452761	-0.285203	-0.212155
C264	C	0.425723	-0.301227	-0.134724
C265	C	0.446787	-0.354895	-0.102874
C266	C	0.494893	-0.392542	-0.148455
C267	C	0.521932	-0.376518	-0.225885
H268	H	0.437166	-0.245472	-0.235732
H269	H	0.390111	-0.273358	-0.100983
H270	H	0.426771	-0.366757	-0.045555
H271	H	0.510488	-0.432273	-0.124877
H272	H	0.557543	-0.404387	-0.259627
H273	H	0.633700	-0.220743	-0.241642
H274	H	0.507068	-0.170421	-0.313200
H275	H	0.633912	-0.338111	-0.375733
