data_functionalizedCrystal
_audit_creation_method	'MofGen! by Chris Wilmer'
_symmetry_space_group_name_H-M	'P1'
_symmetry_Int_Tables_number	1
_symmetry_cell_setting	triclinic
loop_
_symmetry_equiv_pos_as_xyz
  x,y,z
_cell_length_a	10.654545
_cell_length_b	17.699092
_cell_length_c	9.730223
_cell_angle_alpha	89.997288
_cell_angle_beta	89.997167
_cell_angle_gamma	83.884723
loop_
_atom_site_label
_atom_site_type_symbol
_atom_site_fract_x
_atom_site_fract_y
_atom_site_fract_z
O1	O	1.665987	0.106286	-0.114271
O2	O	2.165987	0.606286	0.385729
O3	O	1.300331	0.116417	-0.114276
O4	O	1.800331	0.616417	0.385724
O5	O	1.493484	0.001228	-0.114270
O6	O	1.993484	0.501228	0.385730
O7	O	1.472834	0.221475	-0.114276
O8	O	1.972834	0.721475	0.385724
O9	O	1.493472	0.001225	0.114310
O10	O	1.993472	0.501225	0.614310
O11	O	1.300319	0.116414	0.114304
O12	O	1.800319	0.616414	0.614304
O13	O	1.665975	0.106283	0.114309
O14	O	2.165975	0.606283	0.614309
Zn15	Zn	1.483145	0.111348	0.150599
Zn16	Zn	1.983145	0.611348	0.650599
Zn17	Zn	1.483161	0.111352	-0.150565
Zn18	Zn	1.983161	0.611352	0.349435
O19	O	1.472821	0.221472	0.114303
O20	O	1.972821	0.721472	0.614303
C21	C	1.253540	0.115672	0.000013
C22	C	1.753540	0.615672	0.500013
C23	C	1.114135	0.113449	0.000011
C24	C	1.614135	0.613449	0.500011
C25	C	1.048642	0.112400	0.124611
C26	C	1.548642	0.612400	0.624611
C27	C	0.917659	0.110299	0.124611
C28	C	1.417659	0.610299	0.624611
C29	C	0.917673	0.110297	-0.124599
C30	C	1.417673	0.610297	0.375401
C31	C	1.048655	0.112393	-0.124598
C32	C	1.548655	0.612393	0.375402
C33	C	1.492736	-0.026975	0.000018
C34	C	1.992736	0.473025	0.500018
C35	C	1.490511	-0.111007	0.000012
C36	C	1.990511	0.388993	0.500012
C37	C	1.489476	-0.150479	-0.124589
C38	C	1.989476	0.349521	0.375411
C39	C	1.487377	-0.229435	-0.124591
C40	C	1.987377	0.270565	0.375409
C41	C	1.486323	-0.268919	0.000010
C42	C	1.986323	0.231081	0.500010
C43	C	1.487355	-0.229440	0.124620
C44	C	1.987355	0.270560	0.624620
C45	C	1.489445	-0.150485	0.124620
C46	C	1.989445	0.349515	0.624620
C47	C	1.478925	-0.547859	0.124622
C48	C	1.978925	-0.047859	0.624622
C49	C	1.476839	-0.626820	0.124612
C50	C	1.976839	-0.126820	0.624612
C51	C	1.476858	-0.626809	-0.124589
C52	C	1.976858	-0.126809	0.375411
C53	C	1.478947	-0.547854	-0.124589
C54	C	1.978947	-0.047854	0.375411
C55	C	1.479973	-0.508382	0.000020
C56	C	1.979973	-0.008382	0.500020
C57	C	1.482246	-0.422769	0.000021
C58	C	1.982246	0.077231	0.500021
C59	C	1.484058	-0.354531	0.000011
C60	C	1.984058	0.145469	0.500011
C61	C	1.712766	0.107027	0.000017
C62	C	2.212766	0.607027	0.500017
C63	C	1.852171	0.109251	0.000010
C64	C	2.352171	0.609251	0.500010
C65	C	1.473569	0.249675	0.000013
C66	C	1.973569	0.749675	0.500013
C67	C	1.475794	0.333707	0.000010
C68	C	1.975794	0.833707	0.500010
N69	N	1.483143	0.111345	0.356135
N70	N	1.983143	0.611345	0.856135
N71	N	1.483173	0.111349	-0.356102
N72	N	1.983173	0.611349	0.143898
C73	C	1.568700	0.060361	0.428064
C74	C	2.068700	0.560361	0.928064
C75	C	1.568712	0.060361	0.571947
C76	C	2.068712	0.560361	1.071947
C77	C	1.397607	0.162336	0.571960
C78	C	1.897607	0.662336	1.071960
C79	C	1.397589	0.162331	0.428080
C80	C	1.897589	0.662331	0.928080
H81	H	1.101981	0.113245	-0.226068
H82	H	1.601981	0.613245	0.273932
H83	H	1.479785	-0.515733	0.226086
H84	H	1.979785	-0.015733	0.726086
H85	H	1.638361	0.018843	0.369490
H86	H	2.138361	0.518843	0.869490
Cl87	Cl	1.480278	-0.498223	-0.281235
Cl88	Cl	1.980278	0.001777	0.218765
Cl89	Cl	1.290018	0.226427	0.337646
Cl90	Cl	1.790018	0.726427	0.837646
H91	H	1.490341	-0.118338	-0.226053
H92	H	1.990341	0.381662	0.273947
Cl93	Cl	1.676272	-0.003737	0.662367
Cl94	Cl	2.176272	0.496263	1.162367
Cl95	Cl	1.475564	-0.676436	-0.281244
Cl96	Cl	1.975564	-0.176436	0.218756
Cl97	Cl	0.835330	0.108982	0.281258
Cl98	Cl	1.335330	0.608982	0.781258
Cl99	Cl	1.130957	0.113723	0.281262
Cl100	Cl	1.630957	0.613723	0.781262
Cl101	Cl	1.290063	0.226433	0.662410
Cl102	Cl	1.790063	0.726433	1.162410
H103	H	0.864343	0.109439	-0.226052
H104	H	1.364343	0.609439	0.273948
Cl105	Cl	1.486015	-0.279076	0.281262
Cl106	Cl	1.986015	0.220924	0.781262
H107	H	1.486539	-0.261571	-0.226053
H108	H	1.986539	0.238429	0.273947
Cl109	Cl	1.475511	-0.676455	0.281265
Cl110	Cl	1.975511	-0.176455	0.781265
H111	H	1.490270	-0.118346	0.226083
H112	H	1.990270	0.381654	0.726083
