data_functionalizedCrystal
_audit_creation_method	'MofGen! by Chris Wilmer'
_symmetry_space_group_name_H-M	'P1'
_symmetry_Int_Tables_number	1
_symmetry_cell_setting	triclinic
loop_
_symmetry_equiv_pos_as_xyz
  x,y,z
_cell_length_a	14.044220
_cell_length_b	12.503572
_cell_length_c	17.699083
_cell_angle_alpha	93.515225
_cell_angle_beta	91.764054
_cell_angle_gamma	93.835250
loop_
_atom_site_label
_atom_site_type_symbol
_atom_site_fract_x
_atom_site_fract_y
_atom_site_fract_z
O1	O	1.262755	0.089210	-0.178438
O2	O	0.986803	0.089237	-0.171853
O3	O	1.132575	0.089213	-0.065494
O4	O	1.116983	0.089234	-0.284796
O5	O	1.121612	-0.089427	-0.073508
O6	O	0.975840	-0.089403	-0.179866
O7	O	1.251792	-0.089430	-0.186451
Cu8	Cu	1.112815	-0.105728	-0.183890
Cu9	Cu	1.125780	0.105535	-0.174414
O10	O	1.106020	-0.089406	-0.292809
C11	C	0.946013	-0.000080	-0.172978
C12	C	0.840808	-0.000070	-0.164381
C13	C	0.648182	-0.000092	-0.148667
C14	C	0.590408	-0.000091	-0.209633
C15	C	0.483224	-0.000104	-0.200889
C16	C	0.755376	-0.000080	-0.157410
N17	N	1.103703	-0.254319	-0.190556
C18	C	1.090299	-0.473432	-0.200367
C19	C	1.148300	-0.526768	-0.157934
C20	C	1.140842	-0.648690	-0.163393
C21	C	1.097756	-0.351499	-0.194909
C22	C	1.292581	-0.000111	-0.185326
C23	C	1.397787	-0.000114	-0.193922
C24	C	1.126534	-0.000107	-0.041265
C25	C	1.124858	-0.000107	0.042868
N26	N	1.134899	0.254126	-0.167743
C27	C	1.112060	-0.000084	-0.317038
C28	C	1.113737	-0.000076	-0.401172
C29	C	1.210423	-0.000117	0.085586
C30	C	1.208843	-0.000107	0.164639
C31	C	1.121697	-0.000095	0.200972
C32	C	1.036125	-0.000082	0.158248
C33	C	1.037706	-0.000084	0.079197
C34	C	1.029745	-0.000073	0.477052
C35	C	1.028170	-0.000074	0.556109
C36	C	1.200882	-0.000096	0.562494
C37	C	1.202464	-0.000098	0.483443
C38	C	1.116893	-0.000079	0.440726
C39	C	1.118607	-0.000088	0.355008
C40	C	1.119981	-0.000095	0.286688
H41	H	1.203559	-0.480864	-0.117506
H42	H	0.617147	-0.000104	-0.089911
H43	H	0.621444	-0.000081	-0.268394
C44	C	1.015663	-0.535435	-0.254985
H45	H	1.020388	-0.610433	-0.251540
H46	H	0.953505	-0.517080	-0.241754
H47	H	1.027068	-0.517065	-0.305366
C48	C	1.295013	-0.000104	0.609481
H49	H	1.347139	-0.000124	0.576518
H50	H	1.301816	0.062192	0.643242
H51	H	1.294161	-0.062407	0.637659
C52	C	1.306286	-0.000130	0.045627
H53	H	1.357019	-0.000124	0.082394
H54	H	1.306673	-0.062426	0.012130
H55	H	1.314316	0.062173	0.017715
C56	C	1.302965	-0.000129	0.211625
H57	H	1.355091	-0.000152	0.178664
H58	H	1.309770	0.062166	0.245388
H59	H	1.302107	-0.062434	0.239803
C60	C	1.298322	-0.000115	0.443476
H61	H	1.287008	-0.000125	0.390278
H62	H	1.337372	0.062175	0.460534
H63	H	1.329718	-0.062424	0.454953
H64	H	0.957201	-0.000067	0.585688
H65	H	0.960068	-0.000058	0.442281
H66	H	0.965169	-0.000066	0.187837
H67	H	0.968030	-0.000076	0.044417
