data_functionalizedCrystal
_audit_creation_method	'MofGen! by Chris Wilmer'
_symmetry_space_group_name_H-M	'P1'
_symmetry_Int_Tables_number	1
_symmetry_cell_setting	triclinic
loop_
_symmetry_equiv_pos_as_xyz
  x,y,z
_cell_length_a	25.639240
_cell_length_b	25.639242
_cell_length_c	25.639234
_cell_angle_alpha	89.986377
_cell_angle_beta	90.016087
_cell_angle_gamma	89.977011
loop_
_atom_site_label
_atom_site_type_symbol
_atom_site_fract_x
_atom_site_fract_y
_atom_site_fract_z
Zn1	Zn	-0.208329	-0.799237	0.295675
Zn2	Zn	0.291671	-0.299237	0.795675
Zn3	Zn	-0.295751	-0.799174	0.208247
Zn4	Zn	0.204249	-0.299174	0.708247
Zn5	Zn	-0.208318	-0.711817	0.208248
Zn6	Zn	0.291682	-0.211817	0.708248
Zn7	Zn	-0.295721	-0.711768	0.295646
Zn8	Zn	0.204279	-0.211768	0.795646
O9	O	-0.252030	-0.755499	0.251954
O10	O	0.247970	-0.255499	0.751954
O11	O	-0.219943	-0.872394	0.284089
O12	O	0.280057	-0.372394	0.784089
O13	O	-0.284161	-0.787580	0.135082
O14	O	0.215839	-0.287580	0.635082
O15	O	-0.135154	-0.723460	0.219858
O16	O	0.364846	-0.223460	0.719858
O17	O	-0.284172	-0.872347	0.219856
O18	O	0.215828	-0.372347	0.719856
O19	O	-0.135162	-0.787687	0.284090
O20	O	0.364838	-0.287687	0.784090
O21	O	-0.219924	-0.723399	0.135083
O22	O	0.280076	-0.223399	0.635083
O23	O	-0.219895	-0.638645	0.219830
O24	O	0.280105	-0.138645	0.719830
O25	O	-0.284120	-0.723377	0.368815
O26	O	0.215880	-0.223377	0.868815
O27	O	-0.284110	-0.638609	0.284041
O28	O	0.215890	-0.138609	0.784041
O29	O	-0.219914	-0.787640	0.368836
O30	O	0.280086	-0.287640	0.868836
O31	O	-0.368912	-0.787533	0.219828
O32	O	0.131088	-0.287533	0.719828
O33	O	-0.368890	-0.723316	0.284040
O34	O	0.131110	-0.223316	0.784040
C35	C	-0.387872	-0.755427	0.251942
C36	C	0.112128	-0.255427	0.751942
C37	C	-0.445986	-0.755444	0.251954
C38	C	0.054014	-0.255444	0.751954
C39	C	-0.251998	-0.619656	0.251933
C40	C	0.248002	-0.119656	0.751933
C41	C	-0.251997	-0.561542	0.251937
C42	C	0.248003	-0.061542	0.751937
C43	C	-0.252015	-0.755510	0.388327
C44	C	0.247985	-0.255510	0.888327
C45	C	-0.252009	-0.755515	0.446441
C46	C	0.247991	-0.255515	0.946441
C47	C	-0.697133	-0.788939	0.285434
C48	C	-0.197133	-0.288939	0.785434
C49	C	-0.642528	-0.788923	0.285430
C50	C	-0.142528	-0.288923	0.785430
O51	O	-0.614252	-0.817342	0.313878
O52	O	-0.114252	-0.317342	0.813878
N53	N	-0.615260	-0.755501	0.251961
N54	N	-0.115260	-0.255501	0.751961
C55	C	-0.642599	-0.722096	0.218490
C56	C	-0.142599	-0.222096	0.718490
O57	O	-0.614391	-0.693666	0.190021
O58	O	-0.114391	-0.193666	0.690021
C59	C	-0.697202	-0.722114	0.218492
C60	C	-0.197202	-0.222114	0.718492
C61	C	-0.724468	-0.755535	0.251966
C62	C	-0.224468	-0.255535	0.751966
C63	C	-0.724398	-0.822358	0.318905
C64	C	-0.224398	-0.322358	0.818905
C65	C	-0.778999	-0.822372	0.318910
C66	C	-0.278999	-0.322372	0.818910
C67	C	-0.806334	-0.788969	0.285443
C68	C	-0.306334	-0.288969	0.785443
C69	C	-0.779068	-0.755550	0.251971
C70	C	-0.279068	-0.255550	0.751971
C71	C	-0.724540	-0.688712	0.185018
C72	C	-0.224540	-0.188712	0.685018
C73	C	-0.779147	-0.688734	0.185023
C74	C	-0.279147	-0.188734	0.685023
C75	C	-0.806413	-0.722155	0.218498
C76	C	-0.306413	-0.222155	0.718498
C77	C	-0.861004	-0.722161	0.218508
C78	C	-0.361004	-0.222161	0.718508
N79	N	-0.888272	-0.755584	0.251977
N80	N	-0.388272	-0.255584	0.751977
C81	C	-0.860937	-0.788987	0.285444
C82	C	-0.360937	-0.288987	0.785444
C83	C	-0.527928	-0.722060	0.218488
C84	C	-0.027928	-0.222060	0.718488
C85	C	-0.473326	-0.722038	0.218489
C86	C	0.026674	-0.222038	0.718489
C87	C	-0.473259	-0.788866	0.285428
C88	C	0.026741	-0.288866	0.785428
C89	C	-0.527863	-0.788885	0.285430
C90	C	-0.027863	-0.288885	0.785430
C91	C	-0.555197	-0.755482	0.251957
C92	C	-0.055197	-0.255482	0.751957
C93	C	-0.975602	-0.789016	0.285452
C94	C	-0.475602	-0.289016	0.785452
C95	C	-1.030208	-0.789026	0.285455
C96	C	-0.530208	-0.289026	0.785455
C97	C	-1.030270	-0.722200	0.218514
C98	C	-0.530270	-0.222200	0.718514
C99	C	-0.975669	-0.722187	0.218512
C100	C	-0.475669	-0.222187	0.718512
C101	C	-0.948337	-0.755600	0.251983
C102	C	-0.448337	-0.255600	0.751983
O103	O	-0.889315	-0.693759	0.190073
O104	O	-0.389315	-0.193759	0.690073
O105	O	-0.889151	-0.817417	0.313903
O106	O	-0.389151	-0.317417	0.813903
C107	C	-0.115657	-0.755586	0.251978
C108	C	0.384343	-0.255586	0.751978
C109	C	-0.057543	-0.755623	0.251988
C110	C	0.442457	-0.255623	0.751988
C111	C	-0.218634	-0.310381	0.285448
C112	C	0.281366	0.189619	0.785448
C113	C	-0.218631	-0.364985	0.285447
C114	C	0.281369	0.135015	0.785447
O115	O	-0.190247	-0.393249	0.313943
O116	O	0.309753	0.106751	0.813943
N117	N	-0.252015	-0.392268	0.251949
N118	N	0.247985	0.107732	0.751949
C119	C	-0.285409	-0.364944	0.218455
C120	C	0.214591	0.135056	0.718455
O121	O	-0.313805	-0.393165	0.189963
O122	O	0.186195	0.106835	0.689963
C123	C	-0.285415	-0.310341	0.218459
C124	C	0.214585	0.189659	0.718459
C125	C	-0.252025	-0.283061	0.251955
C126	C	0.247975	0.216939	0.751955
C127	C	-0.185247	-0.283100	0.318942
C128	C	0.314753	0.216900	0.818942
C129	C	-0.185251	-0.228500	0.318942
C130	C	0.314749	0.271500	0.818942
C131	C	-0.218641	-0.201180	0.285449
C132	C	0.281359	0.298820	0.785449
C133	C	-0.252028	-0.228460	0.251956
C134	C	0.247972	0.271540	0.751956
C135	C	-0.318811	-0.283018	0.184968
C136	C	0.181189	0.216982	0.684968
C137	C	-0.318815	-0.228411	0.184975
C138	C	0.181185	0.271589	0.684975
C139	C	-0.285425	-0.201131	0.218471
C140	C	0.214575	0.298869	0.718471
C141	C	-0.285422	-0.146540	0.218463
C142	C	0.214578	0.353460	0.718463
N143	N	-0.252038	-0.119256	0.251961
N144	N	0.247962	0.380744	0.751961
C145	C	-0.218647	-0.146576	0.285454
C146	C	0.281353	0.353424	0.785454
C147	C	-0.285394	-0.479615	0.218449
C148	C	0.214606	0.020385	0.718449
C149	C	-0.285386	-0.534217	0.218441
C150	C	0.214614	-0.034217	0.718441
C151	C	-0.218608	-0.534254	0.285434
C152	C	0.281392	-0.034254	0.785434
C153	C	-0.218614	-0.479651	0.285438
C154	C	0.281386	0.020349	0.785438
C155	C	-0.252010	-0.452332	0.251946
C156	C	0.247990	0.047668	0.751946
C157	C	-0.218656	-0.031911	0.285452
C158	C	0.281344	0.468089	0.785452
C159	C	-0.218661	0.022694	0.285448
C160	C	0.281339	0.522694	0.785448
C161	C	-0.285440	0.022726	0.218458
C162	C	0.214560	0.522726	0.718458
C163	C	-0.285434	-0.031874	0.218459
C164	C	0.214566	0.468126	0.718459
C165	C	-0.252040	-0.059192	0.251961
C166	C	0.247960	0.440808	0.751961
O167	O	-0.313792	-0.118241	0.189983
O168	O	0.186208	0.381759	0.689983
O169	O	-0.190261	-0.118349	0.313946
O170	O	0.309739	0.381651	0.813946
C171	C	-0.252056	0.108128	0.251968
C172	C	0.247944	0.608128	0.751968
C173	C	-0.252051	0.050014	0.251955
C174	C	0.247949	0.550014	0.751955
C175	C	-0.252007	-0.755518	0.116111
C176	C	0.247993	-0.255518	0.616111
C177	C	-0.251866	-0.755614	0.057998
C178	C	0.248134	-0.255614	0.557998
C179	C	-0.285375	-0.722088	0.697618
C180	C	0.214625	-0.222088	1.197618
C181	C	-0.285387	-0.722079	0.643014
C182	C	0.214613	-0.222079	1.143014
O183	O	-0.313809	-0.693608	0.614763
O184	O	0.186191	-0.193608	1.114763
N185	N	-0.251966	-0.755535	0.615715
N186	N	0.248034	-0.255535	1.115715
C187	C	-0.218528	-0.788998	0.643024
C188	C	0.281472	-0.288998	1.143024
O189	O	-0.190102	-0.817454	0.614790
O190	O	0.309898	-0.317454	1.114790
C191	C	-0.218514	-0.789004	0.697627
C192	C	0.281486	-0.289004	1.197627
C193	C	-0.251941	-0.755550	0.724923
C194	C	0.248059	-0.255550	1.224923
C195	C	-0.318799	-0.688636	0.724914
C196	C	0.181201	-0.188636	1.224914
C197	C	-0.318788	-0.688646	0.779514
C198	C	0.181212	-0.188646	1.279514
C199	C	-0.285353	-0.722108	0.806819
C200	C	0.214647	-0.222108	1.306819
C201	C	-0.251929	-0.755560	0.779523
C202	C	0.248071	-0.255560	1.279523
C203	C	-0.185073	-0.822465	0.724935
C204	C	0.314927	-0.322465	1.224935
C205	C	-0.185062	-0.822468	0.779542
C206	C	0.314938	-0.322468	1.279542
C207	C	-0.218488	-0.789013	0.806837
C208	C	0.281512	-0.289013	1.306837
C209	C	-0.218483	-0.789032	0.861429
C210	C	0.281517	-0.289032	1.361429
N211	N	-0.251904	-0.755576	0.888727
N212	N	0.248096	-0.255576	1.388727
C213	C	-0.285339	-0.722114	0.861422
C214	C	0.214661	-0.222114	1.361422
C215	C	-0.218559	-0.788982	0.528353
C216	C	0.281441	-0.288982	1.028353
C217	C	-0.218576	-0.788979	0.473751
C218	C	0.281424	-0.288979	0.973751
C219	C	-0.285434	-0.722059	0.473744
C220	C	0.214566	-0.222059	0.973744
C221	C	-0.285420	-0.722065	0.528348
C222	C	0.214580	-0.222065	1.028348
C223	C	-0.251980	-0.755526	0.555652
C224	C	0.248020	-0.255526	1.055652
C225	C	-0.285313	-0.722138	0.976088
C226	C	0.214687	-0.222138	1.476088
C227	C	-0.285300	-0.722153	1.030693
C228	C	0.214700	-0.222153	1.530693
C229	C	-0.218440	-0.789070	1.030694
C230	C	0.281560	-0.289070	1.530694
C231	C	-0.218454	-0.789058	0.976094
C232	C	0.281546	-0.289058	1.476094
C233	C	-0.251893	-0.755588	0.948792
C234	C	0.248107	-0.255588	1.448792
O235	O	-0.190075	-0.817487	0.889714
O236	O	0.309925	-0.317487	1.389714
O237	O	-0.313755	-0.693659	0.889663
O238	O	0.186245	-0.193659	1.389663
H239	H	-0.953354	-0.816224	0.312706
H240	H	-0.453354	-0.316224	0.812706
H241	H	-0.312624	0.044980	0.191186
H242	H	0.187376	0.544980	0.691186
H243	H	-0.191424	-0.457443	0.312713
H244	H	0.308576	0.042557	0.812713
H245	H	-0.312537	-0.694879	0.953865
H246	H	0.187463	-0.194879	1.453865
H247	H	-0.346012	-0.206171	0.157703
H248	H	0.153988	0.293829	0.657703
H249	H	-0.312658	-0.694811	0.451503
H250	H	0.187342	-0.194811	0.951503
N251	N	-0.182594	-0.563726	0.321562
N252	N	0.317406	-0.063726	0.821562
H253	H	-0.187662	-0.602456	0.316475
H254	H	0.312338	-0.102456	0.816475
H255	H	-0.190789	-0.554192	0.358889
H256	H	0.309211	-0.054192	0.858889
H257	H	-0.191464	-0.054147	0.312732
H258	H	0.308536	0.445853	0.812732
H259	H	-0.191220	-0.816316	1.052936
H260	H	0.308780	-0.316316	1.552936
N261	N	-0.557260	-0.824937	0.321535
N262	N	-0.057260	-0.324937	0.821535
H263	H	-0.579903	-0.849194	0.300315
H264	H	-0.079903	-0.349194	0.800315
H265	H	-0.579893	-0.803646	0.345741
H266	H	-0.079893	-0.303646	0.845741
H267	H	-0.801193	-0.849591	0.346165
H268	H	-0.301193	-0.349591	0.846165
N269	N	-0.321347	-0.686064	1.060137
N270	N	0.178653	-0.186064	1.560137
H271	H	-0.345579	-0.707297	1.082792
H272	H	0.154421	-0.207297	1.582792
H273	H	-0.342493	-0.664868	1.034520
H274	H	0.157507	-0.164868	1.534520
H275	H	-0.158063	-0.206293	0.346220
H276	H	0.341937	0.293707	0.846220
N277	N	-0.354838	-0.652561	0.808951
N278	N	0.145162	-0.152561	1.308951
H279	H	-0.376017	-0.631363	0.783361
H280	H	0.123983	-0.131363	1.283361
H281	H	-0.333545	-0.628380	0.831603
H282	H	0.166455	-0.128380	1.331603
N283	N	-0.321391	-0.563638	0.182306
N284	N	0.178609	-0.063638	0.682306
H285	H	-0.342541	-0.538041	0.161089
H286	H	0.157459	-0.038041	0.661089
H287	H	-0.345619	-0.586292	0.203542
H288	H	0.154381	-0.086292	0.703542
H289	H	-0.450993	-0.816066	0.312678
H290	H	0.049007	-0.316066	0.812678
N291	N	-0.354854	-0.652533	0.695469
N292	N	0.145146	-0.152533	1.195469
H293	H	-0.376019	-0.631342	0.721054
H294	H	0.123981	-0.131342	1.221054
H295	H	-0.379067	-0.673787	0.672812
H296	H	0.120933	-0.173787	1.172812
N297	N	-0.808626	-0.652707	0.148916
N298	N	-0.308626	-0.152707	0.648916
H299	H	-0.799147	-0.615341	0.156998
H300	H	-0.299147	-0.115341	0.656998
H301	H	-0.847346	-0.657830	0.154011
H302	H	-0.347346	-0.157830	0.654011
H303	H	-0.312618	-0.054087	0.191180
H304	H	0.187382	0.445913	0.691180
N305	N	-0.321467	-0.685972	0.557778
N306	N	0.178533	-0.185972	1.057778
H307	H	-0.300206	-0.661756	0.580427
H308	H	0.199794	-0.161756	1.080427
H309	H	-0.345695	-0.707234	0.580408
H310	H	0.154305	-0.207234	1.080408
N311	N	-1.059613	-0.825080	0.321557
N312	N	-0.559613	-0.325080	0.821557
H313	H	-1.098353	-0.820023	0.316484
H314	H	-0.598353	-0.320023	0.816484
H315	H	-1.050060	-0.816914	0.358889
H316	H	-0.550060	-0.316914	0.858889
N317	N	-0.557404	-0.686022	0.182388
N318	N	-0.057404	-0.186022	0.682388
H319	H	-0.580070	-0.661783	0.203612
H320	H	-0.080070	-0.161783	0.703612
H321	H	-0.580021	-0.707328	0.158182
H322	H	-0.080021	-0.207328	0.658182
N323	N	-0.695141	-0.652671	0.148907
N324	N	-0.195141	-0.152671	0.648907
H325	H	-0.672495	-0.628412	0.170120
H326	H	-0.172495	-0.128412	0.670120
H327	H	-0.720784	-0.631555	0.127714
H328	H	-0.220784	-0.131555	0.627714
H329	H	-0.702147	-0.849561	0.346158
H330	H	-0.202147	-0.349561	0.846158
H331	H	-0.191362	-0.816226	0.451531
H332	H	0.308638	-0.316226	0.951531
N333	N	-0.182489	-0.825074	0.557801
N334	N	0.317511	-0.325074	1.057801
H335	H	-0.161321	-0.846264	0.532218
H336	H	0.338679	-0.346264	1.032218
H337	H	-0.203767	-0.849262	0.580459
H338	H	0.296233	-0.349262	1.080459
H339	H	-0.312588	-0.457375	0.191171
H340	H	0.187412	0.042625	0.691171
H341	H	-0.451130	-0.694818	0.191236
H342	H	0.048870	-0.194818	0.691236
N343	N	-0.946257	-0.686135	0.182416
N344	N	-0.446257	-0.186135	0.682416
H345	H	-0.971862	-0.664974	0.161218
H346	H	-0.471862	-0.164974	0.661218
H347	H	-0.923598	-0.707428	0.158237
H348	H	-0.423598	-0.207428	0.658237
N349	N	-0.149020	-0.858548	0.695503
N350	N	0.350980	-0.358548	1.195503
H351	H	-0.127838	-0.879741	0.721094
H352	H	0.372162	-0.379741	1.221094
H353	H	-0.124823	-0.837278	0.672848
H354	H	0.375177	-0.337278	1.172848
H355	H	-0.158057	-0.305339	0.346218
H356	H	0.341943	0.194661	0.846218
H357	H	-0.346001	-0.305221	0.157692
H358	H	0.153999	0.194779	0.657692
H359	H	-1.052536	-0.695002	0.191267
H360	H	-0.552536	-0.195002	0.691267
H361	H	-0.191468	0.044903	0.312724
H362	H	0.308532	0.544903	0.812724
N363	N	-0.148990	-0.858555	0.808991
N364	N	0.351010	-0.358555	1.308991
H365	H	-0.127818	-0.879744	0.783410
H366	H	0.372182	-0.379744	1.283410
H367	H	-0.170269	-0.882745	0.831647
H368	H	0.329731	-0.382745	1.331647
N369	N	-0.182409	-0.825146	0.946649
N370	N	0.317591	-0.325146	1.446649
H371	H	-0.161229	-0.846347	0.972235
H372	H	0.338771	-0.346347	1.472235
H373	H	-0.158211	-0.803874	0.923997
H374	H	0.341789	-0.303874	1.423997
