data_functionalizedCrystal
_audit_creation_method	'MofGen! by Chris Wilmer'
_symmetry_space_group_name_H-M	'P1'
_symmetry_Int_Tables_number	1
_symmetry_cell_setting	triclinic
loop_
_symmetry_equiv_pos_as_xyz
  x,y,z
_cell_length_a	25.639242
_cell_length_b	18.101395
_cell_length_c	18.101390
_cell_angle_alpha	89.968664
_cell_angle_beta	89.971876
_cell_angle_gamma	90.026632
loop_
_atom_site_label
_atom_site_type_symbol
_atom_site_fract_x
_atom_site_fract_y
_atom_site_fract_z
Zn1	Zn	0.799283	-0.294890	-0.418915
Zn2	Zn	1.299283	0.205110	0.081085
Zn3	Zn	0.799209	-0.418747	-0.295077
Zn4	Zn	1.299209	0.081253	0.204923
Zn5	Zn	0.711851	-0.294914	-0.295069
Zn6	Zn	1.211851	0.205086	0.204931
Zn7	Zn	0.711816	-0.418684	-0.418858
Zn8	Zn	1.211816	0.081316	0.081142
O9	O	0.755540	-0.356809	-0.356980
O10	O	1.255540	0.143191	0.143020
O11	O	0.872439	-0.311336	-0.402515
O12	O	1.372439	0.188664	0.097485
O13	O	0.787604	-0.402356	-0.191443
O14	O	1.287604	0.097644	0.308557
O15	O	0.723494	-0.191278	-0.311517
O16	O	1.223494	0.308722	0.188483
O17	O	0.872384	-0.402333	-0.311531
O18	O	1.372384	0.097667	0.188469
O19	O	0.787731	-0.191260	-0.402507
O20	O	1.287731	0.308740	0.097493
O21	O	0.723422	-0.311377	-0.191437
O22	O	1.223422	0.188623	0.308563
O23	O	0.638681	-0.311316	-0.311462
O24	O	1.138681	0.188684	0.188538
O25	O	0.723436	-0.402226	-0.522498
O26	O	1.223436	0.097774	-0.022498
O27	O	0.638656	-0.402250	-0.402410
O28	O	1.138656	0.097750	0.097590
O29	O	0.787697	-0.311275	-0.522540
O30	O	1.287697	0.188725	-0.022540
O31	O	0.787571	-0.522371	-0.311476
O32	O	1.287571	-0.022371	0.188524
O33	O	0.723364	-0.522325	-0.402418
O34	O	1.223364	-0.022325	0.097582
C35	C	0.755470	-0.549219	-0.356958
C36	C	1.255470	-0.049219	0.143042
C37	C	0.755488	-0.631533	-0.356973
C38	C	1.255488	-0.131533	0.143027
C39	C	0.619697	-0.356779	-0.356929
C40	C	1.119697	0.143221	0.143071
C41	C	0.561583	-0.356785	-0.356925
C42	C	1.061583	0.143215	0.143075
C43	C	0.755603	-0.930624	-0.357013
C44	C	1.255603	-0.430624	0.142987
C45	C	0.715299	-0.899301	-0.414373
C46	C	1.215299	-0.399301	0.085627
C47	C	0.715107	-0.813683	-0.414194
C48	C	1.215107	-0.313683	0.085806
C49	C	0.755546	-0.782242	-0.356994
C50	C	1.255546	-0.282242	0.143006
C51	C	0.740628	-0.813397	-0.278941
C52	C	1.240628	-0.313397	0.221059
C53	C	0.740368	-0.899042	-0.279284
C54	C	1.240368	-0.399042	0.220716
C55	C	0.810912	-0.898973	-0.377019
C56	C	1.310912	-0.398973	0.122981
C57	C	0.810587	-0.813321	-0.378730
C58	C	1.310587	-0.313321	0.121270
C59	C	0.755514	-0.698382	-0.356978
C60	C	1.255514	-0.198382	0.143022
C61	C	0.755633	-1.014484	-0.357023
C62	C	1.255633	-0.514484	0.142977
C63	C	0.201216	-0.404237	-0.404291
C64	C	0.701216	0.095763	0.095709
C65	C	0.146612	-0.404241	-0.404303
C66	C	0.646612	0.095759	0.095697
O67	O	0.118371	-0.444551	-0.444532
O68	O	0.618371	0.055449	0.055468
N69	N	0.119301	-0.356829	-0.357028
N70	N	0.619301	0.143171	0.142972
C71	C	0.146597	-0.309404	-0.309744
C72	C	0.646597	0.190596	0.190256
O73	O	0.118353	-0.269076	-0.269534
O74	O	0.618353	0.230924	0.230466
C75	C	0.201200	-0.309396	-0.309736
C76	C	0.701200	0.190604	0.190264
C77	C	0.228508	-0.356817	-0.357009
C78	C	0.728508	0.143183	0.142991
C79	C	0.228524	-0.451653	-0.451560
C80	C	0.728524	0.048347	0.048440
C81	C	0.283125	-0.451649	-0.451547
C82	C	0.783125	0.048351	0.048453
C83	C	0.310417	-0.404229	-0.404265
C84	C	0.810417	0.095771	0.095735
C85	C	0.283109	-0.356813	-0.356996
C86	C	0.783109	0.143187	0.143004
C87	C	0.228496	-0.261967	-0.262456
C88	C	0.728496	0.238033	0.237544
C89	C	0.283103	-0.261963	-0.262453
C90	C	0.783103	0.238037	0.237547
C91	C	0.310411	-0.309384	-0.309726
C92	C	0.810411	0.190616	0.190274
C93	C	0.365002	-0.309389	-0.309701
C94	C	0.865002	0.190611	0.190299
N95	N	0.392313	-0.356802	-0.356976
N96	N	0.892313	0.143198	0.143024
C97	C	0.365020	-0.404222	-0.404258
C98	C	0.865020	0.095778	0.095742
C99	C	0.031926	-0.309423	-0.309764
C100	C	0.531926	0.190577	0.190236
C101	C	-0.022676	-0.309433	-0.309767
C102	C	0.477324	0.190567	0.190233
C103	C	-0.022657	-0.404270	-0.404327
C104	C	0.477343	0.095730	0.095673
C105	C	0.031946	-0.404263	-0.404320
C106	C	0.531946	0.095737	0.095680
C107	C	0.059237	-0.356835	-0.357038
C108	C	0.559237	0.143165	0.142962
C109	C	0.479686	-0.404211	-0.404227
C110	C	0.979686	0.095789	0.095773
C111	C	0.534291	-0.404205	-0.404208
C112	C	1.034291	0.095795	0.095792
C113	C	0.534268	-0.309365	-0.309650
C114	C	1.034268	0.190635	0.190350
C115	C	0.479667	-0.309374	-0.309667
C116	C	0.979667	0.190626	0.190333
C117	C	0.452377	-0.356799	-0.356961
C118	C	0.952377	0.143201	0.143039
O119	O	0.393277	-0.269098	-0.269494
O120	O	0.893277	0.230902	0.230506
O121	O	0.393271	-0.444536	-0.444467
O122	O	0.893271	0.055464	0.055533
C123	C	0.891913	-0.356838	-0.357030
C124	C	1.391913	0.143162	0.142970
C125	C	0.950027	-0.356851	-0.357052
C126	C	1.450027	0.143149	0.142948
C127	C	0.755571	-0.356741	-0.550142
C128	C	1.255571	0.143259	-0.050142
C129	C	0.755584	-0.356712	-0.632456
C130	C	1.255584	0.143288	-0.132456
C131	C	0.755624	-0.163647	-0.357018
C132	C	1.255624	0.336353	0.142982
C133	C	0.755660	-0.081333	-0.357034
C134	C	1.255660	0.418667	0.142966
C135	C	0.755612	-0.356666	-0.931547
C136	C	1.255612	0.143334	-0.431547
C137	C	0.796177	-0.299643	-0.900248
C138	C	1.296177	0.200357	-0.400248
C139	C	0.796051	-0.299432	-0.814630
C140	C	1.296051	0.200568	-0.314630
C141	C	0.755599	-0.356689	-0.783164
C142	C	1.255599	0.143311	-0.283164
C143	C	0.700519	-0.335480	-0.814225
C144	C	1.200519	0.164520	-0.314225
C145	C	0.700762	-0.335052	-0.899871
C146	C	1.200762	0.164948	-0.399871
C147	C	0.769643	-0.435045	-0.899964
C148	C	1.269643	0.064955	-0.399964
C149	C	0.770852	-0.434645	-0.814314
C150	C	1.270852	0.065355	-0.314314
C151	C	0.755588	-0.356703	-0.699305
C152	C	1.255588	0.143297	-0.199305
C153	C	0.755620	-0.356650	-1.015406
C154	C	1.255620	0.143350	-0.515406
C155	C	0.755539	-0.356822	-0.164569
C156	C	1.255539	0.143178	0.335431
C157	C	0.755627	-0.356643	-0.082255
C158	C	1.255627	0.143357	0.417745
H159	H	0.724440	-0.792616	-0.472069
H160	H	1.224440	-0.292616	0.027931
H161	H	0.674111	-0.793256	-0.400941
H162	H	1.174111	-0.293256	0.099059
H163	H	0.842204	-0.791915	-0.339998
H164	H	1.342204	-0.291915	0.160002
N165	N	0.199093	-0.502811	-0.502554
N166	N	0.699093	-0.002811	-0.002554
H167	H	0.176458	-0.472773	-0.536938
H168	H	0.676458	0.027227	-0.036938
H169	H	0.224719	-0.532834	-0.532441
H170	H	0.724719	-0.032834	-0.032441
N171	N	0.850151	-0.317114	-0.786864
N172	N	1.350151	0.182886	-0.286864
H173	H	0.875523	-0.278711	-0.805565
H174	H	1.375523	0.221289	-0.305565
H175	H	0.850159	-0.317064	-0.731070
H176	H	1.350159	0.182936	-0.231070
H177	H	0.743454	-0.479415	-0.792893
H178	H	1.243454	0.020585	-0.292893
N179	N	0.686816	-0.925595	-0.256836
N180	N	1.186816	-0.425595	0.243164
H181	H	0.663599	-0.881664	-0.246812
H182	H	1.163599	-0.381664	0.253188
H183	H	0.671365	-0.956217	-0.298004
H184	H	1.171365	-0.456217	0.201996
H185	H	0.768450	-0.919765	-0.235089
H186	H	1.268450	-0.419765	0.264911
H187	H	0.669510	-0.374778	-0.920573
H188	H	1.169510	0.125222	-0.420573
H189	H	0.556523	-0.442823	-0.442703
H190	H	1.056523	0.057177	0.057297
N191	N	0.659393	-0.388794	-0.787228
N192	N	1.159393	0.111206	-0.287228
H193	H	0.676111	-0.427300	-0.754524
H194	H	1.176111	0.072700	-0.254524
H195	H	0.632107	-0.360952	-0.758187
H196	H	1.132107	0.139048	-0.258187
N197	N	0.563714	-0.258220	-0.258661
N198	N	1.063714	0.241780	0.241339
H199	H	0.554233	-0.205322	-0.270262
H200	H	1.054233	0.294678	0.229738
H201	H	0.554179	-0.269715	-0.205746
H202	H	1.054179	0.230285	0.294254
H203	H	0.688408	-0.278822	-0.792783
H204	H	1.188408	0.221178	-0.292783
H205	H	0.674551	-0.920884	-0.401287
H206	H	1.174551	-0.420884	0.098713
H207	H	0.769060	-0.793033	-0.235038
H208	H	1.269060	-0.293033	0.264962
H209	H	0.054177	-0.442876	-0.442814
H210	H	0.554177	0.057124	0.057186
H211	H	0.821836	-0.792955	-0.436173
H212	H	1.321836	-0.292955	0.063827
H213	H	0.787008	-0.241903	-0.921782
H214	H	1.287008	0.258097	-0.421782
H215	H	0.700625	-0.792009	-0.261692
H216	H	1.200625	-0.292009	0.238308
H217	H	0.786764	-0.241367	-0.794153
H218	H	1.286764	0.258633	-0.294153
H219	H	-0.044889	-0.442880	-0.442829
H220	H	0.455111	0.057120	0.057171
N221	N	0.450217	-0.258245	-0.258656
N222	N	0.950217	0.241755	0.241344
H223	H	0.427544	-0.288312	-0.224291
H224	H	0.927544	0.211688	0.275709
H225	H	0.475835	-0.228229	-0.228750
H226	H	0.975835	0.271771	0.271250
N227	N	0.850458	-0.317014	-0.927545
N228	N	1.350458	0.182986	-0.427545
H229	H	0.849283	-0.362014	-0.960467
H230	H	1.349283	0.137986	-0.460467
H231	H	0.864407	-0.273526	-0.956426
H232	H	1.364407	0.226474	-0.456426
H233	H	0.824513	-0.920518	-0.432966
H234	H	1.324513	-0.420518	0.067034
H235	H	0.054144	-0.270802	-0.271256
H236	H	0.554144	0.229198	0.228744
H237	H	0.809103	-0.454356	-0.921617
H238	H	1.309103	0.045644	-0.421617
N239	N	0.685005	-0.259163	-0.926354
N240	N	1.185005	0.240837	-0.426354
H241	H	0.677968	-0.226302	-0.882392
H242	H	1.177968	0.273698	-0.382392
H243	H	0.714096	-0.237289	-0.957005
H244	H	1.214096	0.262711	-0.457005
H245	H	0.457473	-0.442827	-0.442740
H246	H	0.957473	0.057173	0.057260
N247	N	0.730508	-0.491327	-0.926767
N248	N	1.230508	0.008673	-0.426767
H249	H	0.703818	-0.466219	-0.959209
H250	H	1.203818	0.033781	-0.459209
H251	H	0.749108	-0.530833	-0.956038
H252	H	1.249108	-0.030833	-0.456038
N253	N	0.824541	-0.455840	-0.787423
N254	N	1.324541	0.044160	-0.287423
H255	H	0.848385	-0.463518	-0.831177
H256	H	1.348385	0.036482	-0.331177
H257	H	0.838882	-0.415100	-0.755185
H258	H	1.338882	0.084900	-0.255185
H259	H	0.840940	-0.919229	-0.335242
H260	H	1.340940	-0.419229	0.164758
N261	N	0.312575	-0.502795	-0.502536
N262	N	0.812575	-0.002795	-0.002536
H263	H	0.286993	-0.532831	-0.532487
H264	H	0.786993	-0.032831	-0.032487
H265	H	0.335252	-0.472691	-0.536859
H266	H	0.835252	0.027309	-0.036859
H267	H	0.724539	-0.919846	-0.472435
H268	H	1.224539	-0.419846	0.027565
H269	H	-0.044905	-0.270826	-0.271265
H270	H	0.455095	0.229174	0.228735
H271	H	0.305321	-0.223337	-0.223955
H272	H	0.805321	0.276663	0.276045
N273	N	0.199051	-0.210820	-0.211468
N274	N	0.699051	0.289180	0.288532
H275	H	0.224634	-0.180781	-0.181522
H276	H	0.724634	0.319219	0.318478
H277	H	0.176420	-0.176586	-0.241678
H278	H	0.676420	0.323414	0.258322
