data_functionalizedCrystal
_audit_creation_method	'MofGen! by Chris Wilmer'
_symmetry_space_group_name_H-M	'P1'
_symmetry_Int_Tables_number	1
_symmetry_cell_setting	triclinic
loop_
_symmetry_equiv_pos_as_xyz
  x,y,z
_cell_length_a	26.374263
_cell_length_b	26.373608
_cell_length_c	26.370205
_cell_angle_alpha	60.005297
_cell_angle_beta	60.010839
_cell_angle_gamma	59.993700
loop_
_atom_site_label
_atom_site_type_symbol
_atom_site_fract_x
_atom_site_fract_y
_atom_site_fract_z
O1	O	0.070152	-0.740800	0.619517
O2	O	0.026377	-0.576764	0.499159
O3	O	0.130245	-0.680560	0.499088
O4	O	-0.033715	-0.637003	0.619589
O5	O	0.164701	-0.646107	0.533470
O6	O	0.060833	-0.542310	0.533541
O7	O	0.104608	-0.706346	0.653899
Cu8	Cu	0.085867	-0.621182	0.596859
Cu9	Cu	0.045119	-0.661927	0.556199
O10	O	0.000741	-0.602549	0.653971
N11	N	0.114528	-0.592529	0.625461
N12	N	0.016463	-0.690587	0.527598
C13	C	0.181428	-0.355400	0.692330
C14	C	0.181530	-0.525690	0.862573
C15	C	0.181440	-0.525667	0.692313
C16	C	0.351736	-0.525673	0.692271
C17	C	0.200174	-0.411588	0.711047
C18	C	0.200232	-0.506954	0.806384
C19	C	0.295546	-0.506943	0.711016
C20	C	0.200182	-0.506940	0.711037
C21	C	0.157567	-0.283881	0.668507
C22	C	0.157587	-0.549500	0.668479
C23	C	0.224035	-0.483107	0.734871
C24	C	0.455739	-0.507754	0.637520
C25	C	0.520749	-0.529425	0.615835
C26	C	0.520768	-0.634611	0.655947
C27	C	0.455759	-0.612939	0.677633
C28	C	0.173240	-0.251367	0.604595
C29	C	0.151546	-0.186351	0.582941
C30	C	0.098512	-0.186369	0.689113
C31	C	0.120206	-0.251385	0.710768
C32	C	0.093669	-0.533798	0.684205
C33	C	0.071992	-0.555464	0.662532
C34	C	0.178144	-0.608536	0.609422
C35	C	0.199825	-0.586869	0.631088
C36	C	0.093821	-0.533842	0.966616
C37	C	0.072187	-0.555526	1.031630
C38	C	0.178370	-0.608608	1.031591
C39	C	0.200004	-0.586926	0.966576
C40	C	0.157728	-0.549541	0.934090
C41	C	0.423247	-0.549509	0.668416
C42	C	-0.097522	-0.709158	0.508557
C43	C	-0.002050	-0.709295	0.413344
C44	C	-0.002241	-0.804604	0.508735
C45	C	-0.002225	-0.709288	0.508793
C46	C	-0.026009	-0.733087	0.484858
N47	N	0.552340	-0.592538	0.625346
O48	O	0.750867	-0.598274	0.477076
O49	O	0.751048	-0.718989	0.640960
O50	O	0.750981	-0.718715	0.537020
O51	O	0.750934	-0.598547	0.581017
O52	O	0.647701	-0.684348	0.571512
O53	O	0.647768	-0.684622	0.675452
O54	O	0.647587	-0.563907	0.511569
Cu55	Cu	0.638247	-0.621127	0.596660
Cu56	Cu	0.760388	-0.661769	0.555869
O57	O	0.647654	-0.564181	0.615509
N58	N	0.846295	-0.690358	0.527176
N59	N	0.114503	-0.154778	0.625499
O60	O	-0.033701	0.043855	0.619632
O61	O	0.130190	0.043858	0.498933
O62	O	0.026233	0.043841	0.499224
O63	O	0.070257	0.043872	0.619341
O64	O	0.060690	-0.059448	0.533654
O65	O	0.164647	-0.059431	0.533363
O66	O	0.000756	-0.059434	0.654062
Cu67	Cu	0.085848	-0.068863	0.596857
Cu68	Cu	0.045099	0.053287	0.556138
O69	O	0.104714	-0.059417	0.653771
N70	N	0.016435	0.139202	0.527497
N71	N	0.114760	-0.592585	1.063190
O72	O	0.108896	-0.740779	1.261808
O73	O	-0.011787	-0.576838	1.261822
O74	O	-0.011509	-0.680779	1.261780
O75	O	0.108618	-0.636838	1.261850
O76	O	0.022916	-0.646341	1.158496
O77	O	0.022638	-0.542399	1.158538
O78	O	0.143321	-0.706341	1.158524
Cu79	Cu	0.086123	-0.621225	1.149100
Cu80	Cu	0.045411	-0.661953	1.271246
O81	O	0.143044	-0.602399	1.158566
N82	N	0.016774	-0.690600	1.357156
C83	C	0.039504	-0.538867	0.499769
C84	C	0.168130	-0.667407	0.499680
C85	C	0.091482	-0.744243	0.653289
C86	C	-0.037145	-0.615703	0.653378
C87	C	0.699429	-0.718429	0.678853
C88	C	0.699348	-0.718091	0.550135
C89	C	0.699202	-0.564465	0.473677
C90	C	0.699287	-0.564805	0.602393
C91	C	0.168023	-0.007659	0.499484
C92	C	0.039327	-0.007807	0.499887
C93	C	-0.037119	-0.007789	0.653468
C94	C	0.091620	-0.007770	0.653109
C95	C	-0.011194	-0.538964	1.210181
C96	C	-0.010843	-0.667676	1.210109
C97	C	0.142729	-0.744214	1.210165
C98	C	0.142386	-0.615494	1.210214
H99	H	0.020147	-0.542732	1.058106
H100	H	0.214995	-0.007372	0.461496
C101	C	0.752606	-0.783960	0.753522
C102	C	0.699498	-0.769593	0.742390
H103	H	0.752649	-0.815549	0.792746
H104	H	0.752578	-0.747905	0.753468
H105	H	0.788607	-0.798179	0.721906
H106	H	0.663496	-0.755370	0.774004
H107	H	0.699520	-0.805656	0.742450
C108	C	0.118589	-0.854372	0.683242
C109	C	0.104094	-0.807854	0.704322
H110	H	0.126371	-0.893641	0.714750
H111	H	0.154503	-0.854202	0.647136
H112	H	0.084718	-0.846824	0.673553
H113	H	0.137967	-0.815399	0.714007
H114	H	0.068176	-0.808025	0.740439
H115	H	0.029900	-0.007810	0.462151
H116	H	0.699366	-0.755841	0.540718
H117	H	0.101045	-0.007760	0.690842
C118	C	-0.078963	-0.448016	1.157075
C119	C	-0.062344	-0.475402	1.210181
H120	H	-0.110538	-0.408773	1.157074
H121	H	-0.093956	-0.474103	1.157064
H122	H	-0.043666	-0.442589	1.121069
H123	H	-0.097640	-0.480833	1.246187
H124	H	-0.047352	-0.449309	1.210198
C125	C	-0.139134	-0.007777	0.682516
C126	C	-0.100663	-0.007773	0.704621
H127	H	-0.178365	-0.007760	0.714094
H128	H	-0.120563	-0.043802	0.671251
H129	H	-0.144571	0.028236	0.647217
H130	H	-0.095222	-0.043789	0.739918
H131	H	-0.119238	0.028255	0.715894
C132	C	0.247009	-0.807868	1.210181
C133	C	0.193882	-0.807774	1.210160
H134	H	0.278589	-0.847106	1.210174
H135	H	0.237234	-0.800297	1.246206
H136	H	0.261239	-0.776270	1.174171
H137	H	0.179649	-0.839369	1.246172
H138	H	0.203657	-0.815352	1.174131
C139	C	-0.039390	-0.740946	1.209984
C140	C	-0.061770	-0.680338	1.210019
H141	H	-0.070830	-0.748759	1.209925
H142	H	-0.028114	-0.769603	1.246017
H143	H	-0.004054	-0.745573	1.173981
H144	H	-0.097104	-0.675711	1.246024
H145	H	-0.073055	-0.651672	1.173983
H146	H	-0.084239	-0.606419	0.691217
C147	C	0.223699	-0.673054	0.396581
C148	C	0.231701	-0.679939	0.448592
H149	H	0.262946	-0.680794	0.365044
H150	H	0.197651	-0.631953	0.381523
H151	H	0.205082	-0.701753	0.407902
H152	H	0.250314	-0.651235	0.437271
H153	H	0.257759	-0.721046	0.463652
C154	C	0.210003	-0.645048	1.263329
C155	C	0.193336	-0.602809	1.210232
H156	H	0.241455	-0.637213	1.263341
H157	H	0.225174	-0.686162	1.263316
H158	H	0.174684	-0.640408	1.299341
H159	H	0.228655	-0.607453	1.174220
H160	H	0.178167	-0.561685	1.210240
C161	C	-0.013314	-0.483547	0.973192
C162	C	0.047347	-0.492746	0.930911
H163	H	-0.042003	-0.458181	0.951147
H164	H	-0.019543	-0.463702	0.998550
H165	H	-0.019538	-0.522520	0.998547
H166	H	0.053573	-0.453773	0.905560
H167	H	0.053579	-0.512590	0.905543
H168	H	0.212798	-0.639038	1.058038
H169	H	0.059274	-0.503369	0.714648
C170	C	0.297178	-0.668846	0.946527
C171	C	0.270256	-0.604184	0.930827
H172	H	0.340549	-0.679498	0.924461
H173	H	0.278917	-0.683790	0.935872
H174	H	0.290336	-0.687100	0.989897
H175	H	0.277094	-0.585930	0.887457
H176	H	0.288523	-0.589232	0.941478
C177	C	-0.030765	-0.500850	0.717227
C178	C	0.001732	-0.538215	0.679821
H179	H	-0.074140	-0.490207	0.727904
H180	H	-0.020130	-0.464087	0.695176
H181	H	-0.020073	-0.522922	0.753974
H182	H	-0.008958	-0.516142	0.643072
H183	H	-0.008909	-0.574984	0.701872
H184	H	0.212545	-0.638970	0.578981
H185	H	0.429307	-0.646943	0.702793
C186	C	0.302579	-0.641491	0.576397
C187	C	0.270085	-0.604119	0.613796
H188	H	0.345954	-0.652140	0.565723
H189	H	0.291889	-0.619427	0.539655
H190	H	0.291938	-0.678256	0.598457
H191	H	0.280723	-0.567350	0.591734
H192	H	0.280780	-0.626183	0.650545
C193	C	0.646014	-0.498936	0.399017
C194	C	0.699124	-0.513298	0.410143
H195	H	0.645968	-0.467349	0.359792
H196	H	0.610018	-0.484720	0.430631
H197	H	0.646044	-0.534998	0.399073
H198	H	0.699092	-0.477237	0.410091
H199	H	0.735129	-0.527511	0.378521
C200	C	0.514259	-0.736409	0.697775
C201	C	0.556508	-0.704333	0.666074
H202	H	0.536326	-0.779453	0.704029
H203	H	0.488888	-0.721160	0.673963
H204	H	0.488917	-0.730376	0.736838
H205	H	0.581847	-0.710363	0.627009
H206	H	0.581889	-0.719587	0.689886
H207	H	0.699278	-0.527058	0.611808
H208	H	0.547206	-0.495421	0.590679
H209	H	0.203661	-0.277820	0.570179
C210	C	0.462252	-0.405959	0.595697
C211	C	0.419999	-0.438029	0.627393
H212	H	0.440188	-0.362915	0.589447
H213	H	0.487593	-0.411990	0.556639
H214	H	0.487624	-0.421216	0.619516
H215	H	0.394630	-0.422775	0.603571
H216	H	0.394648	-0.431994	0.666457
H217	H	0.164306	-0.159876	0.530897
H218	H	0.068098	-0.159910	0.723527
H219	H	0.030155	-0.491745	0.461969
C220	C	0.065605	-0.244867	0.813539
C221	C	0.102979	-0.287123	0.781022
H222	H	0.054973	-0.266933	0.856912
H223	H	0.028839	-0.219512	0.802891
H224	H	0.087661	-0.219506	0.802872
H225	H	0.080921	-0.312482	0.791685
H226	H	0.139751	-0.312490	0.791675
