data_functionalizedCrystal
_audit_creation_method	'MofGen! by Chris Wilmer'
_symmetry_space_group_name_H-M	'P1'
_symmetry_Int_Tables_number	1
_symmetry_cell_setting	triclinic
loop_
_symmetry_equiv_pos_as_xyz
  x,y,z
_cell_length_a	6.817900
_cell_length_b	15.301126
_cell_length_c	11.102193
_cell_angle_alpha	93.597841
_cell_angle_beta	108.604059
_cell_angle_gamma	104.177575
loop_
_atom_site_label
_atom_site_type_symbol
_atom_site_fract_x
_atom_site_fract_y
_atom_site_fract_z
V1	V	-4.088935	-0.124765	-0.396644
O2	O	-4.071631	0.005989	-0.388696
O3	O	-4.043521	-0.247382	-0.394313
O4	O	-4.066056	-0.122849	-0.569459
O5	O	-4.048941	-0.119406	-0.212337
V6	V	-4.568869	-0.109125	-0.374553
O7	O	-4.358066	-0.159073	-0.445102
O8	O	-4.749935	-0.074818	-0.326094
O9	O	-4.391076	0.013492	-0.376883
O10	O	-4.703569	-0.239879	-0.382501
O11	O	-4.726260	-0.114484	-0.558859
O12	O	-4.368541	-0.111041	-0.201737
C13	C	-3.888423	-0.277273	-0.388155
C14	C	-3.932748	-0.377514	-0.387401
C15	C	-4.136748	-0.429200	-0.393401
C16	C	-4.178389	-0.523388	-0.392700
C17	C	-4.016023	-0.565887	-0.385991
C18	C	-3.812007	-0.514194	-0.379995
C19	C	-3.770374	-0.420009	-0.380705
C20	C	-3.898796	-0.710505	-0.378513
C21	C	-3.940430	-0.804696	-0.377801
C22	C	-4.306811	-0.813884	-0.390508
C23	C	-4.265177	-0.719699	-0.391218
C24	C	-4.061163	-0.668012	-0.385220
C25	C	-3.917167	-0.118418	-0.611569
C26	C	-3.979764	-0.117663	-0.752850
C27	C	-4.070203	-0.282820	-0.789688
C28	C	-4.144822	-0.365040	-0.874478
C29	C	-4.203638	-0.364325	-1.007222
C30	C	-4.187836	-0.281381	-1.055177
C31	C	-4.113217	-0.199161	-0.970386
C32	C	-4.054399	-0.199885	-0.837641
C33	C	-4.022793	-0.034006	-0.933549
C34	C	-3.963962	-0.034719	-0.800804
C35	C	-4.006992	0.048938	-0.981503
C36	C	-3.932357	0.131160	-0.896711
C37	C	-3.873537	0.130442	-0.763960
C38	C	-3.889343	0.047501	-0.716013
C39	C	-4.209516	0.043378	-0.383038
C40	C	-4.144430	0.143618	-0.383800
C41	C	-4.180772	-0.115476	-0.159621
C42	C	-4.097413	-0.116226	-0.018339
H43	H	-4.344503	-0.565467	-0.397588
C44	C	-4.443778	-0.672952	-0.398604
H45	H	-4.571251	-0.717224	-0.402089
H46	H	-4.398156	-0.628159	-0.324666
H47	H	-4.472144	-0.644646	-0.473640
H48	H	-3.732674	-0.668425	-0.373638
H49	H	-3.919513	0.198686	-0.935768
C50	C	-3.791475	0.220883	-0.670695
H51	H	-3.758722	0.208581	-0.584769
H52	H	-3.665344	0.257822	-0.680734
H53	H	-3.899772	0.252036	-0.689038
H54	H	-3.808233	-0.839299	-0.372375
C55	C	-4.252519	-0.280591	-1.201189
H56	H	-4.232422	-0.219420	-1.217606
H57	H	-4.165320	-0.308046	-1.233867
H58	H	-4.399739	-0.313807	-1.242174
H59	H	-3.604262	-0.377928	-0.375824
H60	H	-4.472918	-0.855969	-0.395374
H61	H	-4.054902	0.049513	-1.089592
C62	C	-4.285730	-0.454764	-1.100494
H63	H	-4.286714	-0.504265	-1.052928
H64	H	-4.427752	-0.460795	-1.157192
H65	H	-4.193336	-0.455032	-1.148892
C66	C	-3.633400	-0.560936	-0.372615
H67	H	-3.505946	-0.516662	-0.369155
H68	H	-3.605022	-0.589246	-0.297591
H69	H	-3.679032	-0.605726	-0.446565
C70	C	-4.005518	-0.283610	-0.643675
H71	H	-4.025631	-0.344781	-0.627259
H72	H	-3.858317	-0.250387	-0.602686
H73	H	-4.092747	-0.256163	-0.611003
C74	C	-3.824672	0.046707	-0.570002
H75	H	-3.844793	-0.014466	-0.553591
H76	H	-3.677472	0.079928	-0.529005
H77	H	-3.911906	0.074153	-0.537334
C78	C	-4.162189	-0.456271	-0.821726
H79	H	-4.116455	-0.444925	-0.730524
H80	H	-4.307603	-0.492972	-0.855195
H81	H	-4.073183	-0.487193	-0.846901
H82	H	-4.268966	-0.394604	-0.398852
