data_functionalizedCrystal
_audit_creation_method	'MofGen! by Chris Wilmer'
_symmetry_space_group_name_H-M	'P1'
_symmetry_Int_Tables_number	1
_symmetry_cell_setting	triclinic
loop_
_symmetry_equiv_pos_as_xyz
  x,y,z
_cell_length_a	12.759401
_cell_length_b	11.169409
_cell_length_c	12.759400
_cell_angle_alpha	89.966264
_cell_angle_beta	90.013728
_cell_angle_gamma	89.979208
loop_
_atom_site_label
_atom_site_type_symbol
_atom_site_fract_x
_atom_site_fract_y
_atom_site_fract_z
Zn1	Zn	1.606279	-0.678538	-0.418209
Zn2	Zn	1.606166	-0.477850	-0.593934
Zn3	Zn	1.430574	-0.477871	-0.418267
Zn4	Zn	1.430569	-0.678494	-0.593843
O5	O	1.518397	-0.578188	-0.506063
O6	O	1.753285	-0.651925	-0.441533
O7	O	1.582828	-0.309903	-0.570694
O8	O	1.453930	-0.504518	-0.271238
O9	O	1.753202	-0.504481	-0.570637
O10	O	1.583020	-0.651947	-0.271195
O11	O	1.453821	-0.309919	-0.441632
O12	O	1.283552	-0.504475	-0.441544
O13	O	1.453923	-0.846449	-0.570482
O14	O	1.283549	-0.651871	-0.570539
O15	O	1.583016	-0.846482	-0.441444
O16	O	1.582824	-0.504438	-0.740943
O17	O	1.453814	-0.651850	-0.740876
C18	C	1.245430	-0.578172	-0.506039
C19	C	1.128653	-0.578193	-0.506053
C20	C	1.073827	-0.655086	-0.438955
C21	C	0.964103	-0.655094	-0.438975
C22	C	0.964040	-0.501311	-0.573201
C23	C	1.073762	-0.501298	-0.573174
C24	C	1.073862	-0.743875	-0.361464
C25	C	0.964138	-0.743883	-0.361485
C26	C	1.518481	-0.891231	-0.505947
C27	C	1.518517	-1.024631	-0.505897
C28	C	1.792430	-0.578206	-0.506089
C29	C	1.909207	-0.578213	-0.506100
C30	C	1.518335	-0.578163	-0.779031
C31	C	1.518404	-0.578193	-0.895807
C32	C	1.518373	-0.266363	-0.506103
C33	C	1.518541	-0.132964	-0.505857
C34	C	1.585654	-0.501520	-0.950669
C35	C	1.585719	-0.501557	-1.060393
C36	C	1.451274	-0.654943	-1.060384
C37	C	1.451215	-0.654911	-0.950662
C38	C	1.663272	-0.412960	-0.950675
C39	C	1.663336	-0.412997	-1.060400
C40	C	1.518488	-0.578240	-0.232030
C41	C	1.518527	-0.578261	-0.115253
H42	H	1.107930	-0.832108	-0.390694
F43	F	0.925258	-0.865324	-0.390101
F44	F	1.625181	-0.297512	-0.906302
H45	H	0.930095	-0.710755	-0.284158
H46	H	1.396465	-0.717355	-0.905994
H47	H	1.396572	-0.717405	-1.105059
F48	F	1.634922	-0.291488	-1.099440
H49	H	1.744616	-0.437922	-0.920818
H50	H	1.740641	-0.446367	-1.094344
H51	H	0.919335	-0.438707	-0.627848
F52	F	1.112774	-0.711547	-0.255068
F53	F	1.132109	-0.419429	-0.644563
