data_functionalizedCrystal
_audit_creation_method	'MofGen! by Chris Wilmer'
_symmetry_space_group_name_H-M	'P1'
_symmetry_Int_Tables_number	1
_symmetry_cell_setting	triclinic
loop_
_symmetry_equiv_pos_as_xyz
  x,y,z
_cell_length_a	14.971486
_cell_length_b	13.330367
_cell_length_c	14.971494
_cell_angle_alpha	90.002923
_cell_angle_beta	83.615843
_cell_angle_gamma	90.002597
loop_
_atom_site_label
_atom_site_type_symbol
_atom_site_fract_x
_atom_site_fract_y
_atom_site_fract_z
O1	O	1.186952	0.083304	0.116562
O2	O	1.686952	0.583304	0.616562
O3	O	0.926552	0.083331	0.130520
O4	O	1.426552	0.583331	0.630520
O5	O	1.063728	0.083315	-0.006659
O6	O	1.563728	0.583315	0.493341
O7	O	1.049777	0.083321	0.253741
O8	O	1.549777	0.583321	0.753741
O9	O	1.063708	-0.083532	-0.006662
O10	O	1.563708	0.416468	0.493338
O11	O	0.926533	-0.083516	0.130517
O12	O	1.426533	0.416484	0.630517
O13	O	1.186932	-0.083543	0.116559
O14	O	1.686932	0.416457	0.616559
Cu15	Cu	1.056731	-0.098764	0.123538
Cu16	Cu	1.556731	0.401236	0.623538
Cu17	Cu	1.056754	0.098552	0.123541
Cu18	Cu	1.556754	0.598552	0.623541
O19	O	1.049757	-0.083527	0.253737
O20	O	1.549757	0.416473	0.753737
C21	C	0.893218	-0.000089	0.129895
C22	C	1.393218	0.499911	0.629895
C23	C	0.793921	-0.000079	0.128024
C24	C	1.293921	0.499921	0.628024
C25	C	0.736698	-0.000078	0.208613
C26	C	1.236698	0.499922	0.708613
C27	C	0.643398	-0.000093	0.206850
C28	C	1.143398	0.499907	0.706850
C29	C	0.607323	-0.000102	0.124497
C30	C	1.107323	0.499898	0.624497
C31	C	0.664554	-0.000105	0.043902
C32	C	1.164554	0.499895	0.543902
C33	C	0.757851	-0.000097	0.045666
C34	C	1.257851	0.499903	0.545666
C35	C	0.470091	-0.000119	0.040231
C36	C	0.970091	0.499881	0.540231
C37	C	0.376787	-0.000125	0.038466
C38	C	0.876787	0.499875	0.538466
C39	C	0.355638	-0.000115	0.201415
C40	C	0.855638	0.499885	0.701415
C41	C	0.448936	-0.000107	0.203179
C42	C	0.948936	0.499893	0.703179
C43	C	0.506159	-0.000109	0.122583
C44	C	1.006159	0.499891	0.622583
N45	N	1.056721	-0.237545	0.123535
N46	N	1.556721	0.262455	0.623535
C47	C	0.996010	-0.710161	0.184260
C48	C	1.496010	-0.210161	0.684260
C49	C	1.117522	-0.710144	0.062815
C50	C	1.617522	-0.210144	0.562815
C51	C	1.117512	-0.605125	0.062813
C52	C	1.617512	-0.105125	0.562813
C53	C	1.056751	-0.552620	0.123535
C54	C	1.556751	-0.052620	0.623535
C55	C	0.996000	-0.605133	0.184261
C56	C	1.496000	-0.105133	0.684261
C57	C	1.178268	-0.552604	0.002094
C58	C	1.678268	-0.052604	0.502094
C59	C	1.178261	-0.447580	0.002090
C60	C	1.678261	0.052420	0.502090
C61	C	1.117495	-0.395072	0.062809
C62	C	1.617495	0.104928	0.562809
C63	C	1.056741	-0.447592	0.123536
C64	C	1.556741	0.052408	0.623536
C65	C	0.995980	-0.395087	0.184259
C66	C	1.495980	0.104913	0.684259
C67	C	0.935221	-0.447604	0.244983
C68	C	1.435221	0.052396	0.744983
C69	C	0.935234	-0.552626	0.244980
C70	C	1.435234	-0.052626	0.744980
C71	C	1.117482	-0.290051	0.062812
C72	C	1.617482	0.209949	0.562812
C73	C	0.995970	-0.290058	0.184260
C74	C	1.495970	0.209942	0.684260
C75	C	1.220267	-0.000121	0.117184
C76	C	1.720267	0.499879	0.617184
C77	C	1.319564	-0.000124	0.119055
C78	C	1.819564	0.499876	0.619055
C79	C	1.063093	-0.000107	-0.039985
C80	C	1.563093	0.499893	0.460015
C81	C	1.061219	-0.000102	-0.139281
C82	C	1.561219	0.499898	0.360719
N83	N	1.056771	0.237334	0.123537
N84	N	1.556771	0.737334	0.623537
C85	C	1.060352	0.090847	-0.185924
C86	C	1.560352	0.590847	0.314076
C87	C	1.058585	0.090849	-0.279223
C88	C	1.558585	0.590849	0.220777
C89	C	1.057693	-0.000101	-0.325879
C90	C	1.557693	0.499899	0.174121
C91	C	1.058557	-0.091057	-0.279229
C92	C	1.558557	0.408943	0.220771
C93	C	1.060317	-0.091058	-0.185930
C94	C	1.560317	0.408942	0.314070
C95	C	1.054892	-0.091050	-0.473692
C96	C	1.554892	0.408950	0.026308
C97	C	1.053133	-0.091050	-0.566997
C98	C	1.553133	0.408950	-0.066997
C99	C	1.053159	0.090856	-0.566985
C100	C	1.553159	0.590856	-0.066985
C101	C	1.054919	0.090856	-0.473687
C102	C	1.554919	0.590856	0.026313
C103	C	1.055786	-0.000101	-0.427043
C104	C	1.555786	0.499899	0.072957
C105	C	1.050392	-0.000102	0.287064
C106	C	1.550392	0.499898	0.787064
C107	C	1.052266	-0.000101	0.386360
C108	C	1.552266	0.499899	0.886360
H109	H	0.804442	-0.000097	-0.019958
H110	H	1.304442	0.499903	0.480042
H111	H	0.766062	-0.000071	0.275674
H112	H	1.266062	0.499929	0.775674
H113	H	0.946539	-0.752923	0.233698
H114	H	1.446539	-0.252923	0.733698
C115	C	1.245100	-0.610366	-0.064696
C116	C	1.745100	-0.110366	0.435304
N117	N	1.295439	-0.653877	-0.115008
N118	N	1.795439	-0.153877	0.384992
H119	H	1.061083	0.164909	-0.147945
H120	H	1.561083	0.664909	0.352055
C121	C	0.488616	-0.000102	0.293771
C122	C	0.988616	0.499898	0.793771
N123	N	0.518502	-0.000104	0.362007
N124	N	1.018502	0.499896	0.862007
H125	H	1.227733	-0.404826	-0.047355
H126	H	1.727733	0.095174	0.452645
H127	H	0.946487	-0.247315	0.233705
H128	H	1.446487	0.252685	0.733705
H129	H	0.635174	-0.000126	-0.023152
H130	H	1.135174	0.499874	0.476848
H131	H	1.052452	0.164917	-0.604966
H132	H	1.552452	0.664917	-0.104966
H133	H	0.885752	-0.404842	0.294428
H134	H	1.385752	0.095158	0.794428
H135	H	1.061011	-0.165118	-0.147953
H136	H	1.561011	0.334882	0.352047
H137	H	1.166955	-0.247296	0.013375
H138	H	1.666955	0.252704	0.513375
C139	C	1.057713	0.190901	-0.330537
C140	C	1.557713	0.690901	0.169463
N141	N	1.057086	0.266264	-0.369190
N142	N	1.557086	0.766264	0.130810
H143	H	1.052399	-0.165109	-0.604980
H144	H	1.552399	0.334891	-0.104980
C145	C	0.868401	-0.610403	0.311766
C146	C	1.368401	-0.110403	0.811766
N147	N	0.818061	-0.653925	0.362068
N148	N	1.318061	-0.153925	0.862068
H149	H	1.166996	-0.752897	0.013381
H150	H	1.666996	-0.252897	0.513381
H151	H	1.055653	0.164915	-0.435703
H152	H	1.555653	0.664915	0.064297
C153	C	1.055848	-0.191108	-0.422387
C154	C	1.555848	0.308892	0.077613
N155	N	1.056575	-0.266470	-0.383745
N156	N	1.556575	0.233530	0.116255
H157	H	0.596810	-0.000092	0.272473
H158	H	1.096810	0.499908	0.772473
H159	H	0.309041	-0.000118	0.267038
H160	H	0.809041	0.499882	0.767038
H161	H	0.347418	-0.000133	-0.028593
H162	H	0.847418	0.499867	0.471407
H163	H	0.516681	-0.000122	-0.025399
H164	H	1.016681	0.499878	0.474601
H165	H	1.057825	-0.165110	-0.317222
H166	H	1.557825	0.334890	0.182778
