data_functionalizedCrystal
_audit_creation_method	'MofGen! by Chris Wilmer'
_symmetry_space_group_name_H-M	'P1'
_symmetry_Int_Tables_number	1
_symmetry_cell_setting	triclinic
loop_
_symmetry_equiv_pos_as_xyz
  x,y,z
_cell_length_a	10.654546
_cell_length_b	10.967961
_cell_length_c	10.066323
_cell_angle_alpha	69.181970
_cell_angle_beta	98.824378
_cell_angle_gamma	84.599477
loop_
_atom_site_label
_atom_site_type_symbol
_atom_site_fract_x
_atom_site_fract_y
_atom_site_fract_z
O1	O	1.642010	0.201007	-0.160781
O2	O	1.275874	0.218364	-0.164858
O3	O	1.474492	0.021003	-0.118445
O4	O	1.443391	0.398368	-0.207193
O5	O	1.512340	-0.016783	0.117415
O6	O	1.313722	0.180578	0.071002
O7	O	1.679858	0.163221	0.075079
Zn8	Zn	1.502799	0.165900	0.110488
Zn9	Zn	1.452932	0.215685	-0.200267
O10	O	1.481240	0.360582	0.028666
C11	C	1.248048	0.198197	-0.046628
C12	C	1.108749	0.194387	-0.045730
C13	C	1.022691	0.213182	-0.173880
C14	C	0.891804	0.209594	-0.173047
C15	C	0.933049	0.168408	0.084098
C16	C	1.063931	0.172006	0.083261
C17	C	1.067509	0.235563	-0.302871
C18	C	0.981449	0.254359	-0.431031
C19	C	0.850562	0.250770	-0.430198
C20	C	0.805736	0.228386	-0.301206
C21	C	1.494012	-0.046209	0.010846
C22	C	1.495772	-0.190186	0.044697
C23	C	1.707683	0.183388	-0.043154
C24	C	1.846980	0.187200	-0.044061
C25	C	1.478776	-0.383608	-0.027404
C26	C	1.476951	-0.234799	-0.062402
C27	C	1.461719	0.427795	-0.100627
C28	C	1.459957	0.571773	-0.134488
N29	N	1.536841	0.131923	0.322571
N30	N	1.418901	0.249652	-0.412347
C31	C	1.464760	0.203864	0.373460
C32	C	1.490992	0.177701	0.536770
H33	H	0.896540	0.150182	0.189118
N34	N	1.029801	0.278498	-0.570145
H35	H	1.010555	0.206632	-0.607333
H36	H	0.985445	0.367156	-0.644986
N37	N	1.644317	0.024683	0.424993
H38	H	1.728930	0.044328	0.395557
H39	H	1.647707	0.021252	0.527099
H40	H	1.337768	0.330623	0.510323
N41	N	1.208681	0.239410	-0.303763
H42	H	1.224018	0.256434	-0.404919
H43	H	1.235679	0.312422	-0.272299
H44	H	0.780492	0.266087	-0.534555
H45	H	1.134002	0.156708	0.187610
H46	H	1.496232	-0.455576	0.090183
N47	N	1.453730	-0.139477	-0.218177
H48	H	1.455679	-0.046679	-0.221100
H49	H	1.523060	-0.163821	-0.266573
H50	H	1.442484	-0.356257	-0.252077
N51	N	1.518895	-0.285493	0.200471
H52	H	1.516918	-0.378288	0.203396
H53	H	1.605711	-0.280724	0.253411
N54	N	0.664568	0.224509	-0.300293
H55	H	0.628588	0.295801	-0.268484
H56	H	0.616945	0.239775	-0.401074
H57	H	1.383632	0.284830	0.296127
H58	H	1.572134	0.096739	0.614098
