data_functionalizedCrystal
_audit_creation_method	'MofGen! by Chris Wilmer'
_symmetry_space_group_name_H-M	'P1'
_symmetry_Int_Tables_number	1
_symmetry_cell_setting	triclinic
loop_
_symmetry_equiv_pos_as_xyz
  x,y,z
_cell_length_a	16.109301
_cell_length_b	15.995350
_cell_length_c	14.586319
_cell_angle_alpha	89.998440
_cell_angle_beta	89.999213
_cell_angle_gamma	83.476928
loop_
_atom_site_label
_atom_site_type_symbol
_atom_site_fract_x
_atom_site_fract_y
_atom_site_fract_z
O1	O	1.103160	0.107624	-0.076178
O2	O	1.603160	0.607624	0.423822
O3	O	0.861101	0.121018	-0.076192
O4	O	1.361101	0.621018	0.423808
O5	O	0.988747	-0.007569	-0.076184
O6	O	1.488747	0.492431	0.423816
O7	O	0.975514	0.236210	-0.076186
O8	O	1.475514	0.736210	0.423814
O9	O	0.988739	-0.007570	0.076297
O10	O	1.488739	0.492430	0.576297
O11	O	0.861093	0.121016	0.076289
O12	O	1.361093	0.621016	0.576289
O13	O	1.103151	0.107622	0.076303
O14	O	1.603151	0.607622	0.576303
Cu15	Cu	0.982121	0.114319	0.090219
Cu16	Cu	1.482121	0.614319	0.590219
Cu17	Cu	0.982131	0.114321	-0.090107
Cu18	Cu	1.482131	0.614321	0.409893
O19	O	0.975505	0.236208	0.076295
O20	O	1.475505	0.736208	0.576295
C21	C	0.830122	0.120474	0.000047
C22	C	1.330122	0.620474	0.500047
C23	C	0.737826	0.118848	0.000041
C24	C	1.237826	0.618848	0.500041
C25	C	0.515573	0.191366	0.000051
C26	C	1.015573	0.691366	0.500051
C27	C	0.428853	0.189831	0.000057
C28	C	0.928853	0.689831	0.500057
C29	C	0.448686	0.037268	0.000055
C30	C	0.948686	0.537268	0.500055
C31	C	0.535405	0.038804	0.000055
C32	C	1.035405	0.538804	0.500055
C33	C	0.568846	0.115855	0.000049
C34	C	1.068846	0.615855	0.500049
C35	C	0.395406	0.112785	0.000054
C36	C	0.895406	0.612785	0.500054
C37	C	0.301380	0.111120	0.000061
C38	C	0.801380	0.611120	0.500061
C39	C	0.662879	0.117520	0.000044
C40	C	1.162879	0.617520	0.500044
C41	C	0.988196	-0.038764	0.000055
C42	C	1.488196	0.461236	0.500055
C43	C	0.986556	-0.131714	0.000050
C44	C	1.486556	0.368286	0.500050
C45	C	0.980665	-0.469460	0.000053
C46	C	1.480665	0.030540	0.500053
C47	C	0.889758	-0.422001	-0.000295
C48	C	1.389758	0.077999	0.499705
C49	C	0.891399	-0.325311	0.000049
C50	C	1.391399	0.174689	0.500049
C51	C	0.983587	-0.301900	0.000051
C52	C	1.483587	0.198100	0.500051
C53	C	1.028421	-0.342991	0.087126
C54	C	1.528421	0.157009	0.587126
C55	C	1.026137	-0.439626	0.087198
C56	C	1.526137	0.060374	0.587198
C57	C	1.028025	-0.439983	-0.086201
C58	C	1.528025	0.060017	0.413799
C59	C	1.028003	-0.343037	-0.087351
C60	C	1.528003	0.156963	0.412649
C61	C	0.985243	-0.207203	0.000053
C62	C	1.485243	0.292797	0.500053
C63	C	0.979012	-0.564157	0.000057
C64	C	1.479012	-0.064157	0.500057
C65	C	1.134130	0.108166	0.000062
C66	C	1.634130	0.608166	0.500062
C67	C	1.226426	0.109792	0.000062
C68	C	1.726426	0.609792	0.500062
C69	C	0.976056	0.267404	0.000054
C70	C	1.476056	0.767404	0.500054
C71	C	0.977697	0.360354	0.000053
C72	C	1.477697	0.860354	0.500053
N73	N	0.982120	0.114317	0.217050
N74	N	1.482120	0.614317	0.717050
N75	N	0.982139	0.114317	-0.216939
N76	N	1.482139	0.614317	0.283061
C77	C	1.038660	0.057398	0.452061
C78	C	1.538660	0.557398	0.952061
C79	C	1.038662	0.057396	0.548042
C80	C	1.538662	0.557396	1.048042
C81	C	0.925593	0.171238	0.548044
C82	C	1.425593	0.671238	1.048044
C83	C	0.925587	0.171236	0.452064
C84	C	1.425587	0.671236	0.952064
C85	C	0.982125	0.114316	0.404075
C86	C	1.482125	0.614316	0.904075
C87	C	0.982134	0.114317	0.596036
C88	C	1.482134	0.614317	1.096036
C89	C	0.982136	0.114315	0.700103
C90	C	1.482136	0.614315	1.200103
C91	C	0.982122	0.114317	0.300001
C92	C	1.482122	0.614317	0.800001
H93	H	0.542798	0.254106	0.000053
H94	H	1.042798	0.754106	0.500053
H95	H	0.421447	-0.025465	0.000066
H96	H	0.921447	0.474535	0.500066
O97	O	0.592874	-0.042643	0.000055
O98	O	1.092874	0.457357	0.500055
H99	H	0.555053	-0.096480	0.000047
H100	H	1.055053	0.403520	0.500047
H101	H	0.879562	0.217582	0.587126
H102	H	1.379562	0.717582	1.087126
H103	H	0.856156	-0.296879	-0.062370
H104	H	1.356156	0.203121	0.437630
O105	O	0.864608	0.232624	0.400293
O106	O	1.364608	0.732624	0.900293
H107	H	0.875201	0.297905	0.418694
H108	H	1.375201	0.797905	0.918694
H109	H	0.993437	-0.457919	0.152287
H110	H	1.493437	0.042081	0.652287
O111	O	0.371391	0.271274	0.000057
O112	O	0.871391	0.771274	0.500057
H113	H	0.409217	0.325107	0.000047
H114	H	0.909217	0.825107	0.500047
O115	O	0.984652	-0.306865	-0.172687
O116	O	1.484652	0.193135	0.327313
H117	H	0.931694	-0.259780	-0.152945
H118	H	1.431694	0.240220	0.347055
H119	H	1.092879	-0.471892	0.091150
H120	H	1.592879	0.028108	0.591150
O121	O	0.841615	-0.446544	-0.082992
O122	O	1.341615	0.053456	0.417008
H123	H	0.881961	-0.492834	-0.124731
H124	H	1.381961	0.007166	0.375269
O125	O	0.841832	-0.447924	0.081957
O126	O	1.341832	0.052076	0.581957
H127	H	0.882478	-0.494462	0.123085
H128	H	1.382478	0.005538	0.623085
H129	H	1.096149	-0.328884	0.090365
H130	H	1.596149	0.171116	0.590365
H131	H	1.095231	-0.327694	-0.092608
H132	H	1.595231	0.172306	0.407392
O133	O	0.844410	-0.288387	0.082878
O134	O	1.344410	0.211613	0.582878
H135	H	0.778769	-0.303095	0.079850
H136	H	1.278769	0.196905	0.579850
O137	O	0.987173	-0.305392	0.172964
O138	O	1.487173	0.194608	0.672964
H139	H	0.934748	-0.257453	0.153829
H140	H	1.434748	0.242547	0.653829
H141	H	0.998307	-0.460513	-0.152198
H142	H	1.498307	0.039487	0.347802
O143	O	1.116806	-0.482080	-0.086989
O144	O	1.616806	0.017920	0.413011
H145	H	1.127191	-0.523800	-0.026284
H146	H	1.627191	-0.023800	0.473716
H147	H	1.084696	0.011050	0.412990
H148	H	1.584696	0.511050	0.912990
H149	H	1.084697	0.011047	0.587109
H150	H	1.584697	0.511047	1.087109
