data_functionalizedCrystal
_audit_creation_method	'MofGen! by Chris Wilmer'
_symmetry_space_group_name_H-M	'P1'
_symmetry_Int_Tables_number	1
_symmetry_cell_setting	triclinic
loop_
_symmetry_equiv_pos_as_xyz
  x,y,z
_cell_length_a	27.732048
_cell_length_b	26.809956
_cell_length_c	17.038275
_cell_angle_alpha	89.986790
_cell_angle_beta	93.123535
_cell_angle_gamma	90.010552
loop_
_atom_site_label
_atom_site_type_symbol
_atom_site_fract_x
_atom_site_fract_y
_atom_site_fract_z
O1	O	0.645188	0.041425	-0.092982
O2	O	0.505041	0.041442	-0.107120
O3	O	0.574282	0.041418	0.013755
O4	O	0.575947	0.041449	-0.213857
O5	O	0.574259	-0.041541	0.013755
O6	O	0.505018	-0.041518	-0.107120
O7	O	0.645165	-0.041534	-0.092982
Zn8	Zn	0.575088	-0.054697	-0.100051
Zn9	Zn	0.575118	0.054605	-0.100051
O10	O	0.575924	-0.041510	-0.213857
C11	C	0.487009	-0.000036	-0.106824
C12	C	0.433313	-0.000031	-0.105930
C13	C	0.097508	-0.000043	-0.171733
C14	C	-0.104303	-0.000048	-0.168417
O15	O	-0.132807	-0.000061	-0.228589
N16	N	-0.126705	-0.000057	-0.096743
C17	C	-0.098651	-0.000068	-0.025894
O18	O	-0.122336	-0.000081	0.035145
C19	C	0.103159	-0.000067	-0.029210
C20	C	0.125558	-0.000053	-0.100889
C21	C	0.119907	-0.000030	-0.243406
C22	C	0.170357	-0.000026	-0.244234
C23	C	0.198407	-0.000035	-0.173389
C24	C	0.176008	-0.000049	-0.101717
C25	C	0.131213	-0.000081	0.041639
C26	C	0.181668	-0.000082	0.040803
C27	C	0.204067	-0.000068	-0.030875
C28	C	0.254509	-0.000054	-0.031700
N29	N	0.276910	-0.000045	-0.103374
C30	C	0.248860	-0.000036	-0.174219
C31	C	-0.204604	-0.000068	-0.024157
C32	C	-0.255057	-0.000067	-0.023328
C33	C	-0.260706	-0.000048	-0.165852
C34	C	-0.210253	-0.000045	-0.166681
C35	C	-0.182203	-0.000059	-0.095831
C36	C	0.354808	-0.000027	-0.175952
C37	C	0.405263	-0.000021	-0.176774
C38	C	0.410907	-0.000043	-0.034251
C39	C	0.360457	-0.000046	-0.033428
C40	C	0.332409	-0.000040	-0.104286
O41	O	0.283042	-0.000046	0.028440
O42	O	0.272554	-0.000034	-0.235249
C43	C	0.047058	-0.000047	-0.170905
C44	C	0.024659	-0.000060	-0.099232
C45	C	0.052709	-0.000070	-0.028388
C46	C	-0.025794	-0.000060	-0.098403
C47	C	-0.053844	-0.000050	-0.169247
C48	C	-0.031442	-0.000042	-0.240921
C49	C	0.019007	-0.000038	-0.241749
C50	C	0.030308	-0.000079	0.043286
C51	C	-0.020143	-0.000082	0.044108
C52	C	-0.048193	-0.000073	-0.026736
C53	C	0.572756	-0.000064	0.042865
C54	C	0.568236	-0.000073	0.129605
C55	C	0.663197	-0.000055	-0.093279
C56	C	0.716893	-0.000058	-0.094172
N57	N	0.575071	-0.129293	-0.100051
C58	C	0.606361	-0.473916	-0.147113
C59	C	0.606377	-0.682794	-0.147112
O60	O	0.632967	-0.709795	-0.187117
N61	N	0.575129	-0.708920	-0.100043
C62	C	0.543878	-0.682824	-0.052967
O63	O	0.517304	-0.709839	-0.012926
C64	C	0.543865	-0.473948	-0.052964
C65	C	0.575111	-0.447824	-0.100042
C66	C	0.637605	-0.447793	-0.194186
C67	C	0.637599	-0.395576	-0.194189
C68	C	0.606349	-0.369484	-0.147118
C69	C	0.575105	-0.395608	-0.100045
C70	C	0.512617	-0.447852	-0.005885
C71	C	0.512617	-0.395630	-0.005887
C72	C	0.543863	-0.369506	-0.052965
C73	C	0.543849	-0.317299	-0.052978
N74	N	0.575097	-0.291172	-0.100046
C75	C	0.606346	-0.317265	-0.147117
C76	C	0.543886	-0.792488	-0.052973
C77	C	0.543889	-0.844707	-0.052975
C78	C	0.606388	-0.844673	-0.147119
C79	C	0.606383	-0.792453	-0.147121
C80	C	0.575134	-0.766361	-0.100042
C81	C	0.606331	-0.207607	-0.147120
C82	C	0.606321	-0.155386	-0.147121
C83	C	0.543823	-0.155424	-0.052975
C84	C	0.543832	-0.207641	-0.052976
C85	C	0.575089	-0.233731	-0.100051
O86	O	0.517276	-0.290265	-0.012987
O87	O	0.632924	-0.290241	-0.187139
C88	C	0.606367	-0.526133	-0.147110
C89	C	0.575123	-0.552256	-0.100036
C90	C	0.543874	-0.526164	-0.052966
C91	C	0.575126	-0.604475	-0.100038
C92	C	0.606376	-0.630568	-0.147108
C93	C	0.637623	-0.604441	-0.194177
C94	C	0.637617	-0.552225	-0.194180
C95	C	0.512626	-0.552290	-0.005897
C96	C	0.512634	-0.604507	-0.005899
C97	C	0.543884	-0.630599	-0.052969
N98	N	0.575139	0.129201	-0.100045
C99	C	0.540469	-0.000036	0.619693
C100	C	0.544719	-0.000040	0.538193
C101	C	0.590473	-0.000051	0.507292
C102	C	0.631978	-0.000054	0.557898
C103	C	0.627727	-0.000047	0.639397
C104	C	0.605491	-0.000069	0.261710
C105	C	0.609739	-0.000077	0.180205
C106	C	0.522479	-0.000062	0.160505
C107	C	0.518232	-0.000058	0.242006
C108	C	0.559738	-0.000058	0.292605
C109	C	0.594819	-0.000056	0.423986
C110	C	0.555391	-0.000050	0.375910
C111	C	0.577450	-0.000033	0.757033
C112	C	0.581971	-0.000041	0.670293
H113	H	0.097073	-0.000024	-0.301099
F114	F	0.500546	-0.000031	0.484344
H115	H	0.639288	-0.000072	0.302898
F116	F	0.478309	-0.000059	0.106649
F117	F	-0.174757	-0.000081	0.051256
F118	F	0.680673	-0.000062	0.525010
H119	H	0.646999	-0.000087	0.155050
F120	F	0.479359	-0.524528	0.044195
H121	H	0.661523	-0.000049	0.680595
H122	H	0.518139	-0.000038	0.401072
F123	F	0.639599	-0.235366	-0.197222
H124	H	0.480974	-0.000043	0.267159
H125	H	0.503211	-0.000033	0.644845
H126	H	-0.273289	-0.000071	0.035040
H127	H	0.632072	-0.000082	0.398818
H128	H	0.053142	-0.000088	0.100978
H129	H	0.423497	-0.000009	-0.235146
F130	F	0.639647	-0.872451	-0.197214
H131	H	0.631765	-0.134118	-0.185461
F132	F	0.510566	-0.127646	-0.002884
H133	H	0.188589	-0.000014	-0.302602
H134	H	-0.192019	-0.000037	-0.225047
F135	F	0.324964	-0.000021	-0.251367
H136	H	0.112985	-0.000093	0.100007
F137	F	0.211518	-0.000098	0.116214
F138	F	-0.290568	-0.000039	-0.241250
F139	F	0.479373	-0.632304	0.044207
H140	H	0.342219	-0.000050	0.024938
F141	F	0.042840	-0.000023	-0.318040
F142	F	-0.061305	-0.000029	-0.316319
F143	F	0.440770	-0.000053	0.041143
F144	F	0.670849	-0.367780	-0.244306
F145	F	-0.043975	-0.000091	0.120404
H146	H	0.663055	-0.469032	-0.232516
H147	H	0.663060	-0.530960	-0.232516
H148	H	0.631826	-0.771186	-0.185456
H149	H	0.518440	-0.865972	-0.014649
H150	H	0.487174	-0.469113	0.032452
F151	F	0.510618	-0.764725	-0.002874
H152	H	0.487170	-0.374389	0.032452
F153	F	0.510572	-0.235444	-0.002879
H154	H	0.663065	-0.625695	-0.232508
