data_functionalizedCrystal
_audit_creation_method	'MofGen! by Chris Wilmer'
_symmetry_space_group_name_H-M	'P1'
_symmetry_Int_Tables_number	1
_symmetry_cell_setting	triclinic
loop_
_symmetry_equiv_pos_as_xyz
  x,y,z
_cell_length_a	14.908783
_cell_length_b	16.120444
_cell_length_c	14.908308
_cell_angle_alpha	95.986749
_cell_angle_beta	89.788727
_cell_angle_gamma	96.376156
loop_
_atom_site_label
_atom_site_type_symbol
_atom_site_fract_x
_atom_site_fract_y
_atom_site_fract_z
Zn1	Zn	1.328315	-0.293307	-0.602926
Zn2	Zn	1.661648	0.040026	-0.269593
Zn3	Zn	1.994982	0.373359	0.063741
Zn4	Zn	1.329261	-0.425029	-0.459346
Zn5	Zn	1.662594	-0.091695	-0.126012
Zn6	Zn	1.995928	0.241638	0.207321
Zn7	Zn	1.186681	-0.292400	-0.443851
Zn8	Zn	1.520014	0.040933	-0.110517
Zn9	Zn	1.853347	0.374267	0.222816
Zn10	Zn	1.169356	-0.441087	-0.601794
Zn11	Zn	1.502689	-0.107753	-0.268460
Zn12	Zn	1.836023	0.225580	0.064873
O13	O	1.253403	-0.362956	-0.526979
O14	O	1.586736	-0.029622	-0.193646
O15	O	1.920070	0.303711	0.139688
O16	O	1.454636	-0.304440	-0.590838
O17	O	1.787969	0.028893	-0.257505
O18	O	2.121302	0.362227	0.075828
O19	O	1.317994	-0.400335	-0.331102
O20	O	1.651327	-0.067002	0.002232
O21	O	1.984661	0.266332	0.335565
O22	O	1.212323	-0.175169	-0.458941
O23	O	1.545657	0.158165	-0.125608
O24	O	1.878990	0.491498	0.207725
O25	O	1.455331	-0.401215	-0.485350
O26	O	1.788664	-0.067882	-0.152017
O27	O	2.121997	0.265452	0.181316
O28	O	1.316381	-0.175835	-0.575813
O29	O	1.649715	0.157498	-0.242480
O30	O	1.983048	0.490831	0.090853
O31	O	1.213241	-0.302893	-0.319717
O32	O	1.546574	0.030440	0.013616
O33	O	1.879908	0.363773	0.346949
O34	O	1.058187	-0.318464	-0.457844
O35	O	1.391521	0.014869	-0.124510
O36	O	1.724854	0.348203	0.208823
O37	O	1.182796	-0.428584	-0.728133
O38	O	1.516129	-0.095250	-0.394799
O39	O	1.849462	0.238083	-0.061466
O40	O	1.045459	-0.427704	-0.573884
O41	O	1.378792	-0.094370	-0.240550
O42	O	1.712125	0.238963	0.092783
O43	O	1.299582	-0.320011	-0.728964
O44	O	1.632915	0.013323	-0.395631
O45	O	1.966249	0.346656	-0.062298
O46	O	1.301195	-0.544511	-0.484253
O47	O	1.634528	-0.211177	-0.150919
O48	O	1.967861	0.122156	0.182414
O49	O	1.183713	-0.556308	-0.588909
O50	O	1.517046	-0.222975	-0.255575
O51	O	1.850380	0.110358	0.077758
C52	C	1.019102	-0.374729	-0.514060
C53	C	1.352435	-0.041395	-0.180727
C54	C	1.685769	0.291938	0.152607
C55	C	0.918864	-0.379786	-0.508555
C56	C	1.252198	-0.046453	-0.175222
C57	C	1.585531	0.286880	0.158111
C58	C	0.729762	-0.288675	-0.608240
C59	C	1.063096	0.044658	-0.274907
C60	C	1.396429	0.377991	0.058426
C61	C	0.635580	-0.293425	-0.603071
C62	C	0.968914	0.039908	-0.269738
C63	C	1.302247	0.373242	0.063595
C64	C	0.636317	-0.394030	-0.493044
C65	C	0.969650	-0.060697	-0.159711
C66	C	1.302984	0.272637	0.173623
C67	C	0.730499	-0.389280	-0.498213
C68	C	1.063832	-0.055947	-0.164880
C69	C	1.397166	0.277386	0.168454
C70	C	0.777218	-0.336602	-0.555814
C71	C	1.110552	-0.003269	-0.222481
C72	C	1.443885	0.330064	0.110852
C73	C	0.871402	-0.331858	-0.560988
C74	C	1.204735	0.001476	-0.227654
C75	C	1.538068	0.334809	0.105679
C76	C	0.872137	-0.432458	-0.450956
C77	C	1.205470	-0.099124	-0.117623
C78	C	1.538804	0.234209	0.215711
C79	C	0.777955	-0.437207	-0.445787
C80	C	1.111288	-0.103874	-0.112454
C81	C	1.444622	0.229459	0.220880
C82	C	1.240700	-0.580837	-0.538160
C83	C	1.574033	-0.247504	-0.204827
C84	C	1.907367	0.085829	0.128506
C85	C	1.235346	-0.674045	-0.542978
C86	C	1.568679	-0.340712	-0.209645
C87	C	1.902013	-0.007379	0.123688
C88	C	1.281385	-0.880361	-0.502191
C89	C	1.614719	-0.547027	-0.168858
C90	C	1.948052	-0.213694	0.164475
C91	C	1.225587	-0.844692	-0.551785
C92	C	1.558921	-0.511358	-0.218452
C93	C	1.892254	-0.178025	0.114881
C94	C	1.231019	-0.749735	-0.546884
C95	C	1.564352	-0.416402	-0.213550
C96	C	1.897685	-0.083068	0.119783
C97	C	1.275955	-0.975326	-0.507092
C98	C	1.609289	-0.641992	-0.173758
C99	C	1.942622	-0.308659	0.159575
C100	C	1.488619	-0.351138	-0.539949
C101	C	1.821952	-0.017804	-0.206616
C102	C	2.155286	0.315529	0.126718
C103	C	1.588854	-0.346101	-0.545476
C104	C	1.922188	-0.012768	-0.212143
C105	C	2.255521	0.320565	0.121191
C106	C	1.239151	-0.376190	-0.762183
C107	C	1.572484	-0.042856	-0.428849
C108	C	1.905817	0.290477	-0.095516
C109	C	1.233077	-0.381829	-0.862413
C110	C	1.566411	-0.048496	-0.529079
C111	C	1.899744	0.284838	-0.195746
C112	C	1.266179	-0.144223	-0.515775
C113	C	1.599513	0.189110	-0.182442
C114	C	1.932846	0.522443	0.150891
C115	C	1.271624	-0.051013	-0.511001
C116	C	1.604957	0.282321	-0.177667
C117	C	1.938290	0.615654	0.155666
C118	C	1.343273	-0.279350	-1.051622
C119	C	1.676606	0.053983	-0.718288
C120	C	2.009940	0.387316	-0.384955
C121	C	1.337569	-0.284646	-1.145797
C122	C	1.670903	0.048687	-0.812463
C123	C	2.004236	0.382021	-0.479130
C124	C	1.215963	-0.397712	-1.144938
C125	C	1.549296	-0.064379	-0.811605
C126	C	1.882630	0.268955	-0.478272
C127	C	1.221666	-0.392416	-1.050763
C128	C	1.555000	-0.059083	-0.717430
C129	C	1.888333	0.274251	-0.384097
C130	C	1.285324	-0.333234	-1.004109
C131	C	1.618658	0.000099	-0.670775
C132	C	1.951991	0.333433	-0.337442
C133	C	1.291032	-0.327943	-0.909932
C134	C	1.624365	0.005390	-0.576599
C135	C	1.957698	0.338724	-0.243266
C136	C	1.169422	-0.441004	-0.909075
C137	C	1.502755	-0.107671	-0.575742
C138	C	1.836088	0.225662	-0.242409
C139	C	1.163718	-0.446300	-1.003250
C140	C	1.497051	-0.112967	-0.669917
C141	C	1.830385	0.220367	-0.336584
C142	C	1.267655	-0.349710	-0.292690
C143	C	1.600989	-0.016377	0.040643
C144	C	1.934322	0.316957	0.373977
C145	C	1.273917	-0.343826	-0.192458
C146	C	1.607251	-0.010492	0.140875
C147	C	1.940584	0.322841	0.474208
H148	H	0.909439	-0.288965	-0.607890
H149	H	1.242772	0.044368	-0.274557
H150	H	1.576106	0.377701	0.058776
Br151	Br	1.139165	-0.912652	-0.628687
Br152	Br	1.472499	-0.579318	-0.295354
Br153	Br	1.805832	-0.245985	0.037979
H154	H	1.384755	-0.240766	-1.184478
H155	H	1.718088	0.092567	-0.851145
H156	H	2.051421	0.425901	-0.517811
H157	H	1.333231	-0.839588	-0.456053
H158	H	1.666564	-0.506255	-0.122720
H159	H	1.999897	-0.172921	0.210613
H160	H	1.342867	-0.279755	-0.871948
H161	H	1.676200	0.053578	-0.538614
H162	H	2.009533	0.386912	-0.205281
H163	H	1.122238	-0.484883	-0.870381
H164	H	1.455571	-0.151549	-0.537047
H165	H	1.788905	0.181784	-0.203714
Br166	Br	1.429675	-0.199046	-0.988301
Br167	Br	1.763008	0.134287	-0.654968
Br168	Br	2.096342	0.467620	-0.321634
H169	H	1.164135	-0.445895	-1.182941
H170	H	1.497469	-0.112561	-0.849608
H171	H	1.830802	0.220772	-0.516274
Br172	Br	1.077327	-0.526612	-1.066575
Br173	Br	1.410660	-0.193278	-0.733242
Br174	Br	1.743993	0.140055	-0.399909
H175	H	0.767802	-0.245787	-0.655146
H176	H	1.101135	0.087547	-0.321812
H177	H	1.434468	0.420880	0.011521
Br178	Br	0.571178	-0.228374	-0.674220
Br179	Br	0.904511	0.104959	-0.340886
Br180	Br	1.237845	0.438292	-0.007553
Br181	Br	0.572898	-0.465502	-0.414863
Br182	Br	0.906232	-0.132168	-0.081530
Br183	Br	1.239565	0.201165	0.251804
H184	H	0.910785	-0.471490	-0.408274
H185	H	1.244118	-0.138157	-0.074941
H186	H	1.577452	0.195176	0.258393
Br187	Br	0.714543	-0.508691	-0.367613
Br188	Br	1.047876	-0.175357	-0.034280
Br189	Br	1.381209	0.157976	0.299053
