data_functionalizedCrystal
_audit_creation_method	'MofGen! by Chris Wilmer'
_symmetry_space_group_name_H-M	'P1'
_symmetry_Int_Tables_number	1
_symmetry_cell_setting	triclinic
loop_
_symmetry_equiv_pos_as_xyz
  x,y,z
_cell_length_a	12.645331
_cell_length_b	12.645330
_cell_length_c	12.759393
_cell_angle_alpha	90.028974
_cell_angle_beta	90.022936
_cell_angle_gamma	90.016671
loop_
_atom_site_label
_atom_site_type_symbol
_atom_site_fract_x
_atom_site_fract_y
_atom_site_fract_z
Zn1	Zn	1.620734	-0.422017	0.594087
Zn2	Zn	1.620615	-0.599318	0.418412
Zn3	Zn	1.443448	-0.422065	0.418416
Zn4	Zn	1.443430	-0.599236	0.594043
O5	O	1.532057	-0.510659	0.506240
O6	O	1.769065	-0.445550	0.570800
O7	O	1.597071	-0.575859	0.271391
O8	O	1.467022	-0.273712	0.441740
O9	O	1.768978	-0.575812	0.441732
O10	O	1.597274	-0.273676	0.570804
O11	O	1.466907	-0.445633	0.271395
O12	O	1.295098	-0.445553	0.441697
O13	O	1.466993	-0.575673	0.741070
O14	O	1.295085	-0.575720	0.570729
O15	O	1.597257	-0.445471	0.741102
O16	O	1.597054	-0.747654	0.441690
O17	O	1.466877	-0.747594	0.570725
C18	C	1.256627	-0.510634	0.506209
C19	C	1.138797	-0.510648	0.506221
C20	C	0.971206	-0.428384	0.425495
C21	C	1.093765	-0.428597	0.425139
C22	C	1.094277	-0.622325	0.475979
C23	C	0.971678	-0.621875	0.475428
C24	C	0.971648	-0.482299	0.617501
C25	C	1.094254	-0.479805	0.616883
C26	C	1.531979	-0.786089	0.506225
C27	C	1.532043	-0.903919	0.506254
C28	C	1.450487	-1.071489	0.587680
C29	C	1.450070	-0.948929	0.587418
C30	C	1.501797	-0.948520	0.395531
C31	C	1.501300	-1.071119	0.396025
C32	C	1.644344	-1.071008	0.534653
C33	C	1.643656	-0.948401	0.537074
C34	C	1.808562	-0.510685	0.506271
C35	C	1.926392	-0.510696	0.506284
C36	C	1.532136	-0.510557	0.780273
C37	C	1.532170	-0.510514	0.897050
C38	C	1.532163	-0.234154	0.506277
C39	C	1.532209	-0.116324	0.506293
C40	C	1.532039	-0.510684	0.233272
C41	C	1.532210	-0.510429	0.116496
C42	C	1.600003	-0.442707	0.951930
C43	C	1.600021	-0.442661	1.061655
C44	C	1.464369	-0.578238	1.061608
C45	C	1.464347	-0.578278	0.951886
C46	C	1.637979	-0.317588	1.211631
C47	C	1.705830	-0.249791	1.266515
C48	C	1.809268	-0.233539	1.230927
C49	C	1.844877	-0.285101	1.140456
C50	C	1.777033	-0.352906	1.085577
C51	C	1.673579	-0.369138	1.121164
C52	C	1.426400	-0.703352	0.801908
C53	C	1.358560	-0.771164	0.747027
C54	C	1.255120	-0.787426	0.782613
C55	C	1.219514	-0.735883	0.873087
C56	C	1.287354	-0.668071	0.927968
C57	C	1.390793	-0.651808	0.892374
H58	H	1.123043	-0.447366	0.342722
H59	H	1.707750	-0.917756	0.482113
H60	H	0.942669	-0.542252	0.677696
H61	H	1.705229	-1.100001	0.475375
H62	H	1.553749	-0.330806	1.240610
H63	H	1.123358	-0.397624	0.639687
O64	O	1.341052	-1.112402	0.563104
H65	H	1.341019	-1.200079	0.567160
O66	O	1.680892	-1.111847	0.639787
H67	H	1.694102	-1.044196	0.693690
O68	O	0.932176	-0.318357	0.450328
H69	H	0.964851	-0.261757	0.392289
O70	O	1.673143	-0.369615	0.892780
H71	H	1.720307	-0.322450	0.949381
H72	H	1.510627	-0.690109	0.772919
O73	O	1.882441	-0.160400	1.290114
H74	H	1.892831	-0.190003	1.371346
H75	H	0.940357	-0.446945	0.343563
H76	H	1.124912	-0.535383	0.680297
O77	O	1.394348	-0.907979	0.363126
H78	H	1.340093	-0.975850	0.350668
H79	H	1.468993	-0.918770	0.669519
H80	H	1.123866	-0.345785	0.444094
H81	H	1.387563	-0.813143	0.673365
O82	O	1.391227	-0.651330	1.120756
H83	H	1.308030	-0.633136	1.099689
O84	O	1.956453	-0.267581	1.102081
H85	H	1.999287	-0.344173	1.100888
H86	H	1.258355	-0.626103	1.001637
O87	O	0.933719	-0.653756	0.367730
H88	H	1.002928	-0.669344	0.316530
H89	H	1.676827	-0.207809	1.340176
H90	H	1.135286	-0.749128	0.902065
H91	H	0.942034	-0.685281	0.531706
O92	O	1.474930	-1.110949	0.696697
H93	H	1.545635	-1.162872	0.694056
H94	H	1.123446	-0.685293	0.532975
H95	H	1.366937	-0.919695	0.568630
H96	H	1.419327	-1.099810	0.372001
O97	O	1.181942	-0.860565	0.723423
H98	H	1.224073	-0.893678	0.654530
O99	O	1.134867	-0.654787	0.369437
H100	H	1.108967	-0.596119	0.310068
O101	O	0.930737	-0.376310	0.653939
H102	H	0.877685	-0.342686	0.593178
O103	O	1.576708	-1.110435	0.312962
H104	H	1.550952	-1.080987	0.235097
O105	O	1.578130	-0.909907	0.312999
H106	H	1.638575	-0.858389	0.350112
O107	O	1.815418	-0.408512	0.987998
H108	H	1.898746	-0.385820	0.972465
O109	O	1.673894	-0.909767	0.645001
H110	H	1.609708	-0.859091	0.676569
