data_functionalizedCrystal
_audit_creation_method	'MofGen! by Chris Wilmer'
_symmetry_space_group_name_H-M	'P1'
_symmetry_Int_Tables_number	1
_symmetry_cell_setting	triclinic
loop_
_symmetry_equiv_pos_as_xyz
  x,y,z
_cell_length_a	6.817900
_cell_length_b	15.866870
_cell_length_c	19.453114
_cell_angle_alpha	113.120776
_cell_angle_beta	101.709288
_cell_angle_gamma	102.655915
loop_
_atom_site_label
_atom_site_type_symbol
_atom_site_fract_x
_atom_site_fract_y
_atom_site_fract_z
V1	V	-4.029387	-0.133791	-0.253639
O2	O	-3.993831	0.005401	-0.213432
O3	O	-4.003025	-0.264297	-0.285930
O4	O	-3.972031	-0.132185	-0.348736
O5	O	-4.025040	-0.127626	-0.150191
V6	V	-4.511320	-0.117089	-0.237132
O7	O	-4.294133	-0.170429	-0.289848
O8	O	-4.696770	-0.080451	-0.200924
O9	O	-4.314475	0.013416	-0.204841
O10	O	-4.664273	-0.256281	-0.277340
O11	O	-4.633063	-0.123255	-0.340580
O12	O	-4.345469	-0.118696	-0.142035
C13	C	-3.853677	-0.296097	-0.290709
C14	C	-3.913350	-0.402790	-0.317745
C15	C	-3.925870	-0.683731	-0.066963
C16	C	-3.981949	-0.783990	-0.092391
C17	C	-4.055444	-0.811962	-0.228274
C18	C	-3.999360	-0.711703	-0.202857
C19	C	-3.934578	-0.647595	-0.122201
C20	C	-4.008067	-0.675567	-0.258095
C21	C	-3.951998	-0.575317	-0.232680
C22	C	-3.887222	-0.511204	-0.152027
C23	C	-3.878509	-0.547345	-0.096786
C24	C	-4.072864	-0.739677	-0.338752
C25	C	-4.081572	-0.703541	-0.393990
C26	C	-4.025488	-0.603289	-0.368575
C27	C	-3.960711	-0.539176	-0.287922
C28	C	-4.034201	-0.567148	-0.423817
C29	C	-3.978132	-0.466898	-0.398402
C30	C	-3.904642	-0.438926	-0.262507
C31	C	-3.814139	-0.127574	-0.370823
C32	C	-3.848674	-0.127123	-0.448788
C33	C	-4.047493	-0.131729	-0.490238
C34	C	-4.079942	-0.131307	-0.563495
C35	C	-3.913572	-0.126297	-0.595307
C36	C	-3.714721	-0.121685	-0.553846
C37	C	-3.682272	-0.122098	-0.480587
N38	N	-3.862388	-0.176983	-0.727220
N39	N	-3.893227	-0.176593	-0.796814
C40	C	-4.011328	-0.125049	-0.816032
N41	N	-4.097462	-0.073924	-0.763033
N42	N	-4.066628	-0.074318	-0.693434
C43	C	-3.948737	-0.125848	-0.674744
C44	C	-4.245344	-0.129196	-0.936916
C45	C	-4.277783	-0.128767	-1.010172
C46	C	-3.912561	-0.119154	-1.000525
C47	C	-3.880122	-0.119574	-0.927266
C48	C	-4.046524	-0.124599	-0.895468
C49	C	-4.127166	0.045212	-0.200062
C50	C	-4.046731	0.151903	-0.173030
C51	C	-4.166704	-0.123310	-0.119946
C52	C	-4.111407	-0.123755	-0.041978
H53	H	-4.118518	-0.821306	-0.359442
O54	O	-3.815203	-0.485019	-0.018433
C55	C	-3.535733	-0.350898	0.093659
C56	C	-3.607128	-0.421431	0.004929
H57	H	-3.367515	-0.299456	0.112571
H58	H	-3.538964	-0.393897	0.128816
H59	H	-3.647950	-0.307080	0.105266
H60	H	-3.494974	-0.465266	-0.006752
H61	H	-3.603954	-0.378376	-0.030182
H62	H	-4.108204	-0.864172	-0.293945
H63	H	-4.439685	-0.132510	-1.043917
O64	O	-4.097100	-0.629559	-0.502131
C65	C	-4.216206	-0.796402	-0.601513
C66	C	-4.144963	-0.725830	-0.512797
H67	H	-4.254965	-0.874253	-0.610166
H68	H	-4.083112	-0.779903	-0.626387
H69	H	-4.363440	-0.787291	-0.633671
H70	H	-3.997775	-0.734902	-0.480573
H71	H	-4.278183	-0.742349	-0.487983
O72	O	-3.986614	-0.431949	-0.452159
C73	C	-4.065547	-0.470267	-0.589632
C74	C	-4.055975	-0.509976	-0.528833
H75	H	-4.121665	-0.533333	-0.651637
H76	H	-3.900938	-0.420299	-0.577519
H77	H	-4.181274	-0.427764	-0.584746
H78	H	-3.940344	-0.552523	-0.533684
H79	H	-4.220660	-0.559893	-0.540965
H80	H	-3.718229	-0.115833	-0.893521
H81	H	-3.873086	-0.631529	-0.001283
H82	H	-4.134332	-0.755751	-0.459661
H83	H	-4.182992	-0.135818	-0.464351
O84	O	-4.273238	-0.135974	-0.603816
C85	C	-4.646721	-0.227666	-0.665632
C86	C	-4.427937	-0.222504	-0.619984
H87	H	-4.771861	-0.297610	-0.678703
H88	H	-4.641469	-0.226582	-0.723490
H89	H	-4.688820	-0.162582	-0.628442
H90	H	-4.385704	-0.287574	-0.657109
H91	H	-4.433304	-0.223542	-0.562121
O92	O	-3.553192	-0.116694	-0.584778
C93	C	-3.326380	-0.027039	-0.630683
C94	C	-3.509372	-0.032591	-0.595674
H95	H	-3.290865	0.040963	-0.639487
H96	H	-3.373938	-0.094075	-0.689946
H97	H	-3.178752	-0.023866	-0.588476
H98	H	-3.657071	-0.035733	-0.637821
H99	H	-3.461636	0.034443	-0.536398
H100	H	-3.520362	-0.118340	-0.446835
O101	O	-3.833073	-0.413846	-0.127437
C102	C	-3.946372	-0.282308	-0.132739
C103	C	-4.007960	-0.392583	-0.160663
H104	H	-4.087746	-0.265079	-0.159577
H105	H	-3.807312	-0.257477	-0.152310
H106	H	-3.898489	-0.242718	-0.065602
H107	H	-4.055946	-0.432251	-0.227797
H108	H	-4.146948	-0.417339	-0.141033
H109	H	-3.974847	-0.813405	-0.047403
H110	H	-4.380837	-0.133284	-0.911023
O111	O	-3.751021	-0.114159	-1.031448
C112	C	-3.524188	-0.024495	-1.077340
C113	C	-3.707190	-0.030052	-1.042337
H114	H	-3.488663	0.043511	-1.086139
H115	H	-3.571740	-0.091527	-1.136606
H116	H	-3.376567	-0.021326	-1.035133
H117	H	-3.854882	-0.033189	-1.084484
H118	H	-3.659460	0.036979	-0.983059
H119	H	-3.851858	-0.386724	-0.196828
