data_functionalizedCrystal
_audit_creation_method	'MofGen! by Chris Wilmer'
_symmetry_space_group_name_H-M	'P1'
_symmetry_Int_Tables_number	1
_symmetry_cell_setting	triclinic
loop_
_symmetry_equiv_pos_as_xyz
  x,y,z
_cell_length_a	16.109301
_cell_length_b	17.699083
_cell_length_c	15.186229
_cell_angle_alpha	90.001174
_cell_angle_beta	90.003248
_cell_angle_gamma	83.372299
loop_
_atom_site_label
_atom_site_type_symbol
_atom_site_fract_x
_atom_site_fract_y
_atom_site_fract_z
O1	O	1.102966	0.097281	0.073182
O2	O	1.602966	0.597281	0.573182
O3	O	0.860883	0.109388	0.073195
O4	O	1.360883	0.609388	0.573195
O5	O	0.988764	-0.006845	0.073180
O6	O	1.488764	0.493155	0.573180
O7	O	0.975085	0.213514	0.073196
O8	O	1.475085	0.713514	0.573196
O9	O	0.988749	-0.006838	-0.073277
O10	O	1.488749	0.493162	0.426723
O11	O	0.860868	0.109395	-0.073263
O12	O	1.360868	0.609395	0.426737
O13	O	1.102951	0.097288	-0.073275
O14	O	1.602951	0.597288	0.426725
Zn15	Zn	0.981907	0.103342	-0.096522
Zn16	Zn	1.481907	0.603342	0.403478
Zn17	Zn	0.981927	0.103334	0.096441
Zn18	Zn	1.481927	0.603334	0.596441
O19	O	0.975070	0.213521	-0.073261
O20	O	1.475070	0.713521	0.426739
C21	C	0.829902	0.108901	-0.000033
C22	C	1.329902	0.608901	0.499967
C23	C	0.737609	0.107431	-0.000028
C24	C	1.237609	0.607431	0.499972
C25	C	0.428500	0.171594	-0.000039
C26	C	0.928500	0.671594	0.499961
C27	C	0.515218	0.172983	-0.000033
C28	C	1.015218	0.672983	0.499967
C29	C	0.535329	0.035076	-0.000032
C30	C	1.035329	0.535076	0.499968
C31	C	0.448613	0.033689	-0.000031
C32	C	0.948613	0.533689	0.499969
C33	C	0.395200	0.101950	-0.000039
C34	C	0.895200	0.601950	0.499961
C35	C	0.568634	0.104726	-0.000034
C36	C	1.068634	0.604726	0.499966
C37	C	0.662658	0.106231	-0.000029
C38	C	1.162658	0.606231	0.499971
C39	C	0.301171	0.100445	-0.000043
C40	C	0.801171	0.600445	0.499957
C41	C	0.988267	-0.035039	-0.000049
C42	C	1.488267	0.464961	0.499951
C43	C	0.986796	-0.119059	-0.000049
C44	C	1.486796	0.380941	0.499951
C45	C	1.061859	-0.167573	-0.000054
C46	C	1.561859	0.332427	0.499946
C47	C	1.060473	-0.246518	-0.000046
C48	C	1.560473	0.253482	0.499954
C49	C	0.984022	-0.276948	-0.000039
C50	C	1.484022	0.223052	0.499961
C51	C	0.908953	-0.228428	-0.000032
C52	C	1.408953	0.271572	0.499968
C53	C	0.910340	-0.149485	-0.000033
C54	C	1.410340	0.350515	0.499967
C55	C	0.903356	-0.546799	-0.000024
C56	C	1.403356	-0.046799	0.499976
C57	C	0.901974	-0.625749	-0.000025
C58	C	1.401974	-0.125749	0.499975
C59	C	1.053488	-0.643833	-0.000037
C60	C	1.553488	-0.143833	0.499963
C61	C	1.054876	-0.564889	-0.000039
C62	C	1.554876	-0.064889	0.499961
C63	C	0.979807	-0.516376	-0.000026
C64	C	1.479807	-0.016376	0.499974
C65	C	0.981312	-0.430775	-0.000033
C66	C	1.481312	0.069225	0.499967
C67	C	0.982517	-0.362548	-0.000039
C68	C	1.482517	0.137452	0.499961
C69	C	1.133933	0.097775	-0.000046
C70	C	1.633933	0.597775	0.499954
C71	C	1.226225	0.099245	-0.000045
C72	C	1.726225	0.599245	0.499955
C73	C	0.975568	0.241715	-0.000030
C74	C	1.475568	0.741715	0.499970
C75	C	0.977038	0.325735	-0.000024
C76	C	1.477038	0.825735	0.499976
N77	N	0.981900	0.103348	-0.228215
N78	N	1.481900	0.603348	0.271785
C79	C	1.032245	0.149255	-0.453937
C80	C	1.532245	0.649255	0.046063
C81	C	1.032254	0.149249	-0.546127
C82	C	1.532254	0.649249	-0.046127
C83	C	0.931594	0.057410	-0.546137
C84	C	1.431594	0.557410	-0.046137
C85	C	0.931590	0.057412	-0.453949
C86	C	1.431590	0.557412	0.046051
C87	C	0.981914	0.103339	-0.407852
C88	C	1.481914	0.603339	0.092148
C89	C	0.981927	0.103331	-0.592229
C90	C	1.481927	0.603331	-0.092229
C91	C	0.981937	0.103325	-0.692185
C92	C	1.481937	0.603325	-0.192185
C93	C	0.981906	0.103344	-0.307889
C94	C	1.481906	0.603344	0.192111
N95	N	0.981941	0.103322	0.228134
N96	N	1.481941	0.603322	0.728134
H97	H	1.124115	-0.142804	-0.000065
H98	H	1.624115	0.357196	0.499935
H99	H	1.114613	-0.683342	-0.000043
H100	H	1.614613	-0.183342	0.499957
H101	H	0.421500	-0.023028	-0.000028
H102	H	0.921500	0.476972	0.499972
H103	H	0.839715	-0.650522	-0.000022
H104	H	1.339715	-0.150522	0.499978
H105	H	0.385014	0.227177	-0.000044
H106	H	0.885014	0.727177	0.499956
N107	N	0.877305	0.007880	-0.404241
N108	N	1.377305	0.507880	0.095759
H109	H	0.816785	0.022792	-0.420286
H110	H	1.316785	0.522792	0.079714
H111	H	0.885011	0.014867	-0.338862
H112	H	1.385011	0.514867	0.161138
H113	H	0.542326	0.229694	-0.000033
H114	H	1.042326	0.729694	0.499967
N115	N	1.141434	-0.298845	-0.000057
N116	N	1.641434	0.201155	0.499943
H117	H	1.190075	-0.267589	-0.000069
H118	H	1.690075	0.232411	0.499931
H119	H	1.144145	-0.331993	-0.054351
H120	H	1.644145	0.168007	0.445649
N121	N	0.592938	-0.038545	-0.000029
N122	N	1.092938	0.461455	0.499971
H123	H	0.652926	-0.027100	-0.000034
H124	H	1.152926	0.472900	0.499966
H125	H	0.582164	-0.068896	-0.054323
H126	H	1.082164	0.431104	0.445677
N127	N	1.086532	0.198781	-0.595831
N128	N	1.586532	0.698781	-0.095831
H129	H	1.078902	0.191812	-0.661227
H130	H	1.578902	0.691812	-0.161227
H131	H	1.147026	0.183847	-0.579708
H132	H	1.647026	0.683847	-0.079708
N133	N	1.137333	-0.532068	-0.000053
N134	N	1.637333	-0.032068	0.499947
H135	H	1.184676	-0.574782	-0.000054
H136	H	1.684676	-0.074782	0.499946
H137	H	1.141213	-0.499706	0.054239
H138	H	1.641213	0.000294	0.554239
H139	H	0.842230	-0.507309	-0.000014
H140	H	1.342230	-0.007309	0.499986
H141	H	0.846705	-0.253211	-0.000021
H142	H	1.346705	0.246789	0.499979
H143	H	0.849216	-0.109985	-0.000029
H144	H	1.349216	0.390015	0.499971
H145	H	1.073222	0.186651	-0.416407
H146	H	1.573222	0.686651	0.083593
H147	H	0.890622	0.020019	-0.583681
H148	H	1.390622	0.520019	-0.083681
