data_functionalizedCrystal
_audit_creation_method	'MofGen! by Chris Wilmer'
_symmetry_space_group_name_H-M	'P1'
_symmetry_Int_Tables_number	1
_symmetry_cell_setting	triclinic
loop_
_symmetry_equiv_pos_as_xyz
  x,y,z
_cell_length_a	14.908558
_cell_length_b	16.625539
_cell_length_c	16.625546
_cell_angle_alpha	89.969603
_cell_angle_beta	86.717541
_cell_angle_gamma	86.687248
loop_
_atom_site_label
_atom_site_type_symbol
_atom_site_fract_x
_atom_site_fract_y
_atom_site_fract_z
Zn1	Zn	1.379215	-0.526886	-0.392262
Zn2	Zn	1.379106	-0.392043	-0.527099
Zn3	Zn	1.228348	-0.384301	-0.384495
Zn4	Zn	1.228314	-0.519071	-0.519259
O5	O	1.303746	-0.455575	-0.455779
O6	O	1.505445	-0.515509	-0.416680
O7	O	1.359076	-0.278182	-0.508213
O8	O	1.248420	-0.403246	-0.272696
O9	O	1.505366	-0.416440	-0.515744
O10	O	1.359261	-0.508003	-0.278402
O11	O	1.248315	-0.272494	-0.403442
O12	O	1.102098	-0.395669	-0.395840
O13	O	1.248363	-0.632942	-0.502382
O14	O	1.102074	-0.494684	-0.494851
O15	O	1.359229	-0.638683	-0.409078
O16	O	1.359044	-0.408863	-0.638889
O17	O	1.248258	-0.502190	-0.633129
C18	C	1.069352	-0.443489	-0.443653
C19	C	0.969077	-0.438337	-0.438484
C20	C	0.827731	-0.379609	-0.379575
C21	C	0.921948	-0.384446	-0.384427
C22	C	0.921983	-0.487396	-0.487692
C23	C	0.827765	-0.482559	-0.482840
C24	C	0.780643	-0.428663	-0.428781
C25	C	0.686424	-0.423822	-0.423933
C26	C	0.686461	-0.526775	-0.527194
C27	C	0.780678	-0.531612	-0.532046
C28	C	1.303804	-0.665887	-0.455722
C29	C	1.303829	-0.755510	-0.455698
C30	C	1.303871	-1.083688	-0.455609
C31	C	1.303857	-0.992379	-0.455636
C32	C	1.303851	-0.919602	-0.455654
C33	C	1.303836	-0.828287	-0.455680
C34	C	1.539055	-0.467710	-0.467953
C35	C	1.639330	-0.472881	-0.473141
C36	C	1.303660	-0.455537	-0.665265
C37	C	1.303706	-0.455552	-0.754889
C38	C	1.303739	-0.246084	-0.455780
C39	C	1.303889	-0.156471	-0.455586
C40	C	1.303864	-0.455644	-1.083072
C41	C	1.303817	-0.455621	-0.991762
C42	C	1.303784	-0.455598	-0.918983
C43	C	1.303739	-0.455575	-0.827667
C44	C	1.303856	-0.455633	-0.245476
C45	C	1.303903	-0.455657	-0.155857
H46	H	0.819058	-0.575495	-0.576057
Cl47	Cl	0.768488	-0.311845	-0.311628
Cl48	Cl	0.627259	-0.588452	-0.589050
H49	H	0.648058	-0.379937	-0.379915
H50	H	0.960366	-0.531279	-0.531700
Cl51	Cl	0.981141	-0.322778	-0.322564
