data_functionalizedCrystal
_audit_creation_method	'MofGen! by Chris Wilmer'
_symmetry_space_group_name_H-M	'P1'
_symmetry_Int_Tables_number	1
_symmetry_cell_setting	triclinic
loop_
_symmetry_equiv_pos_as_xyz
  x,y,z
_cell_length_a	14.519709
_cell_length_b	15.500227
_cell_length_c	14.519731
_cell_angle_alpha	92.832636
_cell_angle_beta	83.684499
_cell_angle_gamma	87.156413
loop_
_atom_site_label
_atom_site_type_symbol
_atom_site_fract_x
_atom_site_fract_y
_atom_site_fract_z
O1	O	-1.228152	0.071822	-0.116623
O2	O	-0.894819	0.405156	0.216710
O3	O	-0.561485	0.738489	0.550044
O4	O	-0.959678	0.071851	-0.130858
O5	O	-0.626345	0.405185	0.202476
O6	O	-0.293011	0.738518	0.535809
O7	O	-1.101022	0.071828	0.010496
O8	O	-0.767689	0.405162	0.343830
O9	O	-0.434356	0.738495	0.677163
O10	O	-1.086807	0.071846	-0.257977
O11	O	-0.753474	0.405179	0.075356
O12	O	-0.420141	0.738512	0.408690
O13	O	-1.092445	-0.072059	0.001952
O14	O	-0.759112	0.261274	0.335286
O15	O	-0.425779	0.594608	0.668619
O16	O	-0.951101	-0.072036	-0.139402
O17	O	-0.617767	0.261297	0.193932
O18	O	-0.284434	0.594631	0.527265
O19	O	-1.219575	-0.072065	-0.125167
O20	O	-0.886241	0.261268	0.208166
O21	O	-0.552908	0.594602	0.541500
Cu22	Cu	-1.084555	-0.085188	-0.133064
Cu23	Cu	-0.751221	0.248145	0.200269
Cu24	Cu	-0.417888	0.581478	0.533602
Cu25	Cu	-1.094698	0.084975	-0.122960
Cu26	Cu	-0.761365	0.418308	0.210373
Cu27	Cu	-0.428031	0.751642	0.543706
O28	O	-1.078230	-0.072042	-0.266521
O29	O	-0.744897	0.261292	0.066812
O30	O	-0.411564	0.594625	0.400146
C31	C	-0.921030	-0.000089	-0.134466
C32	C	-0.587696	0.333245	0.198867
C33	C	-0.254363	0.666578	0.532201
C34	C	-0.818649	-0.000078	-0.132477
C35	C	-0.485316	0.333256	0.200856
C36	C	-0.151982	0.666589	0.534189
C37	C	-0.443750	-0.000114	-0.125160
C38	C	-0.110417	0.333219	0.208173
C39	C	0.222916	0.666552	0.541507
C40	C	-0.548059	-0.000104	-0.127192
C41	C	-0.214726	0.333229	0.206141
C42	C	0.118608	0.666563	0.539475
C43	C	-0.631196	-0.000095	-0.128818
C44	C	-0.297863	0.333238	0.204515
C45	C	0.035470	0.666571	0.537848
C46	C	-0.735512	-0.000086	-0.130851
C47	C	-0.402178	0.333247	0.202483
C48	C	-0.068845	0.666580	0.535816
N49	N	-1.077427	-0.204872	-0.140171
N50	N	-0.744094	0.128461	0.193163
N51	N	-0.410760	0.461794	0.526496
C52	C	-1.137340	-0.250159	-0.080296
C53	C	-0.804007	0.083175	0.253037
C54	C	-0.470674	0.416508	0.586370
C55	C	-1.131958	-0.340731	-0.085679
C56	C	-0.798625	-0.007397	0.247654
C57	C	-0.465292	0.325936	0.580988
C58	C	-1.066667	-0.386014	-0.150942
C59	C	-0.733333	-0.052681	0.182392
C60	C	-0.400000	0.280652	0.515725
C61	C	-1.006747	-0.340722	-0.210819
C62	C	-0.673413	-0.007388	0.122515
C63	C	-0.340080	0.325945	0.455848
C64	C	-1.012125	-0.250151	-0.205431
C65	C	-0.678792	0.083182	0.127903
C66	C	-0.345458	0.416515	0.461236
C67	C	-1.047292	-0.659478	-0.170336
C68	C	-0.713958	-0.326145	0.162997
C69	C	-0.380625	0.007188	0.496331
C70	C	-1.041920	-0.750055	-0.175721
C71	C	-0.708586	-0.416722	0.157612
C72	C	-0.375253	-0.083388	0.490945
C73	C	-1.167131	-0.750058	-0.050580
C74	C	-0.833797	-0.416724	0.282754
C75	C	-0.500464	-0.083391	0.616087
C76	C	-1.172507	-0.659485	-0.045201
C77	C	-0.839174	-0.326152	0.288132
C78	C	-0.505840	0.007181	0.621465
C79	C	-1.112584	-0.614201	-0.105075
C80	C	-0.779251	-0.280867	0.228258
C81	C	-0.445917	0.052466	0.561591
C82	C	-1.061166	-0.478594	-0.156447
C83	C	-0.727832	-0.145260	0.176886
C84	C	-0.394499	0.188073	0.510219
C85	C	-1.118081	-0.521623	-0.099564
C86	C	-0.784748	-0.188290	0.233769
C87	C	-0.451414	0.145043	0.567102
C88	C	-0.258223	-0.000121	-0.121558
C89	C	0.075110	0.333213	0.211775
C90	C	0.408443	0.666546	0.545108
C91	C	-0.360605	-0.000120	-0.123547
C92	C	-0.027271	0.333214	0.209787
C93	C	0.306062	0.666547	0.543120
C94	C	-1.096068	-0.000116	0.040584
C95	C	-0.762734	0.333218	0.373917
C96	C	-0.429401	0.666551	0.707250
C97	C	-1.094072	-0.000116	0.142964
C98	C	-0.760738	0.333217	0.476297
C99	C	-0.427405	0.666551	0.809631
N100	N	-1.101833	0.204659	-0.115847
N101	N	-0.768500	0.537992	0.217487
N102	N	-0.435166	0.871325	0.550820
C103	C	-1.083185	-0.000096	-0.296608
C104	C	-0.749852	0.333237	0.036725
C105	C	-0.416518	0.666571	0.370058
C106	C	-1.085181	-0.000090	-0.398988
C107	C	-0.751848	0.333243	-0.065655
C108	C	-0.418515	0.666577	0.267679
C109	C	-1.092450	-0.000114	0.226108
C110	C	-0.759117	0.333220	0.559442
C111	C	-0.425783	0.666553	0.892775
C112	C	-1.090424	-0.000107	0.330417
C113	C	-0.757090	0.333227	0.663751
C114	C	-0.423757	0.666560	0.997084
C115	C	-1.088816	-0.000101	0.413557
C116	C	-0.755482	0.333232	0.746890
C117	C	-0.422149	0.666566	1.080223
C118	C	-1.086790	-0.000096	0.517872
C119	C	-0.753456	0.333237	0.851206
C120	C	-0.420123	0.666571	1.184539
H121	H	-1.190512	-0.213294	-0.027157
H122	H	-0.857178	0.120039	0.306177
H123	H	-0.523845	0.453372	0.639510
H124	H	-0.988748	-0.786921	-0.228870
H125	H	-0.655415	-0.453588	0.104464
H126	H	-0.322082	-0.120254	0.437797
H127	H	-0.998501	-0.622614	-0.219089
H128	H	-0.665168	-0.289281	0.114244
H129	H	-0.331835	0.044052	0.447577
H130	H	-1.180744	-0.377602	-0.036924
H131	H	-0.847411	-0.044269	0.296409
H132	H	-0.514077	0.289064	0.629743
N133	N	-1.231758	-0.798899	0.013996
N134	N	-0.898425	-0.465566	0.347329
N135	N	-0.565092	-0.132233	0.680663
H136	H	-1.218447	-0.863147	0.000683
H137	H	-0.885113	-0.529813	0.334016
H138	H	-0.551780	-0.196480	0.667350
H139	H	-1.221935	-0.783080	0.080384
H140	H	-0.888601	-0.449746	0.413718
H141	H	-0.555268	-0.116413	0.747051
H142	H	-1.171239	-0.484750	-0.046424
H143	H	-0.837905	-0.151417	0.286909
H144	H	-0.504572	0.181916	0.620242
N145	N	-0.936317	-0.389559	-0.281204
N146	N	-0.602984	-0.056225	0.052130
N147	N	-0.269650	0.277108	0.385463
H148	H	-0.942001	-0.453807	-0.275534
H149	H	-0.608668	-0.120473	0.057799
H150	H	-0.275335	0.212860	0.391132
H151	H	-0.948017	-0.373714	-0.345710
H152	H	-0.614684	-0.040380	-0.012376
H153	H	-0.281350	0.292953	0.320957
H154	H	-1.225673	-0.622617	0.007940
H155	H	-0.892339	-0.289284	0.341274
H156	H	-0.559006	0.044050	0.674607
N157	N	-0.947500	-0.201302	-0.270004
N158	N	-0.614167	0.132031	0.063329
N159	N	-0.280833	0.465365	0.396663
H160	H	-0.905322	-0.243731	-0.312166
H161	H	-0.571988	0.089603	0.021167
H162	H	-0.238655	0.422936	0.354501
H163	H	-0.985100	-0.163710	-0.308619
H164	H	-0.651767	0.169624	0.024714
H165	H	-0.318434	0.502957	0.358048
H166	H	-1.008005	-0.515471	-0.209587
H167	H	-0.674672	-0.182138	0.123746
H168	H	-0.341338	0.151196	0.457080
