data_functionalizedCrystal
_audit_creation_method	'MofGen! by Chris Wilmer'
_symmetry_space_group_name_H-M	'P1'
_symmetry_Int_Tables_number	1
_symmetry_cell_setting	triclinic
loop_
_symmetry_equiv_pos_as_xyz
  x,y,z
_cell_length_a	21.395362
_cell_length_b	19.120786
_cell_length_c	21.395355
_cell_angle_alpha	87.540705
_cell_angle_beta	89.956060
_cell_angle_gamma	92.480156
loop_
_atom_site_label
_atom_site_type_symbol
_atom_site_fract_x
_atom_site_fract_y
_atom_site_fract_z
Zn1	Zn	0.947248	-0.279415	-0.343943
Zn2	Zn	1.197248	-0.029415	-0.093943
Zn3	Zn	1.447248	0.220585	0.156057
Zn4	Zn	1.697248	0.470585	0.406057
Zn5	Zn	0.942691	-0.396855	-0.234692
Zn6	Zn	1.192691	-0.146855	0.015308
Zn7	Zn	1.442691	0.103145	0.265308
Zn8	Zn	1.692691	0.353145	0.515308
Zn9	Zn	0.842462	-0.279448	-0.239143
Zn10	Zn	1.092462	-0.029448	0.010857
Zn11	Zn	1.342462	0.220552	0.260857
Zn12	Zn	1.592462	0.470552	0.510857
Zn13	Zn	0.837972	-0.396870	-0.339397
Zn14	Zn	1.087972	-0.146870	-0.089397
Zn15	Zn	1.337972	0.103130	0.160603
Zn16	Zn	1.587972	0.353130	0.410603
O17	O	0.892593	-0.338147	-0.289294
O18	O	1.142593	-0.088147	-0.039294
O19	O	1.392593	0.161853	0.210706
O20	O	1.642593	0.411853	0.460706
O21	O	1.034322	-0.294974	-0.329491
O22	O	1.284322	-0.044974	-0.079491
O23	O	1.534322	0.205026	0.170509
O24	O	1.784322	0.455026	0.420509
O25	O	0.929367	-0.381289	-0.147605
O26	O	1.179367	-0.131289	0.102395
O27	O	1.429367	0.118711	0.352395
O28	O	1.679367	0.368711	0.602395
O29	O	0.860149	-0.181153	-0.256810
O30	O	1.110149	0.068847	-0.006810
O31	O	1.360149	0.318847	0.243190
O32	O	1.610149	0.568847	0.493190
O33	O	1.030974	-0.381257	-0.249225
O34	O	1.280974	-0.131257	0.000775
O35	O	1.530974	0.118743	0.250775
O36	O	1.780974	0.368743	0.500775
O37	O	0.937135	-0.181129	-0.333806
O38	O	1.187135	0.068871	-0.083806
O39	O	1.437135	0.318871	0.166194
O40	O	1.687135	0.568871	0.416194
O41	O	0.855729	-0.295030	-0.150874
O42	O	1.105729	-0.045030	0.099126
O43	O	1.355729	0.204970	0.349126
O44	O	1.605729	0.454970	0.599126
O45	O	0.754188	-0.295044	-0.252402
O46	O	1.004188	-0.045044	-0.002402
O47	O	1.254188	0.204956	0.247598
O48	O	1.504188	0.454956	0.497598
O49	O	0.852496	-0.381281	-0.427678
O50	O	1.102496	-0.131281	-0.177678
O51	O	1.352496	0.118719	0.072322
O52	O	1.602496	0.368719	0.322322
O53	O	0.750889	-0.381313	-0.326058
O54	O	1.000889	-0.131313	-0.076058
O55	O	1.250889	0.118687	0.173942
O56	O	1.500889	0.368687	0.423942
O57	O	0.932781	-0.294988	-0.431018
O58	O	1.182781	-0.044988	-0.181018
O59	O	1.432781	0.205012	0.068982
O60	O	1.682781	0.455012	0.318982
O61	O	0.925013	-0.495148	-0.244816
O62	O	1.175013	-0.245148	0.005184
O63	O	1.425013	0.004852	0.255184
O64	O	1.675013	0.254852	0.505184
O65	O	0.848076	-0.495159	-0.321742
O66	O	1.098076	-0.245159	-0.071742
O67	O	1.348076	0.004841	0.178258
O68	O	1.598076	0.254841	0.428258
C69	C	0.729804	-0.338184	-0.289220
C70	C	0.979804	-0.088184	-0.039220
C71	C	1.229804	0.161816	0.210780
C72	C	1.479804	0.411816	0.460780
C73	C	0.660162	-0.338217	-0.289202
C74	C	0.910162	-0.088217	-0.039202
C75	C	1.160162	0.161783	0.210798
C76	C	1.410162	0.411783	0.460798
C77	C	0.885580	-0.520639	-0.282317
C78	C	1.135580	-0.270639	-0.032317
C79	C	1.385580	-0.020639	0.217683
C80	C	1.635580	0.229361	0.467683
C81	C	0.882637	-0.598710	-0.279353
C82	C	1.132637	-0.348710	-0.029353
C83	C	1.382637	-0.098710	0.220647
C84	C	1.632637	0.151290	0.470647
C85	C	0.625745	-0.383197	-0.327493
C86	C	0.875745	-0.133197	-0.077493
C87	C	1.125745	0.116803	0.172507
C88	C	1.375745	0.366803	0.422507
C89	C	0.560310	-0.383180	-0.327521
C90	C	0.810310	-0.133180	-0.077521
C91	C	1.060310	0.116820	0.172479
C92	C	1.310310	0.366820	0.422479
C93	C	0.529294	-0.338190	-0.289248
C94	C	0.779294	-0.088190	-0.039248
C95	C	1.029294	0.161810	0.210752
C96	C	1.279294	0.411810	0.460752
C97	C	0.563719	-0.293201	-0.250955
C98	C	0.813719	-0.043201	-0.000955
C99	C	1.063719	0.206799	0.249045
C100	C	1.313719	0.456799	0.499045
C101	C	0.629153	-0.293215	-0.250932
C102	C	0.879153	-0.043215	-0.000932
C103	C	1.129153	0.206785	0.249068
C104	C	1.379153	0.456785	0.499068
C105	C	0.425784	-0.332531	-0.233058
C106	C	0.675784	-0.082531	0.016942
C107	C	0.925784	0.167469	0.266942
C108	C	1.175784	0.417469	0.516942
C109	C	0.360352	-0.332523	-0.233080
C110	C	0.610352	-0.082523	0.016920
C111	C	0.860352	0.167477	0.266920
C112	C	1.110352	0.417477	0.516920
C113	C	0.327475	-0.338144	-0.289319
C114	C	0.577475	-0.088144	-0.039319
C115	C	0.827475	0.161856	0.210681
C116	C	1.077475	0.411856	0.460681
C117	C	0.360039	-0.343789	-0.345537
C118	C	0.610039	-0.093789	-0.095537
C119	C	0.860039	0.156211	0.154463
C120	C	1.110039	0.406211	0.404463
C121	C	0.425473	-0.343802	-0.345515
C122	C	0.675473	-0.093802	-0.095515
C123	C	0.925473	0.156198	0.154485
C124	C	1.175473	0.406198	0.404485
C125	C	0.458343	-0.338170	-0.289269
C126	C	0.708343	-0.088170	-0.039269
C127	C	0.958343	0.161830	0.210731
C128	C	1.208343	0.411830	0.460731
C129	C	0.222107	-0.383108	-0.327643
C130	C	0.472107	-0.133108	-0.077643
C131	C	0.722107	0.116892	0.172357
C132	C	0.972107	0.366892	0.422357
C133	C	0.156671	-0.383086	-0.327673
C134	C	0.406671	-0.133086	-0.077673
C135	C	0.656671	0.116914	0.172327
C136	C	0.906671	0.366914	0.422327
C137	C	0.160081	-0.293111	-0.251101
C138	C	0.410081	-0.043111	-0.001101
C139	C	0.660081	0.206889	0.248899
C140	C	0.910081	0.456889	0.498899
C141	C	0.225516	-0.293129	-0.251077
C142	C	0.475516	-0.043129	-0.001077
C143	C	0.725516	0.206871	0.248923
C144	C	0.975516	0.456871	0.498923
C145	C	0.256525	-0.338131	-0.289347
C146	C	0.506525	-0.088131	-0.039347
C147	C	0.756525	0.161869	0.210653
C148	C	1.006525	0.411869	0.460653
C149	C	0.921307	-0.635315	-0.318080
C150	C	1.171307	-0.385315	-0.068080
C151	C	1.421307	-0.135315	0.181920
C152	C	1.671307	0.114685	0.431920
C153	C	0.918539	-0.708671	-0.315297
C154	C	1.168539	-0.458671	-0.065297
C155	C	1.418539	-0.208671	0.184703
C156	C	1.668539	0.041329	0.434703
C157	C	0.877104	-0.745420	-0.273781
C158	C	1.127104	-0.495420	-0.023781
C159	C	1.377104	-0.245420	0.226219
C160	C	1.627104	0.004580	0.476219
C161	C	0.838430	-0.708810	-0.235052
C162	C	1.088430	-0.458810	0.014948
C163	C	1.338430	-0.208810	0.264948
C164	C	1.588430	0.041190	0.514948
C165	C	0.841195	-0.635456	-0.237839
C166	C	1.091195	-0.385456	0.012161
C167	C	1.341195	-0.135456	0.262161
C168	C	1.591195	0.114544	0.512161
C169	C	0.866749	-0.966907	-0.263361
C170	C	1.116749	-0.716907	-0.013361
C171	C	1.366749	-0.466907	0.236639
C172	C	1.616749	-0.216907	0.486639
C173	C	0.863988	-1.040267	-0.260575
C174	C	1.113988	-0.790267	-0.010575
C175	C	1.363988	-0.540267	0.239425
C176	C	1.613988	-0.290267	0.489425
C177	C	0.944097	-1.040122	-0.340821
C178	C	1.194097	-0.790122	-0.090821
C179	C	1.444097	-0.540122	0.159179
C180	C	1.694097	-0.290122	0.409179
C181	C	0.946861	-0.966766	-0.343602
C182	C	1.196861	-0.716766	-0.093602
C183	C	1.446861	-0.466766	0.156398
C184	C	1.696861	-0.216766	0.406398
C185	C	0.908185	-0.930162	-0.304875
C186	C	1.158185	-0.680162	-0.054875
C187	C	1.408185	-0.430162	0.195125
C188	C	1.658185	-0.180162	0.445125
C189	C	0.874276	-0.820402	-0.270933
C190	C	1.124276	-0.570402	-0.020933
C191	C	1.374276	-0.320402	0.229067
C192	C	1.624276	-0.070402	0.479067
C193	C	0.911011	-0.855182	-0.307726
C194	C	1.161011	-0.605182	-0.057726
C195	C	1.411011	-0.355182	0.192274
C196	C	1.661011	-0.105182	0.442274
C197	C	1.056018	-0.338110	-0.289369
C198	C	1.306018	-0.088110	-0.039369
C199	C	1.556018	0.161890	0.210631
C200	C	1.806018	0.411890	0.460631
C201	C	1.125660	-0.338094	-0.289400
C202	C	1.375660	-0.088094	-0.039400
C203	C	1.625660	0.161906	0.210600
C204	C	1.875660	0.411906	0.460600
C205	C	0.892646	-0.338133	-0.452718
C206	C	1.142646	-0.088133	-0.202718
C207	C	1.392646	0.161867	0.047282
C208	C	1.642646	0.411867	0.297282
C209	C	0.892668	-0.338127	-0.522359
C210	C	1.142668	-0.088127	-0.272359
C211	C	1.392668	0.161873	-0.022359
C212	C	1.642668	0.411873	0.227641
C213	C	0.899651	-0.154942	-0.296312
C214	C	1.149651	0.095058	-0.046312
C215	C	1.399651	0.345058	0.203688
C216	C	1.649651	0.595058	0.453688
C217	C	0.902658	-0.076871	-0.299303
C218	C	1.152658	0.173129	-0.049303
C219	C	1.402658	0.423129	0.200697
C220	C	1.652658	0.673129	0.450697
C221	C	0.934471	-0.293192	-0.556813
C222	C	1.184471	-0.043192	-0.306813
C223	C	1.434471	0.206808	-0.056813
C224	C	1.684471	0.456808	0.193187
C225	C	0.934471	-0.293162	-0.622249
C226	C	1.184471	-0.043162	-0.372249
C227	C	1.434471	0.206838	-0.122249
C228	C	1.684471	0.456838	0.127751
C229	C	0.892675	-0.338079	-0.653229
C230	C	1.142675	-0.088079	-0.403229
C231	C	1.392675	0.161921	-0.153229
C232	C	1.642675	0.411921	0.096771
C233	C	0.850864	-0.383017	-0.618768
C234	C	1.100864	-0.133017	-0.368768
C235	C	1.350864	0.116983	-0.118768
C236	C	1.600864	0.366983	0.131232
C237	C	0.850861	-0.383041	-0.553333
C238	C	1.100861	-0.133041	-0.303333
C239	C	1.350861	0.116959	-0.053333
C240	C	1.600861	0.366959	0.196667
C241	C	0.885297	-0.401324	-0.754484
C242	C	1.135297	-0.151324	-0.504484
C243	C	1.385297	0.098676	-0.254484
C244	C	1.635297	0.348676	-0.004484
C245	C	0.885305	-0.401302	-0.819918
C246	C	1.135305	-0.151302	-0.569918
C247	C	1.385305	0.098698	-0.319918
C248	C	1.635305	0.348698	-0.069918
C249	C	0.892681	-0.338005	-0.855053
C250	C	1.142681	-0.088005	-0.605053
C251	C	1.392681	0.161995	-0.355053
C252	C	1.642681	0.411995	-0.105053
C253	C	0.900064	-0.274728	-0.824746
C254	C	1.150064	-0.024728	-0.574746
C255	C	1.400064	0.225272	-0.324746
C256	C	1.650064	0.475272	-0.074746
C257	C	0.900060	-0.274752	-0.759311
C258	C	1.150060	-0.024752	-0.509311
C259	C	1.400060	0.225248	-0.259311
C260	C	1.650060	0.475248	-0.009311
C261	C	0.892673	-0.338058	-0.724183
C262	C	1.142673	-0.088058	-0.474183
C263	C	1.392673	0.161942	-0.224183
C264	C	1.642673	0.411942	0.025817
C265	C	0.934487	-0.293033	-0.960461
C266	C	1.184487	-0.043033	-0.710461
C267	C	1.434487	0.206967	-0.460461
C268	C	1.684487	0.456967	-0.210461
C269	C	0.934483	-0.293002	-1.025898
C270	C	1.184483	-0.043002	-0.775898
C271	C	1.434483	0.206998	-0.525898
C272	C	1.684483	0.456998	-0.275898
C273	C	0.850879	-0.382863	-1.022416
C274	C	1.100879	-0.132863	-0.772416
C275	C	1.350879	0.117137	-0.522416
C276	C	1.600879	0.367137	-0.272416
C277	C	0.850880	-0.382888	-0.956979
C278	C	1.100880	-0.132888	-0.706979
C279	C	1.350880	0.117112	-0.456979
C280	C	1.600880	0.367112	-0.206979
C281	C	0.892687	-0.337974	-0.926006
C282	C	1.142687	-0.087974	-0.676006
C283	C	1.392687	0.162026	-0.426006
C284	C	1.642687	0.412026	-0.176006
C285	C	0.892579	-0.338110	-0.126508
C286	C	1.142579	-0.088110	0.123492
C287	C	1.392579	0.161890	0.373492
C288	C	1.642579	0.411890	0.623492
C289	C	0.892685	-0.337919	-0.056874
C290	C	1.142685	-0.087919	0.193126
C291	C	1.392685	0.162081	0.443126
C292	C	1.642685	0.412081	0.693126
H293	H	0.650988	-0.419840	-0.358656
H294	H	0.900988	-0.169840	-0.108656
H295	H	1.150988	0.080160	0.141344
H296	H	1.400988	0.330160	0.391344
Br297	Br	0.977548	-0.585447	-0.374420
Br298	Br	1.227548	-0.335447	-0.124420
Br299	Br	1.477548	-0.085447	0.125580
Br300	Br	1.727548	0.164553	0.375580
H301	H	0.816831	-0.419587	-0.643996
H302	H	1.066831	-0.169587	-0.393996
H303	H	1.316831	0.080413	-0.143996
H304	H	1.566831	0.330413	0.106004
Br305	Br	0.991229	-0.232024	-1.072658
Br306	Br	1.241229	0.017976	-0.822658
Br307	Br	1.491229	0.267976	-0.572658
Br308	Br	1.741229	0.517976	-0.322658
H309	H	0.816843	-0.419484	-0.928926
H310	H	1.066843	-0.169484	-0.678926
H311	H	1.316843	0.080516	-0.428926
H312	H	1.566843	0.330516	-0.178926
Br313	Br	0.818038	-0.870282	-0.214598
Br314	Br	1.068038	-0.620282	0.035402
Br315	Br	1.318038	-0.370282	0.285402
Br316	Br	1.568038	-0.120282	0.535402
Br317	Br	0.794146	-0.443815	-1.064453
Br318	Br	1.044146	-0.193815	-0.814453
Br319	Br	1.294146	0.056185	-0.564453
Br320	Br	1.544146	0.306185	-0.314453
Br321	Br	0.788710	-0.585776	-0.185281
Br322	Br	1.038710	-0.335776	0.064719
Br323	Br	1.288710	-0.085776	0.314719
Br324	Br	1.538710	0.164224	0.564719
Br325	Br	0.910081	-0.188819	-0.872421
Br326	Br	1.160081	0.061181	-0.622421
Br327	Br	1.410081	0.311181	-0.372421
Br328	Br	1.660081	0.561181	-0.122421
H329	H	0.816817	-0.419631	-0.525281
H330	H	1.066817	-0.169631	-0.275281
H331	H	1.316817	0.080369	-0.025281
H332	H	1.566817	0.330369	0.224719
Br333	Br	0.991206	-0.232234	-0.514780
Br334	Br	1.241206	0.017766	-0.264780
Br335	Br	1.491206	0.267766	-0.014780
Br336	Br	1.741206	0.517766	0.235220
Br337	Br	0.264194	-0.444178	-0.379582
Br338	Br	0.514194	-0.194178	-0.129582
Br339	Br	0.764194	0.055822	0.120418
Br340	Br	1.014194	0.305822	0.370418
Br341	Br	0.971012	-0.758346	-0.367869
Br342	Br	1.221012	-0.508346	-0.117869
Br343	Br	1.471012	-0.258346	0.132131
Br344	Br	1.721012	-0.008346	0.382131
Br345	Br	1.003097	-0.916896	-0.399945
Br346	Br	1.253097	-0.666896	-0.149945
Br347	Br	1.503097	-0.416896	0.100055
Br348	Br	1.753097	-0.166896	0.350055
Br349	Br	0.996582	-1.089802	-0.393377
Br350	Br	1.246582	-0.839802	-0.143377
Br351	Br	1.496582	-0.589802	0.106623
Br352	Br	1.746582	-0.339802	0.356623
H353	H	0.968511	-0.256566	-0.650307
H354	H	1.218511	-0.006566	-0.400307
H355	H	1.468511	0.243434	-0.150307
H356	H	1.718511	0.493434	0.099693
H357	H	0.253538	-0.256505	-0.219894
H358	H	0.503538	-0.006505	0.030106
H359	H	0.753538	0.243495	0.280106
H360	H	1.003538	0.493495	0.530106
H361	H	0.906070	-0.223231	-0.734638
H362	H	1.156070	0.026769	-0.484638
H363	H	1.406070	0.276769	-0.234638
H364	H	1.656070	0.526769	0.015362
H365	H	0.804690	-0.738737	-0.201252
H366	H	1.054690	-0.488737	0.048748
H367	H	1.304690	-0.238737	0.298748
H368	H	1.554690	0.011263	0.548748
H369	H	0.333272	-0.348365	-0.391333
H370	H	0.583272	-0.098365	-0.141333
H371	H	0.833272	0.151635	0.108667
H372	H	1.083272	0.401635	0.358667
Br373	Br	0.991222	-0.232078	-0.918421
Br374	Br	1.241222	0.017922	-0.668421
Br375	Br	1.491222	0.267922	-0.418421
Br376	Br	1.741222	0.517922	-0.168421
Br377	Br	0.470396	-0.324903	-0.156727
Br378	Br	0.720396	-0.074903	0.093273
Br379	Br	0.970396	0.175097	0.343273
Br380	Br	1.220396	0.425097	0.593273
H381	H	0.830244	-1.070186	-0.226768
H382	H	1.080244	-0.820186	0.023232
H383	H	1.330244	-0.570186	0.273232
H384	H	1.580244	-0.320186	0.523232
H385	H	0.879297	-0.452825	-0.844589
H386	H	1.129297	-0.202825	-0.594589
H387	H	1.379297	0.047175	-0.344589
H388	H	1.629297	0.297175	-0.094589
Br389	Br	0.875303	-0.487237	-0.706808
Br390	Br	1.125303	-0.237237	-0.456808
Br391	Br	1.375303	0.012763	-0.206808
Br392	Br	1.625303	0.262763	0.043192
H393	H	0.451983	-0.348396	-0.391290
H394	H	0.701983	-0.098396	-0.141290
H395	H	0.951983	0.151604	0.108710
H396	H	1.201983	0.401604	0.358710
Br397	Br	0.109961	-0.444130	-0.379649
Br398	Br	0.359961	-0.194130	-0.129649
Br399	Br	0.609961	0.055870	0.120351
Br400	Br	0.859961	0.305870	0.370351
Br401	Br	0.513591	-0.444227	-0.379491
Br402	Br	0.763591	-0.194227	-0.129491
Br403	Br	1.013591	0.055773	0.120509
Br404	Br	1.263591	0.305773	0.370509
Br405	Br	0.117996	-0.232045	-0.199164
Br406	Br	0.367996	0.017955	0.050836
Br407	Br	0.617996	0.267955	0.300836
Br408	Br	0.867996	0.517955	0.550836
H409	H	0.538462	-0.256569	-0.219794
H410	H	0.788462	-0.006569	0.030206
H411	H	1.038462	0.243431	0.280206
H412	H	1.288462	0.493431	0.530206
Br413	Br	0.316165	-0.324864	-0.156785
Br414	Br	0.566165	-0.074864	0.093215
Br415	Br	0.816165	0.175136	0.343215
Br416	Br	1.066165	0.425136	0.593215
H417	H	0.835258	-0.937110	-0.231826
H418	H	1.085258	-0.687110	0.018174
H419	H	1.335258	-0.437110	0.268174
H420	H	1.585258	-0.187110	0.518174
Br421	Br	0.675865	-0.232164	-0.198964
Br422	Br	0.925865	0.017836	0.051036
Br423	Br	1.175865	0.267836	0.301036
Br424	Br	1.425865	0.517836	0.551036
H425	H	0.944745	-0.825259	-0.341530
H426	H	1.194745	-0.575259	-0.091530
H427	H	1.444745	-0.325259	0.158470
H428	H	1.694745	-0.075259	0.408470
