data_functionalizedCrystal
_audit_creation_method	'MofGen! by Chris Wilmer'
_symmetry_space_group_name_H-M	'P1'
_symmetry_Int_Tables_number	1
_symmetry_cell_setting	triclinic
loop_
_symmetry_equiv_pos_as_xyz
  x,y,z
_cell_length_a	14.519709
_cell_length_b	10.268362
_cell_length_c	14.519709
_cell_angle_alpha	89.993769
_cell_angle_beta	96.319855
_cell_angle_gamma	89.998968
loop_
_atom_site_label
_atom_site_type_symbol
_atom_site_fract_x
_atom_site_fract_y
_atom_site_fract_z
O1	O	-1.223868	-0.108133	0.120892
O2	O	-0.723868	0.391867	0.620892
O3	O	-0.955391	-0.108174	0.135128
O4	O	-0.455391	0.391826	0.635128
O5	O	-1.096747	-0.108141	-0.006228
O6	O	-0.596747	0.391859	0.493772
O7	O	-1.082511	-0.108166	0.262249
O8	O	-0.582511	0.391834	0.762249
O9	O	-1.096735	0.108460	-0.006234
O10	O	-0.596735	0.608460	0.493766
O11	O	-0.955378	0.108427	0.135123
O12	O	-0.455378	0.608427	0.635123
O13	O	-1.223855	0.108467	0.120886
O14	O	-0.723855	0.608467	0.620886
Cu15	Cu	-1.089616	0.128224	0.128004
Cu16	Cu	-0.589616	0.628224	0.628004
Cu17	Cu	-1.089630	-0.127931	0.128011
Cu18	Cu	-0.589630	0.372069	0.628011
O19	O	-1.082498	0.108434	0.262243
O20	O	-0.582498	0.608434	0.762243
C21	C	-0.921025	0.000122	0.134462
C22	C	-0.421025	0.500122	0.634462
C23	C	-0.818643	0.000107	0.132474
C24	C	-0.318643	0.500107	0.632474
C25	C	-1.258221	0.000169	0.121553
C26	C	-0.758221	0.500169	0.621553
C27	C	-1.360602	0.000175	0.123541
C28	C	-0.860602	0.500175	0.623541
N29	N	-1.089612	0.308390	0.127998
N30	N	-0.589612	0.808390	0.627998
C31	C	-0.443748	0.000167	0.125154
C32	C	0.056252	0.500167	0.625154
C33	C	-0.548056	0.000150	0.127187
C34	C	-0.048056	0.500150	0.627187
C35	C	-0.631192	0.000135	0.128814
C36	C	-0.131192	0.500135	0.628814
C37	C	-0.735507	0.000121	0.130847
C38	C	-0.235507	0.500121	0.630847
C39	C	-1.096078	0.000160	-0.040591
C40	C	-0.596078	0.500160	0.459409
C41	C	-1.094090	0.000160	-0.142972
C42	C	-0.594090	0.500160	0.357028
N43	N	-1.089641	-0.308097	0.128009
N44	N	-0.589641	0.191903	0.628009
C45	C	-1.089626	0.574061	0.128009
C46	C	-0.589626	1.074061	0.628009
C47	C	-1.089615	0.426223	0.128006
C48	C	-0.589615	0.926223	0.628006
C49	C	-1.086770	0.000125	-0.517868
C50	C	-0.586770	0.500125	-0.017868
C51	C	-1.088803	0.000135	-0.413560
C52	C	-0.588803	0.500135	0.086440
C53	C	-1.090430	0.000144	-0.330423
C54	C	-0.590430	0.500144	0.169577
C55	C	-1.092463	0.000152	-0.226109
C56	C	-0.592463	0.500152	0.273891
C57	C	-1.083168	0.000131	0.296605
C58	C	-0.583168	0.500131	0.796605
C59	C	-1.085156	0.000122	0.398987
C60	C	-0.585156	0.500122	0.898987
