data_functionalizedCrystal
_audit_creation_method	'MofGen! by Chris Wilmer'
_symmetry_space_group_name_H-M	'P1'
_symmetry_Int_Tables_number	1
_symmetry_cell_setting	triclinic
loop_
_symmetry_equiv_pos_as_xyz
  x,y,z
_cell_length_a	15.297327
_cell_length_b	19.805407
_cell_length_c	19.805399
_cell_angle_alpha	90.018378
_cell_angle_beta	99.647572
_cell_angle_gamma	80.293654
loop_
_atom_site_label
_atom_site_type_symbol
_atom_site_fract_x
_atom_site_fract_y
_atom_site_fract_z
Zn1	Zn	-0.359199	-0.988076	-0.429363
Zn2	Zn	-0.510070	-0.968406	-0.335755
Zn3	Zn	-0.359224	-0.874893	-0.316188
Zn4	Zn	-0.510016	-0.855271	-0.448892
O5	O	-0.434627	-0.921662	-0.382549
O6	O	-0.379224	-1.080182	-0.416962
O7	O	-0.490094	-0.955981	-0.238447
O8	O	-0.232974	-0.906351	-0.314840
O9	O	-0.490069	-1.065730	-0.348188
O10	O	-0.232955	-0.989506	-0.397989
O11	O	-0.379268	-0.887277	-0.224071
O12	O	-0.379215	-0.777575	-0.333776
O13	O	-0.489976	-0.872908	-0.541013
O14	O	-0.490001	-0.763159	-0.431272
O15	O	-0.379171	-0.970480	-0.526666
O16	O	-0.636310	-0.936955	-0.367124
O17	O	-0.636270	-0.853835	-0.450245
C18	C	-0.434606	-0.745808	-0.382520
C19	C	-0.434618	-0.670575	-0.382527
C20	C	-0.669025	-0.891149	-0.412942
C21	C	-0.769301	-0.878158	-0.425967
C22	C	-0.492391	-0.627731	-0.433233
C23	C	-0.492391	-0.557042	-0.433241
C24	C	-0.434622	-0.529199	-0.382539
C25	C	-0.376844	-0.572049	-0.331829
C26	C	-0.376840	-0.642736	-0.331825
C27	C	-0.376857	-0.286974	-0.331846
C28	C	-0.376867	-0.216280	-0.331853
C29	C	-0.492408	-0.201280	-0.433262
C30	C	-0.492404	-0.271967	-0.433258
C31	C	-0.434622	-0.314811	-0.382551
C32	C	-0.434622	-0.391460	-0.382544
C33	C	-0.434626	-0.452551	-0.382542
C34	C	-1.051921	-1.014792	-0.289691
C35	C	-0.957706	-1.026997	-0.277450
C36	C	-0.910600	-0.989789	-0.314578
C37	C	-0.957718	-0.940372	-0.363949
C38	C	-1.051942	-0.928162	-0.376187
C39	C	-0.910621	-0.903159	-0.401075
C40	C	-0.957739	-0.853742	-0.450446
C41	C	-1.051954	-0.841534	-0.462682
C42	C	-1.099059	-0.878742	-0.425554
C43	C	-0.816398	-0.915369	-0.388837
C44	C	-0.816419	-0.828739	-0.475333
C45	C	-0.910633	-0.816533	-0.487574
C46	C	-0.199315	-0.952312	-0.352053
C47	C	-0.099038	-0.965373	-0.339057
C48	C	-0.434565	-0.921700	-0.559084
C49	C	-0.434538	-0.921716	-0.634313
C50	C	-0.434644	-0.098202	-0.382572
C51	C	-0.434635	-0.173435	-0.382563
C52	C	-0.376826	-0.885955	-0.662170
C53	C	-0.376808	-0.885966	-0.732856
C54	C	-0.434499	-0.921743	-0.775683
C55	C	-0.492218	-0.957505	-0.747822
C56	C	-0.492239	-0.957489	-0.677137
C57	C	-0.492133	-0.957570	-1.032884
C58	C	-0.492106	-0.957585	-1.103573
C59	C	-0.376702	-0.886047	-1.088603
C60	C	-0.376724	-0.886031	-1.017919
C61	C	-0.434445	-0.921790	-0.990064
C62	C	-0.434465	-0.921776	-0.913418
C63	C	-0.434476	-0.921762	-0.852327
C64	C	-0.434625	-0.921671	-0.206693
C65	C	-0.434397	-0.921819	-0.131432
H66	H	-0.539436	-0.650395	-0.474519
H67	H	-0.949010	-0.776297	-0.527772
O68	O	-0.819081	-1.001537	-0.302629
C69	C	-0.787686	-0.940741	-0.281128
H70	H	-0.842038	-0.905732	-0.258657
H71	H	-0.724678	-0.953771	-0.240491
H72	H	-0.770953	-0.913561	-0.326848
O73	O	-0.770630	-0.792694	-0.511471
C74	C	-0.716037	-0.838278	-0.548122
H75	H	-0.744373	-0.887911	-0.556034
H76	H	-0.714946	-0.813906	-0.600046
H77	H	-0.644646	-0.849876	-0.517924
O78	O	-0.320766	-0.851213	-1.115710
C79	C	-0.372108	-0.800824	-1.163255
H80	H	-0.443169	-0.787383	-1.151160
H81	H	-0.339470	-0.752986	-1.159816
H82	H	-0.375202	-0.821354	-1.217233
H83	H	-0.539195	-0.986632	-0.782698
H84	H	-1.175777	-0.868809	-0.435519
O85	O	-0.912078	-1.075047	-0.229497
C86	C	-0.973855	-1.105260	-0.199340
H87	H	-1.040991	-1.098885	-0.235786
H88	H	-0.946583	-1.162128	-0.188631
H89	H	-0.983945	-1.079201	-0.149221
O90	O	-0.548195	-0.992239	-1.145258
C91	C	-0.606452	-0.946119	-1.193682
H92	H	-0.574619	-0.898974	-1.200135
H93	H	-0.618522	-0.972124	-1.244959
H94	H	-0.673321	-0.929967	-1.175110
O95	O	-0.548219	-0.992375	-1.005938
C96	C	-0.599140	-1.023946	-1.058899
H97	H	-0.562171	-1.031106	-1.104497
H98	H	-0.608767	-1.076020	-1.039735
H99	H	-0.667658	-0.990244	-1.075290
H100	H	-0.329842	-0.856825	-0.627304
O101	O	-0.548332	-0.992286	-0.650183
C102	C	-0.599265	-1.023853	-0.703140
H103	H	-0.562295	-1.031027	-0.748737
H104	H	-0.608911	-1.075919	-0.683971
H105	H	-0.667773	-0.990139	-0.719535
H106	H	-1.090283	-1.045078	-0.259463
O107	O	-1.097682	-0.793605	-0.510728
C108	C	-1.074568	-0.811340	-0.575198
H109	H	-1.048609	-0.868775	-0.575295
H110	H	-1.136507	-0.797462	-0.616677
H111	H	-1.019900	-0.782126	-0.585756
O112	O	-0.320838	-0.189116	-0.282626
C113	C	-0.333227	-0.117539	-0.293511
H114	H	-0.402888	-0.098834	-0.324632
H115	H	-0.327037	-0.091463	-0.242017
H116	H	-0.279777	-0.104440	-0.322686
H117	H	-0.329791	-0.677620	-0.290537
H118	H	-0.539435	-0.522161	-0.474531
O119	O	-0.320807	-0.544889	-0.282612
C120	C	-0.333180	-0.473312	-0.293497
H121	H	-0.402845	-0.454599	-0.324608
H122	H	-0.326969	-0.447236	-0.242003
H123	H	-0.279735	-0.460224	-0.322683
O124	O	-0.548612	-0.159755	-0.482560
C125	C	-0.599582	-0.199492	-0.527319
H126	H	-0.602659	-0.249466	-0.499983
H127	H	-0.670675	-0.169817	-0.543676
H128	H	-0.566629	-0.211324	-0.574489
H129	H	-0.329816	-0.856843	-0.755535
H130	H	-0.329742	-0.856900	-0.983052
H131	H	-0.539448	-0.294633	-0.474543
O132	O	-0.320701	-0.328485	-0.282524
C133	C	-0.269701	-0.288751	-0.237786
H134	H	-0.306661	-0.233555	-0.240188
H135	H	-0.259974	-0.310420	-0.183208
H136	H	-0.201231	-0.290147	-0.253784
O137	O	-0.770535	-0.963418	-0.340965
C138	C	-0.715974	-1.014195	-0.372453
H139	H	-0.701835	-0.992125	-0.421888
H140	H	-0.649736	-1.031869	-0.336286
H141	H	-0.752229	-1.059650	-0.384646
