data_functionalizedCrystal
_audit_creation_method	'MofGen! by Chris Wilmer'
_symmetry_space_group_name_H-M	'P1'
_symmetry_Int_Tables_number	1
_symmetry_cell_setting	triclinic
loop_
_symmetry_equiv_pos_as_xyz
  x,y,z
_cell_length_a	10.967874
_cell_length_b	10.967829
_cell_length_c	16.176319
_cell_angle_alpha	77.865348
_cell_angle_beta	77.863909
_cell_angle_gamma	82.165976
loop_
_atom_site_label
_atom_site_type_symbol
_atom_site_fract_x
_atom_site_fract_y
_atom_site_fract_z
O1	O	1.657238	0.175051	-0.329769
O2	O	2.157238	0.675051	0.170231
O3	O	1.294077	0.191801	-0.280421
O4	O	1.794077	0.691801	0.219579
O5	O	1.484030	0.001846	-0.280417
O6	O	1.984030	0.501846	0.219583
O7	O	1.467285	0.365006	-0.329774
O8	O	1.967285	0.865006	0.170226
O9	O	1.484004	0.001833	-0.142918
O10	O	1.984004	0.501833	0.357082
O11	O	1.294051	0.191788	-0.142923
O12	O	1.794051	0.691788	0.357077
O13	O	1.657212	0.175038	-0.192270
O14	O	2.157212	0.675038	0.307730
Cu15	Cu	1.475629	0.183412	-0.155042
Cu16	Cu	1.975629	0.683412	0.344958
Cu17	Cu	1.475660	0.183427	-0.317650
Cu18	Cu	1.975660	0.683427	0.182350
O19	O	1.467259	0.364993	-0.192275
O20	O	1.967259	0.864993	0.307725
C21	C	1.247563	0.190575	-0.204874
C22	C	1.747563	0.690575	0.295126
C23	C	1.109006	0.186926	-0.184616
C24	C	1.609006	0.686926	0.315384
C25	C	1.047246	0.185305	-0.246813
C26	C	1.547246	0.685305	0.253187
C27	C	0.904039	0.181534	-0.225877
C28	C	1.404039	0.681534	0.274123
C29	C	1.482796	-0.044661	-0.204870
C30	C	1.982796	0.455339	0.295130
C31	C	1.479145	-0.183218	-0.184614
C32	C	1.979145	0.316782	0.315386
C33	C	1.477531	-0.244979	-0.246812
C34	C	1.977531	0.255021	0.253188
C35	C	1.473758	-0.388185	-0.225878
C36	C	1.973758	0.111815	0.274122
C37	C	1.703726	0.176264	-0.267819
C38	C	2.203726	0.676264	0.232181
C39	C	1.842283	0.179913	-0.288083
C40	C	2.342283	0.679913	0.211917
C41	C	1.468492	0.411500	-0.267824
C42	C	1.968492	0.911500	0.232176
C43	C	1.472144	0.550057	-0.288085
C44	C	1.972144	1.050057	0.211915
N45	N	1.475616	0.183401	-0.040673
N46	N	1.975616	0.683401	0.459327
N47	N	1.475683	0.183428	-0.432019
N48	N	1.975683	0.683428	0.067981
C49	C	1.559753	0.099324	0.002585
C50	C	2.059753	0.599324	0.502585
C51	C	1.559759	0.099323	0.089131
C52	C	2.059759	0.599323	0.589131
C53	C	1.475634	0.183406	0.132416
C54	C	1.975634	0.683406	0.632416
C55	C	1.391488	0.267487	0.089153
C56	C	1.891488	0.767487	0.589153
C57	C	1.391476	0.267481	0.002610
C58	C	1.891476	0.767481	0.502610
C59	C	1.391531	0.267511	0.438172
C60	C	1.891531	0.767511	0.938172
C61	C	1.391551	0.267512	0.524721
C62	C	1.891551	0.767512	1.024721
C63	C	1.559813	0.099352	0.524693
C64	C	2.059813	0.599352	1.024693
C65	C	1.559802	0.099347	0.438150
C66	C	2.059802	0.599347	0.938150
C67	C	1.475652	0.183423	0.394895
C68	C	1.975652	0.683423	0.894895
C69	C	1.475645	0.183421	0.301053
C70	C	1.975645	0.683421	0.801053
C71	C	1.475646	0.183414	0.226256
C72	C	1.975646	0.683414	0.726256
H73	H	0.850898	0.180136	-0.157125
H74	H	1.350898	0.680136	0.342875
Cl75	Cl	0.924315	0.182100	-0.394236
Cl76	Cl	1.424315	0.682100	0.105764
Cl77	Cl	1.474275	-0.367905	-0.394231
Cl78	Cl	1.974275	0.132095	0.105769
Cl79	Cl	1.026963	0.184767	-0.078471
Cl80	Cl	1.526963	0.684767	0.421529
Cl81	Cl	1.129288	0.187476	-0.352959
Cl82	Cl	1.629288	0.687476	0.147041
Cl83	Cl	1.479740	-0.162943	-0.352962
Cl84	Cl	1.979740	0.337057	0.147038
Cl85	Cl	1.471568	-0.470219	-0.119726
Cl86	Cl	1.971568	0.029781	0.380274
H87	H	1.477725	-0.236362	-0.115864
H88	H	1.977725	0.263638	0.384136
Cl89	Cl	1.665523	-0.006381	-0.051824
Cl90	Cl	2.165523	0.493619	0.448176
Cl91	Cl	1.665532	-0.006377	0.143514
Cl92	Cl	2.165532	0.493623	0.643514
Cl93	Cl	1.285750	0.373208	0.383800
Cl94	Cl	1.785750	0.873208	0.883800
H95	H	1.628309	0.030883	0.402908
H96	H	2.128309	0.530883	0.902908
H97	H	1.628329	0.030889	0.559921
H98	H	2.128329	0.530889	1.059921
H99	H	1.323041	0.335985	0.559962
H100	H	1.823041	0.835985	1.059962
H101	H	1.322985	0.335944	0.124403
H102	H	1.822985	0.835944	0.624403
H103	H	1.322962	0.335944	-0.032609
H104	H	1.822962	0.835944	0.467391
