data_functionalizedCrystal
_audit_creation_method	'MofGen! by Chris Wilmer'
_symmetry_space_group_name_H-M	'P1'
_symmetry_Int_Tables_number	1
_symmetry_cell_setting	triclinic
loop_
_symmetry_equiv_pos_as_xyz
  x,y,z
_cell_length_a	13.635800
_cell_length_b	16.418055
_cell_length_c	10.943624
_cell_angle_alpha	93.817505
_cell_angle_beta	71.161201
_cell_angle_gamma	76.610274
loop_
_atom_site_label
_atom_site_type_symbol
_atom_site_fract_x
_atom_site_fract_y
_atom_site_fract_z
V1	V	2.043893	-0.115863	-0.402999
O2	O	2.037270	0.005590	-0.394867
O3	O	2.019249	-0.229759	-0.400686
O4	O	2.033089	-0.114071	-0.578559
O5	O	2.023335	-0.110899	-0.215763
V6	V	2.284029	-0.101337	-0.380550
O7	O	2.178088	-0.147728	-0.452242
O8	O	2.374932	-0.069473	-0.331307
O9	O	2.197070	0.012559	-0.382863
O10	O	2.349350	-0.222791	-0.388683
O11	O	2.363285	-0.106302	-0.567787
O12	O	2.183230	-0.103129	-0.204991
V13	V	2.543893	-0.115863	-0.402999
O14	O	2.537270	0.005590	-0.394867
O15	O	2.519249	-0.229759	-0.400686
O16	O	2.533089	-0.114071	-0.578559
O17	O	2.523335	-0.110899	-0.215763
V18	V	2.784029	-0.101337	-0.380550
O19	O	2.678088	-0.147728	-0.452242
O20	O	2.874932	-0.069473	-0.331307
O21	O	2.697070	0.012559	-0.382863
O22	O	2.849350	-0.222791	-0.388683
O23	O	2.863285	-0.106302	-0.567787
O24	O	2.683230	-0.103129	-0.204991
C25	C	1.941208	-0.257525	-0.394443
C26	C	1.961791	-0.350636	-0.393723
C27	C	2.120018	-0.656622	-0.397916
C28	C	2.100682	-0.569133	-0.398572
C29	C	1.917584	-0.560589	-0.385634
C30	C	1.936919	-0.648076	-0.384968
C31	C	2.038140	-0.696091	-0.391116
C32	C	1.999469	-0.521114	-0.392438
C33	C	1.978503	-0.426254	-0.393150
C34	C	2.059107	-0.790958	-0.390402
C35	C	1.958861	-0.109952	-0.621335
C36	C	1.990666	-0.109241	-0.764859
C37	C	1.913654	-0.104449	-0.841988
C38	C	1.999828	-0.175580	-0.948253
C39	C	1.961176	-0.036850	-0.914330
C40	C	2.076437	-0.180438	-0.869248
C41	C	2.037753	-0.041646	-0.835301
C42	C	2.123992	-0.112797	-0.941536
C43	C	2.106781	0.040320	-0.389103
C44	C	2.075818	0.133430	-0.389832
C45	C	2.441208	-0.257525	-0.394443
C46	C	2.461791	-0.350636	-0.393723
C47	C	2.600673	-0.569124	-0.398547
C48	C	2.620008	-0.656613	-0.397881
C49	C	2.436913	-0.648070	-0.384955
C50	C	2.417582	-0.560584	-0.385630
C51	C	2.499464	-0.521113	-0.392420
C52	C	2.538130	-0.696088	-0.391079
C53	C	2.559094	-0.790947	-0.390357
C54	C	2.478500	-0.426248	-0.393144
C55	C	2.089128	-0.107251	-0.162207
C56	C	2.046942	-0.107958	-0.018682
C57	C	2.458861	-0.109952	-0.621335
C58	C	2.490666	-0.109241	-0.764859
C59	C	2.606781	0.040320	-0.389103
C60	C	2.575818	0.133430	-0.389832
C61	C	2.589128	-0.107251	-0.162207
C62	C	2.546942	-0.107958	-0.018682
C63	C	2.413654	-0.104449	-0.841988
C64	C	2.499828	-0.175580	-0.948253
C65	C	2.461176	-0.036850	-0.914330
C66	C	2.576437	-0.180438	-0.869248
C67	C	2.537753	-0.041646	-0.835301
C68	C	2.623992	-0.112797	-0.941536
H69	H	2.202437	-0.695714	-0.402918
Cl70	Cl	2.703613	-0.519508	-0.407094
Cl71	Cl	2.761759	-0.118269	-1.008328
H72	H	2.702422	-0.695701	-0.402873
H73	H	2.167356	-0.537001	-0.404106
H74	H	1.835172	-0.521485	-0.380631
Cl75	Cl	2.333982	-0.697696	-0.376411
H76	H	1.870238	-0.680212	-0.379429
Cl77	Cl	2.290339	-0.500222	-0.377935
Cl78	Cl	1.775953	-0.099143	-0.774877
Cl79	Cl	2.261759	-0.118269	-1.008328
H80	H	2.324465	-0.101014	-0.798526
Cl81	Cl	1.886418	0.056845	-0.945955
H82	H	1.984126	-0.232202	-0.997421
H83	H	2.124864	-0.241190	-0.848938
H84	H	2.053412	0.014979	-0.786098
H85	H	2.484126	-0.232202	-0.997421
H86	H	2.624864	-0.241190	-0.848938
Cl87	Cl	2.561927	0.045779	-0.759327
Cl88	Cl	2.386418	0.056845	-0.945955
