data_functionalizedCrystal
_audit_creation_method	'MofGen! by Chris Wilmer'
_symmetry_space_group_name_H-M	'P1'
_symmetry_Int_Tables_number	1
_symmetry_cell_setting	triclinic
loop_
_symmetry_equiv_pos_as_xyz
  x,y,z
_cell_length_a	9.130313
_cell_length_b	11.026607
_cell_length_c	11.026607
_cell_angle_alpha	108.586017
_cell_angle_beta	89.999963
_cell_angle_gamma	90.000251
loop_
_atom_site_label
_atom_site_type_symbol
_atom_site_fract_x
_atom_site_fract_y
_atom_site_fract_z
O1	O	-0.121796	-1.726725	-0.533616
O2	O	-0.121798	-1.360145	-0.472853
O3	O	-0.121792	-1.513053	-0.319945
O4	O	-0.121802	-1.573817	-0.686525
O5	O	0.121807	-1.513052	-0.319949
O6	O	0.121801	-1.360144	-0.472857
O7	O	0.121803	-1.726724	-0.533621
Cu8	Cu	0.144044	-1.543434	-0.503240
Cu9	Cu	-0.144039	-1.543435	-0.503234
O10	O	0.121797	-1.573815	-0.686529
C11	C	0.000001	-1.312485	-0.461645
C12	C	0.000000	-1.170471	-0.428228
N13	N	0.346667	-1.543442	-0.503245
N14	N	-0.346662	-1.543435	-0.503221
C15	C	0.423322	-1.611178	-0.435571
C16	C	0.576659	-1.611171	-0.435555
C17	C	0.576672	-1.475690	-0.570897
C18	C	0.423338	-1.475690	-0.570905
C19	C	0.346650	-1.678929	-0.367911
C20	C	0.423305	-1.746672	-0.300233
C21	C	0.576642	-1.746665	-0.300217
C22	C	0.653324	-1.678915	-0.367879
C23	C	0.000006	-1.501843	-0.272287
C24	C	0.000000	-1.468426	-0.130273
C25	C	0.000001	-1.774384	-0.544828
C26	C	-0.000008	-1.916398	-0.578245
C27	C	-0.000003	-1.116821	-0.520498
C28	C	-0.000004	-0.970043	-0.485962
C29	C	-0.000004	-1.585026	-0.734187
C30	C	-0.000008	-1.618443	-0.876200
C31	C	-0.000001	-1.560695	-0.076624
C32	C	-0.000007	-1.526160	0.070155
H33	H	0.221796	-1.678943	-0.367921
F34	F	-0.000014	-1.755125	0.041816
F35	F	-0.000009	-1.697370	-0.158615
H36	H	0.639053	-1.801813	-0.245101
F37	F	-0.000021	-1.389478	0.152141
F38	F	0.658287	-1.403595	-0.642906
F39	F	0.341695	-1.818760	-0.228215
F40	F	-0.000014	-1.331751	-0.048283
H41	H	0.360926	-1.420532	-0.626009
H42	H	-0.000001	-0.979125	-0.682816
H43	H	-0.000035	-1.107738	-0.323666
H44	H	0.778181	-1.678905	-0.367850
F45	F	-0.000002	-1.198812	-0.657172
F46	F	0.000009	-0.888056	-0.349281
