data_functionalizedCrystal
_audit_creation_method	'MofGen! by Chris Wilmer'
_symmetry_space_group_name_H-M	'P1'
_symmetry_Int_Tables_number	1
_symmetry_cell_setting	triclinic
loop_
_symmetry_equiv_pos_as_xyz
  x,y,z
_cell_length_a	15.944551
_cell_length_b	15.944551
_cell_length_c	15.021413
_cell_angle_alpha	90.009487
_cell_angle_beta	89.990850
_cell_angle_gamma	96.501262
loop_
_atom_site_label
_atom_site_type_symbol
_atom_site_fract_x
_atom_site_fract_y
_atom_site_fract_z
O1	O	1.114524	-0.108337	-0.074120
O2	O	1.614524	0.391663	0.425880
O3	O	0.869975	-0.121693	-0.074103
O4	O	1.369975	0.378307	0.425897
O5	O	0.998927	0.007260	-0.074104
O6	O	1.498927	0.507260	0.425896
O7	O	0.985571	-0.237290	-0.074119
O8	O	1.485571	0.262710	0.425881
O9	O	0.998916	0.007273	0.073960
O10	O	1.498916	0.507273	0.573960
O11	O	0.869963	-0.121680	0.073961
O12	O	1.369963	0.378320	0.573961
O13	O	1.114513	-0.108323	0.073944
O14	O	1.614513	0.391677	0.573944
Zn15	Zn	0.992236	-0.114999	0.097461
Zn16	Zn	1.492236	0.385001	0.597461
Zn17	Zn	0.992251	-0.115017	-0.097620
Zn18	Zn	1.492251	0.384983	0.402380
O19	O	0.985560	-0.237276	0.073945
O20	O	1.485560	0.262724	0.573945
C21	C	0.838675	-0.121132	-0.000069
C22	C	1.338675	0.378868	0.499931
C23	C	0.745429	-0.119470	-0.000062
C24	C	1.245429	0.380530	0.499938
C25	C	1.145813	-0.108885	-0.000093
C26	C	1.645813	0.391115	0.499907
C27	C	1.239059	-0.110547	-0.000105
C28	C	1.739059	0.389453	0.499895
C29	C	0.998367	0.038561	-0.000072
C30	C	1.498367	0.538561	0.499928
C31	C	0.996705	0.131807	-0.000071
C32	C	1.496705	0.631807	0.499929
C33	C	1.453915	-0.194451	-0.000090
C34	C	1.953915	0.305549	0.499910
C35	C	1.514941	-0.155495	-0.073090
C36	C	2.014941	0.344505	0.426910
C37	C	1.409784	-0.113554	-0.000092
C38	C	1.909784	0.386446	0.499908
C39	C	1.514908	-0.155463	0.072890
C40	C	2.014908	0.344537	0.572890
C41	C	1.574697	-0.116465	-0.000076
C42	C	2.074697	0.383535	0.499924
C43	C	1.469582	-0.074576	-0.073153
C44	C	1.969582	0.425424	0.426847
C45	C	1.469542	-0.074555	0.072892
C46	C	1.969542	0.425445	0.572892
C47	C	1.530550	-0.035541	-0.000126
C48	C	2.030550	0.464459	0.499874
C49	C	1.314782	-0.111880	-0.000102
C50	C	1.814782	0.388120	0.499898
C51	C	1.669698	-0.118133	-0.000072
C52	C	2.169698	0.381867	0.499928
C53	C	0.986120	-0.268577	-0.000090
C54	C	1.486120	0.231423	0.499910
C55	C	0.987782	-0.361823	-0.000096
C56	C	1.487782	0.138177	0.499904
N57	N	0.992232	-0.114987	0.230598
N58	N	1.492232	0.385013	0.730598
C59	C	0.912801	0.346663	-0.000078
C60	C	1.412801	0.846663	0.499922
C61	C	0.951758	0.407687	0.072924
C62	C	1.451758	0.907687	0.572924
C63	C	0.993698	0.302533	-0.000078
C64	C	1.493698	0.802533	0.499922
C65	C	0.951788	0.407658	-0.073056
C66	C	1.451788	0.907658	0.426944
C67	C	0.990787	0.467445	-0.000088
C68	C	1.490787	0.967445	0.499912
C69	C	1.032677	0.362328	0.072984
C70	C	1.532677	0.862328	0.572984
C71	C	1.032696	0.362292	-0.073061
C72	C	1.532696	0.862292	0.426939
C73	C	1.071711	0.423298	-0.000041
C74	C	1.571711	0.923298	0.499959
C75	C	0.995372	0.207530	-0.000071
C76	C	1.495372	0.707530	0.499929
C77	C	0.989119	0.562446	-0.000089
C78	C	1.489119	1.062446	0.499911
C79	C	1.051414	-0.054886	0.529589
C80	C	1.551414	0.445114	1.029589
C81	C	1.068401	-0.130556	0.470216
C82	C	1.568401	0.369444	0.970216
C83	C	0.992253	-0.115013	0.587635
C84	C	1.492253	0.384987	1.087635
C85	C	0.975295	-0.039332	0.470266
C86	C	1.475295	0.460668	0.970266
C87	C	0.992245	-0.114996	0.412211
C88	C	1.492245	0.385004	0.912211
C89	C	1.009278	-0.190721	0.529569
C90	C	1.509278	0.309279	1.029569
C91	C	0.916139	-0.099447	0.529624
C92	C	1.416139	0.400553	1.029624
C93	C	0.933094	-0.175172	0.470278
C94	C	1.433094	0.324828	0.970278
C95	C	0.992259	-0.115021	0.688692
C96	C	1.492259	0.384979	1.188692
C97	C	0.992238	-0.114996	0.311156
C98	C	1.492238	0.385004	0.811156
N99	N	0.992263	-0.115023	0.769242
N100	N	1.492263	0.384977	1.269242
H101	H	1.420609	-0.261600	-0.000167
H102	H	1.920609	0.238400	0.499833
H103	H	0.851794	-0.086258	0.555738
H104	H	1.351794	0.413742	1.055738
H105	H	1.138919	0.456457	-0.000005
H106	H	1.638919	0.956457	0.499995
H107	H	1.534988	-0.189688	0.134605
H108	H	2.034988	0.310312	0.634605
N109	N	1.572167	0.048762	-0.000171
N110	N	2.072167	0.548762	0.499829
N111	N	1.650989	0.061173	0.000418
N112	N	2.150989	0.561173	0.500418
H113	H	1.680383	0.120711	0.000384
H114	H	2.180383	0.620711	0.500384
N115	N	1.114208	0.008820	0.562287
N116	N	1.614208	0.508820	1.062287
N117	N	1.093137	0.067226	0.609911
N118	N	1.593137	0.567226	1.109911
H119	H	1.137486	0.112214	0.633008
H120	H	1.637486	0.612214	1.133008
H121	H	1.066887	0.342156	-0.134786
H122	H	1.566887	0.842156	0.365214
H123	H	0.960956	0.024664	0.444216
H124	H	1.460956	0.524664	0.944216
H125	H	1.535060	-0.189719	-0.134808
H126	H	2.035060	0.310281	0.365192
N127	N	0.828562	0.304886	0.000021
N128	N	1.328562	0.804886	0.500021
N129	N	0.779598	0.316749	0.062613
N130	N	1.279598	0.816749	0.562613
H131	H	0.720106	0.287244	0.062687
H132	H	1.220106	0.787244	0.562687
H133	H	0.917537	0.427801	0.134646
H134	H	1.417537	0.927801	0.634646
H135	H	1.132766	-0.143721	0.444122
H136	H	1.632766	0.356279	0.944122
H137	H	0.917566	0.427729	-0.134777
H138	H	1.417566	0.927729	0.365223
H139	H	1.449598	-0.040396	-0.134940
H140	H	1.949598	0.459604	0.365060
N141	N	1.027349	-0.271020	0.562117
N142	N	1.527349	0.228980	1.062117
N143	N	1.030293	-0.283978	0.644064
N144	N	1.530293	0.216022	1.144064
H145	H	1.043055	-0.340688	0.667054
H146	H	1.543055	0.159312	1.167054
N147	N	1.444285	-0.031665	0.150330
N148	N	1.944285	0.468335	0.650330
N149	N	1.458553	-0.059231	0.226076
N150	N	1.958553	0.440769	0.726076
H151	H	1.440714	-0.028945	0.280774
H152	H	1.940714	0.471055	0.780774
H153	H	0.883057	-0.226068	0.444400
H154	H	1.383057	0.273932	0.944400
H155	H	1.066860	0.342343	0.134769
H156	H	1.566860	0.842343	0.634769
