data_functionalizedCrystal
_audit_creation_method	'MofGen! by Chris Wilmer'
_symmetry_space_group_name_H-M	'P1'
_symmetry_Int_Tables_number	1
_symmetry_cell_setting	triclinic
loop_
_symmetry_equiv_pos_as_xyz
  x,y,z
_cell_length_a	6.817900
_cell_length_b	11.168121
_cell_length_c	14.858572
_cell_angle_alpha	93.498084
_cell_angle_beta	104.524003
_cell_angle_gamma	108.508496
loop_
_atom_site_label
_atom_site_type_symbol
_atom_site_fract_x
_atom_site_fract_y
_atom_site_fract_z
V1	V	-4.064038	-0.175499	-0.289968
O2	O	-4.024496	0.007616	-0.284440
O3	O	-4.040638	-0.347199	-0.287992
O4	O	-4.020335	-0.173159	-0.416429
O5	O	-4.044940	-0.167630	-0.155114
V6	V	-4.543818	-0.153554	-0.273837
O7	O	-4.333507	-0.223638	-0.325352
O8	O	-4.724546	-0.105416	-0.238454
O9	O	-4.344011	0.018146	-0.275813
O10	O	-4.700756	-0.336669	-0.279365
O11	O	-4.680313	-0.161424	-0.408691
O12	O	-4.364314	-0.155895	-0.147376
C13	C	-3.891568	-0.389045	-0.283420
C14	C	-3.953754	-0.529414	-0.282648
C15	C	-3.865669	-0.167037	-0.447253
C16	C	-3.911386	-0.166259	-0.550636
C17	C	-4.155620	-0.598118	-0.286714
C18	C	-4.219897	-0.743197	-0.285916
C19	C	-4.078711	-0.163417	-0.929204
C20	C	-4.032148	-0.164208	-0.823875
C21	C	-3.995050	-0.164839	-0.739924
C22	C	-3.948483	-0.165628	-0.634587
C23	C	-4.156424	0.059985	-0.280383
C24	C	-4.073476	0.200352	-0.281161
C25	C	-4.182323	-0.162021	-0.116547
C26	C	-4.115844	-0.162792	-0.013163
H27	H	-4.280862	-0.549532	-0.290792
C28	C	-4.450331	-0.822056	-0.290401
C29	C	-4.450704	-0.880934	-0.209879
C30	C	-4.662944	-0.953603	-0.213982
H31	H	-4.534057	-0.767957	-0.293442
H32	H	-4.510314	-0.885532	-0.344763
H33	H	-4.390751	-0.817466	-0.155532
H34	H	-4.367023	-0.935054	-0.206822
H35	H	-4.722928	-1.017079	-0.268343
H36	H	-4.746653	-0.899495	-0.217025
H37	H	-4.663224	-0.993570	-0.159353
C38	C	-3.786727	-0.594211	-0.277024
C39	C	-3.765975	-0.652301	-0.195946
C40	C	-3.612102	-0.711985	-0.190727
H41	H	-3.831454	-0.657170	-0.330965
H42	H	-3.651673	-0.532321	-0.274522
H43	H	-3.901000	-0.714185	-0.198455
H44	H	-3.721219	-0.589369	-0.141991
H45	H	-3.477048	-0.650095	-0.188226
H46	H	-3.656844	-0.774939	-0.244672
H47	H	-3.597987	-0.751396	-0.135712
H48	H	-3.900539	-0.740595	-0.277677
