data_functionalizedCrystal
_audit_creation_method	'MofGen! by Chris Wilmer'
_symmetry_space_group_name_H-M	'P1'
_symmetry_Int_Tables_number	1
_symmetry_cell_setting	triclinic
loop_
_symmetry_equiv_pos_as_xyz
  x,y,z
_cell_length_a	16.120484
_cell_length_b	13.032831
_cell_length_c	13.032268
_cell_angle_alpha	89.113023
_cell_angle_beta	80.357249
_cell_angle_gamma	86.078521
loop_
_atom_site_label
_atom_site_type_symbol
_atom_site_fract_x
_atom_site_fract_y
_atom_site_fract_z
Zn1	Zn	-0.562103	1.458766	0.811459
Zn2	Zn	-0.312103	1.708766	1.061459
Zn3	Zn	-0.062103	1.958766	1.311459
Zn4	Zn	0.187897	2.208766	1.561459
Zn5	Zn	-0.686112	1.471747	0.646236
Zn6	Zn	-0.436112	1.721747	0.896236
Zn7	Zn	-0.186112	1.971747	1.146236
Zn8	Zn	0.063888	2.221747	1.396236
Zn9	Zn	-0.527333	1.311081	0.615806
Zn10	Zn	-0.277333	1.561081	0.865806
Zn11	Zn	-0.027333	1.811081	1.115806
Zn12	Zn	0.222667	2.061081	1.365806
Zn13	Zn	-0.681612	1.278313	0.796116
Zn14	Zn	-0.431612	1.528313	1.046116
Zn15	Zn	-0.181612	1.778313	1.296116
Zn16	Zn	0.068388	2.028313	1.546116
O17	O	-0.614290	1.379976	0.717404
O18	O	-0.364290	1.629976	0.967404
O19	O	-0.114290	1.879976	1.217404
O20	O	0.135710	2.129976	1.467404
O21	O	-0.594988	1.603247	0.808698
O22	O	-0.344988	1.853247	1.058698
O23	O	-0.094988	2.103247	1.308698
O24	O	0.155012	2.353247	1.558698
O25	O	-0.652382	1.469580	0.497592
O26	O	-0.402382	1.719580	0.747592
O27	O	-0.152382	1.969580	0.997592
O28	O	0.097618	2.219580	1.247592
O29	O	-0.415480	1.338953	0.635446
O30	O	-0.165480	1.588953	0.885446
O31	O	0.084520	1.838953	1.135446
O32	O	0.334520	2.088953	1.385446
O33	O	-0.686097	1.612784	0.687309
O34	O	-0.436097	1.862784	0.937309
O35	O	-0.186097	2.112784	1.187309
O36	O	0.063903	2.362784	1.437309
O37	O	-0.441026	1.447456	0.779192
O38	O	-0.191026	1.697456	1.029192
O39	O	0.058974	1.947456	1.279192
O40	O	0.308974	2.197456	1.529192
O41	O	-0.535727	1.351539	0.475236
O42	O	-0.285727	1.601539	0.725236
O43	O	-0.035727	1.851539	0.975236
O44	O	0.214273	2.101539	1.225236
O45	O	-0.531364	1.163974	0.620568
O46	O	-0.281364	1.413974	0.870568
O47	O	-0.031364	1.663974	1.120568
O48	O	0.218636	1.913974	1.370568
O49	O	-0.678427	1.283104	0.942758
O50	O	-0.428427	1.533104	1.192758
O51	O	-0.178427	1.783104	1.442758
O52	O	0.071573	2.033104	1.692758
O53	O	-0.644712	1.139900	0.753041
O54	O	-0.394712	1.389900	1.003041
O55	O	-0.144712	1.639900	1.253041
O56	O	0.105288	1.889900	1.503041
O57	O	-0.590624	1.415682	0.954031
O58	O	-0.340624	1.665682	1.204031
O59	O	-0.090624	1.915682	1.454031
O60	O	0.159376	2.165682	1.704031
O61	O	-0.801980	1.437806	0.672431
O62	O	-0.551980	1.687806	0.922431
O63	O	-0.301980	1.937806	1.172431
O64	O	-0.051980	2.187806	1.422431
O65	O	-0.798674	1.295691	0.782547
O66	O	-0.548674	1.545691	1.032547
O67	O	-0.298674	1.795691	1.282547
O68	O	-0.048674	2.045691	1.532547
C69	C	-0.583777	1.114921	0.681838
C70	C	-0.333777	1.364921	0.931838
C71	C	-0.083777	1.614921	1.181838
C72	C	0.166223	1.864921	1.431838
C73	C	-0.570746	1.001525	0.666648
C74	C	-0.320746	1.251525	0.916648
C75	C	-0.070746	1.501525	1.166648
C76	C	0.179254	1.751525	1.416648
C77	C	-0.621091	0.939092	0.725332
C78	C	-0.371091	1.189092	0.975332
C79	C	-0.121091	1.439092	1.225332
C80	C	0.128909	1.689092	1.475332
C81	C	-0.607624	0.821890	0.709634
C82	C	-0.357624	1.071890	0.959634
C83	C	-0.107624	1.321890	1.209634
C84	C	0.142376	1.571890	1.459634
C85	C	-0.830530	1.364626	0.729153
C86	C	-0.580530	1.614626	0.979153
C87	C	-0.330530	1.864626	1.229153
C88	C	-0.080530	2.114626	1.479153
C89	C	-0.923053	1.358148	0.734226
C90	C	-0.673053	1.608148	0.984226
C91	C	-0.423053	1.858148	1.234226
C92	C	-0.173053	2.108148	1.484226
C93	C	-1.092455	1.346324	0.743510
C94	C	-0.842455	1.596324	0.993510
C95	C	-0.592455	1.846324	1.243510
C96	C	-0.342455	2.096324	1.493510
C97	C	-1.135307	1.413810	0.691340
C98	C	-0.885307	1.663810	0.941340
C99	C	-0.635307	1.913810	1.191340
C100	C	-0.385307	2.163810	1.441340
C101	C	-1.229569	1.407231	0.696506
C102	C	-0.979569	1.657231	0.946506
C103	C	-0.729569	1.907231	1.196506
C104	C	-0.479569	2.157231	1.446506
C105	C	-0.998185	1.352901	0.738345
C106	C	-0.748185	1.602901	0.988345
C107	C	-0.498185	1.852901	1.238345
C108	C	-0.248185	2.102901	1.488345
C109	C	-0.397210	1.395412	0.705636
C110	C	-0.147210	1.645412	0.955636
C111	C	0.102790	1.895412	1.205636
C112	C	0.352790	2.145412	1.455636
C113	C	-0.304704	1.401989	0.700622
C114	C	-0.054704	1.651989	0.950622
C115	C	0.195296	1.901989	1.200622
C116	C	0.445296	2.151989	1.450622
C117	C	-0.637902	1.344290	0.986938
C118	C	-0.387902	1.594290	1.236938
C119	C	-0.137902	1.844290	1.486938
C120	C	0.112098	2.094290	1.736938
C121	C	-0.647964	1.329082	1.101797
C122	C	-0.397964	1.579082	1.351797
C123	C	-0.147964	1.829082	1.601797
C124	C	0.102036	2.079082	1.851797
C125	C	-0.644923	1.646067	0.753110
C126	C	-0.394923	1.896067	1.003110
C127	C	-0.144923	2.146067	1.253110
C128	C	0.105077	2.396067	1.503110
C129	C	-0.657977	1.759458	0.768325
C130	C	-0.407977	2.009458	1.018325
C131	C	-0.157977	2.259458	1.268325
C132	C	0.092023	2.509458	1.518325
C133	C	-0.590717	1.415587	0.448924
C134	C	-0.340717	1.665587	0.698924
C135	C	-0.090717	1.915587	0.948924
C136	C	0.159283	2.165587	1.198924
C137	C	-0.580443	1.431009	0.334079
C138	C	-0.330443	1.681009	0.584079
C139	C	-0.080443	1.931009	0.834079
C140	C	0.169557	2.181009	1.084079
C141	C	-0.609007	1.387900	1.158582
C142	C	-0.359007	1.637900	1.408582
C143	C	-0.109007	1.887900	1.658582
C144	C	0.140993	2.137900	1.908582
C145	C	-0.619405	1.372183	1.277296
C146	C	-0.369405	1.622183	1.527296
C147	C	-0.119405	1.872183	1.777296
C148	C	0.130595	2.122183	2.027296
H149	H	-0.517670	0.968208	0.604790
H150	H	-0.267670	1.218208	0.854790
H151	H	-0.017670	1.468208	1.104790
H152	H	0.232330	1.718208	1.354790
H153	H	-0.554544	0.788578	0.647771
H154	H	-0.304544	1.038578	0.897771
H155	H	-0.054544	1.288578	1.147771
H156	H	0.195456	1.538578	1.397771
H157	H	-0.539383	1.492999	1.294813
H158	H	-0.289383	1.742999	1.544813
H159	H	-0.039383	1.992999	1.794813
H160	H	0.210617	2.242999	2.044813
O161	O	-0.673782	1.290055	1.329293
O162	O	-0.423782	1.540055	1.579293
O163	O	-0.173782	1.790055	1.829293
O164	O	0.076218	2.040055	2.079293
H165	H	-0.725663	1.326236	1.386891
H166	H	-0.475663	1.576236	1.636891
H167	H	-0.225663	1.826236	1.886891
H168	H	0.024337	2.076236	2.136891
O169	O	-0.728283	0.803566	0.850283
O170	O	-0.478283	1.053566	1.100283
O171	O	-0.228283	1.303566	1.350283
O172	O	0.021717	1.553566	1.600283
H173	H	-0.727832	0.888698	0.849752
H174	H	-0.477832	1.138698	1.099752
H175	H	-0.227832	1.388698	1.349752
H176	H	0.022168	1.638698	1.599752
H177	H	-0.689009	1.267086	1.141066
H178	H	-0.439009	1.517086	1.391066
H179	H	-0.189009	1.767086	1.641066
H180	H	0.060991	2.017086	1.891066
H181	H	-0.674162	0.972408	0.787198
H182	H	-0.424162	1.222408	1.037198
H183	H	-0.174162	1.472408	1.287198
H184	H	0.075838	1.722408	1.537198
H185	H	-1.101202	1.476527	0.642796
H186	H	-0.851202	1.726527	0.892796
H187	H	-0.601202	1.976527	1.142796
H188	H	-0.351202	2.226527	1.392796
H189	H	-1.126557	1.283610	0.792048
H190	H	-0.876557	1.533610	1.042048
H191	H	-0.626557	1.783610	1.292048
H192	H	-0.376557	2.033610	1.542048
H193	H	-0.567952	1.449887	1.119311
H194	H	-0.317952	1.699887	1.369311
H195	H	-0.067952	1.949887	1.619311
H196	H	0.182048	2.199887	1.869311
