data_functionalizedCrystal
_audit_creation_method	'MofGen! by Chris Wilmer'
_symmetry_space_group_name_H-M	'P1'
_symmetry_Int_Tables_number	1
_symmetry_cell_setting	triclinic
loop_
_symmetry_equiv_pos_as_xyz
  x,y,z
_cell_length_a	18.426585
_cell_length_b	23.196402
_cell_length_c	23.196402
_cell_angle_alpha	60.000138
_cell_angle_beta	89.999462
_cell_angle_gamma	60.001912
loop_
_atom_site_label
_atom_site_type_symbol
_atom_site_fract_x
_atom_site_fract_y
_atom_site_fract_z
Zr1	Zr	0.699131	0.631024	-0.075642
O2	O	0.583257	0.751290	-0.167688
O3	O	0.734650	0.510759	-0.047429
O4	O	0.734652	0.631029	-0.167696
O5	O	0.583257	0.631015	0.047452
O6	O	0.854077	0.631033	-0.167698
O7	O	0.583255	0.631019	-0.047421
O8	O	0.854074	0.415892	0.047437
O9	O	0.583260	0.846157	-0.167684
O10	O	0.838928	0.560229	-0.035394
O11	O	0.749803	0.560223	0.035410
O12	O	0.749805	0.701826	-0.106189
O13	O	0.660680	0.701820	-0.035384
Zr14	Zr	0.889604	0.631025	0.075665
Zr15	Zr	0.889602	0.631031	-0.075646
Zr16	Zr	0.699134	0.631018	0.075668
Zr17	Zr	0.699136	0.782327	-0.075636
Zr18	Zr	0.889599	0.479722	0.075658
O19	O	0.854086	0.751290	0.047451
O20	O	0.854082	0.751299	-0.167693
O21	O	0.583261	0.751281	0.047457
O22	O	1.005478	0.510759	0.167710
O23	O	1.005474	0.510768	-0.047435
O24	O	0.734654	0.510750	0.167715
O25	O	1.005478	0.631034	-0.047430
O26	O	0.854084	0.631020	0.167718
O27	O	0.734658	0.631016	0.167721
O28	O	1.005480	0.631030	0.047443
O29	O	0.734659	0.846162	-0.167687
O30	O	0.854077	0.415887	0.167709
O31	O	1.005475	0.415892	0.167706
O32	O	1.005473	0.415897	0.047434
O33	O	0.583263	0.846152	-0.047412
O34	O	0.734661	0.846157	-0.047415
O35	O	0.838930	0.560223	0.106211
O36	O	0.928055	0.560229	0.035406
O37	O	0.838933	0.701826	-0.035388
O38	O	0.749808	0.701820	0.035416
C39	C	0.794361	0.441768	0.000003
C40	C	0.794359	0.377536	0.000000
C41	C	0.556118	0.631016	0.000016
C42	C	0.475258	0.631014	0.000017
C43	C	0.840875	0.347369	-0.036961
C44	C	0.840884	0.287008	-0.036956
C45	C	0.794359	0.256828	0.000002
C46	C	0.747841	0.287000	0.036972
C47	C	0.747841	0.347354	0.036971
C48	C	0.716432	0.194797	-0.005271
C49	C	0.716429	0.134447	-0.005275
C50	C	0.794360	0.070673	0.000009
C51	C	0.872293	0.067264	0.005283
C52	C	0.872293	0.127618	0.005282
C53	C	0.794354	0.191384	0.000008
C54	C	0.840890	-0.024945	-0.036948
C55	C	0.840901	-0.085311	-0.036937
C56	C	0.747849	-0.085312	0.036986
C57	C	0.747847	-0.024954	0.036980
C58	C	0.794365	0.005229	0.000009
C59	C	0.179144	0.631038	0.000005
C60	C	0.261530	0.631035	0.000007
C61	C	0.327198	0.631026	0.000011
C62	C	0.409590	0.631022	0.000013
C63	C	1.032617	0.631033	0.000006
C64	C	1.113477	0.631035	0.000005
C65	C	0.794364	0.631032	-0.189256
C66	C	0.794363	0.631035	-0.253491
C67	C	0.794374	0.820281	0.000019
C68	C	0.794377	0.884513	0.000022
C69	C	0.747861	0.704926	-0.753271
C70	C	0.747853	0.704930	-0.692918
C71	C	0.794375	0.631019	-0.625782
C72	C	0.840889	0.557098	-0.619000
C73	C	0.840888	0.557095	-0.679353
C74	C	0.872302	0.574397	-0.501853
C75	C	0.872306	0.574402	-0.441503
C76	C	0.794377	0.631024	-0.439633
C77	C	0.716444	0.687653	-0.498128
C78	C	0.716443	0.687651	-0.558480
C79	C	0.794381	0.631014	-0.560336
C80	C	0.747852	0.704945	-0.380979
C81	C	0.747842	0.704947	-0.320624
C82	C	0.840886	0.557112	-0.246706
C83	C	0.840888	0.557113	-0.307061
C84	C	0.794373	0.631032	-0.374195
C85	C	0.794371	0.631017	0.189278
C86	C	0.794373	0.631014	0.253513
C87	C	1.032611	0.441776	-0.000002
C88	C	1.113468	0.377547	-0.000006
C89	C	0.794365	0.441760	0.189270
C90	C	0.794364	0.377526	0.253502
C91	C	1.032614	0.441768	0.189265
C92	C	1.113473	0.377537	0.253496
C93	C	0.556121	0.820281	-0.189243
C94	C	0.475262	0.884512	-0.253474
C95	C	0.556125	0.820273	0.000024
C96	C	0.475267	0.884502	0.000028
C97	C	0.794371	0.820289	-0.189248
C98	C	0.794372	0.884523	-0.253480
C99	C	1.104916	0.347384	-0.036972
C100	C	1.180883	0.287043	-0.036990
C101	C	1.265401	0.256861	-0.000038
C102	C	1.273952	0.287029	0.036928
C103	C	1.197986	0.347374	0.036942
C104	C	0.840887	0.347361	0.320630
C105	C	0.840883	0.287014	0.380989
C106	C	0.794360	0.256830	0.374219
C107	C	0.747831	0.287001	0.307084
C108	C	0.747831	0.347350	0.246727
C109	C	1.197976	0.347376	0.246701
C110	C	1.273958	0.287032	0.307047
C111	C	1.265437	0.256845	0.374187
C112	C	1.180925	0.287012	0.380982
C113	C	1.104945	0.347359	0.320636
C114	C	0.390760	0.914681	-0.246678
C115	C	0.314777	0.975043	-0.307025
C116	C	0.323299	1.005233	-0.374165
C117	C	0.407810	0.975062	-0.380960
C118	C	0.483791	0.914705	-0.320614
C119	C	0.483819	0.914671	0.036988
C120	C	0.407852	0.975029	0.036989
C121	C	0.323334	1.005213	0.000035
C122	C	0.314784	0.975042	-0.036929
C123	C	0.390750	0.914689	-0.036934
C124	C	0.840903	0.914689	-0.246688
C125	C	0.840922	0.975036	-0.307035
C126	C	0.794402	1.005220	-0.374175
C127	C	0.747869	0.975049	-0.380966
C128	C	0.747857	0.914699	-0.320619
H129	H	0.878756	0.371940	-0.067063
H130	H	0.878764	0.496906	-0.673824
H131	H	0.552594	0.890142	-0.326156
Cl132	Cl	0.899369	0.464181	-0.534601
Cl133	Cl	0.689373	0.797870	-0.465377
H134	H	0.414832	0.999585	0.067092
H135	H	0.709959	0.371916	0.067070
H136	H	0.552632	0.890100	0.067085
H137	H	1.204931	0.371945	0.192036
H138	H	0.709961	0.765137	-0.326154
Cl139	Cl	0.899394	0.876754	-0.162290
H140	H	0.878764	0.262441	-0.067055
Cl141	Cl	0.208546	1.012957	-0.298467
Cl142	Cl	0.227842	1.081085	0.000051
H143	H	1.173904	0.262487	-0.067093
Cl144	Cl	1.170228	0.249054	0.465393
H145	H	0.261423	1.054380	-0.423297
Cl146	Cl	0.689344	0.385260	0.162340
Cl147	Cl	0.418508	1.013020	-0.465371
H148	H	1.036104	0.371958	-0.067071
Cl149	Cl	0.208525	1.012993	-0.083378
H150	H	1.327251	0.207723	-0.000055
Cl151	Cl	0.689359	-0.123247	0.083447
H152	H	1.342777	0.262446	0.067013
H153	H	0.709964	-0.000388	0.067075
H154	H	0.709994	0.999635	-0.435640
H155	H	0.935754	0.015332	0.009595
Cl156	Cl	1.380190	0.249117	0.298489
Cl157	Cl	0.794424	1.081093	-0.450034
Cl158	Cl	1.360965	0.180978	0.450045
H159	H	1.204961	0.371925	0.067048
Cl160	Cl	0.689377	0.797852	-0.837664
H161	H	0.709961	0.890145	-0.326160
H162	H	0.383774	0.890127	-0.067029
Cl163	Cl	0.899419	1.012958	-0.298481
H164	H	1.036142	0.371908	0.326179
Cl165	Cl	0.380024	0.876740	-0.162280
H166	H	0.878772	0.371930	0.326156
Cl167	Cl	0.618451	0.274968	-0.011916
Cl168	Cl	0.970262	0.123330	0.011917
H169	H	0.652971	0.137232	-0.009573
H170	H	0.878771	-0.000372	-0.067049
H171	H	0.878785	-0.109877	-0.067033
Cl172	Cl	0.794371	0.180959	0.450106
Cl173	Cl	0.689360	0.249054	0.083439
H174	H	0.709974	0.765120	-0.698442
H175	H	0.652988	0.733759	-0.606104
Cl176	Cl	0.618470	0.758842	-0.495788
H177	H	0.878767	0.496926	-0.301534
Cl178	Cl	0.899364	0.464194	-0.162311
Cl179	Cl	0.970281	0.503209	-0.504195
Cl180	Cl	0.970274	0.503208	-0.367973
Cl181	Cl	0.899385	0.249094	0.465379
H182	H	0.709953	0.262415	0.301582
