data_functionalizedCrystal
_audit_creation_method	'MofGen! by Chris Wilmer'
_symmetry_space_group_name_H-M	'P1'
_symmetry_Int_Tables_number	1
_symmetry_cell_setting	triclinic
loop_
_symmetry_equiv_pos_as_xyz
  x,y,z
_cell_length_a	12.827893
_cell_length_b	14.908520
_cell_length_c	12.827885
_cell_angle_alpha	86.736484
_cell_angle_beta	90.019272
_cell_angle_gamma	93.320575
loop_
_atom_site_label
_atom_site_type_symbol
_atom_site_fract_x
_atom_site_fract_y
_atom_site_fract_z
Zn1	Zn	1.573615	-0.359115	0.614817
Zn2	Zn	1.563402	-0.509998	0.450147
Zn3	Zn	1.398853	-0.359159	0.440093
Zn4	Zn	1.388739	-0.509931	0.624843
O5	O	1.481152	-0.434551	0.532475
O6	O	1.718495	-0.379139	0.592984
O7	O	1.541533	-0.490036	0.302580
O8	O	1.430542	-0.232908	0.454867
O9	O	1.710992	-0.489993	0.472002
O10	O	1.558939	-0.232876	0.583236
O11	O	1.420640	-0.379214	0.295194
O12	O	1.251276	-0.379149	0.464589
O13	O	1.413304	-0.489879	0.769746
O14	O	1.243845	-0.489921	0.600323
O15	O	1.549132	-0.379074	0.762380
O16	O	1.531726	-0.636234	0.481724
O17	O	1.403401	-0.636184	0.610072
C18	C	1.209643	-0.434533	0.532454
C19	C	1.093489	-0.434548	0.532471
C20	C	1.038049	-0.489447	0.599545
C21	C	0.917998	-0.489463	0.599564
C22	C	1.465386	-0.668943	0.548100
C23	C	1.458737	-0.769217	0.554820
C24	C	1.580004	-0.957632	0.433905
C25	C	1.573760	-1.051849	0.440215
C26	C	1.440011	-1.051867	0.573755
C27	C	1.446255	-0.957651	0.567444
C28	C	1.516253	-0.910537	0.497516
C29	C	1.522491	-0.816319	0.491201
C30	C	1.388748	-0.816339	0.624745
C31	C	1.382504	-0.910555	0.631056
C32	C	1.753721	-0.434569	0.532497
C33	C	1.869874	-0.434576	0.532506
C34	C	1.481229	-0.434464	0.805039
C35	C	1.481262	-0.434427	0.921190
C36	C	1.497008	-0.199243	0.516811
C37	C	1.503765	-0.098969	0.510137
C38	C	1.481140	-0.434572	0.260966
C39	C	1.481327	-0.434355	0.144799
C40	C	1.548481	-0.379587	0.969329
C41	C	1.548517	-0.379547	1.089377
H42	H	0.870335	-0.536467	0.656985
H43	H	0.917530	-0.387576	0.475075
H44	H	1.052076	-0.387555	0.475065
H45	H	1.606000	-0.332662	0.921668
C46	C	1.318621	-0.764530	0.694726
C47	C	1.326224	-0.777400	0.814395
C48	C	1.256098	-0.725589	0.884371
C49	C	1.178370	-0.660908	0.834678
C50	C	1.170764	-0.648035	0.715002
C51	C	1.240889	-0.699846	0.645027
H52	H	1.383766	-0.825283	0.851187
H53	H	1.261729	-0.735118	0.972963
H54	H	1.126458	-0.622554	0.886478
H55	H	1.113222	-0.600151	0.678211
H56	H	1.235259	-0.690316	0.556435
C57	C	1.599488	-0.764490	0.414286
C58	C	1.590178	-0.777527	0.296353
C59	C	1.667180	-0.725700	0.219439
C60	C	1.753491	-0.660837	0.260458
C61	C	1.762804	-0.647797	0.378398
C62	C	1.685802	-0.699623	0.455312
H63	H	1.526282	-0.825545	0.265982
H64	H	1.660285	-0.735353	0.132132
H65	H	1.810492	-0.622471	0.203522
H66	H	1.826700	-0.599778	0.408768
H67	H	1.692697	-0.689970	0.542619
C68	C	1.626267	-0.316116	1.145312
C69	C	1.626191	-0.316167	1.265361
C70	C	1.703945	-0.252732	1.321299
C71	C	1.781773	-0.189247	1.257188
C72	C	1.781852	-0.189194	1.137132
C73	C	1.704098	-0.252628	1.081194
H74	H	1.568575	-0.363164	1.312827
H75	H	1.703886	-0.252772	1.410173
H76	H	1.839331	-0.142289	1.298596
H77	H	1.839468	-0.142196	1.089667
H78	H	1.704157	-0.252588	0.992321
C79	C	1.656992	-0.905798	0.356985
C80	C	1.647667	-0.918830	0.239051
C81	C	1.724655	-0.866996	0.162130
C82	C	1.810969	-0.802131	0.203142
C83	C	1.820298	-0.789097	0.321081
C84	C	1.743309	-0.840930	0.398003
H85	H	1.583769	-0.966849	0.208686
H86	H	1.717749	-0.876646	0.074823
H87	H	1.867960	-0.763761	0.146200
H88	H	1.884195	-0.741077	0.351446
H89	H	1.750216	-0.831281	0.485310
H90	H	1.625675	-1.090190	0.388418
C91	C	1.363035	-1.103709	0.650680
C92	C	1.276729	-1.168586	0.609677
C93	C	1.199758	-1.220431	0.686607
C94	C	1.209093	-1.207398	0.804540
C95	C	1.295403	-1.142518	0.845549
C96	C	1.372374	-1.090673	0.768619
H97	H	1.269815	-1.178236	0.522371
H98	H	1.135866	-1.268460	0.656249
H99	H	1.152114	-1.245777	0.861488
H100	H	1.302316	-1.132868	0.932855
H101	H	1.436266	-1.042645	0.798977
C102	C	1.305511	-0.962388	0.707973
C103	C	1.219200	-1.027252	0.666956
C104	C	1.142205	-1.079083	0.743873
C105	C	1.151521	-1.066049	0.861807
C106	C	1.237836	-1.001181	0.902829
C107	C	1.314831	-0.949350	0.825912
H108	H	1.212301	-1.036904	0.579649
H109	H	1.078309	-1.127103	0.713505
H110	H	1.094524	-1.104417	0.918745
H111	H	1.244735	-0.991530	0.990136
H112	H	1.378727	-0.901331	0.856281
C113	C	1.403573	-0.497789	1.088871
C114	C	1.324213	-0.458658	1.011199
C115	C	1.246459	-0.522092	0.955262
C116	C	1.248065	-0.624657	0.976996
C117	C	1.327428	-0.663793	1.054672
C118	C	1.405182	-0.600359	1.110609
H119	H	1.323021	-0.382728	0.995106
H120	H	1.187709	-0.493120	0.897761
H121	H	1.190507	-0.671614	0.935588
H122	H	1.328620	-0.739723	1.070765
H123	H	1.463931	-0.629331	1.168110
H124	H	1.079463	-0.536433	0.656958
H125	H	1.423733	-0.481343	0.968851
