data_functionalizedCrystal
_audit_creation_method	'MofGen! by Chris Wilmer'
_symmetry_space_group_name_H-M	'P1'
_symmetry_Int_Tables_number	1
_symmetry_cell_setting	triclinic
loop_
_symmetry_equiv_pos_as_xyz
  x,y,z
_cell_length_a	15.944551
_cell_length_b	17.038272
_cell_length_c	15.021413
_cell_angle_alpha	90.004029
_cell_angle_beta	89.997174
_cell_angle_gamma	87.305147
loop_
_atom_site_label
_atom_site_type_symbol
_atom_site_fract_x
_atom_site_fract_y
_atom_site_fract_z
O1	O	1.121728	0.100827	-0.073940
O2	O	0.878066	0.113259	-0.073962
O3	O	0.998449	-0.006773	-0.073944
O4	O	1.001345	0.220859	-0.073958
O5	O	0.998429	-0.006755	0.074120
O6	O	0.878046	0.113277	0.074102
O7	O	1.121708	0.100844	0.074125
Zn8	Zn	0.999874	0.107063	0.097622
Zn9	Zn	0.999900	0.107041	-0.097459
O10	O	1.001326	0.220876	0.074107
C11	C	0.846725	0.112752	0.000067
C12	C	0.753369	0.111205	0.000059
C13	C	0.995805	-0.035893	0.000088
C14	C	0.987945	-0.122688	0.000087
C15	C	0.532936	0.033105	0.000081
C16	C	0.474515	0.069363	-0.072924
C17	C	0.582443	0.108405	0.000070
C18	C	0.474519	0.069398	0.073055
C19	C	0.417337	0.105696	0.000084
C20	C	0.525252	0.144684	-0.072996
C21	C	0.525262	0.144709	0.073049
C22	C	0.466862	0.181022	0.000026
C23	C	0.677557	0.109964	0.000061
C24	C	0.322225	0.104143	0.000087
C25	C	1.060103	-0.172781	0.000094
C26	C	1.052713	-0.254334	0.000085
C27	C	0.973165	-0.285792	0.000075
C28	C	0.901002	-0.235693	0.000065
C29	C	0.908393	-0.154142	0.000068
C30	C	0.947056	-0.531558	0.000061
C31	C	0.939671	-0.613115	0.000060
C32	C	1.091383	-0.631751	0.000079
C33	C	1.098766	-0.550197	0.000087
C34	C	1.026603	-0.500105	0.000072
C35	C	0.965610	-0.369152	0.000069
C36	C	1.034159	-0.416747	0.000073
C37	C	1.153049	0.101352	0.000093
C38	C	1.246405	0.102899	0.000096
C39	C	1.003969	0.249997	0.000073
C40	C	1.011829	0.336792	0.000068
N41	N	0.999863	0.107078	0.230759
N42	N	0.999917	0.107019	-0.230597
C43	C	0.944187	0.162555	0.470434
C44	C	1.021171	0.177734	0.529775
C45	C	0.999883	0.107059	0.412366
C46	C	0.922921	0.091897	0.529768
C47	C	0.999896	0.107041	0.587790
C48	C	1.076908	0.122273	0.470400
C49	C	0.978606	0.036405	0.470388
C50	C	1.055643	0.051554	0.529702
C51	C	0.999875	0.107070	0.311309
C52	C	0.999913	0.107029	0.688846
H53	H	0.452139	0.037507	-0.134642
H54	H	1.163543	-0.524590	0.000096
H55	H	1.124879	-0.147175	0.000108
C56	C	1.045499	0.258431	0.565043
C57	C	1.131063	0.290672	0.540319
C58	C	1.155384	0.371368	0.575593
C59	C	1.094140	0.419824	0.635589
C60	C	1.008571	0.387584	0.660316
C61	C	0.984250	0.306888	0.625043
H62	H	1.176404	0.254802	0.495903
H63	H	1.218728	0.395234	0.557288
H64	H	1.112144	0.479560	0.661701
H65	H	0.963230	0.423455	0.704732
H66	H	0.920906	0.283022	0.643347
H67	H	0.547657	0.176539	0.134769
H68	H	0.849634	-0.113356	0.000061
H69	H	0.857830	0.079081	0.555848
C70	C	0.954251	-0.044276	0.435111
C71	C	0.950545	-0.059242	0.334117
C72	C	0.926179	-0.139923	0.298838
C73	C	0.905521	-0.205638	0.364553
C74	C	0.909227	-0.190674	0.465553
C75	C	0.933593	-0.109993	0.500832
H76	H	0.965838	-0.010594	0.285466
H77	H	0.923436	-0.150999	0.224071
H78	H	0.887485	-0.265363	0.338437
H79	H	0.893934	-0.239322	0.514204
H80	H	0.936336	-0.098916	0.575599
H81	H	1.098927	-0.391130	0.000061
C82	C	0.878111	-0.403764	0.000057
C83	C	0.852164	-0.457271	0.076933
C84	C	0.764666	-0.491888	0.076914
C85	C	0.703115	-0.472997	0.000020
C86	C	0.729060	-0.419487	-0.076862
C87	C	0.816558	-0.384871	-0.076843
H88	H	0.897729	-0.471257	0.133859
H89	H	0.745460	-0.531499	0.133827
H90	H	0.638343	-0.498623	0.000006
H91	H	0.683494	-0.405501	-0.133789
H92	H	0.835764	-0.345259	-0.133757
C93	C	1.119350	-0.011858	0.564648
C94	C	1.130705	-0.024074	0.665581
C95	C	1.194414	-0.087482	0.700530
C96	C	1.246769	-0.138673	0.634545
C97	C	1.235416	-0.126459	0.533605
C98	C	1.171706	-0.063051	0.498656
H99	H	1.091947	0.013822	0.714433
H100	H	1.202818	-0.096523	0.775253
H101	H	1.293931	-0.185611	0.660416
H102	H	1.274173	-0.164355	0.484754
H103	H	1.163302	-0.054010	0.423934
C104	C	0.852159	-0.647714	0.000031
C105	C	0.826243	-0.701219	-0.076865
C106	C	0.738735	-0.735815	-0.076899
C107	C	0.677143	-0.716907	-0.000035
C108	C	0.703059	-0.663399	0.076867
C109	C	0.790567	-0.628803	0.076900
H110	H	0.871838	-0.715219	-0.133769
H111	H	0.719551	-0.775425	-0.133827
H112	H	0.612365	-0.742517	-0.000060
H113	H	0.657464	-0.649400	0.133771
H114	H	0.809750	-0.589193	0.133829
C115	C	0.444301	0.026370	0.156437
C116	C	0.472331	-0.060201	0.172459
C117	C	0.442117	-0.103235	0.255836
C118	C	0.383873	-0.059698	0.323192
C119	C	0.355840	0.026877	0.307172
C120	C	0.386054	0.069911	0.223795
H121	H	0.515449	-0.092433	0.122596
H122	H	0.462869	-0.167324	0.267694
H123	H	0.361507	-0.091555	0.384912
H124	H	0.312722	0.059110	0.357035
H125	H	0.365302	0.134000	0.211937
H126	H	1.111472	-0.295117	0.000093
H127	H	0.547520	0.176503	-0.134784
H128	H	1.142018	0.135160	0.444432
H129	H	1.150134	-0.672544	0.000090
C130	C	0.880631	0.226002	0.435267
C131	C	0.891031	0.312988	0.458733
C132	C	0.827480	0.376436	0.423564
C133	C	0.753531	0.352897	0.364930
C134	C	0.743128	0.265907	0.341461
C135	C	0.806678	0.202459	0.376630
H136	H	0.945776	0.330416	0.502140
H137	H	0.835181	0.440832	0.440938
H138	H	0.706487	0.399865	0.338896
H139	H	0.688383	0.248479	0.298054
H140	H	0.798977	0.138063	0.359257
C141	C	0.813499	-0.270297	0.000048
C142	C	0.787542	-0.323794	0.076929
C143	C	0.700037	-0.358398	0.076912
C144	C	0.638490	-0.339504	0.000015
C145	C	0.664446	-0.286005	-0.076872
C146	C	0.751951	-0.251401	-0.076855
H147	H	0.833104	-0.337783	0.133858
H148	H	0.680824	-0.398002	0.133829
H149	H	0.573714	-0.365120	0.000002
H150	H	0.618884	-0.272016	-0.133801
H151	H	0.771165	-0.211797	-0.133772
C152	C	0.428082	0.265526	-0.000036
C153	C	0.446497	0.321533	-0.077331
C154	C	0.407710	0.406033	-0.077401
C155	C	0.350508	0.434527	-0.000176
C156	C	0.332090	0.378519	0.077124
C157	C	0.370877	0.294019	0.077194
H158	H	0.488844	0.300441	-0.134503
H159	H	0.421345	0.447494	-0.134624
H160	H	0.321796	0.497079	-0.000228
H161	H	0.289743	0.399611	0.134296
H162	H	0.357242	0.252558	0.134417
H163	H	0.561807	-0.029389	-0.000005
H164	H	0.888296	-0.490782	0.000049
