data_functionalizedCrystal
_audit_creation_method	'MofGen! by Chris Wilmer'
_symmetry_space_group_name_H-M	'P1'
_symmetry_Int_Tables_number	1
_symmetry_cell_setting	triclinic
loop_
_symmetry_equiv_pos_as_xyz
  x,y,z
_cell_length_a	13.897449
_cell_length_b	16.625545
_cell_length_c	13.897441
_cell_angle_alpha	89.968716
_cell_angle_beta	90.020733
_cell_angle_gamma	89.974684
loop_
_atom_site_label
_atom_site_type_symbol
_atom_site_fract_x
_atom_site_fract_y
_atom_site_fract_z
Zn1	Zn	1.474660	0.320948	0.545377
Zn2	Zn	1.974660	0.820948	1.045377
Zn3	Zn	1.474536	0.455799	0.384076
Zn4	Zn	1.974536	0.955799	0.884076
Zn5	Zn	1.313349	0.320987	0.384095
Zn6	Zn	1.813349	0.820987	0.884095
Zn7	Zn	1.313313	0.455746	0.545329
Zn8	Zn	1.813313	0.955746	1.045329
O9	O	1.393965	0.388370	0.464719
O10	O	1.893965	0.888370	0.964719
O11	O	1.609625	0.338843	0.523992
O12	O	2.109625	0.838843	1.023992
O13	O	1.453118	0.437954	0.249097
O14	O	1.953118	0.937954	0.749097
O15	O	1.334814	0.208149	0.405517
O16	O	1.834814	0.708149	0.905517
O17	O	1.609534	0.437917	0.405485
O18	O	2.109534	0.937917	0.905485
O19	O	1.453329	0.208121	0.524010
O20	O	1.953329	0.708121	1.024010
O21	O	1.334694	0.338908	0.249111
O22	O	1.834694	0.838908	0.749111
O23	O	1.178363	0.338857	0.405471
O24	O	1.678363	0.838857	0.905471
O25	O	1.334753	0.437826	0.680317
O26	O	1.834753	0.937826	1.180317
O27	O	1.178336	0.437864	0.523928
O28	O	1.678336	0.937864	1.023928
O29	O	1.453294	0.338791	0.680352
O30	O	1.953294	0.838791	1.180352
O31	O	1.453083	0.568624	0.405439
O32	O	1.953083	1.068624	0.905439
O33	O	1.334633	0.568585	0.523910
O34	O	1.834633	1.068585	1.023910
C35	C	1.143350	0.388359	0.464697
C36	C	1.643350	0.888359	0.964697
C37	C	1.036136	0.388374	0.464711
C38	C	1.536136	0.888374	0.964711
C39	C	0.839841	0.388377	0.464736
C40	C	1.339841	0.888377	0.964736
C41	C	0.949074	0.388373	0.464719
C42	C	1.449074	0.888373	0.964719
C43	C	1.393867	0.597861	0.464688
C44	C	1.893867	1.097861	0.964688
C45	C	1.393913	0.687482	0.464707
C46	C	1.893913	1.187482	0.964707
C47	C	1.394070	1.015657	0.464822
C48	C	1.894070	1.515657	0.964822
C49	C	1.394023	0.924349	0.464793
C50	C	1.894023	1.424349	0.964793
C51	C	1.393991	0.851573	0.464764
C52	C	1.893991	1.351573	0.964764
C53	C	1.393945	0.760258	0.464736
C54	C	1.893945	1.260258	0.964736
C55	C	1.645558	0.388381	0.464742
C56	C	2.145558	0.888381	0.964742
C57	C	1.752772	0.388386	0.464751
C58	C	2.252772	0.888386	0.964751
C59	C	1.394033	0.388299	0.716312
C60	C	1.894033	0.888299	1.216312
C61	C	1.394062	0.388268	0.823526
C62	C	1.894062	0.888268	1.323526
C63	C	1.394081	1.178061	0.464783
C64	C	1.894081	1.678061	0.964783
C65	C	1.394110	1.088440	0.464839
C66	C	1.894110	1.588440	0.964839
C67	C	1.393952	0.388383	0.214105
C68	C	1.893952	0.888383	0.714105
C69	C	1.394110	0.388186	0.106891
C70	C	1.894110	0.888186	0.606891
C71	C	1.394088	0.388214	1.019821
C72	C	1.894088	0.888214	1.519821
C73	C	1.394071	0.388246	0.910589
C74	C	1.894071	0.888246	1.410589
