data_functionalizedCrystal
_audit_creation_method	'MofGen! by Chris Wilmer'
_symmetry_space_group_name_H-M	'P1'
_symmetry_Int_Tables_number	1
_symmetry_cell_setting	triclinic
loop_
_symmetry_equiv_pos_as_xyz
  x,y,z
_cell_length_a	14.853567
_cell_length_b	14.853567
_cell_length_c	13.330367
_cell_angle_alpha	90.000844
_cell_angle_beta	89.995418
_cell_angle_gamma	96.365070
loop_
_atom_site_label
_atom_site_type_symbol
_atom_site_fract_x
_atom_site_fract_y
_atom_site_fract_z
O1	O	1.196369	-0.117704	-0.083346
O2	O	1.696369	0.382296	0.416654
O3	O	0.933909	-0.131725	-0.083362
O4	O	1.433909	0.368275	0.416638
O5	O	1.072150	0.006515	-0.083356
O6	O	1.572150	0.506515	0.416644
O7	O	1.058128	-0.255944	-0.083351
O8	O	1.558128	0.244056	0.416649
O9	O	1.072130	0.006519	0.083491
O10	O	1.572130	0.506519	0.583491
O11	O	0.933889	-0.131722	0.083485
O12	O	1.433889	0.368278	0.583485
O13	O	1.196349	-0.117700	0.083501
O14	O	1.696349	0.382300	0.583501
Cu15	Cu	1.065117	-0.124711	0.098728
Cu16	Cu	1.565117	0.375289	0.598728
Cu17	Cu	1.065141	-0.124715	-0.098588
Cu18	Cu	1.565141	0.375285	0.401412
O19	O	1.058108	-0.255941	0.083496
O20	O	1.558108	0.244059	0.583496
C21	C	0.900311	-0.131088	0.000060
C22	C	1.400311	0.368912	0.500060
C23	C	0.800227	-0.129184	0.000053
C24	C	1.300227	0.370816	0.500053
C25	C	0.387693	-0.039019	0.000074
C26	C	0.887693	0.460981	0.500074
C27	C	0.366412	-0.203251	0.000076
C28	C	0.866412	0.296749	0.500076
C29	C	0.460446	-0.205042	0.000073
C30	C	0.960446	0.294958	0.500073
C31	C	0.518108	-0.123819	0.000069
C32	C	1.018108	0.376181	0.500069
C33	C	0.481736	-0.040806	0.000067
C34	C	0.981736	0.459194	0.500067
C35	C	0.496825	-0.288053	0.000064
C36	C	0.996825	0.211947	0.500064
C37	C	0.590864	-0.289846	0.000059
C38	C	1.090864	0.210154	0.500059
C39	C	0.648528	-0.208623	0.000062
C40	C	1.148528	0.291377	0.500062
C41	C	0.612150	-0.125607	0.000062
C42	C	1.112150	0.374393	0.500062
C43	C	0.669812	-0.044384	0.000058
C44	C	1.169812	0.455616	0.500058
C45	C	0.633437	0.038633	0.000065
C46	C	1.133437	0.538633	0.500065
C47	C	0.539399	0.040417	0.000070
C48	C	1.039399	0.540417	0.500070
C49	C	0.742565	-0.210407	0.000057
C50	C	1.242565	0.289593	0.500057
C51	C	0.763855	-0.046172	0.000052
C52	C	1.263855	0.453828	0.500052
C53	C	1.071504	0.040106	0.000064
C54	C	1.571504	0.540106	0.500064
C55	C	1.069601	0.140189	0.000055
C56	C	1.569601	0.640189	0.500055
C57	C	1.229947	-0.118337	0.000078
C58	C	1.729947	0.381663	0.500078
C59	C	1.330031	-0.120241	0.000078
C60	C	1.830031	0.379759	0.500078
C61	C	1.058754	-0.289531	0.000073
C62	C	1.558754	0.210469	0.500073
C63	C	1.060657	-0.389615	0.000075
C64	C	1.560657	0.110385	0.500075
N65	N	1.065107	-0.124708	0.237509
N66	N	1.565107	0.375292	0.737509
C67	C	0.979435	0.552723	0.000069
C68	C	1.479435	1.052723	0.500069
C69	C	1.143668	0.574004	0.000079
C70	C	1.643668	1.074004	0.500079
C71	C	1.145458	0.479971	0.000073
C72	C	1.645458	0.979971	0.500073
C73	C	1.064235	0.422309	0.000067
C74	C	1.564235	0.922309	0.500067
C75	C	0.981223	0.458680	0.000066
C76	C	1.481223	0.958680	0.500066
C77	C	1.228469	0.443591	0.000084
C78	C	1.728469	0.943591	0.500084
C79	C	1.230262	0.349552	0.000079
C80	C	1.730262	0.849552	0.500079
C81	C	1.149039	0.291889	0.000066
C82	C	1.649039	0.791889	0.500066
C83	C	1.066023	0.328266	0.000064
C84	C	1.566023	0.828266	0.500064
C85	C	0.984800	0.270604	0.000058
C86	C	1.484800	0.770604	0.500058
C87	C	0.901783	0.306979	0.000049
C88	C	1.401783	0.806979	0.500049
C89	C	0.899999	0.401017	0.000053
C90	C	1.399999	0.901017	0.500053
C91	C	1.150823	0.197851	0.000062
C92	C	1.650823	0.697851	0.500062
C93	C	0.986588	0.176561	0.000055
C94	C	1.486588	0.676561	0.500055
N95	N	1.065158	-0.124711	-0.237370
N96	N	1.565158	0.375289	0.262630
C97	C	1.003925	-0.185903	0.710130
C98	C	1.503925	0.314097	1.210130
C99	C	1.126381	-0.063519	0.710103
C100	C	1.626381	0.436481	1.210103
C101	C	1.126371	-0.063516	0.605084
C102	C	1.626371	0.436484	1.105084
C103	C	1.065138	-0.124709	0.552584
C104	C	1.565138	0.375291	1.052584
C105	C	1.003915	-0.185904	0.605102
C106	C	1.503915	0.314096	1.105102
C107	C	1.187598	-0.002328	0.552559
C108	C	1.687598	0.497672	1.052559
C109	C	1.187591	-0.002323	0.447534
C110	C	1.687591	0.497677	0.947534
C111	C	1.126353	-0.063512	0.395031
C112	C	1.626353	0.436488	0.895031
C113	C	1.065127	-0.124710	0.447556
C114	C	1.565127	0.375290	0.947556
C115	C	1.003895	-0.185902	0.395055
C116	C	1.503895	0.314098	0.895055
C117	C	0.942664	-0.247096	0.447578
C118	C	1.442664	0.252904	0.947578
C119	C	0.942677	-0.247093	0.552599
C120	C	1.442677	0.252907	1.052599
C121	C	1.126340	-0.063515	0.290010
C122	C	1.626340	0.436485	0.790010
C123	C	1.003884	-0.185903	0.290027
C124	C	1.503884	0.314097	0.790027
H125	H	0.319459	-0.269379	0.000071
H126	H	0.819459	0.230621	0.500071
H127	H	0.954018	-0.235731	0.247288
H128	H	1.454018	0.264269	0.747288
H129	H	1.237447	0.047504	0.404776
H130	H	1.737447	0.547504	0.904776
H131	H	0.892811	-0.296924	0.404820
H132	H	1.392811	0.203076	0.904820
H133	H	0.892826	-0.296916	0.595370
H134	H	1.392826	0.203084	1.095370
H135	H	1.176197	-0.013696	0.247251
H136	H	1.676197	0.486304	0.747251
Br137	Br	0.920824	-0.268943	0.781403
Br138	Br	1.420824	0.231057	1.281403
Br139	Br	1.209488	0.019518	0.781349
Br140	Br	1.709488	0.519518	1.281349
H141	H	0.449870	-0.354180	0.000057
H142	H	0.949870	0.145820	0.500057
Br143	Br	1.338693	0.521849	0.000120
Br144	Br	1.838693	1.021849	0.500120
H145	H	0.680397	0.104764	0.000055
H146	H	1.180397	0.604764	0.500055
H147	H	0.810798	0.019971	0.000052
H148	H	1.310798	0.519971	0.500052
Br149	Br	0.490027	0.153073	0.000077
Br150	Br	0.990027	0.653073	0.500077
H151	H	0.358072	0.028572	0.000083
H152	H	0.858072	0.528572	0.500083
H153	H	0.620472	-0.357443	0.000053
H154	H	1.120472	0.142557	0.500053
Br155	Br	0.791930	-0.323063	0.000036
Br156	Br	1.291930	0.176937	0.500036
H157	H	0.920445	0.129618	0.000045
H158	H	1.420445	0.629618	0.500045
Br159	Br	0.791557	0.228714	0.000053
Br160	Br	1.291557	0.728714	0.500053
H161	H	0.832411	0.430643	0.000046
H162	H	1.332411	0.930643	0.500046
H163	H	1.237457	0.047489	0.595308
H164	H	1.737457	0.547489	1.095308
H165	H	0.911844	0.582344	0.000058
H166	H	1.411844	1.082344	0.500058
H167	H	1.209795	0.620958	0.000092
H168	H	1.709795	1.120958	0.500092
H169	H	1.297860	0.319944	0.000085
H170	H	1.797860	0.819944	0.500085
Br171	Br	1.263479	0.148487	0.000098
Br172	Br	1.763479	0.648487	0.500098
