data_functionalizedCrystal
_audit_creation_method	'MofGen! by Chris Wilmer'
_symmetry_space_group_name_H-M	'P1'
_symmetry_Int_Tables_number	1
_symmetry_cell_setting	triclinic
loop_
_symmetry_equiv_pos_as_xyz
  x,y,z
_cell_length_a	16.704493
_cell_length_b	16.704503
_cell_length_c	12.477952
_cell_angle_alpha	59.794926
_cell_angle_beta	80.538481
_cell_angle_gamma	60.347003
loop_
_atom_site_label
_atom_site_type_symbol
_atom_site_fract_x
_atom_site_fract_y
_atom_site_fract_z
Zr1	Zr	0.842776	0.818953	-0.143556
O2	O	0.736084	0.975044	-0.289762
O3	O	0.868287	0.662862	-0.108599
O4	O	0.894298	0.818952	-0.320440
O5	O	0.697740	0.818954	0.100403
O6	O	1.027285	0.818950	-0.333420
O7	O	0.710073	0.818954	-0.077921
O8	O	0.980757	0.539734	0.045526
O9	O	0.744269	1.098171	-0.278542
O10	O	0.987108	0.727063	-0.091460
O11	O	0.878657	0.727064	0.051308
O12	O	0.909282	0.910840	-0.198108
O13	O	0.800831	0.910841	-0.055341
Zr14	Zr	1.035206	0.818950	0.120150
Zr15	Zr	1.054875	0.818950	-0.164257
Zr16	Zr	0.823106	0.818953	0.140851
Zr17	Zr	0.855830	1.015325	-0.125661
Zr18	Zr	1.022152	0.622577	0.102255
O19	O	1.009695	0.975041	0.085193
O20	O	1.037662	0.975041	-0.319196
O21	O	0.708116	0.975045	0.114627
O22	O	1.141898	0.662859	0.266356
O23	O	1.169865	0.662858	-0.138033
O24	O	0.840320	0.662862	0.295790
O25	O	1.180242	0.818949	-0.123809
O26	O	0.983684	0.818951	0.297034
O27	O	0.850696	0.818952	0.310014
O28	O	1.167909	0.818949	0.054515
O29	O	0.912860	1.098169	-0.294997
O30	O	0.965122	0.539734	0.271591
O31	O	1.133713	0.539732	0.255136
O32	O	1.149347	0.539732	0.029071
O33	O	0.728634	1.098171	-0.052477
O34	O	0.897225	1.098169	-0.068932
O35	O	0.968700	0.727063	0.174702
O36	O	1.077151	0.727062	0.031935
O37	O	0.999325	0.910839	-0.074714
O38	O	0.890874	0.910840	0.068054
C39	C	0.922662	0.573319	-0.034086
C40	C	0.917120	0.489953	-0.041683
C41	C	0.673687	0.818955	0.014190
C42	C	0.583645	0.818956	0.022978
C43	C	1.030627	0.197619	0.113894
C44	C	1.025422	0.119287	0.106761
C45	C	0.901500	0.254955	-0.063077
C46	C	0.906706	0.333287	-0.055943
C47	C	0.971272	0.304614	0.032544
C48	C	0.976481	0.382948	0.039671
C49	C	0.852556	0.518614	-0.130160
C50	C	0.847350	0.440282	-0.137293
C51	C	0.428044	0.818938	-0.157001
C52	C	0.343442	0.818939	-0.148749
C53	C	0.329841	0.818951	0.047737
C54	C	0.414443	0.818950	0.039486
C55	C	0.463541	0.818945	-0.062888
C56	C	0.548141	0.818952	-0.071143
C57	C	0.534542	0.818956	0.125347
C58	C	0.449940	0.818957	0.133599
C59	C	1.204295	0.818948	-0.037596
C60	C	1.294337	0.818947	-0.046384
C61	C	0.963594	0.818951	-0.367452
C62	C	0.971944	0.818951	-0.488190
C63	C	0.955320	1.064584	0.010680
C64	C	0.960862	1.147949	0.018277
C65	C	0.914387	0.818952	0.344046
C66	C	0.906037	0.818952	0.464784
C67	C	1.187966	0.573316	-0.059980
C68	C	1.272466	0.489949	-0.076365
C69	C	0.898058	0.573319	0.321663
C70	C	0.884166	0.489954	0.434804
C71	C	1.163363	0.573316	0.295769
C72	C	1.239512	0.489950	0.400122
C73	C	0.714619	1.064587	-0.319175
C74	C	0.638469	1.147953	-0.423529
C75	C	0.690016	1.064587	0.036574
C76	C	0.605516	1.147954	0.052958
C77	C	0.979923	1.064584	-0.345069
C78	C	0.993815	1.147949	-0.458210
C79	C	1.265147	0.450800	-0.148482
C80	C	1.344538	0.372479	-0.163902
C81	C	1.431246	0.333304	-0.107196
C82	C	1.438564	0.372461	-0.035076
C83	C	1.359174	0.450785	-0.019664
C84	C	0.924643	0.450804	0.552359
C85	C	0.911586	0.372484	0.658680
C86	C	0.858058	0.333311	0.647441
C87	C	0.817576	0.372468	0.529874
C88	C	0.830628	0.450792	0.423557
C89	C	1.331892	0.450799	0.374604
C90	C	1.403453	0.372478	0.472644
C91	C	1.382631	0.333304	0.596202
C92	C	1.290242	0.372462	0.621719
C93	C	1.218684	0.450787	0.523681
C94	C	0.546090	1.187113	-0.398009
C95	C	0.474531	1.265458	-0.496047
C96	C	0.495353	1.304637	-0.619604
C97	C	0.587742	1.265473	-0.645123
C98	C	0.659299	1.187135	-0.547085
C99	C	0.612836	1.187111	0.125065
C100	C	0.533448	1.265454	0.140455
C101	C	0.446741	1.304632	0.083746
C102	C	0.439423	1.265471	0.011631
C103	C	0.518810	1.187135	-0.003766
C104	C	1.047349	1.187098	-0.446932
C105	C	1.060420	1.265418	-0.553232
C106	C	1.019951	1.304593	-0.670808
C107	C	0.966415	1.265437	-0.682084
C108	C	0.953350	1.187113	-0.575786
H109	H	1.029056	0.359597	0.111720
H110	H	0.933468	1.297345	-0.777828
H111	H	1.030596	1.368370	-0.757353
H112	H	0.734518	1.155252	-0.567879
H113	H	0.563451	0.818966	0.201978
H114	H	1.338562	0.340607	-0.222627
Cl115	Cl	0.886035	1.137916	-0.589983
H116	H	0.588115	0.818952	-0.154503
Cl117	Cl	1.068921	0.818958	-0.568641
Cl118	Cl	0.777941	0.653132	-0.232445
Cl119	Cl	1.111805	0.161578	0.225116
Cl120	Cl	0.330411	1.314731	-0.059647
H121	H	0.437078	1.368424	-0.699421
H122	H	1.073754	0.032168	0.173006
H123	H	0.529118	1.155218	-0.297410
H124	H	1.080307	1.155214	-0.351206
H125	H	0.848924	0.278283	-0.135106
Cl126	Cl	0.766182	0.476316	-0.248523
Cl127	Cl	0.841661	0.234843	0.781111
H128	H	0.604686	1.297383	-0.745734
Cl129	Cl	0.509591	1.137911	-0.094411
Cl130	Cl	0.779741	0.499993	0.275777
Cl131	Cl	1.127719	1.314634	-0.539028
H132	H	0.468016	0.818945	-0.240364
H133	H	0.314544	0.818932	-0.225384
Cl134	Cl	0.268117	0.818941	0.176437
H135	H	0.683429	1.155218	0.171255
Cl136	Cl	0.809049	0.818961	-0.454770
Cl137	Cl	0.346947	1.403110	0.103118
Cl138	Cl	0.388213	0.818960	0.262292
H139	H	1.194554	0.482696	-0.194676
H140	H	1.495883	0.269526	-0.119754
Cl141	Cl	1.368390	0.499985	0.071014
Cl142	Cl	1.547575	0.323195	0.036210
Cl143	Cl	0.991943	0.500032	0.566520
H144	H	0.944557	0.340611	0.754397
Cl145	Cl	0.750287	0.323207	0.515766
Cl146	Cl	0.358395	1.314672	-0.463939
Cl147	Cl	1.358093	0.500037	0.219284
H148	H	1.478674	0.340604	0.451845
Cl149	Cl	1.472601	0.234836	0.719438
H150	H	1.143465	0.482653	0.544476
Cl151	Cl	1.264081	0.323202	0.777057
H152	H	0.539424	1.297325	0.199182
