data_functionalizedCrystal
_audit_creation_method	'MofGen! by Chris Wilmer'
_symmetry_space_group_name_H-M	'P1'
_symmetry_Int_Tables_number	1
_symmetry_cell_setting	triclinic
loop_
_symmetry_equiv_pos_as_xyz
  x,y,z
_cell_length_a	27.732048
_cell_length_b	10.723023
_cell_length_c	9.198806
_cell_angle_alpha	89.999052
_cell_angle_beta	90.001567
_cell_angle_gamma	83.555101
loop_
_atom_site_label
_atom_site_type_symbol
_atom_site_fract_x
_atom_site_fract_y
_atom_site_fract_z
O1	O	0.641849	0.148462	-0.120699
O2	O	0.501195	0.171036	-0.120742
O3	O	0.574767	-0.021961	-0.120718
O4	O	0.568277	0.341460	-0.120723
O5	O	0.574761	-0.021962	0.121067
O6	O	0.501189	0.171036	0.121043
O7	O	0.641843	0.148462	0.121086
Cu8	Cu	0.571516	0.159749	0.143142
Cu9	Cu	0.571522	0.159749	-0.142797
O10	O	0.568272	0.341459	0.121062
C11	C	0.483183	0.170562	0.000145
C12	C	0.429519	0.169135	0.000129
C13	C	0.091356	0.274201	0.000190
C14	C	-0.110336	0.268907	0.000203
O15	O	-0.140996	0.364983	0.000265
N16	N	-0.130171	0.154468	0.000202
C17	C	-0.099578	0.041344	0.000207
O18	O	-0.121077	-0.056116	0.000222
C19	C	0.102113	0.046639	0.000205
C20	C	0.121944	0.161086	0.000191
C21	C	0.111188	0.388639	0.000178
C22	C	0.161608	0.389961	0.000167
C23	C	0.192196	0.276846	0.000168
C24	C	0.172365	0.162408	0.000180
C25	C	0.132704	-0.066484	0.000220
C26	C	0.183130	-0.065150	0.000223
C27	C	0.202961	0.049297	0.000210
C28	C	0.253373	0.050615	0.000170
N29	N	0.273207	0.165055	0.000171
C30	C	0.242619	0.278170	0.000170
C31	C	-0.205470	0.038571	0.000206
C32	C	-0.255892	0.037247	0.000204
C33	C	-0.266647	0.264812	0.000203
C34	C	-0.216223	0.266134	0.000194
C35	C	-0.185635	0.153011	0.000207
C36	C	0.348505	0.280939	0.000145
C37	C	0.398930	0.282251	0.000128
C38	C	0.409681	0.054687	0.000137
C39	C	0.359260	0.053374	0.000146
C40	C	0.328673	0.166510	0.000155
O41	O	0.284061	-0.045409	0.000124
O42	O	0.264127	0.375615	0.000188
C43	C	0.040936	0.272879	0.000201
C44	C	0.021104	0.158441	0.000213
C45	C	0.051692	0.045326	0.000214
C46	C	-0.029319	0.157117	0.000212
C47	C	-0.059907	0.270233	0.000211
C48	C	-0.040073	0.384672	0.000212
C49	C	0.010347	0.385994	0.000201
C50	C	0.031858	-0.069114	0.000213
C51	C	-0.018562	-0.070427	0.000223
C52	C	-0.049151	0.042689	0.000222
C53	C	0.574291	-0.068442	0.000172
C54	C	0.572879	-0.206937	0.000163
C55	C	0.659856	0.148936	0.000196
C56	C	0.713519	0.150363	0.000203
N57	N	0.571514	0.159748	0.344256
C58	C	0.568747	0.387940	0.000170
C59	C	0.570159	0.526435	0.000169
C60	C	0.572246	0.731317	0.125416
C61	C	0.570786	0.588174	0.125419
N62	N	0.571528	0.159740	-0.343911
C63	C	0.602405	0.078362	0.416463
C64	C	0.602412	0.078357	0.583875
H65	H	0.323607	0.373065	0.000157
H66	H	-0.180569	-0.053553	0.000217
Br67	Br	0.527448	0.275895	0.552611
H68	H	0.177750	0.483156	0.000155
Br69	Br	0.571986	0.704554	-0.178572
Br70	Br	0.573150	0.819822	0.304151
H71	H	0.415074	0.375451	0.000116
H72	H	0.086287	0.480757	0.000183
Br73	Br	0.646354	-0.038084	0.312940
Br74	Br	0.105804	-0.221815	0.000207
Br75	Br	0.646498	-0.037774	0.687363
H76	H	-0.200081	0.359327	0.000191
Br77	Br	0.569873	0.499682	0.304160
H78	H	-0.291561	0.356914	0.000202
H79	H	0.545071	0.229418	0.406375
Br80	Br	-0.282800	-0.118080	0.000179
Br81	Br	0.224640	-0.218684	0.000249
H82	H	0.434595	-0.037408	0.000132
Br83	Br	0.037253	0.541324	0.000179
Br84	Br	0.332345	-0.101947	0.000170
H85	H	-0.064987	0.476775	0.000205
H86	H	-0.034704	-0.163630	0.000222
H87	H	0.056759	-0.161228	0.000218
H88	H	0.570699	0.579529	-0.107070
