data_functionalizedCrystal
_audit_creation_method	'MofGen! by Chris Wilmer'
_symmetry_space_group_name_H-M	'P1'
_symmetry_Int_Tables_number	1
_symmetry_cell_setting	triclinic
loop_
_symmetry_equiv_pos_as_xyz
  x,y,z
_cell_length_a	18.050589
_cell_length_b	18.050591
_cell_length_c	19.805399
_cell_angle_alpha	90.024639
_cell_angle_beta	89.972193
_cell_angle_gamma	89.983460
loop_
_atom_site_label
_atom_site_type_symbol
_atom_site_fract_x
_atom_site_fract_y
_atom_site_fract_z
Zn1	Zn	-0.295756	-1.135359	-0.382810
Zn2	Zn	0.037578	-0.802026	-0.049477
Zn3	Zn	0.370911	-0.468693	0.283857
Zn4	Zn	-0.419948	-1.135279	-0.269621
Zn5	Zn	-0.086615	-0.801945	0.063712
Zn6	Zn	0.246719	-0.468612	0.397045
Zn7	Zn	-0.295768	-1.011171	-0.269625
Zn8	Zn	0.037566	-0.677837	0.063709
Zn9	Zn	0.370899	-0.344504	0.397042
Zn10	Zn	-0.419900	-1.011143	-0.382758
Zn11	Zn	-0.086566	-0.677810	-0.049425
Zn12	Zn	0.246767	-0.344477	0.283909
O13	O	-0.357843	-1.073238	-0.326204
O14	O	-0.024509	-0.739905	0.007130
O15	O	0.308824	-0.406571	0.340463
O16	O	-0.312245	-1.239273	-0.367816
O17	O	0.021088	-0.905940	-0.034482
O18	O	0.354421	-0.572607	0.298851
O19	O	-0.403500	-1.118793	-0.174905
O20	O	-0.070167	-0.785460	0.158428
O21	O	0.263166	-0.452127	0.491762
O22	O	-0.191841	-1.027690	-0.284662
O23	O	0.141492	-0.694356	0.048671
O24	O	0.474825	-0.361023	0.382005
O25	O	-0.403489	-1.239214	-0.284656
O26	O	-0.070155	-0.905881	0.048677
O27	O	0.263178	-0.572547	0.382010
O28	O	-0.191833	-1.118931	-0.367819
O29	O	0.141501	-0.785597	-0.034486
O30	O	0.474834	-0.452264	0.298848
O31	O	-0.312265	-1.027611	-0.174908
O32	O	0.021068	-0.694278	0.158426
O33	O	0.354401	-0.360945	0.491759
O34	O	-0.312219	-0.907242	-0.284612
O35	O	0.021115	-0.573909	0.048722
O36	O	0.354448	-0.240576	0.382055
O37	O	-0.403407	-1.027643	-0.477482
O38	O	-0.070073	-0.694310	-0.144148
O39	O	0.263260	-0.360977	0.189185
O40	O	-0.403418	-0.907222	-0.367730
O41	O	-0.070085	-0.573889	-0.034397
O42	O	0.263248	-0.240556	0.298936
O43	O	-0.312199	-1.118904	-0.477520
O44	O	0.021135	-0.785571	-0.144186
O45	O	0.354468	-0.452238	0.189147
O46	O	-0.523866	-1.118767	-0.284606
O47	O	-0.190533	-0.785433	0.048727
O48	O	0.142801	-0.452100	0.382061
O49	O	-0.523831	-1.027565	-0.367727
O50	O	-0.190497	-0.694232	-0.034394
O51	O	0.142836	-0.360898	0.298940
C52	C	-0.357815	-0.880286	-0.326166
C53	C	-0.024482	-0.546953	0.007167
C54	C	0.308852	-0.213619	0.340501
C55	C	-0.357821	-0.797740	-0.326166
C56	C	-0.024488	-0.464407	0.007167
C57	C	0.308846	-0.131073	0.340501
C58	C	-0.550795	-1.073174	-0.326175
C59	C	-0.217462	-0.739841	0.007158
C60	C	0.115872	-0.406508	0.340491
C61	C	-0.633341	-1.073215	-0.326186
C62	C	-0.300007	-0.739882	0.007147
C63	C	0.033326	-0.406548	0.340481
C64	C	-0.357796	-1.073280	-0.502746
C65	C	-0.024463	-0.739946	-0.169413
C66	C	0.308871	-0.406613	0.163920
C67	C	-0.357776	-1.073297	-0.577978
C68	C	-0.024443	-0.739964	-0.244645
C69	C	0.308891	-0.406631	0.088688
C70	C	-0.882158	-1.122940	-0.281060
C71	C	-0.548825	-0.789606	0.052274
C72	C	-0.215492	-0.456273	0.385607
C73	C	-0.832822	-1.055181	-0.264429
C74	C	-0.499489	-0.721848	0.068905
C75	C	-0.166156	-0.388514	0.402238
C76	C	-0.930461	-1.073308	-0.326238
C77	C	-0.597128	-0.739975	0.007095
C78	C	-0.263794	-0.406642	0.340429
C79	C	-0.832715	-1.141017	-0.342811
C80	C	-0.499382	-0.807683	-0.009478
C81	C	-0.166049	-0.474350	0.323855
C82	C	-0.784476	-1.073266	-0.326211
C83	C	-0.451143	-0.739933	0.007123
C84	C	-0.117809	-0.406599	0.340456
C85	C	-0.882212	-1.005514	-0.309575
C86	C	-0.548879	-0.672181	0.023758
C87	C	-0.215546	-0.338847	0.357091
C88	C	-0.882110	-1.091396	-0.387987
C89	C	-0.548776	-0.758062	-0.054653
C90	C	-0.215443	-0.424729	0.278680
C91	C	-0.832796	-1.023590	-0.371379
C92	C	-0.499462	-0.690257	-0.038046
C93	C	-0.166129	-0.356923	0.295287
C94	C	-1.014559	-1.073334	-0.326252
C95	C	-0.681226	-0.740000	0.007081
C96	C	-0.347893	-0.406667	0.340415
C97	C	-0.700379	-1.073233	-0.326197
C98	C	-0.367046	-0.739900	0.007136
C99	C	-0.033713	-0.406566	0.340470
C100	C	-0.164137	-1.073322	-0.326247
C101	C	0.169196	-0.739989	0.007087
C102	C	0.502530	-0.406656	0.340420
C103	C	-0.081591	-1.073358	-0.326265
C104	C	0.251742	-0.740025	0.007068
C105	C	0.585075	-0.406692	0.340402
C106	C	-0.357871	-1.266944	-0.326241
C107	C	-0.024538	-0.933610	0.007092
C108	C	0.308796	-0.600277	0.340425
C109	C	-0.357883	-1.349489	-0.326258
C110	C	-0.024550	-1.016156	0.007076
C111	C	0.308784	-0.682823	0.340409
C112	C	-0.308169	-0.598279	-0.281070
C113	C	0.025164	-0.264946	0.052263
C114	C	0.358497	0.068388	0.385596
C115	C	-0.375907	-0.548867	-0.264412
C116	C	-0.042573	-0.215534	0.068921
C117	C	0.290760	0.117800	0.402254
C118	C	-0.357844	-0.646610	-0.326197
C119	C	-0.024510	-0.313276	0.007137
C120	C	0.308823	0.020057	0.340470
C121	C	-0.290130	-0.548940	-0.342853
C122	C	0.043203	-0.215607	-0.009520
C123	C	0.376537	0.117727	0.323814
C124	C	-0.357859	-0.500625	-0.326225
C125	C	-0.024526	-0.167291	0.007108
C126	C	0.308807	0.166042	0.340442
C127	C	-0.425616	-0.598285	-0.309506
C128	C	-0.092283	-0.264952	0.023827
C129	C	0.241050	0.068381	0.357160
C130	C	-0.339794	-0.598362	-0.387976
C131	C	-0.006461	-0.265029	-0.054643
C132	C	0.326872	0.068304	0.278691
C133	C	-0.407578	-0.548973	-0.371341
C134	C	-0.074245	-0.215640	-0.038008
C135	C	0.259089	0.117694	0.295325
C136	C	-0.357834	-0.730708	-0.326179
C137	C	-0.024500	-0.397375	0.007155
C138	C	0.308833	-0.064041	0.340488
C139	C	-0.357877	-0.416528	-0.326243
C140	C	-0.024544	-0.083195	0.007090
C141	C	0.308789	0.250139	0.340424
C142	C	-0.310282	-1.120818	-0.613343
C143	C	0.023052	-0.787485	-0.280010
C144	C	0.356385	-0.454151	0.053323
C145	C	-0.310260	-1.120826	-0.684032
C146	C	0.023073	-0.787492	-0.350699
C147	C	0.356407	-0.454159	-0.017365
C148	C	-0.357737	-1.073316	-0.719354
C149	C	-0.024404	-0.739983	-0.386021
C150	C	0.308929	-0.406649	-0.052687
C151	C	-0.405234	-1.025790	-0.683984
C152	C	-0.071900	-0.692457	-0.350651
C153	C	0.261433	-0.359123	-0.017317
C154	C	-0.405251	-1.025779	-0.613297
C155	C	-0.071918	-0.692446	-0.279963
C156	C	0.261416	-0.359112	0.053370
C157	C	-0.405165	-1.025832	-0.969057
C158	C	-0.071831	-0.692499	-0.635724
C159	C	0.261502	-0.359165	-0.302391
C160	C	-0.405145	-1.025848	-1.039750
C161	C	-0.071812	-0.692515	-0.706416
C162	C	0.261521	-0.359181	-0.373083
C163	C	-0.310174	-1.120878	-1.039793
C164	C	0.023160	-0.787545	-0.706459
C165	C	0.356493	-0.454212	-0.373126
C166	C	-0.310191	-1.120868	-0.969105
C167	C	0.023142	-0.787534	-0.635772
C168	C	0.356476	-0.454201	-0.302439
C169	C	-0.357684	-1.073339	-0.933742
C170	C	-0.024351	-0.740006	-0.600408
C171	C	0.308982	-0.406673	-0.267075
C172	C	-0.357706	-1.073331	-0.857093
C173	C	-0.024373	-0.739997	-0.523760
C174	C	0.308961	-0.406664	-0.190426
C175	C	-0.357720	-1.073328	-0.796001
C176	C	-0.024386	-0.739994	-0.462668
C177	C	0.308947	-0.406661	-0.129335
C178	C	-0.357836	-1.073239	-0.150348
C179	C	-0.024502	-0.739906	0.182986
C180	C	0.308831	-0.406573	0.516319
C181	C	-0.357646	-1.073365	-0.075116
C182	C	-0.024313	-0.740032	0.258217
C183	C	0.309020	-0.406699	0.591551
H184	H	-0.903832	-1.164877	-0.242836
H185	H	-0.570499	-0.831544	0.090497
H186	H	-0.237166	-0.498210	0.423831
H187	H	-0.324495	-0.620120	-0.440194
H188	H	0.008838	-0.286786	-0.106860
H189	H	0.342171	0.046547	0.226473
Br190	Br	-0.194677	-0.512803	-0.366312
Br191	Br	0.138656	-0.179470	-0.032979
Br192	Br	0.471989	0.153863	0.300355
H193	H	-0.271622	-1.159509	-0.584589
H194	H	0.061711	-0.826175	-0.251256
H195	H	0.395044	-0.492842	0.082077
Br196	Br	-0.521101	-0.634256	-0.285945
Br197	Br	-0.187768	-0.300922	0.047388
Br198	Br	0.145565	0.032411	0.380721
Br199	Br	-0.477681	-0.513113	-0.434970
Br200	Br	-0.144348	-0.179780	-0.101636
Br201	Br	0.188985	0.153553	0.231697
H202	H	-0.443888	-0.987104	-0.712749
H203	H	-0.110554	-0.653771	-0.379415
H204	H	0.222779	-0.320437	-0.046082
Br205	Br	-0.401374	-0.512632	-0.177355
Br206	Br	-0.068041	-0.179299	0.155978
Br207	Br	0.265293	0.154035	0.489312
H208	H	-0.811171	-1.039859	-0.212197
H209	H	-0.477837	-0.706526	0.121136
H210	H	-0.144504	-0.373193	0.454469
H211	H	-0.271587	-1.159524	-0.712823
H212	H	0.061746	-0.826190	-0.379490
H213	H	0.395080	-0.492857	-0.046156
H214	H	-0.271533	-1.159558	-0.940350
H215	H	0.061801	-0.826224	-0.607016
H216	H	0.395134	-0.492891	-0.273683
H217	H	-0.903861	-0.948220	-0.295487
H218	H	-0.570528	-0.614886	0.037846
H219	H	-0.237195	-0.281553	0.371179
Br220	Br	-0.918229	-1.116966	-0.475018
Br221	Br	-0.584896	-0.783632	-0.141685
Br222	Br	-0.251562	-0.450299	0.191649
Br223	Br	-0.469706	-0.961280	-0.565300
Br224	Br	-0.136372	-0.627946	-0.231967
Br225	Br	0.196961	-0.294613	0.101366
H226	H	-0.271500	-1.159576	-1.068594
H227	H	0.061834	-0.826242	-0.735261
H228	H	0.395167	-0.492909	-0.401928
H229	H	-0.443808	-0.987156	-1.068507
H230	H	-0.110475	-0.653823	-0.735173
H231	H	0.222858	-0.320490	-0.401840
H232	H	-0.443847	-0.987142	-0.940273
H233	H	-0.110514	-0.653809	-0.606939
H234	H	0.222819	-0.320476	-0.273606
H235	H	-0.811259	-0.981552	-0.409574
H236	H	-0.477925	-0.648219	-0.076240
H237	H	-0.144592	-0.314885	0.257093
H238	H	-0.810974	-1.198294	-0.356840
H239	H	-0.477641	-0.864961	-0.023506
H240	H	-0.144307	-0.531628	0.309827
H241	H	-0.266207	-0.619928	-0.242867
H242	H	0.067127	-0.286595	0.090466
H243	H	0.400460	0.046738	0.423800
