data_functionalizedCrystal
_audit_creation_method	'MofGen! by Chris Wilmer'
_symmetry_space_group_name_H-M	'P1'
_symmetry_Int_Tables_number	1
_symmetry_cell_setting	triclinic
loop_
_symmetry_equiv_pos_as_xyz
  x,y,z
_cell_length_a	12.594517
_cell_length_b	19.805405
_cell_length_c	19.805399
_cell_angle_alpha	90.029301
_cell_angle_beta	89.981060
_cell_angle_gamma	89.973790
loop_
_atom_site_label
_atom_site_type_symbol
_atom_site_fract_x
_atom_site_fract_y
_atom_site_fract_z
Zn1	Zn	1.627165	0.269482	-0.382700
Zn2	Zn	1.627031	0.382671	-0.269508
Zn3	Zn	1.449177	0.269501	-0.269526
Zn4	Zn	1.449119	0.382634	-0.382656
O5	O	1.538123	0.326072	-0.326098
O6	O	1.776093	0.284505	-0.367696
O7	O	1.603406	0.367681	-0.174794
O8	O	1.472867	0.174782	-0.284564
O9	O	1.775995	0.367664	-0.284535
O10	O	1.603635	0.174768	-0.367713
O11	O	1.472737	0.284536	-0.174807
O12	O	1.300223	0.284501	-0.284522
O13	O	1.472769	0.367602	-0.477379
O14	O	1.300181	0.367619	-0.367639
O15	O	1.603579	0.284469	-0.477411
O16	O	1.603351	0.477383	-0.284492
O17	O	1.472640	0.477356	-0.367622
C18	C	1.261582	0.326059	-0.326078
C19	C	1.143277	0.326069	-0.326085
C20	C	1.538003	0.501928	-0.326065
C21	C	1.538049	0.577160	-0.326074
C22	C	1.538183	0.326030	-0.502641
C23	C	1.538208	0.326011	-0.577873
C24	C	1.074016	0.280799	-0.280964
C25	C	1.003188	0.342537	-0.264309
C26	C	1.003305	0.264361	-0.342752
C27	C	1.074007	0.387840	-0.309398
C28	C	1.074131	0.309622	-0.387869
C29	C	1.003335	0.371403	-0.371238
C30	C	1.815744	0.326086	-0.326118
C31	C	1.934049	0.326092	-0.326127
C32	C	1.538272	0.149529	-0.326145
C33	C	1.538336	0.074297	-0.326166
C34	C	1.606177	0.612496	-0.282834
C35	C	1.606222	0.683184	-0.282848
C36	C	1.538134	0.718536	-0.326101
C37	C	1.470003	0.683195	-0.369346
C38	C	1.469964	0.612508	-0.369333
C39	C	1.470160	0.968268	-0.369396
C40	C	1.470202	1.038961	-0.369403
C41	C	1.606418	1.038945	-0.282911
C42	C	1.606379	0.968257	-0.282899
C43	C	1.538253	0.932923	-0.326146
C44	C	1.538206	0.856275	-0.326130
C45	C	1.538174	0.795183	-0.326114
C46	C	1.606322	0.282722	-0.613235
C47	C	1.606333	0.282703	-0.683923
C48	C	1.538235	0.325976	-0.719248
C49	C	1.470113	0.369267	-0.683881
C50	C	1.470098	0.369283	-0.613194
C51	C	1.470173	0.369204	-0.968955
C52	C	1.470196	0.369186	-1.039647
C53	C	1.606409	0.282624	-1.039684
C54	C	1.606393	0.282639	-0.968996
C55	C	1.538268	0.325928	-0.933636
C56	C	1.538256	0.325948	-0.856987
C57	C	1.538252	0.325960	-0.795895
C58	C	1.538125	0.326066	-0.150242
C59	C	1.538306	0.325893	-0.075010
H60	H	0.972029	0.356463	-0.212078
H61	H	0.972192	0.212172	-0.356808
N62	N	1.400538	0.413513	-0.577071
N63	N	1.437940	0.456656	-0.537620
H64	H	1.388810	0.487894	-0.512108
N65	N	1.400582	0.932187	-0.413579
N66	N	1.407595	0.940047	-0.476039
H67	H	1.358453	0.914564	-0.507248
N68	N	1.400525	0.413457	-0.719959
N69	N	1.302314	0.408949	-0.712053
H70	H	1.253162	0.440155	-0.737534
H71	H	1.661618	0.583717	-0.247610
H72	H	1.661698	0.711951	-0.247638
N73	N	1.675898	0.238519	-0.577164
N74	N	1.736708	0.199870	-0.608750
H75	H	1.785847	0.168648	-0.583277
N76	N	1.675929	0.932158	-0.238709
N77	N	1.736754	0.963717	-0.200104
H78	H	1.785878	0.938223	-0.168894
N79	N	1.113263	0.292145	-0.453376
N80	N	1.089363	0.327527	-0.503361
H81	H	1.117004	0.315180	-0.549626
N82	N	1.676003	1.075049	-0.238737
N83	N	1.676034	1.138162	-0.238751
H84	H	1.725173	1.163661	-0.207553
N85	N	1.675937	0.238425	-0.932915
N86	N	1.638507	0.195300	-0.893482
H87	H	1.687619	0.164069	-0.868000
N88	N	1.675900	0.238484	-0.720052
N89	N	1.638500	0.195339	-0.759502
H90	H	1.687633	0.164106	-0.785019
N91	N	1.400637	1.075073	-0.413580
N92	N	1.302421	1.067234	-0.409035
H93	H	1.253291	1.092738	-0.440231
N94	N	1.112941	0.232822	-0.233035
N95	N	1.090162	0.238965	-0.171906
H96	H	1.117652	0.205084	-0.138054
H97	H	1.414569	0.711984	-0.404565
N98	N	1.675993	0.238408	-1.075815
N99	N	1.676002	0.238397	-1.138928
H100	H	1.725146	0.207172	-1.164446
H101	H	1.414489	0.583738	-0.404545
H102	H	1.104935	0.440051	-0.295261
H103	H	1.414717	0.404462	-0.940173
N104	N	0.964656	0.419500	-0.419126
N105	N	0.987533	0.480584	-0.412815
H106	H	0.960217	0.514555	-0.446634
H107	H	1.414737	0.404426	-1.068407
