data_functionalizedCrystal
_audit_creation_method	'MofGen! by Chris Wilmer'
_symmetry_space_group_name_H-M	'P1'
_symmetry_Int_Tables_number	1
_symmetry_cell_setting	triclinic
loop_
_symmetry_equiv_pos_as_xyz
  x,y,z
_cell_length_a	12.594516
_cell_length_b	21.395364
_cell_length_c	21.395355
_cell_angle_alpha	90.025298
_cell_angle_beta	89.988593
_cell_angle_gamma	89.967246
loop_
_atom_site_label
_atom_site_type_symbol
_atom_site_fract_x
_atom_site_fract_y
_atom_site_fract_z
Zn1	Zn	-0.423391	-0.957923	-0.354305
Zn2	Zn	0.076609	-0.457923	0.145695
Zn3	Zn	-0.601355	-0.957852	-0.249540
Zn4	Zn	-0.101355	-0.457852	0.250460
Zn5	Zn	-0.423443	-0.853138	-0.249540
Zn6	Zn	0.076557	-0.353138	0.250460
Zn7	Zn	-0.601380	-0.853134	-0.354279
Zn8	Zn	-0.101380	-0.353134	0.145721
O9	O	-0.512392	-0.905512	-0.301916
O10	O	-0.012392	-0.405512	0.198084
O11	O	-0.446966	-1.045592	-0.340418
O12	O	0.053034	-0.545592	0.159582
O13	O	-0.577767	-0.943934	-0.161862
O14	O	-0.077767	-0.443934	0.338138
O15	O	-0.274490	-0.867069	-0.263448
O16	O	0.225510	-0.367069	0.236552
O17	O	-0.577716	-1.045540	-0.263448
O18	O	-0.077716	-0.545540	0.236552
O19	O	-0.274452	-0.944054	-0.340418
O20	O	0.225548	-0.444054	0.159582
O21	O	-0.447055	-0.867001	-0.161862
O22	O	0.052945	-0.367001	0.338138
O23	O	-0.447079	-0.765460	-0.263423
O24	O	0.052921	-0.265460	0.236577
O25	O	-0.577758	-0.867062	-0.441961
O26	O	-0.077758	-0.367062	0.058039
O27	O	-0.577808	-0.765457	-0.340375
O28	O	-0.077808	-0.265457	0.159625
O29	O	-0.446990	-0.944050	-0.441979
O30	O	0.053010	-0.444050	0.058021
O31	O	-0.750304	-0.943930	-0.263424
O32	O	-0.250304	-0.443930	0.236576
O33	O	-0.750322	-0.866994	-0.340375
O34	O	-0.250322	-0.366994	0.159625
C35	C	-0.512453	-0.742724	-0.301896
C36	C	-0.012453	-0.242724	0.198104
C37	C	-0.512504	-0.673083	-0.301903
C38	C	-0.012504	-0.173083	0.198097
C39	C	-0.444536	-0.640419	-0.342043
C40	C	0.055464	-0.140419	0.157957
C41	C	-0.444511	-0.574984	-0.342044
C42	C	0.055489	-0.074984	0.157956
C43	C	-0.512473	-0.542215	-0.301913
C44	C	-0.012473	-0.042215	0.198087
C45	C	-0.580446	-0.574886	-0.261765
C46	C	-0.080446	-0.074886	0.238235
C47	C	-0.580462	-0.640320	-0.261760
C48	C	-0.080462	-0.140320	0.238240
C49	C	-0.608332	-0.438505	-0.296881
C50	C	-0.108332	0.061495	0.203119
C51	C	-0.608318	-0.373072	-0.296890
C52	C	-0.108318	0.126928	0.203110
C53	C	-0.512425	-0.340394	-0.301924
C54	C	-0.012425	0.159606	0.198076
C55	C	-0.416543	-0.373157	-0.306962
C56	C	0.083457	0.126843	0.193038
C57	C	-0.416558	-0.438591	-0.306957
C58	C	0.083442	0.061409	0.193043
C59	C	-0.512464	-0.471262	-0.301913
C60	C	-0.012464	0.028738	0.198087
C61	C	-0.444424	-0.236778	-0.342068
C62	C	0.055576	0.263222	0.157932
C63	C	-0.444397	-0.171341	-0.342065
C64	C	0.055603	0.328659	0.157935
C65	C	-0.580342	-0.171245	-0.261789
C66	C	-0.080342	0.328755	0.238211
C67	C	-0.580359	-0.236680	-0.261788
C68	C	-0.080359	0.263320	0.238212
C69	C	-0.512402	-0.269443	-0.301931
C70	C	-0.012402	0.230557	0.198069
C71	C	-0.788933	-0.905471	-0.301910
C72	C	-0.288933	-0.405471	0.198090
C73	C	-0.907239	-0.905511	-0.301928
C74	C	-0.407239	-0.405511	0.198072
C75	C	-0.976540	-0.863661	-0.343753
C76	C	-0.476540	-0.363661	0.156247
C77	C	-1.047388	-0.848392	-0.286580
C78	C	-0.547388	-0.348392	0.213420
C79	C	-1.047190	-0.920837	-0.359110
C80	C	-0.547190	-0.420837	0.140890
C81	C	-0.976528	-0.890211	-0.244726
C82	C	-0.476528	-0.390211	0.255274
C83	C	-0.976324	-0.962683	-0.317294
C84	C	-0.476324	-0.462683	0.182706
C85	C	-1.047140	-0.947435	-0.260083
C86	C	-0.547140	-0.447435	0.239917
C87	C	-0.234771	-0.905570	-0.301936
C88	C	0.265229	-0.405570	0.198064
C89	C	-0.116466	-0.905595	-0.301945
C90	C	0.383534	-0.405595	0.198055
C91	C	-0.512371	-0.905564	-0.465340
C92	C	-0.012371	-0.405564	0.034660
C93	C	-0.512362	-0.905586	-0.534981
C94	C	-0.012362	-0.405586	-0.034981
C95	C	-0.512346	-0.068935	-0.301933
C96	C	-0.012346	0.431065	0.198067
C97	C	-0.512359	-0.138576	-0.301932
C98	C	-0.012359	0.361424	0.198068
C99	C	-0.444268	-0.945672	-0.567705
C100	C	0.055732	-0.445672	-0.067705
C101	C	-0.444222	-0.945671	-0.633140
C102	C	0.055778	-0.445671	-0.133140
C103	C	-0.512289	-0.905591	-0.665849
C104	C	-0.012289	-0.405591	-0.165849
C105	C	-0.580387	-0.865497	-0.633117
C106	C	-0.080387	-0.365497	-0.133117
C107	C	-0.580424	-0.865495	-0.567683
C108	C	-0.080424	-0.365495	-0.067683
C109	C	-0.608129	-0.900629	-0.769522
C110	C	-0.108129	-0.400629	-0.269522
C111	C	-0.608094	-0.900636	-0.834955
C112	C	-0.108094	-0.400636	-0.334955
C113	C	-0.512177	-0.905595	-0.867670
C114	C	-0.012177	-0.405595	-0.367670
C115	C	-0.416290	-0.910560	-0.834944
C116	C	0.083710	-0.410560	-0.334944
C117	C	-0.416326	-0.910557	-0.769510
C118	C	0.083674	-0.410557	-0.269510
C119	C	-0.512257	-0.905589	-0.736802
C120	C	-0.012257	-0.405589	-0.236802
C121	C	-0.444028	-0.945682	-0.971347
C122	C	0.055972	-0.445682	-0.471347
C123	C	-0.443980	-0.945677	-1.036783
C124	C	0.056020	-0.445677	-0.536783
C125	C	-0.580155	-0.865506	-1.036759
C126	C	-0.080155	-0.365506	-0.536759
C127	C	-0.580193	-0.865508	-0.971324
C128	C	-0.080193	-0.365508	-0.471324
C129	C	-0.512131	-0.905599	-0.938621
C130	C	-0.012131	-0.405599	-0.438621
C131	C	-0.512337	-0.905496	-0.139129
C132	C	-0.012337	-0.405496	0.360871
C133	C	-0.512046	-0.905595	-0.069488
C134	C	-0.012046	-0.405595	0.430512
H135	H	-0.389158	-0.548384	-0.374730
H136	H	0.110842	-0.048384	0.125270
H137	H	-1.078228	-0.933766	-0.407462
H138	H	-0.578228	-0.433766	0.092538
N139	N	-0.653786	-0.822257	-0.668392
N140	N	-0.153786	-0.322257	-0.168392
H141	H	-0.643429	-0.828340	-0.714810
H142	H	-0.143429	-0.328340	-0.214810
H143	H	-0.729811	-0.831983	-0.656967
H144	H	-0.229811	-0.331983	-0.156967
H145	H	-0.686171	-0.896597	-0.861595
H146	H	-0.186171	-0.396597	-0.361595
N147	N	-0.370638	-0.988931	-0.936071
N148	N	0.129362	-0.488931	-0.436071
H149	H	-0.381009	-0.982856	-0.889653
H150	H	0.118991	-0.482856	-0.389653
H151	H	-0.387211	-1.033668	-0.947541
H152	H	0.112789	-0.533668	-0.447541
N153	N	-0.653641	-0.822282	-0.936015
N154	N	-0.153641	-0.322282	-0.436015
H155	H	-0.610402	-0.793258	-0.908852
H156	H	-0.110402	-0.293258	-0.408852
H157	H	-0.696748	-0.796928	-0.966695
H158	H	-0.196748	-0.296928	-0.466695
N159	N	-0.653855	-0.822249	-0.532383
N160	N	-0.153855	-0.322249	-0.032383
H161	H	-0.696963	-0.796852	-0.563031
H162	H	-0.196963	-0.296852	-0.063031
H163	H	-0.703125	-0.847733	-0.505245
H164	H	-0.203125	-0.347733	-0.005245
N165	N	-0.312827	-0.915914	-0.870219
N166	N	0.187173	-0.415914	-0.370219
H167	H	-0.327348	-0.915160	-0.916637
H168	H	0.172652	-0.415160	-0.416637
H169	H	-0.265258	-0.879693	-0.858761
H170	H	0.234742	-0.379693	-0.358761
H171	H	-0.635565	-0.832865	-1.063390
H172	H	-0.135565	-0.332865	-0.563390
N173	N	-0.313148	-0.473927	-0.312375
N174	N	0.186852	0.026073	0.187625
H175	H	-0.327713	-0.520337	-0.311606
H176	H	0.172287	-0.020337	0.188394
H177	H	-0.277066	-0.462531	-0.352957
H178	H	0.222934	0.037469	0.147043
H179	H	-1.077944	-0.982862	-0.224679
H180	H	-0.577944	-0.482862	0.275321
H181	H	-0.388845	-0.978317	-0.541083
H182	H	0.111155	-0.478317	-0.041083
H183	H	-0.945089	-1.010982	-0.330305
H184	H	-0.445089	-0.510982	0.169695
N185	N	-0.370776	-0.988908	-0.668446
N186	N	0.129224	-0.488908	-0.168446
H187	H	-0.327664	-1.014304	-0.637800
H188	H	0.172336	-0.514304	-0.137800
H189	H	-0.414086	-1.017891	-0.695609
H190	H	0.085914	-0.517891	-0.195609
H191	H	-0.389082	-0.263454	-0.374750
H192	H	0.110918	0.236546	0.125250
H193	H	-1.078626	-0.800081	-0.273597
H194	H	-0.578626	-0.300081	0.226403
H195	H	-0.338457	-0.346552	-0.311061
H196	H	0.161543	0.153448	0.188939
H197	H	-0.338253	-0.914598	-0.742868
H198	H	0.161747	-0.414598	-0.242868
N199	N	-0.370514	-0.988903	-1.072082
N200	N	0.129486	-0.488903	-0.572082
H201	H	-0.327403	-1.014297	-1.041433
H202	H	0.172597	-0.514297	-0.541433
H203	H	-0.413803	-1.017889	-1.099253
H204	H	0.086197	-0.517889	-0.599253
N205	N	-0.711590	-0.895288	-0.734238
N206	N	-0.211590	-0.395288	-0.234238
H207	H	-0.759192	-0.931512	-0.745645
H208	H	-0.259192	-0.431512	-0.245645
H209	H	-0.696969	-0.896022	-0.687833
H210	H	-0.196969	-0.396022	-0.187833
N211	N	-0.371240	-0.675756	-0.385336
N212	N	0.128760	-0.175756	0.114664
H213	H	-0.328178	-0.645130	-0.410765
H214	H	0.171822	-0.145130	0.089235
H215	H	-0.321923	-0.702912	-0.359880
H216	H	0.178077	-0.202912	0.140120
H217	H	-0.389043	-0.144747	-0.374750
H218	H	0.110957	0.355253	0.125250
N219	N	-0.935597	-0.873014	-0.180658
N220	N	-0.435597	-0.373014	0.319342
H221	H	-0.855407	-0.873069	-0.181052
H222	H	-0.355407	-0.373069	0.318948
H223	H	-0.962154	-0.830010	-0.169001
H224	H	-0.462154	-0.330010	0.330999
H225	H	-0.635678	-0.144565	-0.229113
H226	H	-0.135678	0.355435	0.270887
N227	N	-0.653685	-0.271908	-0.218499
N228	N	-0.153685	0.228092	0.281501
H229	H	-0.703080	-0.299049	-0.243911
H230	H	-0.203080	0.200951	0.256089
H231	H	-0.610292	-0.299024	-0.189510
H232	H	-0.110292	0.200976	0.310490
H233	H	-0.686392	-0.346401	-0.292791
H234	H	-0.186392	0.153599	0.207209
H235	H	-0.686425	-0.465106	-0.292781
H236	H	-0.186425	0.034894	0.207219
H237	H	-0.635781	-0.548201	-0.229089
H238	H	-0.135781	-0.048201	0.270911
H239	H	-0.635811	-0.666915	-0.229073
H240	H	-0.135811	-0.166915	0.270927
H241	H	-0.945539	-0.828207	-0.379071
H242	H	-0.445539	-0.328207	0.120929
