data_functionalizedCrystal
_audit_creation_method	'MofGen! by Chris Wilmer'
_symmetry_space_group_name_H-M	'P1'
_symmetry_Int_Tables_number	1
_symmetry_cell_setting	triclinic
loop_
_symmetry_equiv_pos_as_xyz
  x,y,z
_cell_length_a	10.654550
_cell_length_b	16.109301
_cell_length_c	14.586319
_cell_angle_alpha	90.005214
_cell_angle_beta	89.997093
_cell_angle_gamma	96.026794
loop_
_atom_site_label
_atom_site_type_symbol
_atom_site_fract_x
_atom_site_fract_y
_atom_site_fract_z
O1	O	1.666255	-0.116773	-0.076231
O2	O	1.999589	0.216560	0.257102
O3	O	2.332922	0.549894	0.590435
O4	O	1.300626	-0.127899	-0.076236
O5	O	1.633959	0.205435	0.257097
O6	O	1.967293	0.538768	0.590431
O7	O	1.493485	-0.001365	-0.076224
O8	O	1.826818	0.331969	0.257109
O9	O	2.160151	0.665302	0.590442
O10	O	1.473396	-0.243307	-0.076243
O11	O	1.806730	0.090026	0.257090
O12	O	2.140063	0.423360	0.590423
O13	O	1.493471	-0.001363	0.076257
O14	O	1.826805	0.331971	0.409590
O15	O	2.160138	0.665304	0.742923
O16	O	1.300613	-0.127897	0.076245
O17	O	1.633946	0.205437	0.409578
O18	O	1.967279	0.538770	0.742911
O19	O	1.666242	-0.116771	0.076249
O20	O	1.999575	0.216562	0.409583
O21	O	2.332909	0.549896	0.742916
Cu22	Cu	1.483426	-0.122334	0.090170
Cu23	Cu	1.816759	0.211000	0.423503
Cu24	Cu	2.150093	0.544333	0.756836
Cu25	Cu	1.483442	-0.122336	-0.090156
Cu26	Cu	1.816775	0.210997	0.243177
Cu27	Cu	2.150109	0.544331	0.576510
O28	O	1.473383	-0.243305	0.076238
O29	O	1.806716	0.090028	0.409571
O30	O	2.140050	0.423362	0.742904
C31	C	1.253832	-0.127081	0.000004
C32	C	1.587166	0.206253	0.333337
C33	C	1.920499	0.539586	0.666670
C34	C	1.114422	-0.124637	0.000002
C35	C	1.447756	0.208697	0.333336
C36	C	1.781089	0.542030	0.666669
C37	C	1.713036	-0.117589	0.000008
C38	C	2.046369	0.215744	0.333341
C39	C	2.379702	0.549078	0.666674
C40	C	1.852446	-0.120033	0.000003
C41	C	2.185779	0.213300	0.333336
C42	C	2.519112	0.546634	0.666670
C43	C	1.492664	0.029616	0.000017
C44	C	1.825998	0.362949	0.333350
C45	C	2.159331	0.696283	0.666683
C46	C	1.490225	0.121926	0.000018
C47	C	1.823558	0.455259	0.333351
C48	C	2.156891	0.788593	0.666685
C49	C	1.932942	-0.045532	0.000006
C50	C	2.266275	0.287802	0.333339
C51	C	2.599609	0.621135	0.666672
C52	C	2.063932	-0.047833	0.000008
C53	C	2.397265	0.285500	0.333342
C54	C	2.730598	0.618833	0.666675
C55	C	2.033916	-0.199144	0.000002
C56	C	2.367249	0.134190	0.333336
C57	C	2.700582	0.467523	0.666669
C58	C	1.902929	-0.196841	0.000006
C59	C	2.236262	0.136492	0.333340
C60	C	2.569595	0.469825	0.666673
C61	C	2.260973	0.039912	0.053431
C62	C	2.594306	0.373245	0.386764
C63	C	2.927639	0.706579	0.720097
C64	C	2.341474	0.114417	0.053417
C65	C	2.674807	0.447750	0.386751
C66	C	3.008141	0.781084	0.720084
C67	C	2.312213	0.181958	-0.000010
C68	C	2.645546	0.515291	0.333324
C69	C	2.978879	0.848624	0.666657
C70	C	2.202452	0.174996	-0.053446
C71	C	2.535786	0.508329	0.279887
C72	C	2.869119	0.841663	0.613221
C73	C	2.121957	0.100490	-0.053441
C74	C	2.455291	0.433823	0.279893
C75	C	2.788624	0.767156	0.613226
C76	C	2.151217	0.032952	0.000008
C77	C	2.484551	0.366285	0.333341
C78	C	2.817884	0.699619	0.666674
C79	C	1.705886	-0.284581	-0.053424
C80	C	2.039220	0.048752	0.279910
C81	C	2.372553	0.382086	0.613243
C82	C	1.625389	-0.359088	-0.053425
C83	C	1.958722	-0.025755	0.279908
C84	C	2.292055	0.307578	0.613242
C85	C	1.654646	-0.426636	-0.000004
C86	C	1.987980	-0.093303	0.333330
C87	C	2.321313	0.240031	0.666663
C88	C	1.764409	-0.419683	0.053419
C89	C	2.097742	-0.086349	0.386752
C90	C	2.431076	0.246984	0.720085
C91	C	1.844907	-0.345175	0.053420
C92	C	2.178240	-0.011842	0.386753
C93	C	2.511573	0.321491	0.720087
C94	C	1.815640	-0.277627	0.000000
C95	C	2.148974	0.055706	0.333334
C96	C	2.482307	0.389039	0.666667
C97	C	1.474203	-0.274286	-0.000005
C98	C	1.807537	0.059048	0.333328
C99	C	2.140870	0.392381	0.666661
C100	C	1.476643	-0.366596	-0.000013
C101	C	1.809976	-0.033262	0.333321
C102	C	2.143310	0.300071	0.666654
N103	N	1.483424	-0.122332	0.217002
N104	N	1.816757	0.211002	0.550335
N105	N	2.150091	0.544335	0.883668
C106	C	1.598991	0.343552	0.000005
C107	C	1.932324	0.676885	0.333338
C108	C	2.265658	1.010218	0.666671
C109	C	1.596689	0.430286	-0.000003
C110	C	1.930022	0.763619	0.333331
C111	C	2.263356	1.096952	0.666664
C112	C	1.367868	0.411772	-0.000002
C113	C	1.701202	0.745105	0.333331
C114	C	2.034535	1.078439	0.666664
C115	C	1.370172	0.325039	-0.000001
C116	C	1.703505	0.658373	0.333332
C117	C	2.036838	0.991706	0.666665
C118	C	1.485737	0.290932	0.000007
C119	C	1.819070	0.624265	0.333340
C120	C	2.152403	0.957599	0.666674
C121	C	1.481131	0.464398	-0.000002
C122	C	1.814465	0.797732	0.333332
C123	C	2.147798	1.131065	0.666665
C124	C	1.478634	0.558439	-0.000010
C125	C	1.811968	0.891773	0.333323
C126	C	2.145301	1.225106	0.666657
C127	C	1.488234	0.196885	0.000013
C128	C	1.821568	0.530218	0.333347
C129	C	2.154901	0.863552	0.666680
N130	N	1.483454	-0.122332	-0.216988
N131	N	1.816787	0.211002	0.116345
N132	N	2.150120	0.544335	0.449678
C133	C	1.568850	-0.066321	0.452013
C134	C	1.902184	0.267012	0.785347
C135	C	2.235517	0.600345	1.118680
C136	C	1.568854	-0.066319	0.547994
C137	C	1.902187	0.267014	0.881328
C138	C	2.235521	0.600347	1.214661
C139	C	1.398019	-0.178344	0.547993
C140	C	1.731352	0.154989	0.881327
C141	C	2.064685	0.488322	1.214660
C142	C	1.398010	-0.178342	0.452014
C143	C	1.731343	0.154992	0.785347
C144	C	2.064677	0.488325	1.118681
C145	C	1.483433	-0.122331	0.404026
C146	C	1.816766	0.211002	0.737360
C147	C	2.150099	0.544335	1.070693
C148	C	1.483445	-0.122332	0.595987
C149	C	1.816778	0.211001	0.929320
C150	C	2.150112	0.544335	1.262654
C151	C	1.483448	-0.122330	0.700054
C152	C	1.816782	0.211003	1.033388
C153	C	2.150115	0.544337	1.366721
C154	C	1.483428	-0.122332	0.299953
C155	C	1.816762	0.211002	0.633286
C156	C	2.150095	0.544335	0.966619
H157	H	1.891844	0.017010	0.000005
H158	H	2.225177	0.350344	0.333338
H159	H	2.558510	0.683677	0.666672
H160	H	1.693091	0.315784	0.000009
H161	H	2.026425	0.649118	0.333343
H162	H	2.359758	0.982451	0.666676
H163	H	1.688912	0.473126	-0.000007
H164	H	2.022245	0.806459	0.333327
H165	H	2.355579	1.139793	0.666660
F166	F	1.244883	0.448079	-0.000011
F167	F	1.578216	0.781413	0.333322
F168	F	1.911549	1.114746	0.666655
H169	H	1.788232	-0.474686	0.096918
H170	H	2.121566	-0.141352	0.430251
H171	H	2.454899	0.191981	0.763585
F172	F	1.568975	-0.505937	-0.000016
F173	F	1.902308	-0.172603	0.333318
F174	F	2.235641	0.160730	0.666651
F175	F	2.458285	0.121823	0.110289
F176	F	2.791618	0.455157	0.443622
F177	F	3.124951	0.788490	0.776956
H178	H	1.638405	-0.020713	0.412944
H179	H	1.971738	0.312620	0.746277
H180	H	2.305072	0.645954	1.079611
H181	H	1.277941	0.282194	-0.000002
H182	H	1.611274	0.615527	0.333331
H183	H	1.944607	0.948861	0.666664
F184	F	1.659764	-0.006705	0.599063
F185	F	1.993097	0.326629	0.932396
F186	F	2.326430	0.659962	1.265729
H187	H	1.328471	-0.223948	0.587074
H188	H	1.661804	0.109385	0.920408
H189	H	1.995137	0.442719	1.253741
H190	H	1.328447	-0.223952	0.412940
H191	H	1.661780	0.109381	0.746274
H192	H	1.995113	0.442715	1.079607
H193	H	2.032594	0.094821	-0.096949
H194	H	2.365927	0.428154	0.236385
H195	H	2.699261	0.761488	0.569718
H196	H	2.377767	0.242621	-0.000020
H197	H	2.711100	0.575954	0.333313
H198	H	3.044434	0.909288	0.666647
F199	F	2.171330	0.246880	-0.110322
F200	F	2.504664	0.580213	0.223011
F201	F	2.837997	0.913546	0.556344
F202	F	1.961728	-0.337777	0.110279
F203	F	2.295061	-0.004443	0.443612
F204	F	2.628395	0.328890	0.776945
F205	F	2.292122	-0.031969	0.110301
F206	F	2.625455	0.301365	0.443634
F207	F	2.958789	0.634698	0.776967
H208	H	2.075035	-0.261678	0.000003
H209	H	2.408369	0.071655	0.333336
H210	H	2.741702	0.404988	0.666670
H211	H	1.536017	-0.364747	-0.096932
H212	H	1.869351	-0.031414	0.236401
H213	H	2.202684	0.301919	0.569735
H214	H	1.681974	-0.229546	-0.096840
H215	H	2.015307	0.103787	0.236493
H216	H	2.348641	0.437121	0.569826
