data_functionalizedCrystal
_audit_creation_method	'MofGen! by Chris Wilmer'
_symmetry_space_group_name_H-M	'P1'
_symmetry_Int_Tables_number	1
_symmetry_cell_setting	triclinic
loop_
_symmetry_equiv_pos_as_xyz
  x,y,z
_cell_length_a	12.594517
_cell_length_b	29.839131
_cell_length_c	29.839126
_cell_angle_alpha	90.029653
_cell_angle_beta	90.027211
_cell_angle_gamma	90.034660
loop_
_atom_site_label
_atom_site_type_symbol
_atom_site_fract_x
_atom_site_fract_y
_atom_site_fract_z
Zn1	Zn	1.627178	-0.178904	0.253999
Zn2	Zn	2.127178	0.321096	0.753999
Zn3	Zn	1.626993	-0.254022	0.178859
Zn4	Zn	2.126993	0.245978	0.678859
Zn5	Zn	1.449166	-0.178906	0.178880
Zn6	Zn	1.949166	0.321094	0.678880
Zn7	Zn	1.449104	-0.254007	0.253958
Zn8	Zn	1.949104	0.245993	0.753958
O9	O	1.538110	-0.216460	0.216424
O10	O	2.038110	0.283540	0.716424
O11	O	1.776099	-0.188874	0.244040
O12	O	2.276099	0.311126	0.744040
O13	O	1.603353	-0.244064	0.115994
O14	O	2.103353	0.255936	0.615994
O15	O	1.472883	-0.116038	0.188870
O16	O	1.972883	0.383962	0.688870
O17	O	1.775963	-0.244063	0.188835
O18	O	2.275963	0.255937	0.688835
O19	O	1.603667	-0.116037	0.244060
O20	O	2.103667	0.383963	0.744060
O21	O	1.472704	-0.188877	0.116010
O22	O	1.972704	0.311123	0.616010
O23	O	1.300212	-0.188863	0.188831
O24	O	1.800212	0.311137	0.688831
O25	O	1.472777	-0.244038	0.316831
O26	O	1.972777	0.255962	0.816831
O27	O	1.300166	-0.244039	0.243991
O28	O	1.800166	0.255961	0.743991
O29	O	1.603607	-0.188860	0.316861
O30	O	2.103607	0.311140	0.816861
O31	O	1.603293	-0.316887	0.188795
O32	O	2.103293	0.183113	0.688795
O33	O	1.472598	-0.316876	0.243971
O34	O	1.972598	0.183124	0.743971
C35	C	1.261569	-0.216450	0.216409
C36	C	1.761569	0.283550	0.716409
C37	C	1.143264	-0.216457	0.216413
C38	C	1.643264	0.283543	0.716413
C39	C	1.003241	-0.186413	0.186480
C40	C	1.503241	0.313587	0.686480
C41	C	1.074117	-0.175476	0.227478
C42	C	1.574117	0.324524	0.727478
C43	C	1.073960	-0.227373	0.175420
C44	C	1.573960	0.272627	0.675420
C45	C	1.003354	-0.205516	0.257466
C46	C	1.503354	0.294484	0.757466
C47	C	1.003191	-0.257432	0.205380
C48	C	1.503191	0.242568	0.705380
C49	C	1.074035	-0.246511	0.246406
C50	C	1.574035	0.253489	0.746406
C51	C	1.537948	-0.333182	0.216386
C52	C	2.037948	0.166818	0.716386
C53	C	1.537976	-0.383117	0.216385
C54	C	2.037976	0.116883	0.716385
C55	C	1.606195	-0.692724	0.245202
C56	C	2.106195	-0.192724	0.745202
C57	C	1.606310	-0.880398	0.245229
C58	C	2.106310	-0.380398	0.745229
O59	O	1.664153	-0.904632	0.269703
O60	O	2.164153	-0.404632	0.769703
N61	N	1.538291	-0.903902	0.216474
N62	N	2.038291	-0.403902	0.716474
C63	C	1.470233	-0.880485	0.187712
C64	C	1.970233	-0.380485	0.687712
O65	O	1.412373	-0.904783	0.163257
O66	O	1.912373	-0.404783	0.663257
C67	C	1.470113	-0.692813	0.187687
C68	C	1.970113	-0.192813	0.687687
C69	C	1.538144	-0.669311	0.216441
C70	C	2.038144	-0.169311	0.716441
C71	C	1.674220	-0.669223	0.273954
C72	C	2.174220	-0.169223	0.773954
C73	C	1.674194	-0.622307	0.273946
C74	C	2.174194	-0.122307	0.773946
C75	C	1.606144	-0.598894	0.245185
C76	C	2.106144	-0.098894	0.745185
C77	C	1.538119	-0.622395	0.216433
C78	C	2.038119	-0.122395	0.716433
C79	C	1.402050	-0.669396	0.158928
C80	C	1.902050	-0.169396	0.658928
C81	C	1.402024	-0.622475	0.158925
C82	C	1.902024	-0.122475	0.658925
C83	C	1.470056	-0.598974	0.187679
C84	C	1.970056	-0.098974	0.687679
C85	C	1.470043	-0.552066	0.187663
C86	C	1.970043	-0.052066	0.687663
N87	N	1.538062	-0.528562	0.216418
N88	N	2.038062	-0.028562	0.716418
C89	C	1.606113	-0.551976	0.245179
C90	C	2.106113	-0.051976	0.745179
C91	C	1.470302	-0.979015	0.187726
C92	C	1.970302	-0.479015	0.687726
C93	C	1.470333	-1.025933	0.187731
C94	C	1.970333	-0.525933	0.687731
C95	C	1.606410	-1.025843	0.245250
C96	C	2.106410	-0.525843	0.745250
C97	C	1.606383	-0.978924	0.245242
C98	C	2.106383	-0.478924	0.745242
C99	C	1.538322	-0.955511	0.216481
C100	C	2.038322	-0.455511	0.716481
C101	C	1.606055	-0.453450	0.245158
C102	C	2.106055	0.046550	0.745158
C103	C	1.606026	-0.406530	0.245146
C104	C	2.106026	0.093470	0.745146
C105	C	1.469947	-0.406625	0.187629
C106	C	1.969947	0.093375	0.687629
C107	C	1.469978	-0.453540	0.187640
C108	C	1.969978	0.046460	0.687640
C109	C	1.538036	-0.476952	0.216408
C110	C	2.038036	0.023048	0.716408
O111	O	1.412222	-0.527803	0.163206
O112	O	1.912222	-0.027803	0.663206
O113	O	1.663947	-0.527670	0.269637
O114	O	2.163947	-0.027670	0.769637
C115	C	1.606220	-0.739640	0.245211
C116	C	2.106220	-0.239640	0.745211
C117	C	1.538195	-0.763142	0.216459
C118	C	2.038195	-0.263142	0.716459
C119	C	1.470145	-0.739728	0.187698
C120	C	1.970145	-0.239728	0.687698
C121	C	1.538226	-0.810060	0.216464
C122	C	2.038226	-0.310060	0.716464
C123	C	1.606277	-0.833473	0.245225
C124	C	2.106277	-0.333473	0.745225
C125	C	1.674296	-0.809969	0.273981
C126	C	2.174296	-0.309969	0.773981
C127	C	1.674271	-0.763054	0.273972
C128	C	2.174271	-0.263054	0.773972
C129	C	1.402125	-0.763232	0.158943
C130	C	1.902125	-0.263232	0.658943
C131	C	1.402157	-0.810148	0.158953
C132	C	1.902157	-0.310148	0.658953
C133	C	1.470208	-0.833561	0.187714
C134	C	1.970208	-0.333561	0.687714
C135	C	1.815731	-0.216470	0.216439
C136	C	2.315731	0.283530	0.716439
C137	C	1.934036	-0.216474	0.216446
C138	C	2.434036	0.283526	0.716446
C139	C	1.538206	-0.216447	0.333602
C140	C	2.038206	0.283553	0.833602
C141	C	1.538246	-0.216441	0.383537
C142	C	2.038246	0.283559	0.883537
C143	C	1.538302	-0.099281	0.216472
C144	C	2.038302	0.400719	0.716472
C145	C	1.538384	-0.049347	0.216492
C146	C	2.038384	0.450653	0.716492
C147	C	1.538076	-0.216440	0.099701
C148	C	2.038076	0.283560	0.599701
C149	C	1.538242	-0.216319	0.049767
C150	C	2.038242	0.283681	0.549767
C151	C	1.606261	-0.245118	0.740119
C152	C	2.106261	0.254882	1.240119
C153	C	1.606263	-0.245149	0.552446
C154	C	2.106263	0.254851	1.052446
O155	O	1.664081	-0.269601	0.528177
O156	O	2.164081	0.230399	1.028177
N157	N	1.538241	-0.216420	0.528982
N158	N	2.038241	0.283580	1.028982
C159	C	1.470210	-0.187683	0.552439
C160	C	1.970210	0.312317	1.052439
O161	O	1.412346	-0.163251	0.528175
O162	O	1.912346	0.336749	1.028175
C163	C	1.470204	-0.187654	0.740111
C164	C	1.970204	0.312346	1.240111
C165	C	1.538237	-0.216382	0.763573
C166	C	2.038237	0.283618	1.263573
C167	C	1.674288	-0.273843	0.763581
C168	C	2.174288	0.226157	1.263581
C169	C	1.674291	-0.273833	0.810496
C170	C	2.174291	0.226167	1.310496
C171	C	1.606267	-0.245098	0.833950
C172	C	2.106267	0.254902	1.333950
C173	C	1.538240	-0.216372	0.810489
C174	C	2.038240	0.283628	1.310489
C175	C	1.402168	-0.158920	0.763568
C176	C	1.902168	0.341080	1.263568
C177	C	1.402170	-0.158916	0.810489
C178	C	1.902170	0.341084	1.310489
C179	C	1.470204	-0.187644	0.833950
C180	C	1.970204	0.312356	1.333950
C181	C	1.470219	-0.187627	0.880858
C182	C	1.970219	0.312373	1.380858
N183	N	1.538240	-0.216356	0.904322
N184	N	2.038240	0.283644	1.404322
C185	C	1.606264	-0.245091	0.880868
C186	C	2.106264	0.254909	1.380868
C187	C	1.470220	-0.187699	0.453909
C188	C	1.970220	0.312301	0.953909
C189	C	1.470222	-0.187706	0.406991
C190	C	1.970222	0.312294	0.906991
C191	C	1.606274	-0.245172	0.407001
C192	C	2.106274	0.254828	0.907001
C193	C	1.606276	-0.245163	0.453919
C194	C	2.106276	0.254837	0.953919
C195	C	1.538241	-0.216428	0.477373
C196	C	2.038241	0.283572	0.977373
C197	C	1.606266	-0.245068	0.979394
C198	C	2.106266	0.254932	1.479394
C199	C	1.606266	-0.245055	1.026313
C200	C	2.106266	0.254945	1.526313
C201	C	1.470211	-0.187590	1.026299
C202	C	1.970211	0.312410	1.526299
C203	C	1.470214	-0.187602	0.979384
C204	C	1.970214	0.312398	1.479384
C205	C	1.538245	-0.216344	0.955932
C206	C	2.038245	0.283656	1.455932
O207	O	1.412423	-0.163191	0.905156
O208	O	1.912423	0.336809	1.405156
O209	O	1.664103	-0.269527	0.905140
O210	O	2.164103	0.230473	1.405140
C211	C	1.606258	-0.245127	0.693204
C212	C	2.106258	0.254873	1.193204
C213	C	1.538231	-0.216402	0.669742
C214	C	2.038231	0.283598	1.169742
C215	C	1.470207	-0.187666	0.693196
C216	C	1.970207	0.312334	1.193196
C217	C	1.538234	-0.216408	0.622824
C218	C	2.038234	0.283592	1.122824
C219	C	1.606258	-0.245144	0.599370
C220	C	2.106258	0.254856	1.099370
C221	C	1.674279	-0.273873	0.622834
C222	C	2.174279	0.226127	1.122834
C223	C	1.674282	-0.273863	0.669750
C224	C	2.174282	0.226137	1.169750
C225	C	1.402186	-0.158937	0.669732
C226	C	1.902186	0.341063	1.169732
C227	C	1.402189	-0.158949	0.622816
C228	C	1.902189	0.341051	1.122816
C229	C	1.470213	-0.187684	0.599363
C230	C	1.970213	0.312316	1.099363
H231	H	1.661429	-0.387397	0.268561
H232	H	2.161429	0.112603	0.768561
H233	H	1.346766	-0.135527	0.744473
H234	H	1.846766	0.364473	1.244473
C235	C	1.116207	-0.128674	0.240107
C236	C	1.616207	0.371326	0.740107
N237	N	1.147907	-0.093421	0.249617
N238	N	1.647907	0.406579	0.749617
H239	H	1.729635	-0.688281	0.297378
H240	H	2.229635	-0.188281	0.797378
C241	C	0.961062	-0.304221	0.192732
C242	C	1.461062	0.195779	0.692732
N243	N	0.929327	-0.339462	0.183200
N244	N	1.429327	0.160538	0.683200
H245	H	1.346767	-0.135516	0.829582
H246	H	1.846767	0.364484	1.329582
C247	C	1.395390	-0.156099	0.381188
C248	C	1.895390	0.343901	0.881188
N249	N	1.339018	-0.132294	0.361755
N250	N	1.839018	0.367706	0.861755
C251	C	0.961239	-0.152054	0.152309
C252	C	1.461239	0.347946	0.652309
N253	N	0.929599	-0.126174	0.126575
N254	N	1.429599	0.373826	0.626575
C255	C	0.961631	-0.192995	0.304332
C256	C	1.461631	0.307005	0.804332
N257	N	0.930203	-0.183562	0.339630
N258	N	1.430203	0.316438	0.839630
C259	C	1.115753	-0.280848	0.280659
C260	C	1.615753	0.219152	0.780659
N261	N	1.147173	-0.306710	0.306460
N262	N	1.647173	0.193290	0.806460
H263	H	1.104978	-0.236599	0.140738
H264	H	1.604978	0.263401	0.640738
H265	H	1.661466	-0.472506	0.268587
H266	H	2.161466	0.027494	0.768587
H267	H	1.729588	-0.603175	0.297361
H268	H	2.229588	-0.103175	0.797361
C269	C	1.327151	-0.596724	0.127285
C270	C	1.827151	-0.096724	0.627285
N271	N	1.270758	-0.577329	0.103453
N272	N	1.770758	-0.077329	0.603453
C273	C	1.749103	-0.305483	0.597026
C274	C	2.249103	0.194517	1.097026
N275	N	1.805453	-0.329293	0.577585
N276	N	2.305453	0.170707	1.077585
C277	C	1.395502	-1.051780	0.156096
C278	C	1.895502	-0.551780	0.656096
N279	N	1.339131	-1.071246	0.132269
N280	N	1.839131	-0.571246	0.632269
H281	H	1.346759	-0.829279	0.135534
H282	H	1.846759	-0.329279	0.635534
H283	H	1.661779	-0.959792	0.268656
H284	H	2.161779	-0.459792	0.768656
C285	C	1.681109	-0.276769	0.479723
C286	C	2.181109	0.223231	0.979723
N287	N	1.737475	-0.300577	0.499156
N288	N	2.237475	0.199423	0.999156
C289	C	1.681095	-0.276784	0.381193
C290	C	2.181095	0.223216	0.881193
N291	N	1.737440	-0.300596	0.361752
N292	N	2.237440	0.199404	0.861752
H293	H	1.414877	-0.959956	0.164305
H294	H	1.914877	-0.459956	0.664305
C295	C	1.681260	-1.051606	0.276889
C296	C	2.181260	-0.551606	0.776889
N297	N	1.737628	-1.071014	0.300722
N298	N	2.237628	-0.571014	0.800722
H299	H	1.346652	-0.688524	0.135513
H300	H	1.846652	-0.188524	0.635513
H301	H	1.414590	-0.472677	0.164223
H302	H	1.914590	0.027323	0.664223
C303	C	1.327360	-0.127320	0.695525
C304	C	1.827360	0.372680	1.195525
N305	N	1.271002	-0.103500	0.714950
N306	N	1.771002	0.396500	1.214950
C307	C	1.681107	-0.276660	1.052118
C308	C	2.181107	0.223340	1.552118
N309	N	1.737474	-0.300466	1.071553
N310	N	2.237474	0.199534	1.571553
C311	C	1.395383	-0.156081	0.479701
C312	C	1.895383	0.343919	0.979701
N313	N	1.339021	-0.132264	0.499126
N314	N	1.839021	0.367736	0.999126
C315	C	1.395090	-0.380861	0.155996
C316	C	1.895090	0.119139	0.655996
N317	N	1.338701	-0.361454	0.132172
N318	N	1.838701	0.138546	0.632172
C319	C	1.749113	-0.737208	0.305604
C320	C	2.249113	-0.237208	0.805604
N321	N	1.805488	-0.717744	0.329430
N322	N	2.305488	-0.217744	0.829430
H323	H	1.729709	-0.829041	0.297397
H324	H	2.229709	-0.329041	0.797397
C325	C	1.327248	-0.737484	0.127307
C326	C	1.827248	-0.237484	0.627307
N327	N	1.270844	-0.718092	0.103477
N328	N	1.770844	-0.218092	0.603477
C329	C	1.681114	-0.276682	0.953604
C330	C	2.181114	0.223318	1.453604
N331	N	1.737498	-0.300491	0.934179
N332	N	2.237498	0.199509	1.434179
C333	C	1.395380	-0.155998	0.953575
C334	C	1.895380	0.344002	1.453575
N335	N	1.339006	-0.132196	0.934139
N336	N	1.839006	0.367804	1.434139
H337	H	1.729682	-0.297245	0.744490
H338	H	2.229682	0.202755	1.244490
H339	H	1.729687	-0.297228	0.829595
H340	H	2.229687	0.202772	1.329595
C341	C	1.395387	-0.155982	1.052107
C342	C	1.895387	0.344018	1.552107
N343	N	1.339024	-0.132178	1.071548
N344	N	1.839024	0.367822	1.571548
H345	H	1.729681	-0.297256	0.688848
H346	H	2.229681	0.202744	1.188848
H347	H	1.346791	-0.135551	0.603718
H348	H	1.846791	0.364449	1.103718
