data_functionalizedCrystal
_audit_creation_method	'MofGen! by Chris Wilmer'
_symmetry_space_group_name_H-M	'P1'
_symmetry_Int_Tables_number	1
_symmetry_cell_setting	triclinic
loop_
_symmetry_equiv_pos_as_xyz
  x,y,z
_cell_length_a	10.540535
_cell_length_b	23.532357
_cell_length_c	9.616153
_cell_angle_alpha	89.992198
_cell_angle_beta	89.995499
_cell_angle_gamma	83.675967
loop_
_atom_site_label
_atom_site_type_symbol
_atom_site_fract_x
_atom_site_fract_y
_atom_site_fract_z
O1	O	1.683230	0.080241	-0.115589
O2	O	1.313565	0.087805	-0.115610
O3	O	1.509578	0.001163	-0.115570
O4	O	1.487217	0.166883	-0.115628
O5	O	1.509551	0.001165	0.115721
O6	O	1.313538	0.087807	0.115682
O7	O	1.683203	0.080243	0.115703
Zn8	Zn	1.498367	0.084025	0.152415
Zn9	Zn	1.498402	0.084023	-0.152322
O10	O	1.487191	0.166885	0.115663
C11	C	1.266268	0.087239	0.000034
C12	C	1.125376	0.085544	0.000027
C13	C	1.090806	0.022284	0.000055
C14	C	0.944265	0.020500	0.000594
C15	C	0.915065	0.114421	0.131855
C16	C	1.061786	0.115767	0.131951
C17	C	1.061670	0.116686	-0.131080
C18	C	0.915421	0.113760	-0.132798
C19	C	1.509005	-0.020056	0.000080
C20	C	1.507324	-0.083286	0.000093
C21	C	1.496781	-0.475368	-0.126060
C22	C	1.495183	-0.534778	-0.126068
O23	O	1.494326	-0.565501	-0.233291
N24	N	1.494376	-0.564493	0.000007
C25	C	1.495154	-0.534795	0.126099
O26	O	1.494319	-0.565526	0.233335
C27	C	1.496743	-0.475386	0.126105
C28	C	1.497564	-0.445674	0.000022
C29	C	1.497600	-0.445656	-0.252133
C30	C	1.499201	-0.386250	-0.252124
C31	C	1.499983	-0.356557	-0.126043
C32	C	1.499164	-0.386268	0.000031
C33	C	1.497513	-0.445688	0.252195
C34	C	1.499101	-0.386274	0.252191
C35	C	1.499921	-0.356563	0.126108
C36	C	1.501547	-0.297169	0.126121
N37	N	1.502355	-0.267453	0.000046
C38	C	1.501572	-0.297147	-0.126036
C39	C	1.491814	-0.659559	0.126075
C40	C	1.490234	-0.718968	0.126070
C41	C	1.490260	-0.718946	-0.126097
C42	C	1.491850	-0.659537	-0.126090
C43	C	1.492621	-0.629843	0.000000
C44	C	1.504935	-0.172391	-0.126009
C45	C	1.506542	-0.112980	-0.125989
C46	C	1.506508	-0.113006	0.126177
C47	C	1.504909	-0.172412	0.126159
C48	C	1.504118	-0.202103	0.000054
O49	O	1.502400	-0.266408	0.233290
O50	O	1.502390	-0.266408	-0.233254
C51	C	1.730501	0.080808	0.000056
C52	C	1.871393	0.082504	0.000054
C53	C	1.487763	0.188104	0.000010
C54	C	1.489445	0.251334	-0.000012
N55	N	1.498352	0.084026	0.360389
N56	N	1.498427	0.084017	-0.360296
C57	C	1.393188	0.130218	0.580738
C58	C	1.393410	0.130392	0.419570
C59	C	1.630627	0.097543	0.418841
C60	C	1.630051	0.097870	0.580058
C61	C	1.472568	0.024165	0.580320
C62	C	1.469509	0.024553	0.419093
H63	H	1.082308	0.163229	-0.132371
N64	N	1.489359	-0.751009	0.262062
H65	H	1.488229	-0.793151	0.242941
H66	H	1.568330	-0.744927	0.317121
N67	N	1.347625	0.007129	0.634233
H68	H	1.306517	0.038040	0.697709
H69	H	1.288893	0.001848	0.553395
H70	H	0.864870	0.159012	-0.141183
N71	N	0.907647	-0.012396	0.126511
H72	H	0.846830	0.013157	0.186471
H73	H	0.864887	-0.046592	0.095434
N74	N	1.496844	-0.477682	-0.388132
H75	H	1.497633	-0.449838	-0.467985
H76	H	1.574914	-0.506614	-0.393559
N77	N	1.507432	-0.080934	-0.261983
H78	H	1.506690	-0.108763	-0.341853
H79	H	1.429401	-0.051982	-0.267483
N80	N	0.875105	0.085416	0.262311
H81	H	0.828722	0.051609	0.236337
H82	H	0.953274	0.071864	0.319011
H83	H	1.541233	-0.011479	0.378814
H84	H	1.504285	-0.196558	-0.228695
N85	N	1.500078	-0.354208	-0.388115
H86	H	1.499336	-0.382041	-0.467977
H87	H	1.422042	-0.325259	-0.393614
N88	N	1.574218	-0.021394	0.630825
H89	H	1.660690	-0.012154	0.598195
H90	H	1.572853	-0.022779	0.735782
N91	N	1.492734	-0.627493	-0.262078
H92	H	1.492001	-0.655324	-0.341944
H93	H	1.414697	-0.598545	-0.267582
H94	H	1.133593	-0.002008	-0.094448
H95	H	1.489619	-0.743134	-0.228760
N96	N	1.660379	0.155708	0.629857
H97	H	1.747284	0.163077	0.594441
H98	H	1.593791	0.186266	0.593607
N99	N	0.906504	-0.012567	-0.124519
H100	H	0.985123	-0.026113	-0.180518
H101	H	0.863774	-0.046648	-0.092557
H102	H	1.492446	-0.635386	0.228760
H103	H	1.496847	-0.469869	0.354866
H104	H	1.504253	-0.196605	0.228826
N105	N	1.149402	-0.009359	0.125084
H106	H	1.198242	0.017104	0.181707
H107	H	1.079648	-0.023141	0.184078
N108	N	1.262498	0.119618	0.632146
H109	H	1.205994	0.113056	0.550186
H110	H	1.270351	0.084772	0.694180
H111	H	1.499711	-0.362100	0.354872
H112	H	1.507151	-0.088819	0.228830
H113	H	1.295063	0.122259	0.380053
N114	N	0.850323	0.174891	0.137866
H115	H	0.916960	0.202614	0.136326
H116	H	0.791916	0.182145	0.054999
H117	H	1.409388	0.174371	0.621222
H118	H	1.409834	0.174796	0.380976
N119	N	1.736801	0.055011	0.631739
H120	H	1.784032	0.035994	0.549788
H121	H	1.797706	0.075259	0.689952
H122	H	1.102662	0.094214	0.230868
N123	N	1.736793	0.054193	0.368048
H124	H	1.820928	0.063718	0.406893
H125	H	1.720436	0.014785	0.400125
N126	N	1.661712	0.154729	0.365322
H127	H	1.593393	0.185624	0.396214
H128	H	1.747024	0.162993	0.403526
N129	N	1.090261	0.177193	0.139372
H130	H	1.052538	0.195332	0.227435
H131	H	1.185714	0.178497	0.139436
N132	N	1.118787	0.090541	-0.263463
H133	H	1.186548	0.058242	-0.239785
H134	H	1.049632	0.075300	-0.320644
H135	H	1.372210	0.014308	0.380891
H136	H	0.887601	0.090533	-0.230306
