data_functionalizedCrystal
_audit_creation_method	'MofGen! by Chris Wilmer'
_symmetry_space_group_name_H-M	'P1'
_symmetry_Int_Tables_number	1
_symmetry_cell_setting	triclinic
loop_
_symmetry_equiv_pos_as_xyz
  x,y,z
_cell_length_a	14.044220
_cell_length_b	9.065218
_cell_length_c	7.540329
_cell_angle_alpha	90.003038
_cell_angle_beta	89.995368
_cell_angle_gamma	90.897619
loop_
_atom_site_label
_atom_site_type_symbol
_atom_site_fract_x
_atom_site_fract_y
_atom_site_fract_z
O1	O	0.139141	-1.975818	-0.147493
O2	O	0.150554	-1.547798	-0.147496
O3	O	0.006808	-1.755384	-0.147477
O4	O	0.282887	-1.768233	-0.147512
O5	O	0.006806	-1.755370	0.147488
O6	O	0.150552	-1.547785	0.147469
O7	O	0.139139	-1.975805	0.147472
Cu8	Cu	0.144845	-1.761793	0.174403
Cu9	Cu	0.144848	-1.761810	-0.174427
O10	O	0.282885	-1.768219	0.147453
C11	C	0.149456	-1.492683	-0.000014
C12	C	0.146176	-1.328477	-0.000014
C13	C	-0.028556	-1.749752	0.000006
C14	C	-0.133926	-1.732975	0.000008
C15	C	0.140237	-2.030920	-0.000014
C16	C	0.143517	-2.195126	-0.000025
C17	C	-0.326850	-1.702304	-0.000017
C18	C	-0.383462	-1.821293	-0.000022
C19	C	-0.490812	-1.804226	-0.000036
C20	C	-0.219491	-1.719368	-0.000003
C21	C	0.318249	-1.773850	-0.000034
C22	C	0.423619	-1.790627	-0.000048
N23	N	0.144843	-1.761793	0.419752
N24	N	0.144842	-1.761821	-0.419776
H25	H	-0.359004	-1.587626	-0.000023
O26	O	-0.345155	-1.958150	-0.000311
C27	C	-0.375454	-2.035358	-0.153045
H28	H	-0.396800	-1.953241	-0.259840
H29	H	-0.314875	-2.105944	-0.204296
H30	H	-0.439186	-2.109320	-0.118505
