data_functionalizedCrystal
_audit_creation_method	'MofGen! by Chris Wilmer'
_symmetry_space_group_name_H-M	'P1'
_symmetry_Int_Tables_number	1
_symmetry_cell_setting	triclinic
loop_
_symmetry_equiv_pos_as_xyz
  x,y,z
_cell_length_a	10.967926
_cell_length_b	12.811415
_cell_length_c	10.065875
_cell_angle_alpha	93.481155
_cell_angle_beta	93.120479
_cell_angle_gamma	85.527577
loop_
_atom_site_label
_atom_site_type_symbol
_atom_site_fract_x
_atom_site_fract_y
_atom_site_fract_z
O1	O	1.617248	0.180172	0.244578
O2	O	1.267275	0.183122	0.161898
O3	O	1.448200	0.031612	0.223210
O4	O	1.436323	0.331682	0.183266
O5	O	1.413703	0.060624	0.438493
O6	O	1.232778	0.212134	0.377181
O7	O	1.582751	0.209184	0.459861
Zn8	Zn	1.402287	0.215265	0.452702
Zn9	Zn	1.447739	0.177040	0.169057
O10	O	1.401826	0.360694	0.398549
C11	C	1.205175	0.195221	0.259289
C12	C	1.071531	0.188037	0.228745
C13	C	0.994078	0.199863	0.326650
C14	C	0.855949	0.192439	0.295084
C15	C	1.429229	0.007594	0.335213
C16	C	1.424081	-0.107195	0.348205
C17	C	1.451998	-0.354518	0.137885
C18	C	1.447162	-0.462374	0.150086
C19	C	1.409564	-0.430763	0.384805
C20	C	1.414400	-0.322908	0.372604
C21	C	1.435619	-0.284790	0.249140
C22	C	1.440464	-0.176933	0.236943
C23	C	1.402857	-0.145324	0.471658
C24	C	1.398021	-0.253179	0.483859
C25	C	1.644852	0.197084	0.362468
C26	C	1.778497	0.204267	0.393003
C27	C	1.420798	0.384711	0.286543
C28	C	1.425947	0.499499	0.273543
N29	N	1.371277	0.241353	0.646284
N30	N	1.478759	0.150945	-0.024522
C31	C	1.436941	0.186110	0.736347
C32	C	1.413084	0.206196	0.885416
H33	H	1.457746	-0.145900	0.136413
H34	H	1.030028	0.215479	0.433841
C35	C	1.474995	-0.313325	0.003720
C36	C	1.488283	-0.397476	-0.091111
C37	C	1.509454	-0.359570	-0.214724
H38	H	1.547617	-0.277104	0.010987
H39	H	1.407703	-0.266761	-0.023085
H40	H	1.555569	-0.444023	-0.064312
H41	H	1.415674	-0.433706	-0.098419
H42	H	1.442162	-0.313006	-0.241528
H43	H	1.582075	-0.323349	-0.207442
H44	H	1.518461	-0.416659	-0.279083
C45	C	0.826641	0.225139	0.535850
C46	C	0.954067	0.228387	0.538761
C47	C	0.998458	0.247624	0.670322
H48	H	0.806232	0.170715	0.588757
H49	H	0.790735	0.290426	0.570206
H50	H	0.989961	0.163108	0.504422
H51	H	0.974510	0.282811	0.485881
H52	H	0.962552	0.312911	0.704678
H53	H	0.978041	0.193197	0.723218
H54	H	1.084919	0.249839	0.672313
H55	H	1.510817	0.123941	0.703095
C56	C	1.023365	0.167266	0.085891
C57	C	0.895933	0.164067	0.082977
C58	C	0.851523	0.144949	-0.048601
H59	H	1.059206	0.102005	0.051426
H60	H	1.043826	0.221747	0.033078
H61	H	0.875483	0.109590	0.135770
H62	H	0.860060	0.229319	0.117416
H63	H	0.871984	0.199430	-0.101414
H64	H	0.887372	0.079689	-0.083055
H65	H	0.765055	0.142786	-0.050597
C66	C	1.385322	-0.069680	0.592565
C67	C	1.476018	-0.094010	0.691522
C68	C	1.459925	-0.024341	0.802910
H69	H	1.306923	-0.075615	0.625878
H70	H	1.391305	0.000026	0.567685
H71	H	1.470025	-0.163699	0.716401
H72	H	1.554428	-0.088068	0.658252
H73	H	1.465908	0.045364	0.778030
H74	H	1.381523	-0.030282	0.836210
H75	H	1.521465	-0.040834	0.870060
H76	H	1.460495	-0.519144	0.059489
H77	H	1.392278	-0.461818	0.485321
C78	C	1.272858	0.324235	0.690879
C79	C	1.268790	0.327704	0.829872
C80	C	1.178151	0.404053	0.870997
H81	H	1.195663	0.307198	0.651664
H82	H	1.291345	0.390722	0.663724
H83	H	1.250295	0.261232	0.857015
H84	H	1.345963	0.344754	0.869121
H85	H	1.196638	0.470540	0.843842
H86	H	1.100962	0.387009	0.831773
H87	H	1.175386	0.406423	0.965308
H88	H	0.820006	0.176813	0.187887
H89	H	1.380740	-0.284230	0.584379
H90	H	1.339195	0.268361	0.918661
H91	H	1.552639	0.088772	0.942232
