data_functionalizedCrystal
_audit_creation_method	'MofGen! by Chris Wilmer'
_symmetry_space_group_name_H-M	'P1'
_symmetry_Int_Tables_number	1
_symmetry_cell_setting	triclinic
loop_
_symmetry_equiv_pos_as_xyz
  x,y,z
_cell_length_a	27.440280
_cell_length_b	17.917603
_cell_length_c	17.917603
_cell_angle_alpha	60.138055
_cell_angle_beta	90.006544
_cell_angle_gamma	63.032973
loop_
_atom_site_label
_atom_site_type_symbol
_atom_site_fract_x
_atom_site_fract_y
_atom_site_fract_z
Zr1	Zr	0.497304	0.806776	-0.128965
O2	O	0.427375	0.951821	-0.249514
O3	O	0.515400	0.654546	-0.087310
O4	O	0.524229	0.796396	-0.242717
O5	O	0.415382	0.820664	0.023134
O6	O	0.604431	0.796383	-0.242702
O7	O	0.418545	0.809970	-0.094107
O8	O	0.588637	0.542638	0.035293
O9	O	0.431176	1.074409	-0.254861
O10	O	0.587008	0.719812	-0.075212
O11	O	0.524794	0.727803	0.012272
O12	O	0.535189	0.894814	-0.170699
O13	O	0.472975	0.902804	-0.083215
Zr14	Zr	0.620172	0.823811	0.058045
Zr15	Zr	0.625217	0.806756	-0.128941
Zr16	Zr	0.492259	0.823832	0.058021
Zr17	Zr	0.503367	1.002291	-0.137492
Zr18	Zr	0.614109	0.628297	0.066573
O19	O	0.602077	0.976042	0.016391
O20	O	0.609250	0.951791	-0.249479
O21	O	0.420201	0.976072	0.016356
O22	O	0.690102	0.678767	0.178595
O23	O	0.697275	0.654516	-0.087275
O24	O	0.508226	0.678797	0.178560
O25	O	0.702094	0.809924	-0.094053
O26	O	0.593248	0.834191	0.171797
O27	O	0.513046	0.834205	0.171782
O28	O	0.698931	0.820618	0.023188
O29	O	0.532850	1.074392	-0.254841
O30	O	0.584627	0.556195	0.183922
O31	O	0.686300	0.556179	0.183941
O32	O	0.690310	0.542622	0.035312
O33	O	0.427166	1.087966	-0.106232
O34	O	0.528840	1.087950	-0.106212
O35	O	0.582287	0.735774	0.099780
O36	O	0.644502	0.727783	0.012295
O37	O	0.592682	0.902785	-0.083192
O38	O	0.530468	0.910776	0.004292
C39	C	0.551154	0.570735	-0.024794
C40	C	0.548580	0.487735	-0.021174
C41	C	0.543878	0.335769	-0.014563
C42	C	0.573597	0.294815	-0.056354
C43	C	0.570981	0.210256	-0.052676
C44	C	0.546494	0.420335	-0.018240
C45	C	0.398739	0.815320	-0.035490
C46	C	0.344436	0.815329	-0.035501
C47	C	0.034784	0.723930	0.014408
C48	C	-0.016235	0.723925	0.014416
O49	O	-0.019619	0.646238	0.056833
N50	N	-0.068800	0.815272	-0.035428
C51	C	-0.070346	0.906632	-0.085276
O52	O	-0.119742	0.984330	-0.127671
C53	C	-0.019328	0.906637	-0.085278
C54	C	0.033237	0.815282	-0.035438
C55	C	0.087347	0.632583	0.064245
C56	C	0.138362	0.632588	0.064236
C57	C	0.136815	0.723941	0.014389
C58	C	0.084252	0.815287	-0.035448
C59	C	-0.020875	0.997996	-0.135121
C60	C	0.030149	0.997992	-0.135118
C61	C	0.082714	0.906638	-0.085278
C62	C	0.133720	0.906645	-0.085304
N63	N	0.186285	0.815297	-0.035459
C64	C	0.187833	0.723945	0.014387
C65	C	-0.177486	0.906616	-0.085266
C66	C	-0.228503	0.906612	-0.085269
C67	C	-0.174388	0.723904	0.014424
C68	C	-0.123370	0.723909	0.014422
C69	C	-0.124920	0.815268	-0.035422
C70	C	0.294967	0.723963	0.014363
C71	C	0.345984	0.723976	0.014346
C72	C	0.291864	0.906684	-0.085344
C73	C	0.240851	0.906671	-0.085331
C74	C	0.242406	0.815303	-0.035471
O75	O	0.137148	0.984292	-0.127695
O76	O	0.237231	0.646261	0.056784
C77	C	0.718738	0.815268	-0.035429
C78	C	0.773040	0.815259	-0.035419
C79	C	0.565049	0.793960	-0.269351
C80	C	0.567190	0.786719	-0.348731
C81	C	0.566322	1.059852	-0.046126
C82	C	0.568896	1.142853	-0.049746
C83	C	0.571115	0.773493	-0.494086
C84	C	0.546363	0.857090	-0.576836
C85	C	0.548547	0.849731	-0.657717
C86	C	0.568932	0.780850	-0.413196
C87	C	0.552428	0.836628	0.198431
C88	C	0.550286	0.843869	0.277812
C89	C	0.711154	0.570709	-0.024763
C90	C	0.762882	0.487700	-0.021133
C91	C	0.544844	0.592070	0.209097
C92	C	0.540128	0.516309	0.292098
C93	C	0.704843	0.592044	0.209128
C94	C	0.754430	0.516274	0.292139
C95	C	0.412633	1.038544	-0.280047
C96	C	0.363046	1.114313	-0.363058
C97	C	0.406323	1.059878	-0.046156
C98	C	0.354594	1.142888	-0.049787
C99	C	0.572633	1.038518	-0.280017
C100	C	0.577348	1.114279	-0.363017
C101	C	0.757164	0.444556	-0.065114
C102	C	0.805764	0.366569	-0.061720
C103	C	0.860082	0.331722	-0.014341
C104	C	0.865799	0.374873	0.029641
C105	C	0.817200	0.452864	0.026242
C106	C	0.567924	0.484893	0.376761
C107	C	0.563492	0.413720	0.454756
C108	C	0.531266	0.373959	0.448085
C109	C	0.503466	0.405382	0.363412
C110	C	0.507896	0.476559	0.285420
C111	C	0.810197	0.476522	0.285456
C112	C	0.856795	0.405339	0.363445
C113	C	0.847624	0.373905	0.448118
C114	C	0.791851	0.413665	0.454799
C115	C	0.745255	0.484852	0.376810
C116	C	0.307279	1.154076	-0.356375
C117	C	0.260683	1.225283	-0.434366
C118	C	0.269854	1.256721	-0.519039
C119	C	0.325627	1.216956	-0.525720
C120	C	0.372222	1.145755	-0.447730
C121	C	0.360313	1.186039	-0.005814
C122	C	0.311714	1.264046	-0.009229
C123	C	0.257396	1.298896	-0.056611
C124	C	0.251679	1.255741	-0.100589
C125	C	0.300277	1.177740	-0.097180
C126	C	0.609579	1.154018	-0.356317
C127	C	0.614021	1.225193	-0.434297
C128	C	0.586228	1.256633	-0.518977
C129	C	0.553996	1.216886	-0.525675
C130	C	0.549558	1.145707	-0.447695
H131	H	0.388784	0.649581	0.054935
H132	H	0.417629	1.113380	-0.453182
H133	H	0.632211	1.128431	-0.287374
O134	O	0.598301	0.681600	-0.482185
C135	C	0.594393	0.694623	-0.566769
H136	H	0.556040	0.772221	-0.619684
H137	H	0.635092	0.688445	-0.585686
C138	C	0.634058	0.517065	-0.497139
C139	C	0.586950	0.612369	-0.562129
H140	H	0.629470	0.466324	-0.494278
H141	H	0.636694	0.508290	-0.440153
H142	H	0.667970	0.511930	-0.512911
H143	H	0.553041	0.617506	-0.546351
H144	H	0.584308	0.621142	-0.619113
O145	O	0.224564	1.325750	-0.594761
C146	C	0.189190	1.287656	-0.592941
H147	H	0.215228	1.201706	-0.546851
H148	H	0.152406	1.318502	-0.566647
C149	C	0.133085	1.426044	-0.745341
C150	C	0.165066	1.320479	-0.688738
H151	H	0.118202	1.446294	-0.804433
H152	H	0.156916	1.451712	-0.746567
H153	H	0.102436	1.451736	-0.723418
H154	H	0.195719	1.294790	-0.710655
H155	H	0.141240	1.294808	-0.687518
O156	O	0.704448	0.478308	-0.111215
C157	C	0.709833	0.423477	-0.149284
H158	H	0.754611	0.390514	-0.156915
H159	H	0.702398	0.359646	-0.103533
C160	C	0.610274	0.534825	-0.232988
C161	C	0.665270	0.494345	-0.242368
H162	H	0.582784	0.578537	-0.290405
H163	H	0.606645	0.571763	-0.207338
H164	H	0.604087	0.481624	-0.194858
H165	H	0.671459	0.547545	-0.280487
H166	H	0.668899	0.457417	-0.268026
H167	H	0.333087	1.242562	-0.594669
O168	O	0.800268	0.324483	-0.104303
C169	C	0.822929	0.220553	-0.040896
H170	H	0.855065	0.192948	0.020657
H171	H	0.786838	0.207547	-0.019801
C172	C	0.813559	0.195792	-0.158879
C173	C	0.853032	0.161885	-0.083281
H174	H	0.832125	0.159601	-0.185024
H175	H	0.798289	0.265812	-0.201598
H176	H	0.783485	0.184951	-0.141289
H177	H	0.883100	0.172737	-0.100873
H178	H	0.868307	0.091865	-0.040566
O179	O	0.198868	1.289684	-0.146537
C180	C	0.157208	1.367794	-0.140123
H181	H	0.175044	1.360603	-0.077878
H182	H	0.145368	1.443985	-0.202696
C183	C	0.081693	1.368743	-0.209125
C184	C	0.103598	1.359905	-0.132670
H185	H	0.048622	1.363881	-0.204532
H186	H	0.109760	1.316121	-0.213450
H187	H	0.071831	1.432236	-0.261261
H188	H	0.113466	1.296409	-0.080537
H189	H	0.075531	1.412516	-0.128337
H190	H	0.523531	0.934187	-0.586939
H191	H	0.899650	0.268215	-0.011579
H192	H	0.531369	1.242496	-0.594631
O193	O	0.819012	0.507129	0.203142
C194	C	0.765933	0.578506	0.135725
H195	H	0.730932	0.568351	0.165339
H196	H	0.756090	0.657952	0.108839
C197	C	0.811519	0.575347	0.022030
C198	C	0.768531	0.562869	0.058399
H199	H	0.813122	0.565705	-0.025671
H200	H	0.847280	0.527261	0.067448
H201	H	0.803311	0.641552	-0.000369
H202	H	0.776743	0.496661	0.080807
H203	H	0.732771	0.610943	0.012982
H204	H	0.910032	0.346490	0.068216
O205	O	0.910930	0.366785	0.356785
C206	C	0.909026	0.409808	0.265325
H207	H	0.865562	0.438316	0.224157
H208	H	0.915897	0.475542	0.240381
C209	C	1.009763	0.294486	0.305290
C210	C	0.956381	0.329492	0.254727
H211	H	1.038975	0.244946	0.298751
H212	H	1.011046	0.265503	0.366908
H213	H	1.015481	0.349273	0.284497
H214	H	0.950661	0.274709	0.275527
H215	H	0.955098	0.358465	0.193111
O216	O	0.413033	1.152345	0.040225
C217	C	0.407646	1.207155	0.078315
H218	H	0.365535	1.282943	0.039030
H219	H	0.408325	1.162483	0.151436
C220	C	0.509453	1.131909	0.122468
C221	C	0.457733	1.224998	0.074212
H222	H	0.540350	1.142912	0.119941
H223	H	0.513083	1.094979	0.096809
H224	H	0.510011	1.094692	0.183397
H225	H	0.457173	1.262208	0.013282
H226	H	0.454104	1.261934	0.099861
H227	H	0.485262	0.502128	0.216486
O228	O	0.518199	1.107252	-0.454373
C229	C	0.494634	1.150256	-0.545836
H230	H	0.491986	1.225666	-0.589047
H231	H	0.522918	1.097101	-0.565577
C232	C	0.437514	1.074550	-0.507637
C233	C	0.434257	1.167174	-0.560709
H234	H	0.400272	1.084983	-0.516811
H235	H	0.453391	1.045574	-0.446016
H236	H	0.461087	1.030264	-0.524093
H237	H	0.410691	1.211455	-0.544244
H238	H	0.418374	1.196159	-0.622328
O239	O	0.296584	0.635116	0.062811
C240	C	0.353923	0.554505	0.106808
H241	H	0.382955	0.579258	0.069750
H242	H	0.366142	0.531599	0.178981
C243	C	0.325174	0.433549	0.152949
C244	C	0.360831	0.463950	0.107429
H245	H	0.329436	0.377689	0.153337
H246	H	0.286544	0.487858	0.123311
H247	H	0.335361	0.414468	0.213089
H248	H	0.350640	0.483042	0.047289
H249	H	0.399460	0.409642	0.137058
O250	O	0.782869	0.383107	0.537005
C251	C	0.749756	0.338838	0.548549
H252	H	0.724491	0.367950	0.479872
H253	H	0.779093	0.253261	0.588068
C254	C	0.739115	0.330997	0.684900
C255	C	0.708080	0.366760	0.600549
H256	H	0.713410	0.348216	0.716979
H257	H	0.761426	0.360818	0.677124
H258	H	0.763561	0.259685	0.717820
H259	H	0.683641	0.438071	0.567626
H260	H	0.685764	0.336951	0.608320
H261	H	0.821864	0.487983	0.062062
O262	O	0.599225	0.523582	0.383095
C263	C	0.597169	0.593165	0.296108
H264	H	0.586607	0.575846	0.247226
H265	H	0.562801	0.673009	0.273536
C266	C	0.668587	0.605984	0.357650
C267	C	0.655620	0.584707	0.297613
H268	H	0.704641	0.600772	0.358577
H269	H	0.669971	0.559107	0.416255
H270	H	0.639943	0.672520	0.338832
H271	H	0.684260	0.518169	0.316437
H272	H	0.654242	0.631573	0.239011
H273	H	0.586132	0.388144	0.523692
O274	O	0.892940	0.304843	0.523802
C275	C	0.928299	0.342958	0.522006
H276	H	0.921061	0.402956	0.449457
H277	H	0.917440	0.377881	0.562765
C278	C	1.000259	0.182682	0.652091
C279	C	0.991373	0.256366	0.562984
H280	H	1.039166	0.129268	0.677371
H281	H	0.976437	0.157003	0.653304
H282	H	0.991206	0.211797	0.686045
H283	H	1.000419	0.227254	0.529029
H284	H	1.015198	0.282038	0.561766
O285	O	0.606340	0.328599	-0.102349
C286	C	0.633445	0.273888	-0.140508
H287	H	0.636259	0.198067	-0.101292
H288	H	0.607665	0.318604	-0.213642
C289	C	0.690621	0.349269	-0.184542
C290	C	0.694081	0.256140	-0.136371
H291	H	0.728023	0.338324	-0.181994
H292	H	0.672358	0.386132	-0.158837
H293	H	0.669135	0.386523	-0.245482
H294	H	0.715561	0.218893	-0.075430
H295	H	0.712349	0.219270	-0.162066
O296	O	0.210247	1.374640	-0.059792
C297	C	0.226950	1.405261	-0.010832
H298	H	0.270624	1.341251	0.040447
H299	H	0.229512	1.474433	-0.058994
C300	C	0.129100	1.510354	-0.024543
C301	C	0.182739	1.431732	0.038444
H302	H	0.101827	1.526687	0.005850
H303	H	0.117846	1.489727	-0.057531
H304	H	0.131243	1.567988	-0.064674
H305	H	0.180597	1.374096	0.078566
H306	H	0.193991	1.452350	0.071440
O307	O	0.298263	1.123698	-0.274203
C308	C	0.239046	1.174062	-0.285047
H309	H	0.216086	1.247038	-0.355061
H310	H	0.222254	1.123484	-0.276700
C311	C	0.256255	1.109194	-0.127598
C312	C	0.228057	1.198828	-0.213588
H313	H	0.249476	1.124467	-0.083517
H314	H	0.296151	1.075259	-0.120291
H315	H	0.242259	1.067054	-0.120655
H316	H	0.242058	1.240960	-0.220534
H317	H	0.188163	1.232771	-0.220895
O318	O	-0.071882	1.086833	-0.183543
C319	C	-0.062293	1.167449	-0.227541
H320	H	-0.018591	1.142692	-0.190497
H321	H	-0.063664	1.190372	-0.299720
C322	C	-0.162678	1.288394	-0.273637
C323	C	-0.109004	1.257990	-0.228135
H324	H	-0.191492	1.344245	-0.274008
H325	H	-0.169138	1.234082	-0.243998
H326	H	-0.163812	1.307489	-0.333782
H327	H	-0.107868	1.238883	-0.167988
H328	H	-0.102544	1.312301	-0.257764
O329	O	0.590644	1.325687	-0.594655
C330	C	0.648577	1.287559	-0.592845
H331	H	0.676876	1.227561	-0.520293
H332	H	0.658396	1.252634	-0.633602
C333	C	0.625615	1.447827	-0.722927
C334	C	0.660372	1.374143	-0.633817
H335	H	0.632890	1.501236	-0.748204
H336	H	0.586583	1.473515	-0.724149
H337	H	0.633800	1.418710	-0.756880
H338	H	0.652181	1.403257	-0.599863
H339	H	0.699402	1.348462	-0.632590
O340	O	0.526948	0.304918	0.523911
C341	C	0.501929	0.347608	0.572200
H342	H	0.508668	0.412465	0.552976
H343	H	0.454170	0.377272	0.555210
C344	C	0.521736	0.186901	0.697476
C345	C	0.530017	0.266554	0.673871
H346	H	0.539060	0.136903	0.760192
H347	H	0.538590	0.158140	0.664942
H348	H	0.481936	0.211634	0.683311
H349	H	0.569816	0.241823	0.688026
H350	H	0.513171	0.295310	0.706410
O351	O	0.472081	0.366902	0.356894
C352	C	0.414912	0.445914	0.307228
H353	H	0.405726	0.512792	0.310529
H354	H	0.407808	0.470107	0.234119
C355	C	0.385752	0.327060	0.343223
C356	C	0.374468	0.409198	0.347283
H357	H	0.360803	0.304412	0.367927
H358	H	0.424268	0.273828	0.376681
H359	H	0.379832	0.347232	0.282297
H360	H	0.380394	0.389022	0.408209
H361	H	0.335952	0.462427	0.313836
H362	H	0.181159	0.558198	0.104817
O363	O	-0.072360	0.635081	0.062924
C364	C	-0.081942	0.554456	0.106896
H365	H	-0.126848	0.583289	0.114709
H366	H	-0.077517	0.521181	0.065376
C367	C	0.017427	0.436972	0.190864
C368	C	-0.037726	0.472384	0.200467
H369	H	0.044703	0.386343	0.248582
H370	H	0.023883	0.491290	0.161238
H371	H	0.021106	0.409250	0.156261
H372	H	-0.041407	0.500116	0.235060
H373	H	-0.044182	0.418069	0.230102
H374	H	0.516471	0.307327	0.023974
H375	H	0.295613	1.142608	-0.132985
O376	O	-0.279514	0.995446	-0.133711
C377	C	-0.269930	1.076067	-0.177725
H378	H	-0.226233	1.051328	-0.140680
H379	H	-0.271292	1.098967	-0.249897
C380	C	-0.370319	1.197004	-0.223852
C381	C	-0.316652	1.166621	-0.178348
H382	H	-0.399140	1.252865	-0.224240
H383	H	-0.376776	1.142689	-0.194202
H384	H	-0.371446	1.216081	-0.283991
H385	H	-0.315523	1.147534	-0.118207
H386	H	-0.310195	1.220936	-0.207988
H387	H	0.088617	0.558189	0.104841
H388	H	0.316380	1.299171	0.026588
O389	O	0.206503	1.264057	-0.427916
C390	C	0.179590	1.369654	-0.473094
H391	H	0.213448	1.390689	-0.477464
H392	H	0.152544	1.407998	-0.543839
C393	C	0.099404	1.378958	-0.415604
C394	C	0.140989	1.404792	-0.420966
H395	H	0.075590	1.400635	-0.383452
H396	H	0.117534	1.307816	-0.385169
H397	H	0.076872	1.410914	-0.474563
H398	H	0.163524	1.372827	-0.362008
H399	H	0.122861	1.475931	-0.451389
O400	O	0.028667	1.086727	-0.183400
C401	C	0.054921	1.097783	-0.125023
H402	H	0.053750	1.049849	-0.053841
H403	H	0.101228	1.071985	-0.125517
C404	C	0.024067	1.268333	-0.244170
C405	C	0.022625	1.209466	-0.156744
H406	H	0.004148	1.337225	-0.263738
H407	H	0.006381	1.260884	-0.283501
H408	H	0.062658	1.246823	-0.244570
H409	H	-0.015964	1.230968	-0.156347
H410	H	0.040304	1.216921	-0.117413
H411	H	0.699848	0.517210	0.382264
H412	H	-0.173135	0.649520	0.055009
O413	O	0.290468	0.995332	-0.133681
C414	C	0.346773	0.975734	-0.123010
H415	H	0.376385	0.899266	-0.057743
H416	H	0.361497	0.974884	-0.182223
C417	C	0.312012	1.152691	-0.199695
C418	C	0.348383	1.058775	-0.119529
H419	H	0.313006	1.203916	-0.197552
H420	H	0.274079	1.165895	-0.206888
H421	H	0.324287	1.151968	-0.249031
H422	H	0.336103	1.059495	-0.070197
H423	H	0.386314	1.045572	-0.112328
H424	H	0.198050	0.981058	-0.125927
H425	H	-0.178756	0.981016	-0.125859
H426	H	0.640266	1.257548	-0.428826
