data_functionalizedCrystal
_audit_creation_method	'MofGen! by Chris Wilmer'
_symmetry_space_group_name_H-M	'P1'
_symmetry_Int_Tables_number	1
_symmetry_cell_setting	triclinic
loop_
_symmetry_equiv_pos_as_xyz
  x,y,z
_cell_length_a	16.625539
_cell_length_b	16.625548
_cell_length_c	16.625546
_cell_angle_alpha	90.023536
_cell_angle_beta	90.030397
_cell_angle_gamma	90.020568
loop_
_atom_site_label
_atom_site_type_symbol
_atom_site_fract_x
_atom_site_fract_y
_atom_site_fract_z
Zn1	Zn	-0.455898	-1.232680	0.320977
Zn2	Zn	-0.205898	-0.982680	0.570977
Zn3	Zn	0.044102	-0.732680	0.820977
Zn4	Zn	0.294102	-0.482680	1.070977
Zn5	Zn	-0.321060	-1.232584	0.455820
Zn6	Zn	-0.071060	-0.982584	0.705820
Zn7	Zn	0.178940	-0.732584	0.955820
Zn8	Zn	0.428940	-0.482584	1.205820
Zn9	Zn	-0.321078	-1.097842	0.321008
Zn10	Zn	-0.071078	-0.847842	0.571008
Zn11	Zn	0.178922	-0.597842	0.821008
Zn12	Zn	0.428922	-0.347842	1.071008
Zn13	Zn	-0.455850	-1.097813	0.455774
Zn14	Zn	-0.205850	-0.847813	0.705774
Zn15	Zn	0.044150	-0.597813	0.955774
Zn16	Zn	0.294150	-0.347813	1.205774
O17	O	-0.388471	-1.165230	0.388395
O18	O	-0.138471	-0.915230	0.638395
O19	O	0.111529	-0.665230	0.888395
O20	O	0.361529	-0.415230	1.138395
O21	O	-0.438024	-1.345500	0.338871
O22	O	-0.188024	-1.095500	0.588871
O23	O	0.061976	-0.845500	0.838871
O24	O	0.311976	-0.595500	1.088871
O25	O	-0.208230	-1.214682	0.437969
O26	O	0.041770	-0.964682	0.687969
O27	O	0.291770	-0.714682	0.937969
O28	O	0.541770	-0.464682	1.187969
O29	O	-0.338990	-1.115782	0.208171
O30	O	-0.088990	-0.865782	0.458171
O31	O	0.161010	-0.615782	0.708171
O32	O	0.411010	-0.365782	0.958171
O33	O	-0.338959	-1.345429	0.437940
O34	O	-0.088959	-1.095429	0.687940
O35	O	0.161041	-0.845429	0.937940
O36	O	0.411041	-0.595429	1.187940
O37	O	-0.438041	-1.214847	0.208149
O38	O	-0.188041	-0.964847	0.458149
O39	O	0.061959	-0.714847	0.708149
O40	O	0.311959	-0.464847	0.958149
O41	O	-0.208243	-1.115688	0.338923
O42	O	0.041757	-0.865688	0.588923
O43	O	0.291757	-0.615688	0.838923
O44	O	0.541757	-0.365688	1.088923
O45	O	-0.338944	-0.985006	0.338878
O46	O	-0.088944	-0.735006	0.588878
O47	O	0.161056	-0.485006	0.838878
O48	O	0.411056	-0.235006	1.088878
O49	O	-0.568689	-1.115731	0.437861
O50	O	-0.318689	-0.865731	0.687861
O51	O	-0.068689	-0.615731	0.937861
O52	O	0.181311	-0.365731	1.187861
O53	O	-0.437960	-0.984984	0.437890
O54	O	-0.187960	-0.734984	0.687890
O55	O	0.062040	-0.484984	0.937890
O56	O	0.312040	-0.234984	1.187890
O57	O	-0.568724	-1.214818	0.338826
O58	O	-0.318724	-0.964818	0.588826
O59	O	-0.068724	-0.714818	0.838826
O60	O	0.181276	-0.464818	1.088826
O61	O	-0.338912	-1.214653	0.568647
O62	O	-0.088912	-0.964653	0.818647
O63	O	0.161088	-0.714653	1.068647
O64	O	0.411088	-0.464653	1.318647
O65	O	-0.437942	-1.115637	0.568613
O66	O	-0.187942	-0.865637	0.818613
O67	O	0.062058	-0.615637	1.068613
O68	O	0.312058	-0.365637	1.318613
C69	C	-0.388449	-0.955739	0.388383
C70	C	-0.138449	-0.705739	0.638383
C71	C	0.111551	-0.455739	0.888383
C72	C	0.361551	-0.205739	1.138383
C73	C	-0.388458	-0.866118	0.388398
C74	C	-0.138458	-0.616118	0.638398
C75	C	0.111542	-0.366118	0.888398
C76	C	0.361542	-0.116118	1.138398
C77	C	-0.388438	-1.165153	0.597886
C78	C	-0.138438	-0.915153	0.847886
C79	C	0.111562	-0.665153	1.097886
C80	C	0.361562	-0.415153	1.347886
C81	C	-0.388450	-1.165195	0.687507
C82	C	-0.138450	-0.915195	0.937507
C83	C	0.111550	-0.665195	1.187507
C84	C	0.361550	-0.415195	1.437507
C85	C	-0.598780	-1.165282	0.388335
C86	C	-0.348780	-0.915282	0.638335
C87	C	-0.098780	-0.665282	0.888335
C88	C	0.151220	-0.415282	1.138335
C89	C	-0.688402	-1.165305	0.388309
C90	C	-0.438402	-0.915305	0.638309
C91	C	-0.188402	-0.665305	0.888309
C92	C	0.061598	-0.415305	1.138309
C93	C	-1.016577	-1.165342	0.388219
C94	C	-0.766577	-0.915342	0.638219
C95	C	-0.516577	-0.665342	0.888219
C96	C	-0.266577	-0.415342	1.138219
C97	C	-0.925269	-1.165329	0.388247
C98	C	-0.675269	-0.915329	0.638247
C99	C	-0.425269	-0.665329	0.888247
C100	C	-0.175269	-0.415329	1.138247
C101	C	-0.852492	-1.165324	0.388265
C102	C	-0.602492	-0.915324	0.638265
C103	C	-0.352492	-0.665324	0.888265
C104	C	-0.102492	-0.415324	1.138265
C105	C	-0.761178	-1.165310	0.388291
C106	C	-0.511178	-0.915310	0.638291
C107	C	-0.261178	-0.665310	0.888291
C108	C	-0.011178	-0.415310	1.138291
C109	C	-0.178981	-1.165224	0.388397
C110	C	0.071019	-0.915224	0.638397
C111	C	0.321019	-0.665224	0.888397
C112	C	0.571019	-0.415224	1.138397
C113	C	-0.089360	-1.165358	0.388195
C114	C	0.160640	-0.915358	0.638195
C115	C	0.410640	-0.665358	0.888195
C116	C	0.660640	-0.415358	1.138195
C117	C	-0.388494	-1.375539	0.388407
C118	C	-0.138494	-1.125539	0.638407
C119	C	0.111506	-0.875539	0.888407
C120	C	0.361506	-0.625539	1.138407
C121	C	-0.388504	-1.465160	0.388412
C122	C	-0.138504	-1.215160	0.638412
C123	C	0.111496	-0.965160	0.888412
C124	C	0.361496	-0.715160	1.138412
C125	C	-0.388493	-0.537942	0.388403
C126	C	-0.138493	-0.287942	0.638403
C127	C	0.111507	-0.037942	0.888403
C128	C	0.361507	0.212058	1.138403
C129	C	-0.388481	-0.629251	0.388399
C130	C	-0.138481	-0.379251	0.638399
C131	C	0.111519	-0.129251	0.888399
C132	C	0.361519	0.120749	1.138399
C133	C	-0.388475	-0.702027	0.388401
C134	C	-0.138475	-0.452027	0.638401
C135	C	0.111525	-0.202027	0.888401
C136	C	0.361525	0.047973	1.138401
C137	C	-0.388464	-0.793341	0.388396
C138	C	-0.138464	-0.543341	0.638396
C139	C	0.111536	-0.293341	0.888396
C140	C	0.361536	-0.043341	1.138396
C141	C	-0.388523	-1.165328	0.178086
C142	C	-0.138523	-0.915328	0.428086
C143	C	0.111477	-0.665328	0.678086
C144	C	0.361477	-0.415328	0.928086
C145	C	-0.388545	-1.165370	0.088465
C146	C	-0.138545	-0.915370	0.338465
C147	C	0.111455	-0.665370	0.588465
C148	C	0.361455	-0.415370	0.838465
C149	C	-0.388534	-1.165335	1.015682
C150	C	-0.138534	-0.915335	1.265682
C151	C	0.111466	-0.665335	1.515682
C152	C	0.361466	-0.415335	1.765682
C153	C	-0.388513	-1.165294	0.924374
C154	C	-0.138513	-0.915294	1.174374
C155	C	0.111487	-0.665294	1.424374
C156	C	0.361487	-0.415294	1.674374
C157	C	-0.388492	-1.165264	0.851598
C158	C	-0.138492	-0.915264	1.101598
C159	C	0.111508	-0.665264	1.351598
C160	C	0.361508	-0.415264	1.601598
C161	C	-0.388471	-1.165224	0.760283
C162	C	-0.138471	-0.915224	1.010283
C163	C	0.111529	-0.665224	1.260283
C164	C	0.361529	-0.415224	1.510283
