data_functionalizedCrystal
_audit_creation_method	'MofGen! by Chris Wilmer'
_symmetry_space_group_name_H-M	'P1'
_symmetry_Int_Tables_number	1
_symmetry_cell_setting	triclinic
loop_
_symmetry_equiv_pos_as_xyz
  x,y,z
_cell_length_a	13.032831
_cell_length_b	11.169416
_cell_length_c	11.169409
_cell_angle_alpha	90.030874
_cell_angle_beta	82.804574
_cell_angle_gamma	97.184303
loop_
_atom_site_label
_atom_site_type_symbol
_atom_site_fract_x
_atom_site_fract_y
_atom_site_fract_z
Zn1	Zn	1.597817	0.711078	-0.911316
Zn2	Zn	1.597720	0.911805	-0.710624
Zn3	Zn	1.423042	0.685622	-0.685190
Zn4	Zn	1.423049	0.886192	-0.885824
O5	O	1.510407	0.798674	-0.798238
O6	O	1.744048	0.759077	-0.906006
O7	O	1.574506	0.881866	-0.539294
O8	O	1.446264	0.521054	-0.715211
O9	O	1.743977	0.906550	-0.758559
O10	O	1.574670	0.539757	-0.881344
O11	O	1.446171	0.715690	-0.520608
O12	O	1.276799	0.690855	-0.690492
O13	O	1.446275	0.862898	-1.057161
O14	O	1.276804	0.838214	-0.837896
O15	O	1.574676	0.734242	-1.075890
O16	O	1.574512	1.076351	-0.733840
O17	O	1.446182	1.057534	-0.862559
C18	C	1.238882	0.758994	-0.758669
C19	C	1.122722	0.742047	-0.741769
C20	C	1.510365	1.110493	-0.798223
C21	C	1.510443	1.243904	-0.798271
C22	C	1.510487	0.798553	-1.111293
C23	C	1.510521	0.798501	-1.244698
C24	C	1.070964	0.807519	-0.807058
C25	C	0.950907	0.790005	-0.789593
C26	C	1.782992	0.838510	-0.837963
C27	C	1.899152	0.855486	-0.854892
C28	C	1.510477	0.485642	-0.798284
C29	C	1.510507	0.352246	-0.798304
C30	C	1.510387	0.798717	-0.486411
C31	C	1.510555	0.798461	-0.353036
H32	H	1.115534	0.876533	-0.875889
H33	H	0.943717	0.924503	-0.923730
H34	H	1.078152	0.673024	-0.672948
H35	H	0.906341	0.720977	-0.720767
