data_functionalizedCrystal
_audit_creation_method	'MofGen! by Chris Wilmer'
_symmetry_space_group_name_H-M	'P1'
_symmetry_Int_Tables_number	1
_symmetry_cell_setting	triclinic
loop_
_symmetry_equiv_pos_as_xyz
  x,y,z
_cell_length_a	14.909351
_cell_length_b	12.594517
_cell_length_c	14.908308
_cell_angle_alpha	93.276844
_cell_angle_beta	96.746848
_cell_angle_gamma	86.724328
loop_
_atom_site_label
_atom_site_type_symbol
_atom_site_fract_x
_atom_site_fract_y
_atom_site_fract_z
Zn1	Zn	-0.389857	1.617479	-0.532647
Zn2	Zn	0.110143	2.117479	-0.032647
Zn3	Zn	-0.532490	1.636785	-0.390034
Zn4	Zn	-0.032490	2.136785	0.109966
Zn5	Zn	-0.381158	1.449204	-0.381300
Zn6	Zn	0.118842	1.949204	0.118700
Zn7	Zn	-0.541160	1.449160	-0.541339
Zn8	Zn	-0.041160	1.949160	-0.041339
O9	O	-0.461166	1.538157	-0.461330
O10	O	0.038834	2.038157	0.038670
O11	O	-0.408789	1.768985	-0.513746
O12	O	0.091211	2.268985	-0.013746
O13	O	-0.505146	1.620000	-0.262214
O14	O	-0.005146	2.120000	0.237786
O15	O	-0.255659	1.463465	-0.394084
O16	O	0.244341	1.963465	0.105916
O17	O	-0.513581	1.783169	-0.408969
O18	O	-0.013581	2.283169	0.091031
O19	O	-0.262049	1.587096	-0.505278
O20	O	0.237951	2.087096	-0.005278
O21	O	-0.393964	1.482185	-0.255797
O22	O	0.106036	1.982185	0.244203
O23	O	-0.402371	1.300253	-0.402512
O24	O	0.097629	1.800253	0.097488
O25	O	-0.528358	1.463390	-0.666847
O26	O	-0.028358	1.963390	-0.166847
O27	O	-0.519923	1.300220	-0.520093
O28	O	-0.019923	1.800220	-0.020093
O29	O	-0.417196	1.587053	-0.660461
O30	O	0.082804	2.087053	-0.160461
O31	O	-0.660293	1.619957	-0.417398
O32	O	-0.160293	2.119957	0.082602
O33	O	-0.666663	1.482109	-0.528561
O34	O	-0.166663	1.982109	-0.028561
C35	C	-0.461145	1.261617	-0.461299
C36	C	0.038855	1.761617	0.038701
C37	C	-0.461159	1.143311	-0.461308
C38	C	0.038841	1.643311	0.038692
C39	C	-0.397163	1.003268	-0.397490
C40	C	0.102837	1.503268	0.102510
C41	C	-0.379879	1.067411	-0.478813
C42	C	0.120121	1.567411	0.021187
C43	C	-0.478403	1.080737	-0.379992
C44	C	0.021597	1.580737	0.120008
C45	C	-0.443873	0.996661	-0.542740
C46	C	0.056127	1.496661	-0.042740
C47	C	-0.542432	1.009987	-0.443865
C48	C	-0.042432	1.509987	0.056135
C49	C	-0.525183	1.074096	-0.525247
C50	C	-0.025183	1.574096	-0.025247
C51	C	-0.696319	1.553151	-0.474890
C52	C	-0.196319	2.053151	0.025110
C53	C	-0.796920	1.559660	-0.480721
C54	C	-0.296920	2.059660	0.019279
C55	C	-0.941970	1.633130	-0.546868
C56	C	-0.441970	2.133130	-0.046868
C57	C	-0.847446	1.627021	-0.541393
C58	C	-0.347446	2.127021	-0.041393
C59	C	-0.840924	1.498407	-0.425518
C60	C	-0.340924	1.998407	0.074482
C61	C	-0.935448	1.504517	-0.430992
C62	C	-0.435448	2.004517	0.069008
C63	C	-0.985967	1.571879	-0.491670
C64	C	-0.485967	2.071879	0.008330
C65	C	-1.080493	1.577983	-0.497148
C66	C	-0.580493	2.077983	0.002852
C67	C	-1.073969	1.449376	-0.381268
C68	C	-0.573969	1.949376	0.118732
C69	C	-0.979445	1.443266	-0.375794
C70	C	-0.479445	1.943266	0.124206
C71	C	-0.225096	1.523132	-0.447737
C72	C	0.274904	2.023132	0.052263
C73	C	-0.124497	1.516730	-0.441944
C74	C	0.375503	2.016730	0.058056
C75	C	-0.474715	1.523063	-0.697414
C76	C	0.025285	2.023063	-0.197414
C77	C	-0.480488	1.516631	-0.798020
C78	C	0.019512	2.016631	-0.298020
C79	C	-0.461188	1.815777	-0.461362
C80	C	0.038812	2.315777	0.038638
C81	C	-0.461198	1.934082	-0.461376
C82	C	0.038802	2.434082	0.038624
C83	C	-0.375564	1.633311	-0.980418
C84	C	0.124436	2.133311	-0.480418
C85	C	-0.380985	1.627270	-1.074945
C86	C	0.119015	2.127270	-0.574945
C87	C	-0.496748	1.498505	-1.081603
C88	C	0.003252	1.998505	-0.581603
C89	C	-0.491326	1.504545	-0.987076
C90	C	0.008674	2.004545	-0.487076
C91	C	-0.430733	1.571952	-0.936486
C92	C	0.069267	2.071952	-0.436486
C93	C	-0.425317	1.577997	-0.841958
C94	C	0.074683	2.077997	-0.341958
C95	C	-0.541074	1.449226	-0.848617
C96	C	-0.041074	1.949226	-0.348617
C97	C	-0.546496	1.443186	-0.943144
C98	C	-0.046496	1.943186	-0.443144
C99	C	-0.447605	1.553249	-0.226160
C100	C	0.052395	2.053249	0.273840
C101	C	-0.441576	1.559871	-0.125541
C102	C	0.058424	2.059871	0.374459
H103	H	-0.311162	1.092835	-0.493612
H104	H	0.188838	1.592835	0.006388
C105	C	-0.601762	1.381727	-0.800291
C106	C	-0.101762	1.881727	-0.300291
H107	H	-0.589854	1.394973	-0.736748
H108	H	-0.089854	1.894973	-0.236748
H109	H	-0.663462	1.400187	-0.819290
H110	H	-0.163462	1.900187	-0.319290
H111	H	-0.589397	1.308374	-0.815010
H112	H	-0.089397	1.808374	-0.315010
H113	H	-0.492972	1.117449	-0.311195
H114	H	0.007028	1.617449	0.188805
C115	C	-0.635227	0.975571	-0.423853
C116	C	-0.135227	1.475571	0.076147
H117	H	-0.647374	1.004479	-0.365998
H118	H	-0.147374	1.504479	0.134002
H119	H	-0.680818	1.000924	-0.468619
H120	H	-0.180818	1.500924	0.031381
H121	H	-0.634726	0.900066	-0.424572
H122	H	-0.134726	1.400066	0.075428
C123	C	-1.122364	1.381993	-0.320548
C124	C	-0.622364	1.881993	0.179452
H125	H	-1.078735	1.340996	-0.283634
H126	H	-0.578735	1.840996	0.216366
H127	H	-1.156967	1.427642	-0.283278
H128	H	-0.656967	1.927642	0.216722
H129	H	-1.161236	1.335751	-0.357280
H130	H	-0.661236	1.835751	0.142720
H131	H	-1.121625	1.632824	-0.546563
H132	H	-0.621625	2.132824	-0.046563
H133	H	-0.429224	0.960075	-0.611553
H134	H	0.070776	1.460075	-0.111553
C135	C	-0.323990	0.961233	-0.324634
C136	C	0.176010	1.461233	0.175366
H137	H	-0.266293	0.980716	-0.337206
H138	H	0.233707	1.480716	0.162794
H139	H	-0.335657	0.991178	-0.266960
H140	H	0.164343	1.491178	0.233040
H141	H	-0.324866	0.885858	-0.324807
H142	H	0.175134	1.385858	0.175193
H143	H	-0.595827	1.388304	-0.984347
H144	H	-0.095827	1.888304	-0.484347
H145	H	-0.336058	1.677233	-1.110710
H146	H	0.163942	2.177233	-0.610710
H147	H	-0.375980	1.632884	-0.800769
H148	H	0.124020	2.132884	-0.300769
C149	C	-0.799047	1.694392	-0.602110
C150	C	-0.299047	2.194392	-0.102110
H151	H	-0.735516	1.681114	-0.590157
H152	H	-0.235516	2.181114	-0.090157
H153	H	-0.818018	1.675873	-0.663809
H154	H	-0.318018	2.175873	-0.163809
H155	H	-0.813739	1.767766	-0.589808
H156	H	-0.313739	2.267766	-0.089808
C157	C	-0.308923	1.707458	-0.924763
C158	C	0.191077	2.207458	-0.424763
H159	H	-0.313601	1.702272	-0.862175
H160	H	0.186399	2.202272	-0.362175
H161	H	-0.248998	1.687027	-0.936748
H162	H	0.251002	2.187027	-0.436748
H163	H	-0.323073	1.778829	-0.941025
H164	H	0.176927	2.278829	-0.441025
H165	H	-0.546080	1.443625	-1.122809
H166	H	-0.046080	1.943625	-0.622809
C167	C	-0.598315	1.115851	-0.598266
C168	C	-0.098315	1.615851	-0.098266
H169	H	-0.585928	1.086759	-0.655992
H170	H	-0.085928	1.586759	-0.155992
H171	H	-0.655889	1.095245	-0.586342
H172	H	-0.155889	1.595245	-0.086342
H173	H	-0.598230	1.191321	-0.597522
H174	H	-0.098230	1.691321	-0.097522
H175	H	-0.938302	1.388424	-0.326389
H176	H	-0.438302	1.888424	0.173611
H177	H	-0.799779	1.443571	-0.376109
H178	H	-0.299779	1.943571	0.123891
C179	C	-0.997544	1.707223	-0.613608
C180	C	-0.497544	2.207223	-0.113608
H181	H	-0.957801	1.742831	-0.645697
H182	H	-0.457801	2.242831	-0.145697
H183	H	-1.036695	1.666335	-0.655146
H184	H	-0.536695	2.166335	-0.155146
H185	H	-1.032409	1.758232	-0.581149
H186	H	-0.532409	2.258232	-0.081149
