data_functionalizedCrystal
_audit_creation_method	'MofGen! by Chris Wilmer'
_symmetry_space_group_name_H-M	'P1'
_symmetry_Int_Tables_number	1
_symmetry_cell_setting	triclinic
loop_
_symmetry_equiv_pos_as_xyz
  x,y,z
_cell_length_a	17.699077
_cell_length_b	14.421503
_cell_length_c	17.699103
_cell_angle_alpha	90.002487
_cell_angle_beta	83.285818
_cell_angle_gamma	90.006915
loop_
_atom_site_label
_atom_site_type_symbol
_atom_site_fract_x
_atom_site_fract_y
_atom_site_fract_z
O1	O	1.004090	0.077110	0.095680
O2	O	0.783712	0.077115	0.108137
O3	O	0.900119	0.077095	-0.008279
O4	O	0.887682	0.077130	0.212097
O5	O	0.900101	-0.077129	-0.008266
O6	O	0.783693	-0.077108	0.108151
O7	O	1.004071	-0.077114	0.095694
Cu8	Cu	0.893880	-0.091193	0.101923
Cu9	Cu	0.893902	0.091194	0.101908
O10	O	0.887664	-0.077093	0.212110
C11	C	0.755505	0.000004	0.107698
C12	C	0.671487	0.000006	0.106362
C13	C	0.632009	-0.084063	0.105739
C14	C	0.553067	-0.084064	0.104471
C15	C	0.513602	0.000004	0.103831
C16	C	0.553086	0.084079	0.104451
C17	C	0.632027	0.084079	0.105714
C18	C	0.234722	0.084080	0.099358
C19	C	0.155774	0.084073	0.098098
C20	C	0.155761	-0.084063	0.098115
C21	C	0.234703	-0.084063	0.099378
C22	C	0.274180	0.000011	0.099994
C23	C	0.359779	0.000012	0.101368
C24	C	0.428004	0.000005	0.102463
N25	N	0.893871	-0.219474	0.101934
C26	C	0.840486	-0.530918	0.156185
C27	C	0.825296	-0.469100	0.088032
C28	C	0.893902	-0.591363	0.101904
C29	C	0.909041	-0.469087	0.170070
C30	C	0.893884	-0.408642	0.101922
C31	C	0.878678	-0.530906	0.033717
C32	C	0.962452	-0.530898	0.115799
C33	C	0.947291	-0.469109	0.047597
C34	C	0.893910	-0.696624	0.101894
C35	C	0.893877	-0.303383	0.101924
C36	C	1.032278	-0.000001	0.096133
C37	C	1.116296	0.000004	0.097469
C38	C	0.899662	-0.000020	-0.036469
C39	C	0.898317	-0.000027	-0.120487
N40	N	0.893918	0.219476	0.101891
C41	C	0.890103	0.084101	-0.636205
C42	C	0.891365	0.084092	-0.557262
C43	C	0.891985	0.000020	-0.517796
C44	C	0.891350	-0.084050	-0.557279
C45	C	0.890093	-0.084041	-0.636222
C46	C	0.896420	-0.084089	-0.238913
C47	C	0.897674	-0.084092	-0.159964
C48	C	0.897692	0.084044	-0.159953
C49	C	0.896435	0.084054	-0.238896
C50	C	0.895804	-0.000016	-0.278372
C51	C	0.894437	-0.000006	-0.363971
C52	C	0.893347	0.000009	-0.432198
C53	C	0.888121	0.000023	0.240301
C54	C	0.889466	0.000037	0.324318
H55	H	0.520948	0.152529	0.103925
H56	H	0.898208	0.152498	-0.127802
H57	H	0.664135	-0.152521	0.106266
Br58	Br	0.898513	-0.198199	-0.106404
Br59	Br	0.499491	-0.198162	0.103638
Br60	Br	0.895557	-0.198184	-0.292477
Br61	Br	0.930397	-0.423822	0.266137
H62	H	0.266830	-0.152520	0.099902
Br63	Br	0.102181	-0.198167	0.097277
H64	H	0.891859	-0.152504	-0.525141
H65	H	0.266855	0.152538	0.099857
Br66	Br	0.889236	-0.198132	-0.689800
H67	H	0.123645	0.152536	0.097576
H68	H	0.664169	0.152536	0.106223
H69	H	0.795292	-0.558057	0.202029
H70	H	0.992458	-0.442142	0.001651
Br71	Br	0.728663	-0.423852	0.068445
H72	H	0.895927	0.152514	-0.271024
Br73	Br	0.857214	-0.575969	-0.062375
H74	H	1.020412	-0.558066	0.127572
Br75	Br	0.889254	0.198206	-0.689757
H76	H	0.891886	0.152545	-0.525123
