data_functionalizedCrystal
_audit_creation_method	'MofGen! by Chris Wilmer'
_symmetry_space_group_name_H-M	'P1'
_symmetry_Int_Tables_number	1
_symmetry_cell_setting	triclinic
loop_
_symmetry_equiv_pos_as_xyz
  x,y,z
_cell_length_a	10.654556
_cell_length_b	16.974813
_cell_length_c	9.730223
_cell_angle_alpha	86.341041
_cell_angle_beta	89.998368
_cell_angle_gamma	83.940374
loop_
_atom_site_label
_atom_site_type_symbol
_atom_site_fract_x
_atom_site_fract_y
_atom_site_fract_z
O1	O	1.666106	0.111080	-0.126590
O2	O	1.300464	0.121655	-0.127780
O3	O	1.493478	0.001320	-0.114382
O4	O	1.473092	0.231415	-0.139988
O5	O	1.493466	0.001317	0.114198
O6	O	1.300452	0.121652	0.100800
O7	O	1.666094	0.111076	0.101990
Zn8	Zn	1.483271	0.116363	0.137687
Zn9	Zn	1.483287	0.116368	-0.163477
O10	O	1.473079	0.231411	0.088593
C11	C	1.253672	0.120876	-0.013405
C12	C	1.114265	0.118549	-0.013152
C13	C	0.917778	0.115276	-0.137376
C14	C	1.048766	0.117457	-0.137627
C15	C	1.048771	0.117453	0.111584
C16	C	0.917786	0.115266	0.111834
C17	C	1.492696	-0.028144	0.003183
C18	C	1.490371	-0.115934	0.012943
C19	C	1.489288	-0.157172	-0.107069
C20	C	1.487094	-0.239659	-0.097894
C21	C	1.485993	-0.280907	0.031295
C22	C	1.487072	-0.239664	0.151317
C23	C	1.489257	-0.157178	0.142140
C24	C	1.479451	-0.527605	0.072100
C25	C	1.477270	-0.610097	0.081268
C26	C	1.477289	-0.610086	-0.167945
C27	C	1.479482	-0.527599	-0.177109
C28	C	1.480554	-0.486362	-0.057088
N29	N	1.483755	-0.365223	0.040676
N30	N	1.482783	-0.402047	-0.066471
C31	C	1.712885	0.111856	-0.012388
C32	C	1.852292	0.114182	-0.012650
C33	C	1.473861	0.260876	-0.028976
C34	C	1.476187	0.348665	-0.038745
N35	N	1.483269	0.116360	0.343224
N36	N	1.483299	0.116365	-0.369013
C37	C	1.568764	0.063098	0.421080
C38	C	1.568777	0.063099	0.564963
C39	C	1.397794	0.169629	0.553121
C40	C	1.397777	0.169625	0.409241
H41	H	0.864456	0.114392	-0.238739
H42	H	1.328190	0.212997	0.606886
H43	H	1.328150	0.212997	0.345846
O44	O	1.112176	0.118554	-0.258912
C45	C	1.098348	0.118284	-0.506064
C46	C	1.026378	0.117059	-0.368804
H47	H	1.029015	0.117059	-0.594945
H48	H	1.148050	0.174556	-0.518653
H49	H	1.171288	0.064083	-0.506195
H50	H	0.953378	0.171222	-0.368576
H51	H	0.976762	0.060752	-0.356269
O52	O	1.651847	0.011279	0.357172
C53	C	1.821483	-0.094357	0.384108
C54	C	1.727441	-0.035723	0.456654
H55	H	1.882643	-0.132362	0.464505
H56	H	1.767396	-0.134233	0.321238
H57	H	1.884090	-0.059839	0.312851
H58	H	1.664810	-0.070176	0.527979
H59	H	1.781606	0.004153	0.519437
O60	O	0.854352	0.114243	0.233119
C61	C	0.868179	0.114420	0.480282
C62	C	0.940169	0.115605	0.343034
H63	H	0.937534	0.115504	0.569186
H64	H	0.795296	0.168645	0.480573
H65	H	0.818409	0.058171	0.492694
H66	H	0.990015	0.171818	0.330534
H67	H	1.012980	0.061342	0.342805
H68	H	1.102112	0.118338	0.212934
O69	O	1.486174	-0.279655	0.276893
C70	C	1.594277	-0.313290	0.493602
C71	C	1.595432	-0.267951	0.351442
H72	H	1.682615	-0.303857	0.553904
H73	H	1.506920	-0.290311	0.552583
H74	H	1.592473	-0.379321	0.479517
H75	H	1.597281	-0.201913	0.365401
H76	H	1.682780	-0.290995	0.292510
H77	H	1.490121	-0.123602	0.239868
O78	O	1.490299	-0.117224	-0.232676
C79	C	1.490155	-0.125934	-0.478889
C80	C	1.488982	-0.171267	-0.336726
H81	H	1.489117	-0.169610	-0.563051
H82	H	1.403315	-0.080583	-0.490263
H83	H	1.579000	-0.094045	-0.488590
H84	H	1.400195	-0.203203	-0.326927
H85	H	1.575882	-0.216572	-0.325415
H86	H	1.486217	-0.273231	-0.195622
H87	H	1.480380	-0.494020	-0.282309
H88	H	1.480349	-0.494042	0.169831
H89	H	1.476414	-0.643670	-0.265659
H90	H	1.476367	-0.643679	0.186474
H91	H	1.638393	0.019727	0.628350
