data_functionalizedCrystal
_audit_creation_method	'MofGen! by Chris Wilmer'
_symmetry_space_group_name_H-M	'P1'
_symmetry_Int_Tables_number	1
_symmetry_cell_setting	triclinic
loop_
_symmetry_equiv_pos_as_xyz
  x,y,z
_cell_length_a	18.215407
_cell_length_b	18.101395
_cell_length_c	18.215399
_cell_angle_alpha	89.971163
_cell_angle_beta	89.983176
_cell_angle_gamma	90.031552
loop_
_atom_site_label
_atom_site_type_symbol
_atom_site_fract_x
_atom_site_fract_y
_atom_site_fract_z
Zn1	Zn	1.125018	-0.294811	-0.416124
Zn2	Zn	1.625018	0.205189	0.083876
Zn3	Zn	1.124920	-0.418662	-0.293061
Zn4	Zn	1.624920	0.081338	0.206939
Zn5	Zn	1.001957	-0.294840	-0.293071
Zn6	Zn	1.501957	0.205160	0.206929
Zn7	Zn	1.001903	-0.418616	-0.416086
Zn8	Zn	1.501903	0.081384	0.083914
O9	O	1.063450	-0.356732	-0.354585
O10	O	1.563450	0.143268	0.145415
O11	O	1.227989	-0.311247	-0.399811
O12	O	1.727989	0.188753	0.100189
O13	O	1.108590	-0.402269	-0.190078
O14	O	1.608590	0.097731	0.309922
O15	O	1.018345	-0.191203	-0.309415
O16	O	1.518345	0.308797	0.190585
O17	O	1.227917	-0.402240	-0.309397
O18	O	1.727917	0.097760	0.190603
O19	O	1.108758	-0.191182	-0.399821
O20	O	1.608758	0.308818	0.100179
O21	O	1.018250	-0.311297	-0.190085
O22	O	1.518250	0.188703	0.309915
O23	O	0.898966	-0.311252	-0.309378
O24	O	1.398966	0.188748	0.190622
O25	O	1.018254	-0.402161	-0.519075
O26	O	1.518254	0.097839	-0.019075
O27	O	0.898926	-0.402190	-0.399756
O28	O	1.398926	0.097810	0.100244
O29	O	1.108706	-0.311202	-0.519103
O30	O	1.608706	0.188798	-0.019103
O31	O	1.108538	-0.522289	-0.309360
O32	O	1.608538	-0.022289	0.190640
O33	O	1.018158	-0.522255	-0.399746
O34	O	1.518158	-0.022255	0.100254
C35	C	0.872243	-0.356720	-0.354564
C36	C	1.372243	0.143280	0.145436
C37	C	0.790445	-0.356732	-0.354573
C38	C	1.290445	0.143268	0.145427
C39	C	0.602249	-0.404158	-0.401573
C40	C	1.102249	0.095842	0.098427
C41	C	0.525391	-0.404160	-0.401583
C42	C	1.025391	0.095840	0.098417
C43	C	0.525402	-0.309320	-0.307613
C44	C	1.025402	0.190680	0.192387
C45	C	0.602260	-0.309315	-0.307608
C46	C	1.102260	0.190685	0.192392
C47	C	0.640681	-0.356738	-0.354587
C48	C	1.140681	0.143262	0.145413
C49	C	0.486965	-0.356746	-0.354601
C50	C	0.986965	0.143254	0.145399
C51	C	0.403631	-0.356748	-0.354611
C52	C	0.903631	0.143252	0.145389
C53	C	0.724020	-0.356735	-0.354579
C54	C	1.224020	0.143265	0.145421
C55	C	1.063351	-0.549143	-0.354564
C56	C	1.563351	-0.049143	0.145436
C57	C	1.063376	-0.631457	-0.354579
C58	C	1.563376	-0.131457	0.145421
C59	C	1.063538	-0.930548	-0.354619
C60	C	1.563538	-0.430548	0.145381
C61	C	1.006805	-0.899232	-0.411628
C62	C	1.506805	-0.399232	0.088372
C63	C	1.006536	-0.813614	-0.411450
C64	C	1.506536	-0.313614	0.088550
C65	C	1.063458	-0.782165	-0.354600
C66	C	1.563458	-0.282165	0.145400
C67	C	1.042464	-0.813319	-0.277038
C68	C	1.542464	-0.313319	0.222962
C69	C	1.042098	-0.898964	-0.277380
C70	C	1.542098	-0.398964	0.222620
C71	C	1.141388	-0.898890	-0.374487
C72	C	1.641388	-0.398890	0.125513
C73	C	1.140931	-0.813239	-0.376188
C74	C	1.640931	-0.313239	0.123812
C75	C	1.063414	-0.698306	-0.354584
C76	C	1.563414	-0.198306	0.145416
C77	C	1.063580	-1.014407	-0.354629
C78	C	1.563580	-0.514407	0.145371
C79	C	1.255403	-0.356746	-0.354607
C80	C	1.755403	0.143254	0.145393
C81	C	1.337201	-0.356751	-0.354616
C82	C	1.837201	0.143249	0.145384
C83	C	1.063484	-0.356673	-0.546538
C84	C	1.563484	0.143327	-0.046538
C85	C	1.063499	-0.356648	-0.628337
C86	C	1.563499	0.143352	-0.128337
C87	C	1.063569	-0.163570	-0.354623
C88	C	1.563569	0.336430	0.145377
C89	C	1.063619	-0.081256	-0.354639
C90	C	1.563619	0.418744	0.145361
C91	C	1.016499	-0.309247	-0.816536
C92	C	1.516499	0.190753	-0.316536
C93	C	1.016512	-0.309232	-0.893395
C94	C	1.516512	0.190768	-0.393395
C95	C	1.110588	-0.403961	-0.893376
C96	C	1.610588	0.096039	-0.393376
C97	C	1.110571	-0.403979	-0.816519
C98	C	1.610571	0.096021	-0.316519
C99	C	1.063527	-0.356618	-0.778101
C100	C	1.563527	0.143382	-0.278101
C101	C	1.063557	-0.356585	-0.931817
C102	C	1.563557	0.143415	-0.431817
C103	C	1.063571	-0.356569	-1.015151
C104	C	1.563571	0.143431	-0.515151
C105	C	1.063512	-0.356634	-0.694762
C106	C	1.563512	0.143366	-0.194762
C107	C	1.063457	-0.356738	-0.163379
C108	C	1.563457	0.143262	0.336621
C109	C	1.063585	-0.356554	-0.081580
C110	C	1.563585	0.143446	0.418420
H111	H	0.633552	-0.270695	-0.269346
H112	H	1.133552	0.229305	0.230654
F113	F	1.023701	-0.786077	-0.486621
F114	F	1.523701	-0.286077	0.013379
H115	H	1.019809	-0.919778	-0.469325
H116	H	1.519809	-0.419778	0.030675
F117	F	0.931841	-0.927461	-0.394655
F118	F	1.431841	-0.427461	0.105345
F119	F	0.643138	-0.454627	-0.451575
F120	F	1.143138	0.045373	0.048425
F121	F	0.484492	-0.454630	-0.451593
F122	F	0.984492	0.045370	0.048407
F123	F	1.160625	-0.454402	-0.775611
F124	F	1.660625	0.045598	-0.275611
F125	F	0.931111	-0.786917	-0.394251
F126	F	1.431111	-0.286917	0.105749
F127	F	0.966430	-0.258843	-0.775651
F128	F	1.466430	0.241157	-0.275651
F129	F	0.967715	-0.925165	-0.255381
F130	F	1.467715	-0.425165	0.244619
H131	H	1.148889	-0.442520	-0.924666
H132	H	1.648889	0.057480	-0.424666
F133	F	1.093759	-0.926047	-0.219963
F134	F	1.593759	-0.426047	0.280037
F135	F	0.966450	-0.258822	-0.934297
F136	F	1.466450	0.241178	-0.434297
F137	F	1.094774	-0.786697	-0.220003
F138	F	1.594774	-0.286697	0.279997
H139	H	0.986159	-0.791935	-0.259906
H140	H	1.486159	-0.291935	0.240094
F141	F	0.484505	-0.258853	-0.257617
F142	F	0.984505	0.241147	0.242383
H143	H	1.160529	-0.920437	-0.430081
H144	H	1.660529	-0.420437	0.069919
F145	F	1.161626	-0.786622	-0.450797
F146	F	1.661626	-0.286622	0.049203
F147	F	1.199104	-0.785248	-0.325876
F148	F	1.699104	-0.285248	0.174124
F149	F	1.196639	-0.925371	-0.320224
F150	F	1.696639	-0.425371	0.179776
