data_functionalizedCrystal
_audit_creation_method	'MofGen! by Chris Wilmer'
_symmetry_space_group_name_H-M	'P1'
_symmetry_Int_Tables_number	1
_symmetry_cell_setting	triclinic
loop_
_symmetry_equiv_pos_as_xyz
  x,y,z
_cell_length_a	19.851628
_cell_length_b	23.196402
_cell_length_c	23.196401
_cell_angle_alpha	60.007472
_cell_angle_beta	90.013441
_cell_angle_gamma	60.005072
loop_
_atom_site_label
_atom_site_type_symbol
_atom_site_fract_x
_atom_site_fract_y
_atom_site_fract_z
Zr1	Zr	0.648900	0.631073	-0.075676
O2	O	0.541324	0.751330	-0.167720
O3	O	0.681875	0.510809	-0.047460
O4	O	0.681845	0.631078	-0.167729
O5	O	0.541380	0.631060	0.047420
O6	O	0.792694	0.631089	-0.167734
O7	O	0.541353	0.631062	-0.047452
O8	O	0.792747	0.415950	0.047404
O9	O	0.541327	0.846199	-0.167719
O10	O	0.778667	0.560286	-0.035429
O11	O	0.695961	0.560277	0.035376
O12	O	0.695926	0.701878	-0.106224
O13	O	0.613221	0.701868	-0.035419
Zr14	Zr	0.825733	0.631088	0.075625
Zr15	Zr	0.825691	0.631091	-0.075684
Zr16	Zr	0.648942	0.631071	0.075633
Zr17	Zr	0.648904	0.782377	-0.075673
Zr18	Zr	0.825728	0.479784	0.075623
O19	O	0.792758	0.751352	0.047410
O20	O	0.792698	0.751356	-0.167732
O21	O	0.541384	0.751327	0.047422
O22	O	0.933309	0.510831	0.167670
O23	O	0.933249	0.510834	-0.047472
O24	O	0.681935	0.510806	0.167682
O25	O	0.933253	0.631101	-0.047470
O26	O	0.792788	0.631084	0.167678
O27	O	0.681939	0.631072	0.167683
O28	O	0.933279	0.631100	0.047401
O29	O	0.681852	0.846213	-0.167725
O30	O	0.792781	0.415948	0.167675
O31	O	0.933306	0.415962	0.167668
O32	O	0.933272	0.415964	0.047398
O33	O	0.541360	0.846197	-0.047448
O34	O	0.681885	0.846211	-0.047455
O35	O	0.778706	0.560284	0.106174
O36	O	0.861412	0.560293	0.035368
O37	O	0.778671	0.701885	-0.035427
O38	O	0.695966	0.701875	0.035379
C39	C	0.737310	0.441822	-0.000028
C40	C	0.737308	0.377589	-0.000029
C41	C	0.676249	-0.032999	-0.052288
C42	C	0.676242	0.027359	-0.052287
C43	C	0.737323	0.005282	-0.000026
C44	C	0.798404	-0.077161	0.052250
C45	C	0.798404	-0.137516	0.052252
C46	C	0.811865	0.060868	0.016259
C47	C	0.811865	0.121224	0.016252
C48	C	0.737322	0.191435	-0.000028
C49	C	0.662774	0.201291	-0.016316
C50	C	0.662775	0.140936	-0.016314
C51	C	0.737329	0.070721	-0.000022
C52	C	0.676235	0.339314	-0.052297
C53	C	0.676228	0.399671	-0.052292
C54	C	0.798395	0.295148	0.052243
C55	C	0.798396	0.234794	0.052240
C56	C	0.737316	0.256882	-0.000033
C57	C	0.516178	0.631058	-0.000015
C58	C	0.441125	0.631051	-0.000011
C59	C	0.304873	0.553867	0.038581
C60	C	0.237433	0.592457	0.066564
C61	C	0.303694	0.631072	-0.000020
C62	C	0.237399	0.592477	-0.027979
C63	C	0.170945	0.631087	-0.000028
C64	C	0.237243	0.669662	0.028002
C65	C	0.237219	0.669671	-0.066578
C66	C	0.169766	0.708317	-0.038612
C67	C	0.380169	0.631061	-0.000014
C68	C	0.094468	0.631103	-0.000034
C69	C	0.958455	0.631103	-0.000036
C70	C	1.033507	0.631110	-0.000039
C71	C	0.737263	0.631084	-0.189290
C72	C	0.737245	0.631085	-0.253524
C73	C	0.737322	0.820340	-0.000022
C74	C	0.737324	0.884572	-0.000021
C75	C	0.694060	0.704992	-0.320652
C76	C	0.694081	0.704993	-0.381007
C77	C	0.737276	0.631083	-0.374231
C78	C	0.780471	0.557166	-0.307091
C79	C	0.780456	0.557167	-0.246738
C80	C	0.731140	0.574453	-0.441548
C81	C	0.731150	0.574455	-0.501902
C82	C	0.737328	0.631076	-0.560378
C83	C	0.743481	0.687709	-0.558500
C84	C	0.743465	0.687710	-0.498147
C85	C	0.737298	0.631073	-0.439669
C86	C	0.694163	0.704990	-0.692952
C87	C	0.694190	0.704988	-0.753307
C88	C	0.780575	0.557159	-0.679389
C89	C	0.780554	0.557163	-0.619036
C90	C	0.737343	0.631080	-0.625823
C91	C	0.737369	0.631078	0.189239
C92	C	0.737387	0.631077	0.253474
C93	C	0.958449	0.441844	-0.000039
C94	C	1.033499	0.377619	-0.000043
C95	C	0.737363	0.441819	0.189236
C96	C	0.737379	0.377585	0.253470
C97	C	0.958502	0.441841	0.189226
C98	C	1.033570	0.377615	0.253456
C99	C	0.516131	0.820320	-0.189276
C100	C	0.441062	0.884546	-0.253506
C101	C	0.516184	0.820317	-0.000012
C102	C	0.441133	0.884542	-0.000007
C103	C	0.737269	0.820342	-0.189287
C104	C	0.737253	0.884576	-0.253520
C105	C	1.025552	0.347454	-0.037007
C106	C	1.096063	0.287116	-0.037026
C107	C	1.174521	0.256940	-0.000076
C108	C	1.182467	0.287110	0.036890
C109	C	1.111956	0.347451	0.036903
C110	C	0.780579	0.347424	0.320596
C111	C	0.780590	0.287078	0.380957
C112	C	0.737407	0.256890	0.374188
C113	C	0.694202	0.287057	0.307055
C114	C	0.694186	0.347406	0.246696
C115	C	1.112002	0.347459	0.246659
C116	C	1.182543	0.287120	0.307004
C117	C	1.174651	0.256934	0.374145
C118	C	1.096211	0.287096	0.380941
C119	C	1.025672	0.347438	0.320596
C120	C	0.362631	0.914710	-0.246710
C121	C	0.292089	0.975068	-0.307055
C122	C	0.299981	1.005257	-0.374196
C123	C	0.378421	0.975090	-0.380991
C124	C	0.448961	0.914738	-0.320647
C125	C	0.449081	0.914713	0.036951
C126	C	0.378570	0.975068	0.036952
C127	C	0.300112	1.005247	0.000000
C128	C	0.292166	0.975073	-0.036962
C129	C	0.362676	0.914724	-0.036968
C130	C	0.780445	0.914745	-0.246730
C131	C	0.780446	0.975091	-0.307078
C132	C	0.737250	1.005272	-0.374217
C133	C	0.694057	0.975097	-0.381006
C134	C	0.694062	0.914748	-0.320658
H135	H	0.626499	0.357300	-0.094860
O136	O	0.215993	1.004247	-0.072798
C137	C	0.206945	0.939848	-0.045603
H138	H	0.270428	0.879478	-0.018556
H139	H	0.169818	0.948956	-0.090573
H140	H	0.173274	0.939035	-0.005692
O141	O	0.652335	0.376566	0.181506
C142	C	0.684080	0.312142	0.173798
H143	H	0.749910	0.260859	0.212013
H144	H	0.683955	0.335146	0.117345
H145	H	0.644045	0.288326	0.185801
H146	H	0.815618	0.999653	-0.301536
H147	H	1.246356	0.262532	0.066973
H148	H	0.242537	1.054399	-0.423326
O149	O	1.119827	0.376652	0.181496
C150	C	1.204186	0.337042	0.188452
H151	H	1.241807	0.312248	0.242276
H152	H	1.214007	0.382278	0.145117
H153	H	1.224958	0.284571	0.183587
H154	H	0.384837	0.999678	-0.435664
H155	H	0.848125	0.277171	0.094798
O156	O	0.236484	0.553538	-0.056147
C157	C	0.164759	0.554752	-0.056366
H158	H	0.141139	0.563196	-0.014507
H159	H	0.179851	0.494719	-0.044256
H160	H	0.115291	0.607321	-0.110510
H161	H	0.848133	0.167674	0.094799
O162	O	0.525086	0.885497	-0.327380
C163	C	0.516915	0.925102	-0.399582
H164	H	0.453968	0.949973	-0.431755
H165	H	0.567472	0.879841	-0.408012
H166	H	0.522696	0.977516	-0.417364
O167	O	0.525228	0.885519	0.072861
C168	C	0.517105	0.925087	0.105490
H169	H	0.454172	0.986256	0.076501
H170	H	0.567683	0.935490	0.103499
H171	H	0.522894	0.885512	0.162853
H172	H	0.848140	-0.204637	0.094815
H173	H	1.232096	0.207800	0.423276
O174	O	0.949423	0.376837	0.327078
C175	C	0.888845	0.436554	0.259425
H176	H	0.916294	0.462971	0.219406
H177	H	0.834466	0.487310	0.260107
H178	H	0.866788	0.407671	0.244057
H179	H	0.356194	0.890160	-0.067061
H180	H	0.815620	0.890181	-0.192067
O181	O	0.724991	0.519526	-0.384808
C182	C	0.650426	0.530197	-0.404926
H183	H	0.604538	0.594873	-0.453861
H184	H	0.623845	0.519667	-0.359980
H185	H	0.662601	0.484683	-0.417204
H186	H	0.737427	0.207750	0.423342
O187	O	0.238011	0.708683	-0.133707
C188	C	0.237555	0.776343	-0.150593
H189	H	0.210687	0.796084	-0.115210
H190	H	0.198255	0.828798	-0.208199
H191	H	0.303351	0.758860	-0.142024
H192	H	0.385056	0.999625	0.067054
O193	O	0.100846	0.786242	-0.077647
C194	C	0.054017	0.799456	-0.134131
H195	H	0.095848	0.753831	-0.146039
H196	H	0.025057	0.864070	-0.182895
H197	H	0.003281	0.791152	-0.119137
H198	H	0.737254	1.054413	-0.423350
O199	O	0.354806	0.885514	-0.181546
C200	C	0.270447	0.925082	-0.188502
H201	H	0.232832	0.986248	-0.242361
H202	H	0.260635	0.935489	-0.145220
H203	H	0.249660	0.885504	-0.183550
H204	H	0.228227	0.999619	-0.301508
O205	O	1.119582	0.376724	0.072875
C206	C	1.081421	0.361936	0.124768
H207	H	1.033344	0.354437	0.109229
H208	H	1.050132	0.415523	0.129268
H209	H	1.129927	0.303892	0.177766
H210	H	0.658878	0.765181	-0.326184
H211	H	0.815642	0.496987	-0.301577
O212	O	0.822533	0.376686	0.327307
C213	C	0.860668	0.337107	0.399503
H214	H	0.826808	0.312228	0.431687
H215	H	0.858330	0.382389	0.407913
H216	H	0.927702	0.284701	0.417289
H217	H	1.246406	0.262568	0.301459
H218	H	1.089798	0.262510	0.435615
H219	H	0.658912	0.765179	-0.435672
O220	O	0.231707	1.063841	0.000111
C221	C	0.255557	1.084006	0.040645
H222	H	0.320660	1.031073	0.079714
H223	H	0.211023	1.096538	0.070739
H224	H	0.254271	1.140712	0.004259
O225	O	0.236803	0.553468	0.133758
C226	C	0.307977	0.525513	0.180929
H227	H	0.358084	0.518904	0.155484
H228	H	0.331002	0.463861	0.231522
H229	H	0.292400	0.571165	0.193924
H230	H	0.961674	0.372023	-0.067105
O231	O	0.652107	1.004538	-0.446279
C232	C	0.661385	1.064261	-0.498080
H233	H	0.677307	1.090636	-0.474542
H234	H	0.601272	1.115045	-0.544619
H235	H	0.713076	1.035397	-0.516965
O236	O	0.652012	0.885490	-0.327182
C237	C	0.591391	0.900281	-0.294509
H238	H	0.609577	0.907759	-0.253359
H239	H	0.586116	0.846705	-0.267739
H240	H	0.529460	0.958337	-0.336009
O241	O	0.822436	0.257854	0.446179
C242	C	0.767022	0.272585	0.483317
H243	H	0.701950	0.325473	0.444164
H244	H	0.785758	0.288579	0.516677
H245	H	0.768548	0.215620	0.519141
O246	O	0.616756	-0.011430	-0.103007
C247	C	0.538628	0.035137	-0.099634
H248	H	0.545777	0.021073	-0.044483
H249	H	0.497071	0.019237	-0.111575
H250	H	0.509860	0.102755	-0.140115
O251	O	0.616982	0.107431	-0.103150
C252	C	0.620840	0.124467	-0.170058
H253	H	0.685250	0.077292	-0.164012
H254	H	0.606913	0.187859	-0.205551
H255	H	0.573476	0.122026	-0.194714
H256	H	0.362713	0.488587	0.071266
H257	H	0.602076	0.148964	-0.029575
H258	H	1.231928	0.207805	-0.000092
H259	H	0.602074	0.258460	-0.029575
H260	H	0.626490	0.466792	-0.094854
H261	H	0.872565	0.113195	0.029510
H262	H	0.872571	0.003699	0.029520
O263	O	0.238109	0.708501	0.056300
C264	C	0.309414	0.708012	0.055973
H265	H	0.358654	0.655535	0.054192
H266	H	0.333763	0.699922	0.105854
H267	H	0.293483	0.768183	0.007610
H268	H	0.848135	-0.095133	0.094803
O269	O	0.652344	0.257601	0.300612
C270	C	0.661623	0.197875	0.368285
H271	H	0.719945	0.171516	0.408279
H272	H	0.666599	0.147080	0.367637
H273	H	0.605828	0.226731	0.383663
O274	O	0.749341	0.742827	-0.496443
C275	C	0.682261	0.822407	-0.550980
H276	H	0.656906	0.821350	-0.594282
H277	H	0.703832	0.864058	-0.573856
H278	H	0.631804	0.846163	-0.528904
O279	O	0.749631	0.742606	-0.615268
C280	C	0.820827	0.700861	-0.629294
H281	H	0.866822	0.637183	-0.579262
H282	H	0.850055	0.735792	-0.647421
H283	H	0.803174	0.695852	-0.672540
O284	O	0.652079	0.776840	-0.699627
C285	C	0.567783	0.821793	-0.736865
H286	H	0.560731	0.800777	-0.770186
H287	H	0.541323	0.889410	-0.772732
H288	H	0.533129	0.811544	-0.697790
H289	H	0.815747	0.496979	-0.673870
O290	O	0.652297	0.776838	-0.818481
C291	C	0.684045	0.821807	-0.826202
H292	H	0.715657	0.800793	-0.771867
H293	H	0.631478	0.889420	-0.857949
H294	H	0.730669	0.811571	-0.855035
H295	H	0.815717	0.496979	-0.564377
H296	H	0.726136	0.528345	-0.503426
O297	O	0.822417	0.485297	-0.181579
C298	C	0.860570	0.420059	-0.188534
H299	H	0.826713	0.441722	-0.242398
H300	H	0.858246	0.368362	-0.145261
H301	H	0.927599	0.397338	-0.183569
O302	O	1.088289	0.257734	-0.072838
C303	C	1.044780	0.222837	-0.045658
H304	H	1.050698	0.204712	0.010679
H305	H	1.071552	0.166486	-0.045762
H306	H	0.976908	0.269091	-0.079913
