data_functionalizedCrystal
_audit_creation_method	'MofGen! by Chris Wilmer'
_symmetry_space_group_name_H-M	'P1'
_symmetry_Int_Tables_number	1
_symmetry_cell_setting	triclinic
loop_
_symmetry_equiv_pos_as_xyz
  x,y,z
_cell_length_a	12.759399
_cell_length_b	12.759401
_cell_length_c	12.759393
_cell_angle_alpha	90.019802
_cell_angle_beta	90.030906
_cell_angle_gamma	90.014202
loop_
_atom_site_label
_atom_site_type_symbol
_atom_site_fract_x
_atom_site_fract_y
_atom_site_fract_z
Zn1	Zn	-0.418241	1.606263	0.593985
Zn2	Zn	-0.593957	1.606153	0.418304
Zn3	Zn	-0.418290	1.430562	0.418324
Zn4	Zn	-0.593876	1.430553	0.593945
O5	O	-0.506091	1.518383	0.506140
O6	O	-0.441564	1.753270	0.570689
O7	O	-0.570708	1.582818	0.271286
O8	O	-0.271262	1.453919	0.441651
O9	O	-0.570661	1.753189	0.441617
O10	O	-0.271226	1.583006	0.570709
O11	O	-0.441646	1.453812	0.271300
O12	O	-0.441568	1.283540	0.441612
O13	O	-0.570523	1.453903	0.740971
O14	O	-0.570570	1.283533	0.570640
O15	O	-0.441485	1.582997	0.741001
O16	O	-0.740967	1.582809	0.441578
O17	O	-0.740908	1.453796	0.570620
C18	C	-0.506066	1.245415	0.506124
C19	C	-0.506081	1.128639	0.506142
C20	C	-0.439006	0.964082	0.573461
C21	C	-0.438985	1.073807	0.573454
C22	C	-0.573210	1.073741	0.438841
C23	C	-0.573235	0.964019	0.438854
C24	C	-0.401561	1.223815	0.697407
C25	C	-0.334424	1.278709	0.764697
C26	C	-0.231937	1.243107	0.781009
C27	C	-0.196567	1.152614	0.730017
C28	C	-0.263698	1.097726	0.662719
C29	C	-0.366200	1.133326	0.646427
C30	C	-0.610648	0.814009	0.314900
C31	C	-0.677775	0.759119	0.247596
C32	C	-0.780264	0.794718	0.231273
C33	C	-0.815630	0.885215	0.282247
C34	C	-0.748503	0.940105	0.349550
C35	C	-0.646016	0.904498	0.365875
C36	C	-0.779058	1.518318	0.506116
C37	C	-0.895835	1.518387	0.506141
C38	C	-0.950693	1.585641	0.439024
C39	C	-1.060417	1.585708	0.439060
C40	C	-1.060415	1.451259	0.573330
C41	C	-0.950693	1.451198	0.573299
C42	C	-1.210298	1.709717	0.401670
C43	C	-1.265159	1.776961	0.334537
C44	C	-1.229619	1.793124	0.232027
C45	C	-1.139219	1.742027	0.196628
C46	C	-1.084363	1.674775	0.263755
C47	C	-1.119902	1.658632	0.366280
C48	C	-0.800810	1.327188	0.610678
C49	C	-0.745952	1.259929	0.677801
C50	C	-0.781490	1.243756	0.780313
C51	C	-0.871893	1.294835	0.815708
C52	C	-0.926752	1.362093	0.748586
C53	C	-0.891206	1.378268	0.646075
C54	C	-0.232057	1.518476	0.506187
C55	C	-0.115281	1.518516	0.506207
C56	C	-0.505990	1.518461	0.780173
C57	C	-0.505947	1.518495	0.896950
C58	C	-0.506116	1.792416	0.506156
C59	C	-0.506127	1.909193	0.506162
C60	C	-0.506115	1.518365	0.233172
C61	C	-0.505862	1.518535	0.116396
C62	C	-0.438746	1.585719	0.951829
C63	C	-0.438701	1.585737	1.061553
C64	C	-0.573066	1.451303	1.061509
C65	C	-0.573105	1.451281	0.951787
H66	H	-0.113107	1.123642	0.743294
H67	H	-1.110296	1.755184	0.113149
H68	H	-0.383977	1.640476	1.106231
H69	H	-0.627747	1.396583	1.106171
O70	O	-0.906565	1.279021	0.915223
C71	C	-1.008622	1.236720	0.912340
H72	H	-1.022038	1.196506	0.833670
H73	H	-1.068351	1.302326	0.922803
C74	C	-1.004817	1.205605	1.097949
C75	C	-1.021292	1.156205	1.001329
H76	H	-1.012636	1.155942	1.152844
H77	H	-0.936061	1.234107	1.099893
H78	H	-1.054593	1.260274	1.106654
H79	H	-0.971508	1.101546	0.992619
H80	H	-1.090040	1.127692	0.999385
H81	H	-0.384362	0.919446	0.628268
O82	O	-0.373652	1.651108	0.898510
C83	C	-0.433488	1.718918	0.835018
H84	H	-0.516224	1.725394	0.868068
H85	H	-0.437135	1.686414	0.751858
C86	C	-0.280545	1.820196	0.792763
C87	C	-0.382160	1.828157	0.833361
H88	H	-0.248882	1.887579	0.791735
H89	H	-0.240231	1.774509	0.835535
H90	H	-0.283598	1.793105	0.723466
H91	H	-0.379105	1.855235	0.902660
H92	H	-0.422473	1.873851	0.790600
O93	O	-1.014454	1.411846	0.783073
C94	C	-0.989021	1.475386	0.869868
H95	H	-0.901911	1.495159	0.867848
H96	H	-1.007832	1.431555	0.945398
C97	C	-1.160487	1.553010	0.867859
C98	C	-1.053500	1.577303	0.865373
H99	H	-1.200264	1.615875	0.865090
H100	H	-1.177625	1.510199	0.809386
H101	H	-1.176149	1.516482	0.930801
H102	H	-1.037837	1.613819	0.802426
H103	H	-1.036361	1.620123	0.923836
H104	H	-0.627828	1.396532	0.907103
H105	H	-0.899084	0.914203	0.268952
H106	H	-0.834915	0.750020	0.176462
H107	H	-0.234955	1.023953	0.621335
H108	H	-0.363232	1.352388	0.806214
O109	O	-0.638439	1.127120	0.373601
C110	C	-0.706369	1.190597	0.433291
H111	H	-0.669406	1.207071	0.512973
H112	H	-0.784252	1.148318	0.444703
C113	C	-0.770691	1.274562	0.277572
C114	C	-0.725289	1.294803	0.375436
H115	H	-0.782367	1.338839	0.241884
H116	H	-0.724929	1.231794	0.237357
H117	H	-0.835589	1.239327	0.287097
H118	H	-0.660387	1.330025	0.365911
H119	H	-0.771041	1.337580	0.415649
O120	O	-0.996645	1.625093	0.229219
C121	C	-1.022079	1.561495	0.142466
H122	H	-1.096597	1.592151	0.103853
H123	H	-1.035177	1.477489	0.169909
C124	C	-0.839983	1.526440	0.110215
C125	C	-0.931502	1.564098	0.062784
H126	H	-0.784110	1.528041	0.061065
H127	H	-0.822847	1.569284	0.168664
H128	H	-0.850913	1.456438	0.133082
H129	H	-0.920576	1.634103	0.039929
H130	H	-0.948634	1.521266	0.004329
O131	O	-0.783040	1.027966	0.399027
C132	C	-0.887886	1.047637	0.370171
H133	H	-0.925943	0.971670	0.342473
H134	H	-0.889835	1.107712	0.304081
C135	C	-0.901632	1.183898	0.499360
C136	C	-0.948377	1.090592	0.465350
H137	H	-0.938946	1.210399	0.558069
H138	H	-0.830994	1.170648	0.518800
H139	H	-0.903260	1.233949	0.444277
H140	H	-0.946737	1.040540	0.520428
H141	H	-1.019017	1.103834	0.445922
H142	H	-0.736815	1.188985	0.834962
O143	O	-1.283007	1.858515	0.166964
C144	C	-1.370429	1.900121	0.220177
H145	H	-1.356071	1.896617	0.308297
H146	H	-1.443168	1.852329	0.199873
C147	C	-1.404697	2.019165	0.078465
C148	C	-1.387059	2.014870	0.186696
H149	H	-1.414959	2.089946	0.057809
H150	H	-1.345802	1.991133	0.042612
H151	H	-1.465311	1.979332	0.061558
H152	H	-1.326439	2.054692	0.203599
H153	H	-1.445945	2.042913	0.222551
H154	H	-0.527194	0.785013	0.328188
O155	O	-1.244673	1.694136	0.501322
C156	C	-1.166365	1.725641	0.572700
H157	H	-1.111982	1.784486	0.533204
H158	H	-1.119251	1.654299	0.598629
C159	C	-1.284725	1.704663	0.717503
C160	C	-1.217936	1.776944	0.668997
H161	H	-1.316535	1.736304	0.776907
H162	H	-1.337482	1.683433	0.669416
H163	H	-1.245453	1.645216	0.739102
H164	H	-1.257210	1.836382	0.647388
H165	H	-1.165186	1.798184	0.717083
H166	H	-0.672337	1.218345	0.648975
H167	H	-0.177273	1.287810	0.835798
H168	H	-0.485017	1.252804	0.684141
H169	H	-0.649119	0.685173	0.206452
H170	H	-0.906030	1.640352	0.384341
H171	H	-1.338763	1.818565	0.363369
H172	H	-1.105094	1.396555	0.628007
H173	H	-0.771861	1.340359	0.527207
