data_functionalizedCrystal
_audit_creation_method	'MofGen! by Chris Wilmer'
_symmetry_space_group_name_H-M	'P1'
_symmetry_Int_Tables_number	1
_symmetry_cell_setting	triclinic
loop_
_symmetry_equiv_pos_as_xyz
  x,y,z
_cell_length_a	10.654549
_cell_length_b	16.992695
_cell_length_c	16.053802
_cell_angle_alpha	87.258926
_cell_angle_beta	92.607209
_cell_angle_gamma	87.577570
loop_
_atom_site_label
_atom_site_type_symbol
_atom_site_fract_x
_atom_site_fract_y
_atom_site_fract_z
O1	O	-1.682333	-0.106933	-0.069451
O2	O	-1.182333	0.393067	0.430549
O3	O	-1.317762	-0.117427	-0.069448
O4	O	-0.817762	0.382573	0.430552
O5	O	-1.498586	0.001970	-0.069443
O6	O	-0.998586	0.501970	0.430557
O7	O	-1.501510	-0.226331	-0.069456
O8	O	-1.001510	0.273669	0.430544
O9	O	-1.488630	-0.004575	0.069416
O10	O	-0.988630	0.495425	0.569416
O11	O	-1.307806	-0.123972	0.069410
O12	O	-0.807806	0.376028	0.569410
O13	O	-1.672378	-0.113478	0.069408
O14	O	-1.172378	0.386522	0.569408
Zn15	Zn	-1.488511	-0.119764	0.091456
Zn16	Zn	-0.988511	0.380236	0.591456
Zn17	Zn	-1.501628	-0.111141	-0.091496
Zn18	Zn	-1.001628	0.388859	0.408504
O19	O	-1.491554	-0.232875	0.069403
O20	O	-0.991554	0.267125	0.569403
C21	C	-1.489848	0.027931	-0.000014
C22	C	-0.989848	0.527931	0.499986
C23	C	-1.478628	0.115036	-0.000014
C24	C	-0.978628	0.615036	0.499986
C25	C	-1.265920	-0.119928	-0.000018
C26	C	-0.765920	0.380072	0.499982
C27	C	-1.126277	-0.117621	-0.000017
C28	C	-0.626277	0.382379	0.499983
C29	C	-1.724220	-0.110977	-0.000024
C30	C	-1.224220	0.389023	0.499976
C31	C	-1.863863	-0.113284	-0.000030
C32	C	-1.363863	0.386716	0.499970
C33	C	-0.848258	-0.256059	-0.000049
C34	C	-0.348258	0.243941	0.499951
C35	C	-0.906058	-0.328532	-0.000050
C36	C	-0.406058	0.171468	0.499950
C37	C	-1.037263	-0.330703	-0.000039
C38	C	-0.537263	0.169297	0.499961
C39	C	-1.110672	-0.260395	-0.000030
C40	C	-0.610672	0.239605	0.499970
C41	C	-1.052872	-0.187922	-0.000029
C42	C	-0.552872	0.312078	0.499971
C43	C	-0.921663	-0.185758	-0.000037
C44	C	-0.421663	0.314242	0.499963
C45	C	-1.068477	-0.045148	-0.000016
C46	C	-0.568477	0.454852	0.499984
C47	C	-0.937272	-0.042975	-0.000021
C48	C	-0.437272	0.457025	0.499979
C49	C	-1.141886	0.025161	-0.000007
C50	C	-0.641886	0.525161	0.499993
C51	C	-1.084086	0.097635	-0.000001
C52	C	-0.584086	0.597635	0.499999
C53	C	-0.952873	0.099804	-0.000011
C54	C	-0.452873	0.599804	0.499989
C55	C	-0.879472	0.029497	-0.000021
C56	C	-0.379472	0.529497	0.499979
C57	C	-1.500292	-0.258836	-0.000029
C58	C	-1.000292	0.241164	0.499971
C59	C	-1.511512	-0.345941	-0.000034
C60	C	-1.011512	0.154059	0.499966
N61	N	-1.479568	-0.125648	0.216316
N62	N	-0.979568	0.374352	0.716316
C63	C	-1.586879	0.164687	-0.000014
C64	C	-1.086879	0.664687	0.499986
C65	C	-1.576330	0.246531	-0.000021
C66	C	-1.076330	0.746531	0.499979
C67	C	-1.457530	0.278723	-0.000023
C68	C	-0.957530	0.778723	0.499977
C69	C	-1.349271	0.229066	-0.000026
C70	C	-0.849271	0.729066	0.499974
C71	C	-1.359821	0.147224	-0.000024
C72	C	-0.859821	0.647224	0.499976
C73	C	-1.413803	0.522560	-0.000035
C74	C	-0.913803	1.022560	0.499965
C75	C	-1.403261	0.604408	-0.000034
C76	C	-0.903261	1.104408	0.499966
C77	C	-1.630322	0.621868	-0.000031
C78	C	-1.130322	1.121868	0.499969
C79	C	-1.640861	0.540023	-0.000024
C80	C	-1.140861	1.040023	0.499976
C81	C	-1.532603	0.490373	-0.000031
C82	C	-1.032603	0.990373	0.499969
N83	N	-1.446744	0.362381	-0.000029
N84	N	-0.946744	0.862381	0.499971
N85	N	-1.543390	0.406717	-0.000032
N86	N	-1.043390	0.906717	0.499968
N87	N	-1.510581	-0.105251	-0.216356
N88	N	-1.010581	0.394749	0.283644
C89	C	-1.556541	-0.074863	0.260012
C90	C	-1.056541	0.425137	0.760012
C91	C	-1.550297	-0.078987	0.347419
C92	C	-1.050297	0.421013	0.847419
C93	C	-1.467087	-0.133900	0.391128
C94	C	-0.967087	0.366100	0.891128
C95	C	-1.390106	-0.184688	0.347425
C96	C	-0.890106	0.315312	0.847425
C97	C	-1.396344	-0.180560	0.260020
C98	C	-0.896344	0.319440	0.760020
C99	C	-1.439838	-0.151910	0.652536
C100	C	-0.939838	0.348090	1.152536
C101	C	-1.433608	-0.156036	0.739948
C102	C	-0.933608	0.343964	1.239948
C103	C	-1.593799	-0.050333	0.739935
C104	C	-1.093799	0.449667	1.239935
C105	C	-1.600034	-0.046213	0.652528
C106	C	-1.100034	0.453787	1.152528
C107	C	-1.523049	-0.096998	0.608834
C108	C	-1.023049	0.403002	1.108834
N109	N	-1.460706	-0.138118	0.480471
N110	N	-0.960706	0.361882	0.980471
N111	N	-1.529424	-0.092776	0.519492
N112	N	-1.029424	0.407224	1.019492
H113	H	-0.741423	-0.254299	-0.000043
H114	H	-0.241423	0.245701	0.499957
Br115	Br	-1.654757	-0.010060	0.406724
Br116	Br	-1.154757	0.489940	0.906724
H117	H	-1.664480	0.286954	-0.000020
H118	H	-1.164480	0.786954	0.499980
H119	H	-1.248720	0.023388	-0.000003
H120	H	-0.748720	0.523388	0.499997
Br121	Br	-1.277166	-0.259210	0.406741
Br122	Br	-0.777166	0.240790	0.906741
Br123	Br	-1.777235	0.689252	-0.000022
Br124	Br	-1.277235	1.189252	0.499978
Br125	Br	-1.288739	-0.263342	-0.000035
Br126	Br	-0.788739	0.236658	0.499965
Br127	Br	-1.802099	0.496341	-0.000048
Br128	Br	-1.302099	0.996341	0.499952
H129	H	-1.306513	0.630615	-0.000022
H130	H	-0.806513	1.130615	0.499978
Br131	Br	-1.266880	0.455189	-0.000049
Br132	Br	-0.766880	0.955189	0.499951
Br133	Br	-1.712968	0.028309	0.593208
Br134	Br	-1.212968	0.528309	1.093208
Br135	Br	-1.188040	0.272755	-0.000043
Br136	Br	-0.688040	0.772755	0.499957
Br137	Br	-1.698271	0.018587	0.799238
Br138	Br	-1.198271	0.518587	1.299238
H139	H	-1.333663	-0.221914	0.224444
H140	H	-0.833663	0.278086	0.724444
H141	H	-1.624305	-0.030150	0.224430
H142	H	-1.124305	0.469850	0.724430
H143	H	-1.377155	-0.193263	0.616967
H144	H	-0.877155	0.306737	1.116967
Br145	Br	-1.183716	0.193044	0.000004
Br146	Br	-0.683716	0.693044	0.500004
Br147	Br	-0.806430	-0.423946	-0.000072
Br148	Br	-0.306430	0.076054	0.499928
H149	H	-0.772637	0.031256	-0.000021
H150	H	-0.272637	0.531256	0.499979
H151	H	-1.365845	-0.200756	0.775531
H152	H	-0.865845	0.299244	1.275531
Br153	Br	-1.212904	0.079839	-0.000031
Br154	Br	-0.712904	0.579839	0.499969
Br155	Br	-1.115712	-0.429059	-0.000049
Br156	Br	-0.615712	0.070941	0.499951
Br157	Br	-1.748116	0.121006	0.000001
Br158	Br	-1.248116	0.621006	0.500001
Br159	Br	-0.874442	0.198165	-0.000018
Br160	Br	-0.374442	0.698165	0.499982
