data_functionalizedCrystal
_audit_creation_method	'MofGen! by Chris Wilmer'
_symmetry_space_group_name_H-M	'P1'
_symmetry_Int_Tables_number	1
_symmetry_cell_setting	triclinic
loop_
_symmetry_equiv_pos_as_xyz
  x,y,z
_cell_length_a	18.215407
_cell_length_b	25.639234
_cell_length_c	18.215405
_cell_angle_alpha	90.025422
_cell_angle_beta	89.977671
_cell_angle_gamma	89.981735
loop_
_atom_site_label
_atom_site_type_symbol
_atom_site_fract_x
_atom_site_fract_y
_atom_site_fract_z
Zn1	Zn	1.125078	-0.295586	0.293079
Zn2	Zn	1.124985	-0.208149	0.416140
Zn3	Zn	1.002009	-0.208167	0.293086
Zn4	Zn	1.001977	-0.295556	0.416103
O5	O	1.063512	-0.251864	0.354602
O6	O	1.228050	-0.283992	0.309416
O7	O	1.108646	-0.134986	0.399834
O8	O	1.018387	-0.219783	0.190101
O9	O	1.227982	-0.219753	0.399828
O10	O	1.108806	-0.284009	0.190096
O11	O	1.018296	-0.134999	0.309427
O12	O	0.899021	-0.219754	0.309392
O13	O	1.018332	-0.368725	0.399766
O14	O	0.898997	-0.283959	0.399772
O15	O	1.108774	-0.368747	0.309381
O16	O	1.108615	-0.219724	0.519119
O17	O	1.018242	-0.283942	0.519092
C18	C	0.872306	-0.251855	0.354579
C19	C	0.790507	-0.251864	0.354587
C20	C	0.602348	-0.285366	0.307607
C21	C	0.525489	-0.285368	0.307613
C22	C	0.525429	-0.218372	0.401618
C23	C	0.602286	-0.218368	0.401607
C24	C	0.640744	-0.251868	0.354603
C25	C	0.487028	-0.251874	0.354620
C26	C	0.403694	-0.251875	0.354627
C27	C	0.724083	-0.251866	0.354594
C28	C	1.063560	-0.388238	0.354568
C29	C	1.063581	-0.446352	0.354554
C30	C	1.016556	-0.806727	0.307392
C31	C	1.016560	-0.861331	0.307378
O32	O	0.976541	-0.889578	0.267360
N33	N	1.063605	-0.888634	0.354439
C34	C	1.110644	-0.861330	0.401521
O35	O	1.150659	-0.889567	0.441549
C36	C	1.110636	-0.806727	0.401537
C37	C	1.063593	-0.779427	0.354468
C38	C	0.969516	-0.779427	0.260327
C39	C	0.969514	-0.724826	0.260340
C40	C	1.016550	-0.697526	0.307417
C41	C	1.063590	-0.724826	0.354481
C42	C	1.157670	-0.779424	0.448623
C43	C	1.157657	-0.724816	0.448635
C44	C	1.110615	-0.697516	0.401567
C45	C	1.110624	-0.642925	0.401571
N46	N	1.063579	-0.615622	0.354510
C47	C	1.016542	-0.642922	0.307433
C48	C	1.110657	-0.976001	0.401483
C49	C	1.110669	-1.030603	0.401464
C50	C	1.016584	-1.030601	0.307322
C51	C	1.016576	-0.975997	0.307338
C52	C	1.063612	-0.948698	0.354423
C53	C	1.016540	-0.528257	0.307463
C54	C	1.016544	-0.473652	0.307477
C55	C	1.110626	-0.473659	0.401621
C56	C	1.110625	-0.528260	0.401604
C57	C	1.063577	-0.555558	0.354523
O58	O	1.150620	-0.614643	0.441571
O59	O	0.976527	-0.614679	0.267419
C60	C	1.255465	-0.251874	0.354625
C61	C	1.337264	-0.251878	0.354635
C62	C	1.063435	-0.251839	0.545808
C63	C	1.063469	-0.251846	0.627607
C64	C	1.063507	-0.116022	0.354582
C65	C	1.063629	-0.057908	0.354389
C66	C	1.063610	-0.251901	0.162649
C67	C	1.063652	-0.251917	0.080850
C68	C	1.110637	-0.218470	0.815791
C69	C	1.110670	-0.218482	0.892649
C70	C	1.016482	-0.285297	0.892661
C71	C	1.016453	-0.285287	0.815804
C72	C	1.063530	-0.251870	0.777371
C73	C	1.063591	-0.251893	0.931087
C74	C	1.063627	-0.251907	1.014420
C75	C	1.063495	-0.251856	0.694032
H76	H	0.633549	-0.191087	0.439878
N77	N	1.158786	-0.184370	0.931906
N78	N	1.205684	-0.202802	0.974740
H79	H	1.239668	-0.178710	1.002466
N80	N	1.158716	-0.184339	0.776521
N81	N	1.132834	-0.150998	0.733684
H82	H	1.166791	-0.126892	0.705950
H83	H	0.978153	-0.312503	0.923963
N84	N	0.968334	-0.319401	0.776543
N85	N	0.968320	-0.319387	0.707921
H86	H	0.934340	-0.343481	0.680190
H87	H	0.633658	-0.312642	0.269331
H88	H	0.931210	-0.801649	0.221991
N89	N	0.486281	-0.319586	0.259599
N90	N	0.520630	-0.349490	0.217635
H91	H	0.492940	-0.373657	0.183721
H92	H	0.978236	-0.451427	0.269145
N93	N	0.486132	-0.184158	0.449624
N94	N	0.417510	-0.184166	0.449629
H95	H	0.389757	-0.160002	0.483535
N96	N	1.158707	-0.948107	0.449571
N97	N	1.132796	-0.917624	0.496475
H98	H	1.166730	-0.897925	0.530436
H99	H	0.978229	-0.550477	0.269123
H100	H	0.931204	-0.702603	0.222014
H101	H	1.195977	-0.801642	0.486952
N102	N	0.968523	-0.948121	0.259251
N103	N	0.926537	-0.972510	0.217218
H104	H	0.892597	-0.952825	0.183253
H105	H	0.978284	-1.052838	0.268990
H106	H	1.148984	-1.052826	0.439784
H107	H	1.195965	-0.702592	0.486974
H108	H	1.148939	-0.550489	0.439924
H109	H	1.148924	-0.451421	0.439948
