data_functionalizedCrystal
_audit_creation_method	'MofGen! by Chris Wilmer'
_symmetry_space_group_name_H-M	'P1'
_symmetry_Int_Tables_number	1
_symmetry_cell_setting	triclinic
loop_
_symmetry_equiv_pos_as_xyz
  x,y,z
_cell_length_a	14.519731
_cell_length_b	14.519709
_cell_length_c	16.176319
_cell_angle_alpha	89.992256
_cell_angle_beta	89.992497
_cell_angle_gamma	83.684499
loop_
_atom_site_label
_atom_site_type_symbol
_atom_site_fract_x
_atom_site_fract_y
_atom_site_fract_z
O1	O	1.223859	0.120987	-0.068750
O2	O	1.557192	0.454320	0.264583
O3	O	1.890526	0.787654	0.597917
O4	O	0.955385	0.135203	-0.068752
O5	O	1.288718	0.468536	0.264582
O6	O	1.622051	0.801870	0.597915
O7	O	1.096740	-0.006143	-0.068743
O8	O	1.430073	0.327191	0.264590
O9	O	1.763407	0.660524	0.597923
O10	O	1.082504	0.262333	-0.068758
O11	O	1.415837	0.595666	0.264575
O12	O	1.749170	0.929000	0.597908
O13	O	1.096721	-0.006152	0.068750
O14	O	1.430054	0.327181	0.402083
O15	O	1.763387	0.660515	0.735416
O16	O	0.955365	0.135194	0.068742
O17	O	1.288699	0.468527	0.402075
O18	O	1.622032	0.801861	0.735408
O19	O	1.223840	0.120978	0.068743
O20	O	1.557173	0.454311	0.402076
O21	O	1.890506	0.787645	0.735410
Cu22	Cu	1.089601	0.128085	0.081297
Cu23	Cu	1.422934	0.461419	0.414630
Cu24	Cu	1.756267	0.794752	0.747963
Cu25	Cu	1.089624	0.128096	-0.081305
Cu26	Cu	1.422957	0.461429	0.252028
Cu27	Cu	1.756290	0.794763	0.585362
O28	O	1.082484	0.262324	0.068735
O29	O	1.415818	0.595657	0.402068
O30	O	1.749151	0.928991	0.735401
C31	C	0.921016	0.134532	-0.000005
C32	C	1.254349	0.467866	0.333328
C33	C	1.587682	0.801199	0.666662
C34	C	0.818635	0.132536	-0.000005
C35	C	1.151969	0.465870	0.333328
C36	C	1.485302	0.799203	0.666661
C37	C	0.735491	0.130915	-0.000009
C38	C	1.068825	0.464248	0.333325
C39	C	1.402158	0.797581	0.666658
C40	C	0.631182	0.128888	-0.000009
C41	C	0.964516	0.462221	0.333324
C42	C	1.297849	0.795555	0.666658
C43	C	0.548043	0.127280	-0.000009
C44	C	0.881377	0.460613	0.333325
C45	C	1.214710	0.793946	0.666658
C46	C	0.443728	0.125253	-0.000010
C47	C	0.777061	0.458586	0.333323
C48	C	1.110395	0.791920	0.666656
C49	C	1.096067	-0.040507	0.000003
C50	C	1.429400	0.292826	0.333337
C51	C	1.762734	0.626160	0.666670
C52	C	1.094079	-0.142889	0.000004
C53	C	1.427412	0.190445	0.333337
C54	C	1.760745	0.523778	0.666670
C55	C	1.086759	-0.517785	-0.000018
C56	C	1.420093	-0.184452	0.333316
C57	C	1.753426	0.148882	0.666649
C58	C	1.088792	-0.413477	-0.000011
C59	C	1.422125	-0.080143	0.333322
C60	C	1.755459	0.253190	0.666655
C61	C	1.090419	-0.330340	-0.000006
C62	C	1.423752	0.002993	0.333327
C63	C	1.757085	0.336327	0.666660
C64	C	1.092452	-0.226025	-0.000002
C65	C	1.425785	0.107308	0.333332
C66	C	1.759118	0.440641	0.666665
C67	C	1.258209	0.121649	-0.000005
C68	C	1.591542	0.454982	0.333328
C69	C	1.924875	0.788315	0.666661
C70	C	1.360589	0.123645	-0.000010
C71	C	1.693922	0.456978	0.333323
C72	C	2.027256	0.790311	0.666656
C73	C	1.083157	0.296688	-0.000014
C74	C	1.416491	0.630022	0.333320
C75	C	1.749824	0.963355	0.666653
C76	C	1.085146	0.399070	-0.000020
C77	C	1.418479	0.732403	0.333314
C78	C	1.751812	1.065736	0.666647
N79	N	1.089591	0.128077	0.195662
N80	N	1.422924	0.461410	0.528995
N81	N	1.756258	0.794744	0.862328
N82	N	1.089640	0.128097	-0.195670
N83	N	1.422974	0.461430	0.137663
N84	N	1.756307	0.794763	0.470996
C85	C	1.152202	0.065515	0.238930
C86	C	1.485536	0.398848	0.572263
C87	C	1.818869	0.732181	0.905596
C88	C	1.152207	0.065514	0.325477
C89	C	1.485540	0.398847	0.658810
C90	C	1.818874	0.732181	0.992143
C91	C	1.089604	0.128080	0.368754
C92	C	1.422938	0.461414	0.702088
C93	C	1.756271	0.794747	1.035421
C94	C	1.026986	0.190646	0.325480
C95	C	1.360320	0.523979	0.658814
C96	C	1.693653	0.857312	0.992147
C97	C	1.026978	0.190641	0.238935
C98	C	1.360311	0.523975	0.572268
C99	C	1.693645	0.857308	0.905602
C100	C	1.027018	0.190663	0.674509
C101	C	1.360351	0.523996	1.007842
C102	C	1.693685	0.857330	1.341175
C103	C	1.027033	0.190664	0.761060
C104	C	1.360366	0.523998	1.094394
C105	C	1.693700	0.857331	1.427727
C106	C	1.152247	0.065535	0.761050
C107	C	1.485580	0.398869	1.094384
C108	C	1.818914	0.732202	1.427717
C109	C	1.152239	0.065531	0.674505
C110	C	1.485572	0.398865	1.007838
C111	C	1.818905	0.732198	1.341172
C112	C	1.089618	0.128093	0.631239
C113	C	1.422951	0.461426	0.964572
C114	C	1.756285	0.794759	1.297905
C115	C	1.089612	0.128092	0.537394
C116	C	1.422946	0.461425	0.870728
C117	C	1.756279	0.794759	1.204061
C118	C	1.089613	0.128086	0.462597
C119	C	1.422947	0.461420	0.795930
C120	C	1.756280	0.794753	1.129264
H121	H	1.203184	0.014570	0.203699
H122	H	1.536518	0.347903	0.537032
H123	H	1.869851	0.681237	0.870365
H124	H	0.976032	0.241604	0.639288
H125	H	1.309365	0.574938	0.972621
H126	H	1.642699	0.908271	1.305955
H127	H	0.975993	0.241585	0.203707
H128	H	1.309326	0.574918	0.537040
H129	H	1.642659	0.908251	0.870374
H130	H	1.203233	0.014591	0.796287
H131	H	1.536567	0.347925	1.129620
H132	H	1.869900	0.681258	1.462954
H133	H	0.976009	0.241585	0.360722
H134	H	1.309343	0.574919	0.694055
H135	H	1.642676	0.908252	1.027389
C136	C	0.958160	0.259486	0.808668
C137	C	1.291494	0.592820	1.142002
C138	C	1.624827	0.926153	1.475335
C139	C	0.889276	0.328300	0.761080
C140	C	1.222610	0.661633	1.094413
C141	C	1.555943	0.994966	1.427747
C142	C	0.820409	0.397118	0.808688
C143	C	1.153742	0.730451	1.142022
C144	C	1.487075	1.063784	1.475355
C145	C	0.820425	0.397123	0.903885
C146	C	1.153759	0.730456	1.237218
C147	C	1.487092	1.063789	1.570552
C148	C	0.889312	0.328307	0.951479
C149	C	1.222646	0.661640	1.284812
C150	C	1.555979	0.994974	1.618145
C151	C	0.958180	0.259489	0.903870
C152	C	1.291513	0.592822	1.237204
C153	C	1.624846	0.926155	1.570537
H154	H	0.889262	0.328298	0.690605
H155	H	1.222595	0.661632	1.023938
H156	H	1.555928	0.994965	1.357272
H157	H	0.769414	0.448060	0.773456
H158	H	1.102748	0.781393	1.106789
H159	H	1.436081	1.114726	1.440123
H160	H	0.769446	0.448066	0.939128
H161	H	1.102779	0.781399	1.272461
H162	H	1.436112	1.114733	1.605794
H163	H	0.889327	0.328308	1.021954
H164	H	1.222660	0.661642	1.355287
H165	H	1.555994	0.994975	1.688620
H166	H	1.009174	0.208547	0.939103
H167	H	1.342508	0.541880	1.272436
H168	H	1.675841	0.875213	1.605769
H169	H	1.203189	0.014570	0.360705
H170	H	1.536522	0.347904	0.694038
H171	H	1.869856	0.681237	1.027372
H172	H	1.203218	0.014587	0.639271
H173	H	1.536552	0.347920	0.972604
H174	H	1.869885	0.681254	1.305938
