data_functionalizedCrystal
_audit_creation_method	'MofGen! by Chris Wilmer'
_symmetry_space_group_name_H-M	'P1'
_symmetry_Int_Tables_number	1
_symmetry_cell_setting	triclinic
loop_
_symmetry_equiv_pos_as_xyz
  x,y,z
_cell_length_a	14.044220
_cell_length_b	16.109301
_cell_length_c	14.586319
_cell_angle_alpha	90.000846
_cell_angle_beta	89.998609
_cell_angle_gamma	91.674821
loop_
_atom_site_label
_atom_site_type_symbol
_atom_site_fract_x
_atom_site_fract_y
_atom_site_fract_z
O1	O	-1.257643	0.200436	-0.076125
O2	O	-0.757643	0.700436	0.423875
O3	O	-0.981677	0.193203	-0.076149
O4	O	-0.481677	0.693203	0.423851
O5	O	-1.127241	0.076352	-0.076141
O6	O	-0.627241	0.576352	0.423859
O7	O	-1.112079	0.317286	-0.076133
O8	O	-0.612079	0.817286	0.423867
O9	O	-1.127231	0.076350	0.076340
O10	O	-0.627231	0.576350	0.576340
O11	O	-0.981666	0.193200	0.076332
O12	O	-0.481666	0.693200	0.576332
O13	O	-1.257633	0.200433	0.076356
O14	O	-0.757633	0.700433	0.576356
Cu15	Cu	-1.119649	0.196816	0.090266
Cu16	Cu	-0.619649	0.696816	0.590266
Cu17	Cu	-1.119661	0.196820	-0.090060
Cu18	Cu	-0.619661	0.696820	0.409940
O19	O	-1.112069	0.317284	0.076348
O20	O	-0.612069	0.817284	0.576348
C21	C	-0.946358	0.190036	0.000088
C22	C	-0.446358	0.690036	0.500088
C23	C	-0.841135	0.180592	0.000079
C24	C	-0.341135	0.680592	0.500079
C25	C	-1.126622	0.045330	0.000096
C26	C	-0.626622	0.545330	0.500096
C27	C	-1.124781	-0.047102	0.000086
C28	C	-0.624781	0.452898	0.500086
C29	C	-1.292952	0.203600	0.000116
C30	C	-0.792952	0.703600	0.500116
C31	C	-1.398175	0.213044	0.000120
C32	C	-0.898175	0.713044	0.500120
C33	C	-0.648479	0.163326	0.000096
C34	C	-0.148479	0.663326	0.500096
C35	C	-0.590825	0.230306	0.000102
C36	C	-0.090825	0.730306	0.500102
C37	C	-0.483625	0.220699	0.000112
C38	C	0.016375	0.720699	0.500112
C39	C	-0.755690	0.172932	0.000086
C40	C	-0.255690	0.672932	0.500086
C41	C	-1.112688	0.348306	0.000109
C42	C	-0.612688	0.848306	0.500109
C43	C	-1.114529	0.440738	0.000112
C44	C	-0.614529	0.940738	0.500112
N45	N	-1.119647	0.196814	0.217098
N46	N	-0.619647	0.696814	0.717098
C47	C	-1.032436	0.656902	0.000092
C48	C	-0.532436	1.156902	0.500092
C49	C	-1.034173	0.743752	0.000085
C50	C	-0.534173	1.243752	0.500085
C51	C	-1.206881	0.736727	0.000104
C52	C	-0.706881	1.236727	0.500104
C53	C	-1.205142	0.649879	0.000104
C54	C	-0.705142	1.149879	0.500104
C55	C	-1.117917	0.609969	0.000103
C56	C	-0.617917	1.109969	0.500103
C57	C	-1.121393	0.783667	0.000096
C58	C	-0.621393	1.283667	0.500096
C59	C	-1.123278	0.877833	0.000088
C60	C	-0.623278	1.377833	0.500088
C61	C	-1.116032	0.515797	0.000108
C62	C	-0.616032	1.015797	0.500108
N63	N	-1.119670	0.196816	-0.216892
N64	N	-0.619670	0.696816	0.283108
C65	C	-1.184125	0.145093	0.452108
C66	C	-0.684125	0.645093	0.952108
C67	C	-1.184128	0.145092	0.548089
C68	C	-0.684128	0.645092	1.048089
C69	C	-1.055186	0.248539	0.548092
C70	C	-0.555186	0.748539	1.048092
C71	C	-1.055179	0.248536	0.452112
C72	C	-0.555179	0.748536	0.952112
C73	C	-1.119654	0.196814	0.404123
C74	C	-0.619654	0.696814	0.904123
C75	C	-1.119663	0.196816	0.596084
C76	C	-0.619663	0.696816	1.096084
C77	C	-1.119666	0.196814	0.700151
C78	C	-0.619666	0.696814	1.200151
C79	C	-1.119651	0.196815	0.300049
C80	C	-0.619651	0.696815	0.800049
H81	H	-0.621976	0.294863	0.000100
H82	H	-0.121976	0.794863	0.500100
Cl83	Cl	-0.926706	0.802750	0.000067
Cl84	Cl	-0.426706	1.302750	0.500067
H85	H	-0.617330	0.098774	0.000099
H86	H	-0.117330	0.598774	0.500099
H87	H	-1.236623	0.102977	0.413037
H88	H	-0.736623	0.602977	0.913037
Cl89	Cl	-0.922782	0.606733	0.000085
Cl90	Cl	-0.422782	1.106733	0.500085
Cl91	Cl	-0.974120	0.313557	0.391782
Cl92	Cl	-0.474120	0.813557	0.891782
H93	H	-1.277897	0.769233	0.000114
H94	H	-0.777897	1.269233	0.500114
Cl95	Cl	-1.312613	0.590873	0.000112
Cl96	Cl	-0.812613	1.090873	0.500112
Cl97	Cl	-1.265178	0.080066	0.608411
Cl98	Cl	-0.765178	0.580066	1.108411
H99	H	-1.002693	0.290650	0.587174
H100	H	-0.502693	0.790650	1.087174
