data_functionalizedCrystal
_audit_creation_method	'MofGen! by Chris Wilmer'
_symmetry_space_group_name_H-M	'P1'
_symmetry_Int_Tables_number	1
_symmetry_cell_setting	triclinic
loop_
_symmetry_equiv_pos_as_xyz
  x,y,z
_cell_length_a	14.044220
_cell_length_b	11.026607
_cell_length_c	10.065875
_cell_angle_alpha	79.268236
_cell_angle_beta	80.445026
_cell_angle_gamma	79.112553
loop_
_atom_site_label
_atom_site_type_symbol
_atom_site_fract_x
_atom_site_fract_y
_atom_site_fract_z
O1	O	1.319595	-0.281426	-0.113483
O2	O	1.041790	-0.270669	-0.113487
O3	O	1.157668	-0.096903	-0.113480
O4	O	1.203717	-0.455192	-0.113490
O5	O	1.135596	-0.130183	0.113507
O6	O	1.019719	-0.303950	0.113501
O7	O	1.297523	-0.314706	0.113504
Zn8	Zn	1.155117	-0.314612	0.149542
Zn9	Zn	1.184197	-0.270764	-0.149524
O10	O	1.181646	-0.488472	0.113498
C11	C	0.994637	-0.282601	0.000006
C12	C	0.887015	-0.268557	0.000005
C13	C	1.344677	-0.302774	0.000008
C14	C	1.452300	-0.316816	0.000000
C15	C	1.138137	-0.067412	0.000012
C16	C	1.112813	0.070044	0.000006
C17	C	1.649342	-0.342491	0.000001
C18	C	1.689979	-0.242888	0.000004
C19	C	1.799620	-0.257174	0.000005
C20	C	1.539691	-0.328207	0.000001
C21	C	1.201177	-0.517963	0.000003
C22	C	1.226501	-0.655417	-0.000001
N23	N	1.135277	-0.344537	0.353646
C24	C	1.182738	0.136280	0.000005
C25	C	1.156566	0.278349	-0.000000
N26	N	1.204042	-0.240830	-0.353629
C27	C	1.177287	-0.281167	0.421427
C28	C	1.162027	-0.304209	0.578594
H29	H	1.696892	-0.438486	-0.000003
O30	O	1.018225	0.127689	0.000182
C31	C	0.960571	0.075840	0.117759
H32	H	0.998249	-0.022242	0.156960
H33	H	0.885746	0.070659	0.091317
H34	H	0.951096	0.137173	0.200073
O35	O	1.633379	-0.128259	-0.000187
C36	C	1.664735	-0.046449	-0.117769
H37	H	1.744186	-0.081823	-0.156954
H38	H	1.658449	0.051147	-0.091342
H39	H	1.616925	-0.042518	-0.200091
H40	H	1.261978	0.087810	0.000015
H41	H	1.305757	0.296135	-0.000103
O42	O	1.062069	0.336343	0.000054
C43	C	1.056977	0.465283	0.000011
H44	H	1.123035	0.480982	0.042986
H45	H	0.986976	0.501478	0.065906
H46	H	1.056800	0.517653	-0.108889
O47	O	1.105719	-0.389439	0.648005
C48	C	1.145929	-0.508404	0.613211
H49	H	1.193145	-0.497045	0.509419
H50	H	1.084327	-0.560942	0.608485
H51	H	1.192828	-0.563422	0.693592
O52	O	1.233576	-0.196049	0.351680
C53	C	1.176706	-0.102251	0.269025
H54	H	1.111682	-0.140380	0.247808
H55	H	1.223352	-0.072358	0.168463
H56	H	1.149099	-0.018170	0.323964
O57	O	1.260164	-0.155448	0.576801
C58	C	1.203078	-0.061694	0.494390
H59	H	1.138220	-0.100058	0.473006
H60	H	1.249634	-0.031372	0.393896
H61	H	1.175221	0.022158	0.549627
O62	O	1.078807	-0.429461	0.423365
C63	C	0.999807	-0.369018	0.506010
H64	H	1.019498	-0.279434	0.527265
H65	H	0.983737	-0.433665	0.606554
H66	H	0.932308	-0.345081	0.451043
