data_functionalizedCrystal
_audit_creation_method	'MofGen! by Chris Wilmer'
_symmetry_space_group_name_H-M	'P1'
_symmetry_Int_Tables_number	1
_symmetry_cell_setting	triclinic
loop_
_symmetry_equiv_pos_as_xyz
  x,y,z
_cell_length_a	11.026607
_cell_length_b	16.109301
_cell_length_c	15.186229
_cell_angle_alpha	89.986602
_cell_angle_beta	89.994409
_cell_angle_gamma	96.023749
loop_
_atom_site_label
_atom_site_type_symbol
_atom_site_fract_x
_atom_site_fract_y
_atom_site_fract_z
O1	O	-1.610030	-0.348140	0.073244
O2	O	-1.276697	-0.014807	0.406577
O3	O	-0.943364	0.318527	0.739910
O4	O	-1.256740	-0.308498	0.073243
O5	O	-0.923406	0.024835	0.406576
O6	O	-0.590073	0.358168	0.739910
O7	O	-1.443090	-0.208743	0.073234
O8	O	-1.109757	0.124591	0.406568
O9	O	-0.776423	0.457924	0.739901
O10	O	-1.423680	-0.447896	0.073252
O11	O	-1.090346	-0.114563	0.406586
O12	O	-0.757013	0.218771	0.739919
O13	O	-1.443065	-0.208718	-0.073223
O14	O	-1.109732	0.124615	0.260110
O15	O	-0.776398	0.457948	0.593444
O16	O	-1.256714	-0.308474	-0.073214
O17	O	-0.923381	0.024859	0.260119
O18	O	-0.590048	0.358193	0.593452
O19	O	-1.610005	-0.348116	-0.073214
O20	O	-1.276672	-0.014782	0.260120
O21	O	-0.943338	0.318551	0.593453
Zn22	Zn	-1.433356	-0.328291	-0.096467
Zn23	Zn	-1.100022	0.005042	0.236866
Zn24	Zn	-0.766689	0.338376	0.570199
Zn25	Zn	-1.433389	-0.328323	0.096497
Zn26	Zn	-1.100056	0.005010	0.429830
Zn27	Zn	-0.766722	0.338344	0.763163
O28	O	-1.423654	-0.447871	-0.073205
O29	O	-1.090321	-0.114538	0.260128
O30	O	-0.756988	0.218795	0.593462
C31	C	-1.211519	-0.301173	0.000014
C32	C	-0.878186	0.032160	0.333348
C33	C	-0.544852	0.365494	0.666681
C34	C	-1.076814	-0.279372	0.000014
C35	C	-0.743480	0.053961	0.333347
C36	C	-0.410147	0.387294	0.666680
C37	C	-1.442291	-0.177638	0.000005
C38	C	-1.108958	0.155696	0.333339
C39	C	-0.775625	0.489029	0.666672
C40	C	-1.439934	-0.084989	0.000004
C41	C	-1.106601	0.248344	0.333337
C42	C	-0.773267	0.581678	0.666671
C43	C	-1.655225	-0.355441	0.000017
C44	C	-1.321892	-0.022108	0.333350
C45	C	-0.988559	0.311226	0.666684
C46	C	-1.789931	-0.377242	0.000023
C47	C	-1.456598	-0.043909	0.333357
C48	C	-1.123264	0.289425	0.666690
C49	C	-1.002984	-0.339568	0.000019
C50	C	-0.669651	-0.006235	0.333352
C51	C	-0.336318	0.327099	0.666685
C52	C	-0.863759	-0.317037	0.000018
C53	C	-0.530426	0.016296	0.333352
C54	C	-0.197092	0.349629	0.666685
C55	C	-1.424453	-0.478976	0.000026
C56	C	-1.091120	-0.145643	0.333359
C57	C	-0.757787	0.187690	0.666693
C58	C	-1.426811	-0.571625	0.000033
C59	C	-1.093477	-0.238292	0.333366
C60	C	-0.760144	0.095042	0.666700
N61	N	-1.433342	-0.328270	-0.228160
N62	N	-1.100008	0.005064	0.105173
N63	N	-0.766675	0.338397	0.438507
C64	C	-1.545030	0.121535	0.000018
C65	C	-1.211696	0.454868	0.333351
C66	C	-0.878363	0.788201	0.666685
C67	C	-1.542805	0.208588	0.000025
C68	C	-1.209472	0.541922	0.333359
C69	C	-0.876138	0.875255	0.666692
C70	C	-1.321707	0.221846	0.000022
C71	C	-0.988373	0.555179	0.333355
C72	C	-0.655040	0.888512	0.666688
C73	C	-1.323932	0.134794	0.000021
C74	C	-0.990599	0.468127	0.333354
C75	C	-0.657266	0.801460	0.666687
C76	C	-1.435597	0.084640	0.000014
C77	C	-1.102264	0.417973	0.333348
C78	C	-0.768931	0.751307	0.666681
C79	C	-1.431147	0.258746	0.000023
C80	C	-1.097814	0.592079	0.333356
C81	C	-0.764481	0.925413	0.666689
C82	C	-1.428735	0.353133	0.000030
C83	C	-1.095401	0.686467	0.333364
C84	C	-0.762068	1.019800	0.666697
C85	C	-1.438011	-0.009754	0.000008
C86	C	-1.104677	0.323580	0.333342
C87	C	-0.771344	0.656913	0.666675
C88	C	-1.359811	-0.266848	-0.546116
C89	C	-1.026477	0.066485	-0.212783
C90	C	-0.693144	0.399818	0.120551
C91	C	-1.359800	-0.266835	-0.453927
C92	C	-1.026467	0.066499	-0.120593
C93	C	-0.693134	0.399832	0.212740
C94	C	-1.506952	-0.389764	-0.453861
C95	C	-1.173619	-0.056431	-0.120528
C96	C	-0.840285	0.276903	0.212806
C97	C	-1.506968	-0.389773	-0.546049
C98	C	-1.173635	-0.056440	-0.212716
C99	C	-0.840301	0.276893	0.120618
C100	C	-1.433390	-0.328316	-0.592174
C101	C	-1.100057	0.005017	-0.258841
C102	C	-0.766724	0.338351	0.074492
C103	C	-1.433364	-0.328293	-0.407797
C104	C	-1.100031	0.005040	-0.074463
C105	C	-0.766697	0.338374	0.258870
C106	C	-1.433353	-0.328279	-0.307840
C107	C	-1.100020	0.005055	0.025493
C108	C	-0.766687	0.338388	0.358826
C109	C	-1.433402	-0.328329	-0.692137
C110	C	-1.100069	0.005004	-0.358803
C111	C	-0.766736	0.338338	-0.025470
N112	N	-1.433413	-0.328339	0.228189
N113	N	-1.100079	0.004994	0.561523
N114	N	-0.766746	0.338328	0.894856
H115	H	-1.042849	-0.407784	0.000019
H116	H	-0.709515	-0.074451	0.333352
H117	H	-0.376182	0.258883	0.666685
H118	H	-0.823900	-0.248817	0.000036
H119	H	-0.490567	0.084516	0.333369
H120	H	-0.157233	0.417850	0.666702
H121	H	-1.631916	0.238623	0.000030
H122	H	-1.298583	0.571957	0.333364
H123	H	-0.965249	0.905290	0.666697
Cl124	Cl	-1.685408	0.058487	0.000012
Cl125	Cl	-1.352074	0.391821	0.333346
Cl126	Cl	-1.018741	0.725154	0.666679
H127	H	-1.036949	-0.211156	0.000031
H128	H	-0.703616	0.122177	0.333364
H129	H	-0.370283	0.455510	0.666698
Cl130	Cl	-1.181336	0.284901	0.000029
Cl131	Cl	-0.848002	0.618235	0.333362
Cl132	Cl	-0.514669	0.951568	0.666696
H133	H	-0.829788	-0.445463	0.000023
H134	H	-0.496455	-0.112129	0.333356
H135	H	-0.163121	0.221204	0.666689
Cl136	Cl	-1.186349	0.088408	0.000024
Cl137	Cl	-0.853015	0.421742	0.333357
Cl138	Cl	-0.519682	0.755075	0.666690
Cl139	Cl	-1.267319	-0.189585	-0.604099
Cl140	Cl	-0.933985	0.143749	-0.270766
Cl141	Cl	-0.600652	0.477082	0.062568
Cl142	Cl	-1.267289	-0.189561	-0.396029
Cl143	Cl	-0.933955	0.143773	-0.062695
Cl144	Cl	-0.600622	0.477106	0.270638
Cl145	Cl	-1.599482	-0.467051	-0.603955
Cl146	Cl	-1.266148	-0.133717	-0.270622
Cl147	Cl	-0.932815	0.199616	0.062712
H148	H	-1.566855	-0.439801	-0.416295
H149	H	-1.233522	-0.106468	-0.082961
H150	H	-0.900188	0.226865	0.250372
