data_functionalizedCrystal
_audit_creation_method	'MofGen! by Chris Wilmer'
_symmetry_space_group_name_H-M	'P1'
_symmetry_Int_Tables_number	1
_symmetry_cell_setting	triclinic
loop_
_symmetry_equiv_pos_as_xyz
  x,y,z
_cell_length_a	19.077236
_cell_length_b	10.686203
_cell_length_c	10.685971
_cell_angle_alpha	90.333424
_cell_angle_beta	88.105264
_cell_angle_gamma	92.251081
loop_
_atom_site_label
_atom_site_type_symbol
_atom_site_fract_x
_atom_site_fract_y
_atom_site_fract_z
Zn1	Zn	1.064433	0.483818	0.753268
Zn2	Zn	1.082248	0.676283	0.528836
Zn3	Zn	0.955717	0.474885	0.535126
Zn4	Zn	0.957055	0.700603	0.728879
O5	O	1.014863	0.583897	0.636527
O6	O	1.164688	0.502909	0.731072
O7	O	1.072359	0.635651	0.354658
O8	O	0.962123	0.301059	0.576902
O9	O	1.177776	0.644313	0.566182
O10	O	1.041996	0.307622	0.737171
O11	O	0.979398	0.487685	0.359280
O12	O	0.858003	0.511266	0.553253
O13	O	0.964403	0.685762	0.907126
O14	O	0.858986	0.677100	0.695603
O15	O	1.043293	0.526491	0.925045
O16	O	1.073657	0.854520	0.542533
O17	O	0.981678	0.872388	0.689504
C18	C	0.833112	0.595854	0.622465
C19	C	0.755359	0.601002	0.616476
C20	C	0.712017	0.529936	0.699624
C21	C	0.638959	0.534765	0.693987
C22	C	0.609245	0.610669	0.605206
C23	C	0.652592	0.681738	0.522049
C24	C	0.725649	0.676900	0.527681
C25	C	0.391481	0.633011	0.579137
C26	C	0.318420	0.637846	0.573514
C27	C	0.304791	0.490871	0.745451
C28	C	0.377850	0.486046	0.751080
C29	C	0.421191	0.557109	0.667919
N30	N	0.534568	0.615611	0.599444
N31	N	0.495866	0.552160	0.673676
C32	C	1.029763	0.908833	0.612718
C33	C	1.036200	1.047841	0.602579
C34	C	1.197324	0.571894	0.650646
C35	C	1.275078	0.566780	0.656662
C36	C	1.002010	0.609835	0.962733
C37	C	0.996532	0.620889	1.101743
C38	C	0.999916	1.257695	0.660471
C39	C	0.993527	1.118690	0.670707
C40	C	1.027659	0.558083	1.311588
C41	C	1.033127	0.547014	1.172579
H42	H	0.736204	0.468130	0.771922
C43	C	1.092208	1.109567	0.513282
N44	N	1.134392	1.156060	0.446026
H45	H	0.961011	0.692591	1.147443
H46	H	0.603673	0.476898	0.761698
C47	C	0.410529	0.402534	0.848736
N48	N	0.435144	0.339630	0.922290
C49	C	1.081112	0.450128	1.110837
N50	N	1.117254	0.377156	1.064332
C51	C	0.937521	1.056970	0.759996
N52	N	0.895338	1.010473	0.827252
H53	H	0.269496	0.433013	0.813155
H54	H	0.294229	0.699662	0.501216
H55	H	0.426761	0.690877	0.511423
H56	H	0.628393	0.743534	0.449756
H57	H	0.760937	0.734769	0.459972
