data_functionalizedCrystal
_audit_creation_method	'MofGen! by Chris Wilmer'
_symmetry_space_group_name_H-M	'P1'
_symmetry_Int_Tables_number	1
_symmetry_cell_setting	triclinic
loop_
_symmetry_equiv_pos_as_xyz
  x,y,z
_cell_length_a	14.044220
_cell_length_b	11.792241
_cell_length_c	13.101039
_cell_angle_alpha	86.623482
_cell_angle_beta	86.330374
_cell_angle_gamma	91.308853
loop_
_atom_site_label
_atom_site_type_symbol
_atom_site_fract_x
_atom_site_fract_y
_atom_site_fract_z
O1	O	-0.124790	1.524822	-0.085112
O2	O	0.208543	1.858155	0.248222
O3	O	0.541876	2.191488	0.581555
O4	O	-0.138185	1.195740	-0.085135
O5	O	0.195148	1.529073	0.248198
O6	O	0.528481	1.862406	0.581531
O7	O	0.006522	1.355341	-0.085119
O8	O	0.339855	1.688674	0.248214
O9	O	0.673189	2.022008	0.581547
O10	O	-0.269498	1.365220	-0.085128
O11	O	0.063836	1.698554	0.248206
O12	O	0.397169	2.031887	0.581539
O13	O	-0.003878	1.343891	0.085309
O14	O	0.329455	1.677225	0.418643
O15	O	0.662789	2.010558	0.751976
O16	O	-0.148585	1.184290	0.085293
O17	O	0.184748	1.517624	0.418627
O18	O	0.518081	1.850957	0.751960
O19	O	-0.135190	1.513372	0.085317
O20	O	0.198143	1.846705	0.418650
O21	O	0.531476	2.180039	0.751984
Zn22	Zn	-0.143539	1.347013	0.112364
Zn23	Zn	0.189794	1.680347	0.445698
Zn24	Zn	0.523128	2.013680	0.779031
Zn25	Zn	-0.129837	1.362099	-0.112183
Zn26	Zn	0.203497	1.695432	0.221150
Zn27	Zn	0.536830	2.028765	0.554484
O28	O	-0.279897	1.353771	0.085301
O29	O	0.053436	1.687104	0.418634
O30	O	0.386769	2.020438	0.751968
C31	C	-0.142544	1.147645	0.000076
C32	C	0.190790	1.480979	0.333409
C33	C	0.524123	1.814312	0.666743
C34	C	-0.140024	1.021396	0.000067
C35	C	0.193309	1.354729	0.333400
C36	C	0.526642	1.688062	0.666734
C37	C	-0.135395	0.790247	0.000096
C38	C	0.197939	1.123580	0.333430
C39	C	0.531272	1.456913	0.666763
C40	C	-0.137967	0.918875	0.000080
C41	C	0.195366	1.252208	0.333414
C42	C	0.528700	1.585541	0.666747
C43	C	-0.310034	1.363820	0.000086
C44	C	0.023299	1.697154	0.333419
C45	C	0.356633	2.030487	0.666752
C46	C	-0.415326	1.376719	0.000083
C47	C	-0.081993	1.710053	0.333416
C48	C	0.251341	2.043386	0.666750
C49	C	-0.608109	1.400301	0.000089
C50	C	-0.274776	1.733634	0.333422
C51	C	0.058558	2.066968	0.666756
C52	C	-0.665272	1.308817	0.000083
C53	C	-0.331938	1.642150	0.333417
C54	C	0.001395	1.975483	0.666750
C55	C	-0.772543	1.321938	0.000087
C56	C	-0.439209	1.655271	0.333420
C57	C	-0.105876	1.988604	0.666754
C58	C	-0.500828	1.387182	0.000086
C59	C	-0.167495	1.720515	0.333419
C60	C	0.165839	2.053848	0.666752
C61	C	0.036659	1.345292	0.000094
C62	C	0.369992	1.678625	0.333427
C63	C	0.703325	2.011958	0.666760
C64	C	0.141951	1.332393	0.000090
C65	C	0.475284	1.665726	0.333423
C66	C	0.808618	1.999060	0.666756
C67	C	-0.130832	1.561467	0.000103
C68	C	0.202501	1.894800	0.333437
C69	C	0.535835	2.228133	0.666770
C70	C	-0.133351	1.687717	0.000106
C71	C	0.199983	2.021050	0.333439
C72	C	0.533316	2.354383	0.666772
N73	N	-0.152890	1.336726	0.265612
N74	N	0.180443	1.670060	0.598945
N75	N	0.513777	2.003393	0.932278
N76	N	-0.120478	1.372394	-0.265430
N77	N	0.212855	1.705727	0.067903
N78	N	0.546188	2.039060	0.401236
C79	C	-0.165621	1.322731	0.474653
C80	C	0.167713	1.656065	0.807986
C81	C	0.501046	1.989398	1.141320
C82	C	-0.107751	1.386385	0.525535
C83	C	0.225583	1.719719	0.858868
C84	C	0.558916	2.053052	1.192202
C85	C	-0.114834	1.378598	0.641853
C86	C	0.218499	1.711932	0.975186
C87	C	0.551833	2.045265	1.308519
C88	C	-0.158538	1.330517	0.358325
C89	C	0.174795	1.663850	0.691658
C90	C	0.508128	1.997184	1.024991
H91	H	-0.633647	1.220640	0.000078
H92	H	-0.300314	1.553973	0.333411
H93	H	0.033019	1.887306	0.666744
O94	O	-0.645723	1.505541	0.000239
O95	O	-0.312390	1.838875	0.333573
O96	O	0.020944	2.172208	0.666906
C97	C	-0.620476	1.558926	0.088526
C98	C	-0.287143	1.892259	0.421859
C99	C	0.046190	2.225592	0.755193
H100	H	-0.553449	1.519192	0.117946
H101	H	-0.220115	1.852525	0.451279
H102	H	0.113218	2.185859	0.784613
H103	H	-0.606153	1.653458	0.068687
H104	H	-0.272820	1.986791	0.402020
H105	H	0.060513	2.320124	0.735354
H106	H	-0.681410	1.547297	0.150334
H107	H	-0.348077	1.880630	0.483668
H108	H	-0.014743	2.213964	0.817001
O109	O	-0.042207	1.458133	0.473137
O110	O	0.291126	1.791467	0.806470
O111	O	0.624460	2.124800	1.139804
C112	C	-0.049491	1.449854	0.366981
C113	C	0.283842	1.783187	0.700315
C114	C	0.617176	2.116521	1.033648
H115	H	-0.123904	1.416449	0.352386
H116	H	0.209429	1.749783	0.685719
H117	H	0.542762	2.083116	1.019053
H118	H	-0.036538	1.537357	0.326012
H119	H	0.296795	1.870691	0.659345
H120	H	0.630129	2.204024	0.992678
H121	H	0.006078	1.389063	0.336707
H122	H	0.339412	1.722397	0.670040
H123	H	0.672745	2.055730	1.003373
H124	H	-0.220482	1.262392	0.518444
H125	H	0.112851	1.595726	0.851777
H126	H	0.446185	1.929059	1.185111
