data_functionalizedCrystal
_audit_creation_method	'MofGen! by Chris Wilmer'
_symmetry_space_group_name_H-M	'P1'
_symmetry_Int_Tables_number	1
_symmetry_cell_setting	triclinic
loop_
_symmetry_equiv_pos_as_xyz
  x,y,z
_cell_length_a	14.519731
_cell_length_b	14.519709
_cell_length_c	9.482900
_cell_angle_alpha	99.350820
_cell_angle_beta	80.692239
_cell_angle_gamma	83.684499
loop_
_atom_site_label
_atom_site_type_symbol
_atom_site_fract_x
_atom_site_fract_y
_atom_site_fract_z
O1	O	1.238206	0.106569	-0.120901
O2	O	1.738206	0.606569	0.379099
O3	O	0.969732	0.120785	-0.120904
O4	O	1.469732	0.620785	0.379096
O5	O	1.111086	-0.020559	-0.120889
O6	O	1.611086	0.479441	0.379111
O7	O	1.096852	0.247913	-0.120915
O8	O	1.596852	0.747913	0.379085
O9	O	1.082374	0.008266	0.120900
O10	O	1.582374	0.508266	0.620900
O11	O	0.941020	0.149610	0.120886
O12	O	1.441020	0.649610	0.620886
O13	O	1.209494	0.135395	0.120889
O14	O	1.709494	0.635395	0.620889
Cu15	Cu	1.072635	0.145135	0.142965
Cu16	Cu	1.572635	0.645135	0.642965
Cu17	Cu	1.106591	0.111045	-0.142980
Cu18	Cu	1.606591	0.611045	0.357020
O19	O	1.068140	0.276739	0.120874
O20	O	1.568140	0.776739	0.620874
C21	C	0.921017	0.134531	-0.000009
C22	C	1.421017	0.634531	0.499991
C23	C	0.818637	0.132535	-0.000010
C24	C	1.318637	0.632535	0.499990
C25	C	1.096066	-0.040506	0.000006
C26	C	1.596066	0.459494	0.500006
C27	C	1.094078	-0.142888	0.000007
C28	C	1.594078	0.357112	0.500007
C29	C	0.735493	0.130913	-0.000015
C30	C	1.235493	0.630913	0.499985
C31	C	0.631184	0.128886	-0.000016
C32	C	1.131184	0.628886	0.499984
C33	C	0.548045	0.127278	-0.000015
C34	C	1.048045	0.627278	0.499985
C35	C	0.443730	0.125251	-0.000018
C36	C	0.943730	0.625251	0.499982
C37	C	1.086763	-0.517789	-0.000031
C38	C	1.586763	-0.017789	0.499969
C39	C	1.088794	-0.413479	-0.000020
C40	C	1.588794	0.086521	0.499980
C41	C	1.090420	-0.330341	-0.000011
C42	C	1.590420	0.169659	0.499989
C43	C	1.092452	-0.226026	-0.000003
C44	C	1.592452	0.273974	0.499997
C45	C	1.258210	0.121648	-0.000009
C46	C	1.758210	0.621648	0.499991
C47	C	1.360591	0.123643	-0.000018
C48	C	1.860591	0.623643	0.499982
C49	C	1.083160	0.296685	-0.000024
C50	C	1.583160	0.796685	0.499976
C51	C	1.085150	0.399066	-0.000034
C52	C	1.585150	0.899066	0.499966
N53	N	1.048760	0.169111	0.344082
N54	N	1.548760	0.669111	0.844082
N55	N	1.130473	0.087061	-0.344097
N56	N	1.630473	0.587061	0.155903
C57	C	1.099542	0.118112	0.416287
C58	C	1.599542	0.618112	0.916287
C59	C	1.079684	0.138068	0.583702
C60	C	1.579684	0.638068	1.083702
H61	H	1.157717	0.059672	0.354165
H62	H	1.657717	0.559672	0.854165
Br63	Br	0.982702	0.235465	0.687228
Br64	Br	1.482702	0.735465	1.187228
Br65	Br	1.227665	-0.010127	0.552382
Br66	Br	1.727665	0.489873	1.052382
H67	H	0.990579	0.227543	0.406206
H68	H	1.490579	0.727543	0.906206
