data_functionalizedCrystal
_audit_creation_method	'MofGen! by Chris Wilmer'
_symmetry_space_group_name_H-M	'P1'
_symmetry_Int_Tables_number	1
_symmetry_cell_setting	triclinic
loop_
_symmetry_equiv_pos_as_xyz
  x,y,z
_cell_length_a	10.489711
_cell_length_b	9.565339
_cell_length_c	19.288865
_cell_angle_alpha	90.004994
_cell_angle_beta	83.831628
_cell_angle_gamma	90.005127
loop_
_atom_site_label
_atom_site_type_symbol
_atom_site_fract_x
_atom_site_fract_y
_atom_site_fract_z
O1	O	1.691861	0.116329	0.097890
O2	O	1.320452	0.116322	0.107109
O3	O	1.516889	0.116298	0.001441
O4	O	1.495425	0.116353	0.203558
O5	O	1.516873	-0.116222	0.001447
O6	O	1.320437	-0.116198	0.107116
O7	O	1.691846	-0.116192	0.097896
Zn8	Zn	1.506139	-0.153112	0.102507
Zn9	Zn	1.506159	0.153243	0.102498
O10	O	1.495409	-0.116167	0.203565
C11	C	1.272928	0.000061	0.106421
C12	C	1.131343	0.000057	0.104350
C13	C	0.947520	0.000090	0.167896
C14	C	1.040391	0.114724	0.136151
C15	C	1.040349	-0.114523	0.136141
C16	C	0.971961	0.114814	0.068882
C17	C	0.971909	-0.114535	0.068881
C18	C	1.064754	0.000126	0.037086
N19	N	1.506134	-0.362192	0.102513
C20	C	1.415261	-0.453384	0.151365
C21	C	1.530442	-0.546556	0.165412
C22	C	1.391003	-0.546575	0.088471
C23	C	1.621373	-0.453312	0.116591
C24	C	1.481858	-0.453323	0.039623
C25	C	1.597122	-0.546453	0.053644
C26	C	1.739370	0.000073	0.098585
C27	C	1.880955	0.000086	0.100655
C28	C	1.516190	0.000034	-0.024437
C29	C	1.514117	0.000021	-0.101555
N30	N	1.506174	0.362322	0.102487
C31	C	1.629377	0.000016	-0.145485
C32	C	1.627429	0.000038	-0.217945
C33	C	1.510215	0.000037	-0.246471
C34	C	1.394940	0.000050	-0.202532
C35	C	1.396891	0.000042	-0.130073
C36	C	1.418065	-0.081411	-0.355369
C37	C	1.416119	-0.081412	-0.427826
C38	C	1.504193	0.000068	-0.469957
C39	C	1.594234	0.081531	-0.439623
C40	C	1.596185	0.081523	-0.367164
C41	C	1.508087	0.000047	-0.325040
C42	C	1.617349	0.000090	-0.592457
C43	C	1.615396	0.000120	-0.664918
C44	C	1.382903	0.000118	-0.649503
C45	C	1.384859	0.000101	-0.577044
C46	C	1.502085	0.000080	-0.548525
C47	C	1.496108	0.000100	0.229443
C48	C	1.498181	0.000121	0.306560
H49	H	1.551003	-0.587508	0.218585
C50	C	1.699911	-0.600539	-0.001372
C51	C	1.820184	-0.553054	0.013646
C52	C	1.914907	-0.602869	-0.037010
H53	H	1.683521	-0.567235	-0.045952
H54	H	1.698982	-0.699857	-0.001331
H55	H	1.821110	-0.453757	0.013598
H56	H	1.836615	-0.586355	0.058217
H57	H	1.913978	-0.702187	-0.036970
H58	H	1.898504	-0.569562	-0.081587
H59	H	1.996524	-0.570669	-0.026824
H60	H	0.941523	-0.211470	0.040455
H61	H	1.115463	0.000169	-0.018232
C62	C	1.261035	-0.601000	0.072740
C63	C	1.166256	-0.553810	0.124052
C64	C	1.046510	-0.603896	0.109584
H65	H	1.262039	-0.700298	0.072438
H66	H	1.243084	-0.567662	0.028420
H67	H	1.184202	-0.587155	0.168360
H68	H	1.165211	-0.454518	0.124362
H69	H	1.028559	-0.570557	0.065265
H70	H	1.047528	-0.703192	0.109282
H71	H	0.982187	-0.571874	0.144393
C72	C	1.454134	-0.398736	-0.031224
C73	C	1.333393	-0.445879	-0.045640
C74	C	1.307788	-0.395603	-0.110893
H75	H	1.517748	-0.431955	-0.066098
H76	H	1.455033	-0.299422	-0.030828
H77	H	1.332505	-0.545172	-0.046041
H78	H	1.269755	-0.412663	-0.010782
H79	H	1.308687	-0.296289	-0.110497
H80	H	1.371409	-0.428825	-0.145762
H81	H	1.225860	-0.427571	-0.120680
C82	C	1.255730	0.000340	-0.680560
C83	C	1.247842	0.119957	-0.721711
C84	C	1.130712	0.120208	-0.750341
H85	H	1.187253	0.000409	-0.644087
H86	H	1.250114	-0.080697	-0.708552
H87	H	1.253445	0.200974	-0.693721
H88	H	1.316291	0.119914	-0.758195
H89	H	1.125097	0.039171	-0.778333
H90	H	1.062245	0.120273	-0.713864
H91	H	1.125350	0.201360	-0.778271
H92	H	1.721291	0.000040	-0.253719
C93	C	1.080557	-0.243704	0.174200
C94	C	1.020592	-0.243143	0.242648
C95	C	1.057581	-0.362124	0.277731
H96	H	1.170947	-0.243350	0.174972
H97	H	1.055910	-0.325158	0.150799
H98	H	1.045247	-0.161711	0.266043
H99	H	0.930202	-0.243518	0.241897
H100	H	1.032934	-0.443577	0.254330
H101	H	1.147972	-0.361759	0.278498
H102	H	1.016892	-0.361765	0.324174
C103	C	1.313070	-0.398679	0.206543
C104	C	1.370849	-0.316149	0.254338
C105	C	1.276757	-0.265714	0.305173
H106	H	1.270171	-0.475140	0.230249
H107	H	1.252955	-0.343962	0.184895
H108	H	1.430941	-0.370864	0.275984
H109	H	1.413741	-0.239667	0.230652
H110	H	1.216643	-0.210996	0.283525
H111	H	1.233864	-0.342183	0.328874
H112	H	1.315945	-0.209701	0.337604
H113	H	0.896579	0.000219	0.223164
H114	H	1.718774	-0.412519	0.128521
C115	C	1.693984	0.170122	-0.334357
C116	C	1.770683	0.241513	-0.386754
C117	C	1.860774	0.323163	-0.356557
H118	H	1.746366	0.111538	-0.309513
H119	H	1.650678	0.235691	-0.303182
H120	H	1.813986	0.175952	-0.417917
H121	H	1.718337	0.300123	-0.411602
H122	H	1.817468	0.388732	-0.325382
H123	H	1.913147	0.264568	-0.331713
H124	H	1.912817	0.371621	-0.392102
C125	C	1.756778	0.000075	-0.114656
C126	C	1.857302	0.000111	-0.168644
C127	C	1.974681	0.000185	-0.140270
H128	H	1.762547	-0.080990	-0.086725
H129	H	1.762452	0.081191	-0.086726
H130	H	1.851631	-0.080996	-0.196562
H131	H	1.851576	0.081170	-0.196580
H132	H	1.980355	0.081300	-0.112339
H133	H	1.980437	-0.080881	-0.112339
H134	H	2.042901	0.000223	-0.176895
H135	H	1.299503	0.000052	-0.225763
H136	H	1.665951	0.147881	-0.473924
C137	C	1.744747	0.000167	-0.561622
C138	C	1.845275	0.000225	-0.615608
C139	C	1.962651	0.000321	-0.587231
H140	H	1.750527	-0.080898	-0.533692
H141	H	1.750406	0.081282	-0.533690
H142	H	1.839619	-0.080882	-0.643528
H143	H	1.839537	0.081284	-0.643542
H144	H	1.968310	0.081436	-0.559299
H145	H	1.968418	-0.080746	-0.559301
H146	H	2.030873	0.000373	-0.623856
C147	C	1.259618	0.000305	-0.529427
C148	C	1.189005	0.119913	-0.542407
C149	C	1.073613	0.120143	-0.498563
H150	H	1.277382	0.000371	-0.482165
H151	H	1.211463	-0.080738	-0.538153
H152	H	1.237150	0.200935	-0.533676
H153	H	1.171206	0.119872	-0.589661
H154	H	1.025457	0.039100	-0.507289
H155	H	1.091390	0.120206	-0.451304
H156	H	1.025682	0.201289	-0.507369
C157	C	1.318226	-0.169896	-0.460623
C158	C	1.241479	-0.241210	-0.408219
C159	C	1.151274	-0.322722	-0.438402
H160	H	1.361399	-0.235513	-0.491807
H161	H	1.265904	-0.111184	-0.485454
H162	H	1.293794	-0.299917	-0.383400
H163	H	1.198277	-0.175627	-0.377031
H164	H	1.098951	-0.264011	-0.463232
H165	H	1.194458	-0.388331	-0.469585
H166	H	1.099183	-0.371109	-0.402850
H167	H	1.709259	0.000124	-0.700686
H168	H	1.303029	0.000045	-0.094305
C169	C	1.322636	-0.169986	-0.309559
C170	C	1.389062	-0.266369	-0.272283
C171	C	1.301197	-0.347969	-0.230072
H172	H	1.268705	-0.218634	-0.337922
H173	H	1.271914	-0.111304	-0.277836
H174	H	1.439762	-0.325044	-0.304002
H175	H	1.442987	-0.217759	-0.243907
H176	H	1.250475	-0.289287	-0.198349
H177	H	1.247271	-0.396608	-0.258440
H178	H	1.346254	-0.413366	-0.204771
H179	H	1.070748	0.211650	0.164602
H180	H	0.941801	0.211842	0.040454
