data_functionalizedCrystal
_audit_creation_method	'MofGen! by Chris Wilmer'
_symmetry_space_group_name_H-M	'P1'
_symmetry_Int_Tables_number	1
_symmetry_cell_setting	triclinic
loop_
_symmetry_equiv_pos_as_xyz
  x,y,z
_cell_length_a	19.121102
_cell_length_b	19.121063
_cell_length_c	11.169409
_cell_angle_alpha	87.599247
_cell_angle_beta	92.462271
_cell_angle_gamma	90.126902
loop_
_atom_site_label
_atom_site_type_symbol
_atom_site_fract_x
_atom_site_fract_y
_atom_site_fract_z
Zn1	Zn	1.059882	-0.324835	0.779422
Zn2	Zn	1.559882	0.175165	1.279422
Zn3	Zn	1.054780	-0.442091	0.586885
Zn4	Zn	1.554780	0.057909	1.086885
Zn5	Zn	0.942636	-0.319867	0.569847
Zn6	Zn	1.442636	0.180133	1.069847
Zn7	Zn	0.937607	-0.437026	0.778619
Zn8	Zn	1.437607	0.062974	1.278619
O9	O	0.998727	-0.380955	0.678693
O10	O	1.498727	0.119045	1.178693
O11	O	1.157311	-0.344588	0.761349
O12	O	1.657311	0.155412	1.261349
O13	O	1.039874	-0.425918	0.416676
O14	O	1.539874	0.074082	0.916676
O15	O	0.962429	-0.222424	0.590853
O16	O	1.462429	0.277576	1.090853
O17	O	1.153563	-0.430735	0.619893
O18	O	1.653563	0.069265	1.119893
O19	O	1.048569	-0.226074	0.744827
O20	O	1.548569	0.273926	1.244827
O21	O	0.957482	-0.336121	0.404158
O22	O	1.457482	0.163879	0.904158
O23	O	0.843864	-0.331210	0.590074
O24	O	1.343864	0.168790	1.090074
O25	O	0.953858	-0.422103	0.946674
O26	O	1.453858	0.077897	1.446674
O27	O	0.840169	-0.417286	0.743458
O28	O	1.340169	0.082714	1.243458
O29	O	1.043693	-0.339677	0.947265
O30	O	1.543693	0.160323	1.447265
O31	O	1.034997	-0.539522	0.619114
O32	O	1.534997	-0.039522	1.119114
O33	O	0.948911	-0.535800	0.759980
O34	O	1.448911	-0.035800	1.259980
C35	C	0.816579	-0.373160	0.664830
C36	C	1.316579	0.126840	1.164830
C37	C	0.738654	-0.369842	0.658929
C38	C	1.238654	0.130158	1.158929
C39	C	0.700137	-0.413166	0.735900
C40	C	1.200137	0.086834	1.235900
C41	C	0.626919	-0.410039	0.730361
C42	C	1.126919	0.089961	1.230361
C43	C	0.592220	-0.363591	0.647844
C44	C	1.092220	0.136409	1.147844
C45	C	0.630742	-0.320263	0.570870
C46	C	1.130742	0.179737	1.070870
C47	C	0.703959	-0.323386	0.576416
C48	C	1.203959	0.176614	1.076416
C49	C	0.371249	-0.351911	0.627114
C50	C	0.871249	0.148089	1.127114
C51	C	0.298027	-0.348792	0.621571
C52	C	0.798027	0.151208	1.121571
C53	C	0.294209	-0.438568	0.781064
C54	C	0.794209	0.061432	1.281064
C55	C	0.367427	-0.441690	0.786598
C56	C	0.867427	0.058310	1.286598
C57	C	0.405943	-0.398359	0.709629
C58	C	0.905943	0.101641	1.209629
C59	C	0.517379	-0.360396	0.642177
C60	C	1.017379	0.139604	1.142177
C61	C	0.480782	-0.401552	0.715302
C62	C	0.980782	0.098448	1.215302
C63	C	0.990874	-0.563099	0.691336
C64	C	1.490874	-0.063099	1.191336
C65	C	0.987579	-0.641023	0.696790
C66	C	1.487579	-0.141023	1.196790
C67	C	1.030886	-0.679548	0.626077
C68	C	1.530886	-0.179548	1.126077
C69	C	1.027791	-0.752767	0.631214
C70	C	1.527791	-0.252767	1.131214
C71	C	0.981385	-0.787459	0.707057
C72	C	1.481385	-0.287459	1.207057
C73	C	0.938075	-0.748929	0.777778
C74	C	1.438075	-0.248929	1.277778
C75	C	0.941174	-0.675712	0.772647
C76	C	1.441174	-0.175712	1.272647
C77	C	0.969787	-1.008432	0.726222
C78	C	1.469787	-0.508432	1.226222
C79	C	0.966689	-1.081654	0.731345
C80	C	1.466689	-0.581654	1.231345
C81	C	1.056406	-1.085487	0.584781
C82	C	1.556406	-0.585487	1.084781
C83	C	1.059498	-1.012268	0.579651
C84	C	1.559498	-0.512268	1.079651
C85	C	1.016192	-0.973744	0.650377
C86	C	1.516192	-0.473744	1.150377
C87	C	0.978218	-0.862300	0.712307
C88	C	1.478218	-0.362300	1.212307
C89	C	1.019362	-0.898905	0.645133
C90	C	1.519362	-0.398905	1.145133
C91	C	1.181586	-0.388781	0.692611
C92	C	1.681586	0.111219	1.192611
C93	C	1.259509	-0.392116	0.698542
C94	C	1.759509	0.107884	1.198542
C95	C	0.998784	-0.380879	0.991735
C96	C	1.498784	0.119121	1.491735
C97	C	0.998808	-0.380847	1.125134
C98	C	1.498808	0.119153	1.625134
C99	C	1.006629	-0.198100	0.666029
C100	C	1.506629	0.301900	1.166029
C101	C	1.009997	-0.120179	0.660632
C102	C	1.509997	0.379821	1.160632
C103	C	0.998712	-0.380981	0.366869
C104	C	1.498712	0.119019	0.866869
C105	C	0.998832	-0.380822	0.233467
C106	C	1.498832	0.119178	0.733467
H107	H	0.735319	-0.288104	0.513744
H108	H	1.235319	0.211896	1.013744
H109	H	0.509038	-0.439366	0.782492
H110	H	1.009038	0.060634	1.282492
H111	H	1.091665	-1.116860	0.527202
H112	H	1.591665	-0.616860	1.027202
H113	H	0.940433	-0.890555	0.774057
H114	H	1.440433	-0.390555	1.274057
H115	H	1.057149	-0.870656	0.583385
H116	H	1.557149	-0.370656	1.083385
H117	H	0.728384	-0.450991	0.803090
H118	H	1.228384	0.049009	1.303090
H119	H	0.900293	-0.777182	0.839537
H120	H	1.400293	-0.277182	1.339537
H121	H	0.905910	-0.644346	0.830231
H122	H	1.405910	-0.144346	1.330231
H123	H	0.934523	-0.977071	0.783807
H124	H	1.434523	-0.477071	1.283807
H125	H	0.489119	-0.322579	0.574989
H126	H	0.989119	0.177421	1.074989
H127	H	1.068672	-0.651307	0.564311
H128	H	1.568672	-0.151307	1.064311
H129	H	1.063056	-0.784131	0.573631
H130	H	1.563056	-0.284131	1.073631
H131	H	1.097286	-0.984023	0.517893
H132	H	1.597286	-0.484023	1.017893
H133	H	0.928908	-1.109899	0.793127
H134	H	1.428908	-0.609899	1.293127
H135	H	0.595562	-0.445318	0.793037
H136	H	1.095562	0.054682	1.293037
H137	H	0.262841	-0.473844	0.843730
H138	H	0.762841	0.026156	1.343730
H139	H	0.269777	-0.310961	0.554383
H140	H	0.769777	0.189039	1.054383
H141	H	0.402599	-0.316633	0.564431
H142	H	0.902599	0.183367	1.064431
H143	H	0.602484	-0.282441	0.503688
H144	H	1.102484	0.217559	1.003688
H145	H	0.395674	-0.479514	0.853790
H146	H	0.895674	0.020486	1.353790
