data_functionalizedCrystal
_audit_creation_method	'MofGen! by Chris Wilmer'
_symmetry_space_group_name_H-M	'P1'
_symmetry_Int_Tables_number	1
_symmetry_cell_setting	triclinic
loop_
_symmetry_equiv_pos_as_xyz
  x,y,z
_cell_length_a	14.044220
_cell_length_b	8.965430
_cell_length_c	14.044220
_cell_angle_alpha	89.997796
_cell_angle_beta	86.811122
_cell_angle_gamma	89.992417
loop_
_atom_site_label
_atom_site_type_symbol
_atom_site_fract_x
_atom_site_fract_y
_atom_site_fract_z
O1	O	1.277158	0.123887	-0.230162
O2	O	1.000486	0.123924	-0.221856
O3	O	1.134669	0.123891	-0.087674
O4	O	1.142975	0.123920	-0.364345
O5	O	1.134676	-0.124188	-0.087679
O6	O	1.000494	-0.124155	-0.221862
O7	O	1.277165	-0.124192	-0.230167
Cu8	Cu	1.138830	-0.146825	-0.226015
Cu9	Cu	1.138821	0.146557	-0.226009
O10	O	1.142982	-0.124159	-0.364350
C11	C	0.964868	-0.000111	-0.218223
C12	C	0.858725	-0.000097	-0.207379
N13	N	1.138843	-0.353174	-0.226019
C14	C	0.664388	-0.000128	-0.187553
C15	C	0.613258	-0.000127	-0.264467
C16	C	0.505122	-0.000144	-0.253435
C17	C	0.772534	-0.000111	-0.198583
C18	C	1.200920	-0.450455	-0.163970
C19	C	1.113081	-0.549850	-0.138133
C20	C	1.226643	-0.549907	-0.251792
C21	C	1.050957	-0.450380	-0.200135
C22	C	1.164579	-0.450428	-0.313837
C23	C	1.076681	-0.549778	-0.288031
C24	C	1.312783	-0.000154	-0.233800
C25	C	1.418926	-0.000158	-0.244645
C26	C	1.131037	-0.000148	-0.052054
C27	C	1.120193	-0.000149	0.054088
N28	N	1.138815	0.352906	-0.225998
C29	C	1.146614	-0.000116	-0.399969
C30	C	1.157459	-0.000106	-0.506112
C31	C	1.100366	-0.000125	0.248426
C32	C	1.177281	-0.000130	0.299556
C33	C	1.166249	-0.000117	0.407692
C34	C	1.111397	-0.000138	0.140280
H35	H	0.626951	-0.000144	-0.113425
H36	H	1.251414	-0.000040	0.262117
N37	N	1.007055	-0.607211	-0.357520
H38	H	1.025907	-0.569442	-0.423655
H39	H	0.940803	-0.570799	-0.337842
H40	H	1.253360	-0.406843	-0.111464
H41	H	1.186389	-0.406723	-0.388092
N42	N	1.325007	-0.607828	-0.280684
H43	H	1.371850	-0.571699	-0.233772
H44	H	1.344858	-0.570099	-0.346584
N45	N	1.002171	-0.000131	0.298005
H46	H	0.966295	0.091828	0.278947
H47	H	1.008189	-0.000187	0.369331
H48	H	0.650697	-0.000112	-0.338600
H49	H	1.091296	-0.593523	-0.063857
H50	H	0.976670	-0.406847	-0.178243
