data_functionalizedCrystal
_audit_creation_method	'MofGen! by Chris Wilmer'
_symmetry_space_group_name_H-M	'P1'
_symmetry_Int_Tables_number	1
_symmetry_cell_setting	triclinic
loop_
_symmetry_equiv_pos_as_xyz
  x,y,z
_cell_length_a	14.044191
_cell_length_b	13.101039
_cell_length_c	14.044202
_cell_angle_alpha	93.660779
_cell_angle_beta	86.807761
_cell_angle_gamma	93.662449
loop_
_atom_site_label
_atom_site_type_symbol
_atom_site_fract_x
_atom_site_fract_y
_atom_site_fract_z
O1	O	1.281986	0.085198	-0.225376
O2	O	1.005314	0.085210	-0.217063
O3	O	1.139491	0.085176	-0.082885
O4	O	1.147809	0.085232	-0.359554
O5	O	1.129865	-0.085251	-0.092530
O6	O	0.995688	-0.085218	-0.226708
O7	O	1.272360	-0.085229	-0.235021
Zn8	Zn	1.132496	-0.112282	-0.232396
Zn9	Zn	1.145178	0.112263	-0.219688
O10	O	1.138183	-0.085196	-0.369199
C11	C	0.964879	-0.000003	-0.218249
C12	C	0.858735	0.000000	-0.207401
C13	C	0.613279	0.000002	-0.264502
C14	C	0.664401	-0.000012	-0.187586
C15	C	0.772539	-0.000005	-0.198614
C16	C	0.505131	-0.000005	-0.253475
N17	N	1.123847	-0.265529	-0.241068
C18	C	1.112082	-0.474568	-0.252875
C19	C	1.165596	-0.525457	-0.199205
C20	C	1.159049	-0.641774	-0.205774
C21	C	1.118627	-0.358241	-0.246307
C22	C	1.312795	-0.000014	-0.233835
C23	C	1.418939	-0.000011	-0.244682
C24	C	1.131041	-0.000042	-0.052086
C25	C	1.120192	-0.000057	0.054057
N26	N	1.153833	0.265509	-0.211009
C27	C	1.177292	-0.000033	0.299515
C28	C	1.100375	-0.000033	0.248392
C29	C	1.111404	-0.000046	0.140254
C30	C	1.166265	-0.000020	0.407663
C31	C	1.146630	0.000011	0.600001
C32	C	1.157471	-0.000009	0.493856
H33	H	0.626958	0.000045	-0.113450
N34	N	1.007366	-0.000042	0.295343
N35	N	0.935044	-0.000053	0.247337
H36	H	0.869358	-0.000063	0.280498
N37	N	1.229233	-0.470517	-0.135373
N38	N	1.234531	-0.374736	-0.130058
H39	H	1.279474	-0.335929	-0.084981
H40	H	1.251418	-0.000044	0.262072
N41	N	1.048459	-0.529490	-0.316723
N42	N	1.058044	-0.517592	-0.404412
H43	H	1.013113	-0.556390	-0.449507
H44	H	0.650724	0.000020	-0.338628
