data_functionalizedCrystal
_audit_creation_method	'MofGen! by Chris Wilmer'
_symmetry_space_group_name_H-M	'P1'
_symmetry_Int_Tables_number	1
_symmetry_cell_setting	triclinic
loop_
_symmetry_equiv_pos_as_xyz
  x,y,z
_cell_length_a	13.635800
_cell_length_b	27.692587
_cell_length_c	12.908943
_cell_angle_alpha	97.564613
_cell_angle_beta	100.860631
_cell_angle_gamma	95.111560
loop_
_atom_site_label
_atom_site_type_symbol
_atom_site_fract_x
_atom_site_fract_y
_atom_site_fract_z
V1	V	1.977933	0.066519	0.329347
O2	O	1.993313	-0.003820	0.322387
O3	O	1.933786	0.132495	0.327759
O4	O	1.947464	0.065222	0.472684
O5	O	1.979540	0.063919	0.176459
V6	V	2.223144	0.058138	0.310980
O7	O	2.100995	0.084903	0.369638
O8	O	2.325180	0.039754	0.270690
O9	O	2.155687	-0.007838	0.312568
O10	O	2.266462	0.128477	0.317940
O11	O	2.280235	0.060738	0.463868
O12	O	2.142009	0.059435	0.167643
V13	V	2.477933	0.066519	0.329347
O14	O	2.493313	-0.003820	0.322387
O15	O	2.433786	0.132495	0.327759
O16	O	2.447464	0.065222	0.472684
O17	O	2.479540	0.063919	0.176459
V18	V	2.723144	0.058138	0.310980
O19	O	2.600995	0.084903	0.369638
O20	O	2.825180	0.039754	0.270690
O21	O	2.655687	-0.007838	0.312568
O22	O	2.766462	0.128477	0.317940
O23	O	2.780235	0.060738	0.463868
O24	O	2.642009	0.059435	0.167643
C25	C	2.069507	-0.023928	0.317589
C26	C	2.054620	-0.077862	0.317939
C27	C	2.049669	-0.414783	0.314701
C28	C	1.993756	-0.617494	0.315962
O29	O	2.060749	-0.645802	0.311584
N30	N	1.899475	-0.640379	0.321408
C31	C	1.819165	-0.612583	0.326533
O32	O	1.737688	-0.636701	0.331184
C33	C	1.875077	-0.409874	0.325265
C34	C	1.969365	-0.386991	0.319829
C35	C	2.143950	-0.391900	0.309264
C36	C	2.157928	-0.341225	0.308955
C37	C	2.077624	-0.313433	0.314083
C38	C	1.983343	-0.336316	0.319520
C39	C	1.794766	-0.382080	0.330382
C40	C	1.808752	-0.331400	0.330062
C41	C	1.903040	-0.308517	0.324626
C42	C	1.917018	-0.257849	0.324338
N43	N	2.011299	-0.234964	0.318892
C44	C	2.091602	-0.262756	0.313764
C45	C	1.789817	-0.719009	0.327201
C46	C	1.775839	-0.769686	0.327520
C47	C	1.950431	-0.774593	0.316946
C48	C	1.964410	-0.723915	0.316635
C49	C	1.884098	-0.696124	0.321754
C50	C	2.120950	-0.156334	0.313116
C51	C	2.134923	-0.105654	0.312811
C52	C	1.960329	-0.100752	0.323379
C53	C	1.946359	-0.151427	0.323689
C54	C	2.026677	-0.179218	0.318553
O55	O	1.850069	-0.229512	0.328701
O56	O	2.173065	-0.238631	0.309090
C57	C	2.035691	-0.465458	0.315010
C58	C	1.941409	-0.488341	0.320447
C59	C	1.861106	-0.460549	0.325575
C60	C	1.927432	-0.539018	0.320766
C61	C	2.007735	-0.566810	0.315639
C62	C	2.102016	-0.543926	0.310192
C63	C	2.115994	-0.493250	0.309883
C64	C	1.766825	-0.483434	0.331022
C65	C	1.752855	-0.534110	0.331332
C66	C	1.833158	-0.561902	0.326204
C67	C	1.851636	0.148587	0.322735
C68	C	1.856143	0.202522	0.322392
C69	C	1.869085	0.062773	0.507599
C70	C	1.884683	0.062150	0.624782
C71	C	2.052059	0.061885	0.132722
C72	C	2.026081	0.062506	0.015538
C73	C	2.351636	0.148587	0.322735
C74	C	2.356143	0.202522	0.322392
C75	C	2.094164	0.065793	0.855765
C76	C	2.108825	0.065207	0.965869
C77	C	1.928667	0.060389	0.955095
C78	C	1.914006	0.060975	0.844991
C79	C	1.996759	0.063677	0.795330
C80	C	1.982097	0.064267	0.685226
C81	C	1.801939	0.059446	0.674452
C82	C	1.816600	0.058860	0.784556
C83	C	2.448333	0.230314	0.327523
C84	C	2.452583	0.280993	0.327216
C85	C	2.364641	0.303878	0.321772
C86	C	2.272444	0.276082	0.316644
C87	C	2.268196	0.225405	0.316958
C88	C	2.369085	0.062773	0.507599
C89	C	2.384683	0.062150	0.624782
C90	C	2.569507	-0.023928	0.317589
C91	C	2.554620	-0.077862	0.317939
C92	C	2.552059	0.061885	0.132722
C93	C	2.526081	0.062506	0.015538
C94	C	2.594164	0.065793	0.855765
C95	C	2.608825	0.065207	0.965869
C96	C	2.428667	0.060389	0.955095
C97	C	2.414006	0.060975	0.844991
C98	C	2.496759	0.063677	0.795330
C99	C	2.482097	0.064267	0.685226
C100	C	2.301939	0.059446	0.674452
C101	C	2.316600	0.058860	0.784556
C102	C	2.634923	-0.105654	0.312811
C103	C	2.620944	-0.156333	0.313123
C104	C	2.526663	-0.179218	0.318569
C105	C	2.446353	-0.151422	0.323694
C106	C	2.460331	-0.100745	0.323375
H107	H	2.186354	-0.178956	0.308928
H108	H	2.200845	0.294723	0.312212
N109	N	2.168757	0.195431	0.311424
H110	H	2.113697	0.217622	0.307926
H111	H	2.153824	0.169710	0.245622
H112	H	2.249229	0.056658	0.825004
N113	N	2.713889	0.067491	1.031044
H114	H	2.728029	0.097551	1.087509
H115	H	2.719881	0.037138	1.066354
H116	H	2.519949	0.211688	0.331949
N117	N	1.839414	0.057456	1.008652
H118	H	1.801499	0.086695	0.997686
H119	H	1.793539	0.026287	0.976543
H120	H	2.222623	0.057725	0.625235
H121	H	2.549480	0.066469	0.644795
N122	N	2.707576	-0.186302	0.307614
H123	H	2.721516	-0.202847	0.373210
H124	H	2.689770	-0.212002	0.241772
H125	H	2.361298	0.058186	0.995547
N126	N	2.552027	0.310967	0.332745
H127	H	2.607085	0.288775	0.336230
H128	H	2.548469	0.327512	0.267146
H129	H	2.711699	-0.087028	0.308377
N130	N	2.066116	-0.699162	0.311023
H131	H	2.060078	-0.682782	0.245037
H132	H	2.091382	-0.673711	0.376499
N133	N	2.259623	-0.316548	0.303086
H134	H	2.308363	-0.341850	0.299882
H135	H	2.253370	-0.300219	0.237023
H136	H	2.167401	-0.566562	0.306022
H137	H	2.515295	-0.220482	0.318828
H138	H	2.661546	0.067998	0.815333
H139	H	2.369590	-0.170063	0.328128
H140	H	2.209348	-0.414524	0.305084
H141	H	2.394937	-0.078120	0.327560
H142	H	1.722623	0.057725	0.625235
N143	N	2.037043	-0.804575	0.311418
H144	H	2.061781	-0.801421	0.243353
H145	H	2.093435	-0.792225	0.374796
N146	N	2.236624	-0.080973	0.306953
H147	H	2.285371	-0.106272	0.303749
H148	H	2.230374	-0.064641	0.240895
N149	N	1.651151	-0.558782	0.337206
H150	H	1.599571	-0.553473	0.273763
H151	H	1.654556	-0.595095	0.336660
N152	N	2.369221	0.358537	0.321425
H153	H	2.414850	0.376298	0.389120
H154	H	2.396338	0.367072	0.257680
N155	N	1.674150	-0.794362	0.333409
H156	H	1.625406	-0.769062	0.336608
H157	H	1.648683	-0.819872	0.268073
N158	N	1.693072	-0.406752	0.336254
H159	H	1.644332	-0.381449	0.339449
H160	H	1.667606	-0.432260	0.270916
N161	N	1.722126	-0.301426	0.335578
H162	H	1.660280	-0.323616	0.339069
H163	H	1.739972	-0.275704	0.401378
N164	N	1.844669	-0.176110	0.329569
H165	H	1.795920	-0.150812	0.332774
H166	H	1.819208	-0.201615	0.264224
N167	N	1.703184	-0.689042	0.332737
H168	H	1.720946	-0.663318	0.398540
H169	H	1.689257	-0.672528	0.267099
H170	H	1.894952	-0.078114	0.327559
N171	N	2.217690	-0.468573	0.304020
H172	H	2.266431	-0.493875	0.300819
H173	H	2.211443	-0.452243	0.237959
N174	N	2.213887	0.067485	1.031045
H175	H	2.254758	0.098835	1.024779
H176	H	2.210539	0.066683	1.108302
H177	H	1.701427	-0.460811	0.335189
H178	H	2.161546	0.067998	0.815333
N179	N	2.071345	0.067183	0.631659
H180	H	2.135276	0.068433	0.686655
H181	H	2.065145	0.037335	0.575668
H182	H	1.749229	0.056658	0.825004
