data_functionalizedCrystal
_audit_creation_method	'MofGen! by Chris Wilmer'
_symmetry_space_group_name_H-M	'P1'
_symmetry_Int_Tables_number	1
_symmetry_cell_setting	triclinic
loop_
_symmetry_equiv_pos_as_xyz
  x,y,z
_cell_length_a	11.792241
_cell_length_b	10.489741
_cell_length_c	10.868271
_cell_angle_alpha	89.995151
_cell_angle_beta	89.999893
_cell_angle_gamma	84.366295
loop_
_atom_site_label
_atom_site_type_symbol
_atom_site_fract_x
_atom_site_fract_y
_atom_site_fract_z
O1	O	1.507380	0.174832	-0.102202
O2	O	2.007380	0.674832	0.397798
O3	O	1.177088	0.192851	-0.102231
O4	O	1.677088	0.692851	0.397769
O5	O	1.349749	-0.001782	-0.102208
O6	O	1.849749	0.498218	0.397792
O7	O	1.334718	0.369465	-0.102224
O8	O	1.834718	0.869465	0.397776
O9	O	1.349735	-0.001790	0.102436
O10	O	1.849735	0.498210	0.602436
O11	O	1.177073	0.192843	0.102414
O12	O	1.677073	0.692843	0.602414
O13	O	1.507366	0.174825	0.102443
O14	O	2.007366	0.674825	0.602443
Zn15	Zn	1.342217	0.183833	0.134920
Zn16	Zn	1.842217	0.683833	0.634920
Zn17	Zn	1.342236	0.183843	-0.134708
Zn18	Zn	1.842236	0.683843	0.365292
O19	O	1.334704	0.369457	0.102420
O20	O	1.834704	0.869457	0.602420
C21	C	1.134786	0.191715	0.000088
C22	C	1.634786	0.691715	0.500088
C23	C	1.008764	0.188327	0.000077
C24	C	1.508764	0.688327	0.500077
C25	C	0.778035	0.182098	0.000113
C26	C	1.278035	0.682098	0.500113
C27	C	0.906429	0.185559	0.000093
C28	C	1.406429	0.685559	0.500093
C29	C	1.348607	-0.049314	0.000113
C30	C	1.848607	0.450686	0.500113
C31	C	1.345210	-0.190931	0.000111
C32	C	1.845210	0.309069	0.500111
C33	C	1.235351	-0.258697	0.000092
C34	C	1.735351	0.241303	0.500092
C35	C	1.287240	-0.351000	0.100997
C36	C	1.787240	0.149000	0.600997
C37	C	1.287281	-0.350967	-0.100767
C38	C	1.787281	0.149033	0.399233
C39	C	1.397145	-0.281369	0.101099
C40	C	1.897145	0.218631	0.601099
C41	C	1.397170	-0.281327	-0.100755
C42	C	1.897170	0.218673	0.399245
C43	C	1.449140	-0.373603	0.000174
C44	C	1.949140	0.126397	0.500174
C45	C	1.549667	0.175960	0.000121
C46	C	2.049667	0.675960	0.500121
C47	C	1.675690	0.179348	0.000124
C48	C	2.175690	0.679348	0.500124
C49	C	1.335846	0.416989	0.000096
C50	C	1.835846	0.916989	0.500096
C51	C	1.339243	0.558607	0.000091
C52	C	1.839243	1.058607	0.500091
N53	N	1.342213	0.183825	0.318934
N54	N	1.842213	0.683825	0.818934
N55	N	1.342250	0.183840	-0.318722
N56	N	1.842250	0.683840	0.181278
C57	C	1.342230	0.183840	0.569940
C58	C	1.842230	0.683840	1.069940
C59	C	1.342217	0.183835	0.430263
C60	C	1.842217	0.683835	0.930263
H61	H	1.240750	-0.381857	0.186297
H62	H	1.740750	0.118143	0.686297
C63	C	1.462398	-0.106808	0.215389
C64	C	1.962398	0.393192	0.715389
C65	C	1.459829	-0.239976	0.216397
C66	C	1.959829	0.260024	0.716397
H67	H	1.501087	-0.081254	0.286574
H68	H	2.001087	0.418746	0.786574
H69	H	1.501170	-0.082413	0.143840
H70	H	2.001170	0.417587	0.643840
H71	H	1.386674	-0.066446	0.215091
H72	H	1.886674	0.433554	0.715091
H73	H	1.535553	-0.280339	0.216686
H74	H	2.035553	0.219661	0.716686
H75	H	1.421059	-0.264385	0.287966
H76	H	1.921059	0.235615	0.787966
C77	C	1.587981	-0.516531	-0.105473
C78	C	2.087981	-0.016531	0.394527
C79	C	1.571197	-0.440708	0.000225
C80	C	2.071197	0.059292	0.500225
H81	H	1.663340	-0.557940	-0.105446
H82	H	2.163340	-0.057940	0.394554
H83	H	1.534977	-0.579107	-0.106171
H84	H	2.034977	-0.079107	0.393829
H85	H	1.577027	-0.463959	-0.176486
H86	H	2.077027	0.036041	0.323514
H87	H	1.582143	-0.493281	0.071239
H88	H	2.082143	0.006719	0.571239
H89	H	1.624217	-0.378124	0.000935
H90	H	2.124217	0.121876	0.500935
H91	H	1.443621	-0.250437	-0.186060
H92	H	1.943621	0.249563	0.313940
H93	H	1.240789	-0.381770	-0.186082
H94	H	1.740789	0.118230	0.313918
H95	H	1.145025	-0.208738	0.000186
H96	H	1.645025	0.291262	0.500186
