data_functionalizedCrystal
_audit_creation_method	'MofGen! by Chris Wilmer'
_symmetry_space_group_name_H-M	'P1'
_symmetry_Int_Tables_number	1
_symmetry_cell_setting	triclinic
loop_
_symmetry_equiv_pos_as_xyz
  x,y,z
_cell_length_a	18.215407
_cell_length_b	18.215405
_cell_length_c	18.215399
_cell_angle_alpha	89.971534
_cell_angle_beta	90.019833
_cell_angle_gamma	89.970909
loop_
_atom_site_label
_atom_site_type_symbol
_atom_site_fract_x
_atom_site_fract_y
_atom_site_fract_z
Zn1	Zn	1.125053	0.292983	0.416113
Zn2	Zn	1.625053	0.792983	0.916113
Zn3	Zn	1.124953	0.416054	0.293046
Zn4	Zn	1.624953	0.916054	0.793046
Zn5	Zn	1.001985	0.293007	0.293061
Zn6	Zn	1.501985	0.793007	0.793061
Zn7	Zn	1.001943	0.416013	0.416071
Zn8	Zn	1.501943	0.916013	0.916071
O9	O	1.063484	0.354514	0.354573
O10	O	1.563484	0.854514	0.854573
O11	O	1.228024	0.309316	0.399800
O12	O	1.728024	0.809316	0.899800
O13	O	1.108617	0.399759	0.190063
O14	O	1.608617	0.899759	0.690063
O15	O	1.018370	0.190020	0.309408
O16	O	1.518370	0.690020	0.809408
O17	O	1.227951	0.399736	0.309383
O18	O	1.727951	0.899736	0.809383
O19	O	1.108787	0.190002	0.399814
O20	O	1.608787	0.690002	0.899814
O21	O	1.018273	0.309357	0.190074
O22	O	1.518273	0.809357	0.690074
O23	O	0.898995	0.309317	0.309367
O24	O	1.398995	0.809317	0.809367
O25	O	1.018298	0.399666	0.519061
O26	O	1.518298	0.899666	1.019061
O27	O	0.898964	0.399689	0.399742
O28	O	1.398964	0.899689	0.899742
O29	O	1.108746	0.309276	0.519092
O30	O	1.608746	0.809276	1.019092
O31	O	1.108576	0.519033	0.309341
O32	O	1.608576	1.019033	0.809341
O33	O	1.018201	0.519003	0.399727
O34	O	1.518201	1.019003	0.899727
C35	C	0.872277	0.354502	0.354551
C36	C	1.372277	0.854502	0.854551
C37	C	0.790478	0.354514	0.354560
C38	C	1.290478	0.854514	0.854560
C39	C	0.602288	0.401645	0.401559
C40	C	1.102288	0.901645	0.901559
C41	C	0.525429	0.401647	0.401568
C42	C	1.025429	0.901647	0.901568
C43	C	0.525432	0.307397	0.307602
C44	C	1.025432	0.807397	0.807602
C45	C	0.602289	0.307392	0.307597
C46	C	1.102289	0.807392	0.807597
C47	C	0.640715	0.354520	0.354575
C48	C	1.140715	0.854520	0.854575
C49	C	0.486999	0.354528	0.354589
C50	C	0.986999	0.854528	0.854589
C51	C	0.403665	0.354530	0.354598
C52	C	0.903665	0.854530	0.854598
C53	C	0.724054	0.354517	0.354566
C54	C	1.224054	0.854517	0.854566
C55	C	1.063393	0.545721	0.354544
C56	C	1.563393	1.045721	0.854544
C57	C	1.063422	0.627520	0.354557
C58	C	1.563422	1.127520	0.854557
C59	C	1.110505	0.815643	0.401692
C60	C	1.610505	1.315643	0.901692
C61	C	1.110524	0.892502	0.401704
C62	C	1.610524	1.392502	0.901704
C63	C	1.016450	0.892634	0.307483
C64	C	1.516450	1.392634	0.807483
C65	C	1.016428	0.815776	0.307475
C66	C	1.516428	1.315776	0.807475
C67	C	1.063460	0.777283	0.354578
C68	C	1.563460	1.277283	0.854578
C69	C	1.063500	0.930999	0.354599
C70	C	1.563500	1.430999	0.854599
C71	C	1.063520	1.014333	0.354612
C72	C	1.563520	1.514333	0.854612
C73	C	1.063439	0.693944	0.354566
C74	C	1.563439	1.193944	0.854566
C75	C	1.255436	0.354528	0.354594
C76	C	1.755436	0.854528	0.854594
C77	C	1.337235	0.354533	0.354603
C78	C	1.837235	0.854533	0.854603
C79	C	1.063528	0.354464	0.546526
C80	C	1.563528	0.854464	1.046526
C81	C	1.063547	0.354442	0.628325
C82	C	1.563547	0.854442	1.128325
C83	C	1.063568	1.162561	0.354613
C84	C	1.563568	1.662561	0.854613
C85	C	1.063538	1.080763	0.354620
C86	C	1.563538	1.580763	0.854620
C87	C	1.063481	0.354512	0.163366
C88	C	1.563481	0.854512	0.663366
C89	C	1.063605	0.354326	0.081568
C90	C	1.563605	0.854326	0.581568
C91	C	1.110661	0.307332	0.816536
C92	C	1.610661	0.807332	1.316536
C93	C	1.110670	0.307311	0.893395
C94	C	1.610670	0.807311	1.393395
C95	C	1.016486	0.401438	0.893351
C96	C	1.516486	0.901438	1.393351
C97	C	1.016474	0.401455	0.816494
C98	C	1.516474	0.901455	1.316494
C99	C	1.063566	0.354403	0.778088
C100	C	1.563566	0.854403	1.278088
C101	C	1.063586	0.354365	0.931804
C102	C	1.563586	0.854365	1.431804
C103	C	1.063596	0.354342	1.015138
C104	C	1.563596	0.854342	1.515138
C105	C	1.063556	0.354425	0.694749
C106	C	1.563556	0.854425	1.194749
H107	H	0.633572	0.440018	0.439813
H108	H	1.133572	0.940018	0.939813
H109	H	0.978114	0.784541	0.269109
H110	H	1.478114	1.284541	0.769109
C111	C	0.964672	0.453241	0.774198
C112	C	1.464672	0.953241	1.274198
H113	H	0.936636	0.481270	0.808077
H114	H	1.436636	0.981270	1.308077
H115	H	0.932618	0.425098	0.744215
H116	H	1.432618	0.925098	1.244215
H117	H	0.992811	0.485315	0.744215
H118	H	1.492811	0.985315	1.244215
C119	C	1.162481	0.255542	0.935688
C120	C	1.662481	0.755542	1.435688
H121	H	1.155742	0.262265	0.986962
H122	H	1.655742	0.762265	1.486962
H123	H	1.211917	0.266323	0.923097
H124	H	1.711917	0.766323	1.423097
H125	H	1.151738	0.206093	0.923104
H126	H	1.651738	0.706093	1.423104
H127	H	1.149004	0.269017	0.785268
H128	H	1.649004	0.769017	1.285268
C129	C	0.964697	0.453198	0.935599
C130	C	1.464697	0.953198	1.435599
H131	H	0.971454	0.446452	0.986880
H132	H	1.471454	0.946452	1.486880
H133	H	0.915253	0.442431	0.922999
H134	H	1.415253	0.942431	1.422999
H135	H	0.975445	0.502649	0.922990
H136	H	1.475445	1.002649	1.422990
C137	C	1.162231	0.773300	0.453506
C138	C	1.662231	1.273300	0.953506
H139	H	1.155487	0.722032	0.446750
H140	H	1.655487	1.222032	0.946750
H141	H	1.151434	0.785874	0.502944
H142	H	1.651434	1.285874	1.002944
H143	H	1.211691	0.785864	0.442781
H144	H	1.711691	1.285864	0.942781
H145	H	0.978159	0.923984	0.269132
H146	H	1.478159	1.423984	0.769132
H147	H	0.494145	0.440020	0.439829
H148	H	0.994145	0.940020	0.939829
H149	H	0.494136	0.269028	0.269354
H150	H	0.994136	0.769028	0.769354
H151	H	0.633577	0.269012	0.269337
H152	H	1.133577	0.769012	0.769337
H153	H	1.148831	0.923732	0.440071
H154	H	1.648831	1.423732	0.940071
