data_functionalizedCrystal
_audit_creation_method	'MofGen! by Chris Wilmer'
_symmetry_space_group_name_H-M	'P1'
_symmetry_Int_Tables_number	1
_symmetry_cell_setting	triclinic
loop_
_symmetry_equiv_pos_as_xyz
  x,y,z
_cell_length_a	23.532407
_cell_length_b	23.532407
_cell_length_c	13.101018
_cell_angle_alpha	93.329207
_cell_angle_beta	86.664201
_cell_angle_gamma	82.848713
loop_
_atom_site_label
_atom_site_type_symbol
_atom_site_fract_x
_atom_site_fract_y
_atom_site_fract_z
O1	O	0.758410	0.065980	-0.085104
O2	O	0.592548	0.075982	-0.085137
O3	O	0.680479	-0.011949	-0.085091
O4	O	0.670478	0.153912	-0.085150
O5	O	0.674163	-0.005635	0.085336
O6	O	0.586231	0.082297	0.085290
O7	O	0.752094	0.072295	0.085323
Zn8	Zn	0.668160	0.078298	0.112365
Zn9	Zn	0.676482	0.069979	-0.112180
O10	O	0.664162	0.160226	0.085277
C11	C	0.677066	-0.030008	0.000128
C12	C	0.676300	-0.093224	0.000143
C13	C	0.568174	0.078885	0.000073
C14	C	0.504957	0.078118	0.000062
C15	C	0.621107	-0.359395	0.000068
C16	C	0.621818	-0.299994	0.000076
O17	O	0.578034	-0.263251	0.000035
N18	N	0.674094	-0.277367	0.000098
C19	C	0.725662	-0.314144	0.000102
O20	O	0.770192	-0.289444	0.000121
C21	C	0.724950	-0.373544	0.000087
C22	C	0.672671	-0.396167	0.000075
C23	C	0.568832	-0.382018	0.000055
C24	C	0.568121	-0.441415	0.000049
C25	C	0.619685	-0.478187	0.000056
C26	C	0.671960	-0.455564	0.000069
C27	C	0.776518	-0.410321	0.000083
C28	C	0.775802	-0.469724	0.000067
C29	C	0.723523	-0.492347	0.000055
C30	C	0.722813	-0.551733	0.000070
N31	N	0.670538	-0.574360	0.000048
C32	C	0.618974	-0.537587	0.000041
C33	C	0.727152	-0.189401	0.000133
C34	C	0.727864	-0.130002	0.000155
C35	C	0.624020	-0.115856	0.000128
C36	C	0.623309	-0.175255	0.000112
C37	C	0.674877	-0.212028	0.000110
C38	C	0.617484	-0.662324	0.000029
C39	C	0.616778	-0.721726	0.000027
C40	C	0.720622	-0.735868	0.000049
C41	C	0.721328	-0.676470	0.000057
C42	C	0.669755	-0.639700	0.000043
O43	O	0.766575	-0.588510	0.000106
O44	O	0.574452	-0.562296	0.000009
C45	C	0.105853	0.125353	0.000091
C46	C	0.046452	0.124642	0.000098
O47	O	0.009707	0.168428	0.000119
N48	N	0.023826	0.072366	0.000115
C49	C	0.060602	0.020799	0.000136
O50	O	0.035902	-0.023731	0.000152
C51	C	0.120001	0.021511	0.000136
C52	C	0.142625	0.073789	0.000109
C53	C	0.128477	0.177627	0.000065
C54	C	0.187874	0.178338	0.000056
C55	C	0.224646	0.126775	0.000074
C56	C	0.202022	0.074500	0.000101
C57	C	0.156777	-0.030056	0.000165
C58	C	0.216179	-0.029339	0.000166
C59	C	0.238803	0.022939	0.000139
C60	C	0.298190	0.023648	0.000110
N61	N	0.320817	0.075923	0.000093
C62	C	0.284045	0.127487	0.000075
C63	C	-0.064140	0.019307	0.000136
C64	C	-0.123538	0.018594	0.000128
C65	C	-0.137684	0.122438	0.000092
C66	C	-0.078285	0.123150	0.000092
C67	C	-0.041513	0.071583	0.000119
C68	C	0.408782	0.128976	0.000057
C69	C	0.468185	0.129682	0.000044
C70	C	0.482325	0.025839	0.000085
C71	C	0.422928	0.025132	0.000093
C72	C	0.386157	0.076705	0.000082
O73	O	0.334970	-0.020116	0.000093
O74	O	0.308753	0.172010	0.000073
C75	C	0.776468	0.069392	0.000111
C76	C	0.839685	0.070158	0.000115
C77	C	0.667575	0.178285	0.000056
C78	C	0.668342	0.241501	0.000034
N79	N	0.662484	0.083976	0.265611
N80	N	0.682161	0.064297	-0.265426
C81	C	0.689880	0.056570	0.525535
C82	C	0.654768	0.091701	0.474644
C83	C	0.659062	0.087402	0.358327
C84	C	0.685586	0.060868	0.641862
H85	H	0.574204	-0.740142	0.000022
N86	N	-0.147939	-0.037790	0.000145
H87	H	-0.132171	-0.062706	-0.063024
H88	H	-0.136838	-0.057976	0.063372
N89	N	0.733976	0.012456	0.467559
H90	H	0.726947	-0.027248	0.486179
H91	H	0.730817	0.015646	0.391500
H92	H	0.621482	0.125007	0.518432
N93	N	0.561861	-0.622670	0.000013
H94	H	0.528641	-0.646023	0.000005
H95	H	0.557550	-0.595385	0.063196
H96	H	0.138368	-0.072627	0.000188
N97	N	0.369122	0.184595	0.000036
H98	H	0.341826	0.188958	0.063216
H99	H	0.392510	0.217785	-0.000022
N100	N	0.255839	-0.084959	0.000201
H101	H	0.232490	-0.118181	0.000220
H102	H	0.283130	-0.089272	-0.062979
H103	H	0.769147	-0.219338	0.000138
N104	N	0.398517	-0.031249	0.000112
H105	H	0.414278	-0.056167	-0.063058
H106	H	0.409617	-0.051436	0.063338
N107	N	0.521992	-0.029774	0.000105
H108	H	0.563053	-0.021386	0.000102
H109	H	0.512362	-0.050226	0.063299
H110	H	0.817796	-0.499662	0.000060
N111	N	0.777714	-0.652068	0.000092
H112	H	0.777979	-0.625408	0.063275
H113	H	0.810236	-0.684414	0.000066
H114	H	0.580738	-0.193670	0.000107
H115	H	0.525550	-0.459829	0.000031
N116	N	-0.053892	0.179539	0.000073
H117	H	-0.031903	0.184493	0.063251
H118	H	-0.027251	0.179776	-0.063146
N119	N	0.513212	-0.342362	0.000046
H120	H	0.479994	-0.365716	0.000035
H121	H	0.508901	-0.315080	0.063233
N122	N	0.832909	-0.385937	0.000092
H123	H	0.857818	-0.401705	-0.063088
H124	H	0.825501	-0.342729	0.000137
N125	N	0.568404	-0.076187	0.000102
H126	H	0.535176	-0.099528	0.000087
H127	H	0.564096	-0.048901	0.063283
N128	N	0.784249	-0.105604	0.000190
H129	H	0.816804	-0.137917	0.000195
H130	H	0.789153	-0.083599	-0.062985
H131	H	0.762603	-0.765818	0.000060
H132	H	0.486601	0.172255	0.000021
H133	H	0.206288	0.220909	0.000034
N134	N	0.088819	0.233249	0.000104
H135	H	0.112173	0.266468	0.000106
H136	H	0.066189	0.232900	-0.063060
N137	N	-0.177338	0.178065	0.000094
H138	H	-0.199967	0.177757	-0.063076
H139	H	-0.204594	0.182392	0.063321
N140	N	-0.024481	-0.036315	0.000159
H141	H	-0.047833	-0.069536	0.000169
H142	H	0.002811	-0.040626	-0.063019
