data_functionalizedCrystal
_audit_creation_method	'MofGen! by Chris Wilmer'
_symmetry_space_group_name_H-M	'P1'
_symmetry_Int_Tables_number	1
_symmetry_cell_setting	triclinic
loop_
_symmetry_equiv_pos_as_xyz
  x,y,z
_cell_length_a	12.811445
_cell_length_b	12.837932
_cell_length_c	13.448316
_cell_angle_alpha	89.996966
_cell_angle_beta	84.561830
_cell_angle_gamma	89.413620
loop_
_atom_site_label
_atom_site_type_symbol
_atom_site_fract_x
_atom_site_fract_y
_atom_site_fract_z
O1	O	1.406658	0.139724	-0.209526
O2	O	1.102591	0.154905	-0.182109
O3	O	1.247881	-0.003617	-0.195210
O4	O	1.261368	0.298247	-0.196425
O5	O	1.247860	-0.003627	-0.029824
O6	O	1.102570	0.154895	-0.016723
O7	O	1.406637	0.139714	-0.044140
Cu8	Cu	1.254601	0.147304	-0.015331
Cu9	Cu	1.254626	0.147316	-0.210919
O10	O	1.261347	0.298237	-0.031039
C11	C	1.063391	0.154048	-0.095883
C12	C	0.946618	0.151496	-0.085354
C13	C	0.727208	0.146732	-0.245891
C14	C	0.617489	0.144335	-0.236002
C15	C	0.617458	0.144312	-0.055689
C16	C	0.727177	0.146709	-0.065577
C17	C	0.782048	0.147918	-0.160681
C18	C	0.891770	0.150307	-0.170569
C19	C	0.891737	0.150292	0.009743
C20	C	0.782017	0.147895	0.019632
C21	C	1.243315	-0.042263	-0.112109
C22	C	1.229728	-0.157399	-0.110891
C23	C	1.116167	-0.307734	-0.100650
C24	C	1.128926	-0.199553	-0.101802
C25	C	1.317777	-0.223435	-0.118831
C26	C	1.305018	-0.331616	-0.117679
C27	C	1.204209	-0.373762	-0.108586
C28	C	1.191451	-0.481946	-0.107427
C29	C	1.380301	-0.505825	-0.124463
C30	C	1.393060	-0.397644	-0.125615
C31	C	1.445837	0.140572	-0.130369
C32	C	1.562610	0.143123	-0.140904
C33	C	1.265913	0.336882	-0.114143
C34	C	1.279500	0.452018	-0.115367
N35	N	1.254591	0.147295	0.122234
N36	N	1.254644	0.147316	-0.348484
C37	C	1.318951	0.077130	0.168471
C38	C	1.318957	0.077130	0.272574
C39	C	1.254609	0.147299	0.330437
C40	C	1.190242	0.217467	0.284194
C41	C	1.190231	0.217462	0.180094
C42	C	1.190272	0.217474	0.501171
C43	C	1.190285	0.217481	0.605279
C44	C	1.318998	0.077142	0.593652
C45	C	1.318987	0.077137	0.489551
C46	C	1.254621	0.147306	0.443315
H47	H	0.737326	0.146915	0.097063
C48	C	1.017991	0.063924	0.102964
C49	C	0.952019	0.151592	0.103415
H50	H	1.055209	0.064728	0.160789
H51	H	0.977144	0.002601	0.102893
H52	H	1.066372	0.064999	0.044908
H53	H	0.903632	0.150513	0.161466
H54	H	0.992869	0.212931	0.103495
C55	C	0.580850	0.232656	-0.386381
C56	C	0.557209	0.143029	-0.329667
H57	H	0.543639	0.231846	-0.444210
H58	H	0.560895	0.292650	-0.347536
H59	H	0.654051	0.234246	-0.405871
H60	H	0.484009	0.141443	-0.310170
H61	H	0.577157	0.083019	-0.368519
C62	C	1.537328	-0.559495	-0.053599
C63	C	1.477084	-0.578411	-0.133186
H64	H	1.597070	-0.604312	-0.058980
H65	H	1.559353	-0.489044	-0.055598
H66	H	1.496418	-0.572319	0.007755
H67	H	1.517991	-0.565579	-0.194541
H68	H	1.455059	-0.648878	-0.131196
C69	C	1.446213	-0.061560	0.250622
C70	C	1.389721	0.000018	0.323396
H71	H	1.489908	-0.109159	0.281999
H72	H	1.398777	-0.099094	0.214317
H73	H	1.488279	-0.018184	0.206207
H74	H	1.347649	-0.043357	0.367807
H75	H	1.437163	0.037555	0.359718
C76	C	1.018060	0.063973	-0.286575
C77	C	0.952085	0.151638	-0.275106
H78	H	1.055287	0.064797	-0.351116
H79	H	1.066425	0.065028	-0.237252
H80	H	0.977207	0.002641	-0.279150
H81	H	0.992939	0.212971	-0.282524
H82	H	0.903714	0.150593	-0.324443
H83	H	1.371389	0.020004	0.442438
C84	C	0.449246	0.140657	0.039521
C85	C	0.557130	0.143002	0.048843
H86	H	0.412005	0.139846	0.104056
H87	H	0.429330	0.200666	0.004274
H88	H	0.433238	0.079858	0.003925
H89	H	0.573140	0.203806	0.084433
H90	H	0.577054	0.082987	0.084105
H91	H	1.371406	0.020007	0.631303
C92	C	1.146517	0.396696	0.151968
C93	C	1.119491	0.294593	0.129263
H94	H	1.102845	0.444310	0.120582
H95	H	1.137310	0.406736	0.222238
H96	H	1.217724	0.408290	0.128464
H97	H	1.048286	0.282997	0.152773
H98	H	1.128689	0.284548	0.058978
H99	H	0.771885	0.147710	-0.323328
C100	C	1.006063	-0.447469	-0.090728
C101	C	1.080645	-0.528275	-0.097442
H102	H	0.937656	-0.476072	-0.084573
H103	H	1.014954	-0.405777	-0.033859
H104	H	1.014991	-0.405767	-0.149209
H105	H	1.071722	-0.569973	-0.038957
H106	H	1.071750	-0.569985	-0.154316
C107	C	1.482679	-0.210479	-0.048708
C108	C	1.428583	-0.177105	-0.128842
H109	H	1.551089	-0.181883	-0.054898
H110	H	1.445978	-0.187832	0.012266
H111	H	1.487670	-0.284359	-0.049160
H112	H	1.423585	-0.103225	-0.128386
H113	H	1.465293	-0.199747	-0.189832
C114	C	0.940975	-0.186818	-0.084847
C115	C	1.032147	-0.126974	-0.093072
H116	H	0.881227	-0.142008	-0.079453
H117	H	0.939934	-0.229504	-0.142423
H118	H	0.939928	-0.229516	-0.027076
H119	H	1.033198	-0.084282	-0.150848
H120	H	1.033189	-0.084271	-0.035491
C121	C	1.557964	-0.384681	-0.225508
C122	C	1.503863	-0.351307	-0.135613
H123	H	1.626367	-0.356069	-0.231680
H124	H	1.562967	-0.458551	-0.225946
H125	H	1.521253	-0.362041	-0.279865
H126	H	1.540570	-0.373953	-0.081255
H127	H	1.498864	-0.277422	-0.135165
C128	C	1.063055	0.356210	0.523115
C129	C	1.119527	0.294611	0.450346
H130	H	1.019390	0.403836	0.491733
H131	H	1.020968	0.312859	0.567521
H132	H	1.110511	0.393724	0.559430
H133	H	1.072070	0.257091	0.414035
H134	H	1.161616	0.337967	0.405922
H135	H	1.034085	-0.342050	-0.093228
H136	H	1.371355	0.019994	0.121365
H137	H	1.137884	0.274619	0.652387
H138	H	1.137843	0.274597	0.331313
