data_functionalizedCrystal
_audit_creation_method	'MofGen! by Chris Wilmer'
_symmetry_space_group_name_H-M	'P1'
_symmetry_Int_Tables_number	1
_symmetry_cell_setting	triclinic
loop_
_symmetry_equiv_pos_as_xyz
  x,y,z
_cell_length_a	16.098538
_cell_length_b	19.288864
_cell_length_c	19.288865
_cell_angle_alpha	83.136245
_cell_angle_beta	92.708117
_cell_angle_gamma	87.256992
loop_
_atom_site_label
_atom_site_type_symbol
_atom_site_fract_x
_atom_site_fract_y
_atom_site_fract_z
O1	O	0.069533	-0.924481	-0.083521
O2	O	0.402867	-0.591147	0.249812
O3	O	0.736200	-0.257814	0.583145
O4	O	0.069478	-0.722217	-0.095213
O5	O	0.402811	-0.388884	0.238121
O6	O	0.736144	-0.055551	0.571454
O7	O	0.069491	-0.829193	0.011763
O8	O	0.402824	-0.495859	0.345096
O9	O	0.736157	-0.162526	0.678429
O10	O	0.069520	-0.817505	-0.190497
O11	O	0.402854	-0.484172	0.142837
O12	O	0.736187	-0.150839	0.476170
O13	O	-0.069023	-0.822944	0.005538
O14	O	0.264310	-0.489610	0.338871
O15	O	0.597644	-0.156277	0.672205
O16	O	-0.069036	-0.715969	-0.101437
O17	O	0.264297	-0.382635	0.231896
O18	O	0.597631	-0.049302	0.565230
O19	O	-0.068980	-0.918232	-0.089746
O20	O	0.264353	-0.584898	0.243587
O21	O	0.597686	-0.251565	0.576921
Zn22	Zn	-0.091000	-0.816108	-0.096580
Zn23	Zn	0.242333	-0.482775	0.236754
Zn24	Zn	0.575666	-0.149441	0.570087
Zn25	Zn	0.091498	-0.824341	-0.088379
Zn26	Zn	0.424831	-0.491008	0.244955
Zn27	Zn	0.758164	-0.157675	0.578288
O28	O	-0.068993	-0.811256	-0.196721
O29	O	0.264340	-0.477923	0.136612
O30	O	0.597673	-0.144590	0.469946
C31	C	0.000213	-0.693216	-0.097949
C32	C	0.333547	-0.359883	0.235384
C33	C	0.666880	-0.026550	0.568718
C34	C	0.000192	-0.616112	-0.096821
C35	C	0.333525	-0.282778	0.236512
C36	C	0.666858	0.050555	0.569846
N37	N	-0.215550	-0.810494	-0.102176
N38	N	0.117783	-0.477161	0.231157
N39	N	0.451117	-0.143827	0.564490
C40	C	0.000231	-0.825692	0.034527
C41	C	0.333565	-0.492359	0.367860
C42	C	0.666898	-0.159025	0.701193
C43	C	0.000224	-0.824563	0.111630
C44	C	0.333557	-0.491229	0.444963
C45	C	0.666890	-0.157896	0.778297
C46	C	-0.259130	-0.855915	-0.056788
C47	C	0.074204	-0.522582	0.276546
C48	C	0.407537	-0.189249	0.609879
C49	C	-0.346319	-0.851994	-0.060709
C50	C	-0.012986	-0.518661	0.272624
C51	C	0.320348	-0.185328	0.605957
C52	C	-0.389927	-0.802655	-0.110023
C53	C	-0.056594	-0.469322	0.223310
C54	C	0.276739	-0.135989	0.556643
C55	C	-0.346342	-0.757230	-0.155414
C56	C	-0.013008	-0.423896	0.177919
C57	C	0.320325	-0.090563	0.511253
C58	C	-0.259154	-0.761147	-0.151489
C59	C	0.074179	-0.427814	0.181845
C60	C	0.407513	-0.094481	0.515178
C61	C	-0.653179	-0.788453	-0.124242
C62	C	-0.319846	-0.455119	0.209092
C63	C	0.013488	-0.121786	0.542425
C64	C	-0.740373	-0.784539	-0.128165
C65	C	-0.407040	-0.451206	0.205168
C66	C	-0.073706	-0.117873	0.538502
C67	C	-0.740344	-0.879304	-0.033459
C68	C	-0.407011	-0.545971	0.299874
C69	C	-0.073678	-0.212637	0.633208
C70	C	-0.653155	-0.883220	-0.029541
C71	C	-0.319822	-0.549887	0.303792
C72	C	0.013512	-0.216554	0.637126
C73	C	-0.609577	-0.837792	-0.074929
C74	C	-0.276243	-0.504459	0.258404
C75	C	0.057090	-0.171125	0.591738
C76	C	-0.479049	-0.798648	-0.114035
C77	C	-0.145716	-0.465315	0.219299
C78	C	0.187618	-0.131981	0.552632
C79	C	-0.520457	-0.841796	-0.070914
C80	C	-0.187123	-0.508463	0.262419
C81	C	0.146210	-0.175130	0.595753
N82	N	0.216047	-0.829961	-0.082777
N83	N	0.549381	-0.496627	0.250557
N84	N	0.882714	-0.163294	0.583890
C85	C	0.000286	-0.947233	-0.087009
C86	C	0.333619	-0.613900	0.246324
C87	C	0.666952	-0.280566	0.579657
C88	C	0.000313	-1.024338	-0.088137
C89	C	0.333646	-0.691005	0.245196
C90	C	0.666980	-0.357671	0.578530
C91	C	0.000214	-0.571416	-0.159588
C92	C	0.333547	-0.238083	0.173745
C93	C	0.666881	0.095250	0.507079
C94	C	0.000223	-0.498970	-0.158527
C95	C	0.333556	-0.165636	0.174806
C96	C	0.666890	0.167697	0.508140
C97	C	0.000226	-0.471222	-0.094695
C98	C	0.333560	-0.137889	0.238639
C99	C	0.666893	0.195444	0.571972
C100	C	0.000199	-0.515927	-0.031920
C101	C	0.333533	-0.182594	0.301414
C102	C	0.666866	0.150739	0.634747
C103	C	0.000182	-0.588372	-0.032983
C104	C	0.333515	-0.255039	0.300350
C105	C	0.666849	0.078295	0.633684
C106	C	0.048774	-0.365151	-0.042334
C107	C	0.382108	-0.031817	0.291000
C108	C	0.715441	0.301516	0.624333
C109	C	0.048797	-0.292707	-0.041273
C110	C	0.382130	0.040626	0.292060
C111	C	0.715464	0.373960	0.625394
C112	C	0.000276	-0.247779	-0.091413
C113	C	0.333610	0.085554	0.241921
C114	C	0.666943	0.418888	0.575254
C115	C	-0.048256	-0.275302	-0.142625
C116	C	0.285077	0.058031	0.190709
C117	C	0.618410	0.391364	0.524042
C118	C	-0.048274	-0.347747	-0.143688
C119	C	0.285060	-0.014414	0.189645
C120	C	0.618393	0.318920	0.522979
C121	C	0.000245	-0.392669	-0.093535
C122	C	0.333578	-0.059336	0.239799
C123	C	0.666911	0.273998	0.573132
C124	C	0.000307	-0.124528	-0.153033
C125	C	0.333641	0.208805	0.180300
C126	C	0.666974	0.542139	0.513633
C127	C	0.000311	-0.052080	-0.151970
C128	C	0.333644	0.281253	0.181363
C129	C	0.666978	0.614586	0.514697
C130	C	0.000296	-0.069040	-0.025360
C131	C	0.333629	0.264294	0.307973
C132	C	0.666963	0.597627	0.641306
C133	C	0.000284	-0.141486	-0.026426
C134	C	0.333617	0.191848	0.306907
C135	C	0.666950	0.525181	0.640240
C136	C	0.000293	-0.169225	-0.090264
C137	C	0.333627	0.164108	0.243069
C138	C	0.666960	0.497441	0.576402
C139	C	0.000268	-0.814757	-0.219485
C140	C	0.333601	-0.481424	0.113848
C141	C	0.666935	-0.148091	0.447182
C142	C	0.000281	-0.815887	-0.296588
C143	C	0.333614	-0.482553	0.036745
C144	C	0.666948	-0.149220	0.370079
C145	C	0.000237	-0.887331	0.156327
C146	C	0.333570	-0.553998	0.489660
C147	C	0.666903	-0.220665	0.822994
C148	C	0.000250	-0.886271	0.228775
C149	C	0.333583	-0.552938	0.562108
C150	C	0.666916	-0.219604	0.895441
C151	C	0.000233	-0.822438	0.256521
C152	C	0.333566	-0.489105	0.589855
C153	C	0.666899	-0.155771	0.923188
C154	C	0.000224	-0.759662	0.211815
C155	C	0.333557	-0.426328	0.545148
C156	C	0.666891	-0.092995	0.878481
C157	C	0.000220	-0.760724	0.139369
C158	C	0.333553	-0.427391	0.472702
C159	C	0.666886	-0.094057	0.806036
C160	C	-0.048300	-0.770069	0.362628
C161	C	0.285034	-0.436736	0.695961
C162	C	0.618367	-0.103402	1.029294
C163	C	-0.048300	-0.769009	0.435072
C164	C	0.285033	-0.435676	0.768406
C165	C	0.618366	-0.102343	1.101739
C166	C	0.000250	-0.819159	0.479968
C167	C	0.333584	-0.485826	0.813301
C168	C	0.666917	-0.152493	1.146634
C169	C	0.048791	-0.870381	0.452411
C170	C	0.382124	-0.537047	0.785744
C171	C	0.715457	-0.203714	1.119078
C172	C	0.048786	-0.871443	0.379965
C173	C	0.382119	-0.538110	0.713299
C174	C	0.715453	-0.204776	1.046632
C175	C	0.000238	-0.821279	0.335076
C176	C	0.333571	-0.487946	0.668409
C177	C	0.666905	-0.154613	1.001742
C178	C	0.000279	-0.880783	0.603221
C179	C	0.333612	-0.547449	0.936555
C180	C	0.666945	-0.214116	1.269888
C181	C	0.000297	-0.879720	0.675670
C182	C	0.333630	-0.546387	1.009003
C183	C	0.666963	-0.213054	1.342337
C184	C	0.000263	-0.753109	0.658708
C185	C	0.333596	-0.419775	0.992042
C186	C	0.666929	-0.086442	1.325375
C187	C	0.000253	-0.754173	0.586262
C188	C	0.333586	-0.420840	0.919595
C189	C	0.666920	-0.087507	1.252928
C190	C	0.000257	-0.818012	0.558522
C191	C	0.333590	-0.484679	0.891856
C192	C	0.666924	-0.151345	1.225189
H193	H	-0.381801	-0.888979	-0.023750
H194	H	-0.048468	-0.555646	0.309583
H195	H	0.284866	-0.222313	0.642917
H196	H	-0.775834	-0.916289	0.003494
H197	H	-0.442500	-0.582956	0.336828
H198	H	-0.109167	-0.249622	0.670161
H199	H	-0.223672	-0.724160	-0.188448
H200	H	0.109661	-0.390827	0.144885
H201	H	0.442994	-0.057493	0.478219
H202	H	0.000324	-0.015689	-0.203085
H203	H	0.333658	0.317644	0.130249
H204	H	0.666991	0.650978	0.463582
O205	O	-0.526090	-0.745439	-0.167226
O206	O	-0.192756	-0.412105	0.166107
O207	O	0.140577	-0.078772	0.499441
H208	H	-0.481142	-0.714508	-0.198131
H209	H	-0.147809	-0.381175	0.135202
H210	H	0.185525	-0.047841	0.468535
O211	O	-0.100675	-0.715980	0.314207
O212	O	0.232658	-0.382646	0.647540
O213	O	0.565991	-0.049313	0.980874
H214	H	-0.080724	-0.662997	0.321817
H215	H	0.252610	-0.329663	0.655150
H216	H	0.585943	0.003670	0.988483
H217	H	0.000238	-0.703060	0.549868
H218	H	0.333571	-0.369727	0.883201
H219	H	0.666904	-0.036393	1.216534
H220	H	0.000253	-0.701135	0.681299
H221	H	0.333586	-0.367801	1.014632
H222	H	0.666920	-0.034468	1.347966
H223	H	-0.087820	-0.727299	0.457503
H224	H	0.245514	-0.393966	0.790836
H225	H	0.578847	-0.060632	1.124169
O226	O	0.000218	-0.601331	-0.228442
O227	O	0.333551	-0.267998	0.104891
O228	O	0.666884	0.065335	0.438225
H229	H	0.000208	-0.659217	-0.218639
H230	H	0.333542	-0.325883	0.114694
H231	H	0.666875	0.007450	0.448028
O232	O	0.000256	-0.450749	-0.226227
O233	O	0.333589	-0.117416	0.107107
O234	O	0.666923	0.215918	0.440440
H235	H	0.000266	-0.482210	-0.270795
H236	H	0.333599	-0.148876	0.062539
H237	H	0.666932	0.184457	0.395872
H238	H	-0.484948	-0.881966	-0.030760
H239	H	-0.151615	-0.548633	0.302573
H240	H	0.181718	-0.215299	0.635907
H241	H	-0.775875	-0.744360	-0.168325
H242	H	-0.442542	-0.411026	0.165008
H243	H	-0.109208	-0.077693	0.498341
H244	H	0.000264	-0.937386	0.265174
H245	H	0.333597	-0.604053	0.598507
H246	H	0.666930	-0.270720	0.931841
O247	O	-0.393377	-0.704019	-0.208608
O248	O	-0.060044	-0.370686	0.124726
O249	O	0.273290	-0.037352	0.458059
H250	H	-0.348423	-0.673091	-0.239508
H251	H	-0.015089	-0.339757	0.093826
H252	H	0.318244	-0.006424	0.427159
O253	O	-0.212096	-0.909128	-0.003596
O254	O	0.121238	-0.575795	0.329737
O255	O	0.454571	-0.242462	0.663071
H256	H	-0.257051	-0.940048	0.027311
H257	H	0.076282	-0.606715	0.360645
H258	H	0.409616	-0.273381	0.693978
O259	O	0.000196	-0.690810	0.241734
O260	O	0.333530	-0.357477	0.575068
O261	O	0.666863	-0.024144	0.908401
H262	H	0.000190	-0.700616	0.299620
H263	H	0.333523	-0.367282	0.632953
H264	H	0.666857	-0.033949	0.966286
H265	H	-0.617705	-0.751464	-0.161200
H266	H	-0.284371	-0.418131	0.172133
H267	H	0.048962	-0.084798	0.505467
H268	H	-0.617651	-0.923396	0.010615
H269	H	-0.284317	-0.590063	0.343948
H270	H	0.049016	-0.256729	0.677281
H271	H	0.000213	-0.493331	0.020054
H272	H	0.333547	-0.159998	0.353387
H273	H	0.666880	0.173335	0.686720
H274	H	-0.087793	-0.370153	-0.185384
H275	H	0.245540	-0.036820	0.147949
H276	H	0.578874	0.296513	0.481282
O277	O	0.000201	-0.693020	0.091154
O278	O	0.333534	-0.359687	0.424487
O279	O	0.666868	-0.026354	0.757821
H280	H	-0.056257	-0.687934	0.055214
H281	H	0.277076	-0.354601	0.388547
H282	H	0.610409	-0.021267	0.721881
H283	H	-0.087767	-0.238723	-0.183453
H284	H	0.245566	0.094611	0.149880
H285	H	0.578900	0.427944	0.483214
O286	O	0.101133	-0.263030	0.013969
O287	O	0.434466	0.070304	0.347302
O288	O	0.767799	0.403637	0.680635
H289	H	0.167652	-0.279007	0.009600
H290	H	0.500985	0.054326	0.342933
H291	H	0.834319	0.387659	0.676266
H292	H	0.000303	-0.147114	-0.205015
H293	H	0.333636	0.186219	0.128319
H294	H	0.666969	0.519552	0.461652
H295	H	0.000164	-0.624764	0.018131
H296	H	0.333497	-0.291430	0.351465
H297	H	0.666831	0.041903	0.684798
O298	O	0.000300	-0.039125	0.043491
O299	O	0.333633	0.294209	0.376824
O300	O	0.666966	0.627542	0.710157
H301	H	0.000320	0.018760	0.033687
H302	H	0.333653	0.352093	0.367020
H303	H	0.666986	0.685427	0.700353
H304	H	0.000270	-0.177878	0.024686
H305	H	0.333603	0.155455	0.358019
H306	H	0.666937	0.488789	0.691352
O307	O	0.101115	-0.413608	0.011745
O308	O	0.434449	-0.080275	0.345079
O309	O	0.767782	0.253059	0.678412
H310	H	0.134876	-0.382300	0.047525
H311	H	0.468209	-0.048967	0.380859
H312	H	0.801543	0.284367	0.714192
O313	O	0.000264	-0.956183	0.126407
O314	O	0.333598	-0.622850	0.459740
O315	O	0.666931	-0.289517	0.793074
H316	H	0.000288	-0.999653	0.169664
H317	H	0.333621	-0.666320	0.502998
H318	H	0.666955	-0.332987	0.836331
H319	H	0.088311	-0.913148	0.357532
H320	H	0.421644	-0.579814	0.690865
H321	H	0.754978	-0.246481	1.024198
H322	H	0.088326	-0.911217	0.488964
H323	H	0.421659	-0.577884	0.822297
H324	H	0.754992	-0.244551	1.155631
H325	H	0.000286	-0.932764	0.580635
H326	H	0.333619	-0.599431	0.913968
H327	H	0.666952	-0.266098	1.247302
H328	H	0.000312	-0.930836	0.712063
H329	H	0.333645	-0.597503	1.045396
H330	H	0.666979	-0.264170	1.378729
