data_functionalizedCrystal
_audit_creation_method	'MofGen! by Chris Wilmer'
_symmetry_space_group_name_H-M	'P1'
_symmetry_Int_Tables_number	1
_symmetry_cell_setting	triclinic
loop_
_symmetry_equiv_pos_as_xyz
  x,y,z
_cell_length_a	18.215407
_cell_length_b	18.050589
_cell_length_c	18.050565
_cell_angle_alpha	89.901801
_cell_angle_beta	89.938915
_cell_angle_gamma	90.025680
loop_
_atom_site_label
_atom_site_type_symbol
_atom_site_fract_x
_atom_site_fract_y
_atom_site_fract_z
Zn1	Zn	1.125376	-0.295171	-0.419881
Zn2	Zn	1.125182	-0.419527	-0.295700
Zn3	Zn	1.002214	-0.295350	-0.295711
Zn4	Zn	1.002267	-0.419318	-0.419855
O5	O	1.063760	-0.357341	-0.357787
O6	O	1.228335	-0.311679	-0.403414
O7	O	1.108767	-0.403218	-0.191776
O8	O	1.018610	-0.191402	-0.312197
O9	O	1.228192	-0.403044	-0.312179
O10	O	1.109097	-0.191270	-0.403425
O11	O	1.018422	-0.311985	-0.191784
O12	O	0.899236	-0.311782	-0.312172
O13	O	1.018701	-0.402687	-0.523783
O14	O	0.899276	-0.402861	-0.403380
O15	O	1.109149	-0.311476	-0.523802
O16	O	1.108819	-0.523424	-0.312154
O17	O	1.018514	-0.523270	-0.403370
C18	C	0.872553	-0.357319	-0.357775
C19	C	0.790755	-0.357327	-0.357788
C20	C	0.525737	-0.404844	-0.405213
C21	C	0.602596	-0.404838	-0.405210
C22	C	0.602524	-0.309855	-0.310373
C23	C	0.525667	-0.309866	-0.310373
C24	C	0.487275	-0.357359	-0.357798
C25	C	0.640991	-0.357342	-0.357794
C26	C	0.724325	-0.357335	-0.357789
C27	C	0.403936	-0.357368	-0.357801
C28	C	1.063671	-0.550294	-0.357774
C29	C	1.063700	-0.632839	-0.357794
C30	C	1.014641	-0.832233	-0.407380
C31	C	0.996649	-0.881761	-0.339613
C32	C	1.063773	-0.783970	-0.357803
C33	C	1.081800	-0.881524	-0.425578
C34	C	1.063841	-0.929955	-0.357819
C35	C	1.045746	-0.832410	-0.290001
C36	C	1.130928	-0.832168	-0.376011
C37	C	1.112962	-0.881674	-0.308198
C38	C	1.063731	-0.699871	-0.357796
C39	C	1.063882	-1.014051	-0.357819
C40	C	1.255713	-0.357365	-0.357798
C41	C	1.337512	-0.357375	-0.357804
C42	C	1.063953	-0.357038	-0.551493
C43	C	1.064035	-0.356909	-0.634039
C44	C	1.063869	-0.163636	-0.357815
C45	C	1.063916	-0.081090	-0.357827
C46	C	1.063610	-0.357590	-0.164834
C47	C	1.063670	-0.357510	-0.082288
C48	C	1.113326	-0.406501	0.117204
C49	C	1.046347	-0.425085	0.166778
C50	C	1.063792	-0.357308	0.068842
C51	C	1.130887	-0.338561	0.166349
C52	C	1.063915	-0.357114	0.214826
C53	C	0.996776	-0.375929	0.117329
C54	C	1.081362	-0.289373	0.116895
C55	C	1.014336	-0.307932	0.166447
C56	C	1.063722	-0.357422	-0.015256
C57	C	1.063977	-0.357000	0.298923
H58	H	0.973030	-0.810526	-0.449245
C59	C	1.102149	-0.910149	-0.502034
C60	C	1.114122	-0.850123	-0.549776
C61	C	1.132872	-0.876461	-0.620211
H62	H	1.063298	-0.939831	-0.520708
H63	H	1.145611	-0.939042	-0.498754
H64	H	1.070665	-0.821242	-0.553058
H65	H	1.152975	-0.820435	-0.531126
H66	H	1.176333	-0.905354	-0.616931
H67	H	1.094018	-0.906143	-0.638878
H68	H	1.141004	-0.835738	-0.652611
H69	H	1.187578	-0.322786	0.187888
C70	C	0.644447	-0.456270	-0.456738
C71	C	0.688650	-0.414210	-0.504391
C72	C	0.727221	-0.461566	-0.551864
H73	H	0.610656	-0.484571	-0.485051
H74	H	0.674430	-0.488618	-0.428299
H75	H	0.658670	-0.381874	-0.532828
H76	H	0.722455	-0.385910	-0.476099
H77	H	0.757204	-0.493915	-0.523425
H78	H	0.693425	-0.489865	-0.580172
H79	H	0.757222	-0.433036	-0.584198
H80	H	0.633792	-0.271187	-0.271762
H81	H	0.494350	-0.271197	-0.271758
C82	C	0.483962	-0.456455	-0.456577
C83	C	0.439763	-0.504053	-0.414453
C84	C	0.401266	-0.551603	-0.461744
H85	H	0.517796	-0.484804	-0.484831
H86	H	0.453981	-0.428069	-0.488973
H87	H	0.469741	-0.532436	-0.382070
H88	H	0.405915	-0.475724	-0.386201
H89	H	0.371285	-0.523217	-0.494140
H90	H	0.435105	-0.579947	-0.489995
H91	H	0.371267	-0.583899	-0.433170
H92	H	0.939890	-0.903560	-0.324227
C93	C	1.025336	-0.803622	-0.213623
C94	C	1.025489	-0.726059	-0.214520
C95	C	1.006680	-0.699512	-0.144180
H96	H	1.060012	-0.820867	-0.178321
H97	H	0.977785	-0.820975	-0.200609
H98	H	1.073034	-0.708713	-0.227525
H99	H	0.990812	-0.708794	-0.249808
H100	H	0.959128	-0.716865	-0.131165
H101	H	1.041358	-0.716762	-0.108883
H102	H	1.006774	-0.646884	-0.144781
C103	C	1.168306	-0.910403	-0.252126
C104	C	1.149127	-0.885401	-0.181321
C105	C	1.200083	-0.911862	-0.129647
H106	H	1.215872	-0.892689	-0.264545
H107	H	1.168304	-0.963032	-0.252675
H108	H	1.149136	-0.832783	-0.180774
H109	H	1.101569	-0.903113	-0.168879
H110	H	1.200082	-0.964491	-0.130196
H111	H	1.247646	-0.894146	-0.142073
H112	H	1.187073	-0.894907	-0.081599
H113	H	1.187674	-0.810371	-0.391430
C114	C	0.958557	-0.252360	0.195251
C115	C	0.959647	-0.252408	0.272808
C116	C	0.908280	-0.201221	0.299370
H117	H	0.910946	-0.265660	0.178458
H118	H	0.970595	-0.204297	0.177458
H119	H	0.947605	-0.300460	0.290594
H120	H	1.007247	-0.239100	0.289621
H121	H	0.920318	-0.153158	0.281577
H122	H	0.860672	-0.214526	0.282572
H123	H	0.909017	-0.201242	0.351995
C124	C	1.168945	-0.462239	0.088404
C125	C	1.150263	-0.533169	0.113674
C126	C	1.201472	-0.584535	0.087149
H127	H	1.216477	-0.449564	0.105893
H128	H	1.168812	-0.461653	0.035773
H129	H	1.150404	-0.533753	0.166294
H130	H	1.102740	-0.545867	0.096187
H131	H	1.201340	-0.583949	0.034519
H132	H	1.249001	-0.571853	0.104640
H133	H	1.188801	-0.632668	0.104285
C134	C	1.026474	-0.501583	0.195886
C135	C	0.956781	-0.521433	0.169964
C136	C	0.938460	-0.591903	0.196751
H137	H	1.026161	-0.500932	0.248504
H138	H	1.061634	-0.536579	0.179008
H139	H	0.921631	-0.486447	0.186846
H140	H	0.957077	-0.522101	0.117349
H141	H	0.973619	-0.626899	0.179874
H142	H	0.938150	-0.591245	0.249369
H143	H	0.891175	-0.605383	0.179162
C144	C	0.921111	-0.396915	0.088777
C145	C	0.869427	-0.345521	0.114291
C146	C	0.799722	-0.364828	0.087993
H147	H	0.908493	-0.444931	0.106256
H148	H	0.921502	-0.396845	0.036144
H149	H	0.869034	-0.345599	0.166912
H150	H	0.882021	-0.297502	0.096814
H151	H	0.800114	-0.364757	0.035361
H152	H	0.787112	-0.412844	0.105474
H153	H	0.764648	-0.329957	0.105295
H154	H	1.096195	-0.232022	0.094976
