data_functionalizedCrystal
_audit_creation_method	'MofGen! by Chris Wilmer'
_symmetry_space_group_name_H-M	'P1'
_symmetry_Int_Tables_number	1
_symmetry_cell_setting	triclinic
loop_
_symmetry_equiv_pos_as_xyz
  x,y,z
_cell_length_a	19.188930
_cell_length_b	19.188924
_cell_length_c	16.053802
_cell_angle_alpha	92.554672
_cell_angle_beta	87.413631
_cell_angle_gamma	83.143372
loop_
_atom_site_label
_atom_site_type_symbol
_atom_site_fract_x
_atom_site_fract_y
_atom_site_fract_z
O1	O	0.929109	0.084208	-0.069702
O2	O	1.429109	0.584208	0.430298
O3	O	0.725795	0.095944	-0.069645
O4	O	1.225795	0.595944	0.430355
O5	O	0.833321	-0.011580	-0.069666
O6	O	1.333321	0.488420	0.430334
O7	O	0.821583	0.191732	-0.069682
O8	O	1.321583	0.691732	0.430318
O9	O	0.827403	-0.005686	0.069194
O10	O	1.327403	0.494314	0.569194
O11	O	0.719876	0.101838	0.069215
O12	O	1.219876	0.601838	0.569215
O13	O	0.923190	0.090102	0.069158
O14	O	1.423190	0.590102	0.569158
Zn15	Zn	0.820594	0.096906	0.091233
Zn16	Zn	1.320594	0.596906	0.591233
Zn17	Zn	0.828392	0.089140	-0.091721
Zn18	Zn	1.328392	0.589140	0.408279
O19	O	0.815664	0.197626	0.069178
O20	O	1.315664	0.697626	0.569178
C21	C	0.696824	0.098512	-0.000208
C22	C	1.196824	0.598512	0.499792
C23	C	0.619319	0.097372	-0.000186
C24	C	1.119319	0.597372	0.499814
C25	C	0.574394	0.160462	-0.000204
C26	C	1.074394	0.660462	0.499796
C27	C	0.501571	0.159390	-0.000213
C28	C	1.001571	0.659390	0.499787
C29	C	0.473676	0.095224	-0.000221
C30	C	0.973676	0.595224	0.499779
C31	C	0.518610	0.032125	-0.000198
C32	C	1.018610	0.532125	0.499802
C33	C	0.591432	0.033199	-0.000181
C34	C	1.091432	0.533199	0.499819
N35	N	0.367713	0.044169	-0.047511
N36	N	0.867713	0.544169	0.452489
N37	N	0.298535	0.043153	-0.047529
N38	N	0.798535	0.543153	0.452471
C39	C	0.254270	0.091983	-0.000272
C40	C	0.754270	0.591983	0.499728
N41	N	0.281795	0.141878	0.046994
N42	N	0.781795	0.641878	0.546994
N43	N	0.350979	0.142897	0.047009
N44	N	0.850979	0.642897	0.547009
C45	C	0.394714	0.094052	-0.000239
C46	C	0.894714	0.594052	0.499761
C47	C	0.130381	0.153916	-0.000299
C48	C	0.630381	0.653916	0.499701
C49	C	0.057556	0.152841	-0.000303
C50	C	0.557556	0.652841	0.499697
C51	C	0.074598	0.025574	-0.000296
C52	C	0.574598	0.525574	0.499704
C53	C	0.147421	0.026650	-0.000283
C54	C	0.647421	0.526650	0.499717
C55	C	0.175308	0.090823	-0.000289
C56	C	0.675308	0.590823	0.499711
C57	C	0.829983	-0.034644	-0.000235
C58	C	1.329983	0.465356	0.499765
C59	C	0.828844	-0.112148	-0.000232
C60	C	1.328844	0.387852	0.499768
C61	C	0.831538	-0.151760	-0.075925
C62	C	1.331538	0.348240	0.424075
C63	C	0.830459	-0.224583	-0.075931
C64	C	1.330459	0.275417	0.424069
C65	C	0.826698	-0.257793	-0.000240
C66	C	1.326698	0.242207	0.499760
C67	C	0.823999	-0.218172	0.075463
C68	C	1.323999	0.281828	0.575463
C69	C	0.825072	-0.145349	0.075467
C70	C	1.325072	0.354651	0.575467
N71	N	0.862345	-0.375066	0.056084
N72	N	1.362345	0.124934	0.556084
N73	N	0.861328	-0.444244	0.056075
N74	N	1.361328	0.055756	0.556075
C75	C	0.823464	-0.477203	-0.000247
C76	C	1.323464	0.022797	0.499753
N77	N	0.786666	-0.438371	-0.056573
N78	N	1.286666	0.061629	0.443427
N79	N	0.787687	-0.369186	-0.056567
N80	N	1.287687	0.130814	0.443433
C81	C	0.825534	-0.336756	-0.000236
C82	C	1.325534	0.163244	0.499764
C83	C	0.824988	-0.595777	-0.075951
C84	C	1.324988	-0.095777	0.424049
C85	C	0.823903	-0.668601	-0.075954
C86	C	1.323903	-0.168601	0.424046
C87	C	0.817451	-0.662189	0.075441
C88	C	1.317451	-0.162189	0.575441
C89	C	0.818528	-0.589366	0.075442
C90	C	1.318528	-0.089366	0.575442
C91	C	0.822300	-0.556165	-0.000257
C92	C	1.322300	-0.056165	0.499743
C93	C	0.952161	0.087534	-0.000281
C94	C	1.452161	0.587534	0.499719
C95	C	1.029667	0.088674	-0.000309
C96	C	1.529667	0.588674	0.499691
C97	C	0.819003	0.220690	-0.000255
C98	C	1.319003	0.720690	0.499745
C99	C	0.820142	0.298194	-0.000263
C100	C	1.320142	0.798194	0.499737
N101	N	0.815277	0.102205	0.216095
N102	N	1.315277	0.602205	0.716095
N103	N	0.833714	0.083835	-0.216582
N104	N	1.333714	0.583835	0.283418
C105	C	0.861046	0.056470	0.259780
C106	C	1.361046	0.556470	0.759780
C107	C	0.857334	0.060184	0.347187
C108	C	1.357334	0.560184	0.847187
C109	C	0.807855	0.109637	0.390908
C110	C	1.307855	0.609637	0.890908
C111	C	0.762081	0.155374	0.347216
C112	C	1.262081	0.655374	0.847216
C113	C	0.765790	0.151657	0.259811
C114	C	1.265790	0.651657	0.759811
C115	C	0.791650	0.125855	0.652321
C116	C	1.291650	0.625855	1.152321
C117	C	0.787945	0.129571	0.739733
C118	C	1.287945	0.629571	1.239733
C119	C	0.883197	0.034379	0.739698
C120	C	1.383197	0.534379	1.239698
C121	C	0.886905	0.030669	0.652290
C122	C	1.386905	0.530669	1.152290
C123	C	0.841129	0.076404	0.608606
C124	C	1.341129	0.576404	1.108606
N125	N	0.804060	0.113435	0.480252
N126	N	1.304060	0.613435	0.980252
N127	N	0.844921	0.072601	0.519263
N128	N	1.344921	0.572601	1.019263
H129	H	0.153087	0.206169	-0.000291
H130	H	0.653087	0.706169	0.499709
O131	O	0.940272	-0.022678	0.605145
O132	O	1.440272	0.477322	1.105145
H133	H	0.993957	-0.013204	0.621900
H134	H	1.493957	0.486796	1.121900
O135	O	0.932563	-0.014954	0.786811
O136	O	1.432563	0.485046	1.286811
H137	H	0.921670	-0.004068	0.854935
H138	H	1.421670	0.495932	1.354935
O139	O	0.453107	0.227443	-0.000230
O140	O	0.953107	0.727443	0.499770
H141	H	0.397785	0.215913	-0.000234
H142	H	0.897785	0.715913	0.499766
H143	H	0.826094	-0.700852	-0.137595
H144	H	1.326094	-0.200852	0.362405
H145	H	0.495895	-0.020120	-0.000216
H146	H	0.995895	0.479880	0.499784
H147	H	0.822875	-0.113097	0.137107
H148	H	1.322875	0.386903	0.637107
O149	O	0.829040	-0.559962	-0.157595
O150	O	1.329040	-0.059962	0.342405
H151	H	0.877265	-0.533314	-0.161237
H152	H	1.377265	-0.033314	0.338763
H153	H	0.894602	0.022942	0.382756
H154	H	1.394602	0.522942	0.882756
H155	H	0.184000	-0.024725	-0.000273
H156	H	0.684000	0.475275	0.499727
O157	O	0.835589	-0.115946	-0.157567
O158	O	1.335589	0.384054	0.342433
H159	H	0.837271	-0.155729	-0.210202
H160	H	1.337271	0.344271	0.289798
O161	O	0.833369	-0.267317	-0.157576
O162	O	1.333369	0.232683	0.342424
H163	H	0.785455	-0.294275	-0.161192
H164	H	1.285455	0.205725	0.338808
O165	O	0.639894	-0.034850	-0.000165
O166	O	1.139894	0.465150	0.499835
H167	H	0.608267	-0.079652	-0.000174
H168	H	1.108267	0.420348	0.499826
H169	H	0.020978	0.204219	-0.000313
H170	H	0.520978	0.704219	0.499687
O171	O	0.819943	-0.253990	0.157100
O172	O	1.319943	0.246010	0.657100
H173	H	0.818243	-0.214207	0.209737
H174	H	1.318243	0.285793	0.709737
O175	O	0.914410	0.003128	0.212625
O176	O	1.414410	0.503128	0.712625
H177	H	0.945607	-0.028055	0.257690
H178	H	1.445607	0.471945	0.757690
H179	H	0.747651	0.169844	0.775326
H180	H	1.247651	0.669844	1.275326
H181	H	0.754378	0.163096	0.616760
H182	H	1.254378	0.663096	1.116760
O183	O	0.044524	-0.043638	-0.000304
O184	O	0.544524	0.456362	0.499696
H185	H	-0.013661	-0.033787	-0.000323
H186	H	0.486339	0.466213	0.499677
O187	O	0.813400	-0.697997	0.157084
O188	O	1.313400	-0.197997	0.657084
H189	H	0.813112	-0.755291	0.144366
H190	H	1.313112	-0.255291	0.644366
O191	O	0.815640	-0.546637	0.157082
O192	O	1.315640	-0.046637	0.657082
H193	H	0.812852	-0.581963	0.209716
H194	H	1.312852	-0.081963	0.709716
O195	O	0.708715	0.208717	0.394366
O196	O	1.208715	0.708717	0.894366
H197	H	0.713829	0.203626	0.462484
H198	H	1.213829	0.703626	0.962484
O199	O	0.716427	0.200979	0.212678
O200	O	1.216427	0.700979	0.712678
H201	H	0.724440	0.256103	0.229421
H202	H	1.224440	0.756103	0.729421
O203	O	0.604474	0.229674	-0.000186
O204	O	1.104474	0.729674	0.499814
H205	H	0.560995	0.273366	-0.000188
H206	H	1.060995	0.773366	0.499812
