data_functionalizedCrystal
_audit_creation_method	'MofGen! by Chris Wilmer'
_symmetry_space_group_name_H-M	'P1'
_symmetry_Int_Tables_number	1
_symmetry_cell_setting	triclinic
loop_
_symmetry_equiv_pos_as_xyz
  x,y,z
_cell_length_a	10.489711
_cell_length_b	10.489716
_cell_length_c	9.798715
_cell_angle_alpha	90.000655
_cell_angle_beta	89.995007
_cell_angle_gamma	84.528072
loop_
_atom_site_label
_atom_site_type_symbol
_atom_site_fract_x
_atom_site_fract_y
_atom_site_fract_z
O1	O	1.694058	0.179787	-0.113527
O2	O	2.194058	0.679787	0.386473
O3	O	1.322856	0.196719	-0.113518
O4	O	1.822856	0.696719	0.386482
O5	O	1.516920	0.002652	-0.113527
O6	O	2.016920	0.502652	0.386473
O7	O	1.499994	0.373854	-0.113517
O8	O	1.999994	0.873854	0.386483
O9	O	1.516906	0.002651	0.113455
O10	O	2.016906	0.502651	0.613455
O11	O	1.322843	0.196718	0.113465
O12	O	1.822843	0.696718	0.613465
O13	O	1.694045	0.179785	0.113455
O14	O	2.194045	0.679785	0.613455
Zn15	Zn	1.508441	0.188251	0.149498
Zn16	Zn	2.008441	0.688251	0.649498
Zn17	Zn	1.508459	0.188253	-0.149561
Zn18	Zn	2.008459	0.688253	0.350439
O19	O	1.499981	0.373852	0.113465
O20	O	1.999981	0.873852	0.613465
C21	C	1.275317	0.195448	-0.000026
C22	C	1.775317	0.695448	0.499974
C23	C	1.133686	0.191646	-0.000023
C24	C	1.633686	0.691646	0.499977
C25	C	0.951289	0.308352	-0.000035
C26	C	1.451289	0.808352	0.499965
C27	C	1.043447	0.250056	-0.111949
C28	C	1.543447	0.750056	0.388051
C29	C	1.043406	0.250023	0.111838
C30	C	1.543406	0.750023	0.611838
C31	C	0.973507	0.126512	-0.112058
C32	C	1.473507	0.626512	0.387942
C33	C	0.973457	0.126497	0.111829
C34	C	1.473457	0.626497	0.611829
C35	C	1.065587	0.068111	-0.000112
C36	C	1.565587	0.568111	0.499888
C37	C	1.515642	-0.044880	-0.000040
C38	C	2.015642	0.455120	0.499960
C39	C	1.511837	-0.186511	-0.000053
C40	C	2.011837	0.313489	0.499947
C41	C	1.630843	-0.284198	-0.000043
C42	C	2.130843	0.215802	0.499957
C43	C	1.567964	-0.361551	-0.111952
C44	C	2.067964	0.138449	0.388048
C45	C	1.567923	-0.361516	0.111834
C46	C	2.067923	0.138484	0.611834
C47	C	1.449008	-0.261999	-0.112054
C48	C	1.949008	0.238001	0.387946
C49	C	1.448984	-0.261959	0.111833
C50	C	1.948984	0.238041	0.611833
C51	C	1.386018	-0.339263	-0.000103
C52	C	1.886018	0.160737	0.499897
C53	C	1.741584	0.181057	-0.000040
C54	C	2.241584	0.681057	0.499960
C55	C	1.883215	0.184859	-0.000052
C56	C	2.383215	0.684859	0.499948
C57	C	1.501259	0.421385	-0.000025
C58	C	2.001259	0.921385	0.499975
C59	C	1.505064	0.563016	-0.000022
C60	C	2.005064	1.063016	0.499978
N61	N	1.508439	0.188249	0.353598
N62	N	2.008439	0.688249	0.853598
N63	N	1.508472	0.188245	-0.353660
N64	N	2.008472	0.688245	0.146340
C65	C	1.590122	0.106589	0.578525
C66	C	2.090122	0.606589	1.078525
C67	C	1.590105	0.106591	0.421363
C68	C	2.090105	0.606591	0.921363
H69	H	0.901590	0.409854	-0.000143
H70	H	1.401590	0.909854	0.499857
H71	H	1.660045	0.036683	0.636816
H72	H	2.160045	0.536683	1.136816
F73	F	1.633633	-0.418412	-0.235621
F74	F	2.133633	0.081588	0.264379
H75	H	0.942433	0.074286	0.206446
H76	H	1.442433	0.574286	0.706446
F77	F	1.766142	-0.251955	-0.000191
F78	F	2.266142	0.248045	0.499809
F79	F	1.417089	0.279632	0.570153
F80	F	1.917089	0.779632	1.070153
F81	F	1.417056	0.279626	0.429811
F82	F	1.917056	0.779626	0.929811
H83	H	1.618180	-0.404995	0.206442
H84	H	2.118180	0.095005	0.706442
H85	H	0.942708	0.074309	-0.206783
H86	H	1.442708	0.574309	0.293217
F87	F	1.083948	0.318351	-0.235619
F88	F	1.583948	0.818351	0.264381
H89	H	1.660005	0.036677	0.363046
H90	H	2.160005	0.536677	0.863046
H91	H	1.398803	-0.218689	-0.206770
H92	H	1.898803	0.281311	0.293230
F93	F	1.130255	-0.064677	-0.000191
F94	F	1.630255	0.435323	0.499809
F95	F	1.083859	0.318347	0.235505
F96	F	1.583859	0.818347	0.735505
F97	F	1.250616	-0.371185	-0.000175
F98	F	1.750616	0.128815	0.499825
H99	H	1.398785	-0.218436	0.206452
H100	H	1.898785	0.281564	0.706452
