data_functionalizedCrystal
_audit_creation_method	'MofGen! by Chris Wilmer'
_symmetry_space_group_name_H-M	'P1'
_symmetry_Int_Tables_number	1
_symmetry_cell_setting	triclinic
loop_
_symmetry_equiv_pos_as_xyz
  x,y,z
_cell_length_a	16.959455
_cell_length_b	16.959453
_cell_length_c	18.215399
_cell_angle_alpha	89.971976
_cell_angle_beta	89.979037
_cell_angle_gamma	90.018936
loop_
_atom_site_label
_atom_site_type_symbol
_atom_site_fract_x
_atom_site_fract_y
_atom_site_fract_z
Zn1	Zn	1.208417	-0.314712	-0.416138
Zn2	Zn	1.708417	0.185288	0.083862
Zn3	Zn	1.208330	-0.446897	-0.293071
Zn4	Zn	1.708330	0.053103	0.206929
Zn5	Zn	1.076236	-0.314734	-0.293083
Zn6	Zn	1.576236	0.185266	0.206917
Zn7	Zn	1.076211	-0.446850	-0.416094
Zn8	Zn	1.576211	0.053150	0.083906
O9	O	1.142299	-0.380798	-0.354596
O10	O	1.642299	0.119202	0.145404
O11	O	1.319017	-0.332257	-0.399826
O12	O	1.819017	0.167743	0.100174
O13	O	1.190782	-0.429395	-0.190088
O14	O	1.690782	0.070605	0.309912
O15	O	1.093817	-0.204120	-0.309429
O16	O	1.593817	0.295880	0.190571
O17	O	1.318953	-0.429373	-0.309410
O18	O	1.818953	0.070627	0.190590
O19	O	1.190930	-0.204104	-0.399837
O20	O	1.690930	0.295896	0.100163
O21	O	1.093733	-0.332295	-0.190097
O22	O	1.593733	0.167705	0.309903
O23	O	0.965622	-0.332249	-0.309387
O24	O	1.465622	0.167751	0.190613
O25	O	1.093774	-0.429292	-0.519084
O26	O	1.593774	0.070708	-0.019084
O27	O	0.965603	-0.429314	-0.399762
O28	O	1.465603	0.070686	0.100238
O29	O	1.190906	-0.332211	-0.519116
O30	O	1.690906	0.167789	-0.019116
O31	O	1.190757	-0.557502	-0.309367
O32	O	1.690757	-0.057502	0.190633
O33	O	1.093690	-0.557467	-0.399751
O34	O	1.593690	-0.057467	0.100249
C35	C	0.936932	-0.380779	-0.354571
C36	C	1.436932	0.119221	0.145429
C37	C	0.849076	-0.380790	-0.354578
C38	C	1.349076	0.119210	0.145422
C39	C	1.142233	-0.586165	-0.354569
C40	C	1.642233	-0.086165	0.145431
C41	C	1.142277	-0.674021	-0.354582
C42	C	1.642277	-0.174021	0.145418
C43	C	0.807788	-0.330181	-0.307599
C44	C	1.307788	0.169819	0.192401
C45	C	0.807810	-0.431405	-0.401568
C46	C	1.307810	0.068595	0.098432
C47	C	0.725264	-0.431415	-0.401579
C48	C	1.225264	0.068585	0.098421
C49	C	0.683976	-0.380805	-0.354600
C50	C	1.183976	0.119195	0.145400
C51	C	0.725234	-0.330187	-0.307610
C52	C	1.225234	0.169813	0.192390
C53	C	0.684000	-0.482026	-0.448573
C54	C	1.184000	0.017974	0.051427
C55	C	0.601449	-0.482037	-0.448587
C56	C	1.101449	0.017963	0.051413
C57	C	0.560160	-0.431431	-0.401603
C58	C	1.060160	0.068569	0.098397
C59	C	0.601423	-0.380811	-0.354611
C60	C	1.101423	0.119189	0.145389
C61	C	0.560135	-0.330202	-0.307632
C62	C	1.060135	0.169798	0.192368
C63	C	0.601397	-0.279585	-0.260635
C64	C	1.101397	0.220415	0.239365
C65	C	0.683945	-0.279581	-0.260627
C66	C	1.183945	0.220419	0.239373
C67	C	0.477611	-0.431435	-0.401612
C68	C	0.977611	0.068565	0.098388
C69	C	0.477581	-0.330208	-0.307643
C70	C	0.977581	0.169792	0.192357
C71	C	1.192930	-1.045430	-0.401761
C72	C	1.692930	-0.545430	0.098239
C73	C	1.091888	-1.045564	-0.307541
C74	C	1.591888	-0.545564	0.192459
C75	C	1.091859	-0.963018	-0.307524
C76	C	1.591859	-0.463018	0.192476
C77	C	1.142365	-0.921674	-0.354627
C78	C	1.642365	-0.421674	0.145373
C79	C	1.192901	-0.962876	-0.401747
C80	C	1.692901	-0.462876	0.098253
C81	C	1.041318	-0.921810	-0.260411
C82	C	1.541318	-0.421810	0.239589
C83	C	1.041286	-0.839259	-0.260393
C84	C	1.541286	-0.339259	0.239607
C85	C	1.091797	-0.797913	-0.307492
C86	C	1.591797	-0.297913	0.192508
C87	C	1.142336	-0.839121	-0.354613
C88	C	1.642336	-0.339121	0.145387
C89	C	1.192842	-0.797777	-0.401716
C90	C	1.692842	-0.297777	0.098284
C91	C	1.243385	-0.838982	-0.448834
C92	C	1.743385	-0.338982	0.051166
C93	C	1.243412	-0.921531	-0.448846
C94	C	1.743412	-0.421531	0.051154
C95	C	1.091770	-0.715365	-0.307480
C96	C	1.591770	-0.215365	0.192520
C97	C	1.192812	-0.715223	-0.401702
C98	C	1.692812	-0.215223	0.098298
C99	C	1.348467	-0.380818	-0.354622
C100	C	1.848467	0.119182	0.145378
C101	C	1.436323	-0.380826	-0.354633
C102	C	1.936323	0.119174	0.145367
C103	C	1.142347	-0.380744	-0.546549
C104	C	1.642347	0.119256	-0.046549
C105	C	1.142367	-0.380721	-0.628348
C106	C	1.642367	0.119279	-0.128348
C107	C	1.142386	-0.174630	-0.354639
C108	C	1.642386	0.325370	0.145361
C109	C	1.142424	-0.086773	-0.354658
C110	C	1.642424	0.413227	0.145342
C111	C	1.192962	-0.330123	-0.816560
C112	C	1.692962	0.169877	-0.316560
C113	C	1.192971	-0.330100	-0.893419
C114	C	1.692971	0.169900	-0.393419
C115	C	1.091828	-0.431196	-0.893374
C116	C	1.591828	0.068804	-0.393374
C117	C	1.091816	-0.431214	-0.816517
C118	C	1.591816	0.068786	-0.316517
C119	C	1.142387	-0.380679	-0.778112
C120	C	1.642387	0.119321	-0.278112
C121	C	1.142409	-0.380638	-0.931828
C122	C	1.642409	0.119362	-0.431828
C123	C	1.142419	-0.380613	-1.015162
C124	C	1.642419	0.119387	-0.515162
C125	C	1.142376	-0.380702	-0.694773
C126	C	1.642376	0.119298	-0.194773
C127	C	1.142296	-0.380796	-0.163390
C128	C	1.642296	0.119204	0.336610
C129	C	1.142429	-0.380596	-0.081592
C130	C	1.642429	0.119404	0.418408
H131	H	0.443971	-0.288996	-0.269385
H132	H	0.943971	0.211004	0.230615
C133	C	1.248524	-1.090756	-0.453588
C134	C	1.748524	-0.590756	0.046412
N135	N	1.290398	-1.124896	-0.492625
N136	N	1.790398	-0.624896	0.007375
C137	C	0.853229	-0.487074	-0.453241
C138	C	1.353229	0.012926	0.046759
N139	N	0.887442	-0.529008	-0.492161
N140	N	1.387442	-0.029008	0.007839
C141	C	1.036395	-1.091045	-0.255674
C142	C	1.536395	-0.591045	0.244326
N143	N	0.994621	-1.125304	-0.216583
N144	N	1.494621	-0.625304	0.283417
C145	C	0.432227	-0.487109	-0.453306
C146	C	0.932227	0.012891	0.046694
N147	N	0.398045	-0.529046	-0.492244
N148	N	0.898045	-0.029046	0.007756
C149	C	1.248585	-0.274526	-0.774318
C150	C	1.748585	0.225474	-0.274318
N151	N	1.290479	-0.232646	-0.742502
N152	N	1.790479	0.267354	-0.242502
C153	C	1.298940	-0.793494	-0.500645
C154	C	1.798940	-0.293494	-0.000645
N155	N	1.340784	-0.759228	-0.539668
N156	N	1.840784	-0.259228	-0.039668
C157	C	1.298999	-0.966863	-0.500675
C158	C	1.798999	-0.466863	-0.000675
N159	N	1.340865	-1.001010	-0.539715
N160	N	1.840865	-0.501010	-0.039715
C161	C	0.985682	-0.793940	-0.208569
C162	C	1.485682	-0.293940	0.291431
N163	N	0.943798	-0.759805	-0.169536
N164	N	1.443798	-0.259805	0.330464
H165	H	0.567769	-0.238376	-0.222388
H166	H	1.067769	0.261624	0.277612
C167	C	1.036178	-0.670043	-0.255652
C168	C	1.536178	-0.170043	0.244348
N169	N	0.994305	-0.635907	-0.216611
N170	N	1.494305	-0.135907	0.283389
H171	H	0.717622	-0.523227	-0.486823
H172	H	1.217622	-0.023227	0.013177
C173	C	0.729339	-0.223895	-0.208948
C174	C	1.229339	0.276105	0.291052
N175	N	0.763533	-0.181947	-0.170028
N176	N	1.263533	0.318053	0.329972
C177	C	1.036174	-0.486830	-0.774221
C178	C	1.536174	0.013170	-0.274221
N179	N	0.994264	-0.528716	-0.742364
N180	N	1.494264	-0.028716	-0.242364
H181	H	0.841387	-0.288973	-0.269334
H182	H	1.341387	0.211027	0.230666
H183	H	1.234153	-0.288931	-0.924720
H184	H	1.734153	0.211069	-0.424720
C185	C	0.985858	-0.967292	-0.208515
C186	C	1.485858	-0.467292	0.291485
N187	N	0.944120	-1.001554	-0.169392
N188	N	1.444120	-0.501554	0.330608
C189	C	1.036202	-0.486780	-0.935627
C190	C	1.536202	0.013220	-0.435627
N191	N	0.994302	-0.528647	-0.967451
N192	N	1.494302	-0.028647	-0.467451
C193	C	0.556069	-0.537728	-0.500271
C194	C	1.056069	-0.037728	-0.000271
N195	N	0.521887	-0.579681	-0.539196
N196	N	1.021887	-0.079681	-0.039196
H197	H	1.233944	-0.681566	-0.440056
H198	H	1.733944	-0.181566	0.059944
