data_functionalizedCrystal
_audit_creation_method	'MofGen! by Chris Wilmer'
_symmetry_space_group_name_H-M	'P1'
_symmetry_Int_Tables_number	1
_symmetry_cell_setting	triclinic
loop_
_symmetry_equiv_pos_as_xyz
  x,y,z
_cell_length_a	14.971486
_cell_length_b	16.992695
_cell_length_c	13.448316
_cell_angle_alpha	89.993283
_cell_angle_beta	89.998199
_cell_angle_gamma	87.141176
loop_
_atom_site_label
_atom_site_type_symbol
_atom_site_fract_x
_atom_site_fract_y
_atom_site_fract_z
O1	O	1.194127	0.102190	-0.082578
O2	O	1.694127	0.602190	0.417422
O3	O	0.934587	0.114427	-0.082605
O4	O	1.434587	0.614427	0.417395
O5	O	1.063317	-0.005835	-0.082584
O6	O	1.563317	0.494165	0.417416
O7	O	1.065398	0.222452	-0.082599
O8	O	1.565398	0.722452	0.417401
O9	O	1.063299	-0.005843	0.082800
O10	O	1.563299	0.494157	0.582800
O11	O	0.934569	0.114420	0.082779
O12	O	1.434569	0.614420	0.582779
O13	O	1.194110	0.102182	0.082806
O14	O	1.694110	0.602182	0.582806
Cu15	Cu	1.064338	0.108300	0.097893
Cu16	Cu	1.564338	0.608300	0.597893
Cu17	Cu	1.064359	0.108309	-0.097692
Cu18	Cu	1.564359	0.608309	0.402308
O19	O	1.065380	0.222445	0.082785
O20	O	1.565380	0.722445	0.582785
C21	C	0.901215	0.113876	0.000083
C22	C	1.401215	0.613876	0.500083
C23	C	0.801803	0.112236	0.000073
C24	C	1.301803	0.612236	0.500073
C25	C	1.060631	-0.035054	0.000108
C26	C	1.560631	0.464946	0.500108
C27	C	1.052644	-0.122105	0.000107
C28	C	1.552644	0.377895	0.500107
C29	C	0.749541	0.182887	0.000070
C30	C	1.249541	0.682887	0.500070
C31	C	0.656133	0.181341	0.000085
C32	C	1.156133	0.681341	0.500085
C33	C	0.614988	0.109144	0.000096
C34	C	1.114988	0.609144	0.500096
C35	C	0.667257	0.038488	0.000102
C36	C	1.167257	0.538488	0.500102
C37	C	0.760663	0.040034	0.000095
C38	C	1.260663	0.540034	0.500095
C39	C	0.472568	0.035269	0.000116
C40	C	0.972568	0.535269	0.500116
C41	C	0.379155	0.033723	0.000122
C42	C	0.879155	0.533723	0.500122
C43	C	0.368038	0.176577	0.000106
C44	C	0.868038	0.676577	0.500106
C45	C	0.461445	0.178123	0.000099
C46	C	0.961445	0.678123	0.500099
C47	C	0.513707	0.107466	0.000103
C48	C	1.013707	0.607466	0.500103
C49	C	1.129708	-0.172274	0.000116
C50	C	1.629708	0.327726	0.500116
C51	C	1.122198	-0.254067	0.000106
C52	C	1.622198	0.245933	0.500106
C53	C	1.037623	-0.285691	0.000093
C54	C	1.537623	0.214309	0.500093
C55	C	0.960553	-0.235517	0.000081
C56	C	1.460553	0.264483	0.500081
C57	C	0.968064	-0.153724	0.000084
C58	C	1.468064	0.346276	0.500084
C59	C	1.006493	-0.529318	0.000076
C60	C	1.506493	-0.029318	0.500076
C61	C	0.998988	-0.611117	0.000076
C62	C	1.498988	-0.111117	0.500076
C63	C	1.160634	-0.629662	0.000099
C64	C	1.660634	-0.129662	0.500099
C65	C	1.168138	-0.547867	0.000108
C66	C	1.668138	-0.047867	0.500108
C67	C	1.091068	-0.497700	0.000090
C68	C	1.591068	0.002300	0.500090
N69	N	1.029945	-0.369297	0.000086
N70	N	1.529945	0.130703	0.500086
N71	N	1.098747	-0.414095	0.000091
N72	N	1.598747	0.085905	0.500091
C73	C	1.227482	0.102733	0.000115
C74	C	1.727482	0.602733	0.500115
C75	C	1.326894	0.104373	0.000119
C76	C	1.826894	0.604373	0.500119
C77	C	1.068066	0.251664	0.000091
C78	C	1.568066	0.751664	0.500091
C79	C	1.076053	0.338715	0.000085
C80	C	1.576053	0.838715	0.500085
N81	N	1.064329	0.108294	0.235457
N82	N	1.564329	0.608294	0.735457
N83	N	1.064374	0.108310	-0.235257
N84	N	1.564374	0.608310	0.264743
C85	C	1.121351	0.055064	0.287507
C86	C	1.621351	0.555064	0.787507
C87	C	1.121357	0.055063	0.391611
C88	C	1.621357	0.555063	0.891611
C89	C	1.064344	0.108297	0.443662
C90	C	1.564344	0.608297	0.943662
C91	C	1.007316	0.161530	0.391605
C92	C	1.507316	0.661530	0.891605
C93	C	1.007307	0.161526	0.287504
C94	C	1.507307	0.661526	0.787504
C95	C	1.007341	0.161535	0.608585
C96	C	1.507341	0.661535	1.108585
C97	C	1.007352	0.161540	0.712694
C98	C	1.507352	0.661540	1.212694
C99	C	1.121392	0.055072	0.712692
C100	C	1.621392	0.555072	1.212692
C101	C	1.121382	0.055068	0.608591
C102	C	1.621382	0.555068	1.108591
C103	C	1.064355	0.108302	0.556541
C104	C	1.564355	0.608302	1.056541
H105	H	0.783034	0.241679	0.000060
H106	H	1.283034	0.741679	0.500060
H107	H	0.960901	0.204881	0.566209
H108	H	1.460901	0.704881	1.066209
N109	N	1.259358	-0.513760	0.000127
N110	N	1.759358	-0.013760	0.500127
H111	H	1.307040	-0.557954	0.000131
H112	H	1.807040	-0.057954	0.500131
H113	H	1.266004	-0.480220	-0.061179
H114	H	1.766004	0.019780	0.438821
H115	H	0.930114	-0.636861	0.000082
H116	H	1.430114	-0.136861	0.500082
N117	N	1.182869	-0.002347	0.552443
N118	N	1.682869	0.497653	1.052443
H119	H	1.224608	0.027678	0.509239
H120	H	1.724608	0.527678	1.009239
H121	H	1.218937	-0.036059	0.601272
H122	H	1.718937	0.463941	1.101272
H123	H	1.167781	0.011718	0.245134
H124	H	1.667781	0.511718	0.745134
N125	N	0.311707	0.252804	0.000176
N126	N	0.811707	0.752804	0.500176
H127	H	0.325519	0.284326	-0.061118
H128	H	0.825519	0.784326	0.438882
H129	H	0.246304	0.240837	0.000247
H130	H	0.746304	0.740837	0.500247
N131	N	1.182892	-0.002331	0.447736
N132	N	1.682892	0.497669	0.947736
H133	H	1.168643	-0.058009	0.429634
H134	H	1.668643	0.441991	0.929634
H135	H	1.246984	0.006892	0.429561
H136	H	1.746984	0.506892	0.929561
H137	H	0.960891	0.204871	0.433991
H138	H	1.460891	0.704871	0.933991
H139	H	1.167825	0.011727	0.755077
H140	H	1.667825	0.511727	1.255077
H141	H	1.223380	-0.670517	0.000111
H142	H	1.723380	-0.170517	0.500111
N143	N	0.599765	0.257543	0.000193
N144	N	1.099765	0.757543	0.500193
H145	H	0.640003	0.303514	0.000216
H146	H	1.140003	0.803514	0.500216
H147	H	0.560718	0.260074	-0.061075
H148	H	1.060718	0.760074	0.438925
H149	H	0.943737	-0.488481	0.000063
H150	H	1.443737	0.011519	0.500063
N151	N	0.334777	-0.044147	0.000166
N152	N	0.834777	0.455853	0.500166
H153	H	0.267675	-0.034402	0.000171
H154	H	0.767675	0.465598	0.500171
H155	H	0.353524	-0.075081	-0.061132
H156	H	0.853524	0.424919	0.438868
N157	N	0.945800	0.218934	0.231359
N158	N	1.445800	0.718934	0.731359
H159	H	0.909684	0.252659	0.280128
H160	H	1.409684	0.752659	0.780128
H161	H	0.982512	0.253650	0.188150
H162	H	1.482512	0.753650	0.688150
H163	H	0.515117	-0.022267	0.000121
H164	H	1.015117	0.477733	0.500121
N165	N	0.945871	0.218962	0.768839
N166	N	1.445871	0.718962	1.268839
H167	H	0.909741	0.252683	0.720071
H168	H	1.409741	0.752683	1.220071
H169	H	0.904190	0.188888	0.812052
H170	H	1.404190	0.688888	1.312052
N171	N	0.622874	-0.039379	0.000126
N172	N	1.122874	0.460621	0.500126
H173	H	0.584366	-0.043205	-0.061178
H174	H	1.084366	0.456795	0.438822
H175	H	0.670206	-0.083859	0.000169
H176	H	1.170206	0.416141	0.500169
H177	H	0.494942	0.236912	0.000080
H178	H	0.994942	0.736912	0.500080
H179	H	1.198578	-0.146533	0.000132
H180	H	1.698578	0.353467	0.500132
N181	N	0.817035	-0.036167	0.000106
N182	N	1.317035	0.463833	0.500106
H183	H	0.776798	-0.082139	0.000113
H184	H	1.276798	0.417861	0.500113
H185	H	0.856033	-0.038638	-0.061204
H186	H	1.356033	0.461362	0.438796
H187	H	1.184952	-0.294912	0.000115
H188	H	1.684952	0.205088	0.500115
N189	N	0.869331	-0.269620	0.000062
N190	N	1.369331	0.230380	0.500062
H191	H	0.876265	-0.329048	0.000065
H192	H	1.376265	0.170952	0.500065
H193	H	0.835343	-0.251278	0.061367
H194	H	1.335343	0.248722	0.561367
H195	H	0.905310	-0.112878	0.000077
H196	H	1.405310	0.387122	0.500077
