data_functionalizedCrystal
_audit_creation_method	'MofGen! by Chris Wilmer'
_symmetry_space_group_name_H-M	'P1'
_symmetry_Int_Tables_number	1
_symmetry_cell_setting	triclinic
loop_
_symmetry_equiv_pos_as_xyz
  x,y,z
_cell_length_a	12.759401
_cell_length_b	10.685194
_cell_length_c	12.759386
_cell_angle_alpha	85.566478
_cell_angle_beta	89.958492
_cell_angle_gamma	94.377401
loop_
_atom_site_label
_atom_site_type_symbol
_atom_site_fract_x
_atom_site_fract_y
_atom_site_fract_z
Zn1	Zn	1.574495	-0.501957	-0.561927
Zn2	Zn	1.560855	-0.713154	-0.372760
Zn3	Zn	1.398715	-0.502141	-0.386255
Zn4	Zn	1.385336	-0.712940	-0.548416
O5	O	1.479850	-0.607548	-0.467340
O6	O	1.719706	-0.529986	-0.536841
O7	O	1.539238	-0.685330	-0.227519
O8	O	1.433340	-0.325510	-0.420860
O9	O	1.709685	-0.685152	-0.397861
O10	O	1.562485	-0.325375	-0.549926
O11	O	1.420114	-0.530299	-0.237433
O12	O	1.249920	-0.530091	-0.407759
O13	O	1.410537	-0.684786	-0.697240
O14	O	1.240090	-0.684964	-0.526898
O15	O	1.549512	-0.529778	-0.707167
O16	O	1.526265	-0.889733	-0.384759
O17	O	1.397312	-0.889575	-0.513813
C18	C	1.206884	-0.607525	-0.467327
C19	C	1.090106	-0.607545	-0.467344
C20	C	1.030145	-0.688317	-0.529261
C21	C	0.920420	-0.688333	-0.529271
C22	C	0.930627	-0.526802	-0.405440
C23	C	1.040351	-0.526781	-0.405436
C24	C	1.024252	-0.781579	-0.600750
C25	C	0.914526	-0.781595	-0.600761
C26	C	1.458885	-0.935446	-0.446378
C27	C	1.450012	-1.075722	-0.437446
C28	C	1.753882	-0.607572	-0.467353
C29	C	1.870658	-0.607583	-0.467359
C30	C	1.480054	-0.607237	-0.741393
C31	C	1.480140	-0.607105	-0.858179
C32	C	1.500926	-0.278370	-0.488406
C33	C	1.509907	-0.138094	-0.497383
C34	C	1.479714	-0.607767	-0.194358
C35	C	1.479853	-0.607544	-0.077596
C36	C	1.408025	-0.688725	-0.017239
C37	C	1.408166	-0.688503	0.092470
C38	C	1.551972	-0.525915	0.081457
C39	C	1.551826	-0.526131	-0.028251
C40	C	1.325002	-0.782598	-0.010880
C41	C	1.325143	-0.782376	0.098830
H42	H	0.890102	-0.461046	-0.355038
H43	H	1.567976	-1.084180	-0.555536
H44	H	1.341376	-0.879853	0.135014
Cl45	Cl	1.360339	-1.158964	-0.347667
H46	H	1.610308	-0.460016	-0.077391
H47	H	1.610569	-0.459630	0.121646
Cl48	Cl	0.858884	-0.932472	-0.557229
Cl49	Cl	0.865514	-0.727651	-0.723626
H50	H	1.245066	-0.757187	-0.042179
Cl51	Cl	1.208945	-0.729256	0.148095
Cl52	Cl	1.115729	-0.425213	-0.327616
Cl53	Cl	1.072903	-0.741253	-0.729007
H54	H	1.052337	-0.874397	-0.565538
H55	H	1.348738	-0.875257	-0.038840
