data_functionalizedCrystal
_audit_creation_method	'MofGen! by Chris Wilmer'
_symmetry_space_group_name_H-M	'P1'
_symmetry_Int_Tables_number	1
_symmetry_cell_setting	triclinic
loop_
_symmetry_equiv_pos_as_xyz
  x,y,z
_cell_length_a	15.995300
_cell_length_b	15.995350
_cell_length_c	12.996460
_cell_angle_alpha	89.996086
_cell_angle_beta	89.992829
_cell_angle_gamma	83.482091
loop_
_atom_site_label
_atom_site_type_symbol
_atom_site_fract_x
_atom_site_fract_y
_atom_site_fract_z
O1	O	1.111013	0.107727	-0.085599
O2	O	0.867232	0.121099	-0.085593
O3	O	0.995786	-0.007476	-0.085595
O4	O	0.982459	0.236302	-0.085597
O5	O	0.995773	-0.007483	0.085539
O6	O	0.867219	0.121092	0.085541
O7	O	1.111000	0.107720	0.085534
Cu8	Cu	0.989108	0.114405	0.101164
Cu9	Cu	0.989124	0.114414	-0.101222
O10	O	0.982445	0.236295	0.085537
C11	C	0.836030	0.120550	-0.000025
C12	C	0.743077	0.118915	-0.000022
C13	C	0.572894	0.115896	-0.000030
C14	C	0.525428	0.207443	-0.000028
C15	C	0.428740	0.205773	-0.000420
C16	C	0.405337	0.112924	-0.000037
C17	C	0.446478	0.067508	-0.097570
C18	C	0.543111	0.069824	-0.097649
C19	C	0.543375	0.068461	0.096969
C20	C	0.446431	0.068469	0.098248
C21	C	0.310642	0.111239	-0.000044
C22	C	0.667590	0.117577	-0.000030
C23	C	0.995229	-0.038674	-0.000030
C24	C	0.993577	-0.131624	-0.000036
C25	C	0.987644	-0.469370	-0.000032
C26	C	0.896090	-0.421920	-0.000414
C27	C	0.897743	-0.325230	-0.000028
C28	C	0.990587	-0.301810	-0.000035
C29	C	1.035737	-0.342900	0.097688
C30	C	1.033437	-0.439535	0.097770
C31	C	1.035344	-0.439886	-0.096841
C32	C	1.035322	-0.342940	-0.098133
C33	C	0.992255	-0.207113	-0.000033
C34	C	0.985979	-0.564068	-0.000028
C35	C	1.142202	0.108269	-0.000036
C36	C	1.235154	0.109904	-0.000045
C37	C	0.983003	0.267493	-0.000030
C38	C	0.984655	0.360443	-0.000031
N39	N	0.989103	0.114399	0.243511
N40	N	0.989135	0.114414	-0.243569
C41	C	0.989122	0.114415	0.663325
C42	C	0.989115	0.114413	0.546520
C43	C	0.989113	0.114408	0.453422
C44	C	0.989104	0.114405	0.336609
H45	H	0.432378	-0.000716	-0.100922
N46	N	0.996388	-0.307318	0.188938
N47	N	1.023285	-0.331843	0.275366
H48	H	0.995491	-0.306715	0.339811
N49	N	0.850199	-0.445153	-0.088336
N50	N	0.884429	-0.496957	-0.151742
H51	H	0.852020	-0.513369	-0.213843
N52	N	0.583246	-0.016211	0.098180
N53	N	0.568141	-0.064802	0.169431
H54	H	0.596302	-0.124600	0.170280
H55	H	0.859654	-0.441510	0.069277
H56	H	0.563869	0.098598	0.170917
H57	H	0.561436	0.102562	-0.170833
H58	H	0.575385	0.002600	-0.101816
H59	H	0.862251	-0.296798	-0.070079
N60	N	0.852905	-0.290275	0.088007
N61	N	0.820299	-0.337300	0.149358
H62	H	0.788632	-0.312615	0.211539
N63	N	0.992120	-0.462484	0.189417
N64	N	0.965179	-0.407156	0.252872
H65	H	0.935996	-0.423358	0.317600
N66	N	1.117761	-0.479999	0.103340
N67	N	1.178120	-0.436842	0.107162
H68	H	1.237674	-0.465415	0.111103
N69	N	0.410899	0.106603	-0.188963
N70	N	0.355256	0.167903	-0.182521
H71	H	0.330128	0.195519	-0.247065
N72	N	0.997817	-0.465652	-0.189764
N73	N	0.994337	-0.542058	-0.207010
H74	H	0.967828	-0.560258	-0.272633
H75	H	1.103947	-0.328787	0.101317
H76	H	0.431092	0.000775	0.104426
H77	H	1.002312	-0.315683	-0.170426
H78	H	0.419085	0.101634	0.170404
H79	H	0.400272	0.241460	0.069480
H80	H	1.103029	-0.327590	-0.104038
H81	H	1.102846	-0.471659	-0.097503
H82	H	0.543914	0.244231	0.069902
H83	H	0.545042	0.243689	-0.069865
H84	H	0.400898	0.241312	-0.070743
