data_functionalizedCrystal
_audit_creation_method	'MofGen! by Chris Wilmer'
_symmetry_space_group_name_H-M	'P1'
_symmetry_Int_Tables_number	1
_symmetry_cell_setting	triclinic
loop_
_symmetry_equiv_pos_as_xyz
  x,y,z
_cell_length_a	14.971486
_cell_length_b	23.532407
_cell_length_c	13.448316
_cell_angle_alpha	89.988737
_cell_angle_beta	89.998199
_cell_angle_gamma	83.231404
loop_
_atom_site_label
_atom_site_type_symbol
_atom_site_fract_x
_atom_site_fract_y
_atom_site_fract_z
O1	O	1.186163	0.074216	-0.082588
O2	O	0.925669	0.083104	-0.082616
O3	O	1.063771	-0.004238	-0.082583
O4	O	1.048061	0.161558	-0.082621
O5	O	1.063754	-0.004243	0.082801
O6	O	0.925652	0.083099	0.082767
O7	O	1.186146	0.074211	0.082796
Cu8	Cu	1.055897	0.078654	0.097882
Cu9	Cu	1.055918	0.078661	-0.097703
O10	O	1.048044	0.161553	0.082763
C11	C	0.892340	0.082704	0.000072
C12	C	0.793056	0.081513	0.000062
C13	C	1.063363	-0.025458	0.000111
C14	C	1.062160	-0.088680	0.000119
C15	C	0.735288	0.132824	0.000052
C16	C	0.642001	0.131701	0.000067
C17	C	0.606482	0.079267	0.000085
C18	C	0.664257	0.027952	0.000099
C19	C	0.757543	0.029075	0.000091
C20	C	0.469819	0.025615	0.000113
C21	C	0.376527	0.024491	0.000119
C22	C	0.354277	0.128241	0.000089
C23	C	0.447563	0.129364	0.000081
C24	C	0.505331	0.078049	0.000093
C25	C	1.136342	-0.487466	0.000072
C26	C	1.135224	-0.546871	0.000065
O27	O	1.203992	-0.583321	0.000035
N28	N	1.053123	-0.569849	0.000056
C29	C	0.972133	-0.533418	0.000046
O30	O	0.902196	-0.558417	0.000037
C31	C	0.973251	-0.474014	0.000046
C32	C	1.055358	-0.451040	0.000065
C33	C	1.218442	-0.464491	0.000090
C34	C	1.219559	-0.405090	0.000099
C35	C	1.138576	-0.368664	0.000091
C36	C	1.056475	-0.391639	0.000074
C37	C	0.892263	-0.437584	0.000029
C38	C	0.893388	-0.378177	0.000028
C39	C	0.975495	-0.355203	0.000047
C40	C	0.976609	-0.295812	0.000076
N41	N	1.058711	-0.272834	0.000084
C42	C	1.139694	-0.309260	0.000092
C43	C	0.969791	-0.658170	0.000043
C44	C	0.968671	-0.717573	0.000049
C45	C	1.131763	-0.731022	0.000066
C46	C	1.132882	-0.671618	0.000067
C47	C	1.051892	-0.635193	0.000051
C48	C	1.142034	-0.184513	0.000113
C49	C	1.143143	-0.125106	0.000126
C50	C	0.980052	-0.111663	0.000104
C51	C	0.978942	-0.171064	0.000096
C52	C	1.059940	-0.207489	0.000097
O53	O	0.907878	-0.259327	0.000101
O54	O	1.209619	-0.284253	0.000087
C55	C	1.219475	0.074611	0.000105
C56	C	1.318760	0.075802	0.000109
C57	C	1.048453	0.182773	0.000066
C58	C	1.049655	0.245996	0.000052
N59	N	1.055890	0.078650	0.235447
N60	N	1.055933	0.078661	-0.235267
C61	C	1.117060	0.039991	0.287502
C62	C	1.117066	0.039990	0.391605
C63	C	1.055904	0.078652	0.443651
C64	C	0.994728	0.117313	0.391589
C65	C	0.994718	0.117310	0.287488
C66	C	0.994752	0.117317	0.608569
C67	C	0.994762	0.117320	0.712678
C68	C	1.117100	0.039997	0.712686
C69	C	1.117090	0.039994	0.608585
C70	C	1.055914	0.078656	0.556530
H71	H	0.764199	0.175522	0.000036
C72	C	1.183535	-0.002044	0.552255
C73	C	1.237096	-0.035913	0.620121
C74	C	1.298305	-0.074651	0.568266
H75	H	1.220662	0.018415	0.511626
H76	H	1.151590	-0.025817	0.511682
H77	H	1.269038	-0.012144	0.660677
H78	H	1.199994	-0.056385	0.660752
H79	H	1.266360	-0.098424	0.527693
H80	H	1.335425	-0.054186	0.527638
H81	H	1.334647	-0.097639	0.614305
C82	C	0.889824	-0.196042	0.000289
C83	C	0.884392	-0.229757	0.085377
C84	C	0.802303	-0.252764	0.085585
H85	H	0.885913	-0.218963	-0.057324
H86	H	0.841729	-0.165852	0.000343
H87	H	0.932473	-0.259943	0.085313
H88	H	0.888286	-0.206849	0.143004
H89	H	0.754208	-0.222574	0.085639
H90	H	0.798399	-0.275682	0.027968
H91	H	0.798603	-0.275638	0.143320
C92	C	0.928408	0.159376	0.231019
C93	C	0.942427	0.215357	0.256292
C94	C	0.881363	0.254122	0.204284
H95	H	0.868734	0.153205	0.248049
H96	H	0.937164	0.153875	0.161557
H97	H	0.933664	0.220855	0.325739
H98	H	1.002089	0.221546	0.239259
H99	H	0.890119	0.248622	0.134822
H100	H	0.821692	0.247946	0.221319
H101	H	0.890872	0.292109	0.221418
H102	H	1.286419	-0.386390	0.000110
H103	H	0.307237	0.170023	0.000084
H104	H	0.825402	-0.456279	0.000008
H105	H	0.914118	-0.081994	0.000101
C106	C	0.338136	-0.032494	0.000192
C107	C	0.408690	-0.077194	0.000233
C108	C	0.373359	-0.129697	0.000312
H109	H	0.302222	-0.035169	-0.057464
H110	H	0.302231	-0.035117	0.057889
H111	H	0.444579	-0.074572	-0.057459
H112	H	0.444610	-0.074538	0.057885
H113	H	0.337455	-0.132320	0.058009
H114	H	0.337445	-0.132365	-0.057345
H115	H	0.421224	-0.160032	0.000349
C116	C	0.928280	0.159197	0.448223
C117	C	0.873826	0.128803	0.508032
C118	C	0.812613	0.167369	0.560226
H119	H	0.891758	0.182237	0.402426
H120	H	0.960223	0.182931	0.488874
H121	H	0.841885	0.105079	0.467384
H122	H	0.910323	0.105765	0.553848
H123	H	0.844556	0.191103	0.600877
H124	H	0.776097	0.190407	0.514421
H125	H	0.775664	0.146753	0.600818
H126	H	0.827435	-0.348522	0.000014
H127	H	0.516853	-0.016172	0.000124
C128	C	1.306472	-0.503939	0.000154
C129	C	1.378600	-0.471091	0.000193
C130	C	1.459712	-0.507406	0.000275
H131	H	1.309574	-0.527401	-0.057501
H132	H	1.309472	-0.527387	0.057853
H133	H	1.375602	-0.447652	-0.057500
H134	H	1.375528	-0.447630	0.057843
H135	H	1.462711	-0.530855	0.057974
H136	H	1.462805	-0.530867	-0.057381
H137	H	1.508660	-0.485125	0.000311
H138	H	0.594969	0.173484	0.000057
C139	C	1.183506	-0.002050	0.231179
C140	C	1.237060	-0.035917	0.299054
C141	C	1.298272	-0.074658	0.247209
H142	H	1.220638	0.018407	0.190551
H143	H	1.151564	-0.025824	0.190606
H144	H	1.269001	-0.012146	0.339610
H145	H	1.199954	-0.056386	0.339684
H146	H	1.266329	-0.098432	0.206636
H147	H	1.335397	-0.054196	0.206583
H148	H	1.334610	-0.097644	0.293254
C149	C	1.222118	-0.646788	0.000024
C150	C	1.292794	-0.691410	0.000008
C151	C	1.375015	-0.668562	-0.000049
H152	H	1.226073	-0.623907	0.057679
H153	H	1.226001	-0.623907	-0.057674
H154	H	1.288914	-0.714281	0.057701
H155	H	1.288869	-0.714294	-0.057643
H156	H	1.378898	-0.645681	-0.057748
H157	H	1.378961	-0.645681	0.057607
H158	H	1.422979	-0.698834	-0.000069
C159	C	0.625871	-0.029035	0.000165
C160	C	0.696432	-0.073731	0.000198
C161	C	0.661108	-0.126237	0.000268
H162	H	0.589957	-0.031709	-0.057491
H163	H	0.589969	-0.031664	0.057863
H164	H	0.732319	-0.071104	-0.057494
H165	H	0.732352	-0.071077	0.057850
H166	H	0.625206	-0.128866	0.057965
H167	H	0.625195	-0.128904	-0.057389
H168	H	0.708978	-0.156569	0.000299
H169	H	0.476478	0.172060	0.000057
H170	H	0.804577	-0.012707	0.000098
H171	H	1.166875	0.008511	0.433988
H172	H	1.197704	-0.760691	0.000069
H173	H	0.903835	-0.628515	0.000038
C174	C	1.229906	-0.224121	0.000275
C175	C	1.234014	-0.258639	0.085345
C176	C	1.314942	-0.295137	0.085528
H177	H	1.279030	-0.201994	0.000339
H178	H	1.232883	-0.247600	-0.057370
H179	H	1.231045	-0.235163	0.142976
H180	H	1.184909	-0.280778	0.085299
H181	H	1.317919	-0.318617	0.027883
H182	H	1.364059	-0.273006	0.085590
H183	H	1.317736	-0.318566	0.143243
H184	H	1.166911	0.008517	0.755076
H185	H	0.944958	0.148802	0.755048
H186	H	1.210008	-0.106405	0.000144
H187	H	0.944933	0.148797	0.566189
H188	H	0.901812	-0.736273	0.000052
