data_functionalizedCrystal
_audit_creation_method	'MofGen! by Chris Wilmer'
_symmetry_space_group_name_H-M	'P1'
_symmetry_Int_Tables_number	1
_symmetry_cell_setting	triclinic
loop_
_symmetry_equiv_pos_as_xyz
  x,y,z
_cell_length_a	15.995343
_cell_length_b	16.992695
_cell_length_c	15.455313
_cell_angle_alpha	87.152573
_cell_angle_beta	87.316795
_cell_angle_gamma	92.921297
loop_
_atom_site_label
_atom_site_type_symbol
_atom_site_fract_x
_atom_site_fract_y
_atom_site_fract_z
O1	O	1.121193	-0.097608	-0.072172
O2	O	1.621193	0.402392	0.427828
O3	O	0.878252	-0.110095	-0.072165
O4	O	1.378252	0.389905	0.427835
O5	O	0.998748	0.010291	-0.072162
O6	O	1.498748	0.510291	0.427838
O7	O	1.000697	-0.217994	-0.072175
O8	O	1.500697	0.282006	0.427825
O9	O	0.991856	0.003435	0.072100
O10	O	1.491856	0.503435	0.572100
O11	O	0.871360	-0.116951	0.072097
O12	O	1.371360	0.383049	0.572097
O13	O	1.114301	-0.104464	0.072090
O14	O	1.614301	0.395536	0.572090
Cu15	Cu	0.992201	-0.111333	0.085266
Cu16	Cu	1.492201	0.388667	0.585266
Cu17	Cu	1.000352	-0.103225	-0.085341
Cu18	Cu	1.500352	0.396775	0.414659
O19	O	0.993804	-0.224849	0.072086
O20	O	1.493804	0.275151	0.572086
C21	C	0.843577	-0.113008	-0.000033
C22	C	1.343577	0.386992	0.499967
C23	C	0.750522	-0.111464	-0.000030
C24	C	1.250522	0.388536	0.499970
C25	C	0.992796	0.036076	-0.000031
C26	C	1.492796	0.536076	0.499969
C27	C	0.985320	0.123119	-0.000031
C28	C	1.485320	0.623119	0.499969
C29	C	1.148976	-0.101551	-0.000044
C30	C	1.648976	0.398449	0.499956
C31	C	1.242031	-0.103095	-0.000052
C32	C	1.742031	0.396905	0.499948
C33	C	1.412404	-0.105898	-0.000045
C34	C	1.912404	0.394102	0.499955
C35	C	1.441565	-0.192798	-0.000051
C36	C	1.941565	0.307202	0.499949
C37	C	1.538337	-0.194449	0.000279
C38	C	2.038337	0.305551	0.500279
C39	C	1.580149	-0.108660	-0.000038
C40	C	2.080149	0.391340	0.499962
C41	C	1.544211	-0.068872	0.082182
C42	C	2.044211	0.431128	0.582182
C43	C	1.447346	-0.067845	0.082248
C44	C	1.947346	0.432155	0.582248
C45	C	1.455177	-0.058776	-0.081810
C46	C	1.955177	0.441224	0.418190
C47	C	1.551939	-0.061932	-0.082888
C48	C	2.051939	0.438068	0.417112
C49	C	1.674951	-0.110216	-0.000032
C50	C	2.174951	0.389784	0.499968
C51	C	1.317602	-0.104340	-0.000046
C52	C	1.817602	0.395660	0.499954
C53	C	0.999756	-0.250634	-0.000046
C54	C	1.499756	0.249366	0.499954
C55	C	1.007233	-0.337678	-0.000052
C56	C	1.507233	0.162322	0.499948
N57	N	0.986474	-0.117035	0.205261
N58	N	1.486474	0.382965	0.705261
C59	C	1.057456	0.173362	-0.000032
C60	C	1.557456	0.673362	0.499968
C61	C	1.050426	0.255149	-0.000040
C62	C	1.550426	0.755149	0.499960
C63	C	0.971260	0.286691	-0.000041
C64	C	1.471260	0.786691	0.499959
C65	C	0.899120	0.236443	-0.000042
C66	C	1.399120	0.736443	0.499958
C67	C	0.906150	0.154658	-0.000040
C68	C	1.406150	0.654658	0.499960
C69	C	0.942123	0.530289	-0.000052
C70	C	1.442123	1.030289	0.499948
C71	C	0.935097	0.612080	-0.000051
C72	C	1.435097	1.112080	0.499949
C73	C	1.086405	0.630781	-0.000050
C74	C	1.586405	1.130781	0.499950
C75	C	1.093428	0.548993	-0.000043
C76	C	1.593428	1.048993	0.499957
C77	C	1.021287	0.498752	-0.000049
C78	C	1.521287	0.998752	0.499951
N79	N	0.964073	0.370290	-0.000046
N80	N	1.464073	0.870290	0.499954
N81	N	1.028476	0.415155	-0.000050
N82	N	1.528476	0.915155	0.499950
N83	N	1.006085	-0.097517	-0.205336
N84	N	1.506085	0.402483	0.294664
C85	C	1.037685	-0.065910	0.250657
C86	C	1.537685	0.434090	0.750657
C87	C	1.033362	-0.070229	0.341464
C88	C	1.533362	0.429771	0.841464
C89	C	0.977832	-0.125679	0.386875
C90	C	1.477832	0.374321	0.886875
C91	C	0.926615	-0.176806	0.341473
C92	C	1.426615	0.323194	0.841473
C93	C	0.930934	-0.172482	0.250667
C94	C	1.430934	0.327518	0.750667
C95	C	0.959187	-0.144321	0.658456
C96	C	1.459187	0.355679	1.158456
C97	C	0.954874	-0.148642	0.749268
C98	C	1.454874	0.351358	1.249268
C99	C	1.061621	-0.042064	0.749253
C100	C	1.561621	0.457936	1.249253
C101	C	1.065938	-0.037748	0.658446
C102	C	1.565938	0.462252	1.158446
C103	C	1.014718	-0.088873	0.613052
C104	C	1.514718	0.411127	1.113052
N105	N	0.973414	-0.130097	0.479695
N106	N	1.473414	0.369903	0.979695
N107	N	1.019133	-0.084451	0.520233
N108	N	1.519133	0.415549	1.020233
H109	H	1.418628	-0.223678	-0.059005
H110	H	1.918628	0.276322	0.440995
H111	H	1.075062	-0.028599	0.378425
H112	H	1.575062	0.471401	0.878425
O113	O	0.864310	0.476114	-0.000046
O114	O	1.364310	0.976114	0.499954
H115	H	0.866689	0.441201	-0.058849
H116	H	1.366689	0.941201	0.441151
O117	O	0.828348	0.100461	-0.000030
O118	O	1.328348	0.600461	0.499970
H119	H	0.772117	0.136132	-0.000020
H120	H	1.272117	0.636132	0.499980
O121	O	1.410606	-0.111349	0.163956
O122	O	1.910606	0.388651	0.663956
H123	H	1.462055	-0.132925	0.203049
H124	H	1.962055	0.367075	0.703049
O125	O	0.866728	-0.236618	0.390452
O126	O	1.366728	0.263382	0.890452
H127	H	0.831840	-0.271440	0.343627
H128	H	1.331840	0.228560	0.843627
H129	H	1.145137	0.671696	-0.000047
H130	H	1.645137	1.171696	0.499953
H131	H	1.580944	0.000906	-0.088095
H132	H	2.080944	0.500906	0.411905
O133	O	1.422159	0.016342	0.086909
O134	O	1.922159	0.516342	0.586909
H135	H	1.479154	0.056140	0.089113
H136	H	1.979154	0.556140	0.589113
O137	O	0.849704	0.646098	-0.000045
O138	O	1.349704	1.146098	0.499955
H139	H	0.856938	0.711409	-0.000031
H140	H	1.356938	1.211409	0.499969
O141	O	1.580628	0.014563	0.085953
O142	O	2.080628	0.514563	0.585953
H143	H	1.624836	0.028591	0.029130
H144	H	2.124836	0.528591	0.529130
H145	H	1.411987	-0.228732	0.058816
H146	H	1.911987	0.271268	0.558816
H147	H	1.082908	-0.020761	0.213689
H148	H	1.582908	0.479239	0.713689
H149	H	0.834661	0.262131	-0.000048
H150	H	1.334661	0.762131	0.499952
H151	H	1.103320	-0.000440	0.786221
H152	H	1.603320	0.499560	1.286221
H153	H	1.563378	-0.101772	0.143598
H154	H	2.063378	0.398228	0.643598
H155	H	1.556223	-0.231314	0.059555
H156	H	2.056223	0.268686	0.559555
H157	H	1.436917	0.005225	-0.082601
H158	H	1.936917	0.505225	0.417399
O159	O	0.903954	-0.199471	0.609505
O160	O	1.403954	0.300529	1.109505
H161	H	0.863010	-0.164479	0.568157
H162	H	1.363010	0.335521	1.068157
H163	H	1.157893	0.523318	-0.000043
H164	H	1.657893	1.023318	0.499957
O165	O	1.125824	0.022064	0.609466
O166	O	1.625824	0.522064	1.109466
H167	H	1.160703	0.056896	0.656289
H168	H	1.660703	0.556896	1.156289
H169	H	0.889231	-0.214113	0.213706
H170	H	1.389231	0.285887	0.713706
O171	O	1.570296	-0.236054	-0.077768
O172	O	2.070296	0.263946	0.422232
H173	H	1.516612	-0.255176	-0.116087
H174	H	2.016612	0.244824	0.383913
O175	O	1.424115	-0.091168	-0.164390
O176	O	1.924115	0.408832	0.335610
H177	H	1.377838	-0.141222	-0.148073
H178	H	1.877838	0.358778	0.351927
H179	H	0.909652	-0.193799	0.786237
H180	H	1.409652	0.306201	1.286237
O181	O	1.583175	-0.100248	-0.163468
O182	O	2.083175	0.399752	0.336532
H183	H	1.618651	-0.152351	-0.144600
H184	H	2.118651	0.347649	0.355400
H185	H	1.121921	0.147687	-0.000026
H186	H	1.621921	0.647687	0.499974
H187	H	1.109167	0.296053	-0.000039
H188	H	1.609167	0.796053	0.499961
