data_functionalizedCrystal
_audit_creation_method	'MofGen! by Chris Wilmer'
_symmetry_space_group_name_H-M	'P1'
_symmetry_Int_Tables_number	1
_symmetry_cell_setting	triclinic
loop_
_symmetry_equiv_pos_as_xyz
  x,y,z
_cell_length_a	14.853567
_cell_length_b	15.995350
_cell_length_c	13.330367
_cell_angle_alpha	89.997588
_cell_angle_beta	89.995418
_cell_angle_gamma	83.563653
loop_
_atom_site_label
_atom_site_type_symbol
_atom_site_fract_x
_atom_site_fract_y
_atom_site_fract_z
O1	O	1.196221	0.109317	-0.083349
O2	O	0.933744	0.122339	-0.083366
O3	O	1.072158	-0.006051	-0.083356
O4	O	1.057808	0.237707	-0.083359
O5	O	1.072138	-0.006054	0.083491
O6	O	0.933724	0.122336	0.083481
O7	O	1.196201	0.109314	0.083498
Cu8	Cu	1.064961	0.115825	0.098724
Cu9	Cu	1.064985	0.115828	-0.098592
O10	O	1.057788	0.237704	0.083488
C11	C	0.900146	0.121748	0.000056
C12	C	0.800065	0.119980	0.000049
C13	C	1.071555	-0.037248	0.000065
C14	C	1.069776	-0.130201	0.000060
C15	C	0.387644	0.036238	0.000072
C16	C	0.366158	0.188769	0.000070
C17	C	0.460189	0.190432	0.000067
C18	C	0.517953	0.114996	0.000065
C19	C	0.481685	0.037899	0.000066
C20	C	0.496464	0.267528	0.000055
C21	C	0.590501	0.269194	0.000051
C22	C	0.648266	0.193758	0.000056
C23	C	0.611993	0.116657	0.000059
C24	C	0.669757	0.041221	0.000057
C25	C	0.633485	-0.035880	0.000067
C26	C	0.539450	-0.037538	0.000072
C27	C	0.742302	0.195415	0.000051
C28	C	0.763797	0.042882	0.000051
C29	C	1.063389	-0.467956	0.000063
C30	C	0.964813	-0.420636	-0.000318
C31	C	0.966592	-0.323944	0.000058
C32	C	1.066557	-0.300391	0.000061
C33	C	1.115167	-0.341414	0.095340
C34	C	1.112690	-0.438053	0.095419
C35	C	1.114749	-0.438405	-0.094317
C36	C	1.114726	-0.341460	-0.095576
C37	C	1.068353	-0.205692	0.000063
C38	C	1.061596	-0.562655	0.000067
C39	C	1.229799	0.109906	0.000074
C40	C	1.329881	0.111674	0.000074
C41	C	1.058391	0.268901	0.000064
C42	C	1.060170	0.361854	0.000064
N43	N	1.064951	0.115822	0.237506
N44	N	1.065002	0.115825	-0.237374
C45	C	1.003693	0.172657	0.710124
C46	C	1.126301	0.058993	0.710101
C47	C	1.126291	0.058990	0.605082
C48	C	1.064982	0.115823	0.552580
C49	C	1.003682	0.172658	0.605096
C50	C	1.187595	0.002162	0.552559
C51	C	1.187588	0.002158	0.447534
C52	C	1.126274	0.058987	0.395030
C53	C	1.064971	0.115824	0.447552
C54	C	1.003662	0.172656	0.395050
C55	C	0.942354	0.229490	0.447570
C56	C	0.942368	0.229487	0.552592
C57	C	1.126260	0.058989	0.290008
C58	C	1.003652	0.172657	0.290022
H59	H	0.810823	-0.018548	0.000053
C60	C	1.255020	-0.060366	0.389771
N61	N	1.305807	-0.107463	0.346263
C62	C	1.071218	-0.466198	-0.191878
N63	N	1.038419	-0.487130	-0.265356
H64	H	1.237516	-0.044106	0.595309
H65	H	0.892454	0.275760	0.595361
C66	C	0.432920	0.350501	0.000058
N67	N	0.385053	0.412999	0.000064
C68	C	0.914963	-0.285602	-0.092207
N69	N	0.876069	-0.256727	-0.161702
C70	C	0.782196	0.280221	0.000039
N71	N	0.812244	0.344102	0.000032
H72	H	0.953723	0.218935	0.247280
C73	C	0.911820	-0.447143	0.091489
N74	N	0.871912	-0.467102	0.160646
C75	C	1.212933	-0.481203	-0.095185
N76	N	1.286882	-0.513444	-0.095832
H77	H	0.509909	-0.100310	0.000103
H78	H	0.925422	-0.439212	-0.068644
C79	C	0.347745	-0.048570	0.000083
N80	N	0.317692	-0.112448	0.000089
C81	C	0.936251	0.235165	0.767897
N82	N	0.885453	0.282246	0.811412
H83	H	0.620025	0.331975	0.000042
C84	C	0.302615	0.271743	0.000072
N85	N	0.254751	0.334242	0.000077
H86	H	0.892440	0.275767	0.404811
C87	C	1.193738	-0.003519	0.767857
N88	N	1.244532	-0.050608	0.811363
C89	C	0.914604	-0.286359	0.092483
N90	N	0.875446	-0.258050	0.162102
H91	H	1.185062	-0.470217	0.099744
C92	C	1.064771	-0.462835	0.191630
N93	N	1.028673	-0.481497	0.264095
C94	C	1.214377	-0.322199	0.100145
N95	N	1.289100	-0.307719	0.103767
C96	C	1.069530	-0.303134	0.191127
N97	N	1.035150	-0.274303	0.263272
C98	C	0.697037	-0.118856	0.000067
N99	N	0.744908	-0.181352	0.000070
C100	C	1.193695	-0.003523	0.232240
N101	N	1.244488	-0.050613	0.188731
C102	C	1.066759	-0.304654	-0.190802
N103	N	1.030621	-0.276935	-0.262525
H104	H	1.187625	-0.326013	-0.101327
