data_functionalizedCrystal
_audit_creation_method	'MofGen! by Chris Wilmer'
_symmetry_space_group_name_H-M	'P1'
_symmetry_Int_Tables_number	1
_symmetry_cell_setting	triclinic
loop_
_symmetry_equiv_pos_as_xyz
  x,y,z
_cell_length_a	12.645331
_cell_length_b	13.033915
_cell_length_c	12.645323
_cell_angle_alpha	82.797311
_cell_angle_beta	89.984262
_cell_angle_gamma	82.826123
loop_
_atom_site_label
_atom_site_type_symbol
_atom_site_fract_x
_atom_site_fract_y
_atom_site_fract_z
Zn1	Zn	1.674392	-0.416034	-0.545683
Zn2	Zn	2.174392	0.083966	-0.045683
Zn3	Zn	1.696815	-0.590794	-0.345921
Zn4	Zn	2.196815	-0.090794	0.154079
Zn5	Zn	1.497112	-0.416070	-0.368444
Zn6	Zn	1.997112	0.083930	0.131556
Zn7	Zn	1.519621	-0.590726	-0.523167
Zn8	Zn	2.019621	-0.090726	-0.023167
O9	O	1.596985	-0.503406	-0.445804
O10	O	2.096985	-0.003406	0.054196
O11	O	1.825716	-0.439229	-0.519181
O12	O	2.325716	0.060771	-0.019181
O13	O	1.670288	-0.567659	-0.200556
O14	O	2.170288	-0.067659	0.299444
O15	O	1.501824	-0.269833	-0.410804
O16	O	2.001824	0.230167	0.089196
O17	O	1.842190	-0.567625	-0.372417
O18	O	2.342190	-0.067625	0.127583
O19	O	1.632071	-0.269807	-0.541020
O20	O	2.132071	0.230193	-0.041020
O21	O	1.523566	-0.439291	-0.217103
O22	O	2.023566	0.060709	0.282897
O23	O	1.351749	-0.439225	-0.388971
O24	O	1.851749	0.060775	0.111029
O25	O	1.540188	-0.567509	-0.674507
O26	O	2.040188	-0.067509	-0.174507
O27	O	1.368286	-0.567544	-0.502645
O28	O	1.868286	-0.067544	-0.002645
O29	O	1.653898	-0.439164	-0.691049
O30	O	2.153898	0.060836	-0.191049
O31	O	1.692114	-0.737016	-0.350585
O32	O	2.192114	-0.237016	0.149415
O33	O	1.561930	-0.736967	-0.480806
O34	O	2.061930	-0.236967	0.019194
C35	C	1.631927	-0.774908	-0.410831
C36	C	2.131927	-0.274908	0.089169
C37	C	1.646972	-0.891058	-0.395905
C38	C	2.146972	-0.391058	0.104095
C39	C	1.321552	-0.503382	-0.445809
C40	C	1.821552	-0.003382	0.054191
C41	C	1.203724	-0.503397	-0.445834
C42	C	1.703724	-0.003397	0.054166
C43	C	1.604754	-1.062898	-0.438193
C44	C	2.104754	-0.562898	0.061807
C45	C	1.589210	-0.942851	-0.453628
C46	C	2.089210	-0.442851	0.046372
C47	C	1.046656	-0.584565	-0.516862
C48	C	1.546656	-0.084565	-0.016862
C49	C	1.169183	-0.584303	-0.517237
C50	C	1.669183	-0.084303	-0.017237
C51	C	1.145050	-0.393335	-0.490527
C52	C	1.645050	0.106665	0.009473
C53	C	1.022516	-0.393830	-0.491037
C54	C	1.522516	0.106170	0.008963
C55	C	1.040091	-0.531405	-0.329968
C56	C	1.540091	-0.031405	0.170032
C57	C	1.163007	-0.533812	-0.330264
C58	C	1.663007	-0.033812	0.169736
C59	C	1.873493	-0.503430	-0.445798
C60	C	2.373493	-0.003430	0.054202
C61	C	1.991325	-0.503441	-0.445796
C62	C	2.491325	-0.003441	0.054204
C63	C	1.597053	-0.503325	-0.722320
C64	C	2.097053	-0.003325	-0.222320
C65	C	1.597081	-0.503291	-0.840154
C66	C	2.097081	-0.003291	-0.340154
C67	C	1.561936	-0.230844	-0.480936
C68	C	2.061936	0.269156	0.019064
C69	C	1.547000	-0.114694	-0.495907
C70	C	2.047000	0.385306	0.004093
C71	C	1.525245	-0.583652	-0.997360
C72	C	2.025245	-0.083652	-0.497360
C73	C	1.525511	-0.584050	-0.874749
C74	C	2.025511	-0.084050	-0.374749
C75	C	1.712636	-0.533178	-0.880812
C76	C	2.212636	-0.033178	-0.380812
C77	C	1.712250	-0.533682	-1.003346
C78	C	2.212250	-0.033682	-0.503346
C79	C	1.554362	-0.392592	-1.021609
C80	C	2.054362	0.107408	-0.521609
C81	C	1.551955	-0.393255	-0.898917
C82	C	2.051955	0.106745	-0.398917
C83	C	1.596969	-0.503411	-0.170373
C84	C	2.096969	-0.003411	0.329627
C85	C	1.597107	-0.503151	-0.052577
C86	C	2.097107	-0.003151	0.447423
H87	H	1.665703	-1.107427	-0.377349
H88	H	2.165703	-0.607427	0.122651
F89	F	1.726640	-0.949249	-0.316368
F90	F	2.226640	-0.449249	0.183632
F91	F	1.509527	-0.884657	-0.533150
F92	F	2.009527	-0.384657	-0.033150
H93	H	1.746820	-0.614503	-1.021547
H94	H	2.246820	-0.114503	-0.521547
H95	H	1.202536	-0.614802	-0.296816
H96	H	1.702536	-0.114802	0.203184
H97	H	1.470815	-0.365349	-1.056030
H98	H	1.970815	0.134651	-0.556030
H99	H	1.440270	-0.565347	-0.847065
H100	H	1.940270	-0.065347	-0.347065
F101	F	1.193779	-0.462180	-0.255845
F102	F	1.693779	0.037820	0.244155
F103	F	1.467322	-1.056496	-0.575425
F104	F	1.967322	-0.556496	-0.075425
F105	F	1.222253	-0.690991	-0.478533
F106	F	1.722253	-0.190991	0.021467
F107	F	1.440707	-0.363797	-0.864700
F108	F	1.940707	0.136203	-0.364700
F109	F	1.563956	-0.691170	-0.822633
F110	F	2.063956	-0.191170	-0.322633
F111	F	1.785556	-0.460325	-1.051576
F112	F	2.285556	0.039675	-0.551576
H113	H	1.003452	-0.472314	-0.276843
H114	H	1.503452	0.027686	0.223157
F115	F	1.785311	-0.458965	-0.852279
F116	F	2.285311	0.041035	-0.352279
H117	H	1.027727	-0.666454	-0.487401
H118	H	1.527727	-0.166454	0.012599
H119	H	1.019345	-0.610294	-0.292069
H120	H	1.519345	-0.110294	0.207931
H121	H	1.013509	-0.566298	-0.601887
H122	H	1.513509	-0.066298	-0.101887
F123	F	1.413532	-0.559437	-1.039005
F124	F	1.913532	-0.059437	-0.539005
F125	F	1.204429	-0.560113	-0.629043
F126	F	1.704429	-0.060113	-0.129043
F127	F	0.981165	-0.362830	-0.602264
F128	F	1.481165	0.137170	-0.102264
F129	F	1.563264	-0.690102	-1.023995
F130	F	2.063264	-0.190102	-0.523995
F131	F	0.973181	-0.312148	-0.427341
F132	F	1.473181	0.187852	0.072659
F133	F	1.172662	-0.312179	-0.425805
F134	F	1.672662	0.187821	0.074195
F135	F	1.181134	-0.361764	-0.600666
F136	F	1.681134	0.138236	-0.100666
F137	F	1.758222	-0.637710	-0.827239
F138	F	2.258222	-0.137710	-0.327239
H139	H	1.599338	-0.330106	-0.876420
H140	H	2.099338	0.169894	-0.376420
H141	H	1.606530	-0.332615	-1.058337
H142	H	2.106530	0.167385	-0.558337
