data_functionalizedCrystal
_audit_creation_method	'MofGen! by Chris Wilmer'
_symmetry_space_group_name_H-M	'P1'
_symmetry_Int_Tables_number	1
_symmetry_cell_setting	triclinic
loop_
_symmetry_equiv_pos_as_xyz
  x,y,z
_cell_length_a	14.519709
_cell_length_b	14.519731
_cell_length_c	10.868271
_cell_angle_alpha	89.993226
_cell_angle_beta	89.998733
_cell_angle_gamma	96.315500
loop_
_atom_site_label
_atom_site_type_symbol
_atom_site_fract_x
_atom_site_fract_y
_atom_site_fract_z
O1	O	1.223877	-0.120886	0.102177
O2	O	1.723877	0.379114	0.602177
O3	O	0.955401	-0.135122	0.102217
O4	O	1.455401	0.364878	0.602217
O5	O	1.096747	0.006233	0.102171
O6	O	1.596747	0.506233	0.602171
O7	O	1.082531	-0.262241	0.102223
O8	O	1.582531	0.237759	0.602223
O9	O	1.096734	0.006229	-0.102474
O10	O	1.596734	0.506229	0.397526
O11	O	0.955388	-0.135127	-0.102428
O12	O	1.455388	0.364873	0.397572
O13	O	1.223864	-0.120890	-0.102468
O14	O	1.723864	0.379110	0.397532
Zn15	Zn	1.089624	-0.128009	-0.134940
Zn16	Zn	1.589624	0.371991	0.365060
Zn17	Zn	1.089641	-0.128003	0.134689
Zn18	Zn	1.589641	0.371997	0.634689
O19	O	1.082518	-0.262245	-0.102422
O20	O	1.582518	0.237755	0.397578
C21	C	0.921035	-0.134461	-0.000101
C22	C	1.421035	0.365539	0.499899
C23	C	0.818654	-0.132473	-0.000087
C24	C	1.318654	0.367527	0.499913
C25	C	0.443757	-0.125153	-0.000145
C26	C	0.943757	0.374847	0.499855
C27	C	0.548065	-0.127186	-0.000128
C28	C	1.048065	0.372814	0.499872
C29	C	0.631202	-0.128813	-0.000115
C30	C	1.131202	0.371187	0.499885
C31	C	0.735517	-0.130846	-0.000101
C32	C	1.235517	0.369154	0.499899
C33	C	1.096075	0.040591	-0.000155
C34	C	1.596075	0.540591	0.499845
C35	C	1.094079	0.142971	-0.000166
C36	C	1.594079	0.642971	0.499834
C37	C	1.258230	-0.121551	-0.000147
C38	C	1.758230	0.378449	0.499853
C39	C	1.360612	-0.123539	-0.000153
C40	C	1.860612	0.376461	0.499847
N41	N	1.089619	-0.128013	-0.318954
N42	N	1.589619	0.371987	0.181046
C43	C	1.092457	0.226115	-0.000171
C44	C	1.592457	0.726115	0.499829
C45	C	1.090430	0.330424	-0.000172
C46	C	1.590430	0.830424	0.499828
C47	C	1.088822	0.413563	-0.000173
C48	C	1.588822	0.913563	0.499827
C49	C	1.086795	0.517878	-0.000176
C50	C	1.586795	1.017878	0.499824
C51	C	1.083191	0.703397	-0.000119
C52	C	1.583191	1.203397	0.499881
C53	C	1.085187	0.601017	-0.000176
C54	C	1.585187	1.101017	0.499824
C55	C	1.089627	-0.128013	-0.430291
C56	C	1.589627	0.371987	0.069709
C57	C	1.089639	-0.128004	-0.569969
C58	C	1.589639	0.371996	-0.069969
N59	N	1.089653	-0.127992	0.318703
N60	N	1.589653	0.372008	0.818703
