data_functionalizedCrystal
_audit_creation_method	'MofGen! by Chris Wilmer'
_symmetry_space_group_name_H-M	'P1'
_symmetry_Int_Tables_number	1
_symmetry_cell_setting	triclinic
loop_
_symmetry_equiv_pos_as_xyz
  x,y,z
_cell_length_a	15.944493
_cell_length_b	15.944551
_cell_length_c	14.048226
_cell_angle_alpha	90.004563
_cell_angle_beta	90.004283
_cell_angle_gamma	83.486891
loop_
_atom_site_label
_atom_site_type_symbol
_atom_site_fract_x
_atom_site_fract_y
_atom_site_fract_z
O1	O	1.114555	0.108099	0.079150
O2	O	0.869999	0.121506	0.079155
O3	O	0.998955	-0.007474	0.079144
O4	O	0.985599	0.237078	0.079161
O5	O	0.998943	-0.007475	-0.079178
O6	O	0.869986	0.121505	-0.079166
O7	O	1.114543	0.108098	-0.079171
Zn8	Zn	0.992263	0.114801	-0.104306
Zn9	Zn	0.992279	0.114802	0.104289
O10	O	0.985586	0.237077	-0.079160
C11	C	0.838698	0.120957	-0.000005
C12	C	0.745449	0.119314	-0.000004
C13	C	0.509689	0.195235	0.000003
C14	C	0.459125	0.154293	-0.078065
C15	C	0.574728	0.116270	-0.000006
C16	C	0.459142	0.154276	0.078027
C17	C	0.409819	0.113336	-0.000003
C18	C	0.525392	0.075350	-0.078138
C19	C	0.525412	0.075344	0.078025
C20	C	0.474880	0.034345	-0.000062
C21	C	0.669728	0.117963	-0.000008
C22	C	0.314821	0.111637	-0.000008
C23	C	0.998395	-0.038768	-0.000017
C24	C	0.996732	-0.132014	-0.000018
C25	C	0.912826	-0.346853	-0.000003
C26	C	0.951783	-0.407879	-0.078066
C27	C	0.993725	-0.302739	-0.000010
C28	C	0.951814	-0.407862	0.078027
C29	C	0.990814	-0.467651	0.000001
C30	C	1.032704	-0.362537	-0.078137
C31	C	1.032724	-0.362513	0.078025
C32	C	1.071741	-0.423521	-0.000057
C33	C	0.995399	-0.207737	-0.000017
C34	C	0.989146	-0.562652	0.000002
C35	C	1.145844	0.108646	-0.000009
C36	C	1.239092	0.110289	-0.000004
C37	C	0.986147	0.268372	0.000003
C38	C	0.987809	0.361617	0.000010
N39	N	0.992258	0.114799	-0.246666
C40	C	1.043202	0.165768	-0.296478
C41	C	1.043213	0.165764	-0.396135
C42	C	0.992274	0.114796	-0.445980
C43	C	0.941328	0.063822	-0.396162
C44	C	0.941322	0.063822	-0.296506
C45	C	0.941342	0.063828	-0.603876
C46	C	0.941346	0.063829	-0.703539
C47	C	1.043232	0.165770	-0.703505
C48	C	1.043227	0.165770	-0.603849
C49	C	0.992279	0.114797	-0.554038
N50	N	0.992290	0.114797	0.246650
H51	H	0.845675	-0.313532	-0.000079
H52	H	0.554215	0.042022	-0.144203
H53	H	0.917561	-0.427981	-0.144060
C54	C	1.078917	-0.335323	0.167186
N55	N	1.113703	-0.314841	0.234350
H56	H	0.430182	0.187641	-0.144060
H57	H	0.554363	0.042022	0.144023
H58	H	0.430208	0.187640	0.144018
C59	C	0.885295	0.007756	-0.549086
N60	N	0.843077	-0.034472	-0.507818
H61	H	0.899867	0.022327	-0.744120
C62	C	1.162534	-0.468345	-0.000120
N63	N	1.230917	-0.502109	-0.000174
C64	C	1.078882	-0.335544	-0.167396
N65	N	1.113658	-0.315209	-0.234626
H66	H	0.899858	0.022319	-0.436753
C67	C	0.905578	-0.434986	0.167182
N68	N	0.870747	-0.455412	0.234331
H69	H	1.084677	0.207277	-0.255901
H70	H	1.084712	0.207278	-0.744066
C71	C	1.099222	0.221867	-0.450923
N72	N	1.141399	0.264137	-0.492189
C73	C	0.885278	0.007754	-0.241714
N74	N	0.843065	-0.034479	-0.200446
H75	H	0.459415	-0.033726	-0.000112
H76	H	0.525313	0.263254	-0.000066
H77	H	1.084701	0.207277	-0.563269
