data_functionalizedCrystal
_audit_creation_method	'MofGen! by Chris Wilmer'
_symmetry_space_group_name_H-M	'P1'
_symmetry_Int_Tables_number	1
_symmetry_cell_setting	triclinic
loop_
_symmetry_equiv_pos_as_xyz
  x,y,z
_cell_length_a	19.121725
_cell_length_b	16.120566
_cell_length_c	16.120297
_cell_angle_alpha	89.874982
_cell_angle_beta	95.429393
_cell_angle_gamma	95.185145
loop_
_atom_site_label
_atom_site_type_symbol
_atom_site_fract_x
_atom_site_fract_y
_atom_site_fract_z
Zn1	Zn	-0.357336	-1.264532	-0.553588
Zn2	Zn	0.142664	-0.764532	-0.053588
Zn3	Zn	-0.469621	-1.276854	-0.420487
Zn4	Zn	0.030379	-0.776854	0.079513
Zn5	Zn	-0.345418	-1.131952	-0.406866
Zn6	Zn	0.154582	-0.631952	0.093134
Zn7	Zn	-0.468972	-1.130780	-0.552414
Zn8	Zn	0.031028	-0.630780	-0.052414
O9	O	-0.410337	-1.201030	-0.483339
O10	O	0.089663	-0.701030	0.016661
O11	O	-0.377490	-1.382784	-0.542123
O12	O	0.122510	-0.882784	-0.042123
O13	O	-0.448429	-1.263280	-0.302065
O14	O	0.051571	-0.763280	0.197935
O15	O	-0.248299	-1.144873	-0.421120
O16	O	0.251701	-0.644873	0.078880
O17	O	-0.459985	-1.391837	-0.444334
O18	O	0.040015	-0.891837	0.055666
O19	O	-0.257056	-1.242279	-0.528916
O20	O	0.242944	-0.742279	-0.028916
O21	O	-0.357177	-1.156822	-0.292058
O22	O	0.142823	-0.656822	0.207942
O23	O	-0.356548	-1.015179	-0.419982
O24	O	0.143452	-0.515179	0.080018
O25	O	-0.458880	-1.142875	-0.669185
O26	O	0.041120	-0.642875	-0.169185
O27	O	-0.447323	-1.014318	-0.526915
O28	O	0.052677	-0.514318	-0.026915
O29	O	-0.376861	-1.241142	-0.670047
O30	O	0.123139	-0.741142	-0.170047
O31	O	-0.568234	-1.262144	-0.443196
O32	O	-0.068234	-0.762144	0.056804
O33	O	-0.567758	-1.154824	-0.540122
O34	O	-0.067758	-0.654824	-0.040122
C35	C	-0.400573	-0.984511	-0.471844
C36	C	0.099427	-0.484511	0.028156
C37	C	-0.396413	-0.891883	-0.466947
C38	C	0.103587	-0.391883	0.033053
C39	C	-0.388803	-0.722290	-0.458012
C40	C	0.111197	-0.222290	0.041988
C41	C	-0.431931	-0.680612	-0.508675
C42	C	0.068069	-0.180612	-0.008675
C43	C	-0.427697	-0.586245	-0.503704
C44	C	0.072303	-0.086245	-0.003704
C45	C	-0.393037	-0.816666	-0.462982
C46	C	0.106963	-0.316666	0.037018
C47	C	-0.593589	-1.209715	-0.493029
C48	C	-0.093589	-0.709715	0.006971
C49	C	-0.671990	-1.213506	-0.497207
C50	C	-0.171990	-0.713506	0.002793
C51	C	-0.704327	-1.164623	-0.443014
C52	C	-0.204327	-0.664623	0.056986
C53	C	-0.777994	-1.168193	-0.446943
C54	C	-0.277994	-0.668193	0.053057
C55	C	-0.819322	-1.220642	-0.505070
C56	C	-0.319322	-0.720642	-0.005070
C57	C	-0.786979	-1.269530	-0.559265
C58	C	-0.286979	-0.769530	-0.059265
C59	C	-0.713314	-1.265964	-0.555331
C60	C	-0.213314	-0.765964	-0.055331
C61	C	-1.041967	-1.233948	-0.519754
C62	C	-0.541967	-0.733948	-0.019754
C63	C	-1.115637	-1.237508	-0.523685
C64	C	-0.615637	-0.737508	-0.023685
C65	C	-1.106647	-1.136172	-0.411362
C66	C	-0.606647	-0.636172	0.088638
C67	C	-1.032981	-1.132607	-0.407436
C68	C	-0.532981	-0.632607	0.092564
C69	C	-1.000645	-1.181498	-0.461629
C70	C	-0.500645	-0.681498	0.038371
C71	C	-0.894621	-1.224290	-0.509089
C72	C	-0.394621	-0.724290	-0.009089
C73	C	-0.925347	-1.177854	-0.457604
C74	C	-0.425347	-0.677854	0.042396
C75	C	-0.226370	-1.192332	-0.473630
C76	C	0.273630	-0.692332	0.026370
C77	C	-0.147975	-1.188626	-0.469492
C78	C	0.352025	-0.688626	0.030508
C79	C	-0.419127	-1.190503	-0.700698
C80	C	0.080873	-0.690503	-0.200698
C81	C	-0.422874	-1.186017	-0.793324
C82	C	0.077126	-0.686017	-0.293324
C83	C	-0.420141	-0.418395	-0.494865
C84	C	0.079859	0.081605	0.005135
C85	C	-0.424323	-0.511024	-0.499743
C86	C	0.075677	-0.011024	0.000257
C87	C	-0.429696	-1.177796	-0.962910
C88	C	0.070304	-0.677796	-0.462910
C89	C	-0.390774	-1.224418	-1.004616
C90	C	0.109226	-0.724418	-0.504616
C91	C	-0.394570	-1.219843	-1.098980
C92	C	0.105430	-0.719843	-0.598980
C93	C	-0.425901	-1.182369	-0.868538
C94	C	0.074099	-0.682369	-0.368538
C95	C	-0.401531	-1.211561	-0.266824
C96	C	0.098469	-0.711561	0.233176
C97	C	-0.397594	-1.216199	-0.174197
C98	C	0.102406	-0.716199	0.325803
H99	H	-0.472032	-0.715803	-0.555782
H100	H	0.027968	-0.215803	-0.055782
H101	H	-0.348705	-0.687102	-0.410909
H102	H	0.151295	-0.187102	0.089091
C103	C	-0.874817	-1.279581	-0.676398
C104	C	-0.374817	-0.779581	-0.176398
C105	C	-0.832409	-1.327177	-0.623162
C106	C	-0.332409	-0.827177	-0.123162
H107	H	-0.902860	-1.315169	-0.715850
H108	H	-0.402860	-0.815169	-0.215850
H109	H	-0.904613	-1.250985	-0.644682
H110	H	-0.404613	-0.750985	-0.144682
H111	H	-0.845735	-1.240318	-0.704777
H112	H	-0.345735	-0.740318	-0.204777
H113	H	-0.861492	-1.366436	-0.594778
H114	H	-0.361492	-0.866436	-0.094778
H115	H	-0.802610	-1.355787	-0.654882
H116	H	-0.302610	-0.855787	-0.154882
C117	C	-0.347571	-1.276187	-0.871503
C118	C	0.152429	-0.776187	-0.371503
C119	C	-0.341931	-1.282929	-0.957152
C120	C	0.158069	-0.782929	-0.457152
H121	H	-0.317419	-1.312310	-0.842200
H122	H	0.182581	-0.812310	-0.342200
H123	H	-0.334169	-1.220386	-0.853773
H124	H	0.165831	-0.720386	-0.353773
H125	H	-0.394950	-1.291309	-0.860450
H126	H	0.105050	-0.791309	-0.360450
H127	H	-0.294552	-1.267801	-0.968205
H128	H	0.205448	-0.767801	-0.468205
H129	H	-0.355328	-1.338744	-0.974888
H130	H	0.144672	-0.838744	-0.474888
C131	C	-0.702848	-1.064818	-0.332381
C132	C	-0.202848	-0.564818	0.167619
C133	C	-0.658903	-1.106967	-0.379120
C134	C	-0.158903	-0.606967	0.120880
H135	H	-0.674805	-1.029229	-0.292931
H136	H	-0.174805	-0.529229	0.207069
H137	H	-0.731619	-1.032550	-0.368505
H138	H	-0.231619	-0.532550	0.131495
H139	H	-0.731914	-1.104095	-0.303999
H140	H	-0.231914	-0.604095	0.196001
H141	H	-0.629840	-1.067690	-0.407507
H142	H	-0.129840	-0.567690	0.092493
H143	H	-0.630120	-1.139238	-0.342991
H144	H	-0.130120	-0.639238	0.157009
H145	H	-0.804319	-1.128389	-0.402812
H146	H	-0.304319	-0.628389	0.097188
H147	H	-0.465867	-1.134451	-0.998072
H148	H	0.034133	-0.634451	-0.498072
H149	H	-0.999333	-1.089899	-0.360105
H150	H	-0.499333	-0.589899	0.139895
C151	C	-1.184061	-1.028665	-0.398168
C152	C	-0.684061	-0.528665	0.101832
C153	C	-1.142194	-1.082440	-0.351791
C154	C	-0.642194	-0.582440	0.148209
H155	H	-1.206009	-0.995498	-0.361386
H156	H	-0.706009	-0.495498	0.138614
H157	H	-1.155364	-0.993613	-0.431213
H158	H	-0.655364	-0.493613	0.068787
H159	H	-1.219214	-1.060420	-0.433346
H160	H	-0.719214	-0.560420	0.066654
H161	H	-1.107037	-1.050685	-0.316617
H162	H	-0.607037	-0.550685	0.183383
H163	H	-1.170893	-1.117497	-0.318732
H164	H	-0.670893	-0.617497	0.181268
C165	C	-1.117129	-1.337300	-0.634342
C166	C	-0.617129	-0.837300	-0.134342
C167	C	-1.161067	-1.295146	-0.587600
C168	C	-0.661067	-0.795146	-0.087600
H169	H	-1.145177	-1.372876	-0.673801
H170	H	-0.645177	-0.872876	-0.173801
H171	H	-1.088053	-1.298032	-0.662707
H172	H	-0.588053	-0.798032	-0.162707
H173	H	-1.088368	-1.369592	-0.598217
H174	H	-0.588368	-0.869592	-0.098217
H175	H	-1.189825	-1.262849	-0.623724
H176	H	-0.689825	-0.762849	-0.123724
H177	H	-1.190155	-1.334419	-0.559233
H178	H	-0.690155	-0.834419	-0.059233
H179	H	-1.015645	-1.273756	-0.563880
H180	H	-0.515645	-0.773756	-0.063880
H181	H	-0.891696	-1.135153	-0.410275
H182	H	-0.391696	-0.635153	0.089725
C183	C	-0.698069	-1.298496	-0.697409
C184	C	-0.198069	-0.798496	-0.197409
C185	C	-0.677763	-1.319690	-0.614905
C186	C	-0.177763	-0.819690	-0.114905
H187	H	-0.676117	-1.331664	-0.734186
H188	H	-0.176117	-0.831664	-0.234186
H189	H	-0.747849	-1.308131	-0.708068
H190	H	-0.247849	-0.808131	-0.208068
H191	H	-0.684001	-1.241320	-0.705931
H192	H	-0.184001	-0.741320	-0.205931
H193	H	-0.691836	-1.376865	-0.606382
H194	H	-0.191836	-0.876865	-0.106382
H195	H	-0.627972	-1.310062	-0.604243
H196	H	-0.127972	-0.810062	-0.104243
C197	C	-0.982467	-1.234323	-0.626213
C198	C	-0.482467	-0.734323	-0.126213
C199	C	-0.940057	-1.281928	-0.572990
C200	C	-0.440057	-0.781928	-0.072990
H201	H	-1.010517	-1.269905	-0.665664
H202	H	-0.510517	-0.769905	-0.165664
H203	H	-1.012256	-1.205726	-0.594488
H204	H	-0.512256	-0.705726	-0.094488
H205	H	-0.953387	-1.195060	-0.654594
H206	H	-0.453387	-0.695060	-0.154594
H207	H	-0.969138	-1.321186	-0.544604
H208	H	-0.469138	-0.821186	-0.044604
H209	H	-0.910265	-1.310538	-0.604719
H210	H	-0.410265	-0.810538	-0.104719
