data_functionalizedCrystal
_audit_creation_method	'MofGen! by Chris Wilmer'
_symmetry_space_group_name_H-M	'P1'
_symmetry_Int_Tables_number	1
_symmetry_cell_setting	triclinic
loop_
_symmetry_equiv_pos_as_xyz
  x,y,z
_cell_length_a	10.540539
_cell_length_b	14.971486
_cell_length_c	14.048226
_cell_angle_alpha	90.006640
_cell_angle_beta	89.995616
_cell_angle_gamma	95.930190
loop_
_atom_site_label
_atom_site_type_symbol
_atom_site_fract_x
_atom_site_fract_y
_atom_site_fract_z
O1	O	1.684460	-0.126055	-0.079116
O2	O	1.314912	-0.137932	-0.079128
O3	O	1.509591	-0.001849	-0.079115
O4	O	1.489781	-0.262138	-0.079129
O5	O	1.509568	-0.001841	0.079206
O6	O	1.314889	-0.137924	0.079193
O7	O	1.684437	-0.126047	0.079205
Zn8	Zn	1.499659	-0.131984	0.104336
Zn9	Zn	1.499690	-0.131995	-0.104259
O10	O	1.489758	-0.262130	0.079192
C11	C	1.267608	-0.137037	0.000031
C12	C	1.126690	-0.134372	0.000027
C13	C	1.508693	0.031484	0.000045
C14	C	1.506039	0.130797	0.000044
N15	N	1.499647	-0.131976	0.246697
C16	C	0.944422	-0.032264	0.000402
C17	C	1.091009	-0.034965	0.000035
C18	C	1.064488	-0.182216	-0.090382
C19	C	0.917982	-0.178823	-0.090447
C20	C	0.917444	-0.180836	0.089594
C21	C	1.064415	-0.181752	0.090779
C22	C	1.731741	-0.126942	0.000044
C23	C	1.872659	-0.129607	0.000042
C24	C	1.490656	-0.295463	0.000030
C25	C	1.493310	-0.394775	0.000024
C26	C	1.620407	0.187377	0.000049
C27	C	1.617905	0.280691	0.000039
C28	C	1.501033	0.317422	0.000032
C29	C	1.386656	0.260834	0.000025
C30	C	1.389159	0.167522	0.000027
C31	C	1.381446	0.455325	0.000021
C32	C	1.378942	0.548644	0.000020
C33	C	1.610192	0.568495	0.000033
C34	C	1.612695	0.475183	0.000035
C35	C	1.498317	0.418601	0.000030
N36	N	1.499712	-0.131996	-0.246620
C37	C	1.585878	-0.071744	0.296521
C38	C	1.585887	-0.071744	0.396178
C39	C	1.499669	-0.131980	0.446010
C40	C	1.413429	-0.192215	0.396179
C41	C	1.413416	-0.192211	0.296524
C42	C	1.413466	-0.192222	0.603894
C43	C	1.413481	-0.192228	0.703556
C44	C	1.585937	-0.071755	0.703548
C45	C	1.585923	-0.071750	0.603892
C46	C	1.499684	-0.131987	0.554069
H47	H	1.134041	0.002680	0.064844
H48	H	1.105764	-0.146800	0.157662
H49	H	1.715578	0.157479	0.000060
C50	C	1.096052	-0.279658	0.098160
N51	N	1.119888	-0.353402	0.103717
C52	C	1.680796	-0.005491	0.758356
N53	N	1.752243	0.044416	0.799642
C54	C	1.736009	0.630736	0.000031
N55	N	1.830770	0.677621	0.000032
C56	C	0.906380	0.020797	0.087992
N57	N	0.877716	0.060763	0.153967
H58	H	1.656101	-0.022698	0.436744
H59	H	1.288307	0.409258	0.000014
C60	C	1.148004	0.016237	-0.087668
N61	N	1.190932	0.054804	-0.153731
C62	C	1.743720	0.342927	0.000059
N63	N	1.838489	0.389802	0.000079
H64	H	1.291496	0.290747	0.000013
H65	H	1.283775	0.578546	0.000029
H66	H	0.914668	0.006838	-0.064070
H67	H	1.296028	0.121454	0.000024
C68	C	1.122535	-0.137322	-0.181276
N69	N	1.166253	-0.103501	-0.249736
H70	H	1.656134	-0.022706	0.563319
H71	H	1.343237	-0.241270	0.563330
C72	C	0.880425	-0.131053	-0.181736
N73	N	0.852145	-0.095066	-0.250494
C74	C	1.318630	-0.258486	0.758370
N75	N	1.247185	-0.308391	0.799655
H76	H	1.656091	-0.022696	0.255954
H77	H	1.086013	-0.255218	-0.093749
H78	H	0.869402	-0.252638	0.090200
H79	H	1.343223	-0.241258	0.436758
H80	H	0.869202	-0.250316	-0.094555
C81	C	0.875319	-0.137364	0.182174
N82	N	0.843594	-0.104610	0.251900
H83	H	1.707862	0.445280	0.000048
H84	H	1.343196	-0.241257	0.255958
