data_functionalizedCrystal
_audit_creation_method	'MofGen! by Chris Wilmer'
_symmetry_space_group_name_H-M	'P1'
_symmetry_Int_Tables_number	1
_symmetry_cell_setting	triclinic
loop_
_symmetry_equiv_pos_as_xyz
  x,y,z
_cell_length_a	8.497374
_cell_length_b	21.395362
_cell_length_c	21.395355
_cell_angle_alpha	90.043940
_cell_angle_beta	89.999406
_cell_angle_gamma	89.983023
loop_
_atom_site_label
_atom_site_type_symbol
_atom_site_fract_x
_atom_site_fract_y
_atom_site_fract_z
Zn1	Zn	0.627570	0.957988	0.354664
Zn2	Zn	0.891343	0.957945	0.249919
Zn3	Zn	0.627643	0.853203	0.249865
Zn4	Zn	0.891375	0.853227	0.354624
O5	O	0.759483	0.905591	0.302268
O6	O	0.662516	1.045661	0.340808
O7	O	0.856379	0.944023	0.162234
O8	O	0.406871	0.867112	0.263761
O9	O	0.856308	1.045629	0.263853
O10	O	0.406817	0.944097	0.340756
O11	O	0.662641	0.867070	0.162194
O12	O	0.662672	0.765529	0.263722
O13	O	0.856364	0.867151	0.442307
O14	O	0.856435	0.765546	0.340688
O15	O	0.662547	0.944119	0.442336
O16	O	1.112109	0.944046	0.263814
O17	O	1.112133	0.867109	0.340740
C18	C	0.759566	0.742803	0.302195
C19	C	0.759640	0.673162	0.302179
C20	C	0.860666	0.640474	0.342195
C21	C	0.860627	0.575039	0.342223
C22	C	0.759579	0.542294	0.302224
C23	C	0.658534	0.574989	0.262205
C24	C	0.658564	0.640423	0.262182
C25	C	0.746870	0.438566	0.245817
C26	C	0.746851	0.373133	0.245838
C27	C	0.759476	0.340473	0.302293
C28	C	0.772154	0.373253	0.358728
C29	C	0.772184	0.438688	0.358706
C30	C	0.759534	0.471341	0.302244
C31	C	0.860465	0.236833	0.342342
C32	C	0.860416	0.171396	0.342371
C33	C	0.658331	0.171348	0.262348
C34	C	0.658372	0.236783	0.262324
C35	C	0.759448	0.269522	0.302321
C36	C	1.169363	0.905583	0.302277
C37	C	1.348007	0.905600	0.302267
C38	C	0.759451	0.905643	0.465691
C39	C	0.759437	0.905665	0.535332
C40	C	0.759400	1.069014	0.302341
C41	C	0.759365	1.138655	0.302372
C42	C	0.759401	0.905575	0.139480
C43	C	0.758970	0.905674	0.069839
C44	C	0.658513	0.945740	0.568062
C45	C	0.658445	0.945740	0.633497
C46	C	0.759330	0.905670	0.666201
C47	C	0.860261	0.865587	0.633464
C48	C	0.860315	0.865584	0.568029
C49	C	0.901380	0.900723	0.769882
C50	C	0.901329	0.900730	0.835315
C51	C	0.759163	0.905674	0.868022
C52	C	0.617044	0.910624	0.835287
C53	C	0.617097	0.910621	0.769853
C54	C	0.759282	0.905668	0.737153
C55	C	0.658156	0.945750	0.971704
C56	C	0.658086	0.945745	1.037140
C57	C	0.859916	0.865595	1.037105
C58	C	0.859973	0.865597	0.971670
C59	C	0.759095	0.905678	0.938973
H60	H	0.736582	0.465153	0.199841
H61	H	1.017051	0.896703	0.861963
H62	H	0.501279	0.914651	0.861915
H63	H	0.576007	0.978383	0.945080
O64	O	0.958669	0.672245	0.381142
C65	C	0.924441	0.656314	0.443612
H66	H	0.798413	0.638356	0.446854
H67	H	1.009060	0.618332	0.459949
C68	C	1.097776	0.736537	0.481420
C69	C	0.942982	0.714485	0.485403
H70	H	1.109219	0.772418	0.507199
H71	H	1.120842	0.747269	0.439333
H72	H	1.168275	0.704880	0.495033
H73	H	0.872488	0.746140	0.471782
H74	H	0.919905	0.703760	0.527488
O75	O	0.560456	0.543254	0.223260
C76	C	0.594735	0.559160	0.160788
H77	H	0.655396	0.606657	0.159440
H78	H	0.675748	0.522295	0.139647
C79	C	0.366296	0.503836	0.124580
C80	C	0.440789	0.562175	0.122925
H81	H	0.271337	0.505694	0.101223
H82	H	0.343204	0.493118	0.166668
H83	H	0.433822	0.473122	0.106964
H84	H	0.373270	0.592887	0.140548
H85	H	0.463866	0.572899	0.080838
H86	H	0.576292	0.667037	0.229596
H87	H	0.576368	0.978377	0.541444
H88	H	1.017119	0.896530	0.743258
H89	H	0.942397	0.832960	0.660095
O90	O	0.560357	0.984732	0.665203
C91	C	0.471302	1.020094	0.622312
H92	H	0.535948	1.022257	0.575676
H93	H	0.351496	0.997160	0.615325
C94	C	0.369135	1.084123	0.705177
C95	C	0.448541	1.086785	0.647899
H96	H	0.355088	1.125261	0.720961
H97	H	0.429128	1.060298	0.734074
H98	H	0.269306	1.065009	0.699346
H99	H	0.548375	1.105892	0.653732
H100	H	0.388563	1.110615	0.619004
O101	O	0.478908	0.915401	0.738151
C102	C	0.353411	0.919782	0.781043
H103	H	0.390725	0.898731	0.827678
H104	H	0.320613	0.970984	0.788032
C105	C	0.164392	0.909693	0.698180
C106	C	0.210218	0.883833	0.755457
H107	H	0.076060	0.887520	0.682396
H108	H	0.248940	0.906743	0.669282
H109	H	0.137071	0.952360	0.704012
H110	H	0.237556	0.841168	0.749622
H111	H	0.125670	0.886774	0.784353
O112	O	0.559990	0.984735	1.068839
C113	C	0.470946	1.020098	1.025945
H114	H	0.535605	1.022263	0.979312
H115	H	0.351144	0.997163	1.018951
C116	C	0.368752	1.084125	1.108806
C117	C	0.448174	1.086788	1.051532
H118	H	0.354698	1.125261	1.124590
H119	H	0.428738	1.060299	1.137705
H120	H	0.268925	1.065009	1.102970
H121	H	0.548006	1.105895	1.057370
H122	H	0.388204	1.110618	1.022634
H123	H	0.782432	0.346663	0.404699
H124	H	0.942759	0.263490	0.374913
O125	O	0.560195	0.268443	0.223388
C126	C	0.470967	0.225512	0.188100
H127	H	0.535553	0.178854	0.185908
H128	H	0.351235	0.218602	0.211118
C129	C	0.368667	0.308288	0.124114
C130	C	0.447999	0.250982	0.121417
H131	H	0.354491	0.323999	0.082981
H132	H	0.428776	0.337212	0.147889
H133	H	0.268899	0.302522	0.143298
H134	H	0.547772	0.256751	0.102240
H135	H	0.387905	0.222060	0.097637
O136	O	0.957879	0.826735	1.068962
C137	C	0.936167	0.835319	1.133735
H138	H	0.884450	0.883672	1.142701
H139	H	0.852176	0.798154	1.152270
C140	C	1.159287	0.770196	1.156332
C141	C	1.095780	0.829586	1.167344
H142	H	1.257742	0.766657	1.177064
H143	H	1.173913	0.764411	1.112693
H144	H	1.089280	0.739232	1.171777
H145	H	1.165778	0.860548	1.151892
H146	H	1.081170	0.835376	1.210981
H147	H	0.942894	0.548419	0.374811
O148	O	0.958169	0.826651	0.939970
C149	C	1.047170	0.791270	0.982863
H150	H	1.052587	0.816935	1.029526
H151	H	0.989411	0.743689	0.989781
C152	C	1.208441	0.750706	0.900027
C153	C	1.215106	0.782231	0.957338
H154	H	1.312030	0.745128	0.884281
H155	H	1.148476	0.774541	0.871128
H156	H	1.160302	0.711058	0.905799
H157	H	1.263226	0.821881	0.951563
H158	H	1.275082	0.758403	0.986235
H159	H	0.942498	0.832947	0.541381
H160	H	0.942680	0.144783	0.374961
O161	O	0.784426	0.470434	0.413580
C162	C	0.795606	0.427583	0.463416
H163	H	0.742525	0.380930	0.448632
H164	H	0.924568	0.420617	0.476356
C165	C	0.770509	0.510503	0.538502
C166	C	0.705302	0.453205	0.520347
H167	H	0.714813	0.526308	0.573621
H168	H	0.762983	0.539373	0.504928
H169	H	0.877976	0.504690	0.549281
H170	H	0.597844	0.459020	0.509561
H171	H	0.712808	0.424336	0.553921
H172	H	0.736538	0.346448	0.199885
H173	H	0.576048	0.144687	0.229782
