data_functionalizedCrystal
_audit_creation_method	'MofGen! by Chris Wilmer'
_symmetry_space_group_name_H-M	'P1'
_symmetry_Int_Tables_number	1
_symmetry_cell_setting	triclinic
loop_
_symmetry_equiv_pos_as_xyz
  x,y,z
_cell_length_a	14.044220
_cell_length_b	13.339070
_cell_length_c	12.503584
_cell_angle_alpha	85.519063
_cell_angle_beta	93.835451
_cell_angle_gamma	104.409086
loop_
_atom_site_label
_atom_site_type_symbol
_atom_site_fract_x
_atom_site_fract_y
_atom_site_fract_z
O1	O	-1.327425	-0.244336	-0.089193
O2	O	-1.049086	-0.235319	-0.089221
O3	O	-1.156311	-0.089681	-0.089207
O4	O	-1.220200	-0.389974	-0.089207
O5	O	-1.148252	-0.100656	0.089434
O6	O	-1.041028	-0.246294	0.089420
O7	O	-1.319366	-0.255310	0.089447
Cu8	Cu	-1.179461	-0.251804	0.105745
Cu9	Cu	-1.188992	-0.238825	-0.105519
O10	O	-1.212141	-0.400948	0.089434
C11	C	-1.008705	-0.236860	0.000096
C12	C	-0.900384	-0.225089	0.000085
C13	C	-1.141490	-0.056505	0.000111
C14	C	-1.109322	0.058700	0.000103
C15	C	-1.359748	-0.253769	0.000128
C16	C	-1.468069	-0.265540	0.000132
C17	C	-0.702062	-0.203571	0.000106
C18	C	-0.666384	-0.287053	0.000111
C19	C	-0.556031	-0.275080	0.000123
C20	C	-0.812425	-0.215543	0.000094
C21	C	-1.226963	-0.434124	0.000113
C22	C	-1.259132	-0.549329	0.000114
N23	N	-1.172765	-0.260932	0.254336
C24	C	-1.359447	0.400920	0.000129
C25	C	-1.389673	0.292679	0.000142
C26	C	-1.319588	0.234179	0.000132
C27	C	-1.219271	0.283931	0.000109
C28	C	-1.189041	0.392182	0.000105
C29	C	-1.149182	0.225441	0.000108
C30	C	-1.048865	0.275192	0.000085
C31	C	-1.018640	0.383433	0.000080
C32	C	-1.088726	0.441933	0.000090
C33	C	-1.179412	0.117189	0.000112
C34	C	-1.009006	0.108451	0.000088
C35	C	-0.978780	0.216692	0.000075
C36	C	-1.162916	-0.274369	0.473450
C37	C	-1.205539	-0.216266	0.526783
C38	C	-1.200059	-0.223742	0.648705
C39	C	-1.168395	-0.266894	0.351517
N40	N	-1.195693	-0.229700	0.745890
H41	H	-0.718717	-0.367515	0.000105
Br42	Br	-1.095242	-0.366636	0.549959
H43	H	-1.261091	0.076692	0.000131
Br44	Br	-0.614842	-0.069469	0.000112
H45	H	-0.936956	0.423937	0.000070
Br46	Br	-1.360611	0.087278	0.000146
Br47	Br	-1.047713	0.588848	-0.000073
Br48	Br	-1.525812	0.225167	0.000149
Br49	Br	-0.913883	0.029067	0.000087
Br50	Br	-1.454549	0.480314	0.000168
H51	H	-0.897100	0.257215	0.000058
Br52	Br	-1.273744	-0.124471	0.450275
