data_functionalizedCrystal
_audit_creation_method	'MofGen! by Chris Wilmer'
_symmetry_space_group_name_H-M	'P1'
_symmetry_Int_Tables_number	1
_symmetry_cell_setting	triclinic
loop_
_symmetry_equiv_pos_as_xyz
  x,y,z
_cell_length_a	19.188905
_cell_length_b	10.540539
_cell_length_c	17.666332
_cell_angle_alpha	90.000523
_cell_angle_beta	90.013693
_cell_angle_gamma	96.169976
loop_
_atom_site_label
_atom_site_type_symbol
_atom_site_fract_x
_atom_site_fract_y
_atom_site_fract_z
O1	O	0.927214	-0.158312	0.063070
O2	O	0.724042	-0.179678	0.063043
O3	O	0.830263	0.015815	0.063056
O4	O	0.820993	-0.353804	0.063057
O5	O	0.830249	0.015808	-0.062841
O6	O	0.724028	-0.179684	-0.062853
O7	O	0.927200	-0.158318	-0.062827
Cu8	Cu	0.825613	-0.169002	-0.074336
Cu9	Cu	0.825629	-0.168994	0.074552
O10	O	0.820979	-0.353811	-0.062840
C11	C	0.698019	-0.178994	0.000092
C12	C	0.620500	-0.176933	0.000082
C13	C	0.584110	-0.175940	0.068710
C14	C	0.511273	-0.173989	0.068720
C15	C	0.474831	-0.173006	0.000097
C16	C	0.511230	-0.174007	-0.068541
C17	C	0.584065	-0.175971	-0.068548
N18	N	0.365303	-0.097692	-0.050973
N19	N	0.296114	-0.095824	-0.050961
C20	C	0.255385	-0.167093	0.000115
N21	N	0.286461	-0.240284	0.051190
N22	N	0.355657	-0.242147	0.051181
C23	C	0.395855	-0.170878	0.000097
C24	C	0.140017	-0.163986	0.068758
C25	C	0.067178	-0.162043	0.068765
C26	C	0.067138	-0.162049	-0.068497
C27	C	0.139974	-0.164004	-0.068502
C28	C	0.176410	-0.164967	0.000128
C29	C	0.829561	0.063099	0.000109
C30	C	0.827481	0.204001	0.000113
C31	C	0.953223	-0.159002	0.000126
C32	C	1.030742	-0.161063	0.000141
C33	C	0.821681	-0.401095	0.000109
C34	C	0.823761	-0.541997	0.000110
C35	C	0.747779	0.385658	0.000385
C36	C	0.749887	0.239087	0.000102
C37	C	0.864814	0.266484	-0.071775
C38	C	0.862166	0.412969	-0.071836
C39	C	0.863761	0.413530	0.071332
C40	C	0.864475	0.266564	0.072283
N41	N	0.825606	-0.169007	-0.179055
C42	C	0.868368	-0.245756	-0.781098
C43	C	0.868361	-0.245769	-0.701851
C44	C	0.825636	-0.168981	-0.662236
C45	C	0.782901	-0.092200	-0.701876
C46	C	0.782904	-0.092199	-0.781122
N47	N	0.823204	-0.057793	-0.537813
N48	N	0.823205	-0.057797	-0.462532
C49	C	0.825623	-0.168981	-0.423472
N50	N	0.828054	-0.280162	-0.462537
N51	N	0.828056	-0.280157	-0.537824
C52	C	0.825628	-0.168974	-0.576307
C53	C	0.868345	-0.245778	-0.297913
C54	C	0.868333	-0.245793	-0.218664
C55	C	0.782876	-0.092212	-0.218691
C56	C	0.782884	-0.092209	-0.297938
C57	C	0.825622	-0.168990	-0.337545
N58	N	0.825642	-0.168980	0.179271
H59	H	0.037550	-0.161242	0.124652
H60	H	0.037468	-0.161256	-0.124371
O61	O	0.828344	0.211539	0.142731
H62	H	0.854796	0.256244	0.193484
O63	O	0.914438	-0.328582	-0.340642
H64	H	0.881313	-0.396948	-0.376768
O65	O	0.736817	-0.009382	-0.659150
H66	H	0.707101	0.044001	-0.700025
O67	O	0.179327	-0.165035	0.142772
H68	H	0.159569	-0.251160	0.175680
O69	O	0.623406	-0.176984	0.142730
H70	H	0.650794	-0.264369	0.146010
H71	H	0.921047	0.243599	0.076631
O72	O	0.472011	-0.172892	0.142742
H73	H	0.509584	-0.173878	0.190462
O74	O	0.710974	0.181775	0.068357
H75	H	0.666688	0.112654	0.049395
O76	O	0.736831	-0.009344	-0.340691
H77	H	0.707131	0.044075	-0.299833
H78	H	0.717133	0.413581	0.051937
H79	H	0.748109	-0.029676	-0.813389
O80	O	0.179231	-0.165095	-0.142523
H81	H	0.141656	-0.164087	-0.190241
H82	H	0.481555	-0.173210	-0.124414
O83	O	0.707331	0.424741	-0.067533
H84	H	0.741110	0.495466	-0.101486
H85	H	0.838653	0.444528	0.125819
O86	O	0.623322	-0.177039	-0.142571
H87	H	0.650699	-0.264435	-0.145852
H88	H	0.903124	-0.308322	-0.186398
O89	O	0.914458	-0.328573	-0.823818
H90	H	0.899769	-0.430099	-0.808617
H91	H	0.919806	0.462000	0.071823
H92	H	0.720293	0.196672	-0.051524
O93	O	0.825596	0.449523	-0.143021
H94	H	0.809963	0.362613	-0.177075
O95	O	0.936078	0.478168	-0.076171
H96	H	0.966400	0.450276	-0.026485
O97	O	0.940292	0.238543	-0.075322
H98	H	0.952024	0.179681	-0.025767
O99	O	0.830455	0.209298	-0.142654
H100	H	0.786794	0.136395	-0.126861
O101	O	0.914451	-0.328571	-0.659091
H102	H	0.944173	-0.381954	-0.699946
H103	H	0.748084	-0.029698	-0.186438
