data_functionalizedCrystal
_audit_creation_method	'MofGen! by Chris Wilmer'
_symmetry_space_group_name_H-M	'P1'
_symmetry_Int_Tables_number	1
_symmetry_cell_setting	triclinic
loop_
_symmetry_equiv_pos_as_xyz
  x,y,z
_cell_length_a	18.050591
_cell_length_b	18.215405
_cell_length_c	18.215399
_cell_angle_alpha	90.032960
_cell_angle_beta	89.977309
_cell_angle_gamma	89.979109
loop_
_atom_site_label
_atom_site_type_symbol
_atom_site_fract_x
_atom_site_fract_y
_atom_site_fract_z
Zn1	Zn	1.135323	0.293053	-0.416218
Zn2	Zn	1.468656	0.626386	-0.082884
Zn3	Zn	1.801989	0.959719	0.250449
Zn4	Zn	1.135237	0.416129	-0.293146
Zn5	Zn	1.468570	0.749462	0.040188
Zn6	Zn	1.801903	1.082796	0.373521
Zn7	Zn	1.011138	0.293072	-0.293152
Zn8	Zn	1.344471	0.626406	0.040181
Zn9	Zn	1.677805	0.959739	0.373514
Zn10	Zn	1.011097	0.416073	-0.416158
Zn11	Zn	1.344430	0.749407	-0.082825
Zn12	Zn	1.677764	1.082740	0.250509
O13	O	1.073199	0.354582	-0.354669
O14	O	1.406532	0.687915	-0.021335
O15	O	1.739865	1.021249	0.311998
O16	O	1.239236	0.309394	-0.399914
O17	O	1.572569	0.642727	-0.066581
O18	O	1.905903	0.976061	0.266753
O19	O	1.118756	0.399837	-0.190162
O20	O	1.452089	0.733170	0.143171
O21	O	1.785423	1.066504	0.476504
O22	O	1.027665	0.190086	-0.309505
O23	O	1.360998	0.523419	0.023828
O24	O	1.694331	0.856752	0.357162
O25	O	1.239173	0.399818	-0.309494
O26	O	1.572506	0.733151	0.023840
O27	O	1.905839	1.066484	0.357173
O28	O	1.118902	0.190071	-0.399921
O29	O	1.452236	0.523404	-0.066587
O30	O	1.785569	0.856738	0.266746
O31	O	1.027581	0.309428	-0.190167
O32	O	1.360915	0.642761	0.143166
O33	O	1.694248	0.976094	0.476499
O34	O	0.907208	0.309374	-0.309447
O35	O	1.240541	0.642707	0.023886
O36	O	1.573875	0.976040	0.357219
O37	O	1.027595	0.399723	-0.519150
O38	O	1.360928	0.733056	-0.185817
O39	O	1.694261	1.066390	0.147516
O40	O	0.907178	0.399742	-0.399819
O41	O	1.240511	0.733075	-0.066486
O42	O	1.573845	1.066409	0.266848
O43	O	1.118863	0.309340	-0.519194
O44	O	1.452196	0.642673	-0.185861
O45	O	1.785529	0.976007	0.147473
O46	O	1.118716	0.519106	-0.309436
O47	O	1.452050	0.852439	0.023897
O48	O	1.785383	1.185773	0.357231
O49	O	1.027511	0.519065	-0.399813
O50	O	1.360845	0.852398	-0.066479
O51	O	1.694178	1.185732	0.266854
C52	C	0.880247	0.354555	-0.354628
C53	C	1.213580	0.687888	-0.021295
C54	C	1.546913	1.021221	0.312039
C55	C	0.797701	0.354561	-0.354628
C56	C	1.131034	0.687894	-0.021295
C57	C	1.464367	1.021227	0.312039
C58	C	1.073120	0.545788	-0.354633
C59	C	1.406454	0.879122	-0.021300
C60	C	1.739787	1.212455	0.312034
C61	C	1.073155	0.627587	-0.354643
C62	C	1.406488	0.960920	-0.021309
C63	C	1.739821	1.294254	0.312024
C64	C	1.073234	0.354523	-0.546622
C65	C	1.406567	0.687856	-0.213288
C66	C	1.739900	1.021190	0.120045
C67	C	1.073249	0.354498	-0.628420
C68	C	1.406582	0.687831	-0.295087
C69	C	1.739915	1.021165	0.038246
C70	C	0.598245	0.305361	-0.305597
C71	C	0.931578	0.638695	0.027736
C72	C	1.264912	0.972028	0.361070
C73	C	0.548829	0.372487	-0.287483
C74	C	0.882162	0.705820	0.045850
C75	C	1.215495	1.039153	0.379183
C76	C	0.646570	0.354583	-0.354661
C77	C	0.979904	0.687916	-0.021328
C78	C	1.313237	1.021250	0.312006
C79	C	0.548905	0.287481	-0.372773
C80	C	0.882238	0.620814	-0.039440
C81	C	1.215572	0.954147	0.293894
C82	C	0.500585	0.354599	-0.354692
C83	C	0.833919	0.687932	-0.021359
C84	C	1.167252	1.021265	0.311975
C85	C	0.598241	0.421744	-0.336512
C86	C	0.931575	0.755077	-0.003179
C87	C	1.264908	1.088410	0.330154
C88	C	0.598322	0.336692	-0.421833
C89	C	0.931655	0.670026	-0.088500
C90	C	1.264989	1.003359	0.244833
C91	C	0.548928	0.403864	-0.403745
C92	C	0.882261	0.737197	-0.070412
C93	C	1.215595	1.070531	0.262922
C94	C	0.730669	0.354573	-0.354642
C95	C	1.064002	0.687906	-0.021308
C96	C	1.397335	1.021240	0.312025
C97	C	0.416489	0.354616	-0.354712
C98	C	0.749822	0.687949	-0.021378
C99	C	1.083155	1.021283	0.311955
C100	C	1.266904	0.354610	-0.354710
C101	C	1.600238	0.687943	-0.021376
C102	C	1.933571	1.021277	0.311957
C103	C	1.349450	0.354622	-0.354727
C104	C	1.682783	0.687955	-0.021394
C105	C	2.016117	1.021289	0.311939
C106	C	1.073298	0.162629	-0.354720
C107	C	1.406631	0.495962	-0.021387
C108	C	1.739964	0.829296	0.311946
C109	C	1.073340	0.080830	-0.354742
C110	C	1.406673	0.414163	-0.021409
C111	C	1.740006	0.747497	0.311924
C112	C	1.120757	0.815778	-0.307670
C113	C	1.454090	1.149111	0.025663
C114	C	1.787423	1.482445	0.358997
C115	C	1.120790	0.892637	-0.307688
C116	C	1.454123	1.225970	0.025645
C117	C	1.787456	1.559303	0.358979
C118	C	1.025736	0.892634	-0.401720
C119	C	1.359069	1.225967	-0.068387
C120	C	1.692403	1.559301	0.264947
C121	C	1.025707	0.815777	-0.401705
C122	C	1.359040	1.149110	-0.068372
C123	C	1.692374	1.482443	0.264961
C124	C	1.073216	0.777351	-0.354676
C125	C	1.406550	1.110684	-0.021343
C126	C	1.739883	1.444017	0.311990
C127	C	1.073278	0.931067	-0.354709
C128	C	1.406612	1.264400	-0.021375
C129	C	1.739945	1.597733	0.311958
C130	C	1.073314	1.014400	-0.354728
C131	C	1.406647	1.347734	-0.021395
C132	C	1.739981	1.681067	0.311938
C133	C	1.073182	0.694012	-0.354657
C134	C	1.406515	1.027345	-0.021324
C135	C	1.739848	1.360678	0.312009
C136	C	1.025814	0.307390	-0.816618
C137	C	1.359147	0.640724	-0.483285
C138	C	1.692481	0.974057	-0.149951
C139	C	1.025827	0.307375	-0.893477
C140	C	1.359160	0.640709	-0.560143
C141	C	1.692494	0.974042	-0.226810
C142	C	1.120772	0.401518	-0.893461
C143	C	1.454105	0.734852	-0.560128
C144	C	1.787439	1.068185	-0.226794
C145	C	1.120755	0.401536	-0.816604
C146	C	1.454088	0.734870	-0.483270
C147	C	1.787422	1.068203	-0.149937
C148	C	1.073277	0.354468	-0.778184
C149	C	1.406610	0.687801	-0.444851
C150	C	1.739944	1.021135	-0.111517
C151	C	1.073307	0.354435	-0.931900
C152	C	1.406640	0.687769	-0.598567
C153	C	1.739974	1.021102	-0.265234
C154	C	1.073321	0.354419	-1.015234
C155	C	1.406655	0.687753	-0.681901
C156	C	1.739988	1.021086	-0.348567
C157	C	1.073262	0.354485	-0.694845
C158	C	1.406595	0.687818	-0.361512
C159	C	1.739928	1.021151	-0.028178
C160	C	1.073206	0.354587	-0.163462
C161	C	1.406540	0.687921	0.169871
C162	C	1.739873	1.021254	0.503204
C163	C	1.073335	0.354405	-0.081664
C164	C	1.406669	0.687738	0.251669
C165	C	1.740002	1.021072	0.585003
H166	H	0.619899	0.263781	-0.264060
H167	H	0.953232	0.597114	0.069273
H168	H	1.286566	0.930448	0.402607
C169	C	1.173022	0.773512	-0.255941
C170	C	1.506355	1.106845	0.077392
C171	C	1.839689	1.440179	0.410726
N172	N	1.212392	0.741679	-0.216979
N173	N	1.545725	1.075013	0.116355
N174	N	1.879059	1.408346	0.449688
H175	H	0.527090	0.387630	-0.230690
H176	H	0.860423	0.720964	0.102643
H177	H	1.193757	1.054297	0.435977
H178	H	0.986994	0.784487	-0.439987
H179	H	1.320327	1.117820	-0.106653
H180	H	1.653660	1.451154	0.226680
C181	C	0.627394	0.498437	-0.315740
C182	C	0.960727	0.831770	0.017593
C183	C	1.294061	1.165104	0.350927
N184	N	0.649354	0.556200	-0.300091
N185	N	0.982687	0.889533	0.033242
N186	N	1.316020	1.222867	0.366576
H187	H	0.987154	0.269064	-0.785339
H188	H	1.320488	0.602398	-0.452006
H189	H	1.653821	0.935731	-0.118672
H190	H	1.159407	0.439875	-0.785310
H191	H	1.492740	0.773209	-0.451977
H192	H	1.826073	1.106542	-0.118643
C193	C	0.519630	0.210808	-0.393455
C194	C	0.852963	0.544142	-0.060121
C195	C	1.186297	0.877475	0.273212
N196	N	0.497584	0.153057	-0.409027
N197	N	0.830917	0.486390	-0.075694
N198	N	1.164250	0.819724	0.257640
H199	H	0.987177	0.269041	-0.924766
H200	H	1.320511	0.602374	-0.591433
H201	H	1.653844	0.935707	-0.258100
H202	H	0.527410	0.445544	-0.445250
H203	H	0.860744	0.778877	-0.111917
H204	H	1.194077	1.112211	0.221416
H205	H	1.159427	0.439839	-0.924751
H206	H	1.492761	0.773172	-0.591418
H207	H	1.826094	1.106506	-0.258085
C208	C	0.627722	0.316203	-0.498533
C209	C	0.961055	0.649536	-0.165200
C210	C	1.294389	0.982870	0.168134
N211	N	0.649870	0.300761	-0.556303
N212	N	0.983203	0.634095	-0.222969
N213	N	1.316536	0.967428	0.110364
H214	H	1.159503	0.923921	-0.269412
H215	H	1.492836	1.257254	0.063921
H216	H	1.826170	1.590587	0.397255
C217	C	0.973470	0.934910	-0.453441
C218	C	1.306804	1.268243	-0.120107
C219	C	1.640137	1.601576	0.213226
N220	N	0.934099	0.966751	-0.492395
N221	N	1.267433	1.300085	-0.159062
N222	N	1.600766	1.633418	0.174272
