data_functionalizedCrystal
_audit_creation_method	'MofGen! by Chris Wilmer'
_symmetry_space_group_name_H-M	'P1'
_symmetry_Int_Tables_number	1
_symmetry_cell_setting	triclinic
loop_
_symmetry_equiv_pos_as_xyz
  x,y,z
_cell_length_a	12.645331
_cell_length_b	12.645330
_cell_length_c	12.645323
_cell_angle_alpha	89.975130
_cell_angle_beta	89.984262
_cell_angle_gamma	90.016927
loop_
_atom_site_label
_atom_site_type_symbol
_atom_site_fract_x
_atom_site_fract_y
_atom_site_fract_z
Zn1	Zn	1.620731	-0.422053	-0.599250
Zn2	Zn	1.620613	-0.599341	-0.421990
Zn3	Zn	1.443446	-0.422089	-0.422016
Zn4	Zn	1.443428	-0.599272	-0.599227
O5	O	1.532054	-0.510689	-0.510621
O6	O	1.769063	-0.445584	-0.575735
O7	O	1.597069	-0.575872	-0.273646
O8	O	1.467020	-0.273737	-0.445547
O9	O	1.768976	-0.575836	-0.445503
O10	O	1.597271	-0.273710	-0.575760
O11	O	1.466905	-0.445646	-0.273665
O12	O	1.295096	-0.445580	-0.445524
O13	O	1.466989	-0.575720	-0.747577
O14	O	1.295083	-0.575755	-0.575721
O15	O	1.597253	-0.445517	-0.747594
O16	O	1.597052	-0.747679	-0.445481
O17	O	1.466874	-0.747629	-0.575696
C18	C	1.256625	-0.510665	-0.510623
C19	C	1.138795	-0.510680	-0.510650
C20	C	0.971258	-0.593022	-0.592129
C21	C	1.093818	-0.592757	-0.592470
C22	C	1.094316	-0.399025	-0.541171
C23	C	0.971718	-0.399528	-0.541745
C24	C	0.971549	-0.539093	-0.398390
C25	C	1.094155	-0.541535	-0.398996
C26	C	1.531977	-0.786118	-0.510606
C27	C	1.532041	-0.903948	-0.510635
C28	C	1.450484	-1.071525	-0.592806
C29	C	1.450067	-0.948966	-0.592542
C30	C	1.501796	-0.948542	-0.398917
C31	C	1.501298	-1.071141	-0.399415
C32	C	1.644342	-1.071039	-0.539276
C33	C	1.643654	-0.948432	-0.541719
C34	C	1.808560	-0.510714	-0.510619
C35	C	1.926390	-0.510724	-0.510618
C36	C	1.532132	-0.510607	-0.787126
C37	C	1.532166	-0.510572	-0.904956
C38	C	1.532161	-0.234183	-0.510659
C39	C	1.532206	-0.116353	-0.510675
C40	C	1.449964	-0.592096	-1.072510
C41	C	1.450179	-0.592500	-0.949950
C42	C	1.643865	-0.540892	-0.949463
C43	C	1.643414	-0.541403	-1.072061
C44	C	1.503724	-0.398272	-1.072158
C45	C	1.501232	-0.398944	-0.949551
C46	C	1.532038	-0.510694	-0.235191
C47	C	1.532210	-0.510430	-0.117361
H48	H	0.943144	-0.375465	-0.623788
H49	H	1.671932	-1.101884	-0.619356
C50	C	1.674475	-0.909042	-0.652786
C51	C	1.604664	-0.936571	-0.748670
C52	C	1.635479	-0.897171	-0.859737
C53	C	1.736105	-0.830242	-0.874920
C54	C	1.805923	-0.802709	-0.779033
C55	C	1.775108	-0.842109	-0.667966
H56	H	1.530168	-0.986119	-0.737433
H57	H	1.583794	-0.917553	-0.930718
H58	H	1.758916	-0.801075	-0.957138
H59	H	1.880419	-0.753161	-0.790270
H60	H	1.826793	-0.821727	-0.596985
C61	C	1.475609	-0.908245	-0.704463
C62	C	1.573322	-0.837908	-0.722928
C63	C	1.598852	-0.797206	-0.834861
C64	C	1.526668	-0.826841	-0.928330
C65	C	1.428949	-0.897182	-0.909869
C66	C	1.403419	-0.937884	-0.797935
H67	H	1.626762	-0.815966	-0.653734
H68	H	1.671191	-0.745134	-0.848527
H69	H	1.545567	-0.796711	-1.011190
H70	H	1.375508	-0.919124	-0.979062
H71	H	1.331080	-0.989956	-0.784269
C72	C	1.133447	-0.652526	-0.367885
C73	C	1.100480	-0.701155	-0.261180
C74	C	1.139789	-0.812140	-0.230066
C75	C	1.212067	-0.874497	-0.305657
C76	C	1.245038	-0.825869	-0.412368
C77	C	1.205728	-0.714883	-0.443482
H78	H	1.046972	-0.654994	-0.205217
H79	H	1.115382	-0.848138	-0.151071
H80	H	1.241166	-0.956655	-0.282625
H81	H	1.298545	-0.872029	-0.468331
H82	H	1.230136	-0.678886	-0.522477
H83	H	1.559431	-0.919385	-0.336051
C84	C	1.338876	-1.113265	-0.567546
C85	C	1.321694	-1.187806	-0.472750
C86	C	1.210089	-1.229551	-0.447490
C87	C	1.115665	-1.196756	-0.517026
C88	C	1.132844	-1.122212	-0.611829
C89	C	1.244450	-1.080467	-0.637089
H90	H	1.391595	-1.212086	-0.421269
H91	H	1.197372	-1.284734	-0.377310
H92	H	1.033048	-1.227659	-0.498327
H93	H	1.062944	-1.097932	-0.663309
H94	H	1.257167	-1.025284	-0.707269
H95	H	1.367350	-0.573526	-0.919858
C96	C	1.134458	-0.704610	-0.566639
C97	C	1.204296	-0.763986	-0.646788
C98	C	1.244932	-0.875845	-0.620962
C99	C	1.215731	-0.928327	-0.514988
C100	C	1.145890	-0.868950	-0.434833
C101	C	1.105253	-0.757092	-0.460659
H102	H	1.225915	-0.725136	-0.725242
H103	H	1.296634	-0.919799	-0.680299
H104	H	1.245813	-1.011131	-0.495871
H105	H	1.124270	-0.907801	-0.356379
H106	H	1.053552	-0.713138	-0.401322
H107	H	1.707747	-0.917783	-0.486255
H108	H	1.123449	-0.336041	-0.483657
C109	C	0.929776	-0.647204	-0.360900
C110	C	0.864803	-0.655172	-0.258189
C111	C	0.823032	-0.763289	-0.220713
C112	C	0.846235	-0.863438	-0.285948
C113	C	0.911212	-0.855473	-0.388666
C114	C	0.952982	-0.747356	-0.426142
H115	H	0.847623	-0.581033	-0.209892
H116	H	0.774932	-0.769184	-0.144674
H117	H	0.815314	-0.943472	-0.258206
H118	H	0.928391	-0.929612	-0.436963
H119	H	1.001083	-0.741461	-0.502181
H120	H	1.706772	-0.484504	-1.101732
C121	C	0.932347	-0.458119	-0.316337
C122	C	0.859724	-0.366704	-0.350928
C123	C	0.820516	-0.285726	-0.268886
C124	C	0.853933	-0.296164	-0.152253
C125	C	0.926560	-0.387583	-0.117657
C126	C	0.965767	-0.468561	-0.199699
H127	H	0.834983	-0.358973	-0.437271
H128	H	0.766753	-0.218051	-0.294497
H129	H	0.824909	-0.236219	-0.091521
H130	H	0.951300	-0.395314	-0.031313
H131	H	1.019531	-0.536236	-0.174088
C132	C	1.726601	-1.110200	-0.458473
C133	C	1.713690	-1.083142	-0.340451
C134	C	1.795939	-1.122308	-0.259645
C135	C	1.891099	-1.188532	-0.296860
C136	C	1.904015	-1.215594	-0.414888
C137	C	1.821766	-1.176428	-0.495694
H138	H	1.643243	-1.034116	-0.312897
H139	H	1.786378	-1.102275	-0.172273
H140	H	1.951985	-1.217525	-0.237043
H141	H	1.974462	-1.264620	-0.442442
H142	H	1.831327	-1.196461	-0.583066
C143	C	1.395600	-0.360934	-1.113905
C144	C	1.331786	-0.431821	-1.189592
C145	C	1.223657	-0.394498	-1.231340
C146	C	1.179340	-0.286289	-1.197401
C147	C	1.243155	-0.215397	-1.121711
C148	C	1.351284	-0.252719	-1.079963
H149	H	1.364591	-0.511929	-1.214719
H150	H	1.176417	-0.446978	-1.287371
H151	H	1.099296	-0.258661	-1.228305
H152	H	1.210350	-0.135288	-1.096584
H153	H	1.398523	-0.200239	-1.023932
C154	C	1.475112	-0.703726	-1.114135
C155	C	1.569921	-0.720976	-1.188603
C156	C	1.595072	-0.832605	-1.230230
C157	C	1.525414	-0.926982	-1.197389
C158	C	1.430599	-0.909734	-1.122917
C159	C	1.405447	-0.798106	-1.081290
H160	H	1.621491	-0.651110	-1.212917
H161	H	1.665261	-0.845372	-1.285359
H162	H	1.544033	-1.009616	-1.228204
H163	H	1.379028	-0.979601	-1.098603
H164	H	1.335258	-0.785339	-1.026161
C165	C	1.728877	-0.463081	-0.910101
C166	C	1.697785	-0.370884	-0.836912
C167	C	1.782793	-0.293069	-0.797553
C168	C	1.898895	-0.307452	-0.831382
C169	C	1.929992	-0.399654	-0.904575
C170	C	1.844984	-0.477468	-0.943934
H171	H	1.611835	-0.360233	-0.811866
H172	H	1.759772	-0.224815	-0.743370
H173	H	1.961823	-0.249849	-0.802246
H174	H	2.015942	-0.410304	-0.929621
H175	H	1.868005	-0.545722	-0.998117
H176	H	1.469234	-1.100937	-0.675916
H177	H	1.668424	-0.622023	-0.918771
H178	H	1.123166	-0.573982	-0.675626
H179	H	1.420678	-0.917930	-0.374248
H180	H	1.366889	-0.573305	-1.101993
C181	C	1.390186	-0.368048	-0.910251
C182	C	1.368296	-0.358591	-0.790828
C183	C	1.257250	-0.327700	-0.751520
C184	C	1.168094	-0.306266	-0.831634
C185	C	1.189981	-0.315723	-0.951064
C186	C	1.301028	-0.346614	-0.990373
H187	H	1.434297	-0.374457	-0.731516
H188	H	1.241048	-0.320699	-0.663109
H189	H	1.085891	-0.283399	-0.802536
H190	H	1.123980	-0.299857	-1.010376
H191	H	1.317230	-0.353615	-1.078783
C192	C	1.576248	-0.312397	-0.908180
C193	C	1.531986	-0.219482	-0.843128
C194	C	1.607012	-0.132939	-0.801755
C195	C	1.726301	-0.139311	-0.825434
C196	C	1.770569	-0.232229	-0.890489
C197	C	1.695542	-0.318772	-0.931862
H198	H	1.443676	-0.214763	-0.825596
H199	H	1.574241	-0.064155	-0.753597
H200	H	1.781840	-0.075246	-0.794807
H201	H	1.858879	-0.236948	-0.908021
H202	H	1.728313	-0.387556	-0.980021
H203	H	0.941766	-0.676095	-0.573212
H204	H	0.940466	-0.574491	-0.674802
H205	H	1.366935	-0.919730	-0.573594
H206	H	0.942038	-0.336011	-0.485098
H207	H	1.125042	-0.374524	-0.622325
H208	H	1.468983	-0.675648	-0.920633
H209	H	1.419326	-1.099831	-0.375185
H210	H	1.124772	-0.485941	-0.335006
H211	H	1.558238	-1.100799	-0.336136
H212	H	1.667559	-0.623393	-1.100669
H213	H	1.563628	-0.337427	-1.101164
