data_functionalizedCrystal
_audit_creation_method	'MofGen! by Chris Wilmer'
_symmetry_space_group_name_H-M	'P1'
_symmetry_Int_Tables_number	1
_symmetry_cell_setting	triclinic
loop_
_symmetry_equiv_pos_as_xyz
  x,y,z
_cell_length_a	12.759401
_cell_length_b	10.685194
_cell_length_c	12.759393
_cell_angle_alpha	85.596579
_cell_angle_beta	89.980623
_cell_angle_gamma	94.378875
loop_
_atom_site_label
_atom_site_type_symbol
_atom_site_fract_x
_atom_site_fract_y
_atom_site_fract_z
Zn1	Zn	1.574249	-0.502283	-0.561930
Zn2	Zn	1.560693	-0.713354	-0.372771
Zn3	Zn	1.398546	-0.502355	-0.386262
Zn4	Zn	1.385095	-0.713262	-0.548416
O5	O	1.479646	-0.607813	-0.467345
O6	O	1.719471	-0.530290	-0.536848
O7	O	1.539140	-0.685432	-0.227535
O8	O	1.433156	-0.325746	-0.420867
O9	O	1.709512	-0.685363	-0.397873
O10	O	1.562244	-0.325693	-0.549929
O11	O	1.420011	-0.530412	-0.237447
O12	O	1.249741	-0.530324	-0.407763
O13	O	1.410230	-0.685207	-0.697234
O14	O	1.239859	-0.685277	-0.526896
O15	O	1.549201	-0.530201	-0.707163
O16	O	1.526097	-0.889941	-0.384769
O17	O	1.397086	-0.889874	-0.513814
C18	C	1.206679	-0.607799	-0.467327
C19	C	1.089901	-0.607823	-0.467343
C20	C	0.930497	-0.527218	-0.539813
C21	C	1.040221	-0.527214	-0.539802
C22	C	1.029850	-0.688450	-0.394897
C23	C	0.920128	-0.688459	-0.394914
C24	C	0.936485	-0.434126	-0.623471
C25	C	1.046210	-0.434122	-0.623460
C26	C	1.458690	-0.935697	-0.446384
C27	C	1.449821	-1.075968	-0.437452
C28	C	1.753678	-0.607829	-0.467363
C29	C	1.870454	-0.607835	-0.467371
C30	C	1.479727	-0.607686	-0.741387
C31	C	1.479762	-0.607632	-0.858167
C32	C	1.500712	-0.278649	-0.488410
C33	C	1.509689	-0.138379	-0.497387
C34	C	1.552134	-0.526913	-0.918201
C35	C	1.552162	-0.526867	-1.027928
C36	C	1.407443	-0.688271	-1.017576
C37	C	1.407411	-0.688309	-0.907852
C38	C	1.635689	-0.433731	-0.924178
C39	C	1.635717	-0.433686	-1.033905
C40	C	1.479631	-0.607849	-0.194375
C41	C	1.479822	-0.607548	-0.077618
H42	H	0.871244	-0.754116	-0.335932
Br43	Br	1.353055	-1.165768	-0.340537
Br44	Br	1.309169	-0.797835	-0.826380
H45	H	1.070308	-0.754092	-0.335906
H46	H	1.348535	-0.753952	-1.058043
Br47	Br	0.884114	-0.477939	-0.756237
H48	H	0.908374	-0.341244	-0.600395
Br49	Br	1.596879	-0.278996	-1.100543
Br50	Br	1.609789	-0.270843	-0.884974
Br51	Br	1.760757	-0.492120	-0.863711
H52	H	1.715420	-0.459860	-1.062013
Br53	Br	1.106250	-0.271170	-0.597762
H54	H	1.567732	-1.084502	-0.555539
Br55	Br	1.099263	-0.492652	-0.748457
