data_functionalizedCrystal
_audit_creation_method	'MofGen! by Chris Wilmer'
_symmetry_space_group_name_H-M	'P1'
_symmetry_Int_Tables_number	1
_symmetry_cell_setting	triclinic
loop_
_symmetry_equiv_pos_as_xyz
  x,y,z
_cell_length_a	19.805405
_cell_length_b	12.759401
_cell_length_c	12.759393
_cell_angle_alpha	90.020938
_cell_angle_beta	89.963446
_cell_angle_gamma	89.972065
loop_
_atom_site_label
_atom_site_type_symbol
_atom_site_fract_x
_atom_site_fract_y
_atom_site_fract_z
Zn1	Zn	-0.269403	-1.606181	-0.593976
Zn2	Zn	-0.382606	-1.606036	-0.418277
Zn3	Zn	-0.269439	-1.430480	-0.418311
Zn4	Zn	-0.382558	-1.430436	-0.593915
O5	O	-0.326001	-1.518283	-0.506120
O6	O	-0.284424	-1.753183	-0.570681
O7	O	-0.367629	-1.582706	-0.271261
O8	O	-0.174718	-1.453866	-0.441653
O9	O	-0.367594	-1.753076	-0.441596
O10	O	-0.174691	-1.582953	-0.570713
O11	O	-0.284486	-1.453725	-0.271285
O12	O	-0.284440	-1.283453	-0.441594
O13	O	-0.367513	-1.453791	-0.740944
O14	O	-0.367548	-1.283420	-0.570609
O15	O	-0.284378	-1.582910	-0.740989
O16	O	-0.477316	-1.582663	-0.441536
O17	O	-0.477281	-1.453650	-0.570576
C18	C	-0.325993	-1.245316	-0.506099
C19	C	-0.326006	-1.128539	-0.506115
C20	C	-0.501858	-1.518165	-0.506069
C21	C	-0.577089	-1.518210	-0.506082
C22	C	-0.325936	-1.518362	-0.780153
C23	C	-0.325909	-1.518395	-0.896930
C24	C	-0.612429	-1.585453	-0.438962
C25	C	-0.683118	-1.585497	-0.438985
C26	C	-0.718465	-1.518294	-0.506124
C27	C	-0.683120	-1.451048	-0.573252
C28	C	-0.612433	-1.451010	-0.573234
C29	C	-0.968194	-1.451203	-0.573330
C30	C	-1.038886	-1.451245	-0.573342
C31	C	-1.038878	-1.585691	-0.439081
C32	C	-0.968191	-1.585652	-0.439063
C33	C	-0.932852	-1.518411	-0.506194
C34	C	-0.856204	-1.518365	-0.506170
C35	C	-0.795112	-1.518334	-0.506144
C36	C	-0.149459	-1.518430	-0.506194
C37	C	-0.074227	-1.518493	-0.506225
C38	C	-0.326010	-1.792316	-0.506141
C39	C	-0.326014	-1.909093	-0.506150
C40	C	-0.369346	-1.073688	-0.573187
C41	C	-0.369349	-0.963964	-0.573208
C42	C	-0.282669	-0.963952	-0.439075
C43	C	-0.282663	-1.073674	-0.439060
C44	C	-0.282614	-1.585633	-0.951817
C45	C	-0.282584	-1.585650	-1.061541
C46	C	-0.369151	-1.451190	-1.061481
C47	C	-0.369177	-1.451168	-0.951759
C48	C	-0.326017	-1.518265	-0.233152
C49	C	-0.325854	-1.518435	-0.116376
H50	H	-0.711888	-1.640252	-0.384328
O51	O	-0.235882	-1.658173	-1.120730
H52	H	-0.201424	-1.611186	-1.170710
H53	H	-0.247382	-0.919267	-0.384480
H54	H	-0.404640	-0.919309	-0.627827
H55	H	-0.939426	-1.396452	-0.627989
H56	H	-0.247366	-1.118335	-0.384442
H57	H	-0.583654	-1.640173	-0.384284
H58	H	-0.404637	-1.118356	-0.627790
H59	H	-0.247380	-1.640370	-0.907178
H60	H	-0.404380	-1.396459	-1.106137
O61	O	-0.721240	-1.378549	-0.645659
H62	H	-0.776331	-1.389859	-0.634384
H63	H	-0.404432	-1.396408	-0.907069
H64	H	-0.583660	-1.396256	-0.627892
H65	H	-0.939413	-1.640372	-0.384388
H66	H	-1.067659	-1.640446	-0.384424
H67	H	-1.067663	-1.396521	-0.628022
