data_functionalizedCrystal
_audit_creation_method	'MofGen! by Chris Wilmer'
_symmetry_space_group_name_H-M	'P1'
_symmetry_Int_Tables_number	1
_symmetry_cell_setting	triclinic
loop_
_symmetry_equiv_pos_as_xyz
  x,y,z
_cell_length_a	10.654562
_cell_length_b	27.732064
_cell_length_c	9.130313
_cell_angle_alpha	90.002876
_cell_angle_beta	89.996930
_cell_angle_gamma	83.569764
loop_
_atom_site_label
_atom_site_type_symbol
_atom_site_fract_x
_atom_site_fract_y
_atom_site_fract_z
O1	O	1.664980	0.067912	-0.121881
O2	O	1.299233	0.074374	-0.121861
O3	O	1.493455	0.000818	-0.121877
O4	O	1.470758	0.141468	-0.121865
O5	O	1.493453	0.000820	0.121722
O6	O	1.299231	0.074376	0.121738
O7	O	1.664978	0.067914	0.121718
Cu8	Cu	1.482104	0.071145	0.143970
Cu9	Cu	1.482107	0.071143	-0.144113
O10	O	1.470756	0.141470	0.121734
C11	C	1.252454	0.073899	-0.000059
C12	C	1.113071	0.072476	-0.000053
C13	C	1.047567	0.071813	0.132722
C14	C	0.916601	0.070480	0.132697
C15	C	0.916654	0.070474	-0.132888
C16	C	1.047619	0.071804	-0.132862
C17	C	1.113020	0.072485	0.265531
C18	C	1.047515	0.071823	0.398316
C19	C	0.916549	0.070489	0.398291
C20	C	0.851087	0.069818	0.265481
C21	C	1.492974	-0.017191	-0.000082
C22	C	1.491530	-0.070854	-0.000096
C23	C	1.366923	-0.448705	-0.000095
C24	C	1.372238	-0.247012	-0.000097
O25	O	1.275547	-0.216363	-0.000151
N26	N	1.487408	-0.227165	-0.000104
C27	C	1.601258	-0.257745	-0.000119
O28	O	1.699339	-0.236236	-0.000140
C29	C	1.595941	-0.459438	-0.000127
C30	C	1.480763	-0.479282	-0.000106
C31	C	1.251754	-0.468550	-0.000076
C32	C	1.250427	-0.518970	-0.000067
C33	C	1.364267	-0.549546	-0.000078
C34	C	1.479436	-0.529702	-0.000098
C35	C	1.709789	-0.490017	-0.000153
C36	C	1.708449	-0.540443	-0.000159
C37	C	1.593272	-0.560287	-0.000138
C38	C	1.591948	-0.610699	-0.000100
N39	N	1.476778	-0.630545	-0.000094
C40	C	1.362938	-0.599969	-0.000083
C41	C	1.604041	-0.151853	-0.000112
C42	C	1.605371	-0.101431	-0.000107
C43	C	1.376351	-0.090701	-0.000088
C44	C	1.375022	-0.141125	-0.000082
C45	C	1.488871	-0.171700	-0.000105
C46	C	1.360158	-0.705856	-0.000064
C47	C	1.358841	-0.756281	-0.000049
C48	C	1.587860	-0.767007	-0.000076
C49	C	1.589178	-0.716586	-0.000083
C50	C	1.475317	-0.686011	-0.000081
O51	O	1.688588	-0.641376	-0.000063
O52	O	1.264871	-0.621487	-0.000095
C53	C	1.368250	-0.398285	-0.000104
C54	C	1.483419	-0.378441	-0.000123
C55	C	1.597259	-0.409017	-0.000134
C56	C	1.484748	-0.328018	-0.000118
C57	C	1.370908	-0.297442	-0.000107
C58	C	1.255738	-0.317288	-0.000101
C59	C	1.254410	-0.367709	-0.000093
C60	C	1.712429	-0.389170	-0.000140
C61	C	1.713747	-0.338749	-0.000147
C62	C	1.599907	-0.308173	-0.000136
C63	C	1.711757	0.068389	-0.000087
C64	C	1.851140	0.069812	-0.000103
C65	C	1.471237	0.159479	-0.000064
C66	C	1.472681	0.213143	-0.000060
N67	N	1.482111	0.071147	0.346593
N68	N	1.482110	0.071138	-0.346736
C69	C	1.568134	0.038587	0.423238
C70	C	1.568131	0.038581	0.576575
C71	C	1.396078	0.103699	0.576608
C72	C	1.396076	0.103702	0.423274
C73	C	1.654170	0.006032	0.346557
C74	C	1.740200	-0.026530	0.423202
C75	C	1.740197	-0.026535	0.576538
C76	C	1.654163	0.006020	0.653230
H77	H	1.265045	-0.772435	-0.000025
H78	H	1.810240	-0.053038	0.360751
H79	H	1.156637	-0.535122	-0.000062
H80	H	0.863220	0.069946	0.506411
O81	O	1.823879	-0.058183	0.650766
C82	C	1.899787	-0.086923	0.550199
H83	H	1.900817	-0.067097	0.440906
H84	H	2.000208	-0.093935	0.594493
H85	H	1.859719	-0.122976	0.533875
O86	O	0.723859	0.068542	0.265718
C87	C	0.680080	0.068085	0.411388
H88	H	0.750048	0.084128	0.486600
H89	H	0.584044	0.090616	0.419440
H90	H	0.670749	0.029141	0.445915
H91	H	1.807546	-0.322598	-0.000153
O92	O	0.853154	0.069742	-0.261929
C93	C	0.900198	0.028289	-0.342734
H94	H	0.946674	-0.000553	-0.265038
H95	H	0.819116	0.013391	-0.402988
H96	H	0.972840	0.038507	-0.425515
O97	O	1.654357	0.005962	0.802182
C98	C	1.748702	-0.029769	0.853392
H99	H	1.823673	-0.037925	0.765028
H100	H	1.794178	-0.015994	0.955986
H101	H	1.704548	-0.064279	0.880572
H102	H	1.680546	-0.791911	-0.000078
O103	O	1.111075	0.072386	0.527357
C104	C	1.094048	0.030282	0.608147
H105	H	1.068557	0.000709	0.530441
H106	H	1.185205	0.017133	0.668397
H107	H	1.014618	0.038956	0.690932
O108	O	1.265796	-0.060975	-0.000347
C109	C	1.259754	-0.031483	-0.126494
H110	H	1.324339	-0.049729	-0.214666
H111	H	1.158499	-0.026160	-0.168853
H112	H	1.291535	0.005289	-0.097970
H113	H	1.100953	0.072346	-0.240978
H114	H	1.267441	-0.680968	-0.000063
O115	O	1.312565	0.135390	0.650939
C116	C	1.332064	0.183311	0.613513
H117	H	1.380464	0.183428	0.502179
H118	H	1.237216	0.206773	0.608282
H119	H	1.394277	0.198481	0.699812
O120	O	1.141045	-0.438922	0.000005
C121	C	1.039127	-0.467260	-0.000018
H122	H	1.071775	-0.504775	0.046084
H123	H	0.959423	-0.448945	0.070726
H124	H	1.003767	-0.470974	-0.116879
O125	O	1.312689	0.135350	0.348648
C126	C	1.379355	0.165420	0.259982
H127	H	1.477988	0.146525	0.237008
H128	H	1.326799	0.172875	0.152159
H129	H	1.387185	0.201174	0.319079
H130	H	1.219658	0.073572	0.265566
O131	O	1.263029	-0.160319	-0.000140
C132	C	1.162845	-0.122513	-0.000087
H133	H	1.197373	-0.088145	-0.046198
H134	H	1.082370	-0.133324	-0.070808
H135	H	1.127780	-0.115501	0.116784
H136	H	1.805134	-0.414061	-0.000151
H137	H	1.699160	-0.085279	-0.000101
H138	H	1.696756	-0.176744	-0.000128
H139	H	1.803578	-0.473869	-0.000171
O140	O	1.142604	-0.387038	-0.000280
C141	C	1.134957	-0.415874	-0.126462
H142	H	1.234174	-0.428095	-0.168528
H143	H	1.085541	-0.449056	-0.098087
H144	H	1.078973	-0.393790	-0.214802
H145	H	1.801161	-0.565336	-0.000186
O146	O	1.701088	-0.697328	-0.000358
C147	C	1.770426	-0.712932	-0.126509
H148	H	1.703053	-0.723661	-0.214668
H149	H	1.823233	-0.682208	-0.168887
H150	H	1.841059	-0.745543	-0.097984
O151	O	1.145185	-0.287562	-0.000353
C152	C	1.139133	-0.258070	-0.126502
H153	H	1.203709	-0.276318	-0.214681
H154	H	1.037874	-0.252747	-0.168849
H155	H	1.170920	-0.221299	-0.097986
H156	H	1.654182	0.006035	0.221702
