data_functionalizedCrystal
_audit_creation_method	'MofGen! by Chris Wilmer'
_symmetry_space_group_name_H-M	'P1'
_symmetry_Int_Tables_number	1
_symmetry_cell_setting	triclinic
loop_
_symmetry_equiv_pos_as_xyz
  x,y,z
_cell_length_a	14.044220
_cell_length_b	27.732048
_cell_length_c	12.503572
_cell_angle_alpha	93.489054
_cell_angle_beta	86.164750
_cell_angle_gamma	87.915767
loop_
_atom_site_label
_atom_site_type_symbol
_atom_site_fract_x
_atom_site_fract_y
_atom_site_fract_z
O1	O	1.261499	0.113903	-0.089228
O2	O	0.985593	0.109700	-0.089254
O3	O	1.132113	0.041807	-0.089220
O4	O	1.114978	0.181795	-0.089262
O5	O	1.121094	0.046922	0.089419
O6	O	0.974573	0.114815	0.089385
O7	O	1.250479	0.119018	0.089411
Cu8	Cu	1.111520	0.117384	0.105709
Cu9	Cu	1.124552	0.111334	-0.105552
O10	O	1.103958	0.186910	0.089377
C11	C	0.944796	0.110418	0.000062
C12	C	0.839651	0.104930	0.000053
C13	C	0.647135	0.094899	0.000077
C14	C	0.588932	0.133816	0.000070
C15	C	0.481809	0.128235	0.000084
C16	C	0.754267	0.100480	0.000064
C17	C	1.126244	0.026341	0.000103
C18	C	1.125160	-0.027364	0.000111
C19	C	1.204929	-0.362437	0.000064
C20	C	1.200910	-0.564286	0.000049
O21	O	1.273853	-0.592120	0.000008
N22	N	1.114029	-0.587487	0.000041
C23	C	1.028146	-0.560223	0.000031
O24	O	0.954156	-0.584589	0.000013
C25	C	1.032166	-0.358376	0.000038
C26	C	1.119052	-0.335177	0.000057
C27	C	1.291808	-0.339238	0.000081
C28	C	1.292811	-0.288779	0.000091
C29	C	1.206935	-0.261519	0.000083
C30	C	1.120056	-0.284718	0.000066
C31	C	0.946285	-0.331113	0.000020
C32	C	0.947297	-0.280648	0.000019
C33	C	1.034184	-0.257449	0.000038
C34	C	1.035183	-0.206998	0.000069
N35	N	1.122064	-0.183797	0.000076
C36	C	1.207940	-0.211057	0.000083
C37	C	1.026041	-0.666196	0.000029
C38	C	1.025036	-0.716658	0.000029
C39	C	1.197801	-0.720717	0.000045
C40	C	1.198805	-0.670254	0.000052
C41	C	1.112923	-0.642995	0.000036
C42	C	1.210041	-0.105089	0.000105
C43	C	1.211036	-0.054625	0.000119
C44	C	1.038272	-0.050570	0.000097
C45	C	1.037276	-0.101029	0.000089
C46	C	1.123168	-0.128288	0.000089
O47	O	0.962280	-0.179134	0.000097
O48	O	1.281921	-0.186683	0.000077
C49	C	1.203925	-0.412897	0.000054
C50	C	1.117046	-0.436096	0.000037
C51	C	1.031169	-0.408835	0.000030
C52	C	1.116040	-0.486557	0.000037
C53	C	1.201917	-0.513818	0.000044
C54	C	1.288798	-0.490616	0.000052
C55	C	1.289801	-0.440157	0.000061
C56	C	0.944288	-0.432037	0.000023
C57	C	0.943291	-0.482496	0.000014
C58	C	1.029168	-0.509756	0.000021
C59	C	1.291276	0.118300	0.000092
C60	C	1.396422	0.123787	0.000094
C61	C	1.109828	0.202377	0.000052
C62	C	1.110912	0.256082	0.000036
N63	N	1.102361	0.121638	0.254299
N64	N	1.133718	0.107076	-0.254143
C65	C	1.088888	0.127901	0.473411
C66	C	1.147188	0.100815	0.526752
C67	C	1.139692	0.104299	0.648674
C68	C	1.096383	0.124417	0.351479
H69	H	0.619555	0.171325	0.000054
C70	C	0.555363	0.036065	-0.091744
C71	C	0.605804	0.044265	0.000086
H72	H	0.529845	0.004805	-0.091743
H73	H	0.504775	0.059749	-0.091733
H74	H	0.597266	0.038074	-0.154034
H75	H	0.563899	0.042259	0.062376
H76	H	0.656398	0.020575	0.000085
C77	C	1.274634	0.041608	0.537767
C78	C	1.222176	0.065978	0.464800
H79	H	1.320924	0.020101	0.499514
H80	H	1.305822	0.064400	0.581623
H81	H	1.232731	0.023788	0.581637
H82	H	1.264078	0.083801	0.420934
H83	H	1.190987	0.043183	0.420924
H84	H	1.033350	0.153706	0.519306
H85	H	1.360553	-0.421273	0.000076
C86	C	1.381711	-0.063714	0.000125
C87	C	1.306549	-0.029126	0.000130
H88	H	1.440673	-0.047972	0.000123
H89	H	1.373884	-0.081532	0.062414
H90	H	1.381556	-0.085091	-0.062178
H91	H	1.306699	-0.007751	0.062437
H92	H	1.314378	-0.011300	-0.062166
C93	C	1.314835	-0.166805	-0.091726
C94	C	1.304454	-0.135046	0.000109
H95	H	1.373124	-0.185296	-0.091720
H96	H	1.262963	-0.187847	-0.091730
H97	H	1.315474	-0.148808	-0.154013
H98	H	1.303808	-0.153043	0.062396
H99	H	1.356340	-0.114001	0.000123
C100	C	1.463476	-0.297876	0.000094
C101	C	1.388322	-0.263284	0.000096
H102	H	1.522442	-0.282138	0.000089
H103	H	1.455645	-0.315692	0.062386
H104	H	1.463315	-0.319254	-0.062205
H105	H	1.388478	-0.241908	0.062401
H106	H	1.396154	-0.245460	-0.062202
H107	H	1.267725	-0.742921	0.000051
H108	H	1.358721	-0.512821	0.000062
H109	H	1.361743	-0.361429	0.000083
C110	C	0.853856	-0.224170	-0.091827
C111	C	0.852890	-0.250685	0.000003
H112	H	0.795571	-0.205676	-0.091837
H113	H	0.905733	-0.203131	-0.091807
H114	H	0.860905	-0.245724	-0.154117
H115	H	0.845849	-0.229132	0.062293
H116	H	0.800999	-0.271727	-0.000008
H117	H	0.872532	-0.501380	0.000009
C118	C	1.369470	-0.679347	0.000061
C119	C	1.294313	-0.644757	0.000056
H120	H	1.428435	-0.663608	0.000053
H121	H	1.361642	-0.697161	0.062356
H122	H	1.369313	-0.700728	-0.062236
H123	H	1.294467	-0.623379	0.062356
H124	H	1.302144	-0.626936	-0.062246
H125	H	0.954283	-0.735541	0.000033
H126	H	0.956102	-0.644006	0.000016
C127	C	0.963121	0.028591	0.000084
C128	C	0.943880	-0.020599	0.000083
H129	H	0.904847	0.047093	0.000063
H130	H	0.994923	0.037801	0.062385
H131	H	1.002631	0.034238	-0.062206
H132	H	0.904376	-0.026247	0.062378
H133	H	0.912064	-0.029812	-0.062225
H134	H	0.875533	-0.349993	-0.000001
C135	C	0.930242	-0.152802	0.091902
C136	C	0.941767	-0.126530	0.000080
H137	H	0.871275	-0.168539	0.091890
H138	H	0.981233	-0.176260	0.091891
H139	H	0.930386	-0.131420	0.154197
H140	H	0.941630	-0.147912	-0.062216
H141	H	0.890763	-0.103069	0.000081
C142	C	0.773422	-0.433103	0.000022
C143	C	0.849883	-0.402076	0.000027
H144	H	0.715137	-0.414606	0.000037
H145	H	0.780466	-0.454643	-0.062276
H146	H	0.772802	-0.451094	0.062316
H147	H	0.850508	-0.384087	-0.062271
H148	H	0.842838	-0.380527	0.062331
