data_functionalizedCrystal
_audit_creation_method	'MofGen! by Chris Wilmer'
_symmetry_space_group_name_H-M	'P1'
_symmetry_Int_Tables_number	1
_symmetry_cell_setting	triclinic
loop_
_symmetry_equiv_pos_as_xyz
  x,y,z
_cell_length_a	17.077404
_cell_length_b	16.959453
_cell_length_c	17.077396
_cell_angle_alpha	89.970936
_cell_angle_beta	89.980223
_cell_angle_gamma	90.015373
loop_
_atom_site_label
_atom_site_type_symbol
_atom_site_fract_x
_atom_site_fract_y
_atom_site_fract_z
Zn1	Zn	1.200070	-0.314779	-0.443845
Zn2	Zn	1.700070	0.185221	0.056155
Zn3	Zn	1.199984	-0.446967	-0.312578
Zn4	Zn	1.699984	0.053033	0.187422
Zn5	Zn	1.068802	-0.314795	-0.312593
Zn6	Zn	1.568802	0.185205	0.187407
Zn7	Zn	1.068777	-0.446909	-0.443801
Zn8	Zn	1.568777	0.053091	0.056199
O9	O	1.134408	-0.380862	-0.378204
O10	O	1.634408	0.119138	0.121796
O11	O	1.309906	-0.332331	-0.426445
O12	O	1.809906	0.167669	0.073555
O13	O	1.182557	-0.429465	-0.202733
O14	O	1.682557	0.070535	0.297267
O15	O	1.086262	-0.204182	-0.330028
O16	O	1.586262	0.295818	0.169972
O17	O	1.309842	-0.429449	-0.330003
O18	O	1.809842	0.070551	0.169997
O19	O	1.182704	-0.204170	-0.426459
O20	O	1.682704	0.295830	0.073541
O21	O	1.086178	-0.332359	-0.202744
O22	O	1.586178	0.167641	0.297256
O23	O	0.958952	-0.332303	-0.329985
O24	O	1.458952	0.167697	0.170015
O25	O	1.086219	-0.429350	-0.553654
O26	O	1.586219	0.070650	-0.053654
O27	O	0.958933	-0.429366	-0.426383
O28	O	1.458933	0.070634	0.073617
O29	O	1.182680	-0.332275	-0.553686
O30	O	1.682680	0.167725	-0.053686
O31	O	1.182532	-0.557570	-0.329960
O32	O	1.682532	-0.057570	0.170040
O33	O	1.086135	-0.557527	-0.426369
O34	O	1.586135	-0.057527	0.073631
C35	C	0.930461	-0.380831	-0.378182
C36	C	1.430461	0.119169	0.121818
C37	C	0.843211	-0.380836	-0.378190
C38	C	1.343211	0.119164	0.121810
C39	C	0.467407	-0.431516	-0.428342
C40	C	0.967407	0.068484	0.071658
C41	C	0.549388	-0.431506	-0.428330
C42	C	1.049388	0.068494	0.071670
C43	C	0.590362	-0.380883	-0.378217
C44	C	1.090362	0.119117	0.121783
C45	C	0.549351	-0.330274	-0.328106
C46	C	1.049351	0.169726	0.171894
C47	C	0.467372	-0.330288	-0.328115
C48	C	0.967372	0.169712	0.171885
C49	C	0.720221	-0.330245	-0.328093
C50	C	1.220221	0.169755	0.171907
C51	C	0.802206	-0.330229	-0.328085
C52	C	1.302206	0.169771	0.171915
C53	C	0.802237	-0.431462	-0.428309
C54	C	1.302237	0.068538	0.071691
C55	C	0.720258	-0.431477	-0.428317
C56	C	1.220258	0.068523	0.071683
C57	C	0.679253	-0.380866	-0.378208
C58	C	1.179253	0.119134	0.121792
C59	C	1.134343	-0.586229	-0.378175
C60	C	1.634343	-0.086229	0.121825
C61	C	1.134387	-0.674085	-0.378189
C62	C	1.634387	-0.174085	0.121811
C63	C	1.184690	-1.045496	-0.428510
C64	C	1.684690	-0.545496	0.071490
C65	C	1.084346	-1.045626	-0.328014
C66	C	1.584346	-0.545626	0.171986
C67	C	1.084317	-0.963080	-0.327996
C68	C	1.584317	-0.463080	0.172004
C69	C	1.134474	-0.921738	-0.378237
C70	C	1.634474	-0.421738	0.121763
C71	C	1.184661	-0.962942	-0.428496
C72	C	1.684661	-0.462942	0.071504
C73	C	1.034126	-0.921869	-0.277744
C74	C	1.534126	-0.421869	0.222256
C75	C	1.034094	-0.839318	-0.277725
C76	C	1.534094	-0.339318	0.222275
C77	C	1.084256	-0.797975	-0.327962
C78	C	1.584256	-0.297975	0.172038
C79	C	1.134445	-0.839185	-0.378222
C80	C	1.634445	-0.339185	0.121778
C81	C	1.184603	-0.797843	-0.428463
C82	C	1.684603	-0.297843	0.071537
C83	C	1.234796	-0.839051	-0.478719
C84	C	1.734796	-0.339051	0.021281
C85	C	1.234823	-0.921599	-0.478733
C86	C	1.734823	-0.421599	0.021267
C87	C	1.084229	-0.715427	-0.327949
C88	C	1.584229	-0.215427	0.172051
C89	C	1.184573	-0.715290	-0.428448
C90	C	1.684573	-0.215290	0.071552
C91	C	1.339153	-0.380895	-0.378227
C92	C	1.839153	0.119105	0.121773
C93	C	1.426402	-0.380909	-0.378237
C94	C	1.926402	0.119091	0.121763
C95	C	1.134456	-0.380804	-0.582949
C96	C	1.634456	0.119196	-0.082949
C97	C	1.134476	-0.380779	-0.670198
C98	C	1.634476	0.119221	-0.170198
C99	C	1.134496	-0.174694	-0.378250
C100	C	1.634496	0.325306	0.121750
C101	C	1.134533	-0.086838	-0.378270
C102	C	1.634533	0.413162	0.121730
C103	C	1.184705	-0.330228	-0.711207
C104	C	1.684705	0.169772	-0.211207
C105	C	1.184715	-0.330202	-0.793187
C106	C	1.684715	0.169798	-0.293187
C107	C	1.134498	-0.380731	-0.834158
C108	C	1.634498	0.119269	-0.334158
C109	C	1.084264	-0.431285	-0.793144
C110	C	1.584264	0.068715	-0.293144
C111	C	1.084251	-0.431307	-0.711165
C112	C	1.584251	0.068693	-0.211165
C113	C	1.084296	-0.431237	-0.964014
C114	C	1.584296	0.068763	-0.464014
C115	C	1.084309	-0.431217	-1.045999
C116	C	1.584309	0.068783	-0.545999
C117	C	1.184759	-0.330133	-1.046036
C118	C	1.684759	0.169867	-0.546036
C119	C	1.184746	-0.330154	-0.964057
C120	C	1.684746	0.169846	-0.464057
C121	C	1.134512	-0.380709	-0.923049
C122	C	1.634512	0.119291	-0.423049
C123	C	1.134406	-0.380863	-0.174256
C124	C	1.634406	0.119137	0.325744
C125	C	1.134538	-0.380666	-0.087007
C126	C	1.634538	0.119334	0.412993
H127	H	0.835627	-0.472670	-0.469112
H128	H	1.335627	0.027330	0.030888
F129	F	0.676583	-0.276382	-0.274756
F130	F	1.176583	0.223618	0.225244
H131	H	0.434052	-0.472735	-0.469155
H132	H	0.934052	0.027265	0.030845
F133	F	0.593024	-0.485371	-0.481657
F134	F	1.093024	0.014629	0.018343
F135	F	0.980672	-0.795469	-0.224240
F136	F	1.480672	-0.295469	0.275760
H137	H	1.225599	-0.289083	-0.677854
H138	H	1.725599	0.210917	-0.177854
F139	F	0.845812	-0.276356	-0.274743
F140	F	1.345812	0.223644	0.225257
F141	F	1.288235	-0.965461	-0.532217
F142	F	1.788235	-0.465461	-0.032217
H143	H	1.225660	-0.288968	-1.079429
H144	H	1.725660	0.211032	-0.579429
F145	F	0.592961	-0.276400	-0.274768
F146	F	1.092961	0.223600	0.225232
F147	F	1.238202	-0.276425	-0.836828
F148	F	1.738202	0.223575	-0.336828
H149	H	1.043378	-0.472392	-0.930627
H150	H	1.543378	0.027608	-0.430627
F151	F	1.030789	-0.485108	-0.667521
F152	F	1.530789	0.014892	-0.167521
F153	F	1.238110	-1.089352	-0.481992
F154	F	1.738110	-0.589352	0.018008
H155	H	1.043507	-1.079291	-0.287114
H156	H	1.543507	-0.579291	0.212886
H157	H	1.043417	-0.472361	-1.079355
H158	H	1.543417	0.027639	-0.579355
H159	H	0.993288	-0.955536	-0.236843
H160	H	1.493288	-0.455536	0.263157
F161	F	1.238196	-0.276380	-0.920455
F162	F	1.738196	0.223620	-0.420455
H163	H	1.043359	-0.681879	-0.287034
H164	H	1.543359	-0.181879	0.212966
H165	H	0.686899	-0.472695	-0.469128
H166	H	1.186899	0.027305	0.030872
F167	F	0.423732	-0.276428	-0.274783
F168	F	0.923732	0.223572	0.225217
H169	H	1.043374	-0.472424	-0.826509
H170	H	1.543374	0.027576	-0.326509
F171	F	1.237963	-0.671297	-0.481918
F172	F	1.737963	-0.171297	0.018082
H173	H	1.275632	-0.805381	-0.519629
H174	H	1.775632	-0.305381	-0.019629
