data_functionalizedCrystal
_audit_creation_method	'MofGen! by Chris Wilmer'
_symmetry_space_group_name_H-M	'P1'
_symmetry_Int_Tables_number	1
_symmetry_cell_setting	triclinic
loop_
_symmetry_equiv_pos_as_xyz
  x,y,z
_cell_length_a	6.817900
_cell_length_b	11.168129
_cell_length_c	16.255661
_cell_angle_alpha	93.883722
_cell_angle_beta	103.488922
_cell_angle_gamma	108.508637
loop_
_atom_site_label
_atom_site_type_symbol
_atom_site_fract_x
_atom_site_fract_y
_atom_site_fract_z
V1	V	-4.052429	-0.175725	-0.263878
O2	O	-4.013108	0.007395	-0.258848
O3	O	-4.029109	-0.347423	-0.262081
O4	O	-4.003663	-0.173482	-0.378962
O5	O	-4.038731	-0.167750	-0.141158
V6	V	-4.532855	-0.153767	-0.249199
O7	O	-4.320482	-0.223891	-0.296079
O8	O	-4.714999	-0.105601	-0.216999
O9	O	-4.332968	0.017931	-0.250997
O10	O	-4.689573	-0.336887	-0.254230
O11	O	-4.663951	-0.161742	-0.371920
O12	O	-4.358415	-0.156010	-0.134116
C13	C	-3.880223	-0.389265	-0.257920
C14	C	-3.942441	-0.529634	-0.257218
C15	C	-3.929402	-0.574794	-0.183250
C16	C	-3.993706	-0.719872	-0.182522
C17	C	-3.847763	-0.167385	-0.407012
C18	C	-3.889341	-0.166687	-0.501093
C19	C	-3.798678	-0.158357	-0.723911
C20	C	-3.970828	-0.265869	-0.793392
C21	C	-3.965534	-0.165380	-0.673342
C22	C	-3.867494	-0.056637	-0.771498
C23	C	-4.039116	-0.164111	-0.839725
C24	C	-4.137180	-0.272988	-0.741592
C25	C	-4.033769	-0.063661	-0.719683
C26	C	-4.206061	-0.171203	-0.789144
C27	C	-3.923140	-0.166112	-0.577492
C28	C	-4.081528	-0.163389	-0.935574
C29	C	-4.145198	0.059767	-0.255155
C30	C	-4.062218	0.200134	-0.255863
C31	C	-4.177658	-0.162111	-0.106061
C32	C	-4.115317	-0.162802	-0.011979
H33	H	-3.626150	-0.153066	-0.695431
H34	H	-3.944667	-0.351359	-0.825481
O35	O	-4.273018	-0.382108	-0.725578
C36	C	-4.487086	-0.389085	-0.759668
H37	H	-4.491620	-0.288962	-0.766286
H38	H	-4.587395	-0.432625	-0.715004
H39	H	-4.555345	-0.451309	-0.825277
O40	O	-4.075746	-0.753428	-0.331407
C41	C	-4.218341	-0.684308	-0.340363
H42	H	-4.333222	-0.718020	-0.299018
H43	H	-4.313958	-0.700955	-0.410266
H44	H	-4.123154	-0.578061	-0.319049
O45	O	-3.732173	0.052572	-0.787643
C46	C	-3.763556	0.159076	-0.748505
H47	H	-3.931170	0.128762	-0.738227
H48	H	-3.746488	0.236163	-0.791523
H49	H	-3.638392	0.198425	-0.684120
O50	O	-3.980122	-0.766201	-0.106940
C51	C	-3.765846	-0.716754	-0.055896
H52	H	-3.653255	-0.686847	-0.098588
H53	H	-3.726523	-0.793204	-0.019034
H54	H	-3.744489	-0.630230	-0.008792
O55	O	-4.412009	-0.177546	-0.822850
C56	C	-4.445931	-0.071901	-0.783843
H57	H	-4.323889	-0.033546	-0.718657
H58	H	-4.615213	-0.102907	-0.775242
H59	H	-4.426124	0.006174	-0.826086
O60	O	-3.859162	-0.492616	-0.108416
C61	C	-3.810630	-0.366058	-0.125803
H62	H	-3.776012	-0.361691	-0.191052
H63	H	-3.663494	-0.300707	-0.074351
H64	H	-3.953135	-0.333439	-0.126067
O65	O	-4.012251	-0.611496	-0.332176
C66	C	-3.850184	-0.584417	-0.375495
H67	H	-3.737575	-0.481382	-0.352683
H68	H	-3.926618	-0.598188	-0.447327
H69	H	-3.755308	-0.651783	-0.361504
H70	H	-4.059852	0.021833	-0.687571
