data_functionalizedCrystal
_audit_creation_method	'MofGen! by Chris Wilmer'
_symmetry_space_group_name_H-M	'P1'
_symmetry_Int_Tables_number	1
_symmetry_cell_setting	triclinic
loop_
_symmetry_equiv_pos_as_xyz
  x,y,z
_cell_length_a	31.640172
_cell_length_b	16.704494
_cell_length_c	16.704494
_cell_angle_alpha	60.174809
_cell_angle_beta	90.004933
_cell_angle_gamma	63.425212
loop_
_atom_site_label
_atom_site_type_symbol
_atom_site_fract_x
_atom_site_fract_y
_atom_site_fract_z
Zr1	Zr	0.434456	0.863808	-0.142349
O2	O	0.374653	1.017947	-0.271797
O3	O	0.449504	0.701021	-0.097013
O4	O	0.458093	0.851318	-0.263622
O5	O	0.363025	0.880517	0.019804
O6	O	0.527649	0.851303	-0.263604
O7	O	0.366064	0.867649	-0.105188
O8	O	0.512285	0.582448	0.034428
O9	O	0.378390	1.149372	-0.278228
O10	O	0.511800	0.771169	-0.084495
O11	O	0.457623	0.780783	0.008772
O12	O	0.467736	0.957739	-0.187388
O13	O	0.413560	0.967353	-0.094121
Zr14	Zr	0.540544	0.884306	0.057027
Zr15	Zr	0.545390	0.863784	-0.142322
Zr16	Zr	0.429610	0.884330	0.056999
Zr17	Zr	0.440416	1.073415	-0.152607
Zr18	Zr	0.534584	0.674699	0.067285
O19	O	0.525497	1.047093	0.011691
O20	O	0.532387	1.017913	-0.271757
O21	O	0.367763	1.047127	0.011651
O22	O	0.600348	0.730167	0.186475
O23	O	0.607238	0.700987	-0.096973
O24	O	0.442614	0.730200	0.186435
O25	O	0.611975	0.867597	-0.105126
O26	O	0.516908	0.896796	0.178300
O27	O	0.447351	0.896810	0.178282
O28	O	0.608937	0.880464	0.019866
O29	O	0.466568	1.149353	-0.278206
O30	O	0.508433	0.598761	0.192884
O31	O	0.596611	0.598742	0.192906
O32	O	0.600462	0.582430	0.034451
O33	O	0.374538	1.165684	-0.119773
O34	O	0.462716	1.165665	-0.119751
O35	O	0.507265	0.790375	0.102066
O36	O	0.561441	0.780761	0.008798
O37	O	0.517378	0.967331	-0.094094
O38	O	0.463201	0.976945	-0.000827
C39	C	0.480045	0.611870	-0.029831
C40	C	0.477515	0.522886	-0.025476
C41	C	0.348739	0.874087	-0.042696
C42	C	0.301644	0.874097	-0.042708
C43	C	0.529333	0.345623	-0.114659
C44	C	0.526957	0.262015	-0.110570
C45	C	0.470390	0.272053	-0.013204
C46	C	0.472766	0.355662	-0.017293
C47	C	0.502238	0.392445	-0.068024
C48	C	0.504611	0.476060	-0.072118
C49	C	0.448047	0.486092	0.025253
C50	C	0.445671	0.402484	0.029342
C51	C	0.032636	0.776661	0.011067
C52	C	-0.144350	0.776643	0.011087
O53	O	-0.147675	0.693821	0.056798
N54	N	-0.189481	0.874030	-0.042624
C55	C	-0.190364	0.971428	-0.096337
O56	O	-0.232811	1.054262	-0.142013
C57	C	-0.013378	0.971445	-0.096351
C58	C	0.031752	0.874051	-0.042645
C59	C	0.077764	0.679275	0.064770
C60	C	0.122008	0.679280	0.064760
C61	C	0.121124	0.776671	0.011048
C62	C	0.075995	0.874056	-0.042654
C63	C	-0.014262	1.068843	-0.150059
C64	C	0.029989	1.068839	-0.150055
C65	C	0.075119	0.971445	-0.096349
C66	C	0.119355	0.971452	-0.096376
N67	N	0.164485	0.874066	-0.042666
C68	C	0.165370	0.776675	0.011046
C69	C	-0.283282	0.971412	-0.096328
C70	C	-0.327528	0.971408	-0.096326
C71	C	-0.281511	0.776622	0.011099
C72	C	-0.237264	0.776627	0.011092
C73	C	-0.238151	0.874025	-0.042618
C74	C	0.258283	0.776692	0.011022
C75	C	0.302529	0.776706	0.011004
C76	C	0.256508	0.971491	-0.096417
C77	C	0.212266	0.971478	-0.096404
C78	C	0.213157	0.874070	-0.042677
O79	O	0.122718	1.054231	-0.142055
O80	O	0.207821	0.693855	0.056732
C81	C	-0.011608	0.776656	0.011077
C82	C	-0.056736	0.874041	-0.042626
C83	C	-0.057620	0.971432	-0.096338
C84	C	-0.100982	0.874037	-0.042624
C85	C	-0.100098	0.776646	0.011088
C86	C	-0.054967	0.679260	0.064798
C87	C	-0.010723	0.679265	0.064789
C88	C	-0.102750	1.068819	-0.150048
C89	C	-0.146992	1.068806	-0.150035
C90	C	-0.146108	0.971415	-0.096323
C91	C	0.626262	0.874027	-0.042626
C92	C	0.673356	0.874017	-0.042614
C93	C	0.493562	0.848387	-0.292016
C94	C	0.495619	0.839675	-0.376645
C95	C	0.494956	1.136244	-0.055491
C96	C	0.497486	1.225228	-0.059846
C97	C	0.453486	1.018100	-0.643103
C98	C	0.455418	1.009919	-0.722622
C99	C	0.501417	0.815133	-0.615204
C100	C	0.499485	0.823314	-0.535685
C101	C	0.475518	0.924801	-0.549639
C102	C	0.473584	0.932981	-0.470118
C103	C	0.519586	0.738196	-0.362703
C104	C	0.521518	0.730015	-0.442222
C105	C	0.481439	0.899727	0.206694
C106	C	0.479382	0.908439	0.291323
C107	C	0.618807	0.611840	-0.029796
C108	C	0.663371	0.522846	-0.025430
C109	C	0.473984	0.637540	0.219524
C110	C	0.469396	0.557268	0.308507
C111	C	0.612745	0.637510	0.219559
C112	C	0.655252	0.557229	0.308554
C113	C	0.362255	1.110603	-0.304881
C114	C	0.319748	1.190885	-0.393876
C115	C	0.356194	1.136274	-0.055526
C116	C	0.311630	1.225267	-0.059892
C117	C	0.501017	1.110574	-0.304846
C118	C	0.505604	1.190845	-0.393830
C119	C	0.658387	0.476046	-0.072086
C120	C	0.700256	0.392437	-0.068002
C121	C	0.747109	0.355624	-0.017257
C122	C	0.752092	0.402432	0.029401
C123	C	0.710224	0.486045	0.025311
C124	C	0.493154	0.524580	0.399002
C125	C	0.488842	0.449168	0.482618
C126	C	0.460775	0.406441	0.475738
C127	C	0.437014	0.439137	0.385234
C128	C	0.441323	0.514553	0.301620
C129	C	0.703498	0.514509	0.301662
C130	C	0.743443	0.439087	0.385275
C131	C	0.735140	0.406380	0.475778
C132	C	0.686889	0.449107	0.482667
C133	C	0.646946	0.524534	0.399056
C134	C	0.271503	1.233615	-0.386985
C135	C	0.231559	1.309063	-0.470598
C136	C	0.239862	1.341775	-0.561102
C137	C	0.288112	1.299042	-0.567991
C138	C	0.328055	1.223601	-0.484379
C139	C	0.316615	1.272076	-0.013245
C140	C	0.274747	1.355706	-0.017351
C141	C	0.227894	1.392522	-0.068100
C142	C	0.222910	1.345709	-0.114754
C143	C	0.264778	1.262086	-0.110652
C144	C	0.533676	1.233549	-0.386919
C145	C	0.537996	1.308962	-0.470520
C146	C	0.514241	1.341677	-0.561031
C147	C	0.486169	1.298965	-0.567940
C148	C	0.481852	1.223547	-0.484339
H149	H	0.528606	0.506011	-0.113428
H150	H	0.516009	0.559360	0.404622
H151	H	0.517760	1.403088	-0.629096
H152	H	0.175519	1.050783	-0.140148
H153	H	0.421978	0.541157	0.227939
H154	H	0.782727	0.404305	0.379648
C155	C	0.431179	1.112548	-0.825429
H156	H	0.416626	1.174157	-0.822345
H157	H	0.455490	1.113400	-0.858678
H158	H	0.406458	1.113411	-0.858685
H159	H	-0.200521	0.697321	0.054832
C160	C	0.181842	1.484502	-0.072603
H161	H	0.153222	1.499734	-0.109512
H162	H	0.179558	1.463478	-0.009222
H163	H	0.184333	1.547050	-0.101869
C164	C	0.715712	0.537505	0.076650
H165	H	0.749613	0.503592	0.107463
H166	H	0.702845	0.612120	0.030772
H167	H	0.698072	0.528527	0.123407
C168	C	0.803631	0.361921	0.085226
H169	H	0.827848	0.305413	0.080984
H170	H	0.809814	0.419452	0.058259
H171	H	0.805029	0.335879	0.150891
C172	C	0.793159	0.263641	-0.012756
H173	H	0.783476	0.241039	-0.047804
H174	H	0.814595	0.288344	-0.040160
H175	H	0.809812	0.204780	0.052482
H176	H	0.414161	0.404338	0.379647
C177	C	0.450966	1.176595	-0.491954
H178	H	0.437434	1.206894	-0.557835
H179	H	0.471395	1.100638	-0.459095
H180	H	0.425004	1.193310	-0.463647
H181	H	0.192275	1.343844	-0.464970
H182	H	0.454066	1.015617	-0.481484
H183	H	0.207333	1.403204	-0.629177
H184	H	0.710268	0.541127	0.227978
C185	C	0.427125	1.129727	-0.658445
H186	H	0.414282	1.184123	-0.725499
H187	H	0.400901	1.136977	-0.629662
H188	H	0.449936	1.136954	-0.629651
C189	C	0.694767	0.340950	-0.119317
H190	H	0.726411	0.285887	-0.109628
H191	H	0.674871	0.310812	-0.093669
H192	H	0.679639	0.394393	-0.186321
C193	C	0.418240	0.537596	0.076554
H194	H	0.400345	0.503718	0.107344
H195	H	0.440113	0.528639	0.123310
H196	H	0.395862	0.612213	0.030644
C197	C	0.460006	1.335024	-0.667506
H198	H	0.442660	1.298809	-0.659659
H199	H	0.437422	1.410566	-0.704360
H200	H	0.483790	1.317944	-0.699920
H201	H	-0.103478	1.148128	-0.193789
H202	H	0.367338	1.188810	-0.490001
H203	H	0.553326	0.375579	-0.155974
C204	C	0.527780	0.703511	-0.599871
H205	H	0.525772	0.712006	-0.660618
H206	H	0.561429	0.664824	-0.564761
H207	H	0.512394	0.664843	-0.564786
H208	H	0.537523	0.662224	-0.286592
C209	C	0.368148	1.231594	0.042577
H210	H	0.392374	1.175080	0.038352
H211	H	0.374320	1.289141	0.015589
H212	H	0.369545	1.205571	0.108238
H213	H	0.560854	1.343731	-0.464876
H214	H	0.508193	0.422557	0.556302
C215	C	0.779081	0.323403	0.567742
H216	H	0.809002	0.302641	0.550668
H217	H	0.778995	0.354498	0.602382
H218	H	0.776358	0.261861	0.606904
C219	C	-0.377167	1.078537	-0.155409
H220	H	-0.403395	1.064596	-0.147726
H221	H	-0.380435	1.123086	-0.133424
H222	H	-0.378298	1.114016	-0.221535
C223	C	0.255544	1.078608	-0.155543
H224	H	0.288361	1.064652	-0.147859
H225	H	0.239909	1.114052	-0.221656
H226	H	0.237775	1.123196	-0.133586
C227	C	0.171371	1.386208	-0.170565
H228	H	0.147153	1.442705	-0.166311
H229	H	0.169964	1.412236	-0.236226
H230	H	0.165195	1.328661	-0.143569
H231	H	0.078492	0.599963	0.108514
H232	H	0.549020	0.223893	-0.148544
H233	H	0.446402	0.242079	0.028110
C234	C	0.352171	0.669572	0.070085
H235	H	0.378398	0.683515	0.062384
H236	H	0.353305	0.634090	0.136207
H237	H	0.355439	0.625022	0.048095
H238	H	0.421678	0.372520	0.070649
H239	H	0.541033	0.647387	-0.430873
H240	H	0.294867	1.325685	-0.641689
H241	H	0.278814	1.393807	0.020644
H242	H	0.260712	1.223977	-0.148636
H243	H	0.680136	0.422466	0.556366
C244	C	0.606854	0.516531	-0.127916
H245	H	0.609890	0.476683	-0.155123
H246	H	0.587052	0.507156	-0.085228
H247	H	0.591833	0.590732	-0.177862
C248	C	0.456041	0.323480	0.567720
H249	H	0.474216	0.310128	0.622597
H250	H	0.422300	0.350882	0.566387
H251	H	0.468700	0.258232	0.570930
C252	C	0.593877	0.571505	0.406649
H253	H	0.594658	0.541209	0.472527
H254	H	0.578428	0.647461	0.373791
H255	H	0.575808	0.554799	0.378331
C256	C	0.262361	1.197658	-0.287443
H257	H	0.227905	1.233932	-0.295329
H258	H	0.275443	1.122123	-0.250524
H259	H	0.278086	1.214768	-0.255074
C260	C	-0.284264	1.078556	-0.155422
H261	H	-0.317480	1.136546	-0.187413
H262	H	-0.269032	1.087157	-0.113614
H263	H	-0.266893	1.078071	-0.201716
H264	H	0.259015	0.697374	0.054772
H265	H	0.158751	0.599971	0.108489
C266	C	-0.280545	0.669496	0.070192
H267	H	-0.313361	0.683452	0.062504
H268	H	-0.262772	0.624927	0.048225
H269	H	-0.264914	0.634031	0.136317
C270	C	0.559810	1.197573	-0.287367
H271	H	0.577150	1.233806	-0.295238
H272	H	0.536012	1.214686	-0.254996
H273	H	0.582405	1.122028	-0.250458
H274	H	-0.051002	1.148152	-0.193791
H275	H	0.029261	1.148156	-0.193781
H276	H	-0.054254	0.599960	0.108527
C277	C	0.038914	0.572131	0.123875
H278	H	0.033096	0.514137	0.155868
H279	H	0.058203	0.563536	0.082062
H280	H	0.056061	0.572618	0.170167
H281	H	-0.183737	1.148121	-0.193778
