data_functionalizedCrystal
_audit_creation_method	'MofGen! by Chris Wilmer'
_symmetry_space_group_name_H-M	'P1'
_symmetry_Int_Tables_number	1
_symmetry_cell_setting	triclinic
loop_
_symmetry_equiv_pos_as_xyz
  x,y,z
_cell_length_a	17.077404
_cell_length_b	12.594516
_cell_length_c	17.077396
_cell_angle_alpha	90.024014
_cell_angle_beta	90.018362
_cell_angle_gamma	90.016143
loop_
_atom_site_label
_atom_site_type_symbol
_atom_site_fract_x
_atom_site_fract_y
_atom_site_fract_z
Zn1	Zn	1.200080	-0.423800	0.443843
Zn2	Zn	1.700080	0.076200	0.943843
Zn3	Zn	1.199998	-0.601801	0.312587
Zn4	Zn	1.699998	-0.101801	0.812587
Zn5	Zn	1.068812	-0.423830	0.312594
Zn6	Zn	1.568812	0.076170	0.812594
Zn7	Zn	1.068791	-0.601730	0.443814
Zn8	Zn	1.568791	-0.101730	0.943814
O9	O	1.134420	-0.512790	0.378210
O10	O	1.634420	-0.012790	0.878210
O11	O	1.309916	-0.447429	0.426442
O12	O	1.809916	0.052571	0.926442
O13	O	1.182571	-0.578234	0.202741
O14	O	1.682571	-0.078234	0.702741
O15	O	1.086268	-0.274880	0.330019
O16	O	1.586268	0.225120	0.830019
O17	O	1.309856	-0.578205	0.330009
O18	O	1.809856	-0.078205	0.830009
O19	O	1.182711	-0.274858	0.426448
O20	O	1.682711	0.225142	0.926448
O21	O	1.086189	-0.447480	0.202746
O22	O	1.586189	0.052520	0.702746
O23	O	0.958962	-0.447412	0.329991
O24	O	1.458962	0.052588	0.829991
O25	O	1.086232	-0.578085	0.553665
O26	O	1.586232	-0.078085	1.053665
O27	O	0.958947	-0.578115	0.426397
O28	O	1.458947	-0.078115	0.926397
O29	O	1.182690	-0.447361	0.553686
O30	O	1.682690	0.052639	1.053686
O31	O	1.182550	-0.750737	0.329980
O32	O	1.682550	-0.250737	0.829980
O33	O	1.086153	-0.750685	0.426391
O34	O	1.586153	-0.250685	0.926391
C35	C	0.930473	-0.512760	0.378192
C36	C	1.430473	-0.012760	0.878192
C37	C	0.843223	-0.512773	0.378203
C38	C	1.343223	-0.012773	0.878203
C39	C	0.802265	-0.444799	0.428492
C40	C	1.302265	0.055201	0.928492
C41	C	0.720284	-0.444805	0.428496
C42	C	1.220284	0.055195	0.928496
C43	C	0.679263	-0.512793	0.378214
C44	C	1.179263	-0.012793	0.878214
C45	C	0.720227	-0.580770	0.327919
C46	C	1.220227	-0.080770	0.827919
C47	C	0.802206	-0.580757	0.327912
C48	C	1.302206	-0.080757	0.827912
C49	C	0.549357	-0.580794	0.327938
C50	C	1.049357	-0.080794	0.827938
C51	C	0.467372	-0.580809	0.327946
C52	C	0.967372	-0.080809	0.827946
C53	C	0.467435	-0.444843	0.428522
C54	C	0.967435	0.055157	0.928522
C55	C	0.549414	-0.444830	0.428515
C56	C	1.049414	0.055170	0.928515
C57	C	0.590372	-0.512808	0.378221
C58	C	1.090372	-0.012808	0.878221
C59	C	1.134361	-0.789331	0.378199
C60	C	1.634361	-0.289331	0.878199
C61	C	1.134408	-0.907637	0.378220
C62	C	1.634408	-0.407637	0.878220
C63	C	1.082020	-1.047664	0.430632
C64	C	1.582020	-0.547664	0.930632
C65	C	1.153582	-0.976757	0.449889
C66	C	1.653582	-0.476757	0.949889
C67	C	1.062853	-0.976971	0.358998
C68	C	1.562853	-0.476971	0.858998
C69	C	1.206136	-1.047516	0.397544
C70	C	1.706136	-0.547516	0.897544
C71	C	1.115358	-1.047736	0.306619
C72	C	1.615358	-0.547736	0.806619
C73	C	1.186970	-0.976861	0.325850
C74	C	1.686970	-0.476861	0.825850
C75	C	1.339165	-0.512821	0.378228
C76	C	1.839165	-0.012821	0.878228
C77	C	1.426414	-0.512835	0.378235
C78	C	1.926414	-0.012835	0.878235
C79	C	1.134468	-0.512712	0.582954
C80	C	1.634468	-0.012712	1.082954
C81	C	1.134488	-0.512678	0.670204
C82	C	1.634488	-0.012678	1.170204
C83	C	1.134501	-0.235169	0.378238
C84	C	1.634501	0.264831	0.878238
C85	C	1.134535	-0.116864	0.378249
C86	C	1.634535	0.383136	0.878249
C87	C	1.134418	-0.512792	0.174262
C88	C	1.634418	-0.012792	0.674262
C89	C	1.134550	-0.512525	0.087012
C90	C	1.634550	-0.012525	0.587012
C91	C	1.184716	-0.444604	0.711206
C92	C	1.684716	0.055396	1.211206
C93	C	1.184725	-0.444569	0.793187
C94	C	1.684725	0.055431	1.293187
C95	C	1.134510	-0.512614	0.834163
C96	C	1.634510	-0.012614	1.334163
C97	C	1.084277	-0.580691	0.793155
C98	C	1.584277	-0.080691	1.293155
C99	C	1.084265	-0.580720	0.711176
C100	C	1.584265	-0.080720	1.211176
C101	C	1.084309	-0.580627	0.964025
C102	C	1.584309	-0.080627	1.464025
C103	C	1.084323	-0.580599	1.046010
C104	C	1.584323	-0.080599	1.546010
C105	C	1.184769	-0.444476	1.046036
C106	C	1.684769	0.055524	1.546036
C107	C	1.184757	-0.444505	0.964057
C108	C	1.684757	0.055495	1.464057
C109	C	1.134524	-0.512584	0.923054
C110	C	1.634524	-0.012584	1.423054
H111	H	0.434083	-0.389490	0.469472
H112	H	0.934083	0.110510	0.969472
H113	H	1.266722	-1.078376	0.413885
H114	H	1.766722	-0.578376	0.913885
H115	H	1.225669	-0.389042	1.079425
H116	H	1.725669	0.110958	1.579425
H117	H	0.686821	-0.636121	0.286974
H118	H	1.186821	-0.136121	0.786974
H119	H	1.043432	-0.636005	1.079370
H120	H	1.543432	-0.136005	1.579370
H121	H	0.835553	-0.636108	0.286960
H122	H	1.335553	-0.136108	0.786960
H123	H	1.002285	-0.945978	0.342728
H124	H	1.502285	-0.445978	0.842728
H125	H	1.169753	-0.945583	0.510453
H126	H	1.669753	-0.445583	1.010453
H127	H	1.037719	-1.078749	0.474976
H128	H	1.537719	-0.578749	0.974976
H129	H	1.043356	-0.636142	0.677792
H130	H	1.543356	-0.136142	1.177792
H131	H	1.231377	-0.945971	0.281539
H132	H	1.731377	-0.445971	0.781539
H133	H	1.099166	-1.078934	0.246073
H134	H	1.599166	-0.578934	0.746073
H135	H	1.225650	-0.389103	0.930696
H136	H	1.725650	0.110897	1.430696
H137	H	1.225609	-0.389197	0.677849
H138	H	1.725609	0.110803	1.177849
H139	H	1.225627	-0.389139	0.826568
H140	H	1.725627	0.110861	1.326568
H141	H	0.686940	-0.389456	0.469448
H142	H	1.186940	0.110544	0.969448
H143	H	1.043392	-0.636047	0.930643
H144	H	1.543392	-0.136047	1.430643
H145	H	0.835658	-0.389438	0.469440
H146	H	1.335658	0.110562	0.969440
H147	H	0.582811	-0.389475	0.469464
H148	H	1.082811	0.110525	0.969464
H149	H	1.043389	-0.636090	0.826524
H150	H	1.543389	-0.136090	1.326524
H151	H	0.433975	-0.636171	0.287002
H152	H	0.933975	-0.136171	0.787002
H153	H	0.582703	-0.636147	0.286981
H154	H	1.082703	-0.136147	0.786981
