data_functionalizedCrystal
_audit_creation_method	'MofGen! by Chris Wilmer'
_symmetry_space_group_name_H-M	'P1'
_symmetry_Int_Tables_number	1
_symmetry_cell_setting	triclinic
loop_
_symmetry_equiv_pos_as_xyz
  x,y,z
_cell_length_a	16.992694
_cell_length_b	16.992695
_cell_length_c	15.455313
_cell_angle_alpha	87.152573
_cell_angle_beta	87.142206
_cell_angle_gamma	89.331777
loop_
_atom_site_label
_atom_site_type_symbol
_atom_site_fract_x
_atom_site_fract_y
_atom_site_fract_z
O1	O	1.054080	-0.163694	-0.072023
O2	O	1.554080	0.336306	0.427977
O3	O	0.825681	-0.161862	-0.072048
O4	O	1.325681	0.338138	0.427952
O5	O	0.938965	-0.048579	-0.072029
O6	O	1.438965	0.451421	0.427971
O7	O	0.940797	-0.276978	-0.072042
O8	O	1.440797	0.223022	0.427958
O9	O	0.932485	-0.055028	0.072232
O10	O	1.432485	0.444972	0.572232
O11	O	0.819202	-0.168312	0.072213
O12	O	1.319202	0.331688	0.572213
O13	O	1.047601	-0.170144	0.072238
O14	O	1.547601	0.329856	0.572238
Cu15	Cu	0.932809	-0.169817	0.085398
Cu16	Cu	1.432809	0.330183	0.585398
Cu17	Cu	0.940473	-0.162189	-0.085207
Cu18	Cu	1.440473	0.337811	0.414793
O19	O	0.934317	-0.283428	0.072219
O20	O	1.434317	0.216572	0.572219
C21	C	0.793081	-0.162731	0.000079
C22	C	1.293081	0.337269	0.500079
C23	C	0.705597	-0.155702	0.000070
C24	C	1.205597	0.344298	0.500070
C25	C	0.659607	-0.223520	0.000066
C26	C	1.159607	0.276480	0.500066
C27	C	0.577405	-0.216911	0.000079
C28	C	1.077405	0.283089	0.500079
C29	C	0.541197	-0.142484	0.000088
C30	C	1.041197	0.357516	0.500088
C31	C	0.587193	-0.074661	0.000094
C32	C	1.087193	0.425339	0.500094
C33	C	0.669393	-0.081271	0.000088
C34	C	1.169393	0.418729	0.500088
C35	C	0.295881	-0.115091	0.000113
C36	C	0.795881	0.384909	0.500113
C37	C	0.213676	-0.108486	0.000116
C38	C	0.713676	0.391514	0.500116
C39	C	0.203893	-0.250737	0.000103
C40	C	0.703893	0.249263	0.500103
C41	C	0.286095	-0.257340	0.000091
C42	C	0.786095	0.242660	0.500091
C43	C	0.332084	-0.189517	0.000102
C44	C	0.832084	0.310483	0.500102
N45	N	0.457174	-0.135727	0.000098
N46	N	0.957174	0.364273	0.500098
N47	N	0.416105	-0.196275	0.000098
N48	N	0.916105	0.303725	0.500098
C49	C	0.933369	-0.022443	0.000102
C50	C	1.433369	0.477557	0.500102
C51	C	0.926341	0.065041	0.000101
C52	C	1.426341	0.565041	0.500101
C53	C	1.080201	-0.169275	0.000109
C54	C	1.580201	0.330725	0.500109
C55	C	1.167685	-0.176304	0.000113
C56	C	1.667685	0.323696	0.500113
C57	C	0.939913	-0.309563	0.000087
C58	C	1.439913	0.190437	0.500087
C59	C	0.946942	-0.397047	0.000082
C60	C	1.446942	0.102953	0.500082
C61	C	0.994158	0.111032	0.000109
C62	C	1.494158	0.611032	0.500109
C63	C	0.987550	0.193233	0.000100
C64	C	1.487550	0.693233	0.500100
C65	C	0.913123	0.229442	0.000089
C66	C	1.413123	0.729442	0.500089
C67	C	0.845300	0.183445	0.000078
C68	C	1.345300	0.683445	0.500078
C69	C	0.851910	0.101246	0.000081
C70	C	1.351910	0.601246	0.500081
C71	C	0.885729	0.474757	0.000074
C72	C	1.385729	0.974757	0.500074
C73	C	0.879124	0.556962	0.000074
C74	C	1.379124	1.056962	0.500074
C75	C	1.021375	0.566744	0.000094
C76	C	1.521375	1.066744	0.500094
C77	C	1.027977	0.484543	0.000102
C78	C	1.527977	0.984543	0.500102
C79	C	0.960155	0.438554	0.000087
C80	C	1.460155	0.938554	0.500087
N81	N	0.906366	0.313464	0.000082
N82	N	1.406366	0.813464	0.500082
N83	N	0.966913	0.354533	0.000087
N84	N	1.466913	0.854533	0.500087
N85	N	0.927425	-0.175181	0.205392
N86	N	1.427425	0.324819	0.705392
N87	N	0.945863	-0.156819	-0.205202
N88	N	1.445863	0.343181	0.294798
C89	C	0.975571	-0.127074	0.250795
C90	C	1.475571	0.372926	0.750795
C91	C	0.971507	-0.131139	0.341602
C92	C	1.471507	0.368861	0.841602
C93	C	0.919301	-0.183315	0.387005
C94	C	1.419301	0.316685	0.887005
C95	C	0.871149	-0.231424	0.341596
C96	C	1.371149	0.268576	0.841596
C97	C	0.875210	-0.227355	0.250791
C98	C	1.375210	0.272645	0.750791
C99	C	0.901772	-0.200858	0.658584
C100	C	1.401772	0.299142	1.158584
C101	C	0.897717	-0.204926	0.749395
C102	C	1.397717	0.295074	1.249395
C103	C	0.998074	-0.104639	0.749395
C104	C	1.498074	0.395361	1.249395
C105	C	1.002133	-0.100578	0.658588
C106	C	1.502133	0.399422	1.158588
C107	C	0.953979	-0.148684	0.613187
C108	C	1.453979	0.351316	1.113187
N109	N	0.915147	-0.187473	0.479825
N110	N	1.415147	0.312527	0.979825
N111	N	0.958129	-0.144522	0.520369
N112	N	1.458129	0.355478	1.020369
H113	H	0.315570	-0.317946	0.000074
H114	H	0.815570	0.182054	0.500074
H115	H	0.830503	0.437322	0.000061
H116	H	1.330503	0.937322	0.500061
H117	H	0.689081	-0.284126	0.000058
H118	H	1.189081	0.215874	0.500058
O119	O	0.154284	-0.323882	0.000105
O120	O	0.654284	0.176118	0.500105
H121	H	0.170339	-0.356626	-0.058698
H122	H	0.670339	0.143374	0.441302
H123	H	0.796685	0.063801	0.000073
H124	H	1.296685	0.563801	0.500073
O125	O	0.548146	0.005617	0.000108
O126	O	1.048146	0.505617	0.500108
H127	H	0.483261	-0.001179	0.000103
H128	H	0.983261	0.498821	0.500103
H129	H	1.018087	-0.084591	0.213834
H130	H	1.518087	0.415409	0.713834
H131	H	1.010711	-0.091966	0.378568
H132	H	1.510711	0.408034	0.878568
O133	O	1.058434	-0.044296	0.609616
O134	O	1.558434	0.455704	1.109616
H135	H	1.091226	-0.011520	0.656444
H136	H	1.591226	0.488480	1.156444
H137	H	0.818513	0.586440	0.000079
H138	H	1.318513	1.086440	0.500079
H139	H	0.855202	-0.247417	0.786359
H140	H	1.355202	0.252583	1.286359
H141	H	0.706838	-0.026046	0.000090
H142	H	1.206838	0.473954	0.500090
O143	O	0.765024	0.222498	0.000076
O144	O	1.265024	0.722498	0.500076
H145	H	0.761251	0.262348	-0.058717
H146	H	1.261251	0.762348	0.441283
H147	H	1.037278	-0.065473	0.786369
H148	H	1.537278	0.434527	1.286369
O149	O	0.174617	-0.028208	0.000135
O150	O	0.674617	0.471792	0.500135
H151	H	0.220404	0.017843	0.000150
H152	H	0.720404	0.517843	0.500150
O153	O	0.849845	-0.252749	0.609620
O154	O	1.349845	0.247251	1.109620
H155	H	0.812870	-0.289719	0.656450
H156	H	1.312870	0.210281	1.156450
H157	H	1.054764	0.081557	0.000124
H158	H	1.554764	0.581557	0.500124
O159	O	1.060694	0.242841	0.000108
O160	O	1.560694	0.742841	0.500108
H161	H	1.058436	0.277908	0.058900
H162	H	1.558436	0.777908	0.558900
O163	O	1.108255	0.445495	0.000116
O164	O	1.608255	0.945495	0.500116
H165	H	1.101457	0.380609	0.000127
H166	H	1.601457	0.880609	0.500127
O167	O	0.345480	-0.041943	0.000124
O168	O	0.845480	0.458057	0.500124
H169	H	0.306490	0.010919	0.000124
H170	H	0.806490	0.510919	0.500124
O171	O	0.814842	-0.287705	0.390560
O172	O	1.314842	0.212295	0.890560
H173	H	0.820113	-0.282461	0.461331
H174	H	1.320113	0.217539	0.961331
H175	H	1.076591	0.604197	0.000106
H176	H	1.576591	1.104197	0.500106
H177	H	0.836004	-0.266527	0.213825
H178	H	1.336004	0.233473	0.713825
H179	H	0.539963	-0.272136	0.000075
H180	H	1.039963	0.227864	0.500075
