data_functionalizedCrystal
_audit_creation_method	'MofGen! by Chris Wilmer'
_symmetry_space_group_name_H-M	'P1'
_symmetry_Int_Tables_number	1
_symmetry_cell_setting	triclinic
loop_
_symmetry_equiv_pos_as_xyz
  x,y,z
_cell_length_a	12.645331
_cell_length_b	16.994747
_cell_length_c	12.645323
_cell_angle_alpha	90.006372
_cell_angle_beta	90.022676
_cell_angle_gamma	90.010038
loop_
_atom_site_label
_atom_site_type_symbol
_atom_site_fract_x
_atom_site_fract_y
_atom_site_fract_z
Zn1	Zn	1.620780	-0.314043	0.599583
Zn2	Zn	1.620682	-0.445958	0.422380
Zn3	Zn	1.443495	-0.314070	0.422327
Zn4	Zn	1.443497	-0.445907	0.599595
O5	O	1.532114	-0.379995	0.510971
O6	O	1.769114	-0.331552	0.576093
O7	O	1.597136	-0.428496	0.274026
O8	O	1.467052	-0.203685	0.445813
O9	O	1.769043	-0.428470	0.445903
O10	O	1.597303	-0.203666	0.576042
O11	O	1.466957	-0.331598	0.273987
O12	O	1.295148	-0.331548	0.445825
O13	O	1.467056	-0.428382	0.747941
O14	O	1.295149	-0.428408	0.576063
O15	O	1.597305	-0.331503	0.747932
O16	O	1.597138	-0.556333	0.445915
O17	O	1.466961	-0.556295	0.576115
C18	C	1.256684	-0.379976	0.510941
C19	C	1.138854	-0.379987	0.510953
C20	C	1.532052	-0.584934	0.511019
C21	C	1.532060	-0.674257	0.511016
Zn22	Zn	1.443525	-0.945156	0.422297
Zn23	Zn	1.620827	-0.945108	0.599536
Zn24	Zn	1.443533	-0.813299	0.599577
Zn25	Zn	1.620702	-0.813214	0.422345
O26	O	1.532147	-0.879194	0.510939
O27	O	1.467094	-1.055531	0.445771
O28	O	1.597365	-0.927639	0.747889
O29	O	1.295185	-0.830846	0.576058
O30	O	1.597357	-1.055496	0.575987
O31	O	1.295179	-0.927721	0.445811
O32	O	1.467108	-0.830800	0.747919
O33	O	1.466986	-0.702907	0.576105
O34	O	1.597143	-0.830700	0.273992
O35	O	1.597151	-0.702844	0.445893
O36	O	1.466972	-0.927638	0.273956
O37	O	1.769158	-0.927556	0.576034
O38	O	1.769066	-0.830654	0.445853
C39	C	0.971253	-0.318772	0.429471
C40	C	1.093813	-0.318930	0.429113
C41	C	1.094346	-0.463080	0.480474
C42	C	0.971748	-0.462746	0.479918
C43	C	0.971701	-0.358899	0.623227
C44	C	1.094307	-0.357043	0.622603
C45	C	1.808619	-0.380014	0.511003
C46	C	1.926449	-0.380022	0.511016
C47	C	1.532192	-0.379934	0.787477
C48	C	1.532225	-0.379908	0.905307
C49	C	1.532180	-0.174254	0.510917
C50	C	1.532213	-0.084932	0.510895
C51	C	1.532097	-0.379998	0.235541
C52	C	1.532269	-0.379802	0.117712
C53	C	1.450032	-0.440567	1.072877
C54	C	1.450248	-0.440868	0.950317
C55	C	1.643928	-0.402468	0.949836
C56	C	1.643477	-0.402849	1.072435
C57	C	1.503771	-0.296348	1.072468
C58	C	1.501279	-0.296849	0.949862
C59	C	1.807577	-0.879092	0.510947
C60	C	1.925407	-0.879072	0.510981
C61	C	1.532043	-0.879165	0.234434
C62	C	1.531998	-0.879153	0.116603
C63	C	1.255642	-0.879299	0.510934
C64	C	1.137812	-0.879343	0.510932
C65	C	1.532175	-0.879268	0.786369
C66	C	1.531924	-0.879431	0.904198
C67	C	2.092957	-0.818263	0.428924
C68	C	1.970397	-0.818025	0.429121
C69	C	1.969907	-0.856576	0.622732
C70	C	2.092505	-0.856133	0.622301
C71	C	2.092617	-0.962524	0.482403
C72	C	1.970011	-0.962084	0.479892
C73	C	1.613524	-0.817954	-0.050938
C74	C	1.613912	-0.818134	0.071622
C75	C	1.562351	-0.962256	0.072094
C76	C	1.562878	-0.961900	-0.050504
C77	C	1.419713	-0.857974	-0.050607
C78	C	1.420369	-0.856139	0.072000
H79	H	0.941780	-0.256969	0.448366
O80	O	1.722987	-0.836296	-0.091745
H81	H	1.753285	-0.785236	-0.137314
O82	O	1.335528	-0.910926	0.112464
H83	H	1.371761	-0.955611	0.165240
H84	H	2.123770	-0.756781	0.447668
H85	H	1.123904	-0.257313	0.448212
H86	H	1.667632	-0.463855	1.101072
H87	H	1.423734	-0.275783	1.103363
O88	O	1.132996	-0.525151	0.556672
H89	H	1.064191	-0.553269	0.595924
H90	H	2.123536	-0.983011	0.402335
O91	O	1.676487	-0.482432	0.909233
H92	H	1.617872	-0.527066	0.935119
H93	H	1.367416	-0.426750	0.920209
O94	O	2.131848	-0.912226	0.706142
H95	H	2.102455	-0.972403	0.688788
O96	O	1.339137	-0.917008	-0.089051
H97	H	1.302621	-0.946950	-0.020133
H98	H	1.940310	-0.832096	0.346260
H99	H	1.125005	-0.481301	0.399323
H100	H	1.504763	-1.009085	0.101230
H101	H	1.940765	-0.899498	0.685566
O102	O	0.930430	-0.337066	0.319961
H103	H	0.878366	-0.389593	0.323358
H104	H	1.366956	-0.426585	1.102344
O105	O	0.933315	-0.417985	0.703712
H106	H	0.965600	-0.402676	0.782714
O107	O	1.588735	-0.736512	0.111503
H108	H	1.655641	-0.714576	0.160110
O109	O	1.574823	-0.233701	0.909291
H110	H	1.634853	-0.260651	0.856508
O111	O	0.930777	-0.280037	0.659960
H112	H	0.877722	-0.255015	0.598640
H113	H	2.122416	-0.832181	0.345821
O114	O	1.132845	-0.276047	0.653054
H115	H	1.179327	-0.279909	0.727348
H116	H	1.124971	-0.398400	0.686606
H117	H	1.419075	-0.279835	0.920755
H118	H	1.468663	-0.502049	1.103722
O119	O	1.727371	-0.346775	1.111782
H120	H	1.805914	-0.365953	1.082307
H121	H	1.469062	-0.502736	0.921029
H122	H	1.706844	-0.359610	0.920682
H123	H	1.939209	-0.796243	0.647403
O124	O	1.931487	-0.984560	0.370958
H125	H	1.885045	-1.039859	0.375961
O126	O	1.588628	-0.736067	-0.089989
H127	H	1.517804	-0.738106	-0.141796
O128	O	1.583099	-0.236372	1.110874
H129	H	1.642539	-0.265807	1.161938
H130	H	1.939377	-1.009811	0.535315
H131	H	1.941074	-0.756192	0.448076
O132	O	1.671508	-0.985646	-0.088394
H133	H	1.672966	-0.985621	-0.176157
O134	O	2.130404	-0.775328	0.654426
H135	H	2.061167	-0.736934	0.670119
H136	H	2.121617	-1.007827	0.542229
H137	H	1.697053	-0.832148	0.100944
H138	H	1.392052	-0.798427	-0.081533
O139	O	1.487563	-1.024360	-0.089832
H140	H	1.450932	-1.054689	-0.021282
H141	H	1.643469	-0.980537	0.102819
H142	H	1.397479	-0.794983	0.101093
H143	H	1.123093	-0.332892	0.345958
H144	H	0.942111	-0.509927	0.536723
O145	O	0.933793	-0.486462	0.371258
H146	H	1.003004	-0.498057	0.319601
