data_functionalizedCrystal
_audit_creation_method	'MofGen! by Chris Wilmer'
_symmetry_space_group_name_H-M	'P1'
_symmetry_Int_Tables_number	1
_symmetry_cell_setting	triclinic
loop_
_symmetry_equiv_pos_as_xyz
  x,y,z
_cell_length_a	14.044191
_cell_length_b	14.044190
_cell_length_c	17.766277
_cell_angle_alpha	89.989261
_cell_angle_beta	89.993222
_cell_angle_gamma	93.191777
loop_
_atom_site_label
_atom_site_type_symbol
_atom_site_fract_x
_atom_site_fract_y
_atom_site_fract_z
O1	O	1.277185	0.230203	-0.062573
O2	O	1.000512	0.221890	-0.062582
O3	O	1.134692	0.087710	-0.062563
O4	O	1.143005	0.364383	-0.062593
O5	O	1.134666	0.087700	0.062625
O6	O	1.000486	0.221880	0.062606
O7	O	1.277159	0.230193	0.062615
Cu8	Cu	1.138820	0.226036	0.074041
Cu9	Cu	1.138851	0.226047	-0.074009
O10	O	1.142979	0.364373	0.062596
C11	C	0.964877	0.218249	0.000011
C12	C	0.858734	0.207401	0.000008
C13	C	0.613277	0.264502	0.000010
C14	C	0.664400	0.187585	0.000016
C15	C	0.772537	0.198614	0.000012
C16	C	0.505130	0.253475	0.000014
C17	C	1.131043	0.052083	0.000033
C18	C	1.120195	-0.054060	0.000039
C19	C	1.177296	-0.299517	0.000012
C20	C	1.100379	-0.248394	0.000014
C21	C	1.111408	-0.140257	0.000028
C22	C	1.166269	-0.407664	-0.000002
C23	C	1.312794	0.233834	0.000020
C24	C	1.418937	0.244682	0.000018
C25	C	1.146628	0.400000	-0.000002
C26	C	1.157476	0.506143	-0.000013
N27	N	1.138805	0.226028	0.178172
N28	N	1.138873	0.226048	-0.178139
C29	C	1.198243	0.166647	0.217567
C30	C	1.198249	0.166643	0.296369
C31	C	1.138826	0.226037	0.335772
C32	C	1.079375	0.285422	0.296367
C33	C	1.079365	0.285418	0.217567
C34	C	1.133671	0.311928	0.460601
C35	C	1.133688	0.311935	0.539400
C36	C	1.138852	0.226051	0.578819
C37	C	1.144019	0.140158	0.539429
C38	C	1.144009	0.140154	0.460629
C39	C	1.138830	0.226048	0.421218
C40	C	1.198299	0.166660	0.703660
C41	C	1.198298	0.166654	0.782463
C42	C	1.079430	0.285443	0.782460
C43	C	1.079426	0.285440	0.703658
C44	C	1.138866	0.226050	0.664263
H45	H	0.626955	0.113453	-0.000029
Cl46	Cl	0.671086	0.378951	-0.000012
Cl47	Cl	0.985923	-0.306202	0.000010
Cl48	Cl	1.291745	-0.241708	0.000027
H49	H	1.246640	0.118285	0.185494
H50	H	1.246652	0.118285	0.328450
Cl51	Cl	1.150494	0.032179	0.411113
Cl52	Cl	1.150519	0.032183	0.588975
Cl53	Cl	1.273018	0.091994	0.654133
H54	H	1.246697	0.118294	0.814539
H55	H	1.031042	0.333799	0.814542
Cl56	Cl	1.004705	0.360100	0.654128
Cl57	Cl	1.127199	0.419913	0.588910
Cl58	Cl	1.127267	0.419918	0.411054
Cl59	Cl	1.004667	0.360086	0.345901
H60	H	1.030962	0.333774	0.185491
