data_functionalizedCrystal
_audit_creation_method	'MofGen! by Chris Wilmer'
_symmetry_space_group_name_H-M	'P1'
_symmetry_Int_Tables_number	1
_symmetry_cell_setting	triclinic
loop_
_symmetry_equiv_pos_as_xyz
  x,y,z
_cell_length_a	12.759401
_cell_length_b	16.959453
_cell_length_c	12.759393
_cell_angle_alpha	89.964958
_cell_angle_beta	89.978838
_cell_angle_gamma	90.021720
loop_
_atom_site_label
_atom_site_type_symbol
_atom_site_fract_x
_atom_site_fract_y
_atom_site_fract_z
Zn1	Zn	1.606217	-0.314598	-0.594031
Zn2	Zn	1.606095	-0.446800	-0.418340
Zn3	Zn	1.430519	-0.314643	-0.418362
Zn4	Zn	1.430491	-0.446743	-0.593973
O5	O	1.518330	-0.380696	-0.506177
O6	O	1.753222	-0.332140	-0.570740
O7	O	1.582765	-0.429312	-0.271322
O8	O	1.453888	-0.204027	-0.441698
O9	O	1.753132	-0.429268	-0.441661
O10	O	1.582973	-0.203993	-0.570761
O11	O	1.453770	-0.332217	-0.271338
O12	O	1.283494	-0.332162	-0.441642
O13	O	1.453841	-0.429171	-0.741002
O14	O	1.283474	-0.429214	-0.570663
O15	O	1.582946	-0.332085	-0.741044
O16	O	1.582738	-0.557403	-0.441605
O17	O	1.453723	-0.557361	-0.570642
C18	C	1.245363	-0.380687	-0.506150
C19	C	1.128586	-0.380702	-0.506163
C20	C	0.964017	-0.431314	-0.573274
C21	C	1.073741	-0.431313	-0.573246
C22	C	1.073703	-0.330096	-0.439097
C23	C	0.963981	-0.330102	-0.439122
C24	C	0.964039	-0.489749	-0.650727
C25	C	1.073763	-0.489747	-0.650698
C26	C	1.518243	-0.586062	-0.506138
C27	C	1.518301	-0.673919	-0.506157
C28	C	1.585631	-1.045319	-0.573507
C29	C	1.451323	-1.045470	-0.439003
C30	C	1.451285	-0.962924	-0.438978
C31	C	1.518419	-0.921572	-0.506221
C32	C	1.585592	-0.962765	-0.573487
C33	C	1.384105	-0.921725	-0.371721
C34	C	1.384063	-0.839174	-0.371695
C35	C	1.451203	-0.797820	-0.438933
C36	C	1.518380	-0.839018	-0.506201
C37	C	1.585514	-0.797666	-0.573443
C38	C	1.652696	-0.838863	-0.640706
C39	C	1.652732	-0.921411	-0.640724
C40	C	1.451167	-0.715271	-0.438915
C41	C	1.585475	-0.715112	-0.573423
C42	C	1.792364	-0.380706	-0.506204
C43	C	1.909140	-0.380710	-0.506216
C44	C	1.518404	-0.380616	-0.780210
C45	C	1.518435	-0.380582	-0.896987
C46	C	1.518447	-0.174528	-0.506238
C47	C	1.518497	-0.086671	-0.506264
C48	C	1.585670	-0.330025	-0.951872
C49	C	1.585694	-0.329996	-1.061597
C50	C	1.451248	-0.431090	-1.061540
C51	C	1.451219	-0.431114	-0.951818
C52	C	1.663294	-0.271662	-0.951906
C53	C	1.663319	-0.271633	-1.061630
C54	C	1.518318	-0.380719	-0.233209
C55	C	1.518490	-0.380530	-0.116433
H56	H	1.107752	-0.547875	-0.621409
F57	F	1.764290	-0.300340	-0.907416
H58	H	1.634213	-0.213471	-1.095681
F59	F	1.656935	-0.671108	-0.644988
F60	F	1.112764	-0.468404	-0.757092
F61	F	1.724135	-0.794843	-0.712276
H62	H	0.934226	-0.550950	-0.628800
F63	F	1.312644	-0.965739	-0.300180
F64	F	0.905581	-0.276249	-0.367740
F65	F	1.132077	-0.276238	-0.367694
H66	H	1.744688	-0.288027	-1.091411
H67	H	0.930061	-0.467889	-0.728079
H68	H	1.396467	-0.472279	-0.907134
F69	F	1.724223	-0.965261	-0.712308
H70	H	1.396521	-0.472228	-1.106196
F71	F	1.634851	-0.191653	-0.913013
H72	H	1.396662	-1.079144	-0.384262
F73	F	1.657131	-1.089163	-0.645086
H74	H	1.329360	-0.805636	-0.316925
F75	F	1.379669	-0.671430	-0.367336
