data_functionalizedCrystal
_audit_creation_method	'MofGen! by Chris Wilmer'
_symmetry_space_group_name_H-M	'P1'
_symmetry_Int_Tables_number	1
_symmetry_cell_setting	triclinic
loop_
_symmetry_equiv_pos_as_xyz
  x,y,z
_cell_length_a	24.447405
_cell_length_b	24.446649
_cell_length_c	24.443239
_cell_angle_alpha	60.006064
_cell_angle_beta	60.011844
_cell_angle_gamma	59.992812
loop_
_atom_site_label
_atom_site_type_symbol
_atom_site_fract_x
_atom_site_fract_y
_atom_site_fract_z
O1	O	0.075907	-0.799232	0.668277
O2	O	0.028634	-0.622262	0.538455
O3	O	0.140702	-0.734230	0.538349
O4	O	-0.036160	-0.687265	0.668384
O5	O	0.177886	-0.697056	0.575424
O6	O	0.065818	-0.585088	0.575530
O7	O	0.113091	-0.762059	0.705353
Cu8	Cu	0.092850	-0.670179	0.643827
Cu9	Cu	0.048876	-0.714142	0.599981
O10	O	0.001024	-0.650091	0.705459
N11	N	0.123780	-0.639263	0.674669
N12	N	0.017951	-0.745064	0.569139
C13	C	0.170236	-0.489965	0.721065
C14	C	0.170249	-0.592837	0.721058
C15	C	0.195989	-0.567121	0.746758
C16	C	0.308182	-0.547773	0.687664
C17	C	0.378316	-0.571143	0.664253
C18	C	0.378353	-0.684626	0.707525
C19	C	0.308220	-0.661254	0.730938
C20	C	0.187125	-0.454882	0.652117
C21	C	0.163710	-0.384741	0.628763
C22	C	0.106523	-0.384772	0.743308
C23	C	0.129938	-0.454913	0.766662
C24	C	0.101291	-0.575906	0.738041
C25	C	0.077897	-0.599283	0.714670
C26	C	0.192412	-0.656523	0.657348
C27	C	0.215809	-0.633146	0.680711
C28	C	0.101393	-0.575928	0.859014
C29	C	0.078071	-0.599328	0.929152
C30	C	0.192636	-0.656582	0.929078
C31	C	0.215955	-0.633184	0.858938
C32	C	0.170332	-0.592855	0.823908
C33	C	0.273137	-0.592827	0.721004
C34	C	-0.131205	-0.791294	0.522327
C35	C	-0.028388	-0.791420	0.522551
C36	C	-0.054056	-0.817099	0.496741
C37	C	-0.073479	-0.929255	0.555734
C38	C	-0.050156	-0.999396	0.579142
C39	C	0.063326	-0.999525	0.536064
C40	C	0.040001	-0.929386	0.512654
C41	C	-0.166365	-0.808188	0.591256
C42	C	-0.236499	-0.784726	0.614512
C43	C	-0.236309	-0.727482	0.499907
C44	C	-0.166175	-0.750944	0.476651
C45	C	-0.045285	-0.722468	0.505590
C46	C	-0.021951	-0.699130	0.529061
C47	C	0.035176	-0.813691	0.586439
C48	C	0.011842	-0.837031	0.562976
C49	C	-0.045097	-0.722476	0.384488
C50	C	-0.021613	-0.699140	0.314350
C51	C	0.035607	-0.813706	0.314419
C52	C	0.012124	-0.837041	0.384558
C53	C	-0.028229	-0.791425	0.419591
C54	C	-0.028402	-0.894253	0.522492
N55	N	0.412405	-0.639229	0.674505
O56	O	0.626552	-0.645384	0.514503
O57	O	0.626802	-0.775625	0.691288
O58	O	0.626698	-0.775326	0.579168
O59	O	0.626656	-0.645683	0.626623
O60	O	0.515277	-0.738265	0.616407
O61	O	0.515382	-0.738564	0.728527
O62	O	0.515131	-0.608323	0.551742
Cu63	Cu	0.505083	-0.670059	0.643535
Cu64	Cu	0.636850	-0.713889	0.599495
O65	O	0.515236	-0.608622	0.663862
N66	N	0.729529	-0.744719	0.568518
N67	N	0.123755	-0.350686	0.674680
O68	O	-0.036153	-0.136410	0.668391
O69	O	0.140633	-0.136380	0.538141
O70	O	0.028472	-0.136412	0.538488
O71	O	0.076007	-0.136377	0.668044
O72	O	0.065663	-0.247842	0.575621
O73	O	0.177823	-0.247810	0.575274
O74	O	0.001037	-0.247840	0.705524
Cu75	Cu	0.092826	-0.258000	0.643789
Cu76	Cu	0.048844	-0.126220	0.599875
O77	O	0.113198	-0.247808	0.705177
N78	N	0.017907	-0.033534	0.568986
N79	N	0.124013	-0.639306	0.963182
O80	O	0.117754	-0.799195	1.177439
O81	O	-0.012458	-0.622342	1.177485
O82	O	-0.012155	-0.734480	1.177444
O83	O	0.117450	-0.687057	1.177480
O84	O	0.024954	-0.697317	1.066020
O85	O	0.024650	-0.585179	1.066061
O86	O	0.154862	-0.762032	1.066014
Cu87	Cu	0.093145	-0.670212	1.055863
Cu88	Cu	0.049259	-0.714162	1.187636
O89	O	0.154559	-0.649894	1.066055
N90	N	0.018389	-0.745075	1.280318
C91	C	0.042795	-0.581375	0.539107
C92	C	0.181576	-0.720034	0.538975
C93	C	0.098930	-0.802946	0.704700
C94	C	-0.039851	-0.664287	0.704832
C95	C	0.571122	-0.775030	0.732180
C96	C	0.570995	-0.774660	0.593332
C97	C	0.570808	-0.608917	0.510851
C98	C	0.570939	-0.609288	0.649698
C99	C	0.181453	-0.191954	0.538725
C100	C	0.042602	-0.192131	0.539201
C101	C	-0.039829	-0.192128	0.704893
C102	C	0.099069	-0.192090	0.704464
C103	C	-0.011836	-0.581480	1.121779
C104	C	-0.011453	-0.720342	1.121706
C105	C	0.154240	-0.802894	1.121720
C106	C	0.153865	-0.664024	1.121769
H107	H	0.064236	-0.543084	0.830495
H108	H	0.109031	-0.853782	0.745475
O109	O	-0.100348	-0.192252	0.753735
C110	C	-0.091483	-0.249948	0.810191
H111	H	-0.042426	-0.290283	0.794042
H112	H	-0.089920	-0.236889	0.847996
C113	C	-0.210431	-0.226586	0.862445
C114	C	-0.150181	-0.276128	0.842609
H115	H	-0.246640	-0.242734	0.882444
H116	H	-0.216405	-0.187713	0.824410
H117	H	-0.209120	-0.215708	0.893945
H118	H	-0.151490	-0.286999	0.811103
H119	H	-0.144209	-0.315004	0.880639
H120	H	-0.052152	-0.730472	1.121651
H121	H	0.570727	-0.568026	0.460082
H122	H	0.232372	-0.730046	0.498140
H123	H	0.232119	-0.191636	0.497733
O124	O	-0.139911	-0.895151	0.565181
C125	C	-0.161262	-0.912278	0.533604
H126	H	-0.116429	-0.931620	0.492224
H127	H	-0.184802	-0.952939	0.572015
C128	C	-0.268413	-0.826177	0.553946
C129	C	-0.213349	-0.849928	0.503119
H130	H	-0.300545	-0.787718	0.535144
H131	H	-0.254030	-0.814640	0.575223
H132	H	-0.288021	-0.860067	0.585951
H133	H	-0.193737	-0.816042	0.471119
H134	H	-0.227730	-0.861458	0.481836
O135	O	0.202508	-0.652044	1.121799
C136	C	0.260335	-0.709575	1.121764
H137	H	0.245715	-0.755637	1.142849
H138	H	0.296752	-0.704163	1.068304
C139	C	0.312017	-0.660933	1.139562
C140	C	0.294059	-0.717508	1.165465
H141	H	0.332822	-0.665826	1.166516
H142	H	0.273060	-0.622172	1.139583
H143	H	0.342361	-0.656430	1.095012
H144	H	0.263710	-0.722006	1.210011
H145	H	0.333013	-0.756270	1.165452
O146	O	0.203075	-0.863436	1.121585
C147	C	0.259518	-0.854600	1.063888
H148	H	0.243358	-0.805536	1.023563
H149	H	0.297335	-0.853062	1.076944
C150	C	0.311767	-0.973565	1.087225
C151	C	0.291919	-0.913306	1.037695
H152	H	0.331756	-1.009778	1.071069
H153	H	0.273742	-0.979519	1.126098
H154	H	0.343278	-0.972274	1.098101
H155	H	0.260403	-0.914595	1.026827
H156	H	0.329940	-0.907354	0.998819
H157	H	-0.090650	-0.654278	0.745664
H158	H	0.229790	-0.689406	0.957592
O159	O	0.011083	-0.582901	0.963172
C160	C	-0.018064	-0.606896	0.946065
H161	H	0.015157	-0.613762	0.895132
H162	H	-0.023255	-0.657023	0.985534
C163	C	-0.128573	-0.547684	1.005421
C164	C	-0.087773	-0.556112	0.942862
H165	H	-0.171574	-0.516360	1.003448
H166	H	-0.108937	-0.531520	1.016949
H167	H	-0.132891	-0.589461	1.038305
H168	H	-0.083449	-0.514337	0.909980
H169	H	-0.107410	-0.572268	0.931328
O170	O	0.282949	-0.649669	0.824942
C171	C	0.318213	-0.690291	0.870903
H172	H	0.284794	-0.681350	0.920910
H173	H	0.333348	-0.745229	0.878350
C174	C	0.422476	-0.683508	0.782079
C175	C	0.381432	-0.672524	0.843497
H176	H	0.461474	-0.672552	0.765173
H177	H	0.398719	-0.656143	0.751113
H178	H	0.435081	-0.729290	0.788293
H179	H	0.368821	-0.626741	0.837281
H180	H	0.405188	-0.699881	0.874461
H181	H	0.064189	-0.543085	0.770891
H182	H	0.571013	-0.815386	0.583175
H183	H	-0.052716	-0.530687	1.121793
H184	H	0.032695	-0.530537	0.498334
O185	O	0.571323	-0.823829	0.792721
C186	C	0.629045	-0.839339	0.804707
H187	H	0.669328	-0.824476	0.754961
H188	H	0.616006	-0.810643	0.837092
C189	C	0.605815	-0.933381	0.902350
C190	C	0.655295	-0.915130	0.841250
H191	H	0.622007	-0.980131	0.924894
H192	H	0.566926	-0.922930	0.894277
H193	H	0.594954	-0.909462	0.929329
H194	H	0.666149	-0.939043	0.814269
H195	H	0.694187	-0.925587	0.849320
O196	O	0.010890	-0.582806	0.731255
C197	C	-0.024308	-0.542207	0.771867
H198	H	0.009173	-0.551155	0.797337
H199	H	-0.039476	-0.487263	0.739535
C200	C	-0.128616	-0.549002	0.794217
C201	C	-0.087496	-0.559996	0.825505
H202	H	-0.167595	-0.559972	0.827302
H203	H	-0.104903	-0.576352	0.766854
H204	H	-0.141249	-0.503215	0.767275
H205	H	-0.074857	-0.605784	0.852440
H206	H	-0.111208	-0.532654	0.852874
H207	H	0.229515	-0.689349	0.624505
O208	O	0.111332	-0.192121	0.752964
C209	C	0.177182	-0.192094	0.728535
H210	H	0.208854	-0.213179	0.685520
H211	H	0.176182	-0.138633	0.709852
C212	C	0.168778	-0.209901	0.838025
C213	C	0.207680	-0.235804	0.785197
H214	H	0.187590	-0.236860	0.872976
H215	H	0.124413	-0.209917	0.854483
H216	H	0.167948	-0.165351	0.822447
H217	H	0.208503	-0.280350	0.800773
H218	H	0.252046	-0.235796	0.768742
H219	H	0.570930	-0.568565	0.659852
O220	O	0.030484	-0.192275	0.490701
C221	C	0.014722	-0.249993	0.513810
H222	H	0.036367	-0.290310	0.555409
H223	H	-0.042012	-0.236960	0.534028
C224	C	0.018320	-0.226670	0.404453
C225	C	0.044909	-0.276190	0.455543
H226	H	0.036937	-0.242828	0.368512
H227	H	0.028936	-0.187782	0.388885
H228	H	-0.028957	-0.215813	0.421311
H229	H	0.092184	-0.287040	0.438687
H230	H	0.034301	-0.315080	0.471107
O231	O	0.226234	-0.488829	0.607736
C232	C	0.236125	-0.442821	0.541871
H233	H	0.193827	-0.392830	0.542024
H234	H	0.286082	-0.435350	0.521746
C235	C	0.288533	-0.531586	0.496712
C236	C	0.236579	-0.470188	0.496900
H237	H	0.288817	-0.548468	0.468970
H238	H	0.281872	-0.562584	0.541086
H239	H	0.330159	-0.525352	0.479943
H240	H	0.194954	-0.476424	0.513676
H241	H	0.243233	-0.439192	0.452527
H242	H	0.279688	-0.697946	0.758086
O243	O	0.282807	-0.649542	0.664095
C244	C	0.311866	-0.625508	0.593842
H245	H	0.278590	-0.618651	0.569324
H246	H	0.317037	-0.575368	0.577987
C247	C	0.422441	-0.684667	0.601752
C248	C	0.381574	-0.676251	0.571639
H249	H	0.465441	-0.715965	0.588056
H250	H	0.402864	-0.700858	0.649083
H251	H	0.426743	-0.642880	0.588537
H252	H	0.377265	-0.718035	0.584861
H253	H	0.401151	-0.660068	0.524310
O254	O	0.412367	-0.751100	0.717127
C255	C	0.395216	-0.772514	0.685628
H256	H	0.344273	-0.736951	0.679688
H257	H	0.434656	-0.772622	0.634183
C258	C	0.454588	-0.887480	0.736035
C259	C	0.392017	-0.843804	0.728744
H260	H	0.452617	-0.931456	0.762629
H261	H	0.466146	-0.873053	0.757255
H262	H	0.487448	-0.887562	0.693161
H263	H	0.359160	-0.843716	0.771617
H264	H	0.380453	-0.858232	0.707533
O265	O	0.412257	-0.527284	0.631852
C266	C	0.366251	-0.461878	0.628119
H267	H	0.316248	-0.459149	0.632739
H268	H	0.358823	-0.448787	0.670609
C269	C	0.454993	-0.415151	0.554729
C270	C	0.393580	-0.411799	0.560398
H271	H	0.471851	-0.384259	0.512957
H272	H	0.485989	-0.459216	0.557246
H273	H	0.448794	-0.404244	0.590142
H274	H	0.399781	-0.422714	0.524991
H275	H	0.362586	-0.367734	0.557873
H276	H	0.177459	-0.356175	0.572617
O277	O	0.067368	-0.350821	0.787690
C278	C	0.057508	-0.396828	0.853556
H279	H	0.065351	-0.446827	0.853431
H280	H	0.094868	-0.404280	0.873615
C281	C	-0.023955	-0.308066	0.898733
C282	C	-0.014328	-0.369474	0.898580
H283	H	-0.068266	-0.291192	0.926507
H284	H	-0.017311	-0.277070	0.854358
H285	H	0.007182	-0.314284	0.915447
H286	H	-0.045460	-0.363253	0.881858
H287	H	-0.020979	-0.400469	0.942953
H288	H	0.279622	-0.492055	0.679573
H289	H	-0.078038	-0.685325	0.472673
H290	H	0.116177	-0.483478	0.822809
H291	H	-0.077958	-0.685325	0.413008
O292	O	-0.038097	-0.632137	0.280361
C293	C	-0.078736	-0.596885	0.326326
H294	H	-0.104296	-0.630297	0.376294
H295	H	-0.046410	-0.581799	0.333868
C296	C	-0.100874	-0.492583	0.237476
C297	C	-0.132272	-0.533619	0.298846
H298	H	-0.133896	-0.453557	0.220524
H299	H	-0.073493	-0.516333	0.206508
H300	H	-0.073936	-0.480019	0.243769
H301	H	-0.159202	-0.546189	0.292550
H302	H	-0.159659	-0.509870	0.329812
H303	H	0.025866	-0.893188	0.413136
O304	O	0.074717	-0.858085	0.280468
C305	C	0.039274	-0.898561	0.297517
H306	H	-0.001611	-0.899190	0.348395
H307	H	0.015547	-0.877446	0.257966
C308	C	0.138056	-0.969675	0.238350
C309	C	0.087843	-0.970452	0.300842
H310	H	0.168015	-1.014021	0.240399
H311	H	0.161934	-0.942405	0.226862
H312	H	0.118275	-0.952077	0.205398
H313	H	0.107624	-0.988043	0.333792
H314	H	0.063969	-0.997728	0.312337
O315	O	-0.038265	-0.632146	0.512467
C316	C	-0.014174	-0.603073	0.442220
H317	H	0.029079	-0.643059	0.419676
H318	H	-0.056191	-0.580873	0.421340
C319	C	-0.042653	-0.498176	0.451834
C320	C	0.010475	-0.547287	0.424145
H321	H	-0.027450	-0.463762	0.440683
H322	H	-0.058886	-0.517761	0.499160
H323	H	-0.077662	-0.479683	0.434431
H324	H	0.045480	-0.565784	0.441555
H325	H	0.026715	-0.527703	0.376821
O326	O	0.074227	-0.858090	0.625719
C327	C	0.084150	-0.923951	0.635634
H328	H	0.041900	-0.923773	0.627696
H329	H	0.134144	-0.944098	0.598367
C330	C	0.136422	-0.969139	0.717278
C331	C	0.084526	-0.968921	0.707534
H332	H	0.136657	-0.996880	0.761628
H333	H	0.129740	-0.924767	0.710596
H334	H	0.178078	-0.985926	0.686217
H335	H	0.042871	-0.952126	0.738588
H336	H	0.091202	-1.013291	0.714222
H337	H	0.025599	-0.893178	0.576787
H338	H	0.076712	-0.900889	0.485585
O339	O	0.129795	-1.033630	0.526392
C340	C	0.166069	-1.016528	0.457167
H341	H	0.131667	-0.997211	0.428105
H342	H	0.186229	-0.975857	0.441544
C343	C	0.267187	-1.102608	0.477604
C344	C	0.224934	-1.078887	0.441910
H345	H	0.303500	-1.141072	0.468192
H346	H	0.242749	-1.114128	0.524243
H347	H	0.283979	-1.068709	0.464581
H348	H	0.208136	-1.112783	0.454939
H349	H	0.249371	-1.067374	0.395273
O350	O	-0.132497	-0.847351	0.635713
C351	C	-0.178572	-0.857238	0.701541
H352	H	-0.228534	-0.814906	0.701329
H353	H	-0.186071	-0.907174	0.721613
C354	C	-0.089917	-0.909760	0.746879
C355	C	-0.151279	-0.857764	0.746619
H356	H	-0.073081	-0.910088	0.774687
H357	H	-0.058875	-0.903102	0.702530
H358	H	-0.096174	-0.951368	0.763604
H359	H	-0.145020	-0.816157	0.729887
H360	H	-0.182320	-0.864415	0.790967
O361	O	-0.270179	-0.688277	0.455450
C362	C	-0.224107	-0.678423	0.389621
H363	H	-0.174135	-0.686316	0.389844
H364	H	-0.216632	-0.715756	0.369516
C365	C	-0.312757	-0.596872	0.344298
C366	C	-0.251382	-0.606561	0.344570
H367	H	-0.329582	-0.552545	0.316507
H368	H	-0.343798	-0.603512	0.388648
H369	H	-0.306520	-0.627987	0.327546
H370	H	-0.257622	-0.575451	0.361330
H371	H	-0.220343	-0.599914	0.300222
O372	O	-0.093933	-1.033396	0.611352
C373	C	-0.076430	-1.073998	0.575825
H374	H	-0.046038	-1.052943	0.521313
H375	H	-0.045226	-1.127181	0.599196
C376	C	-0.177845	-1.100808	0.646036
C377	C	-0.140522	-1.074944	0.579082
H378	H	-0.217378	-1.101395	0.648048
H379	H	-0.189636	-1.073456	0.669974
H380	H	-0.151834	-1.145125	0.665505
H381	H	-0.166529	-1.030625	0.559618
H382	H	-0.128736	-1.102289	0.555142
H383	H	-0.137547	-0.737181	0.420520
H384	H	-0.265127	-0.798479	0.670643
