data_functionalizedCrystal
_audit_creation_method	'MofGen! by Chris Wilmer'
_symmetry_space_group_name_H-M	'P1'
_symmetry_Int_Tables_number	1
_symmetry_cell_setting	triclinic
loop_
_symmetry_equiv_pos_as_xyz
  x,y,z
_cell_length_a	10.654550
_cell_length_b	9.130313
_cell_length_c	10.654551
_cell_angle_alpha	90.002754
_cell_angle_beta	84.485180
_cell_angle_gamma	90.000276
loop_
_atom_site_label
_atom_site_type_symbol
_atom_site_fract_x
_atom_site_fract_y
_atom_site_fract_z
O1	O	1.667840	0.121684	0.176399
O2	O	2.167840	0.621684	0.676399
O3	O	1.302362	0.121710	0.193205
O4	O	1.802362	0.621710	0.693205
O5	O	1.493503	0.121693	0.002063
O6	O	1.993503	0.621693	0.502063
O7	O	1.476699	0.121701	0.367541
O8	O	1.976699	0.621701	0.867541
O9	O	1.493490	-0.121906	0.002057
O10	O	1.993490	0.378094	0.502057
O11	O	1.302349	-0.121889	0.193199
O12	O	1.802349	0.378111	0.693199
O13	O	1.667827	-0.121915	0.176393
O14	O	2.167827	0.378085	0.676393
Cu15	Cu	1.485087	-0.144144	0.184796
Cu16	Cu	1.985087	0.355856	0.684796
Cu17	Cu	1.485102	0.143939	0.184802
Cu18	Cu	1.985102	0.643939	0.684802
O19	O	1.476686	-0.121898	0.367535
O20	O	1.976686	0.378102	0.867535
C21	C	1.255557	-0.000086	0.191968
C22	C	1.755557	0.499914	0.691968
C23	C	1.116114	-0.000076	0.188276
C24	C	1.616114	0.499924	0.688276
N25	N	1.485085	-0.346767	0.184790
N26	N	1.985085	0.153233	0.684790
C27	C	1.036629	-0.000078	0.300818
C28	C	1.536629	0.499922	0.800818
C29	C	0.905608	-0.000103	0.297341
C30	C	1.405608	0.499897	0.797341
C31	C	0.933570	-0.000119	0.068772
C32	C	1.433570	0.499881	0.568772
C33	C	1.064589	-0.000104	0.072249
C34	C	1.564589	0.499896	0.572249
C35	C	1.569751	-0.423426	0.100188
C36	C	2.069751	0.076574	0.600188
C37	C	1.569763	-0.576763	0.100189
C38	C	2.069763	-0.076763	0.600189
C39	C	1.400439	-0.576768	0.269404
C40	C	1.900439	-0.076768	0.769404
C41	C	1.400421	-0.423434	0.269396
C42	C	1.900421	0.076566	0.769396
C43	C	1.714632	-0.000116	0.177630
C44	C	2.214632	0.499884	0.677630
C45	C	1.854075	-0.000116	0.181322
C46	C	2.354075	0.499884	0.681322
C47	C	1.492262	-0.000104	-0.044738
C48	C	1.992262	0.499896	0.455262
C49	C	1.488570	-0.000097	-0.184181
C50	C	1.988570	0.499903	0.315819
N51	N	1.485114	0.346562	0.184798
N52	N	1.985114	0.846562	0.684798
C53	C	1.486844	0.132690	-0.249682
C54	C	1.986844	0.632690	0.250318
C55	C	1.483364	0.132692	-0.380702
C56	C	1.983364	0.632692	0.119298
C57	C	1.483341	-0.132893	-0.380710
C58	C	1.983341	0.367107	0.119290
C59	C	1.486812	-0.132893	-0.249691
C60	C	1.986812	0.367107	0.250309
C61	C	1.477926	-0.000098	0.414336
C62	C	1.977926	0.499902	0.914336
C63	C	1.481619	-0.000095	0.553779
C64	C	1.981619	0.499905	1.053779
H65	H	1.078576	-0.000066	0.395294
H66	H	1.578576	0.499934	0.895294
H67	H	0.840896	-0.000108	0.388984
H68	H	1.340896	0.499892	0.888984
H69	H	0.891602	-0.000151	-0.025693
H70	H	1.391602	0.499849	0.474307
H71	H	1.638687	-0.361008	0.031295
H72	H	2.138687	0.138992	0.531295
H73	H	1.129309	-0.000106	-0.019401
H74	H	1.629309	0.499894	0.480599
H75	H	1.481912	-0.241011	-0.434065
H76	H	1.981912	0.258989	0.065935
H77	H	1.481956	0.240821	-0.434027
H78	H	1.981956	0.740821	0.065973
H79	H	1.638704	-0.639175	0.031297
H80	H	2.138704	-0.139175	0.531297
H81	H	1.488272	0.240822	-0.196347
H82	H	1.988272	0.740822	0.303653
H83	H	1.331509	-0.639205	0.338290
H84	H	1.831509	-0.139205	0.838290
H85	H	1.488210	-0.241031	-0.196358
H86	H	1.988210	0.258969	0.303642
H87	H	1.331470	-0.361014	0.338290
H88	H	1.831470	0.138986	0.838290
