data_functionalizedCrystal
_audit_creation_method	'MofGen! by Chris Wilmer'
_symmetry_space_group_name_H-M	'P1'
_symmetry_Int_Tables_number	1
_symmetry_cell_setting	triclinic
loop_
_symmetry_equiv_pos_as_xyz
  x,y,z
_cell_length_a	8.559649
_cell_length_b	9.065218
_cell_length_c	7.088638
_cell_angle_alpha	83.694087
_cell_angle_beta	84.666224
_cell_angle_gamma	102.602725
loop_
_atom_site_label
_atom_site_type_symbol
_atom_site_fract_x
_atom_site_fract_y
_atom_site_fract_z
O1	O	2.135558	0.066954	-0.158964
O2	O	2.635558	0.566954	0.341036
O3	O	1.671456	-0.009111	-0.158972
O4	O	2.171456	0.490889	0.341028
O5	O	1.913099	0.244769	-0.158964
O6	O	2.413099	0.744769	0.341036
O7	O	1.893914	-0.186926	-0.158972
O8	O	2.393914	0.313074	0.341028
O9	O	1.880766	0.210793	0.159025
O10	O	2.380766	0.710793	0.659025
O11	O	1.639122	-0.043087	0.159017
O12	O	2.139122	0.456913	0.659017
O13	O	2.103224	0.032978	0.159025
O14	O	2.603224	0.532978	0.659025
Cu15	Cu	1.868221	-0.008157	0.188056
Cu16	Cu	2.368221	0.491843	0.688056
Cu17	Cu	1.906459	0.032024	-0.188003
Cu18	Cu	2.406459	0.532024	0.311997
O19	O	1.861581	-0.220902	0.159017
O20	O	2.361581	0.279098	0.659017
C21	C	1.595843	-0.031863	0.000022
C22	C	2.095843	0.468137	0.500022
C23	C	1.418711	-0.049022	0.000018
C24	C	1.918711	0.450978	0.500018
C25	C	1.895089	0.282536	0.000027
C26	C	2.395089	0.782536	0.500027
C27	C	1.889577	0.445687	0.000018
C28	C	2.389577	0.945687	0.500018
N29	N	1.841338	-0.036416	0.452555
N30	N	2.341338	0.463584	0.952555
C31	C	2.178838	0.055731	0.000027
C32	C	2.678838	0.555731	0.500027
C33	C	2.355971	0.072890	0.000018
C34	C	2.855971	0.572890	0.500018
C35	C	1.879591	-0.258669	0.000021
C36	C	2.379591	0.241331	0.500021
C37	C	1.885105	-0.421819	0.000018
C38	C	2.385105	0.078181	0.500018
N39	N	1.933355	0.060296	-0.452502
N40	N	2.433355	0.560296	0.047498
H41	H	1.437768	0.190392	0.000011
H42	H	1.937768	0.690392	0.500011
O43	O	1.320895	-0.189110	0.000093
O44	O	1.820895	0.310890	0.500093
C45	C	1.159884	-0.175636	0.000033
C46	C	1.659884	0.324364	0.500033
H47	H	1.145857	-0.067064	0.060238
H48	H	1.645857	0.432936	0.560238
H49	H	1.076232	-0.278634	0.092345
H50	H	1.576232	0.221366	0.592345
H51	H	1.127363	-0.170315	-0.152527
H52	H	1.627363	0.329685	0.347473
H53	H	1.746010	-0.136615	0.534242
H54	H	2.246010	0.363385	1.034242
H55	H	2.028677	0.160511	0.465801
H56	H	2.528677	0.660511	0.965801
