data_functionalizedCrystal
_audit_creation_method	'MofGen! by Chris Wilmer'
_symmetry_space_group_name_H-M	'P1'
_symmetry_Int_Tables_number	1
_symmetry_cell_setting	triclinic
loop_
_symmetry_equiv_pos_as_xyz
  x,y,z
_cell_length_a	16.109301
_cell_length_b	15.186229
_cell_length_c	15.944499
_cell_angle_alpha	89.995799
_cell_angle_beta	96.530455
_cell_angle_gamma	90.000638
loop_
_atom_site_label
_atom_site_type_symbol
_atom_site_fract_x
_atom_site_fract_y
_atom_site_fract_z
O1	O	-1.103146	-0.073174	0.107969
O2	O	-0.603146	0.426826	0.607969
O3	O	-0.861086	-0.073188	0.121405
O4	O	-0.361086	0.426812	0.621405
O5	O	-0.988748	-0.073174	-0.007593
O6	O	-0.488748	0.426826	0.492407
O7	O	-0.975483	-0.073188	0.236967
O8	O	-0.475483	0.426812	0.736967
O9	O	-0.988740	0.073284	-0.007595
O10	O	-0.488740	0.573284	0.492405
O11	O	-0.861077	0.073269	0.121404
O12	O	-0.361077	0.573269	0.621404
O13	O	-1.103137	0.073283	0.107967
O14	O	-0.603137	0.573283	0.607967
Zn15	Zn	-0.982106	0.096530	0.114685
Zn16	Zn	-0.482106	0.596530	0.614685
Zn17	Zn	-0.982117	-0.096434	0.114687
Zn18	Zn	-0.482117	0.403566	0.614687
O19	O	-0.975475	0.073269	0.236965
O20	O	-0.475475	0.573269	0.736965
C21	C	-0.830106	0.000039	0.120860
C22	C	-0.330106	0.500039	0.620860
C23	C	-0.737811	0.000034	0.119228
C24	C	-0.237811	0.500034	0.619228
C25	C	-0.988201	0.000055	-0.038888
C26	C	-0.488201	0.500055	0.461112
C27	C	-0.986573	0.000054	-0.132136
C28	C	-0.486573	0.500054	0.367864
N29	N	-0.982104	0.228222	0.114683
N30	N	-0.482104	0.728222	0.614683
C31	C	-1.134116	0.000055	0.108512
C32	C	-0.634116	0.500055	0.608512
C33	C	-1.226412	0.000054	0.110144
C34	C	-0.726412	0.500054	0.610144
C35	C	-0.515549	0.000040	0.191979
C36	C	-0.015549	0.500040	0.691979
C37	C	-0.428828	0.000045	0.190439
C38	C	0.071172	0.500045	0.690439
C39	C	-0.448681	0.000051	0.037387
C40	C	0.051319	0.500051	0.537387
C41	C	-0.535400	0.000051	0.038928
C42	C	-0.035400	0.500051	0.538928
C43	C	-0.568831	0.000041	0.116226
C44	C	-0.068831	0.500041	0.616226
C45	C	-0.395392	0.000047	0.113146
C46	C	0.104608	0.500047	0.613146
C47	C	-0.301365	0.000053	0.111476
C48	C	0.198635	0.500053	0.611476
C49	C	-0.662863	0.000037	0.117897
C50	C	-0.162863	0.500037	0.617897
N51	N	-0.982125	-0.228127	0.114683
N52	N	-0.482125	0.271873	0.614683
C53	C	-1.038652	0.453951	0.057582
C54	C	-0.538652	0.953951	0.557582
C55	C	-1.038655	0.546141	0.057580
C56	C	-0.538655	1.046141	0.557580
C57	C	-0.925571	0.546138	0.171787
C58	C	-0.425571	1.046138	0.671787
C59	C	-0.925565	0.453950	0.171784
C60	C	-0.425565	0.953950	0.671784
C61	C	-0.982110	0.407859	0.114683
C62	C	-0.482110	0.907859	0.614683
C63	C	-0.982119	0.592237	0.114683
C64	C	-0.482119	1.092237	0.614683
C65	C	-0.982121	0.692193	0.114682
C66	C	-0.482121	1.192193	0.614682
C67	C	-0.982107	0.307896	0.114683
C68	C	-0.482107	0.807896	0.614683
C69	C	-0.976022	0.000039	0.268261
C70	C	-0.476022	0.500039	0.768261
C71	C	-0.977650	0.000033	0.361509
C72	C	-0.477650	0.500033	0.861509
C73	C	-0.903482	0.000038	0.653069
C74	C	-0.403482	0.500038	1.153069
C75	C	-0.942032	0.072254	0.592026
C76	C	-0.442032	0.572254	1.092026
C77	C	-0.983565	0.000049	0.697143
C78	C	-0.483565	0.500049	1.197143
C79	C	-0.942062	-0.072142	0.592042
C80	C	-0.442062	0.427858	1.092042
C81	C	-0.980655	0.000040	0.532235
C82	C	-0.480655	0.500040	1.032235
C83	C	-1.022138	0.072324	0.637329
C84	C	-0.522138	0.572324	1.137329
C85	C	-1.022157	-0.072136	0.637351
C86	C	-0.522157	0.427864	1.137351
C87	C	-1.060766	0.000098	0.576325
C88	C	-0.560766	0.500098	1.076325
C89	C	-0.985240	0.000055	0.792143
C90	C	-0.485240	0.500055	1.292143
C91	C	-0.978987	0.000040	0.437237
C92	C	-0.478987	0.500040	0.937237
H93	H	-0.385448	0.000046	0.252125
H94	H	0.114552	0.500046	0.752125
H95	H	-0.879534	0.583674	0.218279
H96	H	-0.379534	1.083674	0.718279
H97	H	-0.908184	-0.133198	0.571989
H98	H	-0.408184	0.366802	1.071989
O99	O	-1.140070	0.000085	0.536583
O100	O	-0.640070	0.500085	1.036583
C101	C	-1.227595	-0.000574	0.403558
C102	C	-0.727595	0.499426	0.903558
C103	C	-1.137740	-0.000571	0.448453
C104	C	-0.637740	0.499429	0.948453
H105	H	-1.225741	-0.001086	0.332298
H106	H	-0.725741	0.498914	0.832298
H107	H	-1.261986	-0.061575	0.422957
H108	H	-0.761986	0.438425	0.922957
H109	H	-1.261582	0.061006	0.422193
H110	H	-0.761582	0.561006	0.922193
H111	H	-1.103682	-0.062110	0.429841
H112	H	-0.603682	0.437890	0.929841
H113	H	-1.103412	0.060470	0.429053
H114	H	-0.603412	0.560470	0.929053
H115	H	-0.542765	0.000038	0.254921
H116	H	-0.042765	0.500038	0.754921
H117	H	-1.055978	0.133444	0.657295
H118	H	-0.555978	0.633444	1.157295
H119	H	-1.084694	0.416427	0.011085
H120	H	-0.584694	0.916427	0.511085
O121	O	-1.062417	-0.145056	0.661322
O122	O	-0.562417	0.354944	1.161322
C123	C	-1.065752	-0.303615	0.665659
C124	C	-0.565752	0.196385	1.165659
C125	C	-1.020075	-0.221098	0.638480
C126	C	-0.520075	0.278902	1.138480
H127	H	-1.031548	-0.365116	0.647186
H128	H	-0.531548	0.134884	1.147186
H129	H	-1.067131	-0.302622	0.736981
H130	H	-0.567131	0.197378	1.236981
H131	H	-1.132439	-0.304188	0.632875
H132	H	-0.632439	0.195812	1.132875
H133	H	-0.953369	-0.220471	0.671205
H134	H	-0.453369	0.279529	1.171205
H135	H	-1.018764	-0.222123	0.567150
H136	H	-0.518764	0.277877	1.067150
O137	O	-0.901676	0.145053	0.567910
O138	O	-0.401676	0.645053	1.067910
C139	C	-0.855490	0.226934	0.452345
C140	C	-0.355490	0.726934	0.952345
C141	C	-0.901237	0.144468	0.479533
C142	C	-0.401237	0.644468	0.979533
H143	H	-0.855105	0.226479	0.380893
H144	H	-0.355105	0.726479	0.880893
H145	H	-0.888979	0.288508	0.471796
H146	H	-0.388979	0.788508	0.971796
H147	H	-0.788460	0.226835	0.484236
H148	H	-0.288460	0.726835	0.984236
H149	H	-0.968269	0.144481	0.447655
H150	H	-0.468269	0.644481	0.947655
H151	H	-0.867683	0.082932	0.460097
H152	H	-0.367683	0.582932	0.960097
H153	H	-0.879518	0.416419	0.218283
H154	H	-0.379518	0.916419	0.718283
H155	H	-0.421450	0.000064	-0.025546
H156	H	0.078550	0.500064	0.474454
H157	H	-0.578785	0.000055	-0.022763
H158	H	-0.078785	0.500055	0.477237
H159	H	-1.084696	0.583667	0.011082
H160	H	-0.584696	1.083667	0.511082
H161	H	-0.837021	0.000104	0.686423
H162	H	-0.337021	0.500104	1.186423
