data_functionalizedCrystal
_audit_creation_method	'MofGen! by Chris Wilmer'
_symmetry_space_group_name_H-M	'P1'
_symmetry_Int_Tables_number	1
_symmetry_cell_setting	triclinic
loop_
_symmetry_equiv_pos_as_xyz
  x,y,z
_cell_length_a	16.109295
_cell_length_b	16.053802
_cell_length_c	16.109304
_cell_angle_alpha	87.432363
_cell_angle_beta	96.539088
_cell_angle_gamma	87.422496
loop_
_atom_site_label
_atom_site_type_symbol
_atom_site_fract_x
_atom_site_fract_y
_atom_site_fract_z
O1	O	-1.106641	0.069367	0.103346
O2	O	-0.606641	0.569367	0.603346
O3	O	-0.864579	0.069381	0.116650
O4	O	-0.364579	0.569381	0.616650
O5	O	-0.992259	0.069374	-0.011033
O6	O	-0.492259	0.569374	0.488967
O7	O	-0.978962	0.069374	0.231029
O8	O	-0.478962	0.569374	0.731029
O9	O	-0.985231	-0.069485	-0.004034
O10	O	-0.485231	0.430515	0.495966
O11	O	-0.857552	-0.069478	0.123649
O12	O	-0.357552	0.430522	0.623649
O13	O	-1.099613	-0.069491	0.110345
O14	O	-0.599613	0.430509	0.610345
Zn15	Zn	-0.977467	-0.091531	0.118108
Zn16	Zn	-0.477467	0.408469	0.618108
Zn17	Zn	-0.986726	0.091421	0.108887
Zn18	Zn	-0.486726	0.591421	0.608887
O19	O	-0.971934	-0.069485	0.238028
O20	O	-0.471934	0.430515	0.738028
C21	C	-0.830091	-0.000047	0.119611
C22	C	-0.330091	0.499953	0.619611
C23	C	-0.737795	-0.000042	0.117998
C24	C	-0.237795	0.499958	0.617998
N25	N	-0.971153	-0.216391	0.124401
N26	N	-0.471153	0.283609	0.624401
C27	C	-0.515523	-0.000050	0.190010
C28	C	-0.015523	0.499950	0.690010
C29	C	-0.428802	-0.000055	0.188488
C30	C	0.071198	0.499945	0.688488
C31	C	-0.448675	-0.000052	0.036999
C32	C	0.051325	0.499948	0.536999
C33	C	-0.535394	-0.000053	0.038522
C34	C	-0.035394	0.499947	0.538522
C35	C	-0.568815	-0.000048	0.115030
C36	C	-0.068815	0.499952	0.615030
C37	C	-0.395375	-0.000052	0.111985
C38	C	0.104625	0.499948	0.611985
C39	C	-0.301349	-0.000057	0.110334
C40	C	0.198651	0.499943	0.610334
C41	C	-0.662848	-0.000044	0.116681
C42	C	-0.162848	0.499956	0.616681
C43	C	-1.025501	-0.260088	0.070092
C44	C	-0.525501	0.239912	0.570092
C45	C	-1.021092	-0.347495	0.074501
C46	C	-0.521092	0.152505	0.574501
C47	C	-0.962340	-0.391203	0.133226
C48	C	-0.462340	0.108797	0.633226
C49	C	-0.907986	-0.347500	0.187538
C50	C	-0.407986	0.152500	0.687538
C51	C	-0.912392	-0.260095	0.183124
C52	C	-0.412392	0.239905	0.683124
C53	C	-0.943098	-0.652612	0.152485
C54	C	-0.443098	-0.152612	0.652485
C55	C	-0.938698	-0.740023	0.156897
C56	C	-0.438698	-0.240023	0.656897
C57	C	-1.051804	-0.740011	0.043859
C58	C	-0.551804	-0.240011	0.543859
C59	C	-1.056207	-0.652605	0.039453
C60	C	-0.556207	-0.152605	0.539453
C61	C	-1.001851	-0.608909	0.093762
C62	C	-0.501851	-0.108909	0.593762
N63	N	-0.957834	-0.480546	0.137737
N64	N	-0.457834	0.019454	0.637737
N65	N	-1.006353	-0.519568	0.089247
N66	N	-0.506353	-0.019568	0.589247
C67	C	-0.134102	-0.000061	0.107389
C68	C	0.365898	0.499939	0.607389
C69	C	-0.226395	-0.000058	0.109017
C70	C	0.273605	0.499942	0.609017
C71	C	-0.988206	-0.000053	-0.038508
C72	C	-0.488206	0.499947	0.461492
C73	C	-0.986590	-0.000048	-0.130804
C74	C	-0.486590	0.499952	0.369196
N75	N	-0.993046	0.216281	0.102587
N76	N	-0.493046	0.716281	0.602587
C77	C	-0.986687	0.075641	-0.346956
C78	C	-0.486687	0.575641	0.153044
C79	C	-0.985161	0.075641	-0.433676
C80	C	-0.485161	0.575641	0.066324
C81	C	-0.977503	-0.075751	-0.426042
C82	C	-0.477503	0.424249	0.073958
C83	C	-0.979023	-0.075749	-0.339323
C84	C	-0.479023	0.424251	0.160677
C85	C	-0.983620	-0.000051	-0.299783
C86	C	-0.483620	0.499949	0.200217
C87	C	-0.980573	-0.000053	-0.473222
C88	C	-0.480573	0.499947	0.026778
C89	C	-0.978919	-0.000054	-0.567248
C90	C	-0.478919	0.499946	-0.067248
C91	C	-0.985273	-0.000049	-0.205751
C92	C	-0.485273	0.499951	0.294249
C93	C	-0.975987	-0.000056	0.265503
C94	C	-0.475987	0.499944	0.765503
C95	C	-0.977603	-0.000056	0.357799
C96	C	-0.477603	0.499944	0.857799
H97	H	-0.385414	-0.000059	0.249545
H98	H	0.114586	0.499941	0.749545
H99	H	-0.987657	0.137277	-0.472081
H100	H	-0.487657	0.637277	0.027919
C101	C	-0.874768	-0.787440	0.220551
C102	C	-0.374768	-0.287440	0.720551
C103	C	-0.794148	-0.766219	0.205945
C104	C	-0.294148	-0.266219	0.705945
C105	C	-0.735238	-0.809894	0.264554
C106	C	-0.235238	-0.309894	0.764554
H107	H	-0.884374	-0.773149	0.275362
H108	H	-0.384374	-0.273149	0.775362
H109	H	-0.879880	-0.845760	0.215393
H110	H	-0.379880	-0.345760	0.715393
H111	H	-0.789039	-0.707912	0.211110
H112	H	-0.289039	-0.207912	0.711110
H113	H	-0.784515	-0.780512	0.151145
H114	H	-0.284515	-0.280512	0.651145
H115	H	-0.740350	-0.868214	0.259396
H116	H	-0.240350	-0.368214	0.759396
H117	H	-0.744853	-0.795600	0.319361
H118	H	-0.244853	-0.295600	0.819361
H119	H	-0.680531	-0.795508	0.254646
H120	H	-0.180531	-0.295508	0.754646
H121	H	-0.898840	-0.617042	0.196708
H122	H	-0.398840	-0.117042	0.696708
C123	C	-0.412546	-0.000087	-0.046146
C124	C	0.087454	0.499913	0.453854
C125	C	-0.477780	-0.000107	-0.111484
C126	C	0.022220	0.499893	0.388516
C127	C	-0.444532	-0.000146	-0.188090
C128	C	0.055468	0.499854	0.311910
H129	H	-0.381592	0.048325	-0.052444
H130	H	0.118408	0.548325	0.447556
H131	H	-0.376702	-0.048527	-0.047498
H132	H	0.123298	0.451473	0.452502
H133	H	-0.513610	0.048328	-0.110134
H134	H	-0.013610	0.548328	0.389866
H135	H	-0.508740	-0.048515	-0.105214
H136	H	-0.008740	0.451485	0.394786
H137	H	-0.408689	-0.048586	-0.189441
H138	H	0.091311	0.451414	0.310559
H139	H	-0.413579	0.048267	-0.194379
H140	H	0.086421	0.548267	0.305621
H141	H	-0.488788	-0.000167	-0.232431
H142	H	0.011212	0.499833	0.267569
H143	H	-0.578787	-0.000053	-0.022539
H144	H	-0.078787	0.499947	0.477461
C145	C	-0.991521	0.157768	-0.303904
C146	C	-0.491521	0.657768	0.196096
C147	C	-0.921135	0.162174	-0.244959
C148	C	-0.421135	0.662174	0.255041
C149	C	-0.925555	0.237816	-0.205281
C150	C	-0.425555	0.737816	0.294719
H151	H	-0.993085	0.202912	-0.344330
H152	H	-0.493085	0.702912	0.155670
H153	H	-1.040700	0.160940	-0.276532
H154	H	-0.540700	0.660940	0.223468
H155	H	-0.871969	0.159010	-0.272330
H156	H	-0.371969	0.659010	0.227670
H157	H	-0.919557	0.117048	-0.204517
H158	H	-0.419557	0.617048	0.295483
H159	H	-0.974734	0.240988	-0.177909
H160	H	-0.474734	0.740988	0.322091
H161	H	-0.927120	0.282953	-0.245712
H162	H	-0.427120	0.782953	0.254288
H163	H	-0.877803	0.240812	-0.165277
H164	H	-0.377803	0.740812	0.334723
H165	H	-0.542731	-0.000053	0.252308
H166	H	-0.042731	0.499947	0.752308
C167	C	-0.972571	-0.157847	-0.469135
C168	C	-0.472571	0.342153	0.030865
C169	C	-0.971923	-0.141650	-0.555181
C170	C	-0.471923	0.358350	-0.055181
C171	C	-0.967396	-0.217258	-0.594905
C172	C	-0.467396	0.282742	-0.094905
H173	H	-0.922802	-0.189014	-0.447103
H174	H	-0.422802	0.310986	0.052897
H175	H	-1.019722	-0.188951	-0.459757
H176	H	-0.519722	0.311049	0.040243
H177	H	-0.924776	-0.110559	-0.564554
H178	H	-0.424776	0.389441	-0.064554
H179	H	-1.021686	-0.110495	-0.577237
H180	H	-0.521686	0.389505	-0.077237
H181	H	-1.014547	-0.248363	-0.585526
H182	H	-0.514547	0.251637	-0.085526
H183	H	-0.917627	-0.248420	-0.572866
H184	H	-0.417627	0.251580	-0.072866
H185	H	-0.966963	-0.206279	-0.653292
H186	H	-0.466963	0.293721	-0.153292
C187	C	-0.975558	-0.157996	-0.288185
C188	C	-0.475558	0.342004	0.211815
C189	C	-0.901402	-0.203671	-0.297618
C190	C	-0.401402	0.296329	0.202382
C191	C	-0.898182	-0.279441	-0.250530
C192	C	-0.398182	0.220559	0.249470
H193	H	-0.977069	-0.147270	-0.230851
H194	H	-0.477069	0.352730	0.269149
H195	H	-1.022162	-0.189146	-0.307192
H196	H	-0.522162	0.310854	0.192808
H197	H	-0.854810	-0.172527	-0.278606
H198	H	-0.354810	0.327473	0.221394
H199	H	-0.899874	-0.214419	-0.354941
H200	H	-0.399874	0.285581	0.145059
H201	H	-0.944786	-0.310591	-0.269538
H202	H	-0.444786	0.189409	0.230462
H203	H	-0.899696	-0.268706	-0.193199
H204	H	-0.399696	0.231294	0.306801
H205	H	-0.847872	-0.310444	-0.256930
H206	H	-0.347872	0.189556	0.243070
H207	H	-1.073347	-0.224507	0.022275
H208	H	-0.573347	0.275493	0.522275
H209	H	-1.065346	-0.383072	0.030278
H210	H	-0.565346	0.116928	0.530278
C211	C	-1.120023	-0.605303	-0.024395
C212	C	-0.620023	-0.105303	0.475605
C213	C	-1.166662	-0.662280	-0.071029
C214	C	-0.666662	-0.162280	0.428971
C215	C	-1.225452	-0.618737	-0.129859
C216	C	-0.725452	-0.118737	0.370141
H217	H	-1.156419	-0.571194	0.003705
H218	H	-0.656419	-0.071194	0.503705
H219	H	-1.091865	-0.571234	-0.060779
H220	H	-0.591865	-0.071234	0.439221
H221	H	-1.194819	-0.696335	-0.034650
H222	H	-0.694819	-0.196335	0.465350
H223	H	-1.130289	-0.696392	-0.099147
H224	H	-0.630289	-0.196392	0.400853
H225	H	-1.197293	-0.584668	-0.166244
H226	H	-0.697293	-0.084668	0.333756
H227	H	-1.261841	-0.584629	-0.101752
H228	H	-0.761841	-0.084629	0.398248
H229	H	-1.257098	-0.657389	-0.161513
H230	H	-0.757098	-0.157389	0.338487
H231	H	-1.096057	-0.775596	-0.000358
H232	H	-0.596057	-0.275596	0.499642
H233	H	-0.860145	-0.383092	0.235350
H234	H	-0.360145	0.116908	0.735350
H235	H	-0.868135	-0.224518	0.227347
H236	H	-0.368135	0.275482	0.727347
