data_functionalizedCrystal
_audit_creation_method	'MofGen! by Chris Wilmer'
_symmetry_space_group_name_H-M	'P1'
_symmetry_Int_Tables_number	1
_symmetry_cell_setting	triclinic
loop_
_symmetry_equiv_pos_as_xyz
  x,y,z
_cell_length_a	16.992694
_cell_length_b	11.792241
_cell_length_c	15.455313
_cell_angle_alpha	92.683265
_cell_angle_beta	87.142206
_cell_angle_gamma	87.430819
loop_
_atom_site_label
_atom_site_type_symbol
_atom_site_fract_x
_atom_site_fract_y
_atom_site_fract_z
O1	O	1.044827	0.236106	-0.072022
O2	O	0.816531	0.233463	-0.072048
O3	O	0.936219	0.070068	-0.072029
O4	O	0.925139	0.399501	-0.072042
O5	O	0.929374	0.079370	0.072232
O6	O	0.809687	0.242766	0.072213
O7	O	1.037982	0.245409	0.072239
Cu8	Cu	0.923210	0.244937	0.085398
Cu9	Cu	0.931304	0.233935	-0.085207
O10	O	0.918295	0.408804	0.072219
C11	C	0.783882	0.234716	0.000079
C12	C	0.696795	0.224578	0.000070
C13	C	0.932101	0.032371	0.000102
C14	C	0.930017	-0.093813	0.000101
C15	C	0.646971	0.322395	0.000066
C16	C	0.565143	0.312864	0.000079
C17	C	0.533142	0.205513	0.000088
C18	C	0.582973	0.107688	0.000094
C19	C	0.664799	0.117221	0.000088
C20	C	0.289375	0.166002	0.000113
C21	C	0.207543	0.156476	0.000117
C22	C	0.189719	0.361652	0.000103
C23	C	0.271548	0.371176	0.000091
C24	C	0.321371	0.273351	0.000102
N25	N	0.449501	0.195767	0.000098
N26	N	0.405010	0.283098	0.000098
C27	C	0.926187	-0.324840	0.000086
C28	C	0.928315	-0.196280	0.000094
C29	C	1.070631	0.244155	0.000109
C30	C	1.157718	0.254293	0.000113
C31	C	0.922413	0.446501	0.000087
C32	C	0.924497	0.572684	0.000082
N33	N	0.917522	0.252674	0.205393
N34	N	0.936998	0.226189	-0.205202
C35	C	0.968388	0.183287	0.250795
C36	C	0.964094	0.189150	0.341602
C37	C	0.908938	0.264406	0.387005
C38	C	0.858067	0.333796	0.341597
C39	C	0.862358	0.327927	0.250791
C40	C	0.890417	0.289710	0.658584
C41	C	0.886132	0.295576	0.749396
C42	C	0.992158	0.150928	0.749395
C43	C	0.996447	0.145070	0.658588
C44	C	0.945574	0.214455	0.613187
N45	N	0.904549	0.270403	0.479825
N46	N	0.949959	0.208452	0.520369
H47	H	0.673020	0.409812	0.000058
O48	O	0.337849	0.071050	-0.000003
C49	C	0.389234	0.065587	-0.074731
H50	H	0.394940	0.154478	-0.099641
H51	H	0.364567	0.007924	-0.127047
C52	C	0.463972	-0.091742	-0.021447
C53	C	0.470985	0.017437	-0.052037
H54	H	0.514399	-0.121448	-0.007451
H55	H	0.429351	-0.088065	0.028898
H56	H	0.443413	-0.139781	-0.065049
H57	H	0.491534	0.065477	-0.008433
H58	H	0.505611	0.013767	-0.102374
O59	O	0.832473	0.368700	0.793367
C60	C	0.788499	0.428698	0.733825
H61	H	0.790480	0.377888	0.669099
H62	H	0.814766	0.514762	0.724157
C63	C	0.699875	0.509021	0.848776
C64	C	0.702302	0.446610	0.769280
H65	H	0.646705	0.520076	0.870647
H66	H	0.729502	0.468603	0.888891
H67	H	0.721768	0.580734	0.840708
H68	H	0.680419	0.374894	0.777351
H69	H	0.672669	0.487017	0.729166
H70	H	0.705366	0.037568	0.000090
O71	O	1.013595	0.121716	0.385571
C72	C	1.063191	0.054026	0.326026
H73	H	1.067321	0.096473	0.261289
H74	H	1.037837	-0.033286	0.316386
C75	C	1.140965	-0.011444	0.440962
C76	C	1.146042	0.040695	0.361453
H77	H	1.192071	-0.019672	0.462815
H78	H	1.107550	0.034156	0.481080
H79	H	1.119834	-0.084199	0.432918
H80	H	1.167164	0.113454	0.369499
H81	H	1.179463	-0.004893	0.321337
O82	O	0.841121	0.357177	0.614398
C83	C	0.885907	0.427697	0.561878
H84	H	0.947732	0.387204	0.548261
H85	H	0.889948	0.514353	0.596872
C86	C	0.769921	0.492103	0.492357
C87	C	0.845854	0.442364	0.475626
H88	H	0.745213	0.501155	0.439155
H89	H	0.739747	0.444596	0.527743
H90	H	0.773299	0.564311	0.521521
H91	H	0.842474	0.370151	0.446473
H92	H	0.876026	0.489859	0.440234
O93	O	0.812914	0.395449	0.206819
C94	C	0.763299	0.463112	0.266362
H95	H	0.792404	0.471525	0.331086
H96	H	0.704420	0.421534	0.276034
C97	C	0.713573	0.571493	0.151411
C98	C	0.749324	0.581834	0.230905
H99	H	0.704949	0.644725	0.129539
H100	H	0.746997	0.525905	0.111295
H101	H	0.664511	0.536840	0.159482
H102	H	0.798389	0.616474	0.222831
H103	H	0.715907	0.627432	0.271019
O104	O	1.021847	0.110073	0.206618
C105	C	0.981996	0.032772	0.154152
H106	H	0.921470	0.071538	0.140530
H107	H	0.974618	-0.049335	0.189195
C108	C	1.104531	-0.040736	0.084635
C109	C	1.030194	0.006881	0.067899
H110	H	1.134262	-0.056711	0.031431
H111	H	1.131380	0.011341	0.119985
H112	H	1.098372	-0.109152	0.113840
H113	H	1.036353	0.075303	0.038705
H114	H	1.003347	-0.045184	0.032542
H115	H	0.813154	0.395068	0.378569
O116	O	1.050046	0.071862	0.614620
C117	C	1.094035	0.011895	0.674167
H118	H	1.058814	0.011849	0.738901
H119	H	1.152002	0.054721	0.683811
C120	C	1.154620	-0.111345	0.559231
C121	C	1.111358	-0.111409	0.638737
H122	H	1.165309	-0.187403	0.537375
H123	H	1.124986	-0.070941	0.519112
H124	H	1.202921	-0.075651	0.567278
H125	H	1.063054	-0.147089	0.630686
H126	H	1.140984	-0.151821	0.678853
H127	H	0.149144	0.441295	0.000096
H128	H	0.524579	0.392517	0.000075
H129	H	0.297597	0.458591	0.000074
H130	H	0.556910	0.020282	0.000114
O131	O	0.176423	0.052206	-0.000022
C132	C	0.133144	0.035745	-0.074723
H133	H	0.155223	0.093452	-0.126952
H134	H	0.067937	0.057186	-0.057833
C135	C	0.117011	-0.160031	-0.044436
C136	C	0.144134	-0.089160	-0.108588
H137	H	0.123786	-0.237078	-0.065324
H138	H	0.146166	-0.148940	0.005893
H139	H	0.062674	-0.142150	-0.030367
H140	H	0.198472	-0.107032	-0.122648
H141	H	0.114988	-0.100257	-0.158921
H142	H	1.033576	0.094436	0.786369
