data_functionalizedCrystal
_audit_creation_method	'MofGen! by Chris Wilmer'
_symmetry_space_group_name_H-M	'P1'
_symmetry_Int_Tables_number	1
_symmetry_cell_setting	triclinic
loop_
_symmetry_equiv_pos_as_xyz
  x,y,z
_cell_length_a	14.395555
_cell_length_b	20.875621
_cell_length_c	20.875641
_cell_angle_alpha	87.033849
_cell_angle_beta	62.436829
_cell_angle_gamma	58.315653
loop_
_atom_site_label
_atom_site_type_symbol
_atom_site_fract_x
_atom_site_fract_y
_atom_site_fract_z
Zr1	Zr	1.004902	0.622049	-0.112398
O2	O	1.188733	0.523067	-0.206248
O3	O	0.814155	0.652394	-0.083622
O4	O	0.994215	0.657135	-0.212951
O5	O	1.019515	0.514586	0.025091
O6	O	0.993653	0.762888	-0.218247
O7	O	1.008673	0.518326	-0.076918
O8	O	0.671559	0.754408	0.013100
O9	O	1.341610	0.523066	-0.206256
O10	O	0.894754	0.744257	-0.075309
O11	O	0.903266	0.662542	0.004772
O12	O	1.115263	0.668124	-0.147497
O13	O	1.123774	0.586410	-0.067417
Zr14	Zr	1.021298	0.784748	0.041850
Zr15	Zr	1.004006	0.790714	-0.120844
Zr16	Zr	1.022195	0.616083	0.050295
Zr17	Zr	1.248723	0.622048	-0.112411
Zr18	Zr	0.777477	0.784750	0.041862
O19	O	1.212045	0.754404	0.013073
O20	O	1.187458	0.762887	-0.218257
O21	O	1.213320	0.514584	0.025081
O22	O	0.837468	0.883730	0.135699
O23	O	0.812880	0.892213	-0.095630
O24	O	0.838743	0.643911	0.147708
O25	O	1.006685	0.892212	-0.095640
O26	O	1.031986	0.749663	0.142403
O27	O	1.032548	0.643909	0.147698
O28	O	1.017528	0.888471	0.006370
O29	O	1.340897	0.657132	-0.212969
O30	O	0.685304	0.749665	0.142420
O31	O	0.684591	0.883731	0.135707
O32	O	0.670846	0.888473	0.006387
O33	O	1.355355	0.518324	-0.076936
O34	O	1.354642	0.652390	-0.083649
O35	O	0.910938	0.738673	0.076949
O36	O	0.902426	0.820388	-0.003132
O37	O	1.122935	0.744255	-0.075321
O38	O	1.131446	0.662541	0.004760
C39	C	0.708118	0.703401	-0.035259
C40	C	0.604609	0.703402	-0.035253
C41	C	0.486775	0.658837	0.008385
C42	C	0.475302	0.731945	0.034777
C43	C	0.617425	0.630306	-0.061611
C44	C	0.408696	0.776546	-0.008864
C45	C	0.550878	0.674855	-0.105289
C46	C	0.539356	0.748008	-0.078917
C47	C	1.014222	0.492425	-0.024710
C48	C	1.014603	0.420822	-0.021125
C49	C	1.008812	0.389244	-0.075640
C50	C	1.009163	0.321968	-0.072267
C51	C	1.015315	0.286268	-0.014382
C52	C	1.021102	0.317853	0.040138
C53	C	1.020741	0.385131	0.036768
C54	C	1.017025	0.084837	0.001726
C55	C	1.017389	0.017553	0.005091
C56	C	1.005448	0.021674	-0.107314
C57	C	1.005095	0.088951	-0.110682
C58	C	1.010876	0.120531	-0.056159
N59	N	1.015678	0.217500	-0.010935
N60	N	1.010503	0.189302	-0.059604
C61	C	1.318083	0.703396	-0.035290
C62	C	1.421591	0.703396	-0.035295
C63	C	0.991470	0.710862	-0.238779
C64	C	0.984129	0.713394	-0.307847
C65	C	1.011979	0.914372	-0.045839
C66	C	1.011598	0.985975	-0.049424
C67	C	1.095780	0.674845	-0.377977
C68	C	1.088875	0.677235	-0.442871
C69	C	0.970317	0.718170	-0.437634
C70	C	0.858657	0.756724	-0.367497
C71	C	0.865564	0.754338	-0.302604
C72	C	0.937318	0.729571	-0.627672
C73	C	0.930420	0.731952	-0.692572
C74	C	1.160639	0.652464	-0.767942
C75	C	1.167535	0.650078	-0.703045
C76	C	1.055875	0.688635	-0.632914
N77	N	0.963256	0.720612	-0.503965
N78	N	1.062938	0.686198	-0.566584
C79	C	1.034730	0.695936	0.168231
C80	C	1.042072	0.693403	0.237298
C81	C	0.706996	0.914375	-0.045823
C82	C	0.603107	0.985978	-0.049403
C83	C	0.729748	0.695938	0.168246
C84	C	0.633581	0.693406	0.237319
C85	C	0.728626	0.906912	0.157682
C86	C	0.632078	0.975982	0.223170
C87	C	1.297574	0.499886	-0.228231
C88	C	1.394122	0.430815	-0.293718
C89	C	1.319205	0.492423	-0.024726
C90	C	1.423094	0.420819	-0.021146
C91	C	1.296453	0.710859	-0.238795
C92	C	1.392620	0.713391	-0.307868
C93	C	0.550314	0.979864	-0.088767
C94	C	0.452711	1.047137	-0.092145
C95	C	0.407897	1.120523	-0.056156
C96	C	0.460699	1.126635	-0.016791
C97	C	0.558307	1.059363	-0.013417
C98	C	0.592425	0.731956	0.307439
C99	C	0.502080	0.729574	0.372347
C100	C	0.452886	0.688645	0.367133
C101	C	0.494050	0.650090	0.297006
C102	C	0.584400	0.652469	0.232100
C103	C	0.582296	1.051080	0.212122
C104	C	0.491591	1.115985	0.273648
C105	C	0.450665	1.105792	0.346221
C106	C	0.500457	1.030687	0.357268
C107	C	0.591166	0.965783	0.295742
C108	C	1.443917	0.355718	-0.282670
C109	C	1.534651	0.290812	-0.344196
C110	C	1.575583	0.301005	-0.416770
C111	C	1.525784	0.376110	-0.427817
C112	C	1.435058	0.441015	-0.366291
C113	C	1.475896	0.426933	0.018211
C114	C	1.573524	0.359661	0.021572
C115	C	1.618341	0.286275	-0.014420
C116	C	1.565534	0.280163	-0.053782
C117	C	1.467915	0.347435	-0.057147
C118	C	1.441786	0.754327	-0.302630
C119	C	1.532133	0.756721	-0.367526
C120	C	1.573319	0.718175	-0.437659
C121	C	1.524143	0.677238	-0.442895
C122	C	1.433791	0.674849	-0.378000
H123	H	0.581797	0.650690	-0.164487
H124	H	0.328417	1.175294	-0.058908
C125	C	0.264505	1.074726	-0.086643
C126	C	0.394670	1.040407	-0.135408
H127	H	0.228676	1.070572	-0.113353
H128	H	0.252698	1.048824	-0.047808
H129	H	0.223864	1.128060	-0.065706
H130	H	0.435314	0.987071	-0.156341
H131	H	0.406487	1.066307	-0.174257
H132	H	1.004447	0.296257	-0.116657
C133	C	0.351928	0.611197	0.363064
C134	C	0.439937	0.605124	0.291282
H135	H	0.318506	0.583447	0.359529
H136	H	0.392858	0.589847	0.391029
H137	H	0.284722	0.664416	0.387311
H138	H	0.507149	0.551904	0.267037
H139	H	0.399007	0.626470	0.263306
C140	C	0.400648	0.977976	0.447495
C141	C	0.455470	1.019483	0.437042
H142	H	0.372880	0.971056	0.496743
H143	H	0.330087	1.006141	0.440404
H144	H	0.461808	0.928574	0.412432
H145	H	0.394307	1.068888	0.472101
H146	H	0.526039	0.991318	0.444141
C147	C	0.591304	0.810253	0.388445
C148	C	0.646508	0.776934	0.313184
H149	H	0.624704	0.838012	0.391995
H150	H	0.501822	0.844951	0.410330
H151	H	0.609968	0.770387	0.414047
H152	H	0.627836	0.816801	0.287583
H153	H	0.736010	0.742233	0.291290
H154	H	0.424197	1.186395	0.012510
H155	H	0.601279	1.064352	0.018641
H156	H	0.379317	0.686715	0.419990
H157	H	0.617896	0.621079	0.175008
C158	C	0.315145	0.906763	-0.024090
C159	C	0.288294	0.860029	0.021303
H160	H	0.240809	0.958299	-0.005466
H161	H	0.380611	0.907273	-0.023906
H162	H	0.342205	0.886418	-0.073682
H163	H	0.261243	0.880371	0.070895
H164	H	0.222807	0.859523	0.021127
H165	H	0.846397	0.760968	-0.570577
H166	H	1.000086	0.118016	-0.157816
H167	H	0.468575	0.760973	0.429441
C168	C	0.564250	1.141926	0.135664
C169	C	0.627159	1.062299	0.132353
H170	H	0.591920	1.148855	0.086419
H171	H	0.475176	1.165458	0.161467
H172	H	0.583010	1.165465	0.161343
H173	H	0.608392	1.038761	0.106679
H174	H	0.716254	1.038757	0.106540
H175	H	1.649458	0.248150	-0.466861
H176	H	0.706664	0.568492	-0.083887
H177	H	1.022399	-0.011511	0.052231
H178	H	1.264077	0.616747	-0.707318
C179	C	1.507194	0.598430	-0.510894
C180	C	1.569423	0.634869	-0.519989
H181	H	1.535149	0.572276	-0.558491
H182	H	1.526197	0.561881	-0.482156
H183	H	1.418032	0.636426	-0.485877
H184	H	1.658585	0.596873	-0.545001
H185	H	1.550430	0.671422	-0.548739
H186	H	0.631688	0.904637	0.304749
C187	C	1.000685	-0.079624	-0.152057
C188	C	0.999076	-0.013035	-0.167237
H189	H	0.996739	-0.101046	-0.189049
H190	H	1.076832	-0.116915	-0.152526
H191	H	0.929560	-0.066065	-0.104303
H192	H	1.070207	-0.026595	-0.214988
H193	H	0.922920	0.024264	-0.166775
C194	C	1.726696	0.291852	0.060208
C195	C	1.631541	0.366390	0.064852
H196	H	1.762512	0.296010	0.086925
H197	H	1.691005	0.263175	0.081225
H198	H	1.791116	0.265826	0.009322
H199	H	1.567116	0.392415	0.115738
H200	H	1.667231	0.395079	0.043837
H201	H	1.408267	0.785716	-0.245531
C202	C	1.028827	0.074010	0.113182
C203	C	1.023357	0.119553	0.061664
H204	H	1.032734	0.095446	0.150187
H205	H	0.955098	0.073266	0.136248
H206	H	1.102373	0.022432	0.088050
H207	H	0.949805	0.171129	0.086795
H208	H	1.097093	0.120305	0.038597
H209	H	0.444325	0.756108	0.093994
H210	H	1.393770	0.641511	-0.382275
H211	H	1.602040	0.220403	-0.083085
H212	H	0.451059	1.177134	0.264640
H213	H	1.179793	0.645846	-0.499972
C214	C	0.997028	0.386558	-0.186402
C215	C	1.002045	0.428483	-0.139268
H216	H	0.992839	0.410787	-0.225680
H217	H	1.071050	0.334812	-0.206857
H218	H	0.923778	0.385654	-0.158635
H219	H	1.075301	0.429383	-0.167035
H220	H	0.928016	0.480243	-0.118813
C221	C	1.829810	0.170220	-0.083108
C222	C	1.725652	0.212336	-0.010717
H223	H	1.896061	0.124580	-0.080817
H224	H	1.804785	0.156065	-0.111692
H225	H	1.859234	0.201452	-0.105905
H226	H	1.696222	0.181107	0.012078
H227	H	1.750679	0.226490	0.017878
H228	H	1.424925	0.342446	-0.089193
C229	C	1.530971	0.835023	-0.286493
C230	C	1.586190	0.801711	-0.361758
H231	H	1.564351	0.862791	-0.282933
H232	H	1.441488	0.869712	-0.264610
H233	H	1.549645	0.795153	-0.260897
H234	H	1.567507	0.841581	-0.387353
H235	H	1.675693	0.767019	-0.383651
H236	H	0.463446	0.621213	0.045344
H237	H	1.251546	0.621074	-0.825048
H238	H	0.833871	0.765286	-0.688299
H239	H	1.646890	0.720126	-0.490495
H240	H	0.562400	0.785742	-0.115832
H241	H	1.026103	0.288785	0.087273
H242	H	1.025455	0.410842	0.081161
H243	H	0.376803	1.158648	0.396312
H244	H	1.192323	0.641506	-0.382250
H245	H	1.410595	0.347403	-0.223583
H246	H	0.762125	0.790059	-0.363237
H247	H	1.575182	0.229664	-0.335187
C248	C	1.660911	0.314474	-0.559254
C249	C	1.570774	0.387307	-0.507593
H250	H	1.688674	0.321386	-0.608505
H251	H	1.731470	0.286328	-0.552160
H252	H	1.623707	0.286318	-0.552139
H253	H	1.607980	0.415461	-0.514705
H254	H	1.500202	0.415464	-0.514691
H255	H	0.774645	0.785729	-0.245501
H256	H	1.439414	0.486681	0.047526
C257	C	0.532606	0.908061	-0.163600
C258	C	0.599565	0.899204	-0.128335
H259	H	0.563016	0.858265	-0.188034
H260	H	0.444645	0.934634	-0.127394
H261	H	0.544765	0.937279	-0.199297
H262	H	0.587398	0.869990	-0.092634
H263	H	0.687546	0.872619	-0.164544
C264	C	1.435402	0.518792	-0.455138
C265	C	1.380313	0.523562	-0.378443
H266	H	1.401600	0.569753	-0.462642
H267	H	1.524841	0.491712	-0.477391
H268	H	1.417104	0.491685	-0.477390
H269	H	1.398619	0.550664	-0.356192
H270	H	1.290854	0.550653	-0.356181
