data_functionalizedCrystal
_audit_creation_method	'MofGen! by Chris Wilmer'
_symmetry_space_group_name_H-M	'P1'
_symmetry_Int_Tables_number	1
_symmetry_cell_setting	triclinic
loop_
_symmetry_equiv_pos_as_xyz
  x,y,z
_cell_length_a	14.044220
_cell_length_b	14.044220
_cell_length_c	12.503572
_cell_angle_alpha	86.156832
_cell_angle_beta	86.164750
_cell_angle_gamma	86.811122
loop_
_atom_site_label
_atom_site_type_symbol
_atom_site_fract_x
_atom_site_fract_y
_atom_site_fract_z
O1	O	1.282200	-0.225116	-0.089210
O2	O	1.615533	0.108217	0.244123
O3	O	1.948867	0.441550	0.577457
O4	O	1.005530	-0.216809	-0.089237
O5	O	1.338863	0.116524	0.244096
O6	O	1.672197	0.449858	0.577430
O7	O	1.139712	-0.082627	-0.089213
O8	O	1.473045	0.250706	0.244120
O9	O	1.806378	0.584039	0.577453
O10	O	1.148019	-0.359298	-0.089234
O11	O	1.481352	-0.025964	0.244100
O12	O	1.814685	0.307369	0.577433
O13	O	1.129622	-0.092737	0.089427
O14	O	1.462955	0.240596	0.422760
O15	O	1.796289	0.573930	0.756093
O16	O	0.995440	-0.226918	0.089403
O17	O	1.328774	0.106415	0.422736
O18	O	1.662107	0.439748	0.756070
O19	O	1.272110	-0.235226	0.089430
O20	O	1.605444	0.098108	0.422763
O21	O	1.938777	0.431441	0.756097
Cu22	Cu	1.132854	-0.231995	0.105728
Cu23	Cu	1.466187	0.101338	0.439061
Cu24	Cu	1.799521	0.434672	0.772395
Cu25	Cu	1.144786	-0.220040	-0.105535
Cu26	Cu	1.478120	0.113294	0.227798
Cu27	Cu	1.811453	0.446627	0.561132
O28	O	1.137929	-0.369407	0.089406
O29	O	1.471262	-0.036074	0.422740
O30	O	1.804595	0.297259	0.756073
C31	C	0.964864	-0.218228	0.000080
C32	C	1.298197	0.115105	0.333413
C33	C	1.631530	0.448439	0.666746
C34	C	0.858721	-0.207383	0.000070
C35	C	1.192055	0.125951	0.333403
C36	C	1.525388	0.459284	0.666736
C37	C	0.664382	-0.187558	0.000092
C38	C	0.997716	0.145776	0.333426
C39	C	1.331049	0.479109	0.666759
C40	C	0.613253	-0.264472	0.000091
C41	C	0.946586	0.068861	0.333425
C42	C	1.279919	0.402195	0.666758
C43	C	0.505116	-0.253441	0.000104
C44	C	0.838449	0.079892	0.333437
C45	C	1.171782	0.413225	0.666771
C46	C	0.772529	-0.198587	0.000080
C47	C	1.105863	0.134746	0.333413
C48	C	1.439196	0.468079	0.666746
C49	C	1.131031	-0.052060	0.000107
C50	C	1.464365	0.281273	0.333440
C51	C	1.797698	0.614606	0.666773
C52	C	1.120187	0.054082	0.000107
C53	C	1.453520	0.387416	0.333440
C54	C	1.786853	0.720749	0.666774
C55	C	1.312777	-0.233807	0.000111
C56	C	1.646110	0.099527	0.333444
C57	C	1.979444	0.432860	0.666778
C58	C	1.418920	-0.244651	0.000114
C59	C	1.752253	0.088682	0.333447
C60	C	2.085586	0.422015	0.666781
C61	C	1.146609	-0.399974	0.000084
C62	C	1.479943	-0.066641	0.333417
C63	C	1.813276	0.266692	0.666751
C64	C	1.157454	-0.506117	0.000077
C65	C	1.490788	-0.172783	0.333410
C66	C	1.824121	0.160550	0.666743
N67	N	1.124469	-0.240404	0.254319
N68	N	1.457802	0.092929	0.587652
N69	N	1.791135	0.426263	0.920985
C70	C	1.100361	0.248421	0.000090
C71	C	1.433695	0.581754	0.333423
C72	C	1.767028	0.915088	0.666756
C73	C	1.177275	0.299551	0.000094
C74	C	1.510609	0.632884	0.333427
C75	C	1.843942	0.966217	0.666761
C76	C	1.166244	0.407687	0.000084
C77	C	1.499578	0.741021	0.333418
C78	C	1.832911	1.074354	0.666751
C79	C	1.111391	0.140274	0.000099
C80	C	1.444724	0.473608	0.333433
C81	C	1.778058	0.806941	0.666766
N82	N	1.153179	-0.211624	-0.254126
N83	N	1.486512	0.121710	0.079208
N84	N	1.819846	0.455043	0.412541
C85	C	1.112134	-0.252782	0.473432
C86	C	1.445467	0.080551	0.806765
C87	C	1.778800	0.413885	1.140098
C88	C	1.165511	-0.199249	0.526768
C89	C	1.498844	0.134085	0.860102
C90	C	1.832178	0.467418	1.193435
C91	C	1.158648	-0.206136	0.648690
C92	C	1.491981	0.127198	0.982024
C93	C	1.825314	0.460531	1.315357
C94	C	1.118996	-0.245896	0.351499
C95	C	1.452329	0.087437	0.684832
C96	C	1.785662	0.420771	1.018165
H97	H	0.650692	-0.338605	0.000081
H98	H	0.984026	-0.005272	0.333414
H99	H	1.317359	0.328062	0.666747
H100	H	1.216364	-0.148245	0.480864
H101	H	1.549697	0.185088	0.814198
H102	H	1.883030	0.518421	1.147531
C103	C	0.613806	-0.087413	0.000097
C104	C	0.947139	0.245920	0.333431
C105	C	1.280472	0.579253	0.666764
N106	N	0.575700	-0.011985	0.000096
N107	N	0.909034	0.321349	0.333429
N108	N	1.242367	0.654682	0.666762
H109	H	1.061285	-0.303783	0.519330
H110	H	1.394619	0.029550	0.852663
H111	H	1.727952	0.362883	1.185997
C112	C	1.277426	0.248973	0.000119
C113	C	1.610759	0.582306	0.333452
C114	C	1.944093	0.915639	0.666786
N115	N	1.352856	0.210873	0.000143
N116	N	1.686189	0.544206	0.333477
N117	N	2.019523	0.877539	0.666810
C118	C	1.000216	0.298997	0.000094
C119	C	1.333550	0.632331	0.333427
C120	C	1.666883	0.965664	0.666761
N121	N	0.924787	0.337102	0.000106
N122	N	1.258121	0.670436	0.333439
N123	N	1.591454	1.003769	0.666773
