data_functionalizedCrystal
_audit_creation_method	'MofGen! by Chris Wilmer'
_symmetry_space_group_name_H-M	'P1'
_symmetry_Int_Tables_number	1
_symmetry_cell_setting	triclinic
loop_
_symmetry_equiv_pos_as_xyz
  x,y,z
_cell_length_a	8.597366
_cell_length_b	15.944493
_cell_length_c	7.681481
_cell_angle_alpha	84.264607
_cell_angle_beta	103.474720
_cell_angle_gamma	84.408914
loop_
_atom_site_label
_atom_site_type_symbol
_atom_site_fract_x
_atom_site_fract_y
_atom_site_fract_z
O1	O	2.099809	0.116155	0.172170
O2	O	1.635746	0.129541	0.101763
O3	O	1.880497	0.000570	0.138882
O4	O	1.855059	0.245126	0.135052
O5	O	1.910622	-0.015340	0.436308
O6	O	1.665871	0.113631	0.399190
O7	O	2.129934	0.100245	0.469596
Zn8	Zn	1.902685	0.104412	0.481616
Zn9	Zn	1.862995	0.125374	0.089744
O10	O	1.885183	0.229216	0.432478
C11	C	1.591425	0.121035	0.241467
C12	C	1.414482	0.119384	0.214620
C13	C	1.894519	-0.038679	0.287430
C14	C	1.891399	-0.131927	0.286934
C15	C	2.035469	-0.367697	0.308825
C16	C	1.942926	-0.410416	0.150392
C17	C	1.885625	-0.302649	0.286079
C18	C	1.972592	-0.426078	0.443626
C19	C	1.880059	-0.467559	0.285263
C20	C	1.793110	-0.344133	0.127532
C21	C	1.822811	-0.359798	0.420901
C22	C	1.730155	-0.402482	0.262415
C23	C	1.888835	-0.207648	0.286548
C24	C	1.876836	-0.562557	0.284780
C25	C	2.174255	0.108751	0.329889
C26	C	2.351197	0.110403	0.356724
C27	C	1.871161	0.268466	0.283926
C28	C	1.874280	0.361713	0.284410
N29	N	1.929785	0.090105	0.749060
N30	N	1.835908	0.139674	-0.177698
H31	H	2.164525	-0.352069	0.328260
H32	H	1.333297	0.125803	0.072410
C33	C	1.460870	0.101727	0.548860
C34	C	1.469827	0.021463	0.681942
C35	C	1.579500	0.012787	0.874074
C36	C	1.680215	0.084375	0.933124
C37	C	1.671261	0.164644	0.800038
C38	C	1.561589	0.173320	0.607906
H39	H	1.395269	-0.031535	0.638233
H40	H	1.586128	-0.046634	0.972592
H41	H	1.761401	0.077952	1.075351
H42	H	1.745820	0.217643	0.843748
H43	H	1.554961	0.232741	0.509388
C44	C	1.706436	0.208023	0.701091
C45	C	1.597304	0.265249	0.785718
C46	C	1.467829	0.333599	0.664494
C47	C	1.447486	0.344724	0.458643
C48	C	1.556621	0.287497	0.374005
C49	C	1.686096	0.219147	0.495229
H50	H	1.612360	0.257015	0.938111
H51	H	1.387041	0.375962	0.727150
H52	H	1.351641	0.395321	0.368906
H53	H	1.541565	0.295731	0.221612
H54	H	1.766884	0.176784	0.432573
C55	C	2.011442	-0.440575	-0.004123
C56	C	1.905260	-0.482207	-0.153411
C57	C	1.973788	-0.512364	-0.307916
C58	C	2.148499	-0.500888	-0.313133
C59	C	2.254692	-0.459254	-0.163840
C60	C	2.186164	-0.429097	-0.009335
H61	H	1.775919	-0.490703	-0.149553
H62	H	1.895176	-0.543184	-0.418432
H63	H	2.199228	-0.523212	-0.427507
H64	H	2.384033	-0.450758	-0.167698
H65	H	2.264776	-0.398277	0.101181
H66	H	1.717295	-0.308670	-0.006174
H67	H	1.600975	-0.417936	0.242738
H68	H	1.772142	-0.337466	0.535292
C69	C	2.059264	0.021752	0.870279
C70	C	2.053799	-0.072529	0.844265
C71	C	2.183276	-0.140880	0.965483
C72	C	2.318217	-0.114950	1.112716
C73	C	2.323687	-0.020664	1.138737
C74	C	2.194210	0.047687	1.017518
H75	H	1.953903	-0.091728	0.735268
H76	H	2.179226	-0.210677	0.946220
H77	H	2.414063	-0.165548	1.202449
H78	H	2.423583	-0.001465	1.247733
H79	H	2.198260	0.117484	1.036782
H80	H	2.048461	-0.461645	0.577201
