data_functionalizedCrystal
_audit_creation_method	'MofGen! by Chris Wilmer'
_symmetry_space_group_name_H-M	'P1'
_symmetry_Int_Tables_number	1
_symmetry_cell_setting	triclinic
loop_
_symmetry_equiv_pos_as_xyz
  x,y,z
_cell_length_a	15.995350
_cell_length_b	17.699083
_cell_length_c	16.776229
_cell_angle_alpha	90.001114
_cell_angle_beta	89.995580
_cell_angle_gamma	96.612305
loop_
_atom_site_label
_atom_site_type_symbol
_atom_site_fract_x
_atom_site_fract_y
_atom_site_fract_z
O1	O	0.105885	-1.004255	-0.066173
O2	O	0.119661	-0.783899	-0.066198
O3	O	-0.009127	-0.900100	-0.066184
O4	O	0.234673	-0.888053	-0.066187
O5	O	-0.009135	-0.900085	0.066393
O6	O	0.119653	-0.783884	0.066378
O7	O	0.105877	-1.004239	0.066404
Zn8	Zn	0.112764	-0.894059	0.087441
Zn9	Zn	0.112774	-0.894079	-0.087235
O10	O	0.234665	-0.888038	0.066390
C11	C	0.119163	-0.755694	0.000087
C12	C	0.117683	-0.671673	0.000077
C13	C	-0.040324	-0.899595	0.000103
C14	C	-0.133272	-0.898101	0.000098
C15	C	0.106375	-1.032445	0.000117
C16	C	0.107856	-1.116465	0.000122
C17	C	-0.471008	-0.892739	0.000100
C18	C	-0.423406	-0.809983	-0.000207
C19	C	-0.326719	-0.811476	0.000092
C20	C	-0.303453	-0.895399	0.000099
C21	C	-0.344618	-0.936209	0.075810
C22	C	-0.441250	-0.934130	0.075873
C23	C	-0.441602	-0.935857	-0.074891
C24	C	-0.344657	-0.935837	-0.075892
C25	C	-0.208759	-0.896907	0.000101
C26	C	-0.565703	-0.891234	0.000104
C27	C	0.265863	-0.888544	0.000101
C28	C	0.358810	-0.890037	0.000101
N29	N	0.112756	-0.894051	0.206652
C30	C	0.193278	-0.623178	0.000076
C31	C	0.191882	-0.544232	0.000087
C32	C	0.114889	-0.513783	0.000092
C33	C	0.039287	-0.562285	0.000095
C34	C	0.040685	-0.641229	0.000090
C35	C	0.033651	-0.243912	0.000115
C36	C	0.032259	-0.164962	0.000117
C37	C	0.184848	-0.146916	0.000111
C38	C	0.186245	-0.225860	0.000106
C39	C	0.110644	-0.274354	0.000114
C40	C	0.112159	-0.359956	0.000104
C41	C	0.113373	-0.428183	0.000096
N42	N	0.112775	-0.894094	-0.206446
C43	C	0.055752	-0.945520	0.248375
C44	C	0.055752	-0.945524	0.331827
C45	C	0.112760	-0.894062	0.373555
C46	C	0.169766	-0.842587	0.331825
C47	C	0.169762	-0.842580	0.248375
C48	C	0.169783	-0.842614	0.668373
C49	C	0.169784	-0.842627	0.751829
C50	C	0.055772	-0.945559	0.751825
C51	C	0.055768	-0.945552	0.668375
C52	C	0.112771	-0.894074	0.626653
C53	C	0.112770	-0.894069	0.536164
C54	C	0.112765	-0.894070	0.464041
H55	H	-0.298228	-0.779397	-0.054181
C56	C	0.268012	-0.093564	0.000114
N57	N	0.330649	-0.053381	0.000115
C58	C	-0.045406	-0.528788	0.000102
N59	N	-0.109199	-0.503560	0.000105
C60	C	0.232495	-0.786007	0.797728
N61	N	0.279725	-0.743362	0.832298
C62	C	-0.306210	-0.897896	0.151920
N63	N	-0.277283	-0.869034	0.209245
C64	C	0.275044	-0.490890	0.000100
N65	N	0.337685	-0.450713	0.000116
H66	H	-0.020873	-0.680714	0.000090
C67	C	-0.448355	-0.765299	-0.073550
N68	N	-0.467155	-0.731642	-0.128793
C69	C	-0.324079	-1.018520	-0.082059
N70	N	-0.308583	-1.080801	-0.086696
C71	C	0.232596	-0.786086	0.622489
N72	N	0.279950	-0.743541	0.587927
C73	C	-0.006962	-1.002134	0.202483
N74	N	-0.054204	-1.044774	0.167919
C75	C	0.232468	-0.785971	0.377728
N76	N	0.279696	-0.743326	0.412302
H77	H	-0.298792	-0.779168	0.054450
C78	C	-0.449764	-0.765495	0.072740
N79	N	-0.469610	-0.731991	0.127691
H80	H	0.216180	-0.800667	0.214404
H81	H	-0.459494	-0.904358	0.132463
C82	C	-0.006947	-1.002163	0.622479
N83	N	-0.054188	-1.044800	0.587912
C84	C	-0.006977	-1.002127	0.377719
N85	N	-0.054235	-1.044756	0.412285
C86	C	-0.049513	-0.297246	0.000117
N87	N	-0.112156	-0.337421	0.000118
H88	H	-0.473622	-0.994888	0.079313
C89	C	-0.469267	-0.899310	-0.152415
N90	N	-0.490103	-0.871775	-0.210802
C91	C	-0.325689	-1.019498	0.079633
N92	N	-0.311423	-1.082230	0.082514
C93	C	-0.307711	-0.895567	-0.151561
N94	N	-0.279885	-0.865228	-0.208553
H95	H	0.248941	-0.250646	0.000098
C96	C	-0.006941	-1.002179	0.797727
N97	N	-0.054174	-1.044825	0.832299
H98	H	-0.473487	-0.996873	-0.075395
H99	H	-0.030442	-0.140174	0.000122
H100	H	0.255975	-0.647962	0.000071
