data_functionalizedCrystal
_audit_creation_method	'MofGen! by Chris Wilmer'
_symmetry_space_group_name_H-M	'P1'
_symmetry_Int_Tables_number	1
_symmetry_cell_setting	triclinic
loop_
_symmetry_equiv_pos_as_xyz
  x,y,z
_cell_length_a	23.532407
_cell_length_b	23.532361
_cell_length_c	18.266242
_cell_angle_alpha	90.004761
_cell_angle_beta	90.014850
_cell_angle_gamma	82.839208
loop_
_atom_site_label
_atom_site_type_symbol
_atom_site_fract_x
_atom_site_fract_y
_atom_site_fract_z
O1	O	0.069009	0.755280	0.060821
O2	O	0.569009	1.255280	0.560821
O3	O	0.079040	0.589413	0.060840
O4	O	0.579040	1.089413	0.560840
O5	O	-0.008908	0.677348	0.060809
O6	O	0.491092	1.177348	0.560809
O7	O	0.156957	0.667345	0.060852
O8	O	0.656957	1.167345	0.560852
O9	O	-0.008912	0.677334	-0.060953
O10	O	0.491088	1.177334	0.439047
O11	O	0.079036	0.589398	-0.060922
O12	O	0.579036	1.089398	0.439078
O13	O	0.069005	0.755266	-0.060941
O14	O	0.569005	1.255266	0.439059
Zn15	Zn	0.074020	0.672330	-0.080264
Zn16	Zn	0.574020	1.172330	0.419736
Zn17	Zn	0.074026	0.672349	0.080163
Zn18	Zn	0.574026	1.172349	0.580163
O19	O	0.156953	0.667330	-0.060910
O20	O	0.656953	1.167330	0.439090
C21	C	0.078787	0.568189	-0.000039
C22	C	0.578787	1.068189	0.499961
C23	C	0.078032	0.504971	-0.000032
C24	C	0.578032	1.004971	0.499968
C25	C	-0.030126	0.677086	-0.000075
C26	C	0.469874	1.177086	0.499925
C27	C	-0.093343	0.676320	-0.000086
C28	C	0.406657	1.176320	0.499914
C29	C	0.074731	0.231735	0.066335
C30	C	0.574731	0.731735	0.566335
C31	C	0.075446	0.291135	0.066337
C32	C	0.575446	0.791135	0.566337
O33	O	0.075798	0.321868	0.122783
O34	O	0.575798	0.821868	0.622783
N35	N	0.075804	0.320833	-0.000035
N36	N	0.575804	0.820833	0.499965
C37	C	0.075442	0.291128	-0.066414
C38	C	0.575442	0.791128	0.433586
O39	O	0.075813	0.321843	-0.122869
O40	O	0.575813	0.821843	0.377131
C41	C	0.074723	0.231730	-0.066416
C42	C	0.574723	0.731730	0.433584
C43	C	0.074370	0.202035	-0.000039
C44	C	0.574370	0.702035	0.499961
C45	C	0.074377	0.202040	0.132707
C46	C	0.574377	0.702040	0.632707
C47	C	0.073663	0.142644	0.132704
C48	C	0.573663	0.642644	0.632704
C49	C	0.073303	0.112944	0.066331
C50	C	0.573303	0.612944	0.566331
C51	C	0.073657	0.142639	-0.000041
C52	C	0.573657	0.642639	0.499959
C53	C	0.074357	0.202027	-0.132794
C54	C	0.574357	0.702027	0.367206
C55	C	0.073638	0.142625	-0.132789
C56	C	0.573638	0.642625	0.367211
C57	C	0.073285	0.112930	-0.066412
C58	C	0.573285	0.612930	0.433588
C59	C	0.072582	0.053543	-0.066417
C60	C	0.572582	0.553543	0.433583
N61	N	0.072224	0.023845	-0.000044
N62	N	0.572224	0.523845	0.499956
C63	C	0.072584	0.053545	0.066329
C64	C	0.572584	0.553545	0.566329
C65	C	0.076951	0.415868	-0.066407
C66	C	0.576951	0.915868	0.433593
C67	C	0.077674	0.475265	-0.066406
C68	C	0.577674	0.975265	0.433594
C69	C	0.077677	0.475268	0.066345
C70	C	0.577677	0.975268	0.566345
C71	C	0.076958	0.415870	0.066344
C72	C	0.576958	0.915870	0.566344
C73	C	0.076592	0.386171	-0.000034
C74	C	0.576592	0.886171	0.499966
C75	C	0.071085	-0.071190	0.066320
C76	C	0.571085	0.428810	0.566320
C77	C	0.070374	-0.130591	0.066312
C78	C	0.570374	0.369409	0.566312
C79	C	0.070369	-0.130589	-0.066440
C80	C	0.570369	0.369411	0.433560
C81	C	0.071083	-0.071193	-0.066432
C82	C	0.571083	0.428807	0.433568
C83	C	0.071440	-0.041495	-0.000046
C84	C	0.571440	0.458505	0.499954
O85	O	0.072228	0.022772	-0.122834
O86	O	0.572228	0.522772	0.377166
O87	O	0.072206	0.022825	0.122775
O88	O	0.572206	0.522825	0.622775
C89	C	-0.359501	0.621124	-0.000034
C90	C	0.140499	1.121124	0.499966
C91	C	-0.300101	0.621835	-0.000040
C92	C	0.199899	1.121835	0.499960
O93	O	-0.263349	0.578048	-0.000011
O94	O	0.236651	1.078048	0.499989
N95	N	-0.277483	0.674113	-0.000054
N96	N	0.222517	1.174113	0.499946
C97	C	-0.314270	0.725682	-0.000056
C98	C	0.185730	1.225682	0.499944
O99	O	-0.289577	0.770214	-0.000068
O100	O	0.210423	1.270214	0.499932
C101	C	-0.373669	0.724970	-0.000045
C102	C	0.126331	1.224970	0.499955
C103	C	-0.396282	0.672689	-0.000038
C104	C	0.103718	1.172689	0.499962
C105	C	-0.382116	0.568847	-0.000026
C106	C	0.117884	1.068847	0.499974
C107	C	-0.441512	0.568136	-0.000022
C108	C	0.058488	1.068136	0.499978
C109	C	-0.478293	0.619701	-0.000025
C110	C	0.021707	1.119701	0.499975
C111	C	-0.455678	0.671978	-0.000033
C112	C	0.044322	1.171978	0.499967
C113	C	-0.410454	0.776539	-0.000041
C114	C	0.089546	1.276539	0.499959
C115	C	-0.469856	0.775822	-0.000029
C116	C	0.030144	1.275822	0.499971
C117	C	-0.492470	0.723541	-0.000022
C118	C	0.007530	1.223541	0.499978
C119	C	-0.551856	0.722832	-0.000033
C120	C	-0.051856	1.222832	0.499967
N121	N	-0.574473	0.670555	-0.000018
N122	N	-0.074473	1.170555	0.499982
C123	C	-0.537692	0.618989	-0.000014
C124	C	-0.037692	1.118989	0.499986
C125	C	-0.189527	0.727174	-0.000077
C126	C	0.310473	1.227174	0.499923
C127	C	-0.130129	0.727886	-0.000094
C128	C	0.369871	1.227886	0.499906
C129	C	-0.115965	0.624039	-0.000076
C130	C	0.384035	1.124039	0.499924
C131	C	-0.175364	0.623327	-0.000065
C132	C	0.324636	1.123327	0.499935
C133	C	-0.212145	0.674896	-0.000063
C134	C	0.287855	1.174896	0.499937
C135	C	-0.662429	0.617500	-0.000006
C136	C	-0.162429	1.117500	0.499994
C137	C	-0.721830	0.616793	-0.000005
C138	C	-0.221830	1.116793	0.499995
C139	C	-0.735990	0.720640	-0.000018
C140	C	-0.235990	1.220640	0.499982
C141	C	-0.676593	0.721347	-0.000023
C142	C	-0.176593	1.221347	0.499977
C143	C	-0.639813	0.669772	-0.000015
C144	C	-0.139813	1.169772	0.499985
O145	O	-0.588643	0.766596	-0.000058
O146	O	-0.088643	1.266596	0.499942
O147	O	-0.562393	0.574465	0.000007
O148	O	-0.062393	1.074465	0.500007
C149	C	0.178171	0.667592	-0.000024
C150	C	0.678171	1.167592	0.499976
C151	C	0.241388	0.668358	-0.000008
C152	C	0.741388	1.168358	0.499992
C153	C	0.069258	0.776490	-0.000061
C154	C	0.569258	1.276490	0.499939
C155	C	0.070014	0.839708	-0.000062
C156	C	0.570014	1.339708	0.499938
N157	N	0.074015	0.672321	-0.189751
N158	N	0.574015	1.172321	0.310249
C159	C	0.035091	0.711271	-0.228073
C160	C	0.535091	1.211271	0.271927
C161	C	0.035088	0.711274	-0.304718
C162	C	0.535088	1.211274	0.195282
C163	C	0.074020	0.672333	-0.343038
C164	C	0.574020	1.172333	0.156962
C165	C	0.112947	0.633376	-0.304706
C166	C	0.612947	1.133376	0.195294
C167	C	0.112945	0.633369	-0.228062
C168	C	0.612945	1.133369	0.271938
N169	N	0.124456	0.664799	-0.463357
N170	N	0.624456	1.164799	0.036643
N171	N	0.124456	0.664808	-0.536165
N172	N	0.624456	1.164808	-0.036165
C173	C	0.074028	0.672349	-0.573960
C174	C	0.574028	1.172349	-0.073960
N175	N	0.023598	0.679891	-0.536197
N176	N	0.523598	1.179891	-0.036197
N177	N	0.023598	0.679885	-0.463382
N178	N	0.523598	1.179885	0.036618
C179	C	0.074026	0.672335	-0.426145
C180	C	0.574026	1.172335	0.073855
C181	C	0.035097	0.711306	-0.695390
C182	C	0.535097	1.211306	-0.195390
C183	C	0.035094	0.711305	-0.772036
C184	C	0.535094	1.211305	-0.272036
C185	C	0.112958	0.633409	-0.772022
C186	C	0.612958	1.133409	-0.272022
C187	C	0.112956	0.633407	-0.695377
C188	C	0.612956	1.133407	-0.195377
C189	C	0.074027	0.672358	-0.657066
C190	C	0.574027	1.172358	-0.157066
N191	N	0.074025	0.672363	0.189650
N192	N	0.574025	1.172363	0.689650
H193	H	0.071376	-0.047017	0.120377
H194	H	0.571376	0.452983	0.620377
O195	O	0.076573	0.383840	0.137933
O196	O	0.576573	0.883840	0.637933
H197	H	0.037423	0.362078	0.141093
H198	H	0.537423	0.862078	0.641093
H199	H	0.077971	0.499436	-0.120457
H200	H	0.577971	0.999436	0.379543
H201	H	0.003390	0.742994	-0.335926
H202	H	0.503390	1.242994	0.164074
H203	H	0.071382	-0.047015	-0.120482
H204	H	0.571382	0.452985	0.379518
H205	H	0.144645	0.601668	-0.335909
H206	H	0.644645	1.101668	0.164091
H207	H	-0.765948	0.762623	-0.000024
H208	H	-0.265948	1.262623	0.499976
O209	O	-0.006887	0.753326	-0.813369
O210	O	0.493113	1.253326	-0.313369
H211	H	-0.051250	0.746335	-0.798671
H212	H	0.448750	1.246335	-0.298671
H213	H	0.003397	0.743020	-0.664195
H214	H	0.503397	1.243020	-0.164195
H215	H	-0.352173	0.526854	-0.000021
H216	H	0.147827	1.026854	0.499979
O217	O	-0.105745	0.784277	-0.000111
O218	O	0.394255	1.284277	0.499889
H219	H	-0.058262	0.776115	-0.000120
H220	H	0.441738	1.276115	0.499880
H221	H	0.003391	0.742986	-0.196882
H222	H	0.503391	1.242986	0.303118
O223	O	0.154934	0.591361	-0.186721
O224	O	0.654934	1.091361	0.313279
H225	H	0.182008	0.564284	-0.226240
H226	H	0.682008	1.064284	0.273760
H227	H	-0.086006	0.582052	-0.000074
H228	H	0.413994	1.082052	0.499926
H229	H	0.144655	0.601692	-0.664173
H230	H	0.644655	1.101692	-0.164173
O231	O	0.076620	0.383758	-0.137953
O232	O	0.576620	0.883758	0.362047
H233	H	0.037956	0.400391	-0.169873
H234	H	0.537956	0.900391	0.330127
H235	H	0.070088	-0.154767	0.120366
H236	H	0.570088	0.345233	0.620366
O237	O	0.154952	0.591407	-0.813340
O238	O	0.654952	1.091407	-0.313340
H239	H	0.148417	0.597957	-0.873074
H240	H	0.648417	1.097957	-0.373074
H241	H	-0.219472	0.769170	-0.000081
H242	H	0.280528	1.269170	0.499919
O243	O	0.070357	-0.162678	-0.138026
O244	O	0.570357	0.337322	0.361974
H245	H	0.069933	-0.208987	-0.126869
H246	H	0.569933	0.291013	0.373131
O247	O	-0.199755	0.566940	-0.000056
O248	O	0.300245	1.066940	0.499944
H249	H	-0.184944	0.542187	0.049576
H250	H	0.315056	1.042187	0.549576
O251	O	0.073251	0.110623	0.204297
O252	O	0.573251	0.610623	0.704297
H253	H	0.073607	0.141264	0.250444
H254	H	0.573607	0.641264	0.750444
H255	H	0.074669	0.226216	0.186759
H256	H	0.574669	0.726216	0.686759
O257	O	-0.386071	0.832928	-0.000031
O258	O	0.113929	1.332928	0.499969
H259	H	-0.421635	0.868659	-0.000017
H260	H	0.078365	1.368659	0.499983
H261	H	-0.499801	0.817817	-0.000023
H262	H	0.000199	1.317817	0.499977
H263	H	0.077970	0.499461	0.120391
H264	H	0.577970	0.999461	0.620391
O265	O	-0.652196	0.777733	-0.000033
O266	O	-0.152196	1.277733	0.499967
H267	H	-0.687754	0.813470	-0.000032
H268	H	-0.187754	1.313470	0.499968
H269	H	0.074643	0.226195	-0.186845
H270	H	0.574643	0.726195	0.313155
H271	H	0.073345	0.118447	-0.186844
H272	H	0.573345	0.618447	0.313156
O273	O	-0.746223	0.560403	0.000005
O274	O	-0.246223	1.060403	0.500005
H275	H	-0.710663	0.524667	0.000015
H276	H	-0.210663	1.024667	0.500015
H277	H	-0.632489	0.575502	0.000001
H278	H	-0.132489	1.075502	0.500001
O279	O	-0.465900	0.511747	-0.000008
O280	O	0.034100	1.011747	0.499992
H281	H	-0.430337	0.476015	0.000001
H282	H	0.069663	0.976015	0.500001
