data_functionalizedCrystal
_audit_creation_method	'MofGen! by Chris Wilmer'
_symmetry_space_group_name_H-M	'P1'
_symmetry_Int_Tables_number	1
_symmetry_cell_setting	triclinic
loop_
_symmetry_equiv_pos_as_xyz
  x,y,z
_cell_length_a	12.759401
_cell_length_b	25.639240
_cell_length_c	12.759393
_cell_angle_alpha	90.044235
_cell_angle_beta	90.018496
_cell_angle_gamma	90.032919
loop_
_atom_site_label
_atom_site_type_symbol
_atom_site_fract_x
_atom_site_fract_y
_atom_site_fract_z
Zn1	Zn	1.606124	-0.208118	0.593889
Zn2	Zn	1.605962	-0.295564	0.418170
Zn3	Zn	1.430425	-0.208145	0.418228
Zn4	Zn	1.430359	-0.295524	0.593812
O5	O	1.518218	-0.251838	0.506025
O6	O	1.753123	-0.219723	0.570587
O7	O	1.582638	-0.283996	0.271157
O8	O	1.453828	-0.134976	0.441587
O9	O	1.753005	-0.283970	0.441488
O10	O	1.582912	-0.134956	0.570644
O11	O	1.453671	-0.219770	0.271199
O12	O	1.283396	-0.219731	0.441512
O13	O	1.453714	-0.283901	0.740843
O14	O	1.283347	-0.283928	0.570512
O15	O	1.582847	-0.219684	0.740900
O16	O	1.582573	-0.368724	0.441413
O17	O	1.453558	-0.368695	0.570456
C18	C	1.245250	-0.251828	0.506010
C19	C	1.128474	-0.251837	0.506029
C20	C	1.518069	-0.387680	0.505942
C21	C	1.518102	-0.445795	0.505942
C22	C	1.073614	-0.285318	0.573089
C23	C	0.963889	-0.285324	0.573100
C24	C	0.963895	-0.218368	0.438984
C25	C	1.073617	-0.218359	0.438978
C26	C	1.128470	-0.318796	0.640139
C27	C	1.073610	-0.352280	0.707203
C28	C	0.963886	-0.352286	0.707215
C29	C	0.909022	-0.318809	0.640162
C30	C	1.585465	-0.806109	0.573346
C31	C	1.585496	-0.860713	0.573367
O32	O	1.642595	-0.888908	0.630592
N33	N	1.518363	-0.888077	0.506126
C34	C	1.451188	-0.860834	0.438867
O35	O	1.394088	-0.889123	0.381676
C36	C	1.451152	-0.806230	0.438852
C37	C	1.518297	-0.778869	0.506090
C38	C	1.652604	-0.778747	0.640579
C39	C	1.652574	-0.724147	0.640556
C40	C	1.585406	-0.696907	0.573300
C41	C	1.518267	-0.724269	0.506067
C42	C	1.383972	-0.778988	0.371598
C43	C	1.383941	-0.724381	0.371590
C44	C	1.451086	-0.697020	0.438828
C45	C	1.451069	-0.642429	0.438787
N46	N	1.518202	-0.615065	0.506028
C47	C	1.585370	-0.642304	0.573285
C48	C	1.451266	-0.975504	0.438905
C49	C	1.451306	-1.030107	0.438915
C50	C	1.585614	-1.029982	0.573417
C51	C	1.585578	-0.975379	0.573401
C52	C	1.518399	-0.948140	0.506146
C53	C	1.585303	-0.527639	0.573231
C54	C	1.585270	-0.473034	0.573199
C55	C	1.450959	-0.473163	0.438701
C56	C	1.450995	-0.527764	0.438729
C57	C	1.518171	-0.555000	0.506002
O58	O	1.393996	-0.614199	0.381595
O59	O	1.642450	-0.614008	0.630476
C60	C	1.792251	-0.251848	0.506040
C61	C	1.909027	-0.251852	0.506046
C62	C	1.518291	-0.251785	0.780058
C63	C	1.518323	-0.251763	0.896835
C64	C	1.518395	-0.115465	0.506130
C65	C	1.518471	-0.057351	0.506175
C66	C	1.518205	-0.251853	0.233057
C67	C	1.518377	-0.251728	0.116281
C68	C	1.585572	-0.218322	0.951728
C69	C	1.585597	-0.218303	1.061452
C70	C	1.451120	-0.285170	1.061380
C71	C	1.451091	-0.285186	0.951658
C72	C	1.652803	-0.184898	0.896905
C73	C	1.720059	-0.151455	0.951798
C74	C	1.720084	-0.151436	1.061523
C75	C	1.652853	-0.184860	1.116353
H76	H	1.217813	-0.318795	0.640136
C77	C	1.377378	-0.945547	0.364907
H78	H	1.337413	-0.969668	0.324861
H79	H	1.331559	-0.924247	0.405039
H80	H	1.417586	-0.924252	0.319152
H81	H	1.118287	-0.379532	0.761802
C82	C	0.788328	-0.318805	0.640199
H83	H	0.763510	-0.343538	0.689745
H84	H	0.763564	-0.285074	0.658505
H85	H	0.763450	-0.327809	0.572370
C86	C	1.794063	-0.114654	1.121908
H87	H	1.784450	-0.119428	1.195107
H88	H	1.864635	-0.122318	1.103920
H89	H	1.778734	-0.079523	1.103960
H90	H	0.919216	-0.191112	0.384392
C91	C	1.726502	-0.808702	0.714561
H92	H	1.766481	-0.784579	0.754588
H93	H	1.686318	-0.830003	0.760319
H94	H	1.772323	-0.829997	0.674409
H95	H	0.919221	-0.379547	0.761829
H96	H	1.118285	-0.191092	0.384381
C97	C	1.652775	-0.184915	0.776213
H98	H	1.702440	-0.160218	0.751422
H99	H	1.670884	-0.218661	0.751361
H100	H	1.584980	-0.175868	0.751397
H101	H	1.639951	-0.450758	0.627952
C102	C	1.659203	-0.557592	0.647220
H103	H	1.699187	-0.533470	0.687245
H104	H	1.619016	-0.578890	0.692979
H105	H	1.705020	-0.578889	0.607069
H106	H	1.329295	-0.801257	0.316846
H107	H	1.707246	-0.701872	0.695310
H108	H	1.774789	-0.124238	0.907148
H109	H	1.329233	-0.702207	0.316824
C110	C	1.659418	-0.945286	0.647380
H111	H	1.699415	-0.969334	0.687442
H112	H	1.705209	-0.923978	0.607242
H113	H	1.619174	-0.923988	0.693122
H114	H	1.652867	-0.184836	1.205698
H115	H	1.640304	-1.052170	0.628182
H116	H	1.396641	-1.052380	0.384151
H117	H	1.396329	-0.550042	0.383970
C118	C	1.377186	-0.321939	1.121691
H119	H	1.386843	-0.317144	1.194900
H120	H	1.306598	-0.314290	1.103718
H121	H	1.392522	-0.357073	1.103674
C122	C	1.377075	-0.443193	0.364729
H123	H	1.386670	-0.406755	0.374361
H124	H	1.392482	-0.452164	0.294151
H125	H	1.306479	-0.452164	0.380062
H126	H	1.396315	-0.312409	0.906963
