data_functionalizedCrystal
_audit_creation_method	'MofGen! by Chris Wilmer'
_symmetry_space_group_name_H-M	'P1'
_symmetry_Int_Tables_number	1
_symmetry_cell_setting	triclinic
loop_
_symmetry_equiv_pos_as_xyz
  x,y,z
_cell_length_a	14.519731
_cell_length_b	17.699083
_cell_length_c	16.776229
_cell_angle_alpha	90.001114
_cell_angle_beta	90.012005
_cell_angle_gamma	83.485935
loop_
_atom_site_label
_atom_site_type_symbol
_atom_site_fract_x
_atom_site_fract_y
_atom_site_fract_z
O1	O	-0.116623	-1.004420	-0.066186
O2	O	-0.131796	-0.784086	-0.066213
O3	O	0.010052	-0.900086	-0.066183
O4	O	-0.258471	-0.888419	-0.066216
O5	O	0.010061	-0.900071	0.066394
O6	O	-0.131787	-0.784070	0.066363
O7	O	-0.116614	-1.004404	0.066391
Zn8	Zn	-0.124200	-0.894235	0.087426
Zn9	Zn	-0.124211	-0.894255	-0.087249
O10	O	-0.258463	-0.888404	0.066360
C11	C	0.044414	-0.899532	0.000108
C12	C	0.146787	-0.897894	0.000115
C13	C	-0.131248	-0.755879	0.000072
C14	C	-0.129617	-0.671857	0.000062
C15	C	-0.117162	-1.032611	0.000104
C16	C	-0.118793	-1.116633	0.000108
C17	C	0.229926	-0.896563	0.000118
C18	C	0.334227	-0.894899	0.000119
C19	C	0.417361	-0.893579	0.000119
C20	C	0.521669	-0.891916	0.000121
C21	C	0.707176	-0.888958	0.000084
C22	C	0.604802	-0.890596	0.000122
N23	N	-0.124191	-0.894226	0.206638
C24	C	-0.212879	-0.623479	0.000052
C25	C	-0.211341	-0.544531	0.000062
C26	C	-0.126540	-0.513962	0.000077
C27	C	-0.043272	-0.562346	0.000090
C28	C	-0.044811	-0.641292	0.000085
C29	C	-0.037063	-0.243965	0.000110
C30	C	-0.035531	-0.165012	0.000113
C31	C	-0.203594	-0.147204	0.000088
C32	C	-0.205133	-0.226150	0.000083
C33	C	-0.121865	-0.274527	0.000100
C34	C	-0.123533	-0.360131	0.000090
C35	C	-0.124870	-0.428360	0.000082
N36	N	-0.124212	-0.894269	-0.206460
C37	C	-0.061406	-0.945607	0.248368
C38	C	-0.061406	-0.945611	0.331820
C39	C	-0.124195	-0.894238	0.373540
C40	C	-0.186982	-0.842852	0.331804
C41	C	-0.186978	-0.842844	0.248353
C42	C	-0.187001	-0.842879	0.668351
C43	C	-0.187002	-0.842892	0.751808
C44	C	-0.061428	-0.945646	0.751818
C45	C	-0.061424	-0.945639	0.668368
C46	C	-0.124208	-0.894250	0.626638
C47	C	-0.124207	-0.894245	0.536150
C48	C	-0.124201	-0.894246	0.464027
H49	H	-0.279141	-0.505145	0.000053
H50	H	-0.274186	-0.251035	0.000067
N51	N	0.006297	-1.001068	0.796829
H52	H	0.046068	-1.033615	0.757735
H53	H	-0.028966	-1.034575	0.831440
N54	N	-0.293408	-0.095026	0.000072
H55	H	-0.279571	-0.040375	0.000080
H56	H	-0.330373	-0.104940	0.049211
H57	H	-0.238134	-0.801054	0.785775
H58	H	-0.010281	-0.987449	0.365797
H59	H	-0.010298	-0.987474	0.634402
N60	N	-0.254709	-0.787452	0.623349
H61	H	-0.294485	-0.754911	0.662444
H62	H	-0.295438	-0.816471	0.588707
H63	H	-0.281934	-0.648362	0.000039
N64	N	-0.254700	-0.787435	0.376797
H65	H	-0.245179	-0.795236	0.435996
H66	H	-0.320111	-0.796264	0.362194
H67	H	0.033529	-0.140127	0.000126
H68	H	0.030739	-0.283344	0.000125
H69	H	0.022990	-0.680681	0.000093
N70	N	0.048195	-0.529380	0.000119
H71	H	0.036537	-0.472027	0.000120
H72	H	0.084625	-0.547067	-0.049022
N73	N	0.006311	-1.001022	0.203373
H74	H	0.046086	-1.033571	0.242475
H75	H	0.047040	-0.971990	0.168761
N76	N	-0.254691	-0.787423	0.203340
H77	H	-0.294469	-0.754879	0.242430
H78	H	-0.295417	-0.816446	0.168700
