data_functionalizedCrystal
_audit_creation_method	'MofGen! by Chris Wilmer'
_symmetry_space_group_name_H-M	'P1'
_symmetry_Int_Tables_number	1
_symmetry_cell_setting	triclinic
loop_
_symmetry_equiv_pos_as_xyz
  x,y,z
_cell_length_a	12.594517
_cell_length_b	12.594516
_cell_length_c	13.897441
_cell_angle_alpha	89.973623
_cell_angle_beta	89.976912
_cell_angle_gamma	90.015485
loop_
_atom_site_label
_atom_site_type_symbol
_atom_site_fract_x
_atom_site_fract_y
_atom_site_fract_z
Zn1	Zn	1.627276	-0.423724	-0.545470
Zn2	Zn	2.127276	0.076276	-0.045470
Zn3	Zn	1.627164	-0.601735	-0.384183
Zn4	Zn	2.127164	-0.101735	0.115817
Zn5	Zn	1.449277	-0.423769	-0.384182
Zn6	Zn	1.949277	0.076231	0.115818
Zn7	Zn	1.449262	-0.601659	-0.545429
Zn8	Zn	1.949262	-0.101659	-0.045429
O9	O	1.538245	-0.512722	-0.464816
O10	O	2.038245	-0.012722	0.035184
O11	O	1.776207	-0.447351	-0.524093
O12	O	2.276207	0.052649	-0.024093
O13	O	1.603527	-0.578178	-0.249201
O14	O	2.103527	-0.078178	0.250799
O15	O	1.472942	-0.274817	-0.405593
O16	O	1.972942	0.225183	0.094407
O17	O	1.776125	-0.578134	-0.405596
O18	O	2.276125	-0.078134	0.094404
O19	O	1.603717	-0.274784	-0.524091
O20	O	2.103717	0.225216	-0.024091
O21	O	1.472834	-0.447427	-0.249200
O22	O	1.972834	0.052573	0.250800
O23	O	1.300330	-0.447354	-0.405554
O24	O	1.800330	0.052646	0.094446
O25	O	1.472917	-0.578005	-0.680416
O26	O	1.972917	-0.078005	-0.180416
O27	O	1.300318	-0.578049	-0.524022
O28	O	1.800318	-0.078049	-0.024022
O29	O	1.603703	-0.447277	-0.680446
O30	O	2.103703	0.052723	-0.180446
O31	O	1.603512	-0.750671	-0.405557
O32	O	2.103512	-0.250671	0.094443
O33	O	1.472808	-0.750615	-0.524023
O34	O	1.972808	-0.250615	-0.024023
C35	C	1.261704	-0.512699	-0.464784
C36	C	1.761704	-0.012699	0.035216
C37	C	1.143399	-0.512715	-0.464793
C38	C	1.643399	-0.012715	0.035207
C39	C	1.538175	-0.789263	-0.464807
C40	C	2.038175	-0.289263	0.035193
C41	C	1.538243	-0.907568	-0.464835
C42	C	2.038243	-0.407568	0.035165
C43	C	1.003357	-0.441551	-0.400506
C44	C	1.503357	0.058449	0.099494
C45	C	1.074217	-0.415618	-0.488525
C46	C	1.574217	0.084382	0.011475
C47	C	1.074110	-0.538600	-0.376783
C48	C	1.574110	-0.038600	0.123217
C49	C	1.003473	-0.486773	-0.552929
C50	C	1.503473	0.013227	-0.052929
C51	C	1.003360	-0.609800	-0.441128
C52	C	1.503360	-0.109800	0.058872
C53	C	1.074188	-0.583904	-0.529208
C54	C	1.574188	-0.083904	-0.029208
C55	C	1.467146	-0.976830	-0.529224
C56	C	1.967146	-0.476830	-0.029224
C57	C	1.441211	-1.047695	-0.441206
C58	C	1.941211	-0.547695	0.058794
C59	C	1.564275	-1.047502	-0.552868
C60	C	2.064275	-0.547502	-0.052868
C61	C	1.512257	-0.976876	-0.376770
C62	C	2.012257	-0.476876	0.123230
C63	C	1.635365	-0.976676	-0.488492
C64	C	2.135365	-0.476676	0.011508
C65	C	1.609467	-1.047509	-0.400413
C66	C	2.109467	-0.547509	0.099587
C67	C	1.815866	-0.512746	-0.464849
C68	C	2.315866	-0.012746	0.035151
C69	C	1.934171	-0.512756	-0.464863
C70	C	2.434171	-0.012756	0.035137
C71	C	1.538321	-0.512628	-0.716409
C72	C	2.038321	-0.012628	-0.216409
C73	C	1.538353	-0.512588	-0.823623
C74	C	2.038353	-0.012588	-0.323623
C75	C	1.538344	-0.235101	-0.464847
C76	C	2.038344	0.264899	0.035153
C77	C	1.538386	-0.116796	-0.464860
C78	C	2.038386	0.383204	0.035140
C79	C	1.538382	-0.512516	-1.019919
C80	C	2.038382	-0.012516	-0.519919
C81	C	1.538362	-0.512559	-0.910686
C82	C	2.038362	-0.012559	-0.410686
C83	C	1.538231	-0.512739	-0.214202
C84	C	2.038231	-0.012739	0.285798
C85	C	1.538405	-0.512479	-0.106988
C86	C	2.038405	-0.012479	0.393012
H87	H	0.972260	-0.381308	-0.346178
H88	H	1.472260	0.118692	0.153822
H89	H	1.105090	-0.644102	-0.583666
H90	H	1.605090	-0.144102	-0.083666
H91	H	0.972213	-0.691863	-0.421051
H92	H	1.472213	-0.191863	0.078949
F93	F	1.114671	-0.567196	-0.279461
F94	F	1.614671	-0.067196	0.220539
H95	H	1.406914	-0.945795	-0.583596
H96	H	1.906914	-0.445795	-0.083596
F97	F	1.333937	-1.088467	-0.415056
F98	F	1.833937	-0.588467	0.084944
H99	H	1.490202	-0.945980	-0.302312
H100	H	1.990202	-0.445980	0.197688
H101	H	0.972573	-0.464800	-0.627410
H102	H	1.472573	0.035200	-0.127410
H103	H	1.669653	-1.078348	-0.345910
H104	H	2.169653	-0.578348	0.154090
H105	H	1.717414	-0.945460	-0.508523
H106	H	2.217414	-0.445460	-0.008523
H107	H	1.105322	-0.333528	-0.508588
H108	H	1.605322	0.166472	-0.008588
F109	F	1.592977	-1.088057	-0.650162
F110	F	2.092977	-0.588057	-0.150162
