data_functionalizedCrystal
_audit_creation_method	'MofGen! by Chris Wilmer'
_symmetry_space_group_name_H-M	'P1'
_symmetry_Int_Tables_number	1
_symmetry_cell_setting	triclinic
loop_
_symmetry_equiv_pos_as_xyz
  x,y,z
_cell_length_a	16.120490
_cell_length_b	21.295417
_cell_length_c	16.120256
_cell_angle_alpha	92.869836
_cell_angle_beta	90.129807
_cell_angle_gamma	87.121864
loop_
_atom_site_label
_atom_site_type_symbol
_atom_site_fract_x
_atom_site_fract_y
_atom_site_fract_z
Zn1	Zn	1.247403	-0.318979	-0.534503
Zn2	Zn	1.747403	0.181021	-0.034503
Zn3	Zn	1.254340	-0.419186	-0.395435
Zn4	Zn	1.754340	0.080814	0.104565
Zn5	Zn	1.115394	-0.308333	-0.388425
Zn6	Zn	1.615394	0.191667	0.111575
Zn7	Zn	1.108295	-0.418603	-0.527408
Zn8	Zn	1.608295	0.081397	-0.027408
O9	O	1.181358	-0.366276	-0.461443
O10	O	1.681358	0.133724	0.038557
O11	O	1.364689	-0.336971	-0.521959
O12	O	1.864689	0.163029	-0.021959
O13	O	1.241782	-0.400270	-0.278139
O14	O	1.741782	0.099730	0.221861
O15	O	1.132973	-0.221660	-0.407839
O16	O	1.632973	0.278340	0.092161
O17	O	1.369786	-0.410593	-0.419785
O18	O	1.869786	0.089407	0.080215
O19	O	1.229959	-0.229482	-0.515162
O20	O	1.729959	0.270518	-0.015162
O21	O	1.139699	-0.318827	-0.272989
O22	O	1.639699	0.181173	0.227011
O23	O	0.998086	-0.318262	-0.400959
O24	O	1.498086	0.181738	0.099041
O25	O	1.120874	-0.409600	-0.644715
O26	O	1.620874	0.090400	-0.144715
O27	O	0.992871	-0.399277	-0.503069
O28	O	1.492871	0.100723	-0.003069
O29	O	1.223076	-0.336406	-0.649928
O30	O	1.723076	0.163594	-0.149928
O31	O	1.234899	-0.507194	-0.412905
O32	O	1.734899	-0.007194	0.087095
O33	O	1.127601	-0.506766	-0.509866
O34	O	1.627601	-0.006766	-0.009866
C35	C	0.965306	-0.357551	-0.450484
C36	C	1.465306	0.142449	0.049516
C37	C	0.872877	-0.353835	-0.445815
C38	C	1.372877	0.146165	0.054185
C39	C	0.659910	-0.385548	-0.485661
C40	C	1.159910	0.114452	0.014339
C41	C	0.703653	-0.347055	-0.437290
C42	C	1.203653	0.152945	0.062710
C43	C	0.797818	-0.350828	-0.442035
C44	C	1.297818	0.149172	0.057965
C45	C	0.565737	-0.381776	-0.480918
C46	C	1.065737	0.118224	0.019082
C47	C	1.181254	-0.529821	-0.461395
C48	C	1.681254	-0.029821	0.038605
C49	C	1.181284	-0.599791	-0.461407
C50	C	1.681284	-0.099791	0.038593
C51	C	1.231753	-0.636673	-0.517326
C52	C	1.731753	-0.136673	-0.017326
C53	C	1.231781	-0.702418	-0.517348
C54	C	1.731781	-0.202418	-0.017348
C55	C	1.181350	-0.731277	-0.461436
C56	C	1.681350	-0.231277	0.038564
C57	C	1.130872	-0.694386	-0.405512
C58	C	1.630872	-0.194386	0.094488
C59	C	1.130839	-0.628643	-0.405498
C60	C	1.630839	-0.128643	0.094502
N61	N	1.178760	-0.831639	-0.388344
N62	N	1.678760	-0.331639	0.111656
N63	N	1.178796	-0.894092	-0.388361
N64	N	1.678796	-0.394092	0.111639
C65	C	1.181445	-0.929357	-0.461479
C66	C	1.681445	-0.429357	0.038521
N67	N	1.184074	-0.899810	-0.534582
N68	N	1.684074	-0.399810	-0.034582
N69	N	1.184042	-0.837351	-0.534564
N70	N	1.684042	-0.337351	-0.034564
C71	C	1.181380	-0.802564	-0.461446
C72	C	1.681380	-0.302564	0.038554
C73	C	1.231947	-1.037527	-0.517427
C74	C	1.731947	-0.537527	-0.017427
C75	C	1.231970	-1.103273	-0.517450
C76	C	1.731970	-0.603273	-0.017450
C77	C	1.131065	-1.095240	-0.405607
C78	C	1.631065	-0.595240	0.094393
C79	C	1.131038	-1.029496	-0.405591
C80	C	1.631038	-0.529496	0.094409
C81	C	1.181484	-1.000644	-0.461500
C82	C	1.681484	-0.500644	0.038500
C83	C	1.398253	-0.375034	-0.472445
C84	C	1.898253	0.124966	0.027555
C85	C	1.490681	-0.378767	-0.477134
C86	C	1.990681	0.121233	0.022866
C87	C	1.170409	-0.374125	-0.678337
C88	C	1.670409	0.125875	-0.178337
C89	C	1.165744	-0.377471	-0.770765
C90	C	1.665744	0.122529	-0.270765
C91	C	1.181484	-0.202093	-0.461510
C92	C	1.681484	0.297907	0.038490
C93	C	1.181537	-0.132128	-0.461538
C94	C	1.681537	0.367872	0.038462
C95	C	1.205687	-0.348815	-0.983751
C96	C	1.705687	0.151185	-0.483751
C97	C	1.157198	-0.383551	-0.939984
C98	C	1.657198	0.116449	-0.439984
C99	C	1.161954	-0.380167	-0.845822
C100	C	1.661954	0.119833	-0.345822
C101	C	1.200931	-0.352198	-1.077922
C102	C	1.700931	0.147802	-0.577922
C103	C	1.192311	-0.358413	-0.245394
C104	C	1.692311	0.141587	0.254606
C105	C	1.197138	-0.354897	-0.152976
C106	C	1.697138	0.145103	0.347024
H107	H	0.670382	-0.311266	-0.392314
H108	H	1.170382	0.188734	0.107686
H109	H	1.112108	-0.415827	-0.973233
H110	H	1.612108	0.084173	-0.473233
Cl111	Cl	0.711276	-0.440807	-0.555087
Cl112	Cl	1.211276	0.059193	-0.055087
Cl113	Cl	1.295411	-1.149640	-0.587765
Cl114	Cl	1.795411	-0.649640	-0.087765
Cl115	Cl	1.295164	-0.600405	-0.587617
Cl116	Cl	1.795164	-0.100405	-0.087617
Cl117	Cl	1.275280	-0.298972	-0.932419
Cl118	Cl	1.775280	0.201028	-0.432419
Cl119	Cl	1.295238	-0.748793	-0.587647
Cl120	Cl	1.795238	-0.248793	-0.087647
H121	H	1.089809	-0.717888	-0.359990
H122	H	1.589809	-0.217888	0.140010
Cl123	Cl	1.067387	-0.582274	-0.335193
Cl124	Cl	1.567387	-0.082274	0.164807
H125	H	1.273020	-1.014035	-0.562954
H126	H	1.773020	-0.514035	-0.062954
Cl127	Cl	1.067663	-1.131514	-0.335319
Cl128	Cl	1.567663	-0.631514	0.164681
H129	H	1.089946	-0.999464	-0.360053
H130	H	1.589946	-0.499464	0.139947
