data_functionalizedCrystal
_audit_creation_method	'MofGen! by Chris Wilmer'
_symmetry_space_group_name_H-M	'P1'
_symmetry_Int_Tables_number	1
_symmetry_cell_setting	triclinic
loop_
_symmetry_equiv_pos_as_xyz
  x,y,z
_cell_length_a	14.519709
_cell_length_b	17.699077
_cell_length_c	16.776229
_cell_angle_alpha	90.000648
_cell_angle_beta	90.008351
_cell_angle_gamma	83.480361
loop_
_atom_site_label
_atom_site_type_symbol
_atom_site_fract_x
_atom_site_fract_y
_atom_site_fract_z
O1	O	0.116600	1.004408	0.066279
O2	O	0.131779	0.784073	0.066283
O3	O	-0.010074	0.900083	0.066274
O4	O	0.258453	0.888399	0.066289
O5	O	-0.010087	0.900080	-0.066302
O6	O	0.131766	0.784071	-0.066293
O7	O	0.116587	1.004406	-0.066297
Zn8	Zn	0.124175	0.894238	-0.087345
Zn9	Zn	0.124191	0.894241	0.087331
O10	O	0.258440	0.888397	-0.066288
C11	C	0.131230	0.755873	-0.000004
C12	C	0.129601	0.671850	-0.000003
C13	C	0.128826	0.632380	-0.072271
C14	C	0.127281	0.553433	-0.072272
C15	C	0.126517	0.513957	-0.000004
C16	C	0.127289	0.553434	0.072270
C17	C	0.128827	0.632380	0.072270
C18	C	0.121082	0.235053	0.072271
C19	C	0.119547	0.156100	0.072265
C20	C	0.119536	0.156105	-0.072271
C21	C	0.121075	0.235052	-0.072271
C22	C	0.121842	0.274522	0.000002
C23	C	0.123515	0.360125	0.000002
C24	C	0.124850	0.428354	-0.000003
C25	C	-0.044438	0.899537	-0.000014
C26	C	-0.146812	0.897905	-0.000015
C27	C	-0.521682	0.891898	0.000006
C28	C	-0.417381	0.893566	0.000000
C29	C	-0.334250	0.894902	-0.000005
C30	C	-0.229943	0.896570	-0.000010
C31	C	0.292804	0.888942	0.000002
C32	C	0.395178	0.890574	0.000008
C33	C	0.117137	1.032606	-0.000008
C34	C	0.118766	1.116629	-0.000004
N35	N	0.124196	0.894243	0.206542
N36	N	0.124163	0.894242	-0.206556
C37	C	0.061507	0.945708	0.248255
C38	C	0.061505	0.945711	0.331707
C39	C	0.124188	0.894245	0.373445
C40	C	0.186883	0.842777	0.331726
C41	C	0.186889	0.842779	0.248275
C42	C	0.186861	0.842772	0.668273
C43	C	0.186848	0.842773	0.751730
C44	C	0.061476	0.945704	0.751705
C45	C	0.061482	0.945705	0.668254
C46	C	0.124181	0.894241	0.626543
C47	C	0.124184	0.894239	0.536054
C48	C	0.124181	0.894242	0.463932
H49	H	0.126660	0.521287	0.131112
C50	C	-0.062461	1.047449	0.743297
C51	C	-0.007440	1.002282	0.797556
H52	H	-0.105011	1.082372	0.771603
H53	H	-0.024043	1.074657	0.710757
H54	H	-0.095658	1.015949	0.710740
H55	H	0.025761	1.033781	0.830109
H56	H	-0.045864	0.975072	0.830109
H57	H	0.010459	0.987618	0.365669
H58	H	0.118924	0.123962	0.131118
C59	C	0.200813	0.250940	0.195476
C60	C	0.121932	0.278429	0.151714
H61	H	0.201338	0.277725	0.244521
H62	H	0.199783	0.198279	0.205809
H63	H	0.254814	0.258188	0.165779
H64	H	0.067931	0.271176	0.181409
H65	H	0.122953	0.331102	0.141383
H66	H	0.010437	0.987611	0.634274
C67	C	0.312426	0.826327	0.154457
C68	C	0.255799	0.786205	0.202424
H69	H	0.354975	0.791400	0.126156
H70	H	0.275097	0.856971	0.117660
H71	H	0.345623	0.857814	0.187029
H72	H	0.222597	0.754723	0.169851
H73	H	0.293133	0.755548	0.239225
H74	H	0.237896	0.800861	0.785711
C75	C	0.206816	0.739789	0.574437
C76	C	0.255772	0.786196	0.622433
H77	H	0.249362	0.704862	0.546133
H78	H	0.168399	0.712585	0.606983
H79	H	0.169495	0.770447	0.537635
H80	H	0.293088	0.755538	0.659239
H81	H	0.294205	0.813402	0.589883
C82	C	0.312397	0.826324	0.425604
C83	C	0.255785	0.786204	0.377605
H84	H	0.354929	0.791394	0.453930
H85	H	0.345605	0.857805	0.393058
H86	H	0.275050	0.856972	0.462387
H87	H	0.293132	0.755560	0.340818
H88	H	0.222574	0.754710	0.410154
C89	C	0.128649	0.624448	-0.215144
C90	C	0.129661	0.675768	-0.151712
H91	H	0.129156	0.651235	-0.264188
H92	H	0.181805	0.587957	-0.212137
H93	H	0.074288	0.599356	-0.212131
H94	H	0.184026	0.700856	-0.154722
H95	H	0.076500	0.712272	-0.154721
C96	C	0.123428	0.356072	-0.136448
C97	C	0.121912	0.278443	-0.151710
H98	H	0.123947	0.382858	-0.185492
H99	H	0.069929	0.374705	-0.106759
H100	H	0.177446	0.363300	-0.106752
H101	H	0.067890	0.271215	-0.181401
H102	H	0.175416	0.259805	-0.181411
C103	C	0.046279	0.473080	-0.156138
C104	C	0.126419	0.510055	-0.151716
H105	H	0.045741	0.446308	-0.205189
H106	H	0.045610	0.438269	-0.113109
H107	H	-0.006867	0.509593	-0.153126
H108	H	0.179565	0.473541	-0.154722
H109	H	0.127097	0.544869	-0.194757
H110	H	0.118908	0.123960	-0.131120
C111	C	0.131184	0.753400	0.136449
C112	C	0.129679	0.675770	0.151709
H113	H	0.131701	0.780186	0.185494
H114	H	0.185190	0.760633	0.106766
H115	H	0.077673	0.772031	0.106749
H116	H	0.183194	0.657138	0.181405
H117	H	0.075668	0.668533	0.181405
C118	C	-0.062423	1.047454	0.256621
C119	C	-0.007401	1.002280	0.202381
H120	H	-0.104961	1.082382	0.228301
H121	H	-0.095625	1.015964	0.289163
H122	H	-0.023998	1.074661	0.289178
H123	H	-0.045826	0.975068	0.169828
H124	H	0.025803	1.033774	0.169826
