data_functionalizedCrystal
_audit_creation_method	'MofGen! by Chris Wilmer'
_symmetry_space_group_name_H-M	'P1'
_symmetry_Int_Tables_number	1
_symmetry_cell_setting	triclinic
loop_
_symmetry_equiv_pos_as_xyz
  x,y,z
_cell_length_a	25.639242
_cell_length_b	25.639240
_cell_length_c	12.759393
_cell_angle_alpha	89.955765
_cell_angle_beta	89.969545
_cell_angle_gamma	90.028283
loop_
_atom_site_label
_atom_site_type_symbol
_atom_site_fract_x
_atom_site_fract_y
_atom_site_fract_z
Zn1	Zn	0.799289	-0.208182	-0.594224
Zn2	Zn	0.799209	-0.295629	-0.418505
Zn3	Zn	0.711853	-0.208203	-0.418527
Zn4	Zn	0.711820	-0.295582	-0.594110
O5	O	0.755543	-0.251899	-0.506341
O6	O	0.872444	-0.219794	-0.570953
O7	O	0.787602	-0.284060	-0.271487
O8	O	0.723499	-0.135035	-0.441890
O9	O	0.872385	-0.284040	-0.441853
O10	O	0.787738	-0.135020	-0.570974
O11	O	0.723421	-0.219828	-0.271503
O12	O	0.638683	-0.219782	-0.441780
O13	O	0.723443	-0.283960	-0.741146
O14	O	0.638659	-0.283979	-0.570780
O15	O	0.787706	-0.219748	-0.741230
O16	O	0.787569	-0.368788	-0.441743
O17	O	0.723365	-0.368753	-0.570759
C18	C	0.619700	-0.251878	-0.506270
C19	C	0.561586	-0.251882	-0.506265
C20	C	0.201219	-0.285382	-0.573448
C21	C	0.146615	-0.285385	-0.573465
O22	O	0.118375	-0.313843	-0.630526
N23	N	0.119304	-0.251913	-0.506410
C24	C	0.146600	-0.218432	-0.439342
O25	O	0.118355	-0.189961	-0.382309
C26	C	0.201203	-0.218427	-0.439331
C27	C	0.228511	-0.251905	-0.506383
C28	C	0.228528	-0.318857	-0.640495
C29	C	0.283128	-0.318854	-0.640477
C30	C	0.310421	-0.285377	-0.573412
C31	C	0.283112	-0.251902	-0.506365
C32	C	0.228498	-0.184943	-0.372269
C33	C	0.283105	-0.184940	-0.372265
C34	C	0.310413	-0.218418	-0.439317
C35	C	0.365005	-0.218422	-0.439281
N36	N	0.392316	-0.251894	-0.506336
C37	C	0.365024	-0.285371	-0.573401
C38	C	0.031929	-0.218445	-0.439370
C39	C	-0.022673	-0.218453	-0.439375
C40	C	-0.022654	-0.285406	-0.573499
C41	C	0.031949	-0.285400	-0.573489
C42	C	0.059240	-0.251917	-0.506425
C43	C	0.479689	-0.285364	-0.573357
C44	C	0.534294	-0.285360	-0.573330
C45	C	0.534270	-0.218405	-0.439210
C46	C	0.479670	-0.218411	-0.439233
C47	C	0.452380	-0.251892	-0.506315
O48	O	0.393279	-0.189977	-0.382252
O49	O	0.393275	-0.313833	-0.630435
C50	C	0.755469	-0.387741	-0.506259
C51	C	0.755485	-0.445856	-0.506259
C52	C	0.789009	-0.806172	-0.573677
C53	C	0.789024	-0.860777	-0.573698
O54	O	0.817439	-0.888974	-0.630934
N55	N	0.755615	-0.888138	-0.506443
C56	C	0.722185	-0.860892	-0.439170
O57	O	0.693770	-0.889179	-0.381967
C58	C	0.722168	-0.806289	-0.439154
C59	C	0.755582	-0.778930	-0.506406
C60	C	0.822420	-0.778814	-0.640924
C61	C	0.822406	-0.724213	-0.640901
C62	C	0.788979	-0.696971	-0.573631
C63	C	0.755568	-0.724330	-0.506383
C64	C	0.688735	-0.779044	-0.371887
C65	C	0.688720	-0.724437	-0.371878
C66	C	0.722135	-0.697078	-0.439130
C67	C	0.722126	-0.642487	-0.439090
N68	N	0.755535	-0.615126	-0.506345
C69	C	0.788961	-0.642368	-0.573615
C70	C	0.722224	-0.975563	-0.439208
C71	C	0.722244	-1.030165	-0.439217
C72	C	0.789083	-1.030046	-0.573747
C73	C	0.789065	-0.975442	-0.573732
C74	C	0.755633	-0.948201	-0.506463
C75	C	0.788928	-0.527703	-0.573561
C76	C	0.788912	-0.473097	-0.573529
C77	C	0.722072	-0.473222	-0.439004
C78	C	0.722090	-0.527822	-0.439031
C79	C	0.755520	-0.555061	-0.506319
O80	O	0.693724	-0.614255	-0.381886
O81	O	0.817368	-0.614074	-0.630819
C82	C	0.891916	-0.251920	-0.506414
C83	C	0.950030	-0.251929	-0.506444
C84	C	0.755580	-0.251846	-0.780375
C85	C	0.755595	-0.251824	-0.897152
C86	C	0.755631	-0.115526	-0.506447
C87	C	0.755669	-0.057412	-0.506492
C88	C	0.789062	-0.218385	-0.952059
C89	C	0.789074	-0.218366	-1.061783
C90	C	0.722152	-0.285229	-1.061683
C91	C	0.722137	-0.285245	-0.951961
C92	C	0.822520	-0.184964	-0.897250
C93	C	0.855989	-0.151524	-0.952157
C94	C	0.856002	-0.151505	-1.061881
C95	C	0.822545	-0.184927	-1.116698
C96	C	0.755537	-0.251914	-0.233374
C97	C	0.755622	-0.251789	-0.116598
H98	H	0.556501	-0.191150	-0.384604
H99	H	0.849613	-0.701941	-0.695666
Br100	Br	0.834415	-0.938319	-0.665005
H101	H	0.457434	-0.191151	-0.384632
Br102	Br	0.822553	-0.184891	-1.265611
Br103	Br	0.068962	-0.173003	-0.348340
Br104	Br	0.191499	-0.364297	-0.731526
Br105	Br	0.191450	-0.139503	-0.281270
Br106	Br	0.676750	-0.330585	-1.136077
Br107	Br	0.320140	-0.139495	-0.281248
H108	H	0.694858	-0.451033	-0.384230
H109	H	-0.044885	-0.312663	-0.628111
H110	H	0.694878	-0.312465	-0.907254
H111	H	0.849640	-0.800988	-0.695710
H112	H	-0.044903	-0.191197	-0.384764
Br113	Br	0.834265	-0.435971	-0.664802
H114	H	0.822514	-0.184977	-0.807907
Br115	Br	0.834298	-0.564662	-0.664879
Br116	Br	0.901424	-0.106123	-1.136397
H117	H	0.816299	-1.052236	-0.628525
H118	H	0.457476	-0.312626	-0.627984
Br119	Br	0.571353	-0.330799	-0.664330
Br120	Br	0.320181	-0.364289	-0.731485
H121	H	0.054180	-0.312660	-0.628090
H122	H	0.695040	-1.052436	-0.384443
Br123	Br	0.901383	-0.106158	-0.877767
Br124	Br	0.643345	-0.687470	-0.280581
Br125	Br	0.676851	-0.938598	-0.347900
Br126	Br	0.643383	-0.816160	-0.280613
H127	H	0.694885	-0.550099	-0.384261
