data_functionalizedCrystal
_audit_creation_method	'MofGen! by Chris Wilmer'
_symmetry_space_group_name_H-M	'P1'
_symmetry_Int_Tables_number	1
_symmetry_cell_setting	triclinic
loop_
_symmetry_equiv_pos_as_xyz
  x,y,z
_cell_length_a	19.805407
_cell_length_b	17.640280
_cell_length_c	19.805399
_cell_angle_alpha	101.223110
_cell_angle_beta	90.019573
_cell_angle_gamma	78.800112
loop_
_atom_site_label
_atom_site_type_symbol
_atom_site_fract_x
_atom_site_fract_y
_atom_site_fract_z
Zn1	Zn	1.089281	-0.314680	0.328317
Zn2	Zn	1.422614	0.018654	0.661651
Zn3	Zn	1.755947	0.351987	0.994984
Zn4	Zn	1.112106	-0.446853	0.192279
Zn5	Zn	1.445439	-0.113520	0.525612
Zn6	Zn	1.778772	0.219813	0.858945
Zn7	Zn	0.976099	-0.314701	0.215138
Zn8	Zn	1.309432	0.018632	0.548471
Zn9	Zn	1.642766	0.351965	0.881805
Zn10	Zn	0.998962	-0.446811	0.305433
Zn11	Zn	1.332295	-0.113478	0.638766
Zn12	Zn	1.665628	0.219855	0.972099
O13	O	1.044112	-0.380761	0.260292
O14	O	1.377445	-0.047428	0.593625
O15	O	1.710778	0.285905	0.926958
O16	O	1.187026	-0.332221	0.310282
O17	O	1.520360	0.001112	0.643615
O18	O	1.853693	0.334446	0.976949
O19	O	1.094048	-0.429350	0.100590
O20	O	1.427382	-0.096017	0.433923
O21	O	1.760715	0.237317	0.767256
O22	O	0.971992	-0.204095	0.249296
O23	O	1.305326	0.129239	0.582629
O24	O	1.638659	0.462572	0.915962
O25	O	1.203796	-0.429329	0.210335
O26	O	1.537129	-0.095995	0.543668
O27	O	1.870463	0.237338	0.877002
O28	O	1.055146	-0.204079	0.332448
O29	O	1.388480	0.129255	0.665781
O30	O	1.721813	0.462588	0.999115
O31	O	0.994125	-0.332258	0.117385
O32	O	1.327458	0.001075	0.450718
O33	O	1.660791	0.334408	0.784051
O34	O	0.884414	-0.332218	0.227105
O35	O	1.217747	0.001116	0.560439
O36	O	1.551080	0.334449	0.893772
O37	O	1.010958	-0.429257	0.403190
O38	O	1.344292	-0.095924	0.736523
O39	O	1.677625	0.237410	1.069856
O40	O	0.901211	-0.429278	0.293444
O41	O	1.234544	-0.095945	0.626778
O42	O	1.567878	0.237388	0.960111
O43	O	1.077315	-0.332180	0.420003
O44	O	1.410649	0.001153	0.753336
O45	O	1.743982	0.334486	1.086670
O46	O	1.116217	-0.557452	0.188145
O47	O	1.449551	-0.224118	0.521478
O48	O	1.782884	0.109215	0.854811
O49	O	1.033091	-0.557421	0.271278
O50	O	1.366424	-0.224087	0.604612
O51	O	1.699758	0.109246	0.937945
C52	C	0.868253	-0.380746	0.260272
C53	C	1.201586	-0.047413	0.593606
C54	C	1.534920	0.285920	0.926939
C55	C	0.793023	-0.380759	0.260277
C56	C	1.126357	-0.047426	0.593610
C57	C	1.459690	0.285908	0.926944
C58	C	0.766456	-0.431374	0.294736
C59	C	1.099790	-0.098041	0.628070
C60	C	1.433123	0.235292	0.961403
C61	C	0.695768	-0.431376	0.294746
C62	C	1.029101	-0.098042	0.628079
C63	C	1.362435	0.235291	0.961412
C64	C	0.651649	-0.380765	0.260291
C65	C	0.984982	-0.047432	0.593624
C66	C	1.318315	0.285902	0.926958
C67	C	0.678220	-0.330144	0.225831
C68	C	1.011553	0.003189	0.559164
C69	C	1.344886	0.336523	0.892497
C70	C	0.748906	-0.330139	0.225826
C71	C	1.082239	0.003194	0.559159
C72	C	1.415573	0.336528	0.892492
C73	C	0.393149	-0.330161	0.225850
C74	C	0.726483	0.003172	0.559183
C75	C	1.059816	0.336505	0.892517
C76	C	0.322459	-0.330172	0.225856
C77	C	0.655792	0.003162	0.559189
C78	C	0.989126	0.336495	0.892522
C79	C	0.340012	-0.431398	0.294770
C80	C	0.673345	-0.098065	0.628103
C81	C	1.006678	0.235269	0.961437
C82	C	0.410698	-0.431393	0.294765
C83	C	0.744031	-0.098060	0.628098
C84	C	1.077365	0.235273	0.961432
C85	C	0.437262	-0.380770	0.260308
C86	C	0.770596	-0.047436	0.593641
C87	C	1.103929	0.285897	0.926975
C88	C	0.513910	-0.380768	0.260299
C89	C	0.847244	-0.047434	0.593633
C90	C	1.180577	0.285899	0.926966
C91	C	0.575003	-0.380770	0.260295
C92	C	0.908336	-0.047437	0.593628
C93	C	1.241669	0.285896	0.926962
C94	C	1.079630	-0.586114	0.224762
C95	C	1.412964	-0.252781	0.558096
C96	C	1.746297	0.080552	0.891429
C97	C	1.094887	-0.673965	0.209586
C98	C	1.428221	-0.340632	0.542919
C99	C	1.761554	-0.007299	0.876252
C100	C	0.928484	-0.962953	0.375835
C101	C	1.261817	-0.629620	0.709169
C102	C	1.595151	-0.296286	1.042502
C103	C	0.942822	-1.045502	0.361553
C104	C	1.276155	-0.712169	0.694886
C105	C	1.609488	-0.378836	1.028219
C106	C	1.029435	-1.045469	0.275073
C107	C	1.362768	-0.712136	0.608406
C108	C	1.696101	-0.378802	0.941740
C109	C	1.015107	-0.962918	0.289351
C110	C	1.348440	-0.629585	0.622684
C111	C	1.681774	-0.296251	0.956017
C112	C	0.964630	-0.921667	0.339732
C113	C	1.297964	-0.588333	0.673065
C114	C	1.631297	-0.255000	1.006399
C115	C	1.051253	-0.921632	0.253247
C116	C	1.384586	-0.588298	0.586581
C117	C	1.717920	-0.254965	0.919914
C118	C	1.036924	-0.839088	0.267522
C119	C	1.370257	-0.505754	0.600855
C120	C	1.703590	-0.172421	0.934188
C121	C	0.986448	-0.797831	0.317899
C122	C	1.319781	-0.464497	0.651232
C123	C	1.653114	-0.131164	0.984566
C124	C	0.950301	-0.839123	0.354006
C125	C	1.283634	-0.505789	0.687340
C126	C	1.616967	-0.172456	1.020673
C127	C	1.101726	-0.962885	0.202863
C128	C	1.435059	-0.629551	0.536196
C129	C	1.768393	-0.296218	0.869530
C130	C	1.137872	-0.921598	0.166760
C131	C	1.471206	-0.588265	0.500093
C132	C	1.804539	-0.254931	0.833426
C133	C	1.123546	-0.839053	0.181037
C134	C	1.456880	-0.505720	0.514370
C135	C	1.790213	-0.172386	0.847704
C136	C	1.073071	-0.797796	0.231415
C137	C	1.406404	-0.464462	0.564748
C138	C	1.739737	-0.131129	0.898081
C139	C	1.159693	-0.797761	0.144930
C140	C	1.493027	-0.464427	0.478263
C141	C	1.826360	-0.131094	0.811597
C142	C	1.145364	-0.715217	0.159204
C143	C	1.478697	-0.381884	0.492538
C144	C	1.812031	-0.048550	0.825871
C145	C	1.058741	-0.715252	0.245689
C146	C	1.392074	-0.381918	0.579022
C147	C	1.725408	-0.048585	0.912355
C148	C	1.220657	-0.380777	0.260311
C149	C	1.553990	-0.047444	0.593645
C150	C	1.887324	0.285890	0.926978
C151	C	1.295890	-0.380784	0.260320
C152	C	1.629224	-0.047451	0.593653
C153	C	1.962557	0.285883	0.926986
C154	C	1.044141	-0.380712	0.436843
C155	C	1.377474	-0.047378	0.770176
C156	C	1.710808	0.285955	1.103510
C157	C	1.044154	-0.380690	0.512079
C158	C	1.377487	-0.047357	0.845412
C159	C	1.710820	0.285976	1.178745
C160	C	1.008473	-0.174606	0.295974
C161	C	1.341806	0.158727	0.629308
C162	C	1.675139	0.492060	0.962641
C163	C	0.993286	-0.086756	0.311180
C164	C	1.326619	0.246578	0.644514
C165	C	1.659952	0.579911	0.977847
C166	C	1.044112	-0.380754	0.084437
C167	C	1.377445	-0.047421	0.417770
C168	C	1.710778	0.285913	0.751104
C169	C	1.044192	-0.380553	0.009240
C170	C	1.377525	-0.047219	0.342574
C171	C	1.710858	0.286114	0.675907
C172	C	1.078706	-0.330140	0.556179
C173	C	1.412039	0.003193	0.889512
C174	C	1.745373	0.336527	1.222846
C175	C	1.078709	-0.330117	0.626872
C176	C	1.412042	0.003216	0.960205
C177	C	1.745376	0.336550	1.293538
C178	C	1.044163	-0.380649	0.653462
C179	C	1.377497	-0.047316	0.986795
C180	C	1.710830	0.286018	1.320128
C181	C	1.009606	-0.431202	0.609356
C182	C	1.342940	-0.097868	0.942689
C183	C	1.676273	0.235465	1.276023
C184	C	1.009600	-0.431220	0.538666
C185	C	1.342933	-0.097887	0.871999
C186	C	1.676266	0.235447	1.205332
C187	C	1.009632	-0.431128	0.894442
C188	C	1.342965	-0.097795	1.227775
C189	C	1.676298	0.235539	1.561109
C190	C	1.009643	-0.431107	0.965138
C191	C	1.342976	-0.097774	1.298471
C192	C	1.676309	0.235559	1.631804
C193	C	1.078741	-0.330025	0.982648
C194	C	1.412075	0.003308	1.315981
C195	C	1.745408	0.336642	1.649315
C196	C	1.078735	-0.330043	0.911958
C197	C	1.412068	0.003290	1.245291
C198	C	1.745401	0.336623	1.578624
C199	C	1.044175	-0.380593	0.867859
C200	C	1.377508	-0.047259	1.201192
C201	C	1.710841	0.286074	1.534525
C202	C	1.044171	-0.380616	0.791206
C203	C	1.377504	-0.047283	1.124540
C204	C	1.710838	0.286051	1.457873
C205	C	1.044171	-0.380631	0.730112
C206	C	1.377504	-0.047297	1.063445
C207	C	1.710837	0.286036	1.396779
H208	H	0.802375	-0.472590	0.322791
H209	H	1.135708	-0.139257	0.656124
H210	H	1.469041	0.194076	0.989457
H211	H	1.106847	-0.288956	0.662776
H212	H	1.440181	0.044377	0.996109
H213	H	1.773514	0.377711	1.329442
Br214	Br	0.303957	-0.500105	0.341533
Br215	Br	0.637290	-0.166772	0.674866
Br216	Br	0.970624	0.166562	1.008199
H217	H	0.981455	-0.472375	0.502760
H218	H	1.314788	-0.139042	0.836094
H219	H	1.648122	0.194291	1.169427
Br220	Br	0.962728	-0.499729	0.834603
Br221	Br	1.296061	-0.166396	1.167936
Br222	Br	1.629394	0.166937	1.501269
H223	H	1.106868	-0.288898	0.890312
H224	H	1.440201	0.044436	1.223645
H225	H	1.773535	0.377769	1.556979
Br226	Br	0.618343	-0.261449	0.179078
Br227	Br	0.951676	0.071884	0.512411
Br228	Br	1.285009	0.405217	0.845744
Br229	Br	1.125644	-0.261420	1.042501
Br230	Br	1.458977	0.071914	1.375834
Br231	Br	1.792310	0.405247	1.709167
H232	H	0.981509	-0.472258	0.986784
H233	H	1.314842	-0.138925	1.320117
H234	H	1.648175	0.194408	1.653451
Br235	Br	1.206374	-0.977589	0.098388
Br236	Br	1.539708	-0.644256	0.431721
Br237	Br	1.873041	-0.310922	0.765055
Br238	Br	0.659715	-0.500069	0.341516
Br239	Br	0.993049	-0.166736	0.674850
Br240	Br	1.326382	0.166597	1.008183
H241	H	0.981475	-0.472343	0.631011
H242	H	1.314809	-0.139010	0.964345
H243	H	1.648142	0.194324	1.297678
H244	H	1.070531	-1.079067	0.234051
H245	H	1.403864	-0.745734	0.567384
H246	H	1.737198	-0.412401	0.900717
Br247	Br	0.784961	-0.261439	0.179062
Br248	Br	1.118294	0.071894	0.512395
Br249	Br	1.451628	0.405227	0.845729
H250	H	0.446618	-0.472609	0.322819
H251	H	0.779951	-0.139275	0.656152
H252	H	1.113284	0.194058	0.989486
Br253	Br	0.429192	-0.261453	0.179091
Br254	Br	0.762525	0.071880	0.512424
Br255	Br	1.095858	0.405213	0.845758
Br256	Br	0.262582	-0.261481	0.179092
Br257	Br	0.595915	0.071852	0.512425
Br258	Br	0.929249	0.405185	0.845759
Br259	Br	0.990245	-0.659260	0.314073
Br260	Br	1.323578	-0.325926	0.647406
Br261	Br	1.656911	0.007407	0.980740
Br262	Br	0.881804	-0.783131	0.422390
Br263	Br	1.215138	-0.449797	0.755724
Br264	Br	1.548471	-0.116464	1.089057
H265	H	1.113393	-1.030097	0.191244
H266	H	1.446726	-0.696764	0.524578
H267	H	1.780060	-0.363430	0.857911
Br268	Br	0.893750	-1.101533	0.410546
Br269	Br	1.227083	-0.768199	0.743879
Br270	Br	1.560416	-0.434866	1.077212
Br271	Br	1.228188	-0.853754	0.076552
Br272	Br	1.561522	-0.520421	0.409885
Br273	Br	1.894855	-0.187087	0.743219
Br274	Br	0.859988	-0.906961	0.444219
Br275	Br	1.193321	-0.573628	0.777553
Br276	Br	1.526654	-0.240294	1.110886
H277	H	0.974777	-0.730618	0.329515
H278	H	1.308110	-0.397285	0.662849
H279	H	1.641444	-0.063951	0.996182
Br280	Br	1.125599	-0.261563	0.520099
Br281	Br	1.458932	0.071770	0.853432
Br282	Br	1.792265	0.405104	1.186766
Br283	Br	1.194410	-0.659180	0.110198
Br284	Br	1.527744	-0.325847	0.443531
Br285	Br	1.861077	0.007487	0.776865
