data_functionalizedCrystal
_audit_creation_method	'MofGen! by Chris Wilmer'
_symmetry_space_group_name_H-M	'P1'
_symmetry_Int_Tables_number	1
_symmetry_cell_setting	triclinic
loop_
_symmetry_equiv_pos_as_xyz
  x,y,z
_cell_length_a	16.992694
_cell_length_b	14.971486
_cell_length_c	13.448316
_cell_angle_alpha	90.006811
_cell_angle_beta	90.000967
_cell_angle_gamma	87.141176
loop_
_atom_site_label
_atom_site_type_symbol
_atom_site_fract_x
_atom_site_fract_y
_atom_site_fract_z
O1	O	-1.040572	-0.189676	-0.082568
O2	O	-0.812284	-0.187596	-0.082598
O3	O	-0.932547	-0.058866	-0.082575
O4	O	-0.920309	-0.318406	-0.082591
O5	O	-0.932531	-0.058856	0.082809
O6	O	-0.812269	-0.187586	0.082786
O7	O	-1.040556	-0.189667	0.082816
Cu8	Cu	-0.926411	-0.188626	0.097902
Cu9	Cu	-0.926429	-0.188637	-0.097684
O10	O	-0.920294	-0.318397	0.082793
C11	C	-0.931992	-0.025498	0.000116
C12	C	-0.930352	0.073914	0.000115
C13	C	-0.783062	-0.184914	0.000091
C14	C	-0.696010	-0.176927	0.000080
C15	C	-1.069779	-0.192349	0.000125
C16	C	-1.156831	-0.200336	0.000130
C17	C	-0.645842	-0.253991	0.000076
C18	C	-0.564048	-0.246481	0.000090
C19	C	-0.532424	-0.161906	0.000101
C20	C	-0.582599	-0.084836	0.000108
C21	C	-0.664391	-0.092347	0.000101
C22	C	-0.288797	-0.130776	0.000129
C23	C	-0.206999	-0.123271	0.000133
C24	C	-0.188454	-0.284917	0.000117
C25	C	-0.270248	-0.292421	0.000104
C26	C	-0.320416	-0.215351	0.000117
N27	N	-0.448818	-0.154227	0.000112
N28	N	-0.404020	-0.223030	0.000112
C29	C	-0.920849	-0.351765	0.000099
C30	C	-0.922489	-0.451177	0.000094
N31	N	-0.926405	-0.188618	0.235466
C32	C	-1.001003	0.126176	0.000125
C33	C	-0.999457	0.219584	0.000115
C34	C	-0.927260	0.260729	0.000102
C35	C	-0.856603	0.208461	0.000089
C36	C	-0.858150	0.115054	0.000092
C37	C	-0.853385	0.403149	0.000085
C38	C	-0.851838	0.496562	0.000084
C39	C	-0.994692	0.507679	0.000108
C40	C	-0.996239	0.414272	0.000111
C41	C	-0.925582	0.362011	0.000100
N42	N	-0.926442	-0.188638	-0.235248
C43	C	-0.979673	-0.131642	0.287516
C44	C	-0.979678	-0.131642	0.391620
C45	C	-0.926417	-0.188622	0.443671
C46	C	-0.873143	-0.245600	0.391613
C47	C	-0.873135	-0.245595	0.287512
C48	C	-0.873165	-0.245607	0.608593
C49	C	-0.873174	-0.245614	0.712702
C50	C	-0.979708	-0.131654	0.712701
C51	C	-0.979700	-0.131649	0.608600
C52	C	-0.926426	-0.188629	0.556549
H53	H	-0.523204	-0.309235	0.000086
H54	H	-1.056988	0.262131	0.000125
C55	C	-1.037536	-0.069678	0.231188
C56	C	-1.084172	-0.019764	0.299059
C57	C	-1.137476	0.037338	0.247210
H58	H	-1.070278	-0.104109	0.190563
H59	H	-1.009312	-0.030356	0.190612
H60	H	-1.112393	-0.059081	0.339618
H61	H	-1.051452	0.014685	0.339687
H62	H	-1.109252	0.076660	0.206633
H63	H	-1.170212	0.002900	0.206586
H64	H	-1.169120	0.071217	0.293252
C65	C	-1.079470	0.081676	0.000085
C66	C	-1.141012	0.147442	0.000062
C67	C	-1.213309	0.106486	0.000006
H68	H	-1.083154	0.045481	0.057742
H69	H	-1.083088	0.045486	-0.057611
H70	H	-1.137395	0.183617	0.057752
H71	H	-1.137354	0.183641	-0.057592
H72	H	-1.216927	0.070296	-0.057690
H73	H	-1.216984	0.070292	0.057665
H74	H	-1.255073	0.151101	-0.000019
C75	C	-1.037512	-0.069642	0.769077
C76	C	-1.024739	0.019178	0.743749
C77	C	-1.077982	0.076320	0.795655
H78	H	-1.029948	-0.077678	0.838546
H79	H	-1.089864	-0.083088	0.751982
H80	H	-0.972399	0.032619	0.760851
H81	H	-1.032309	0.027242	0.674288
H82	H	-1.130334	0.062874	0.778560
H83	H	-1.070413	0.068277	0.865122
H84	H	-1.069327	0.136590	0.778470
C85	C	-0.343347	-0.047175	-0.000026
C86	C	-0.390856	-0.046777	-0.085104
C87	C	-0.441127	0.030222	-0.085277
H88	H	-0.312892	0.004333	-0.000076
H89	H	-0.375688	-0.046730	0.057614
H90	H	-0.358519	-0.047213	-0.142729
H91	H	-0.421329	-0.098266	-0.085072
H92	H	-0.473468	0.030667	-0.027636
H93	H	-0.410665	0.081723	-0.085324
H94	H	-0.473373	0.030498	-0.142996
C95	C	-0.718732	-0.008570	0.000048
C96	C	-0.673533	0.067106	0.000031
C97	C	-0.723564	0.144299	-0.000027
H98	H	-0.751045	-0.008010	0.057703
H99	H	-0.751011	-0.008094	-0.057650
H100	H	-0.641268	0.066630	0.057724
H101	H	-0.641223	0.066576	-0.057620
H102	H	-0.755843	0.144775	-0.057726
H103	H	-0.755874	0.144849	0.057628
H104	H	-0.692904	0.195654	-0.000048
H105	H	-0.829781	-0.292003	0.566217
C106	C	-1.074703	0.369766	0.000079
C107	C	-1.136250	0.435524	0.000061
C108	C	-1.208543	0.394558	0.000016
H109	H	-1.078378	0.333572	0.057738
H110	H	-1.078322	0.333574	-0.057616
H111	H	-1.132633	0.471701	0.057749
H112	H	-1.132601	0.471722	-0.057594
H113	H	-1.212162	0.358366	-0.057678
H114	H	-1.212210	0.358365	0.057676
H115	H	-1.250311	0.439169	-0.000005
H116	H	-0.793049	0.530059	0.000090
H117	H	-1.023053	-0.085248	0.433999
C118	C	-0.776587	0.346561	0.000122
C119	C	-0.713028	0.402583	0.000139
C120	C	-0.642273	0.350486	0.000190
H121	H	-0.774115	0.309872	-0.057535
H122	H	-0.774173	0.309915	0.057819
H123	H	-0.715441	0.439214	-0.057552
H124	H	-0.715475	0.439271	0.057791
H125	H	-0.639859	0.313840	0.057887
H126	H	-0.639808	0.313800	-0.057468
H127	H	-0.599140	0.388489	0.000210
H128	H	-1.023072	-0.085257	0.566220
H129	H	-0.800618	0.072504	0.000084
H130	H	-0.797819	0.241968	0.000073
C131	C	-0.815248	-0.307495	0.769037
C132	C	-0.768568	-0.357367	0.701175
C133	C	-0.715187	-0.414367	0.753035
H134	H	-0.843387	-0.346854	0.809644
H135	H	-0.782549	-0.272965	0.809633
H136	H	-0.801263	-0.391894	0.660597
H137	H	-0.740411	-0.318031	0.660566
H138	H	-0.682488	-0.379838	0.793631
H139	H	-0.743333	-0.453720	0.793640
H140	H	-0.683504	-0.448206	0.706999
H141	H	-1.052223	0.550235	0.000114
C142	C	-0.815224	-0.307494	0.447942
C143	C	-0.768555	-0.357371	0.380073
C144	C	-0.715184	-0.414390	0.431925
H145	H	-0.843371	-0.346850	0.488545
H146	H	-0.782517	-0.272978	0.488541
H147	H	-0.801258	-0.391885	0.339492
H148	H	-0.740391	-0.318039	0.339468
H149	H	-0.682477	-0.379873	0.472524
H150	H	-0.743338	-0.453739	0.472526
H151	H	-0.683508	-0.448232	0.385884
H152	H	-0.671583	-0.322861	0.000066
H153	H	-0.556844	-0.015973	0.000131
H154	H	-0.147599	-0.347663	0.000110
C155	C	-0.304609	-0.384232	-0.000141
C156	C	-0.350990	-0.393260	-0.085260
C157	C	-0.382641	-0.477832	-0.085545
H158	H	-0.336194	-0.390641	0.057451
H159	H	-0.263027	-0.429070	-0.000204
H160	H	-0.392567	-0.348434	-0.085187
H161	H	-0.319424	-0.386868	-0.142865
H162	H	-0.341059	-0.522671	-0.085609
H163	H	-0.414222	-0.484234	-0.027950
H164	H	-0.414108	-0.483972	-0.143301
H165	H	-0.181255	-0.054397	0.000141
H166	H	-0.829757	-0.291989	0.245133
