data_functionalizedCrystal
_audit_creation_method	'MofGen! by Chris Wilmer'
_symmetry_space_group_name_H-M	'P1'
_symmetry_Int_Tables_number	1
_symmetry_cell_setting	triclinic
loop_
_symmetry_equiv_pos_as_xyz
  x,y,z
_cell_length_a	15.944551
_cell_length_b	9.065218
_cell_length_c	15.021413
_cell_angle_alpha	89.993303
_cell_angle_beta	90.000521
_cell_angle_gamma	95.742688
loop_
_atom_site_label
_atom_site_type_symbol
_atom_site_fract_x
_atom_site_fract_y
_atom_site_fract_z
O1	O	1.115966	-0.190280	0.073935
O2	O	0.871594	-0.213738	0.073957
O3	O	0.998831	0.012751	0.073944
O4	O	0.988729	-0.416770	0.073949
O5	O	0.998819	0.012775	-0.074120
O6	O	0.871582	-0.213715	-0.074107
O7	O	1.115954	-0.190257	-0.074129
Zn8	Zn	0.993766	-0.201982	-0.097626
Zn9	Zn	0.993782	-0.202013	0.097455
O10	O	0.988717	-0.416746	-0.074116
C11	C	0.840287	-0.212753	-0.000072
C12	C	0.747019	-0.209833	-0.000064
C13	C	0.997854	0.067727	-0.000087
C14	C	0.994951	0.231502	-0.000082
N15	N	0.993762	-0.201960	-0.230764
C16	C	0.531045	-0.062466	-0.000083
C17	C	0.470549	-0.130910	0.072922
C18	C	0.576253	-0.204551	-0.000074
C19	C	0.470561	-0.130920	-0.073058
C20	C	0.411301	-0.199439	-0.000088
C21	C	0.516985	-0.273034	0.072990
C22	C	0.517003	-0.273025	-0.073055
C23	C	0.456525	-0.341573	-0.000033
C24	C	0.671277	-0.207493	-0.000065
C25	C	0.316278	-0.196509	-0.000091
C26	C	1.147261	-0.191242	-0.000097
C27	C	1.240530	-0.194162	-0.000100
C28	C	0.989694	-0.471722	-0.000083
C29	C	0.992597	-0.635497	-0.000082
C30	C	1.052144	-0.096400	-0.529761
C31	C	1.070138	-0.229305	-0.470395
C32	C	0.993783	-0.202005	-0.587801
C33	C	0.975818	-0.069081	-0.470425
C34	C	0.993775	-0.201976	-0.412377
C35	C	1.011815	-0.334977	-0.529741
C36	C	0.917461	-0.174666	-0.529777
C37	C	0.935424	-0.307668	-0.470437
C38	C	0.993789	-0.202020	-0.688858
C39	C	0.993768	-0.201976	-0.311321
N40	N	0.993792	-0.202023	0.230592
H41	H	0.563485	0.055454	0.000007
H42	H	0.449989	-0.070823	0.134640
N43	N	0.542640	-0.348411	0.150487
N44	N	0.618898	-0.362783	0.163009
H45	H	0.637019	-0.416025	0.217737
N46	N	0.416042	-0.489647	0.000044
N47	N	0.367443	-0.532520	0.062184
H48	H	0.338850	-0.637097	0.062248
H49	H	0.537584	-0.333062	-0.134777
H50	H	1.027076	-0.447404	-0.555687
N51	N	0.836522	-0.145636	-0.562539
N52	N	0.794822	-0.239395	-0.610123
H53	H	0.737656	-0.218883	-0.633262
N54	N	0.956735	0.071908	-0.437741
N55	N	0.893116	0.080723	-0.390159
H56	H	0.879643	0.180299	-0.367078
N57	N	0.444786	-0.055472	-0.150476
N58	N	0.471555	0.077129	-0.163464
H59	H	0.453355	0.130427	-0.218136
N60	N	0.873506	-0.419815	-0.437971
N61	N	0.878606	-0.552787	-0.457161
H62	H	0.834880	-0.631996	-0.434231
H63	H	1.101536	-0.007205	-0.555808
N64	N	1.151105	-0.258302	-0.437679
N65	N	1.214862	-0.172440	-0.456690
H66	H	1.272048	-0.192908	-0.433587
