data_functionalizedCrystal
_audit_creation_method	'MofGen! by Chris Wilmer'
_symmetry_space_group_name_H-M	'P1'
_symmetry_Int_Tables_number	1
_symmetry_cell_setting	triclinic
loop_
_symmetry_equiv_pos_as_xyz
  x,y,z
_cell_length_a	25.639243
_cell_length_b	25.639239
_cell_length_c	25.639233
_cell_angle_alpha	89.981253
_cell_angle_beta	90.015962
_cell_angle_gamma	89.958590
loop_
_atom_site_label
_atom_site_type_symbol
_atom_site_fract_x
_atom_site_fract_y
_atom_site_fract_z
Zn1	Zn	0.799225	0.208176	0.295656
Zn2	Zn	1.132558	0.541510	0.628989
Zn3	Zn	1.465892	0.874843	0.962322
Zn4	Zn	0.799149	0.295595	0.208220
Zn5	Zn	1.132482	0.628929	0.541553
Zn6	Zn	1.465815	0.962262	0.874887
Zn7	Zn	0.711801	0.208180	0.208229
Zn8	Zn	1.045135	0.541513	0.541563
Zn9	Zn	1.378468	0.874846	0.874896
Zn10	Zn	0.711746	0.295587	0.295619
Zn11	Zn	1.045080	0.628920	0.628953
Zn12	Zn	1.378413	0.962253	0.962286
O13	O	0.755480	0.251885	0.251931
O14	O	1.088814	0.585218	0.585264
O15	O	1.422147	0.918551	0.918598
O16	O	0.872380	0.219775	0.284069
O17	O	1.205713	0.553108	0.617402
O18	O	1.539047	0.886441	0.950735
O19	O	0.787553	0.284004	0.135056
O20	O	1.120886	0.617338	0.468389
O21	O	1.454219	0.950671	0.801723
O22	O	0.723453	0.135014	0.219846
O23	O	1.056787	0.468347	0.553179
O24	O	1.390120	0.801681	0.886512
O25	O	0.872324	0.284001	0.219830
O26	O	1.205657	0.617334	0.553163
O27	O	1.538991	0.950668	0.886497
O28	O	0.787683	0.135012	0.284077
O29	O	1.121016	0.468345	0.617411
O30	O	1.454350	0.801678	0.950744
O31	O	0.723379	0.219781	0.135063
O32	O	1.056712	0.553114	0.468396
O33	O	1.390046	0.886447	0.801729
O34	O	0.638629	0.219772	0.219810
O35	O	0.971962	0.553106	0.553144
O36	O	1.305296	0.886439	0.886477
O37	O	0.723360	0.283987	0.368789
O38	O	1.056693	0.617320	0.702123
O39	O	1.390026	0.950653	1.035456
O40	O	0.638589	0.283990	0.284016
O41	O	0.971922	0.617323	0.617349
O42	O	1.305255	0.950657	0.950682
O43	O	0.787630	0.219767	0.368816
O44	O	1.120963	0.553100	0.702149
O45	O	1.454297	0.886433	1.035483
O46	O	0.787499	0.368759	0.219795
O47	O	1.120833	0.702093	0.553128
O48	O	1.454166	1.035426	0.886461
O49	O	0.723286	0.368753	0.284007
O50	O	1.056619	0.702086	0.617340
O51	O	1.389952	1.035420	0.950673
C52	C	0.619638	0.251881	0.251910
C53	C	0.952971	0.585214	0.585244
C54	C	1.286304	0.918548	0.918577
C55	C	0.561524	0.251892	0.251914
C56	C	0.894857	0.585225	0.585247
C57	C	1.228190	0.918559	0.918581
C58	C	0.201184	0.218495	0.285436
C59	C	0.534518	0.551828	0.618769
C60	C	0.867851	0.885161	0.952103
C61	C	0.146580	0.218494	0.285439
C62	C	0.479913	0.551827	0.618772
C63	C	0.813247	0.885161	0.952106
O64	O	0.118363	0.190088	0.313915
O65	O	0.451697	0.523422	0.647248
O66	O	0.785030	0.856755	0.980582
N67	N	0.119241	0.251883	0.251945
N68	N	0.452575	0.585216	0.585279
N69	N	0.785908	0.918550	0.918612
C70	C	0.146510	0.285271	0.218443
C71	C	0.479843	0.618604	0.551776
C72	C	0.813176	0.951938	0.885109
O73	O	0.118242	0.313670	0.189954
O74	O	0.451575	0.647004	0.523287
O75	O	0.784909	0.980337	0.856620
C76	C	0.201113	0.285268	0.218437
C77	C	0.534446	0.618602	0.551770
C78	C	0.867780	0.951935	0.885104
C79	C	0.228449	0.251881	0.251937
C80	C	0.561782	0.585214	0.585270
C81	C	0.895116	0.918548	0.918603
C82	C	0.228520	0.185109	0.318932
C83	C	0.561854	0.518443	0.652266
C84	C	0.895187	0.851776	0.985599
C85	C	0.283121	0.185111	0.318930
C86	C	0.616454	0.518444	0.652263
C87	C	0.949788	0.851777	0.985596
C88	C	0.310385	0.218497	0.285431
C89	C	0.643719	0.551830	0.618764
C90	C	0.977052	0.885164	0.952097
C91	C	0.283049	0.251882	0.251934
C92	C	0.616383	0.585215	0.585267
C93	C	0.949716	0.918549	0.918601
C94	C	0.228380	0.318653	0.184932
C95	C	0.561714	0.651986	0.518265
C96	C	0.895047	0.985320	0.851599
C97	C	0.282987	0.318647	0.184929
C98	C	0.616321	0.651981	0.518263
C99	C	0.949654	0.985314	0.851596
C100	C	0.310323	0.285260	0.218429
C101	C	0.643657	0.618593	0.551762
C102	C	0.976990	0.951927	0.885095
C103	C	0.364915	0.285270	0.218432
C104	C	0.698248	0.618603	0.551766
C105	C	1.031581	0.951936	0.885099
N106	N	0.392253	0.251881	0.251926
N107	N	0.725587	0.585214	0.585259
N108	N	1.058920	0.918547	0.918593
C109	C	0.364989	0.218494	0.285425
C110	C	0.698322	0.551828	0.618758
C111	C	1.031655	0.885161	0.952092
C112	C	0.031839	0.285273	0.218456
C113	C	0.365172	0.618606	0.551789
C114	C	0.698506	0.951940	0.885123
C115	C	-0.022763	0.285279	0.218464
C116	C	0.310570	0.618612	0.551797
C117	C	0.643903	0.951945	0.885130
C118	C	-0.022689	0.218501	0.285460
C119	C	0.310644	0.551834	0.618793
C120	C	0.643978	0.885168	0.952126
C121	C	0.031914	0.218499	0.285454
C122	C	0.365248	0.551832	0.618788
C123	C	0.698581	0.885165	0.952121
C124	C	0.059178	0.251884	0.251950
C125	C	0.392511	0.585217	0.585283
C126	C	0.725844	0.918551	0.918616
C127	C	0.479654	0.218500	0.285417
C128	C	0.812987	0.551833	0.618751
C129	C	1.146321	0.885167	0.952084
C130	C	0.534259	0.218506	0.285413
C131	C	0.867593	0.551839	0.618746
C132	C	1.200926	0.885172	0.952080
C133	C	0.534180	0.285281	0.218415
C134	C	0.867514	0.618614	0.551749
C135	C	1.200847	0.951948	0.885082
C136	C	0.479580	0.285278	0.218421
C137	C	0.812913	0.618611	0.551755
C138	C	1.146246	0.951944	0.885088
C139	C	0.452318	0.251883	0.251924
C140	C	0.785651	0.585216	0.585257
C141	C	1.118984	0.918549	0.918591
O142	O	0.393166	0.313659	0.189969
O143	O	0.726499	0.646993	0.523303
O144	O	1.059833	0.980326	0.856636
O145	O	0.393263	0.190095	0.313904
O146	O	0.726597	0.523428	0.647238
O147	O	1.059930	0.856762	0.980571
C148	C	0.755392	0.387727	0.251907
C149	C	1.088726	0.721060	0.585241
C150	C	1.422059	1.054394	0.918574
C151	C	0.755403	0.445841	0.251914
C152	C	1.088736	0.779175	0.585248
C153	C	1.422069	1.112508	0.918581
C154	C	0.755497	0.251875	0.388304
C155	C	1.088831	0.585209	0.721637
C156	C	1.422164	0.918542	1.054971
C157	C	0.755504	0.251871	0.446418
C158	C	1.088838	0.585205	0.779752
C159	C	1.422171	0.918538	1.113085
C160	C	0.891853	0.251888	0.251952
C161	C	1.225187	0.585222	0.585286
C162	C	1.558520	0.918555	0.918619
C163	C	0.949967	0.251890	0.251961
C164	C	1.283301	0.585224	0.585295
C165	C	1.616634	0.918557	0.918628
C166	C	0.755583	0.115512	0.251967
C167	C	1.088916	0.448845	0.585300
C168	C	1.422250	0.782178	0.918633
C169	C	0.755627	0.057397	0.251982
C170	C	1.088960	0.390731	0.585315
C171	C	1.422293	0.724064	0.918648
C172	C	0.789004	0.806195	0.218553
C173	C	1.122337	1.139528	0.551886
C174	C	1.455670	1.472861	0.885220
C175	C	0.789024	0.860799	0.218560
C176	C	1.122357	1.194132	0.551893
C177	C	1.455691	1.527466	0.885227
O178	O	0.817502	0.889028	0.190169
O179	O	1.150835	1.222361	0.523502
O180	O	1.484168	1.555695	0.856835
N181	N	0.755572	0.888124	0.251966
N182	N	1.088906	1.221457	0.585299
N183	N	1.422239	1.554790	0.918632
C184	C	0.722102	0.860841	0.285371
C185	C	1.055435	1.194174	0.618704
C186	C	1.388768	1.527508	0.952037
O187	O	0.693651	0.889096	0.313786
O188	O	1.026984	1.222430	0.647119
O189	O	1.360317	1.555763	0.980452
C190	C	0.722085	0.806238	0.285366
C191	C	1.055418	1.139571	0.618699
C192	C	1.388751	1.472904	0.952032
C193	C	0.755535	0.778916	0.251954
C194	C	1.088868	1.112249	0.585287
C195	C	1.422201	1.445583	0.918621
C196	C	0.822452	0.778873	0.185144
C197	C	1.155785	1.112206	0.518478
C198	C	1.489118	1.445540	0.851811
C199	C	0.822431	0.724273	0.185137
C200	C	1.155764	1.057606	0.518470
C201	C	1.489097	1.390939	0.851803
C202	C	0.788962	0.696994	0.218538
C203	C	1.122295	1.030327	0.551871
C204	C	1.455628	1.363660	0.885205
C205	C	0.755514	0.724315	0.251946
C206	C	1.088847	1.057649	0.585280
C207	C	1.422180	1.390982	0.918613
C208	C	0.688617	0.778956	0.318773
C209	C	1.021950	1.112289	0.652106
C210	C	1.355284	1.445623	0.985439
C211	C	0.688603	0.724349	0.318765
C212	C	1.021936	1.057682	0.652099
C213	C	1.355270	1.391016	0.985432
C214	C	0.722053	0.697027	0.285354
C215	C	1.055387	1.030361	0.618687
C216	C	1.388720	1.363694	0.952020
C217	C	0.722024	0.642436	0.285340
C218	C	1.055357	0.975769	0.618673
C219	C	1.388690	1.309103	0.952007
N220	N	0.755475	0.615112	0.251934
N221	N	1.088809	0.948445	0.585268
N222	N	1.422142	1.281778	0.918601
C223	C	0.788944	0.642390	0.218533
C224	C	1.122278	0.975724	0.551866
C225	C	1.455611	1.309057	0.885200
C226	C	0.722141	0.975511	0.285379
C227	C	1.055474	1.308845	0.618712
C228	C	1.388808	1.642178	0.952045
C229	C	0.722155	1.030114	0.285381
C230	C	1.055489	1.363447	0.618714
C231	C	1.388822	1.696780	0.952048
C232	C	0.789078	1.030068	0.218571
C233	C	1.122412	1.363402	0.551904
C234	C	1.455745	1.696735	0.885238
C235	C	0.789061	0.975465	0.218566
C236	C	1.122395	1.308798	0.551900
C237	C	1.455728	1.642132	0.885233
C238	C	0.755593	0.948187	0.251973
C239	C	1.088926	1.281520	0.585306
C240	C	1.422260	1.614854	0.918639
C241	C	0.788897	0.527725	0.218519
C242	C	1.122231	0.861059	0.551853
C243	C	1.455564	1.194392	0.885186
C244	C	0.788872	0.473120	0.218513
C245	C	1.122205	0.806453	0.551847
C246	C	1.455538	1.139787	0.885180
C247	C	0.721951	0.473170	0.285325
C248	C	1.055284	0.806504	0.618658
C249	C	1.388617	1.139837	0.951992
C250	C	0.721974	0.527771	0.285329
C251	C	1.055307	0.861104	0.618663
C252	C	1.388641	1.194438	0.951996
C253	C	0.755452	0.555047	0.251925
C254	C	1.088785	0.888380	0.585258
C255	C	1.422118	1.221714	0.918592
O256	O	0.693562	0.614173	0.313718
O257	O	1.026895	0.947506	0.647052
O258	O	1.360229	1.280839	0.980385
O259	O	0.817396	0.614128	0.190127
O260	O	1.150729	0.947462	0.523461
O261	O	1.484062	1.280795	0.856794
C262	C	0.755494	0.251856	0.116089
C263	C	1.088827	0.585189	0.449422
C264	C	1.422160	0.918523	0.782755
C265	C	0.755588	0.251713	0.057975
C266	C	1.088921	0.585046	0.391308
C267	C	1.422254	0.918379	0.724642
C268	C	0.789012	0.218333	0.806801
C269	C	1.122346	0.551666	1.140134
C270	C	1.455679	0.884999	1.473468
C271	C	0.789019	0.218318	0.861405
C272	C	1.122352	0.551652	1.194739
C273	C	1.455685	0.884985	1.528072
O274	O	0.817466	0.189864	0.889659
O275	O	1.150799	0.523197	1.222992
O276	O	1.484133	0.856531	1.556325
N277	N	0.755562	0.251749	0.888701
N278	N	1.088895	0.585082	1.222034
N279	N	1.422229	0.918416	1.555368
C280	C	0.722093	0.285192	0.861389
C281	C	1.055426	0.618526	1.194723
C282	C	1.388760	0.951859	1.528056
O283	O	0.693636	0.313626	0.889620
O284	O	1.026969	0.646959	1.222954
O285	O	1.360302	0.980293	1.556287
C286	C	0.722084	0.285204	0.806786
C287	C	1.055418	0.618537	1.140119
C288	C	1.388751	0.951870	1.473453
C289	C	0.755547	0.251775	0.779493
C290	C	1.088880	0.585108	1.112827
C291	C	1.422214	0.918441	1.446160
C292	C	0.822472	0.184906	0.779508
C293	C	1.155805	0.518239	1.112841
C294	C	1.489138	0.851573	1.446175
C295	C	0.822466	0.184921	0.724908
C296	C	1.155799	0.518255	1.058241
C297	C	1.489133	0.851588	1.391574
C298	C	0.789001	0.218363	0.697600
C299	C	1.122334	0.551697	1.030933
C300	C	1.455667	0.885030	1.364267
C301	C	0.755541	0.251790	0.724893
C302	C	1.088874	0.585123	1.058226
C303	C	1.422208	0.918457	1.391559
C304	C	0.688613	0.318644	0.779475
C305	C	1.021946	0.651978	1.112809
C306	C	1.355280	0.985311	1.446142
C307	C	0.688607	0.318653	0.724868
C308	C	1.021940	0.651986	1.058202
C309	C	1.355273	0.985319	1.391535
C310	C	0.722069	0.285223	0.697576
C311	C	1.055403	0.618557	1.030909
C312	C	1.388736	0.951890	1.364242
C313	C	0.722070	0.285247	0.642984
C314	C	1.055403	0.618581	0.976318
C315	C	1.388736	0.951914	1.309651
N316	N	0.755526	0.251817	0.615689
N317	N	1.088860	0.585150	0.949022
N318	N	1.422193	0.918483	1.282355
C319	C	0.788992	0.218375	0.642996
C320	C	1.122325	0.551708	0.976330
C321	C	1.455658	0.885041	1.309663
C322	C	0.722113	0.285165	0.976060
C323	C	1.055446	0.618499	1.309393
C324	C	1.388780	0.951832	1.642727
C325	C	0.722124	0.285157	1.030662
C326	C	1.055457	0.618490	1.363996
C327	C	1.388791	0.951823	1.697329
C328	C	0.789049	0.218282	1.030675
C329	C	1.122383	0.551615	1.364008
C330	C	1.455716	0.884949	1.697341
C331	C	0.789041	0.218293	0.976071
C332	C	1.122374	0.551627	1.309405
C333	C	1.455707	0.884960	1.642738
C334	C	0.755570	0.251735	0.948764
C335	C	1.088903	0.585068	1.282098
C336	C	1.422237	0.918401	1.615431
C337	C	0.788977	0.218410	0.528331
C338	C	1.122311	0.551743	0.861665
C339	C	1.455644	0.885076	1.194998
C340	C	0.788970	0.218429	0.473726
C341	C	1.122303	0.551763	0.807059
C342	C	1.455637	0.885096	1.140393
C343	C	0.722043	0.285302	0.473719
C344	C	1.055376	0.618636	0.807052
C345	C	1.388710	0.951969	1.140385
C346	C	0.722052	0.285285	0.528319
C347	C	1.055385	0.618618	0.861653
C348	C	1.388719	0.951951	1.194986
C349	C	0.755521	0.251834	0.555624
C350	C	1.088854	0.585167	0.888958
C351	C	1.422188	0.918501	1.222291
O352	O	0.693635	0.313686	0.614696
O353	O	1.026969	0.647019	0.948030
O354	O	1.360302	0.980352	1.281363
O355	O	0.817439	0.189941	0.614759
O356	O	1.150773	0.523274	0.948092
O357	O	1.484106	0.856608	1.281425
H358	H	0.556389	0.312465	0.191142
H359	H	0.889722	0.645798	0.524476
H360	H	1.223056	0.979131	0.857809
H361	H	0.694857	0.312400	0.953830
H362	H	1.028190	0.645733	1.287164
H363	H	1.361523	0.979067	1.620497
N364	N	0.686036	0.946089	0.321404
N365	N	1.019369	1.279423	0.654738
N366	N	1.352702	1.612756	0.988071
H367	H	0.694130	0.955570	0.358770
H368	H	1.027464	1.288903	0.692104
H369	H	1.360797	1.622236	1.025437
H370	H	0.648703	0.955649	0.313200
H371	H	0.982037	1.288983	0.646533
H372	H	1.315370	1.622316	0.979867
N373	N	0.685945	0.321368	0.444261
N374	N	1.019279	0.654701	0.777595
N375	N	1.352612	0.988034	1.110928
H376	H	0.694034	0.358725	0.453758
H377	H	1.027367	0.692058	0.787091
H378	H	1.360701	1.025391	1.120425
H379	H	0.691036	0.316256	0.405539
H380	H	1.024369	0.649589	0.738873
H381	H	1.357703	0.982922	1.072206
N382	N	0.199126	0.149096	0.355072
N383	N	0.532459	0.482429	0.688405
N384	N	0.865793	0.815763	1.021738
H385	H	0.176468	0.170378	0.379268
H386	H	0.509801	0.503712	0.712602
H387	H	0.843134	0.837045	1.045935
H388	H	0.176509	0.124836	0.333841
H389	H	0.509843	0.458169	0.667174
H390	H	0.843176	0.791503	1.000508
N391	N	0.450260	0.182483	0.321556
N392	N	0.783594	0.515816	0.654890
N393	N	1.116927	0.849150	0.988223
H394	H	0.427599	0.203765	0.345751
H395	H	0.760932	0.537099	0.679084
H396	H	1.094266	0.870432	1.012417
H397	H	0.427646	0.158223	0.300323
H398	H	0.760980	0.491556	0.633656
H399	H	1.094313	0.824890	0.966990
H400	H	0.816229	0.191169	0.550557
H401	H	1.149562	0.524503	0.883890
H402	H	1.482896	0.857836	1.217223
N403	N	0.652519	0.354698	0.808905
N404	N	0.985852	0.688031	1.142238
N405	N	1.319186	1.021365	1.475572
H406	H	0.660606	0.392057	0.799396
H407	H	0.993940	0.725390	1.132729
H408	H	1.327273	1.058724	1.466063
H409	H	0.615184	0.346528	0.799380
H410	H	0.948518	0.679861	1.132714
H411	H	1.281851	1.013194	1.466047
H412	H	0.305183	0.345834	0.157644
H413	H	0.638516	0.679167	0.490978
H414	H	0.971849	1.012500	0.824311
N415	N	0.563743	0.182496	0.321548
N416	N	0.897076	0.515829	0.654881
N417	N	1.230410	0.849162	0.988215
H418	H	0.538182	0.161345	0.342768
H419	H	0.871515	0.494679	0.676101
H420	H	1.204849	0.828012	1.009435
H421	H	0.586410	0.158267	0.300310
H422	H	0.919743	0.491601	0.633643
H423	H	1.253076	0.824934	0.966976
H424	H	0.849714	0.157699	0.702691
H425	H	1.183047	0.491032	1.036024
H426	H	1.516380	0.824366	1.369357
H427	H	0.694881	0.312384	1.052880
H428	H	1.028214	0.645717	1.386213
H429	H	1.361548	0.979050	1.719546
N430	N	0.825000	0.557144	0.182491
N431	N	1.158333	0.890478	0.515824
N432	N	1.491666	1.223811	0.849157
H433	H	0.862348	0.547595	0.190643
H434	H	1.195681	0.880929	0.523976
H435	H	1.529014	1.214262	0.857309
H436	H	0.816853	0.547653	0.145140
H437	H	1.150186	0.880987	0.478474
H438	H	1.483519	1.214320	0.811807
N439	N	0.652501	0.354717	0.695416
N440	N	0.985834	0.688051	1.028750
N441	N	1.319167	1.021384	1.362083
H442	H	0.631305	0.375889	0.720995
H443	H	0.964638	0.709222	1.054329
H444	H	1.297972	1.042556	1.387662
H445	H	0.673756	0.378924	0.672761
H446	H	1.007090	0.712257	1.006094
H447	H	1.340423	1.045590	1.339428
N448	N	0.652545	0.808413	0.354818
N449	N	0.985878	1.141747	0.688152
N450	N	1.319211	1.475080	1.021485
H451	H	0.657630	0.847146	0.349761
H452	H	0.990963	1.180479	0.683095
H453	H	1.324296	1.513812	1.016428
H454	H	0.615205	0.798911	0.346649
H455	H	0.948539	1.132244	0.679983
H456	H	1.281872	1.465577	1.013316
H457	H	0.661350	0.702142	0.345971
H458	H	0.994683	1.035475	0.679304
H459	H	1.328016	1.368808	1.012637
H460	H	0.816298	0.191050	1.052918
H461	H	1.149631	0.524384	1.386252
H462	H	1.482964	0.857717	1.719585
H463	H	0.206133	0.345840	0.157652
H464	H	0.539466	0.679173	0.490986
H465	H	0.872799	1.012507	0.824319
H466	H	0.694699	0.450951	0.312518
H467	H	1.028032	0.784285	0.645852
H468	H	1.361366	1.117618	0.979185
N469	N	0.312601	0.149098	0.355060
N470	N	0.645934	0.482432	0.688393
N471	N	0.979268	0.815765	1.021727
H472	H	0.287037	0.127950	0.376278
H473	H	0.620370	0.461283	0.709611
H474	H	0.953703	0.794617	1.042945
H475	H	0.335264	0.124868	0.333820
H476	H	0.668598	0.458202	0.667154
H477	H	1.001931	0.791535	1.000487
H478	H	0.457322	0.312470	0.191149
H479	H	0.790655	0.645804	0.524483
H480	H	1.123988	0.979137	0.857816
N481	N	0.061396	0.182489	0.321585
N482	N	0.394729	0.515822	0.654919
N483	N	0.728063	0.849155	0.988252
H484	H	0.035834	0.161342	0.342807
H485	H	0.369167	0.494675	0.676140
H486	H	0.702500	0.828009	1.009474
H487	H	0.084059	0.158257	0.300347
H488	H	0.417392	0.491590	0.633680
H489	H	0.750725	0.824924	0.967013
N490	N	-0.052101	0.182490	0.321592
N491	N	0.281232	0.515823	0.654926
N492	N	0.614566	0.849157	0.988259
H493	H	-0.090839	0.187559	0.316508
H494	H	0.242494	0.520892	0.649842
H495	H	0.575827	0.854226	0.983175
H496	H	-0.042535	0.145136	0.313521
H497	H	0.290798	0.478470	0.646854
H498	H	0.624131	0.811803	0.980187
N499	N	0.686068	1.059575	0.321412
N500	N	1.019401	1.392908	0.654745
N501	N	1.352734	1.726241	0.988079
H502	H	0.694158	1.050044	0.358775
H503	H	1.027491	1.383377	0.692108
H504	H	1.360825	1.716710	1.025442
H505	H	0.691169	1.098297	0.316309
H506	H	1.024502	1.431630	0.649642
H507	H	1.357836	1.764964	0.982975
N508	N	-0.052244	0.321296	0.182339
N509	N	0.281089	0.654629	0.515672
N510	N	0.614422	0.987962	0.849006
H511	H	-0.026682	0.342444	0.161119
H512	H	0.306652	0.675777	0.494452
H513	H	0.639985	1.009111	0.827786
H514	H	-0.074891	0.299979	0.158181
H515	H	0.258442	0.633312	0.491514
H516	H	0.591775	0.966645	0.824847
H517	H	0.054034	0.312464	0.191174
H518	H	0.387367	0.645798	0.524507
H519	H	0.720700	0.979131	0.857841
H520	H	0.816111	0.450876	0.191304
H521	H	1.149444	0.784210	0.524637
H522	H	1.482777	1.117543	0.857970
N523	N	0.858517	0.694808	0.149108
N524	N	1.191850	1.028141	0.482441
N525	N	1.525184	1.361475	0.815774
H526	H	0.879723	0.720381	0.127955
H527	H	1.213056	1.053715	0.461289
H528	H	1.546389	1.387048	0.794622
H529	H	0.882690	0.672123	0.170417
H530	H	1.216023	1.005456	0.503750
H531	H	1.549357	1.338789	0.837083
N532	N	0.858554	0.808290	0.149116
N533	N	1.191887	1.141623	0.482450
N534	N	1.525221	1.474957	0.815783
H535	H	0.879737	0.782689	0.127955
H536	H	1.213070	1.116022	0.461288
H537	H	1.546404	1.449355	0.794622
H538	H	0.837296	0.830976	0.124899
H539	H	1.170629	1.164309	0.458233
H540	H	1.503962	1.497642	0.791566
N541	N	0.825141	0.945999	0.182532
N542	N	1.158474	1.279332	0.515865
N543	N	1.491807	1.612665	0.849198
H544	H	0.846344	0.971570	0.161375
H545	H	1.179677	1.304904	0.494708
H546	H	1.513010	1.638237	0.828041
H547	H	0.849317	0.923311	0.203836
H548	H	1.182650	1.256645	0.537169
H549	H	1.515984	1.589978	0.870502
H550	H	0.816333	1.052289	0.191376
H551	H	1.149666	1.385622	0.524709
H552	H	1.482999	1.718955	0.858042
H553	H	0.694809	0.312510	0.550542
H554	H	1.028142	0.645843	0.883875
H555	H	1.361476	0.979177	1.217209
H556	H	0.816221	0.191207	0.451507
H557	H	1.149554	0.524540	0.784840
H558	H	1.482888	0.857874	1.118173
H559	H	0.694738	0.550017	0.312538
H560	H	1.028071	0.883351	0.645871
H561	H	1.361405	1.216684	0.979204
H562	H	0.849724	0.157671	0.801736
H563	H	1.183057	0.491004	1.135070
H564	H	1.516390	0.824337	1.468403
H565	H	0.816288	0.191071	0.953853
H566	H	1.149621	0.524405	1.287186
H567	H	1.482955	0.857738	1.620520
