data_functionalizedCrystal
_audit_creation_method	'MofGen! by Chris Wilmer'
_symmetry_space_group_name_H-M	'P1'
_symmetry_Int_Tables_number	1
_symmetry_cell_setting	triclinic
loop_
_symmetry_equiv_pos_as_xyz
  x,y,z
_cell_length_a	13.339070
_cell_length_b	27.732048
_cell_length_c	12.376457
_cell_angle_alpha	101.176348
_cell_angle_beta	75.589755
_cell_angle_gamma	99.135974
loop_
_atom_site_label
_atom_site_type_symbol
_atom_site_fract_x
_atom_site_fract_y
_atom_site_fract_z
O1	O	1.358025	0.235161	-0.094094
O2	O	1.063992	0.203422	-0.094081
O3	O	1.220136	0.150154	-0.094066
O4	O	1.201881	0.288430	-0.094108
O5	O	1.181114	0.163448	0.093942
O6	O	1.024970	0.216716	0.093928
O7	O	1.319003	0.248455	0.093915
Zn8	Zn	1.165791	0.234696	0.123772
Zn9	Zn	1.217204	0.217181	-0.123938
O10	O	1.162859	0.301723	0.093900
C11	C	1.006875	0.204708	-0.000074
C12	C	0.894822	0.188727	-0.000068
C13	C	0.528098	0.312985	-0.000124
C14	C	0.633378	0.328001	-0.000133
C15	C	0.698744	0.293184	-0.000117
C16	C	0.658820	0.243348	-0.000092
C17	C	0.553531	0.228330	-0.000092
C18	C	0.724177	0.208529	-0.000084
C19	C	0.684253	0.158693	-0.000059
C20	C	0.578975	0.143677	-0.000058
C21	C	0.513609	0.178494	-0.000075
C22	C	0.829466	0.223547	-0.000084
C23	C	0.854899	0.138891	-0.000052
C24	C	0.749619	0.123875	-0.000042
C25	C	1.200241	0.138741	-0.000059
C26	C	1.199085	0.084928	-0.000049
C27	C	1.284103	-0.242187	-0.000111
C28	C	1.279823	-0.444437	-0.000127
O29	O	1.357565	-0.464994	-0.000180
N30	N	1.187233	-0.476309	-0.000122
C31	C	1.095708	-0.457617	-0.000120
O32	O	1.016858	-0.489367	-0.000127
C33	C	1.099990	-0.255368	-0.000112
C34	C	1.192584	-0.223497	-0.000106
C35	C	1.376689	-0.210317	-0.000106
C36	C	1.377757	-0.159757	-0.000096
C37	C	1.286238	-0.141067	-0.000091
C38	C	1.193652	-0.172937	-0.000096
C39	C	1.008468	-0.236676	-0.000119
C40	C	1.009548	-0.186111	-0.000120
C41	C	1.102141	-0.154240	-0.000114
C42	C	1.103201	-0.103687	-0.000081
N43	N	1.195791	-0.071815	-0.000086
C44	C	1.287310	-0.090505	-0.000091
C45	C	1.093465	-0.563800	-0.000122
C46	C	1.092394	-0.614362	-0.000121
C47	C	1.276510	-0.601179	-0.000130
C48	C	1.277578	-0.550616	-0.000122
C49	C	1.186055	-0.531928	-0.000127
C50	C	1.289545	0.015674	-0.000069
C51	C	1.290603	0.066238	-0.000054
C52	C	1.106489	0.053051	-0.000051
C53	C	1.105429	0.002491	-0.000060
C54	C	1.196966	-0.016195	-0.000073
O55	O	1.025503	-0.083098	-0.000041
O56	O	1.366153	-0.058748	-0.000109
C57	C	1.283035	-0.292747	-0.000121
C58	C	1.190449	-0.324617	-0.000126
C59	C	1.098930	-0.305927	-0.000121
C60	C	1.189377	-0.375179	-0.000126
C61	C	1.280896	-0.393869	-0.000131
C62	C	1.373486	-0.361997	-0.000136
C63	C	1.374554	-0.311437	-0.000126
C64	C	1.006340	-0.337799	-0.000116
C65	C	1.005279	-0.388358	-0.000125
C66	C	1.096798	-0.407048	-0.000130
C67	C	1.376121	0.247169	-0.000094
C68	C	1.488175	0.263150	-0.000107
C69	C	1.182754	0.313136	-0.000110
C70	C	1.183912	0.366948	-0.000126
N71	N	1.130710	0.246650	0.292827
N72	N	1.252293	0.205224	-0.292993
C73	C	1.333726	0.177465	0.647831
C74	C	1.358274	0.169097	0.529493
C75	C	1.301385	0.188485	0.470321
C76	C	1.219945	0.216241	0.529497
C77	C	1.195400	0.224613	0.647847
C78	C	1.163058	0.235633	0.470337
C79	C	1.081618	0.263390	0.529513
C80	C	1.057077	0.271760	0.647851
C81	C	1.113967	0.252372	0.707023
C82	C	1.187603	0.227261	0.351987
C83	C	1.049277	0.274410	0.352003
C84	C	1.024729	0.282777	0.470341
H85	H	0.474871	0.341327	-0.000148
O86	O	0.945558	0.309679	0.527958
C87	C	0.869482	0.280314	0.596415
H88	H	0.906609	0.249226	0.614137
H89	H	0.835941	0.304184	0.679636
H90	H	0.804380	0.263786	0.550831
H91	H	0.717100	0.083297	-0.000031
O92	O	0.918518	0.105133	0.000015
C93	C	1.020008	0.129072	-0.000017
H94	H	1.016064	0.170016	0.035568
H95	H	1.056816	0.111607	0.054574
H96	H	1.069212	0.124952	-0.090213
O97	O	1.325037	0.180335	0.355369
C98	C	1.237576	0.154844	0.315861
H99	H	1.163800	0.161557	0.384072
H100	H	1.232975	0.168841	0.236686
H101	H	1.245229	0.113521	0.294876
O102	O	1.017560	0.071143	-0.000203
C103	C	0.981531	0.047913	-0.097596
H104	H	1.013657	0.010779	-0.130055
H105	H	0.892734	0.041707	-0.075709
H106	H	1.009066	0.072466	-0.165778
H107	H	0.546476	0.103096	-0.000050
H108	H	1.424582	0.146499	0.481316
H109	H	1.018931	-0.548590	-0.000125
O110	O	1.380622	0.097163	-0.000254
C111	C	1.456577	0.081930	-0.097616
H112	H	1.416542	0.059370	-0.165672
H113	H	1.505825	0.115862	-0.130297
H114	H	1.508784	0.058242	-0.075611
O115	O	1.378364	-0.002521	0.000074
C116	C	1.363058	-0.024484	0.097457
H117	H	1.276236	-0.035495	0.129915
H118	H	1.405827	-0.058793	0.075555
H119	H	1.394735	0.003073	0.165644
O120	O	1.467805	-0.128874	-0.000150
C121	C	1.548335	-0.156220	-0.000129
H122	H	1.527957	-0.196708	-0.035722
H123	H	1.624361	-0.140864	-0.054718
H124	H	1.557807	-0.153201	0.090065
H125	H	0.427880	0.166270	-0.000067
O126	O	0.917397	-0.319717	-0.000255
C127	C	0.881353	-0.342952	-0.097636
H128	H	0.913504	-0.380079	-0.130114
H129	H	0.792557	-0.349171	-0.075726
H130	H	0.908849	-0.318395	-0.165813
O131	O	1.388828	0.158573	0.705366
C132	C	1.321025	0.126406	0.773871
H133	H	1.248827	0.112368	0.738220
H134	H	1.362534	0.093699	0.775235
H135	H	1.296888	0.147139	0.863551
H136	H	1.093978	0.259183	0.803384
H137	H	1.451220	-0.225528	-0.000114
O138	O	0.977905	0.298662	0.705459
C139	C	0.901824	0.269300	0.773918
H140	H	0.938948	0.238214	0.791653
H141	H	0.868277	0.293173	0.857132
H142	H	0.836726	0.252769	0.728329
H143	H	1.352976	-0.524669	-0.000118
H144	H	1.351028	-0.616405	-0.000134
H145	H	1.016991	-0.640306	-0.000107
O146	O	1.462404	-0.380195	-0.000344
C147	C	1.487474	-0.415934	-0.097708
H148	H	1.449682	-0.409237	-0.165756
H149	H	1.575663	-0.412994	-0.130402
H150	H	1.457351	-0.454469	-0.075699
O151	O	0.918444	-0.267563	-0.000180
C152	C	0.837906	-0.240212	-0.000155
H153	H	0.873062	-0.204752	-0.035740
H154	H	0.784545	-0.263279	-0.054748
H155	H	0.790987	-0.230489	0.090040
H156	H	0.935017	-0.170899	-0.000125
H157	H	1.253912	0.204662	0.303816
O158	O	1.015580	-0.028530	-0.000207
C159	C	1.029658	-0.065038	-0.097604
H160	H	1.116163	-0.069181	-0.130071
H161	H	0.985403	-0.101838	-0.075718
H162	H	0.998793	-0.053616	-0.165778
H163	H	0.784467	0.305413	-0.000127
H164	H	1.002954	0.290198	0.303826
H165	H	1.449953	-0.285492	-0.000122
O166	O	0.868420	0.271931	-0.000157
C167	C	0.975355	0.277725	-0.000128
H168	H	1.008058	0.240884	-0.035703
H169	H	1.018573	0.306603	-0.054728
H170	H	0.985905	0.290375	0.090067
H171	H	0.929871	-0.414304	-0.000120
H172	H	0.665878	0.368577	-0.000163
