data_functionalizedCrystal
_audit_creation_method	'MofGen! by Chris Wilmer'
_symmetry_space_group_name_H-M	'P1'
_symmetry_Int_Tables_number	1
_symmetry_cell_setting	triclinic
loop_
_symmetry_equiv_pos_as_xyz
  x,y,z
_cell_length_a	14.560438
_cell_length_b	20.016444
_cell_length_c	20.016444
_cell_angle_alpha	89.998875
_cell_angle_beta	119.998874
_cell_angle_gamma	120.001853
loop_
_atom_site_label
_atom_site_type_symbol
_atom_site_fract_x
_atom_site_fract_y
_atom_site_fract_z
Zr1	Zr	-1.005289	0.643584	-0.087686
O2	O	-1.196893	0.536903	-0.194353
O3	O	-0.813688	0.676287	-0.054990
O4	O	-1.005297	0.676279	-0.194365
O5	O	-1.005277	0.536917	0.054967
O6	O	-1.005299	0.786221	-0.194371
O7	O	-1.005285	0.536911	-0.054978
O8	O	-0.662545	0.786235	0.054945
O9	O	-1.348031	0.536903	-0.194349
O10	O	-0.892496	0.772283	-0.041047
O11	O	-0.892489	0.690239	0.041009
O12	O	-1.118084	0.690229	-0.123087
O13	O	-1.118077	0.608186	-0.041032
Zr14	Zr	-1.005281	0.818937	0.087654
Zr15	Zr	-1.005292	0.818928	-0.087696
Zr16	Zr	-1.005277	0.643593	0.087664
Zr17	Zr	-1.246335	0.643583	-0.087680
Zr18	Zr	-0.764235	0.818938	0.087648
O19	O	-1.196882	0.786234	0.054958
O20	O	-1.196899	0.786220	-0.194367
O21	O	-1.196877	0.536917	0.054972
O22	O	-0.813676	0.925617	0.194320
O23	O	-0.813693	0.925604	-0.055004
O24	O	-0.813671	0.676300	0.194334
O25	O	-1.005292	0.925604	-0.055000
O26	O	-1.005273	0.786241	0.194333
O27	O	-1.005271	0.676300	0.194339
O28	O	-1.005285	0.925609	0.054946
O29	O	-1.348034	0.676278	-0.194357
O30	O	-0.662536	0.786242	0.194325
O31	O	-0.662539	0.925618	0.194317
O32	O	-0.662548	0.925610	0.054937
O33	O	-1.348021	0.536910	-0.054969
O34	O	-1.348024	0.676286	-0.054977
O35	O	-0.892486	0.772291	0.123055
O36	O	-0.892493	0.854335	0.041000
O37	O	-1.118080	0.772282	-0.041041
O38	O	-1.118073	0.690238	0.041014
C39	C	-0.703773	0.731261	-0.000024
C40	C	-0.601442	0.731261	-0.000026
C41	C	-1.005280	0.511931	-0.000004
C42	C	-1.005279	0.437493	0.000000
C43	C	-0.553370	0.774086	-0.042859
C44	C	-0.457211	0.774090	-0.042852
C45	C	-0.457209	0.688437	0.042821
C46	C	-0.553359	0.688439	0.042819
C47	C	-0.272291	0.864470	-0.055384
C48	C	-0.224231	0.907286	-0.098231
C49	C	-0.308964	0.906158	-0.174984
C50	C	-0.441778	0.862201	-0.208909
C51	C	-0.489841	0.819379	-0.166068
C52	C	-0.405088	0.820524	-0.089300
C53	C	-0.738289	0.598056	0.055342
C54	C	-0.786360	0.555228	0.098179
C55	C	-0.701634	0.556348	0.174932
C56	C	-0.568832	0.600290	0.208852
C57	C	-0.520761	0.643117	0.166015
C58	C	-0.605491	0.642000	0.089262
C59	C	-1.005291	0.196279	0.060549
C60	C	-1.005285	0.266224	0.060556
C61	C	-1.005275	0.266238	-0.060584
C62	C	-1.005271	0.196298	-0.060588
C63	C	-1.005286	0.161318	-0.000021
C64	C	-1.005284	0.301203	-0.000011
C65	C	-1.005278	0.377041	-0.000003
C66	C	-1.005289	0.085476	-0.000028
C67	C	-0.306798	0.731261	-0.000011
C68	C	-0.409133	0.731263	-0.000017
C69	C	-1.005299	0.731249	-0.219352
C70	C	-1.005304	0.731245	-0.293793
C71	C	-1.005289	0.950589	-0.000028
C72	C	-1.005291	1.025028	-0.000033
C73	C	-1.123044	0.688428	-0.507873
C74	C	-1.123038	0.688435	-0.577814
C75	C	-0.887517	0.774098	-0.492151
C76	C	-0.887524	0.774095	-0.422211
C77	C	-1.005291	0.731256	-0.430076
C78	C	-1.005279	0.731265	-0.569956
C79	C	-1.005272	0.731272	-0.645789
C80	C	-1.005298	0.731249	-0.354238
C81	C	-1.005270	0.731272	0.219320
C82	C	-1.005266	0.731276	0.293760
C83	C	-0.703777	0.950590	-0.000036
C84	C	-0.601448	1.025029	-0.000043
C85	C	-0.703758	0.731273	0.219312
C86	C	-0.601423	0.731277	0.293750
C87	C	-0.703763	0.950602	0.219300
C88	C	-0.601429	1.025044	0.293734
C89	C	-1.306807	0.511919	-0.219332
C90	C	-1.409141	0.437477	-0.293766
C91	C	-1.306793	0.511931	0.000004
C92	C	-1.409122	0.437492	0.000010
C93	C	-1.306812	0.731248	-0.219344
C94	C	-1.409147	0.731244	-0.293783
C95	C	-0.553395	1.017155	-0.042880
C96	C	-0.457260	1.087091	-0.042903
C97	C	-0.409172	1.164900	-0.000083
C98	C	-0.457234	1.172772	0.042756
C99	C	-0.553375	1.102837	0.042774
C100	C	-0.553363	0.774109	0.371542
C101	C	-0.457222	0.774110	0.441491
C102	C	-0.409135	0.731283	0.433647
C103	C	-0.457204	0.688445	0.355847
C104	C	-0.553350	0.688440	0.285900
C105	C	-0.553375	1.102837	0.285857
C106	C	-0.457235	1.172790	0.355788
C107	C	-0.409144	1.164949	0.433597
C108	C	-0.457206	1.087148	0.441472
C109	C	-0.553351	1.017197	0.371541
C110	C	-1.457206	0.359684	-0.285889
C111	C	-1.553376	0.289731	-0.355821
C112	C	-1.601473	0.297572	-0.433629
C113	C	-1.553404	0.375372	-0.441504
C114	C	-1.457242	0.445324	-0.371573
C115	C	-1.457185	0.445366	0.042841
C116	C	-1.553347	0.375429	0.042844
C117	C	-1.601438	0.297621	0.000021
C118	C	-1.553371	0.289749	-0.042814
C119	C	-1.457217	0.359684	-0.042822
C120	C	-1.457203	0.774080	-0.285912
C121	C	-1.553345	0.774092	-0.355848
C122	C	-1.601436	0.731263	-0.433653
C123	C	-1.553371	0.688426	-0.441522
C124	C	-1.457224	0.688419	-0.371587
H125	H	-0.592515	0.808956	-0.077744
Br126	Br	-1.391994	0.348984	-0.100951
Br127	Br	-1.005249	0.148850	-0.142790
H128	H	-1.592541	0.653555	-0.504880
Br129	Br	-1.391950	0.349020	-0.180301
Br130	Br	-0.618639	0.911566	-0.101003
Br131	Br	-1.392026	0.630271	-0.382283
Br132	Br	-0.391955	1.278377	0.100869
H133	H	-1.418062	0.808956	-0.222565
Br134	Br	-1.618562	0.832228	-0.345150
H135	H	-1.592498	0.226389	-0.349392
H136	H	-0.791630	0.808975	-0.358861
Br137	Br	-1.005283	0.313674	0.142765
Br138	Br	-1.731925	0.731279	-0.528558
Br139	Br	-1.005306	0.148810	0.142747
H140	H	-1.005266	0.294725	-0.109897
Br141	Br	-1.282869	0.630295	-0.518548
Br142	Br	-1.282853	0.630313	-0.683397
Br143	Br	-0.727698	0.832229	-0.481485
Br144	Br	-0.243739	0.964261	-0.233133
Br145	Br	-0.670069	0.759734	-0.212095
H146	H	-1.592541	0.226387	-0.077680
H147	H	-0.510767	0.861278	-0.271414
Br148	Br	-0.392050	1.076389	-0.101044
H149	H	-1.592467	0.381855	0.077729
H150	H	-0.418036	1.080776	0.504833
H151	H	-0.330887	1.221839	-0.000103
H152	H	-1.679732	0.240681	0.000034
H153	H	-1.679773	0.240606	-0.490565
H154	H	-1.592577	0.381747	-0.504864
H155	H	-0.592487	1.109259	0.077662
Br156	Br	-0.392004	0.832253	0.547065
Br157	Br	-0.278649	0.731298	0.528585
H158	H	-0.592505	0.808985	0.377944
H159	H	-0.592464	0.953857	0.377966
Br160	Br	-0.278660	1.259893	0.528496
H161	H	-1.418036	0.508715	0.077718
Br162	Br	-0.157276	0.866030	0.048800
Br163	Br	-0.043992	0.966938	-0.052193
Br164	Br	-0.391929	0.630326	0.345215
H165	H	-0.418049	0.653572	0.077702
H166	H	-1.418108	0.508664	-0.377997
Br167	Br	-0.618557	0.630307	0.180328
H168	H	-0.412622	0.678896	0.193637
Br169	Br	-0.392025	1.278365	0.345081
Br170	Br	-0.766881	0.498209	0.233060
H171	H	-0.592517	1.109236	0.222508
Br172	Br	-0.853281	0.596545	-0.048823
H173	H	-0.499844	0.601198	0.271348
Br174	Br	-0.966583	0.495635	0.052168
