data_functionalizedCrystal
_audit_creation_method	'MofGen! by Chris Wilmer'
_symmetry_space_group_name_H-M	'P1'
_symmetry_Int_Tables_number	1
_symmetry_cell_setting	triclinic
loop_
_symmetry_equiv_pos_as_xyz
  x,y,z
_cell_length_a	27.440280
_cell_length_b	27.440280
_cell_length_c	27.440280
_cell_angle_alpha	120.001396
_cell_angle_beta	90.002332
_cell_angle_gamma	60.002656
loop_
_atom_site_label
_atom_site_type_symbol
_atom_site_fract_x
_atom_site_fract_y
_atom_site_fract_z
Zr1	Zr	0.469576	0.533358	0.064013
O2	O	0.391773	0.635023	0.141829
O3	O	0.493416	0.431693	0.040152
O4	O	0.493432	0.533347	0.141824
O5	O	0.391756	0.533378	-0.040036
O6	O	0.573634	0.533339	0.141827
O7	O	0.391757	0.533369	0.040158
O8	O	0.573605	0.351499	-0.040045
O9	O	0.391785	0.715218	0.141836
O10	O	0.563450	0.473504	0.029986
O11	O	0.503595	0.473517	-0.029864
O12	O	0.503614	0.593201	0.089841
O13	O	0.443760	0.593214	0.029992
Zr14	Zr	0.597487	0.533361	-0.063881
Zr15	Zr	0.597488	0.533346	0.064018
Zr16	Zr	0.469574	0.533374	-0.063886
Zr17	Zr	0.469594	0.661261	0.064025
Zr18	Zr	0.597468	0.405458	-0.063892
O19	O	0.573646	0.635026	-0.040020
O20	O	0.573649	0.635005	0.141836
O21	O	0.391771	0.635044	-0.040027
O22	O	0.675289	0.431697	-0.141697
O23	O	0.675292	0.431675	0.040159
O24	O	0.493413	0.431715	-0.141704
O25	O	0.675306	0.533341	0.040168
O26	O	0.573630	0.533373	-0.141692
O27	O	0.493428	0.533380	-0.141695
O28	O	0.675305	0.533351	-0.040025
O29	O	0.493459	0.715208	0.141840
O30	O	0.573603	0.351511	-0.141708
O31	O	0.675277	0.351501	-0.141704
O32	O	0.675279	0.351489	-0.040041
O33	O	0.391784	0.715230	0.040174
O34	O	0.493457	0.715220	0.040177
O35	O	0.563448	0.473518	-0.089709
O36	O	0.623303	0.473505	-0.029859
O37	O	0.563467	0.593202	0.029996
O38	O	0.503612	0.593215	-0.029853
C39	C	0.533508	0.373373	0.000052
C40	C	0.533500	0.319074	0.000047
C41	C	0.373532	0.533375	0.000060
C42	C	0.319229	0.533381	0.000058
C43	C	0.577714	0.040192	-0.044118
C44	C	0.577708	0.091214	-0.044120
O45	O	0.615287	0.080038	-0.081683
N46	N	0.533525	0.160904	0.000059
C47	C	0.489348	0.179572	0.044247
O48	O	0.451767	0.243534	0.081826
C49	C	0.489357	0.128551	0.044252
C50	C	0.533539	0.058861	0.000066
C51	C	0.621893	-0.029495	-0.088300
C52	C	0.621898	-0.080513	-0.088298
C53	C	0.577723	-0.061844	-0.044114
C54	C	0.533544	0.007842	0.000068
C55	C	0.445183	0.147220	0.088442
C56	C	0.445195	0.096191	0.088443
C57	C	0.489378	0.026501	0.044257
C58	C	0.489374	-0.024507	0.044253
N59	N	0.533557	-0.094197	0.000074
C60	C	0.577732	-0.112866	-0.044110
C61	C	0.489335	0.286718	0.044236
C62	C	0.489323	0.337739	0.044230
C63	C	0.577684	0.249377	-0.044138
C64	C	0.577692	0.198355	-0.044133
C65	C	0.533518	0.217028	0.000056
C66	C	0.577738	-0.220005	-0.044103
C67	C	0.577737	-0.271024	-0.044099
C68	C	0.489378	-0.182657	0.044270
C69	C	0.489377	-0.131643	0.044264
C70	C	0.533562	-0.150321	0.000075
O71	O	0.451816	-0.013383	0.081798
O72	O	0.615311	-0.176828	-0.081677
C73	C	-0.017468	0.533339	0.044246
C74	C	-0.068486	0.533334	0.044247
O75	O	-0.094860	0.533304	0.081807
N76	N	-0.094004	0.533341	0.000068
C77	C	-0.068499	0.533345	-0.044117
O78	O	-0.094888	0.533350	-0.081695
C79	C	-0.017479	0.533345	-0.044119
C80	C	0.008033	0.533346	0.000066
C81	C	0.008045	0.533339	0.088427
C82	C	0.059059	0.533345	0.088427
C83	C	0.084560	0.533352	0.044247
C84	C	0.059047	0.533352	0.000066
C85	C	0.008028	0.533345	-0.088306
C86	C	0.059051	0.533344	-0.088305
C87	C	0.084563	0.533345	-0.044120
C88	C	0.135562	0.533364	-0.044115
N89	N	0.161080	0.533358	0.000064
C90	C	0.135579	0.533352	0.044244
C91	C	-0.175642	0.533344	-0.044109
C92	C	-0.226663	0.533349	-0.044105
C93	C	-0.226646	0.533337	0.044258
C94	C	-0.175627	0.533337	0.044256
C95	C	-0.150124	0.533338	0.000069
C96	C	0.242711	0.533365	0.044242
C97	C	0.293728	0.533374	0.044239
C98	C	0.293708	0.533383	-0.044126
C99	C	0.242694	0.533377	-0.044122
C100	C	0.217198	0.533366	0.000065
O101	O	0.161970	0.533392	-0.081657
O102	O	0.161980	0.533338	0.081811
C103	C	0.693531	0.533344	0.000072
C104	C	0.747833	0.533339	0.000074
C105	C	0.533533	0.533341	0.160049
C106	C	0.533534	0.533334	0.214345
C107	C	0.533554	0.693347	0.000080
C108	C	0.533562	0.747645	0.000085
C109	C	0.564772	0.470868	0.417809
C110	C	0.564774	0.470864	0.366787
O111	O	0.591354	0.417726	0.313827
N112	N	0.533538	0.533344	0.372513
C113	C	0.502303	0.595832	0.429267
O114	O	0.475735	0.648975	0.429453
C115	C	0.502304	0.595835	0.480288
C116	C	0.533538	0.533351	0.474557
C117	C	0.596003	0.408389	0.412080
C118	C	0.596000	0.408393	0.463099
C119	C	0.564766	0.470876	0.519847
C120	C	0.533534	0.533355	0.525576
C121	C	0.471073	0.658322	0.537040
C122	C	0.471078	0.658320	0.588062
C123	C	0.502311	0.595836	0.582331
C124	C	0.502297	0.595842	0.633342
N125	N	0.533533	0.533362	0.627615
C126	C	0.564767	0.470879	0.570868
C127	C	0.502303	0.595820	0.322117
C128	C	0.502297	0.595818	0.271097
C129	C	0.564770	0.470850	0.208620
C130	C	0.564771	0.470853	0.259641
C131	C	0.533539	0.533340	0.316390
C132	C	0.564758	0.470892	0.678013
C133	C	0.564750	0.470902	0.729040
C134	C	0.502280	0.595870	0.791512
C135	C	0.502285	0.595860	0.740490
C136	C	0.533529	0.533366	0.683740
O137	O	0.475732	0.648952	0.686321
O138	O	0.591337	0.417744	0.570693
C139	C	0.533526	0.533379	0.840084
C140	C	0.533515	0.533385	0.785787
C141	C	0.693507	0.373357	0.000058
C142	C	0.747802	0.319054	0.000055
C143	C	0.533505	0.373392	-0.159930
C144	C	0.533497	0.319100	-0.214231
C145	C	0.693505	0.373376	-0.159924
C146	C	0.747799	0.319079	-0.214224
C147	C	0.373557	0.693344	0.160057
C148	C	0.319264	0.747641	0.214356
C149	C	0.373555	0.693362	0.000074
C150	C	0.319260	0.747666	0.000077
C151	C	0.533557	0.693328	0.160063
C152	C	0.533566	0.747620	0.214364
C153	C	0.742056	0.293551	0.031298
C154	C	0.793067	0.242535	0.031307
C155	C	0.849822	0.217017	0.000070
C156	C	0.855566	0.242525	-0.031174
C157	C	0.804556	0.293544	-0.031179
C158	C	0.564735	0.293604	-0.270976
C159	C	0.564725	0.242599	-0.322003
C160	C	0.533479	0.217086	-0.316284
C161	C	0.502237	0.242586	-0.259533
C162	C	0.502244	0.293594	-0.208508
C163	C	0.804544	0.293574	-0.208482
C164	C	0.855564	0.242563	-0.259497
C165	C	0.849836	0.217055	-0.316253
C166	C	0.793085	0.242565	-0.321993
C167	C	0.742066	0.293578	-0.270979
C168	C	0.262518	0.773152	0.208615
C169	C	0.211498	0.824179	0.259630
C170	C	0.217226	0.849689	0.316386
C171	C	0.273978	0.824176	0.322126
C172	C	0.324996	0.773154	0.271111
C173	C	0.325006	0.773173	-0.031160
C174	C	0.273995	0.824204	-0.031155
C175	C	0.217240	0.849723	0.000084
C176	C	0.211496	0.824214	0.031325
C177	C	0.262506	0.773187	0.031323
C178	C	0.564817	0.773116	0.208626
C179	C	0.564837	0.824123	0.259643
C180	C	0.533601	0.849634	0.316397
C181	C	0.502348	0.824133	0.322134
C182	C	0.502332	0.773124	0.271118
H183	H	0.613716	-0.327770	-0.080083
H184	H	0.476881	0.752370	0.275798
H185	H	0.278634	0.844953	0.368343
N186	N	0.598517	0.745595	0.147414
H187	H	0.569868	0.754479	0.124850
H188	H	0.618319	0.769500	0.151577
N189	N	-0.148112	0.533338	0.091912
H190	H	-0.172014	0.533336	0.119899
H191	H	-0.105701	0.490845	0.072590
N192	N	0.150279	0.851734	0.065007
H193	H	0.154372	0.827834	0.084797
H194	H	0.127755	0.902947	0.096415
H195	H	0.621441	0.357505	0.365877
N196	N	0.786917	0.215040	-0.383213
H197	H	0.764382	0.193868	-0.387999
H198	H	0.764403	0.253989	-0.387964
H199	H	0.590179	0.314371	-0.275644
H200	H	0.476797	0.221806	-0.254886
H201	H	0.221959	0.533355	0.080221
H202	H	0.476848	0.646742	0.837724
N203	N	0.162229	0.904752	0.000071
H204	H	0.137670	0.887001	-0.017715
H205	H	0.137718	0.947073	0.042393
H206	H	0.476917	0.844912	0.368350
H207	H	-0.012712	0.533331	0.124405
N208	N	0.086552	0.533353	-0.135962
H209	H	0.122743	0.533356	-0.129261
H210	H	0.098876	0.490862	-0.176502
H211	H	0.590204	0.419973	0.254969
H212	H	0.445645	0.709206	0.634269
N213	N	0.468513	0.321126	-0.147306
H214	H	0.448709	0.297232	-0.151431
H215	H	0.497169	0.312263	-0.124745
N216	N	-0.019479	0.533341	-0.135965
H217	H	0.004427	0.533340	-0.163952
H218	H	-0.019399	0.490846	-0.159138
H219	H	0.695863	0.314338	-0.275662
N220	N	0.598461	0.403455	0.147408
H221	H	0.593720	0.412939	0.115959
H222	H	0.642150	0.376168	0.142682
H223	H	0.453385	-0.074896	0.080229
H224	H	-0.247437	0.533359	-0.080079
N225	N	0.680847	0.321065	0.064992
H226	H	0.649398	0.357254	0.060250
H227	H	0.676121	0.282098	0.048584
H228	H	0.891353	0.175474	0.000079
N229	N	0.256308	0.745666	0.065006
H230	H	0.276083	0.754533	0.096449
H231	H	0.212603	0.769587	0.084755
H232	H	0.788378	0.221773	0.056749
N233	N	0.256329	0.745653	0.147405
H234	H	0.297256	0.709458	0.115952
H235	H	0.233758	0.724533	0.142677
N236	N	0.916786	0.214988	-0.064868
H237	H	0.921566	0.193817	-0.108574
H238	H	0.921548	0.253929	-0.048439
N239	N	0.625394	-0.240154	-0.091762
H240	H	0.653378	-0.292045	-0.119747
H241	H	0.606070	-0.220916	-0.114937
N242	N	0.598548	0.851620	0.253447
H243	H	0.618327	0.827720	0.209751
H244	H	0.569874	0.902836	0.273258
H245	H	0.314498	0.533376	0.080222
H246	H	0.891384	0.175516	-0.357788
N247	N	0.150293	0.851689	0.253431
H248	H	0.154411	0.827777	0.209735
H249	H	0.127757	0.842816	0.273238
N250	N	0.386214	0.745666	-0.064852
H251	H	0.408775	0.754537	-0.036196
H252	H	0.408723	0.694463	-0.096298
N253	N	0.810731	0.321074	-0.147271
H254	H	0.854424	0.297170	-0.151384
H255	H	0.790928	0.372288	-0.124735
N256	N	0.916769	0.215054	-0.253299
H257	H	0.912651	0.238951	-0.209602
H258	H	0.939296	0.163839	-0.273110
N259	N	0.533628	0.904644	0.371420
H260	H	0.558168	0.916921	0.359167
H261	H	0.491307	0.946951	0.395960
H262	H	0.371199	0.752383	0.275793
N263	N	0.669557	-0.155675	-0.135951
H264	H	0.697538	-0.159750	-0.163935
H265	H	0.692732	-0.178760	-0.116625
H266	H	0.175679	0.891235	0.357920
H267	H	0.476843	0.646740	0.745158
N268	N	0.280198	0.851711	-0.064853
H269	H	0.323894	0.827793	-0.084647
H270	H	0.260387	0.842842	-0.096261
N271	N	0.810758	0.321045	-0.064881
H272	H	0.854453	0.297133	-0.084668
H273	H	0.790954	0.312165	-0.096294
H274	H	0.657868	-0.044707	-0.124280
H275	H	0.590168	0.221842	-0.368206
H276	H	0.079829	0.533343	0.124405
H277	H	0.453411	-0.167468	0.080241
H278	H	0.533478	0.175552	-0.357837
H279	H	0.314478	0.533391	-0.080096
N280	N	-0.254156	0.533331	0.091913
H281	H	-0.290347	0.533329	0.085205
H282	H	-0.223994	0.490837	0.089958
H283	H	0.613653	0.234184	-0.080114
N284	N	0.625346	0.123192	-0.091789
H285	H	0.653326	0.119115	-0.119778
H286	H	0.648525	0.100103	-0.072467
H287	H	0.453339	0.394481	0.080204
H288	H	0.590183	0.420018	0.724366
N289	N	0.441685	0.306862	0.091899
H290	H	0.413697	0.358752	0.119882
H291	H	0.418512	0.287615	0.072582
N292	N	0.437393	0.725716	0.543230
H293	H	0.393690	0.753043	0.565773
H294	H	0.453844	0.752962	0.565750
H295	H	0.221917	0.533387	-0.080096
H296	H	0.409223	0.111403	0.124429
N297	N	0.397545	0.222378	0.136116
H298	H	0.369574	0.226450	0.164110
H299	H	0.416888	0.245449	0.159277
H300	H	-0.154883	0.533350	-0.080091
H301	H	0.590199	0.420003	0.631810
H302	H	0.621436	0.357512	0.458425
N303	N	0.468606	0.663209	0.277279
H304	H	0.424903	0.690530	0.299817
H305	H	0.485048	0.690466	0.299800
N306	N	0.468621	0.663222	0.383325
H307	H	0.448839	0.702797	0.379205
H308	H	0.437209	0.665961	0.405868
