data_functionalizedCrystal
_audit_creation_method	'MofGen! by Chris Wilmer'
_symmetry_space_group_name_H-M	'P1'
_symmetry_Int_Tables_number	1
_symmetry_cell_setting	triclinic
loop_
_symmetry_equiv_pos_as_xyz
  x,y,z
_cell_length_a	18.215407
_cell_length_b	19.805405
_cell_length_c	18.215399
_cell_angle_alpha	89.969390
_cell_angle_beta	89.980167
_cell_angle_gamma	90.026858
loop_
_atom_site_label
_atom_site_type_symbol
_atom_site_fract_x
_atom_site_fract_y
_atom_site_fract_z
Zn1	Zn	1.125064	-0.269462	-0.416102
Zn2	Zn	1.124969	-0.382653	-0.293030
Zn3	Zn	1.001997	-0.269484	-0.293050
Zn4	Zn	1.001959	-0.382615	-0.416055
O5	O	1.063497	-0.326054	-0.354559
O6	O	1.228036	-0.284484	-0.399788
O7	O	1.108633	-0.367666	-0.190049
O8	O	1.018377	-0.174765	-0.309401
O9	O	1.227966	-0.367644	-0.309368
O10	O	1.108794	-0.174748	-0.399807
O11	O	1.018285	-0.284521	-0.190063
O12	O	0.899008	-0.284485	-0.309355
O13	O	1.018313	-0.367580	-0.519046
O14	O	0.898980	-0.367602	-0.399727
O15	O	1.108758	-0.284447	-0.519080
O16	O	1.108596	-0.477365	-0.309322
O17	O	1.018221	-0.477337	-0.399708
C18	C	0.872291	-0.326042	-0.354538
C19	C	0.790492	-0.326053	-0.354547
C20	C	0.602303	-0.369400	-0.401544
C21	C	0.525444	-0.369403	-0.401553
C22	C	0.525444	-0.282719	-0.307591
C23	C	0.602301	-0.282714	-0.307586
C24	C	0.640729	-0.326059	-0.354561
C25	C	0.487013	-0.326066	-0.354575
C26	C	0.403679	-0.326068	-0.354585
C27	C	0.724068	-0.326056	-0.354553
C28	C	1.063415	-0.501910	-0.354524
C29	C	1.063446	-0.577142	-0.354533
C30	C	1.110550	-0.612478	-0.307518
C31	C	1.110582	-0.683166	-0.307535
C32	C	1.063505	-0.718517	-0.354562
C33	C	1.016399	-0.683176	-0.401582
C34	C	1.016372	-0.612489	-0.401569
C35	C	1.016507	-0.968249	-0.401637
C36	C	1.016536	-1.038941	-0.401645
C37	C	1.110717	-1.038927	-0.307602
C38	C	1.110690	-0.968239	-0.307589
C39	C	1.063587	-0.932905	-0.354611
C40	C	1.063555	-0.856256	-0.354594
C41	C	1.063533	-0.795164	-0.354577
C42	C	1.255450	-0.326066	-0.354581
C43	C	1.337249	-0.326071	-0.354590
C44	C	1.063542	-0.326007	-0.546512
C45	C	1.063561	-0.325987	-0.628311
C46	C	1.063601	-0.149511	-0.354611
C47	C	1.063645	-0.074279	-0.354633
C48	C	1.110673	-0.282659	-0.816524
C49	C	1.110682	-0.282639	-0.893383
C50	C	1.016502	-0.369210	-0.893336
C51	C	1.016490	-0.369226	-0.816479
C52	C	1.063580	-0.325952	-0.778075
C53	C	1.063600	-0.325916	-0.931791
C54	C	1.063609	-0.325895	-1.015125
C55	C	1.063570	-0.325972	-0.694736
C56	C	1.063495	-0.326051	-0.163353
C57	C	1.063619	-0.325880	-0.081555
H58	H	1.148883	-0.583700	-0.269220
H59	H	1.149014	-0.247420	-0.785258
H60	H	0.978016	-0.583719	-0.439854
H61	H	0.978165	-0.404444	-0.924614
C62	C	0.965398	-1.077202	-0.452792
C63	C	0.924156	-1.031129	-0.493985
C64	C	0.877050	-1.066350	-0.541113
H65	H	0.933292	-1.104822	-0.424700
H66	H	0.993531	-1.104722	-0.484922
H67	H	0.896025	-1.003621	-0.461859
H68	H	0.956243	-1.003508	-0.522093
H69	H	0.905183	-1.093870	-0.573244
H70	H	0.844949	-1.093968	-0.513015
H71	H	0.849067	-1.035095	-0.569073
C72	C	0.483593	-0.416388	-0.452534
C73	C	0.408059	-0.407104	-0.442503
C74	C	0.369483	-0.450370	-0.489464
H75	H	0.496074	-0.461880	-0.441720
H76	H	0.496174	-0.406533	-0.502015
H77	H	0.395483	-0.416964	-0.393033
H78	H	0.395555	-0.361622	-0.453323
H79	H	0.382064	-0.440515	-0.538945
H80	H	0.381970	-0.495859	-0.478645
H81	H	0.318229	-0.444072	-0.482669
H82	H	0.978136	-0.404480	-0.785172
H83	H	0.633589	-0.404693	-0.439797
H84	H	0.494146	-0.247431	-0.269344
H85	H	0.633588	-0.247416	-0.269327
C86	C	1.161749	-0.721409	-0.256406
C87	C	1.202953	-0.675321	-0.215201
C88	C	1.250091	-0.710525	-0.168086
H89	H	1.193877	-0.748943	-0.284508
H90	H	1.133641	-0.749013	-0.224283
H91	H	1.231059	-0.647729	-0.247321
H92	H	1.170844	-0.647785	-0.187085
H93	H	1.221983	-0.738128	-0.135962
H94	H	1.282215	-0.738058	-0.196193
H95	H	1.278049	-0.679260	-0.140118
C96	C	1.161762	-0.929946	-0.256411
C97	C	1.145801	-0.947211	-0.183586
C98	C	1.192843	-0.911957	-0.136422
H99	H	1.155046	-0.882776	-0.263037
H100	H	1.211219	-0.941501	-0.267188
H101	H	1.096356	-0.935652	-0.172813
H102	H	1.152521	-0.994375	-0.176937
H103	H	1.242300	-0.923513	-0.147199
H104	H	1.186124	-0.864789	-0.143054
H105	H	1.182025	-0.923671	-0.087005
C106	C	1.161852	-1.077413	-0.256648
C107	C	1.151826	-1.146885	-0.266743
C108	C	1.198929	-1.182358	-0.219830
H109	H	1.151164	-1.065958	-0.207155
H110	H	1.211299	-1.065814	-0.267482
H111	H	1.102391	-1.158480	-0.255905
H112	H	1.162520	-1.158360	-0.316227
H113	H	1.248376	-1.170758	-0.230664
H114	H	1.188237	-1.170896	-0.170340
H115	H	1.192137	-1.229497	-0.226678
H116	H	0.978153	-0.939485	-0.439923
H117	H	1.149028	-0.247385	-0.924686
H118	H	0.978071	-0.711965	-0.439876
