data_functionalizedCrystal
_audit_creation_method	'MofGen! by Chris Wilmer'
_symmetry_space_group_name_H-M	'P1'
_symmetry_Int_Tables_number	1
_symmetry_cell_setting	triclinic
loop_
_symmetry_equiv_pos_as_xyz
  x,y,z
_cell_length_a	12.827892
_cell_length_b	12.759401
_cell_length_c	12.827885
_cell_angle_alpha	89.980121
_cell_angle_beta	90.029976
_cell_angle_gamma	89.988638
loop_
_atom_site_label
_atom_site_type_symbol
_atom_site_fract_x
_atom_site_fract_y
_atom_site_fract_z
Zn1	Zn	-0.416093	-1.606248	0.590860
Zn2	Zn	-0.590871	-1.606141	0.416121
Zn3	Zn	-0.416132	-1.430551	0.416133
Zn4	Zn	-0.590780	-1.430536	0.590819
O5	O	-0.503469	-1.518369	0.503483
O6	O	-0.439299	-1.753255	0.567693
O7	O	-0.567746	-1.582810	0.269886
O8	O	-0.269891	-1.453908	0.439333
O9	O	-0.567708	-1.753176	0.439312
O10	O	-0.269862	-1.582992	0.567704
O11	O	-0.439366	-1.453804	0.269895
O12	O	-0.439278	-1.283528	0.439293
O13	O	-0.567553	-1.453884	0.737061
O14	O	-0.567591	-1.283517	0.567635
O15	O	-0.439211	-1.582978	0.737091
O16	O	-0.737095	-1.582796	0.439272
O17	O	-0.737028	-1.453780	0.567623
C18	C	-0.503430	-1.245402	0.503461
C19	C	-0.503438	-1.128625	0.503477
C20	C	-0.436699	-1.073797	0.570427
C21	C	-0.436713	-0.964073	0.570430
C22	C	-0.570215	-0.964014	0.436531
C23	C	-0.570195	-1.073737	0.436523
C24	C	-0.359626	-1.073830	0.647735
C25	C	-0.359640	-0.964106	0.647739
C26	C	-0.774979	-1.518303	0.503465
C27	C	-0.891132	-1.518371	0.503492
C28	C	-0.942915	-1.582288	0.440050
C29	C	-1.062965	-1.582360	0.440077
C30	C	-0.230899	-1.518463	0.503525
C31	C	-0.114746	-1.518504	0.503542
C32	C	-0.503368	-1.518441	0.776053
C33	C	-0.503325	-1.518472	0.892207
C34	C	-0.503496	-0.792402	0.503499
C35	C	-0.503473	-0.909179	0.503488
C36	C	-0.503494	-1.518357	0.231973
C37	C	-0.503243	-1.518530	0.115821
C38	C	-0.439761	-1.582390	1.064051
C39	C	-0.439804	-1.582359	0.944000
H40	H	-0.388706	-1.107894	0.724562
H41	H	-1.107498	-1.637079	0.385760
Br42	Br	-0.349204	-1.673481	0.869803
H43	H	-0.624566	-0.919311	0.382020
Br44	Br	-0.593910	-1.427330	0.966397
Br45	Br	-1.040537	-1.427279	0.594070
H46	H	-0.624530	-1.118373	0.381996
H47	H	-0.935675	-1.463707	0.557830
H48	H	-0.557628	-1.463839	1.071266
H49	H	-0.278659	-1.103597	0.626197
Br50	Br	-0.349126	-1.673567	1.138300
H51	H	-0.282723	-0.930065	0.618892
H52	H	-0.381418	-0.934360	0.728640
H53	H	-0.898374	-1.636961	0.385719
