data_functionalizedCrystal
_audit_creation_method	'MofGen! by Chris Wilmer'
_symmetry_space_group_name_H-M	'P1'
_symmetry_Int_Tables_number	1
_symmetry_cell_setting	triclinic
loop_
_symmetry_equiv_pos_as_xyz
  x,y,z
_cell_length_a	23.532407
_cell_length_b	23.532407
_cell_length_c	22.010155
_cell_angle_alpha	90.000423
_cell_angle_beta	89.996931
_cell_angle_gamma	97.151322
loop_
_atom_site_label
_atom_site_type_symbol
_atom_site_fract_x
_atom_site_fract_y
_atom_site_fract_z
O1	O	0.755264	-0.069127	-0.050455
O2	O	0.589400	-0.079130	-0.050474
O3	O	0.677334	0.008803	-0.050453
O4	O	0.667330	-0.157060	-0.050476
O5	O	0.677318	0.008790	0.050597
O6	O	0.589384	-0.079143	0.050576
O7	O	0.755248	-0.069140	0.050595
Cu8	Cu	0.672315	-0.074143	0.059812
Cu9	Cu	0.672333	-0.074127	-0.059691
O10	O	0.667314	-0.157073	0.050574
C11	C	0.568176	-0.078882	0.000049
C12	C	0.504959	-0.078116	0.000042
C13	C	0.677071	0.030013	0.000074
C14	C	0.676305	0.093230	0.000078
C15	C	0.105856	-0.125350	0.000063
C16	C	0.046456	-0.124638	0.000067
O17	O	0.009711	-0.168424	0.000083
N18	N	0.023830	-0.072362	0.000073
C19	C	0.060607	-0.020794	0.000082
O20	O	0.035908	0.023737	0.000088
C21	C	0.120006	-0.021506	0.000082
C22	C	0.142629	-0.073785	0.000070
C23	C	0.128479	-0.177625	0.000051
C24	C	0.187876	-0.178336	0.000046
C25	C	0.224649	-0.126772	0.000053
C26	C	0.202025	-0.074497	0.000065
C27	C	0.156783	0.030062	0.000096
C28	C	0.216185	0.029345	0.000097
C29	C	0.238808	-0.022934	0.000084
C30	C	0.298194	-0.023643	0.000067
N31	N	0.320820	-0.075920	0.000061
C32	C	0.284048	-0.127484	0.000054
C33	C	-0.064135	-0.019302	0.000082
C34	C	-0.123533	-0.018589	0.000077
C35	C	-0.137680	-0.122434	0.000063
C36	C	-0.078281	-0.123146	0.000064
C37	C	-0.041509	-0.071578	0.000076
C38	C	0.408784	-0.128974	0.000043
C39	C	0.468186	-0.129680	0.000035
C40	C	0.482329	-0.025836	0.000052
C41	C	0.422932	-0.025129	0.000057
C42	C	0.386160	-0.076702	0.000054
O43	O	0.334974	0.020119	0.000054
O44	O	0.308755	-0.172007	0.000055
C45	C	0.776472	-0.069388	0.000071
C46	C	0.839689	-0.070154	0.000073
C47	C	0.667577	-0.178283	0.000046
C48	C	0.668343	-0.241500	0.000037
N49	N	0.672305	-0.074153	0.143865
C50	C	0.723539	0.492333	0.000050
C51	C	0.722827	0.551733	0.000046
O52	O	0.766613	0.588478	0.000028
N53	N	0.670551	0.574359	0.000040
C54	C	0.618983	0.537582	0.000033
O55	O	0.574452	0.562281	0.000027
C56	C	0.619695	0.478182	0.000033
C57	C	0.671974	0.455560	0.000045
C58	C	0.775814	0.469710	0.000061
C59	C	0.776525	0.410313	0.000067
C60	C	0.724961	0.373540	0.000062
C61	C	0.672685	0.396164	0.000051
C62	C	0.568127	0.441406	0.000022
C63	C	0.568844	0.382004	0.000022
C64	C	0.621123	0.359381	0.000034
C65	C	0.621832	0.299995	0.000052
N66	N	0.674109	0.277368	0.000057
C67	C	0.725673	0.314141	0.000062
C68	C	0.617491	0.662324	0.000031
C69	C	0.616778	0.721722	0.000035
C70	C	0.720623	0.735869	0.000047
C71	C	0.721335	0.676470	0.000047
C72	C	0.669767	0.639698	0.000037
C73	C	0.727163	0.189405	0.000075
C74	C	0.727869	0.130003	0.000083
C75	C	0.624025	0.115860	0.000069
C76	C	0.623318	0.175257	0.000064
C77	C	0.674891	0.212029	0.000065
O78	O	0.578070	0.263215	0.000067
O79	O	0.770196	0.289433	0.000060
N80	N	0.672347	-0.074112	-0.143744
C81	C	0.711273	-0.035196	0.563653
C82	C	0.711275	-0.035192	0.627261
O83	O	0.744384	-0.002076	0.660160
N84	N	0.672333	-0.074115	0.659072
C85	C	0.633382	-0.113041	0.627272
O86	O	0.600259	-0.146148	0.660170
C87	C	0.633377	-0.113042	0.563665
C88	C	0.672326	-0.074120	0.531858
C89	C	0.750217	0.003723	0.531846
C90	C	0.750215	0.003719	0.468243
C91	C	0.711268	-0.035205	0.436447
C92	C	0.672324	-0.074125	0.468255
C93	C	0.594424	-0.151965	0.531866
C94	C	0.594422	-0.151962	0.468256
C95	C	0.633370	-0.113040	0.436448
C96	C	0.633374	-0.113054	0.372856
N97	N	0.672317	-0.074130	0.341045
C98	C	0.711263	-0.035206	0.372841
C99	C	0.633395	-0.113036	0.760850
C100	C	0.633402	-0.113039	0.824455
C101	C	0.711294	-0.035188	0.824440
C102	C	0.711290	-0.035189	0.760833
C103	C	0.672337	-0.074113	0.729039
C104	C	0.711256	-0.035220	0.239269
C105	C	0.711252	-0.035229	0.175660
C106	C	0.633358	-0.113077	0.175681
C107	C	0.633364	-0.113070	0.239284
C108	C	0.672315	-0.074136	0.271077
O109	O	0.600282	-0.146151	0.339916
O110	O	0.744376	-0.002100	0.339935
H111	H	0.378851	-0.170970	0.000042
H112	H	0.743004	-0.003495	0.734939
H113	H	0.526850	0.352066	0.000013
C114	C	0.754134	0.007633	0.859424
C115	C	0.754130	0.007632	0.929388
C116	C	0.796966	0.050450	0.964375
C117	C	0.839806	0.093270	0.929396
C118	C	0.839812	0.093273	0.859428
C119	C	0.796975	0.050454	0.824442
H120	H	0.722416	-0.024067	0.955285
H121	H	0.796962	0.050448	1.016170
H122	H	0.871516	0.124967	0.955295
H123	H	0.871526	0.124972	0.833531
H124	H	0.796980	0.050457	0.772646
H125	H	0.781933	0.035423	0.557728
H126	H	0.404512	0.017441	0.000058
H127	H	-0.059867	-0.165717	0.000057
H128	H	0.770443	0.111587	0.000094
C129	C	0.565813	0.200150	0.000054
C130	C	0.523064	0.186157	0.052520
C131	C	0.465560	0.211047	0.052503
C132	C	0.450805	0.249930	0.000019
C133	C	0.493555	0.263925	-0.052451
C134	C	0.551059	0.239035	-0.052433
H135	H	0.533986	0.157371	0.091375
H136	H	0.433913	0.200686	0.091344
H137	H	0.408236	0.268355	0.000006
H138	H	0.482633	0.292711	-0.091306
H139	H	0.582706	0.249396	-0.091275
C140	C	0.560761	0.621877	0.000031
C141	C	0.517834	0.624212	-0.052443
C142	C	0.461105	0.583769	-0.052443
C143	C	0.447303	0.540990	0.000030
C144	C	0.490232	0.538653	0.052508
C145	C	0.546961	0.579096	0.052509
H146	H	0.528050	0.655881	-0.091290
H147	H	0.429326	0.585499	-0.091291
H148	H	0.405309	0.511051	0.000030
H149	H	0.480016	0.506984	0.091356
H150	H	0.578740	0.577366	0.091357
H151	H	0.562700	-0.183658	0.442372
C152	C	0.832541	0.510155	0.000071
C153	C	0.846355	0.552938	-0.052396
C154	C	0.903085	0.593379	-0.052380
C155	C	0.946002	0.591036	0.000103
C156	C	0.932189	0.548252	0.052575
C157	C	0.875458	0.507811	0.052558
H158	H	0.814585	0.554673	-0.091251
H159	H	0.913311	0.625051	-0.091223
H160	H	0.987997	0.620973	0.000115
H161	H	0.963959	0.546516	0.091429
H162	H	0.865233	0.476139	0.091401
H163	H	0.601654	-0.144769	0.265183
H164	H	0.246123	0.071339	0.000107
H165	H	0.582043	0.085909	0.000067
H166	H	0.486602	-0.172255	0.000025
C167	C	-0.023687	0.037427	0.000085
C168	C	0.019096	0.051227	-0.052388
C169	C	0.059540	0.107956	-0.052384
C170	C	0.057201	0.150884	0.000091
C171	C	0.014417	0.137085	0.052568
C172	C	-0.026027	0.080357	0.052564
H173	H	0.020828	0.019448	-0.091237
H174	H	0.091212	0.118170	-0.091231
H175	H	0.087141	0.192878	0.000094
H176	H	0.012684	0.168865	0.091417
H177	H	-0.057699	0.070142	0.091411
C178	C	0.590516	-0.155891	0.140700
C179	C	0.590512	-0.155889	0.070735
C180	C	0.547666	-0.198700	0.035753
C181	C	0.504822	-0.241513	0.070735
C182	C	0.504824	-0.241517	0.140703
C183	C	0.547671	-0.198706	0.175686
H184	H	0.622229	-0.124195	0.044836
H185	H	0.547665	-0.198697	-0.016043
H186	H	0.473105	-0.273205	0.044839
H187	H	0.473107	-0.273211	0.166603
H188	H	0.547672	-0.198709	0.227481
H189	H	-0.167632	-0.164421	0.000060
C190	C	0.783893	0.229847	0.000081
C191	C	0.826811	0.227512	0.052564
C192	C	0.883540	0.267954	0.052575
C193	C	0.897352	0.310733	0.000103
C194	C	0.854433	0.313070	-0.052384
C195	C	0.797704	0.272627	-0.052395
H196	H	0.816587	0.195843	0.091411
H197	H	0.915312	0.266224	0.091430
H198	H	0.939347	0.340671	0.000111
H199	H	0.864657	0.344738	-0.091231
H200	H	0.765932	0.274358	-0.091250
C201	C	0.212751	-0.235847	0.000043
C202	C	0.198732	-0.278582	0.052516
C203	C	0.223601	-0.336097	0.052517
C204	C	0.262489	-0.350878	0.000046
C205	C	0.276510	-0.308143	-0.052431
C206	C	0.251641	-0.250627	-0.052432
H207	H	0.169944	-0.267641	0.091362
H208	H	0.213222	-0.367732	0.091364
H209	H	0.280899	-0.393454	0.000047
H210	H	0.305299	-0.319084	-0.091277
H211	H	0.262021	-0.218992	-0.091279
C212	C	0.793053	0.046539	0.433258
C213	C	0.792462	0.111387	0.442009
C214	C	0.835300	0.154212	0.407028
C215	C	0.878729	0.132187	0.363295
C216	C	0.879322	0.067336	0.354542
C217	C	0.836484	0.024511	0.389523
H218	H	0.760311	0.127694	0.474384
H219	H	0.834861	0.202219	0.413508
H220	H	0.910440	0.163889	0.337400
H221	H	0.911473	0.051029	0.322167
H222	H	0.836923	-0.023496	0.383043
C223	C	0.551576	-0.194776	0.566846
C224	C	0.486734	-0.194138	0.558099
C225	C	0.443883	-0.236950	0.593078
C226	C	0.465874	-0.280401	0.636804
C227	C	0.530719	-0.281041	0.645553
C228	C	0.573571	-0.238229	0.610574
H229	H	0.470452	-0.161972	0.525728
H230	H	0.395880	-0.236476	0.586601
H231	H	0.434153	-0.312093	0.662698
H232	H	0.547001	-0.313207	0.677924
H233	H	0.621574	-0.238703	0.617051
H234	H	0.525555	0.459814	0.000009
H235	H	-0.141947	0.023982	0.000078
H236	H	0.098544	-0.219617	0.000048
H237	H	0.762610	0.765821	0.000048
H238	H	0.742971	-0.003534	0.149765
H239	H	0.601692	-0.144738	0.850348
H240	H	0.138375	0.072634	0.000106
H241	H	0.512280	0.016146	0.000056
H242	H	0.819097	0.391900	0.000074
H243	H	0.763906	0.658056	0.000056
H244	H	0.574207	0.740136	0.000036
H245	H	0.742973	-0.003516	0.265148
H246	H	0.601676	-0.144737	0.734966
