data_functionalizedCrystal
_audit_creation_method	'MofGen! by Chris Wilmer'
_symmetry_space_group_name_H-M	'P1'
_symmetry_Int_Tables_number	1
_symmetry_cell_setting	triclinic
loop_
_symmetry_equiv_pos_as_xyz
  x,y,z
_cell_length_a	12.827893
_cell_length_b	18.050589
_cell_length_c	12.827885
_cell_angle_alpha	89.970449
_cell_angle_beta	89.980728
_cell_angle_gamma	90.028191
loop_
_atom_site_label
_atom_site_type_symbol
_atom_site_fract_x
_atom_site_fract_y
_atom_site_fract_z
Zn1	Zn	1.597576	-0.295624	-0.590850
Zn2	Zn	1.930910	0.037709	-0.257517
Zn3	Zn	2.264243	0.371043	0.075816
Zn4	Zn	1.597431	-0.419832	-0.416111
Zn5	Zn	1.930765	-0.086499	-0.082778
Zn6	Zn	2.264098	0.246835	0.250555
Zn7	Zn	1.422818	-0.295660	-0.416124
Zn8	Zn	1.756151	0.037673	-0.082791
Zn9	Zn	2.089485	0.371006	0.250543
Zn10	Zn	1.422764	-0.419777	-0.590811
Zn11	Zn	1.756097	-0.086443	-0.257478
Zn12	Zn	2.089431	0.246890	0.075855
O13	O	1.510147	-0.357723	-0.503474
O14	O	1.843481	-0.024390	-0.170141
O15	O	2.176814	0.308943	0.163192
O16	O	1.743793	-0.312109	-0.567682
O17	O	2.077127	0.021225	-0.234349
O18	O	2.410460	0.354558	0.098985
O19	O	1.574230	-0.403399	-0.269877
O20	O	1.907564	-0.070065	0.063456
O21	O	2.240897	0.263268	0.396790
O22	O	1.446083	-0.191731	-0.439323
O23	O	1.779416	0.141603	-0.105990
O24	O	2.112750	0.474936	0.227343
O25	O	1.743687	-0.403364	-0.439302
O26	O	2.077020	-0.070030	-0.105969
O27	O	2.410353	0.263303	0.227365
O28	O	1.574478	-0.191704	-0.567694
O29	O	1.907811	0.141629	-0.234361
O30	O	2.241144	0.474962	0.098973
O31	O	1.445943	-0.312170	-0.269886
O32	O	1.779276	0.021163	0.063447
O33	O	2.112609	0.354497	0.396780
O34	O	1.276575	-0.312117	-0.439286
O35	O	1.609908	0.021217	-0.105952
O36	O	1.943241	0.354550	0.227381
O37	O	1.445991	-0.403269	-0.737053
O38	O	1.779325	-0.069936	-0.403719
O39	O	2.112658	0.263397	-0.070386
O40	O	1.276535	-0.403304	-0.567628
O41	O	1.609868	-0.069971	-0.234294
O42	O	1.943202	0.263362	0.099039
O43	O	1.574425	-0.312055	-0.737081
O44	O	1.907759	0.021278	-0.403748
O45	O	2.241092	0.354612	-0.070415
O46	O	1.574178	-0.523749	-0.439264
O47	O	1.907512	-0.190416	-0.105931
O48	O	2.240845	0.142917	0.227403
O49	O	1.445851	-0.523709	-0.567615
O50	O	1.779184	-0.190375	-0.234282
O51	O	2.112517	0.142958	0.099051
C52	C	1.238638	-0.357709	-0.503454
C53	C	1.571971	-0.024376	-0.170121
C54	C	1.905304	0.308958	0.163212
C55	C	1.122484	-0.357721	-0.503471
C56	C	1.455818	-0.024387	-0.170137
C57	C	1.789151	0.308946	0.163196
C58	C	1.510021	-0.550675	-0.503457
C59	C	1.843355	-0.217342	-0.170124
C60	C	2.176688	0.115991	0.163210
C61	C	1.510063	-0.633221	-0.503484
C62	C	1.843396	-0.299888	-0.170151
C63	C	2.176730	0.033445	0.163182
C64	C	1.070708	-0.402914	-0.566880
C65	C	1.404041	-0.069580	-0.233547
C66	C	1.737374	0.263753	0.099786
C67	C	0.950657	-0.402927	-0.566899
C68	C	1.283991	-0.069594	-0.233565
C69	C	1.617324	0.263740	0.099768
C70	C	1.440347	-0.832677	-0.573257
C71	C	1.773680	-0.499343	-0.239924
C72	C	2.107014	-0.166010	0.093409
C73	C	1.414870	-0.882124	-0.477900
C74	C	1.748204	-0.548791	-0.144567
C75	C	2.081537	-0.215457	0.188766
C76	C	1.510166	-0.784351	-0.503498
C77	C	1.843499	-0.451018	-0.170165
C78	C	2.176832	-0.117685	0.163169
C79	C	1.535694	-0.881986	-0.598866
C80	C	1.869027	-0.548652	-0.265533
C81	C	2.202360	-0.215319	0.067801
C82	C	1.510263	-0.930337	-0.503520
C83	C	1.843596	-0.597003	-0.170186
C84	C	2.176929	-0.263670	0.163147
C85	C	1.484639	-0.832712	-0.408091
C86	C	1.817972	-0.499378	-0.074757
C87	C	2.151305	-0.166045	0.258576
C88	C	1.605506	-0.832569	-0.529120
C89	C	1.938840	-0.499236	-0.195787
C90	C	2.272173	-0.165902	0.137546
C91	C	1.580066	-0.881994	-0.433698
C92	C	1.913399	-0.548661	-0.100364
C93	C	2.246733	-0.215327	0.232969
C94	C	1.510107	-0.700253	-0.503487
C95	C	1.843440	-0.366920	-0.170154
C96	C	2.176774	-0.033587	0.163180
C97	C	1.510322	-1.014433	-0.503520
C98	C	1.843655	-0.681100	-0.170187
C99	C	2.176988	-0.347766	0.163147
C100	C	1.782718	-0.357738	-0.503495
C101	C	2.116051	-0.024405	-0.170161
C102	C	2.449384	0.308929	0.163172
C103	C	1.898871	-0.357745	-0.503504
C104	C	2.232204	-0.024411	-0.170170
C105	C	2.565537	0.308922	0.163163
C106	C	1.510219	-0.357652	-0.776045
C107	C	1.843552	-0.024319	-0.442711
C108	C	2.176885	0.309015	-0.109378
C109	C	1.510249	-0.357622	-0.892198
C110	C	1.843582	-0.024288	-0.558864
C111	C	2.176916	0.309045	-0.225531
C112	C	1.510303	-0.164018	-0.503515
C113	C	1.843636	0.169316	-0.170181
C114	C	2.176969	0.502649	0.163152
C115	C	1.510369	-0.081472	-0.503532
C116	C	1.843702	0.251862	-0.170198
C117	C	2.177035	0.585195	0.163135
C118	C	1.573809	-0.312477	-0.943997
C119	C	1.907142	0.020856	-0.610663
C120	C	2.240476	0.354190	-0.277330
C121	C	1.573842	-0.312444	-1.064047
C122	C	1.907175	0.020889	-0.730714
C123	C	2.240508	0.354222	-0.397380
C124	C	1.510137	-0.357741	-0.231964
C125	C	1.843470	-0.024407	0.101369
C126	C	2.176803	0.308926	0.434702
C127	C	1.510309	-0.357562	-0.115812
C128	C	1.843642	-0.024229	0.217522
C129	C	2.176976	0.309105	0.550855
H130	H	0.906131	-0.441621	-0.621183
H131	H	1.239464	-0.108287	-0.287850
H132	H	1.572797	0.225046	0.045484
H133	H	1.455850	-0.396243	-0.936728
H134	H	1.789184	-0.062909	-0.603394
H135	H	2.122517	0.270424	-0.270061
H136	H	0.943391	-0.319054	-0.449210
H137	H	1.276724	0.014280	-0.115876
H138	H	1.610057	0.347613	0.217457
C139	C	1.647292	-0.260296	-0.883851
C140	C	1.980626	0.073037	-0.550518
C141	C	2.313959	0.406371	-0.217184
H142	H	1.637636	-0.267167	-0.811054
H143	H	1.970969	0.066166	-0.477720
H144	H	2.304303	0.399499	-0.144387
H145	H	1.632065	-0.210380	-0.901695
H146	H	1.965398	0.122953	-0.568362
H147	H	2.298732	0.456287	-0.235029
H148	H	1.717522	-0.271160	-0.901689
H149	H	2.050855	0.062174	-0.568356
H150	H	2.384188	0.395507	-0.235022
H151	H	1.686069	-0.810788	-0.550818
H152	H	2.019402	-0.477455	-0.217485
H153	H	2.352736	-0.144121	0.115849
C154	C	1.306014	-0.911534	-0.448623
C155	C	1.639347	-0.578201	-0.115290
C156	C	1.972680	-0.244868	0.218044
H157	H	1.310811	-0.940508	-0.386963
H158	H	1.644144	-0.607175	-0.053630
H159	H	1.977477	-0.273841	0.279703
H160	H	1.279816	-0.941227	-0.503845
H161	H	1.613150	-0.607893	-0.170511
H162	H	1.946483	-0.274560	0.162822
H163	H	1.260258	-0.871004	-0.436984
H164	H	1.593591	-0.537671	-0.103650
H165	H	1.926925	-0.204338	0.229683
C166	C	1.130879	-0.455171	-0.640204
C167	C	1.464212	-0.121837	-0.306870
C168	C	1.797546	0.211496	0.026463
H169	H	1.203673	-0.448310	-0.630568
H170	H	1.537006	-0.114976	-0.297234
H171	H	1.870340	0.218357	0.036099
H172	H	1.113081	-0.444376	-0.710462
H173	H	1.446414	-0.111043	-0.377128
H174	H	1.779748	0.222290	-0.043795
H175	H	1.113014	-0.505073	-0.624802
H176	H	1.446347	-0.171739	-0.291468
H177	H	1.779680	0.161594	0.041865
H178	H	1.077936	-0.319036	-0.449201
H179	H	1.411269	0.014297	-0.115868
H180	H	1.744602	0.347631	0.217466
H181	H	1.381217	-0.811021	-0.632167
H182	H	1.714550	-0.477688	-0.298834
H183	H	2.047884	-0.144355	0.034499
C184	C	1.647360	-0.260232	-1.124216
C185	C	1.980694	0.073101	-0.790883
C186	C	2.314027	0.406434	-0.457550
H187	H	1.637735	-0.267058	-1.197010
H188	H	1.971068	0.066275	-0.863677
H189	H	2.304402	0.399609	-0.530343
H190	H	1.717575	-0.271099	-1.106379
H191	H	2.050909	0.062234	-0.773046
H192	H	2.384242	0.395568	-0.439713
H193	H	1.632113	-0.210323	-1.106392
H194	H	1.965446	0.123010	-0.773059
H195	H	2.298780	0.456344	-0.439726
H196	H	1.455894	-0.396217	-1.071273
H197	H	1.789227	-0.062883	-0.737939
H198	H	2.122560	0.270450	-0.404606
H199	H	1.639151	-0.903512	-0.374645
H200	H	1.972484	-0.570179	-0.041312
H201	H	2.305817	-0.236845	0.292021
C202	C	1.455386	-0.803599	-0.299122
C203	C	1.788719	-0.470266	0.034212
C204	C	2.122052	-0.136932	0.367545
H205	H	1.455491	-0.750969	-0.299789
H206	H	1.788825	-0.417636	0.033544
H207	H	2.122158	-0.084302	0.366878
H208	H	1.504701	-0.820878	-0.249534
H209	H	1.838034	-0.487545	0.083800
H210	H	2.171367	-0.154211	0.417133
H211	H	1.387898	-0.820980	-0.280827
H212	H	1.721231	-0.487646	0.052506
H213	H	2.054565	-0.154313	0.385839
C214	C	1.564816	-0.911224	-0.707803
C215	C	1.898149	-0.577891	-0.374470
C216	C	2.231483	-0.244558	-0.041137
H217	H	1.515106	-0.894329	-0.757271
H218	H	1.848439	-0.560996	-0.423937
H219	H	2.181773	-0.227662	-0.090604
H220	H	1.565269	-0.963846	-0.706881
H221	H	1.898602	-0.630512	-0.373548
H222	H	2.231935	-0.297179	-0.040214
H223	H	1.632034	-0.893521	-0.726475
H224	H	1.965367	-0.560187	-0.393142
H225	H	2.298701	-0.226854	-0.059808
