data_functionalizedCrystal
_audit_creation_method	'MofGen! by Chris Wilmer'
_symmetry_space_group_name_H-M	'P1'
_symmetry_Int_Tables_number	1
_symmetry_cell_setting	triclinic
loop_
_symmetry_equiv_pos_as_xyz
  x,y,z
_cell_length_a	8.597187
_cell_length_b	8.559649
_cell_length_c	16.776229
_cell_angle_alpha	89.994739
_cell_angle_beta	82.291103
_cell_angle_gamma	77.625088
loop_
_atom_site_label
_atom_site_type_symbol
_atom_site_fract_x
_atom_site_fract_y
_atom_site_fract_z
O1	O	2.053799	0.238072	-0.207337
O2	O	1.594654	0.256327	-0.175805
O3	O	1.864678	0.015230	-0.194348
O4	O	1.783776	0.479169	-0.188794
O5	O	1.864648	0.015214	-0.061769
O6	O	1.594624	0.256311	-0.043226
O7	O	2.053769	0.238056	-0.074758
Zn8	Zn	1.824192	0.247181	-0.037943
Zn9	Zn	1.824232	0.247202	-0.212621
O10	O	1.783746	0.479153	-0.056215
C11	C	1.536402	0.254357	-0.105516
C12	C	1.362878	0.248492	-0.093599
C13	C	1.870794	-0.044212	-0.128481
C14	C	1.889043	-0.221307	-0.129739
C15	C	2.112021	0.240026	-0.145049
C16	C	2.285545	0.245891	-0.156971
C17	C	1.777630	0.538595	-0.122084
C18	C	1.759380	0.715690	-0.120831
N19	N	1.824176	0.247166	0.081270
N20	N	1.824261	0.247204	-0.331834
C21	C	1.943770	0.140454	0.114774
C22	C	1.943779	0.140452	0.198226
C23	C	1.824199	0.247173	0.248171
C24	C	1.704594	0.353891	0.214662
C25	C	1.704580	0.353883	0.131212
C26	C	1.704646	0.353923	0.551205
C27	C	1.704672	0.353926	0.634660
C28	C	1.943846	0.140493	0.618219
C29	C	1.943832	0.140485	0.534769
C30	C	1.824222	0.247196	0.501267
C31	C	1.824212	0.247194	0.410780
C32	C	1.824214	0.247184	0.338657
H33	H	1.296331	0.246250	-0.030231
C34	C	2.073445	0.024663	0.234758
C35	C	2.047840	0.047471	0.318531
C36	C	2.167247	-0.059186	0.352212
H37	H	2.175971	0.043582	0.214125
H38	H	2.069264	-0.082091	0.221421
H39	H	2.052037	0.154199	0.331862
H40	H	1.945337	0.028539	0.339186
H41	H	2.163066	-0.165940	0.338874
H42	H	2.269766	-0.040258	0.331573
H43	H	2.149883	-0.043736	0.409055
C44	C	1.374107	0.249223	-0.241486
C45	C	1.300447	0.384763	-0.280046
C46	C	1.381998	0.387899	-0.357896
H47	H	1.370656	0.155682	-0.271058
H48	H	1.482849	0.252980	-0.238565
H49	H	1.191733	0.380993	-0.282971
H50	H	1.303897	0.478327	-0.250498
H51	H	1.490740	0.391656	-0.354974
H52	H	1.378542	0.294352	-0.387459
H53	H	1.332041	0.479869	-0.384065
C54	C	2.055835	-0.329765	-0.141151
C55	C	2.171792	-0.236153	-0.149100
C56	C	2.325453	-0.336007	-0.159603
H57	H	2.068710	-0.395407	-0.188252
H58	H	2.068546	-0.395344	-0.095770
H59	H	2.159087	-0.170601	-0.194477
H60	H	2.158970	-0.170513	-0.102006
H61	H	2.338164	-0.401587	-0.114222
H62	H	2.338311	-0.401645	-0.206704
H63	H	2.404148	-0.272507	-0.164991
C64	C	2.073695	0.024404	0.060689
C65	C	2.178405	-0.069080	0.107898
C66	C	2.298098	-0.176022	0.058106
H67	H	2.132148	0.082644	0.024106
H68	H	2.025399	-0.042992	0.031480
H69	H	2.226697	-0.001693	0.137094
H70	H	2.119999	-0.127354	0.144479
H71	H	2.249802	-0.243418	0.028897
H72	H	2.356538	-0.117769	0.021526
H73	H	2.369149	-0.239474	0.090131
C74	C	2.073752	0.024436	0.480681
C75	C	2.178467	-0.069053	0.527887
C76	C	2.298154	-0.175995	0.478091
H77	H	2.132203	0.082676	0.444097
H78	H	2.025451	-0.042957	0.451473
H79	H	2.226765	-0.001668	0.557081
H80	H	2.120064	-0.127328	0.564469
H81	H	2.249853	-0.243388	0.448883
H82	H	2.356591	-0.117741	0.441510
H83	H	2.369208	-0.239449	0.510113
H84	H	1.634408	-0.202767	-0.112246
C85	C	1.575055	0.469978	0.688916
C86	C	1.646714	0.569004	0.731870
C87	C	1.527369	0.675938	0.781850
H88	H	1.516727	0.411727	0.725554
H89	H	1.503825	0.533620	0.657037
H90	H	1.717916	0.505370	0.763747
H91	H	1.705032	0.627292	0.695253
H92	H	1.456139	0.739580	0.749970
H93	H	1.469048	0.617673	0.818483
H94	H	1.575971	0.743150	0.810995
C95	C	1.574587	0.469490	0.094801
C96	C	1.488915	0.382968	0.052810
C97	C	1.369133	0.489407	0.019268
H98	H	1.622728	0.536831	0.058864
H99	H	1.503285	0.533028	0.136478
H100	H	1.560206	0.319456	0.011138
H101	H	1.440738	0.315631	0.088730
H102	H	1.297831	0.552946	0.060945
H103	H	1.417288	0.556744	-0.016666
H104	H	1.310981	0.430718	-0.009220
H105	H	1.607259	0.440814	0.523935
C106	C	1.574945	0.469694	0.269017
C107	C	1.600579	0.446896	0.349269
C108	C	1.481193	0.553566	0.399361
H109	H	1.472411	0.450780	0.262494
H110	H	1.579129	0.576444	0.255089
H111	H	1.596380	0.340171	0.363193
H112	H	1.703089	0.465823	0.355818
H113	H	1.485376	0.660316	0.385432
H114	H	1.378666	0.534643	0.392831
H115	H	1.498577	0.538122	0.453816
H116	H	2.041235	0.053597	0.645505
