data_functionalizedCrystal
_audit_creation_method	'MofGen! by Chris Wilmer'
_symmetry_space_group_name_H-M	'P1'
_symmetry_Int_Tables_number	1
_symmetry_cell_setting	triclinic
loop_
_symmetry_equiv_pos_as_xyz
  x,y,z
_cell_length_a	12.645331
_cell_length_b	29.839131
_cell_length_c	12.645323
_cell_angle_alpha	90.040367
_cell_angle_beta	90.022676
_cell_angle_gamma	90.034207
loop_
_atom_site_label
_atom_site_type_symbol
_atom_site_fract_x
_atom_site_fract_y
_atom_site_fract_z
Zn1	Zn	1.620602	-0.178862	0.599332
Zn2	Zn	1.620429	-0.253994	0.422024
Zn3	Zn	1.443317	-0.178877	0.422076
Zn4	Zn	1.443244	-0.253964	0.599240
O5	O	1.531898	-0.216424	0.510668
O6	O	1.768926	-0.188834	0.575829
O7	O	1.596893	-0.244048	0.273684
O8	O	1.466936	-0.116008	0.445650
O9	O	1.768800	-0.244033	0.445561
O10	O	1.597187	-0.115997	0.575879
O11	O	1.466769	-0.188860	0.273722
O12	O	1.294960	-0.188832	0.445561
O13	O	1.466813	-0.243983	0.747599
O14	O	1.294906	-0.243998	0.575722
O15	O	1.597117	-0.188806	0.747667
O16	O	1.596823	-0.316857	0.445472
O17	O	1.466646	-0.316835	0.575671
C18	C	1.256468	-0.216414	0.510637
C19	C	1.138638	-0.216420	0.510649
C20	C	0.971072	-0.181555	0.429217
C21	C	1.093632	-0.181645	0.428858
C22	C	1.094084	-0.263746	0.480104
C23	C	0.971485	-0.263555	0.479549
C24	C	0.971498	-0.204409	0.622941
C25	C	1.094104	-0.203352	0.622318
C26	C	1.531736	-0.333147	0.510579
C27	C	1.531764	-0.383081	0.510576
C28	C	1.599705	-0.692684	0.578575
C29	C	1.599820	-0.880357	0.578639
O30	O	1.657427	-0.904587	0.636387
N31	N	1.532078	-0.903866	0.510786
C32	C	1.464298	-0.880455	0.442917
O33	O	1.406674	-0.904757	0.385213
C34	C	1.464178	-0.692782	0.442859
C35	C	1.531932	-0.669276	0.510709
C36	C	1.667452	-0.669177	0.646420
C37	C	1.667427	-0.622262	0.646399
C38	C	1.599654	-0.598853	0.578534
C39	C	1.531907	-0.622360	0.510688
C40	C	1.396393	-0.669371	0.374997
C41	C	1.396367	-0.622450	0.374990
C42	C	1.464121	-0.598944	0.442840
C43	C	1.464108	-0.552036	0.442802
N44	N	1.531850	-0.528527	0.510655
C45	C	1.599623	-0.551935	0.578521
C46	C	1.464367	-0.978985	0.442950
C47	C	1.464398	-1.025903	0.442963
C48	C	1.599919	-1.025802	0.578687
C49	C	1.599892	-0.978884	0.578668
C50	C	1.532109	-0.955476	0.510803
C51	C	1.599565	-0.453409	0.578471
C52	C	1.599537	-0.406490	0.578442
C53	C	1.464013	-0.406595	0.442723
C54	C	1.464044	-0.453510	0.442748
C55	C	1.531824	-0.476916	0.510631
O56	O	1.406523	-0.527777	0.385092
O57	O	1.657222	-0.527625	0.636233
C58	C	1.599730	-0.739599	0.578596
C59	C	1.531983	-0.763106	0.510751
C60	C	1.464210	-0.739698	0.442885
C61	C	1.532014	-0.810024	0.510763
C62	C	1.599787	-0.833433	0.578629
C63	C	1.667528	-0.809923	0.646482
C64	C	1.667503	-0.763008	0.646461
C65	C	1.396468	-0.763207	0.375032
C66	C	1.396500	-0.810123	0.375057
C67	C	1.464273	-0.833531	0.442923
C68	C	1.808403	-0.216435	0.510699
C69	C	1.926233	-0.216440	0.510713
C70	C	1.531976	-0.216390	0.787174
C71	C	1.532009	-0.216375	0.905004
C72	C	1.532089	-0.099246	0.510781
C73	C	1.532171	-0.049312	0.510829
C74	C	1.531881	-0.216427	0.235238
C75	C	1.532053	-0.216315	0.117409
C76	C	1.449782	-0.250923	1.072525
C77	C	1.449998	-0.251094	0.949965
C78	C	1.643700	-0.229224	0.949515
C79	C	1.643249	-0.229441	1.072113
C80	C	1.503603	-0.168784	1.072232
C81	C	1.501110	-0.169069	0.949625
H82	H	0.942500	-0.229818	0.683663
C83	C	0.932769	-0.277334	0.368711
C84	C	0.963892	-0.249207	0.271514
C85	C	0.925182	-0.262985	0.160673
C86	C	0.855348	-0.304891	0.147028
C87	C	0.824221	-0.333020	0.244228
C88	C	0.862931	-0.319242	0.355069
H89	H	1.015591	-0.218184	0.281612
H90	H	0.948225	-0.242162	0.088719
H91	H	0.826693	-0.315090	0.064977
H92	H	0.772523	-0.364044	0.234130
H93	H	0.839888	-0.340066	0.427023
H94	H	1.556657	-0.141920	0.919021
C95	C	1.728737	-0.196253	0.910175
C96	C	1.844835	-0.202350	0.944007
C97	C	1.929871	-0.169378	0.904665
C98	C	1.898808	-0.130309	0.831490
C99	C	1.782705	-0.124209	0.797654
C100	C	1.697669	-0.157181	0.836996
H101	H	1.867835	-0.231274	0.998179
H102	H	2.015819	-0.173894	0.929713
H103	H	1.961757	-0.105901	0.802366
H104	H	1.759705	-0.095286	0.743482
H105	H	1.611721	-0.152666	0.811948
C106	C	1.389462	-0.380840	0.368076
C107	C	1.314932	-0.406691	0.293441
C108	C	1.240375	-0.380935	0.218800
C109	C	1.240348	-0.329327	0.218793
C110	C	1.314881	-0.303473	0.293431
C111	C	1.389438	-0.329229	0.368072
H112	H	1.314949	-0.444897	0.293443
H113	H	1.185200	-0.400074	0.163548
H114	H	1.185156	-0.310260	0.163539
H115	H	1.314864	-0.265267	0.293428
H116	H	1.444613	-0.310090	0.423323
H117	H	1.655063	-0.959747	0.633917
C118	C	1.674066	-0.380633	0.653086
C119	C	1.794588	-0.387048	0.644555
C120	C	1.869112	-0.361194	0.719199
C121	C	1.823116	-0.328925	0.802373
C122	C	1.702588	-0.322508	0.810907
C123	C	1.628064	-0.348363	0.736263
H124	H	1.828642	-0.410937	0.582982
H125	H	1.958335	-0.365944	0.712881
H126	H	1.878283	-0.309786	0.857629
H127	H	1.668534	-0.298619	0.872480
H128	H	1.538841	-0.343612	0.742581
H129	H	1.468378	-0.285940	1.103322
H130	H	1.667369	-0.264187	1.100702
C131	C	1.475491	-0.298700	0.910430
C132	C	1.581044	-0.320981	0.940733
C133	C	1.606577	-0.368593	0.901251
C134	C	1.526558	-0.393925	0.831467
C135	C	1.420998	-0.371645	0.801160
C136	C	1.395465	-0.324032	0.840642
H137	H	1.640285	-0.302228	0.992395
H138	H	1.684720	-0.385086	0.923686
H139	H	1.545459	-0.429170	0.802240
H140	H	1.361757	-0.390397	0.749498
H141	H	1.317322	-0.307539	0.818207
C142	C	1.389874	-1.051757	0.368320
C143	C	1.398579	-1.045341	0.247813
C144	C	1.324046	-1.071193	0.173172
C145	C	1.240809	-1.103460	0.219038
C146	C	1.232101	-1.109878	0.339551
C147	C	1.306634	-1.084026	0.414192
H148	H	1.460199	-1.021453	0.213855
H149	H	1.330493	-1.066442	0.083961
H150	H	1.185636	-1.122597	0.163784
H151	H	1.170481	-1.133766	0.373509
H152	H	1.300187	-1.088777	0.503403
H153	H	0.940219	-0.189419	0.346541
C154	C	1.390076	-0.155974	0.910315
C155	C	1.375025	-0.113322	0.843504
C156	C	1.263992	-0.100229	0.804183
C157	C	1.168010	-0.129788	0.831672
C158	C	1.183058	-0.172443	0.898486
C159	C	1.294091	-0.185536	0.937807
H160	H	1.446080	-0.091439	0.823152
H161	H	1.252854	-0.068654	0.754723
H162	H	1.085817	-0.120096	0.802564
H163	H	1.112004	-0.194326	0.918838
H164	H	1.305230	-0.217111	0.987267
C165	C	1.321917	-0.737463	0.300367
C166	C	1.330651	-0.743965	0.179867
C167	C	1.256100	-0.718224	0.105190
C168	C	1.172815	-0.685982	0.151012
C169	C	1.164077	-0.679479	0.271518
C170	C	1.238628	-0.705220	0.346195
H171	H	1.392307	-0.767833	0.145942
H172	H	1.262568	-0.723037	0.015984
H173	H	1.117627	-0.666927	0.095732
H174	H	1.102421	-0.655611	0.305443
H175	H	1.232160	-0.700407	0.435401
H176	H	1.367174	-0.243054	0.919868
C177	C	1.389805	-0.953242	0.368284
C178	C	1.398539	-0.959739	0.247783
C179	C	1.323982	-0.933999	0.173111
C180	C	1.240691	-0.901762	0.218939
C181	C	1.231954	-0.895263	0.339445
C182	C	1.306511	-0.921003	0.414118
H183	H	1.460199	-0.983605	0.213853
H184	H	1.330450	-0.938811	0.083904
H185	H	1.185499	-0.882707	0.163662
H186	H	1.170294	-0.871397	0.373375
H187	H	1.300043	-0.916191	0.503325
C188	C	1.741945	-0.596406	0.721046
C189	C	1.695939	-0.564141	0.804223
C190	C	1.770455	-0.538288	0.878878
C191	C	1.890977	-0.544700	0.870356
C192	C	1.936990	-0.576967	0.787175
C193	C	1.862473	-0.602820	0.712520
H194	H	1.606715	-0.559393	0.810536
H195	H	1.736393	-0.514402	0.940454
H196	H	1.946139	-0.525563	0.925619
H197	H	2.026213	-0.581715	0.780863
H198	H	1.896535	-0.626706	0.650944
H199	H	1.563525	-0.142999	1.101262
H200	H	0.941822	-0.290427	0.536317
C201	C	1.135509	-0.235167	0.708749
C202	C	1.210815	-0.273743	0.679309
C203	C	1.252229	-0.305558	0.765738
C204	C	1.218337	-0.298797	0.881607
C205	C	1.143027	-0.260219	0.911053
C206	C	1.101613	-0.228404	0.824623
H207	H	1.235907	-0.278749	0.593530
H208	H	1.307978	-0.334116	0.743940
H209	H	1.248994	-0.322349	0.945588
H210	H	1.117934	-0.255213	0.996831
H211	H	1.045863	-0.199846	0.846422
C212	C	1.742077	-0.835679	0.721138
C213	C	1.825340	-0.867925	0.675291
C214	C	1.899879	-0.893683	0.749947
C215	C	1.891156	-0.887195	0.870451
C216	C	1.807890	-0.854947	0.916305
C217	C	1.733351	-0.829189	0.841648
H218	H	1.831800	-0.872729	0.586081
H219	H	1.961517	-0.917555	0.716002
H220	H	1.946334	-0.906262	0.925716
H221	H	1.801430	-0.850143	1.005514
H222	H	1.671712	-0.805317	0.875593
H223	H	1.366714	-0.242960	1.102004
C224	C	1.728885	-0.196879	1.112238
C225	C	1.797467	-0.170763	1.032722
C226	C	1.883113	-0.138208	1.072840
C227	C	1.900178	-0.131768	1.192475
C228	C	1.831595	-0.157884	1.271998
C229	C	1.745948	-0.190440	1.231880
H230	H	1.784836	-0.175530	0.944154
H231	H	1.933883	-0.118875	1.013971
H232	H	1.963579	-0.107668	1.222173
H233	H	1.844225	-0.153118	1.360566
H234	H	1.695178	-0.209773	1.290749
H235	H	1.123758	-0.146552	0.448007
H236	H	1.124732	-0.274123	0.398940
C237	C	0.931306	-0.134001	0.454799
C238	C	0.857628	-0.126260	0.550000
C239	C	0.817855	-0.078704	0.575586
C240	C	0.851761	-0.038889	0.505971
C241	C	0.925443	-0.046629	0.410763
C242	C	0.965215	-0.094185	0.385178
H243	H	0.832525	-0.155735	0.601539
H244	H	0.763311	-0.072975	0.646065
H245	H	0.822319	-0.003685	0.524911
H246	H	0.950545	-0.017154	0.359224
H247	H	1.019760	-0.099914	0.314699
H248	H	0.940625	-0.170502	0.650714
C249	C	1.389521	-0.479369	0.368105
C250	C	1.306277	-0.511632	0.413976
C251	C	1.231745	-0.537485	0.339339
C252	C	1.240456	-0.531075	0.218831
C253	C	1.323703	-0.498811	0.172954
C254	C	1.398236	-0.472957	0.247591
H255	H	1.299826	-0.516378	0.503189
H256	H	1.170119	-0.561370	0.373301
H257	H	1.185282	-0.550214	0.163580
H258	H	1.330155	-0.494065	0.083741
H259	H	1.459861	-0.449073	0.213629
C260	C	1.133469	-0.299801	0.557763
C261	C	1.199310	-0.339600	0.516884
C262	C	1.238699	-0.375654	0.594543
C263	C	1.212247	-0.371909	0.713080
C264	C	1.146403	-0.332108	0.753964
C265	C	1.107014	-0.296054	0.676305
H266	H	1.218894	-0.342374	0.429131
H267	H	1.287442	-0.405118	0.564278
H268	H	1.241405	-0.398599	0.770568
H269	H	1.126819	-0.329334	0.841717
H270	H	1.058271	-0.266591	0.706571
H271	H	1.122904	-0.189597	0.345693
H272	H	1.123233	-0.168526	0.645350
C273	C	1.742027	-0.737155	0.721107
C274	C	1.862548	-0.743572	0.712577
C275	C	1.937073	-0.717723	0.787230
C276	C	1.891079	-0.685457	0.870412
C277	C	1.770552	-0.679039	0.878946
C278	C	1.696026	-0.704888	0.804293
H279	H	1.896601	-0.767458	0.650997
H280	H	2.026295	-0.722474	0.780912
H281	H	1.946247	-0.666322	0.925675
H282	H	1.736498	-0.655153	0.940526
H283	H	1.606804	-0.700137	0.810611
H284	H	1.654751	-0.472461	0.633755
H285	H	1.722641	-0.688231	0.701691
H286	H	1.655104	-1.044869	0.633944
H287	H	1.341166	-0.603394	0.319728
H288	H	1.341221	-0.688503	0.319746
H289	H	1.668233	-0.263606	0.918805
H290	H	1.341328	-0.829258	0.319796
H291	H	1.423578	-0.157071	1.103143
