data_functionalizedCrystal
_audit_creation_method	'MofGen! by Chris Wilmer'
_symmetry_space_group_name_H-M	'P1'
_symmetry_Int_Tables_number	1
_symmetry_cell_setting	triclinic
loop_
_symmetry_equiv_pos_as_xyz
  x,y,z
_cell_length_a	14.853569
_cell_length_b	14.853567
_cell_length_c	13.448316
_cell_angle_alpha	89.997194
_cell_angle_beta	89.995215
_cell_angle_gamma	83.635248
loop_
_atom_site_label
_atom_site_type_symbol
_atom_site_fract_x
_atom_site_fract_y
_atom_site_fract_z
O1	O	1.196367	0.117713	-0.082638
O2	O	0.933907	0.131733	-0.082649
O3	O	1.072148	-0.006507	-0.082646
O4	O	1.058126	0.255953	-0.082640
O5	O	1.072130	-0.006515	0.082738
O6	O	0.933890	0.131724	0.082735
O7	O	1.196349	0.117704	0.082746
Cu8	Cu	1.065118	0.124714	0.097841
Cu9	Cu	1.065139	0.124724	-0.097744
O10	O	1.058109	0.255944	0.082743
C11	C	0.900310	0.131093	0.000042
C12	C	0.800226	0.129189	0.000037
C13	C	0.763850	0.046178	0.000032
C14	C	0.742560	0.210410	0.000046
C15	C	0.648526	0.208624	0.000048
C16	C	0.612150	0.125613	0.000042
C17	C	0.669807	0.044389	0.000036
C18	C	0.590862	0.289847	0.000064
C19	C	0.496821	0.288064	0.000066
C20	C	0.460443	0.205052	0.000054
C21	C	0.518107	0.123824	0.000046
C22	C	0.481730	0.040813	0.000041
C23	C	0.539393	-0.040415	0.000027
C24	C	0.633429	-0.038623	0.000024
C25	C	0.366407	0.203259	0.000057
C26	C	0.387688	0.039024	0.000045
C27	C	1.071504	-0.040100	0.000043
C28	C	1.069600	-0.140183	0.000034
C29	C	0.979434	-0.552718	0.000050
C30	C	1.143667	-0.573998	0.000056
C31	C	1.145457	-0.479964	0.000051
C32	C	1.064234	-0.422303	0.000046
C33	C	0.981222	-0.458675	0.000047
C34	C	1.228468	-0.443585	0.000060
C35	C	1.230262	-0.349545	0.000055
C36	C	1.149038	-0.291882	0.000043
C37	C	1.066022	-0.328260	0.000043
C38	C	0.984800	-0.270599	0.000038
C39	C	0.901783	-0.306974	0.000031
C40	C	0.899998	-0.401012	0.000035
C41	C	1.150822	-0.197845	0.000039
C42	C	0.986587	-0.176556	0.000035
C43	C	1.229947	0.118344	0.000054
C44	C	1.330030	0.120249	0.000052
C45	C	1.058753	0.289537	0.000052
C46	C	1.060657	0.389621	0.000054
N47	N	1.065110	0.124706	0.235406
N48	N	1.065154	0.124724	-0.235308
C49	C	1.126342	0.063519	0.287447
C50	C	1.126348	0.063518	0.391551
C51	C	1.065125	0.124710	0.443610
C52	C	1.003887	0.185900	0.391561
C53	C	1.003877	0.185895	0.287460
C54	C	1.003912	0.185906	0.608542
C55	C	1.003922	0.185912	0.712650
C56	C	1.126382	0.063528	0.712632
C57	C	1.126373	0.063524	0.608531
C58	C	1.065135	0.124716	0.556489
H59	H	0.509763	-0.108003	0.000016
Br60	Br	0.920797	0.268949	0.537917
H61	H	1.176229	0.013702	0.566144
Br62	Br	0.791929	0.323063	0.000058
Br63	Br	1.263478	-0.148480	0.000073
Br64	Br	0.876350	-0.098307	0.000017
Br65	Br	0.920830	0.268961	0.783295
Br66	Br	1.209492	-0.019512	0.783263
Br67	Br	0.338328	-0.073640	0.000026
Br68	Br	0.920790	0.268941	0.462210
H69	H	0.620487	0.357430	0.000075
H70	H	0.449880	0.354205	0.000076
Br71	Br	0.711688	-0.148851	0.000013
H72	H	0.810802	-0.019956	0.000016
H73	H	0.319463	0.269395	0.000077
H74	H	0.835651	-0.260014	0.000034
H75	H	1.176200	0.013693	0.245067
Br76	Br	0.787343	-0.450385	0.000019
Br77	Br	0.866774	-0.602081	0.000026
H78	H	1.209794	-0.620951	0.000068
H79	H	1.294595	-0.490539	0.000073
Br80	Br	1.209446	-0.019526	0.462182
H81	H	1.297859	-0.319937	0.000060
Br82	Br	0.920767	0.268933	0.216832
