data_functionalizedCrystal
_audit_creation_method	'MofGen! by Chris Wilmer'
_symmetry_space_group_name_H-M	'P1'
_symmetry_Int_Tables_number	1
_symmetry_cell_setting	triclinic
loop_
_symmetry_equiv_pos_as_xyz
  x,y,z
_cell_length_a	14.971491
_cell_length_b	14.044190
_cell_length_c	14.048226
_cell_angle_alpha	89.988942
_cell_angle_beta	89.991693
_cell_angle_gamma	88.404006
loop_
_atom_site_label
_atom_site_type_symbol
_atom_site_fract_x
_atom_site_fract_y
_atom_site_fract_z
O1	O	1.196681	0.123561	-0.079213
O2	O	1.530014	0.456895	0.254121
O3	O	1.863348	0.790228	0.587454
O4	O	0.937447	0.138350	-0.079207
O5	O	1.270780	0.471684	0.254126
O6	O	1.604114	0.805017	0.587460
O7	O	1.063170	-0.007033	-0.079191
O8	O	1.396503	0.326300	0.254142
O9	O	1.729836	0.659633	0.587476
O10	O	1.070958	0.268945	-0.079229
O11	O	1.404292	0.602278	0.254105
O12	O	1.737625	0.935612	0.587438
O13	O	1.063152	-0.007042	0.079130
O14	O	1.396486	0.326291	0.412464
O15	O	1.729819	0.659625	0.745797
O16	O	0.937430	0.138342	0.079114
O17	O	1.270763	0.471675	0.412448
O18	O	1.604096	0.805008	0.745781
O19	O	1.196664	0.123553	0.079109
O20	O	1.529997	0.456886	0.412442
O21	O	1.863330	0.790220	0.745775
Zn22	Zn	1.067044	0.130946	0.104248
Zn23	Zn	1.400377	0.464279	0.437582
Zn24	Zn	1.733711	0.797613	0.770915
Zn25	Zn	1.067067	0.130957	-0.104347
Zn26	Zn	1.400400	0.464291	0.228986
Zn27	Zn	1.733733	0.797624	0.562320
O28	O	1.070941	0.268937	0.079093
O29	O	1.404274	0.602270	0.412426
O30	O	1.737608	0.935603	0.745759
C31	C	1.059754	-0.042356	-0.000028
C32	C	1.393087	0.290977	0.333306
C33	C	1.726420	0.624311	0.666639
C34	C	1.049590	-0.147594	-0.000019
C35	C	1.382923	0.185740	0.333314
C36	C	1.716257	0.519073	0.666648
C37	C	0.904061	0.137684	-0.000045
C38	C	1.237395	0.471017	0.333288
C39	C	1.570728	0.804350	0.666621
C40	C	0.804608	0.135699	-0.000042
C41	C	1.137942	0.469032	0.333291
C42	C	1.471275	0.802366	0.666624
C43	C	0.376237	0.127140	-0.086364
C44	C	0.709571	0.460474	0.246969
C45	C	1.042904	0.793807	0.580302
C46	C	0.469684	0.129002	-0.086361
C47	C	0.803018	0.462335	0.246972
C48	C	1.136351	0.795669	0.580306
C49	C	0.516394	0.129934	-0.000057
C50	C	0.849728	0.463268	0.333277
C51	C	1.183061	0.796601	0.666610
C52	C	0.469653	0.128995	0.086250
C53	C	0.802987	0.462329	0.419583
C54	C	1.136320	0.795662	0.752916
C55	C	0.376208	0.127127	0.086245
C56	C	0.709542	0.460460	0.419579
C57	C	1.042875	0.793793	0.752912
C58	C	0.664422	0.132892	0.086253
C59	C	0.997755	0.466226	0.419586
C60	C	1.331089	0.799559	0.752919
C61	C	0.757873	0.134763	0.086257
C62	C	1.091207	0.468096	0.419591
C63	C	1.424540	0.801430	0.752924
C64	C	0.757898	0.134768	-0.086354
C65	C	1.091231	0.468101	0.246980
C66	C	1.424565	0.801434	0.580313
C67	C	0.664453	0.132899	-0.086358
C68	C	0.997786	0.466232	0.246975
C69	C	1.331120	0.799566	0.580309
C70	C	0.617718	0.131962	-0.000051
C71	C	0.951052	0.465295	0.333282
C72	C	1.284385	0.798629	0.666616
C73	C	1.103092	-0.397819	-0.000058
C74	C	1.436425	-0.064485	0.333276
C75	C	1.769758	0.268848	0.666609
C76	C	1.031023	-0.340273	-0.000049
C77	C	1.364356	-0.006939	0.333284
C78	C	1.697690	0.326394	0.666617
C79	C	1.041356	-0.233056	-0.000033
C80	C	1.374689	0.100277	0.333301
C81	C	1.708023	0.433610	0.666634
C82	C	1.092760	-0.505045	-0.000074
C83	C	1.426093	-0.171712	0.333259
C84	C	1.759427	0.161622	0.666592
C85	C	1.230049	0.124219	-0.000055
C86	C	1.563383	0.457553	0.333278
C87	C	1.896716	0.790886	0.666611
C88	C	1.329502	0.126204	-0.000064
C89	C	1.662836	0.459537	0.333269
C90	C	1.996169	0.792871	0.666602
C91	C	1.074357	0.304259	-0.000073
C92	C	1.407690	0.637593	0.333260
C93	C	1.741024	0.970926	0.666594
C94	C	1.084521	0.409497	-0.000088
C95	C	1.417854	0.742830	0.333245
C96	C	1.751187	1.076164	0.666579
N97	N	1.067035	0.130938	0.246609
N98	N	1.400368	0.464271	0.579942
N99	N	1.733702	0.797604	0.913276
N100	N	1.067082	0.130958	-0.246708
N101	N	1.400415	0.464291	0.086626
N102	N	1.733749	0.797625	0.419959
C103	C	1.122726	0.066588	0.296434
C104	C	1.456060	0.399922	0.629767
C105	C	1.789393	0.733255	0.963101
C106	C	1.122732	0.066588	0.396092
C107	C	1.456066	0.399921	0.729425
C108	C	1.789399	0.733254	1.062758
C109	C	1.067051	0.130942	0.445922
C110	C	1.400384	0.464275	0.779256
C111	C	1.733718	0.797608	1.112589
C112	C	1.011354	0.195294	0.396090
C113	C	1.344687	0.528628	0.729424
C114	C	1.678020	0.861961	1.062757
C115	C	1.011344	0.195289	0.296435
C116	C	1.344677	0.528623	0.629768
C117	C	1.678010	0.861956	0.963101
C118	C	1.011380	0.195301	0.603805
C119	C	1.344713	0.528634	0.937138
C120	C	1.678047	0.861968	1.270471
C121	C	1.011391	0.195307	0.703467
C122	C	1.344724	0.528641	1.036801
C123	C	1.678058	0.861974	1.370134
C124	C	1.122769	0.066599	0.703462
C125	C	1.456102	0.399933	1.036795
C126	C	1.789435	0.733266	1.370128
C127	C	1.122759	0.066595	0.603806
C128	C	1.456092	0.399928	0.937139
C129	C	1.789425	0.733261	1.270473
C130	C	1.067062	0.130949	0.553981
C131	C	1.400395	0.464282	0.887314
C132	C	1.733729	0.797615	1.220647
H133	H	0.338212	0.126388	-0.156643
H134	H	0.671545	0.459721	0.176690
H135	H	1.004879	0.793054	0.510023
H136	H	1.172546	-0.366565	-0.000049
H137	H	1.505880	-0.033232	0.333284
H138	H	1.839213	0.300102	0.666617
F139	F	0.519419	0.129994	-0.178213
F140	F	0.852752	0.463327	0.155120
F141	F	1.186086	0.796661	0.488453
F142	F	0.940233	-0.381123	-0.000050
F143	F	1.273566	-0.047790	0.333283
F144	F	1.606899	0.285544	0.666617
F145	F	0.326470	0.126123	0.178097
F146	F	0.659804	0.459457	0.511431
F147	F	0.993137	0.792790	0.844764
H148	H	0.626424	0.132146	-0.156634
H149	H	0.959757	0.465480	0.176699
H150	H	1.293090	0.798813	0.510032
F151	F	0.952088	0.263781	0.449125
F152	F	1.285421	0.597115	0.782458
F153	F	1.618755	0.930448	1.115791
F154	F	1.181996	-0.001903	0.243410
F155	F	1.515329	0.331430	0.576743
F156	F	1.848662	0.664764	0.910077
H157	H	1.168080	0.014189	0.436659
H158	H	1.501413	0.347523	0.769992
H159	H	1.834746	0.680856	1.103326
F160	F	0.807637	0.135774	-0.178208
F161	F	1.140970	0.469108	0.155125
F162	F	1.474304	0.802441	0.488458
F163	F	1.182025	-0.001891	0.550772
F164	F	1.515359	0.331442	0.884105
F165	F	1.848692	0.664775	1.217439
H166	H	0.507692	0.129749	0.156520
H167	H	0.841026	0.463082	0.489853
H168	H	1.174359	0.796415	0.823187
F169	F	1.182045	-0.001889	0.756493
F170	F	1.515379	0.331444	1.089827
F171	F	1.848712	0.664778	1.423160
H172	H	0.626373	0.132141	0.156533
H173	H	0.959706	0.465474	0.489866
H174	H	1.293040	0.798807	0.823200
F175	F	0.952126	0.263801	0.756494
F176	F	1.285459	0.597134	1.089827
F177	F	1.618792	0.930467	1.423161
F178	F	0.952097	0.263792	0.550781
F179	F	1.285431	0.597125	0.884114
F180	F	1.618764	0.930459	1.217448
H181	H	0.795902	0.135527	0.156534
H182	H	1.129236	0.468861	0.489867
H183	H	1.462569	0.802194	0.823200
F184	F	0.952066	0.263776	0.243408
F185	F	1.285400	0.597110	0.576742
F186	F	1.618733	0.930443	0.910075
