data_functionalizedCrystal
_audit_creation_method	'MofGen! by Chris Wilmer'
_symmetry_space_group_name_H-M	'P1'
_symmetry_Int_Tables_number	1
_symmetry_cell_setting	triclinic
loop_
_symmetry_equiv_pos_as_xyz
  x,y,z
_cell_length_a	8.559649
_cell_length_b	8.597304
_cell_length_c	7.088929
_cell_angle_alpha	103.972562
_cell_angle_beta	95.325015
_cell_angle_gamma	102.375305
loop_
_atom_site_label
_atom_site_type_symbol
_atom_site_fract_x
_atom_site_fract_y
_atom_site_fract_z
O1	O	-2.103777	-0.035739	0.153071
O2	O	-1.638460	0.046706	0.166659
O3	O	-1.884155	-0.228466	0.121324
O4	O	-1.858081	0.239433	0.198406
O5	O	-1.916990	-0.265314	-0.202722
O6	O	-1.671295	0.009858	-0.157387
O7	O	-2.136612	-0.072587	-0.170975
Cu8	Cu	-1.906951	-0.034729	-0.193769
Cu9	Cu	-1.868120	0.008848	0.189453
O10	O	-1.890916	0.202585	-0.125640
C11	C	-1.595339	0.034530	0.005666
C12	C	-1.417933	0.053128	0.008733
C13	C	-1.899602	-0.306236	-0.050471
C14	C	-1.896691	-0.483067	-0.079590
C15	C	-2.179733	-0.060410	-0.009978
C16	C	-2.357137	-0.079007	-0.013032
C17	C	-1.875469	0.280356	0.046160
C18	C	-1.878379	0.457189	0.075291
N19	N	-1.934275	-0.065381	-0.463307
N20	N	-1.840810	0.039486	0.458989
H21	H	-1.334251	0.180493	0.029725
H22	H	-1.743944	0.148160	-0.441461
H23	H	-1.864923	-0.458677	0.230181
H24	H	-1.440807	-0.206361	-0.034003
O25	O	-1.912449	-0.583289	-0.264419
C26	C	-1.785690	-0.519946	-0.359506
H27	H	-1.679287	-0.437933	-0.244636
H28	H	-1.745545	-0.626614	-0.455549
H29	H	-1.829736	-0.444073	-0.455221
O30	O	-2.049760	-0.195222	-0.581891
C31	C	-2.018746	-0.344387	-0.557734
H32	H	-1.942221	-0.319866	-0.408321
H33	H	-2.138198	-0.437045	-0.566331
H34	H	-1.950743	-0.396870	-0.679014
