data_functionalizedCrystal
_audit_creation_method	'MofGen! by Chris Wilmer'
_symmetry_space_group_name_H-M	'P1'
_symmetry_Int_Tables_number	1
_symmetry_cell_setting	triclinic
loop_
_symmetry_equiv_pos_as_xyz
  x,y,z
_cell_length_a	11.169417
_cell_length_b	19.805405
_cell_length_c	11.169409
_cell_angle_alpha	90.037171
_cell_angle_beta	90.019824
_cell_angle_gamma	90.027605
loop_
_atom_site_label
_atom_site_type_symbol
_atom_site_fract_x
_atom_site_fract_y
_atom_site_fract_z
Zn1	Zn	1.834826	-0.269393	0.678502
Zn2	Zn	1.834658	-0.382602	0.477802
Zn3	Zn	1.634112	-0.269434	0.477837
Zn4	Zn	1.634062	-0.382547	0.678447
O5	O	1.734414	-0.325994	0.578147
O6	O	2.002753	-0.284416	0.651888
O7	O	1.808005	-0.367630	0.309857
O8	O	1.660828	-0.174712	0.504493
O9	O	2.002630	-0.367590	0.504434
O10	O	1.808292	-0.174681	0.651921
O11	O	1.660665	-0.284486	0.309882
O12	O	1.466155	-0.284433	0.504439
O13	O	1.660743	-0.367496	0.846404
O14	O	1.466119	-0.367536	0.651827
O15	O	1.808243	-0.284362	0.846445
O16	O	1.807957	-0.477311	0.504381
O17	O	1.660580	-0.477271	0.651794
C18	C	1.422589	-0.325983	0.578132
C19	C	1.289189	-0.325995	0.578154
C20	C	1.734277	-0.501850	0.578104
C21	C	1.734329	-0.577082	0.578125
C22	C	1.811068	-0.612352	0.654951
C23	C	1.811111	-0.683040	0.654974
C24	C	1.734420	-0.718457	0.578163
C25	C	1.657673	-0.683182	0.501334
C26	C	1.657625	-0.612495	0.501318
C27	C	1.657866	-0.968255	0.501395
C28	C	1.657923	-1.038947	0.501414
C29	C	1.811352	-1.038801	0.655051
C30	C	1.811304	-0.968113	0.655035
C31	C	1.734552	-0.932845	0.578211
C32	C	1.734505	-0.856196	0.578189
C33	C	1.734473	-0.795104	0.578178
C34	C	2.047456	-0.326004	0.578163
C35	C	2.180856	-0.326009	0.578170
C36	C	1.734506	-0.325919	0.891190
C37	C	1.734546	-0.325886	1.024590
C38	C	1.734584	-0.149451	0.578217
C39	C	1.734657	-0.074219	0.578247
C40	C	1.734391	-0.326020	0.266322
C41	C	1.734585	-0.325861	0.132923
H42	H	1.873523	-0.583520	0.717494
H43	H	1.595134	-0.583779	0.438760
H44	H	1.595466	-1.067782	0.438863
N45	N	1.893851	-0.721060	0.737896
H46	H	1.979614	-0.708729	0.719358
H47	H	1.882154	-0.771206	0.726262
H48	H	1.873843	-1.067525	0.717609
H49	H	1.873756	-0.939279	0.717577
N50	N	1.575100	-0.930220	0.418527
H51	H	1.526534	-0.963385	0.369866
H52	H	1.623969	-0.900894	0.363024
N53	N	1.574957	-0.721378	0.418483
H54	H	1.586637	-0.771510	0.430143
H55	H	1.593682	-0.709046	0.332785
