data_functionalizedCrystal
_audit_creation_method	'MofGen! by Chris Wilmer'
_symmetry_space_group_name_H-M	'P1'
_symmetry_Int_Tables_number	1
_symmetry_cell_setting	triclinic
loop_
_symmetry_equiv_pos_as_xyz
  x,y,z
_cell_length_a	17.699083
_cell_length_b	10.654551
_cell_length_c	16.776229
_cell_angle_alpha	89.995142
_cell_angle_beta	89.998886
_cell_angle_gamma	83.884222
loop_
_atom_site_label
_atom_site_type_symbol
_atom_site_fract_x
_atom_site_fract_y
_atom_site_fract_z
O1	O	1.005089	0.158809	-0.066173
O2	O	1.505089	0.658809	0.433827
O3	O	0.784842	0.179470	-0.066199
O4	O	1.284842	0.679470	0.433801
O5	O	0.900028	-0.013689	-0.066184
O6	O	1.400028	0.486311	0.433816
O7	O	0.889902	0.351967	-0.066188
O8	O	1.389902	0.851967	0.433812
O9	O	0.900013	-0.013700	0.066393
O10	O	1.400013	0.486300	0.566393
O11	O	0.784826	0.179458	0.066377
O12	O	1.284826	0.679458	0.566377
O13	O	1.005073	0.158797	0.066403
O14	O	1.505073	0.658797	0.566403
Zn15	Zn	0.894947	0.169126	0.087440
Zn16	Zn	1.394947	0.669126	0.587440
Zn17	Zn	0.894968	0.169141	-0.087236
Zn18	Zn	1.394968	0.669141	0.412764
O19	O	0.889886	0.351955	0.066388
O20	O	1.389886	0.851955	0.566388
C21	C	0.756632	0.178724	0.000086
C22	C	1.256632	0.678724	0.500086
C23	C	0.672600	0.176503	0.000076
C24	C	1.172600	0.676503	0.500076
C25	C	0.899277	-0.060479	0.000103
C26	C	1.399277	0.439521	0.500103
C27	C	0.897052	-0.199884	0.000099
C28	C	1.397052	0.300116	0.500099
C29	C	0.624700	0.289883	0.000075
C30	C	1.124700	0.789883	0.500075
C31	C	0.545743	0.287788	0.000085
C32	C	1.045743	0.787788	0.500085
C33	C	0.514688	0.172313	0.000091
C34	C	1.014688	0.672313	0.500091
C35	C	0.562594	0.058924	0.000095
C36	C	1.062594	0.558924	0.500095
C37	C	0.641549	0.061020	0.000090
C38	C	1.141549	0.561020	0.500090
C39	C	0.244177	0.050470	0.000114
C40	C	0.744177	0.550470	0.500114
C41	C	0.165216	0.048383	0.000117
C42	C	0.665216	0.548383	0.500117
C43	C	0.148372	0.277238	0.000110
C44	C	0.648372	0.777238	0.500110
C45	C	0.227327	0.279334	0.000105
C46	C	0.727327	0.779334	0.500105
C47	C	0.275226	0.165946	0.000113
C48	C	0.775226	0.665946	0.500113
C49	C	0.360839	0.168218	0.000103
C50	C	0.860839	0.668218	0.500103
C51	C	0.429076	0.170039	0.000095
C52	C	0.929076	0.670039	0.500095
C53	C	0.896016	-0.265363	-0.072169
C54	C	1.396016	0.234637	0.427831
C55	C	0.893919	-0.396346	-0.072170
C56	C	1.393919	0.103654	0.427830
C57	C	0.893897	-0.396361	0.072372
C58	C	1.393897	0.103639	0.572372
C59	C	0.895988	-0.265378	0.072372
C60	C	1.395988	0.234622	0.572372
C61	C	0.846809	-0.565586	-0.159001
C62	C	1.346809	-0.065586	0.340999
C63	C	0.845786	-0.631072	-0.231273
C64	C	1.345786	-0.131072	0.268727
C65	C	0.890745	-0.598313	-0.295074
C66	C	1.390745	-0.098313	0.204926
C67	C	0.936745	-0.500074	-0.286606
C68	C	1.436745	-0.000074	0.213394
C69	C	0.937775	-0.434595	-0.214332
C70	C	1.437775	0.065405	0.285668
C71	C	0.892798	-0.467349	-0.150534
C72	C	1.392798	0.032651	0.349466
C73	C	0.943105	-0.096138	0.159198
C74	C	1.443105	0.403862	0.659198
C75	C	0.944140	-0.030658	0.231472
C76	C	1.444140	0.469342	0.731472
C77	C	0.899185	-0.063416	0.295280
C78	C	1.399185	0.436584	0.795280
C79	C	0.853196	-0.161662	0.286819
C80	C	1.353196	0.338338	0.786819
C81	C	0.852161	-0.227142	0.214545
C82	C	1.352161	0.272858	0.714545
C83	C	0.897114	-0.194375	0.150737
C84	C	1.397114	0.305625	0.650737
C85	C	1.033283	0.159543	0.000117
C86	C	1.533283	0.659543	0.500117
C87	C	1.117315	0.161764	0.000121
C88	C	1.617315	0.661764	0.500121
C89	C	0.890638	0.398746	0.000099
C90	C	1.390638	0.898746	0.500099
C91	C	0.892863	0.538150	0.000098
C92	C	1.392863	1.038150	0.500098
N93	N	0.894939	0.169114	0.206651
N94	N	1.394939	0.669114	0.706651
N95	N	0.894982	0.169143	-0.206447
N96	N	1.394982	0.669143	0.293553
C97	C	0.945959	0.083619	0.248375
C98	C	1.445959	0.583619	0.748375
C99	C	0.945964	0.083618	0.331827
C100	C	1.445964	0.583618	0.831827
C101	C	0.894950	0.169119	0.373554
C102	C	1.394950	0.669119	0.873554
C103	C	0.843924	0.254619	0.331824
C104	C	1.343924	0.754619	0.831824
C105	C	0.843917	0.254613	0.248374
C106	C	1.343917	0.754613	0.748374
C107	C	0.843952	0.254643	0.668371
C108	C	1.343952	0.754643	1.168371
C109	C	0.843964	0.254645	0.751828
C110	C	1.343964	0.754645	1.251828
C111	C	0.945998	0.083648	0.751825
C112	C	1.445998	0.583648	1.251825
C113	C	0.945991	0.083642	0.668374
C114	C	1.445991	0.583642	1.168374
C115	C	0.894963	0.169137	0.626652
C116	C	1.394963	0.669137	1.126652
C117	C	0.894958	0.169135	0.536163
C118	C	1.394958	0.669135	1.036163
C119	C	0.894958	0.169127	0.464041
C120	C	1.394958	0.669127	0.964041
H121	H	0.649979	0.383916	0.000069
H122	H	1.149979	0.883916	0.500069
Br123	Br	1.004133	-0.051694	0.072605
Br124	Br	1.504133	0.448306	0.572605
H125	H	0.283168	-0.041858	0.000121
H126	H	0.783168	0.458142	0.500121
H127	H	0.802370	0.324230	0.214403
H128	H	1.302370	0.824230	0.714403
Br129	Br	0.892451	-0.485254	0.170452
Br130	Br	1.392451	0.014746	0.670452
Br131	Br	0.785771	-0.610030	-0.072420
Br132	Br	1.285771	-0.110030	0.427580
Br133	Br	0.774684	0.370651	0.388450
Br134	Br	1.274684	0.870651	0.888450
Br135	Br	0.706558	-0.092859	0.000099
Br136	Br	1.206558	0.407141	0.500099
H137	H	0.802404	0.324258	0.634408
H138	H	1.302404	0.824258	1.134408
Br139	Br	0.792190	-0.206138	0.373420
Br140	Br	1.292190	0.293862	0.873420
Br141	Br	0.480739	0.441668	0.000081
Br142	Br	0.980739	0.941668	0.500081
H143	H	0.814709	-0.307137	0.207659
H144	H	1.314709	0.192863	0.707659
H145	H	0.987508	0.014000	0.365798
H146	H	1.487508	0.514000	0.865798
H147	H	0.252607	0.373366	0.000097
H148	H	0.752607	0.873366	0.500097
Br149	Br	0.083361	0.431126	0.000100
Br150	Br	0.583361	0.931126	0.500100
H151	H	0.987533	0.014023	0.634403
H152	H	1.487533	0.514023	1.134403
Br153	Br	0.520449	-0.097795	0.000110
Br154	Br	1.020449	0.402205	0.500110
H155	H	0.896879	-0.212040	-0.131019
H156	H	1.396879	0.287960	0.368981
H157	H	0.987546	0.014030	0.785804
H158	H	1.487546	0.514030	1.285804
Br159	Br	0.123070	-0.108345	0.000122
Br160	Br	0.623070	0.391655	0.500122
H161	H	0.889911	-0.651641	-0.353919
H162	H	1.389911	-0.151641	0.146081
Br163	Br	0.783358	-0.764392	-0.242766
Br164	Br	1.283358	-0.264392	0.257234
Br165	Br	0.997777	-0.455638	-0.373194
Br166	Br	1.497777	0.044362	0.126806
Br167	Br	1.000199	-0.301281	-0.202834
Br168	Br	1.500199	0.198719	0.297166
Br169	Br	1.015202	-0.032417	0.191754
Br170	Br	1.515202	0.467583	0.691754
Br171	Br	1.006566	0.102662	0.242959
Br172	Br	1.506566	0.602662	0.742959
Br173	Br	0.900602	0.025435	0.393373
Br174	Br	1.400602	0.525435	0.893373
Br175	Br	0.774728	0.370692	0.808458
Br176	Br	1.274728	0.870692	1.308458
