data_functionalizedCrystal
_audit_creation_method	'MofGen! by Chris Wilmer'
_symmetry_space_group_name_H-M	'P1'
_symmetry_Int_Tables_number	1
_symmetry_cell_setting	triclinic
loop_
_symmetry_equiv_pos_as_xyz
  x,y,z
_cell_length_a	13.897449
_cell_length_b	17.077402
_cell_length_c	17.077396
_cell_angle_alpha	90.029784
_cell_angle_beta	89.981559
_cell_angle_gamma	89.975837
loop_
_atom_site_label
_atom_site_type_symbol
_atom_site_fract_x
_atom_site_fract_y
_atom_site_fract_z
Zn1	Zn	1.474646	0.312481	-0.443813
Zn2	Zn	1.974646	0.812481	0.056187
Zn3	Zn	1.474532	0.443756	-0.312544
Zn4	Zn	1.974532	0.943756	0.187456
Zn5	Zn	1.313342	0.312511	-0.312564
Zn6	Zn	1.813342	0.812511	0.187436
Zn7	Zn	1.313302	0.443712	-0.443770
Zn8	Zn	1.813302	0.943712	0.056230
O9	O	1.393955	0.378115	-0.378173
O10	O	1.893955	0.878115	0.121827
O11	O	1.609612	0.329901	-0.426410
O12	O	2.109612	0.829901	0.073590
O13	O	1.453118	0.426377	-0.202700
O14	O	1.953118	0.926377	0.297300
O15	O	1.334803	0.202660	-0.330000
O16	O	1.834803	0.702660	0.170000
O17	O	1.609529	0.426348	-0.329967
O18	O	2.109529	0.926348	0.170033
O19	O	1.453313	0.202638	-0.426429
O20	O	1.953313	0.702638	0.073571
O21	O	1.334692	0.329952	-0.202714
O22	O	1.834692	0.829952	0.297286
O23	O	1.178355	0.329909	-0.329959
O24	O	1.678355	0.829909	0.170041
O25	O	1.334736	0.426273	-0.553623
O26	O	1.834736	0.926273	-0.053623
O27	O	1.178326	0.426302	-0.426356
O28	O	1.678326	0.926302	0.073644
O29	O	1.453275	0.329858	-0.553655
O30	O	1.953275	0.829858	-0.053655
O31	O	1.453080	0.553597	-0.329926
O32	O	1.953080	1.053597	0.170074
O33	O	1.334625	0.553565	-0.426337
O34	O	1.834625	1.053565	0.073663
C35	C	1.143341	0.378105	-0.378155
C36	C	1.643341	0.878105	0.121845
C37	C	1.036127	0.378119	-0.378166
C38	C	1.536127	0.878119	0.121834
C39	C	1.393862	0.582063	-0.378142
C40	C	1.893862	1.082063	0.121858
C41	C	1.393911	0.669313	-0.378155
C42	C	1.893911	1.169313	0.121845
C43	C	1.394014	0.378057	-0.582917
C44	C	1.894014	0.878057	-0.082917
C45	C	1.394039	0.378033	-0.670167
C46	C	1.894039	0.878033	-0.170167
C47	C	0.839832	0.378122	-0.378187
C48	C	1.339832	0.878122	0.121813
C49	C	0.949065	0.378118	-0.378173
C50	C	1.449065	0.878118	0.121827
C51	C	1.645548	0.378126	-0.378191
C52	C	2.145548	0.878126	0.121809
C53	C	1.752762	0.378131	-0.378199
C54	C	2.252762	0.878131	0.121801
C55	C	1.394075	0.173371	-0.378222
C56	C	1.894075	0.673371	0.121778
C57	C	1.394126	0.086121	-0.378242
C58	C	1.894126	0.586121	0.121758
C59	C	1.455653	0.710294	-0.328007
C60	C	1.955653	1.210294	0.171993
C61	C	1.455700	0.792274	-0.328027
C62	C	1.955700	1.292274	0.171973
C63	C	1.393999	0.833272	-0.378191
C64	C	1.893999	1.333272	0.121809
C65	C	1.332254	0.792286	-0.428344
C66	C	1.832254	1.292286	0.071656
C67	C	1.332213	0.710307	-0.428328
C68	C	1.832213	1.210307	0.071672
C69	C	1.332344	0.963156	-0.428374
C70	C	1.832344	1.463156	0.071626
C71	C	1.332384	1.045140	-0.428390
C72	C	1.832384	1.545140	0.071610
C73	C	1.455831	1.045123	-0.328074
C74	C	1.955831	1.545123	0.171926
C75	C	1.455790	0.963144	-0.328057
C76	C	1.955790	1.463144	0.171943
C77	C	1.394043	0.922163	-0.378209
C78	C	1.894043	1.422163	0.121791
C79	C	1.455764	0.327825	-0.711175
C80	C	1.955764	0.827825	-0.211175
C81	C	1.455776	0.327799	-0.793156
C82	C	1.955776	0.827799	-0.293156
C83	C	1.394066	0.377985	-0.834127
C84	C	1.894066	0.877985	-0.334127
C85	C	1.332334	0.428195	-0.793113
C86	C	1.832334	0.928195	-0.293113
C87	C	1.332318	0.428216	-0.711134
C88	C	1.832318	0.928216	-0.211134
C89	C	1.332373	0.428147	-0.963983
C90	C	1.832373	0.928147	-0.463983
C91	C	1.332390	0.428127	-1.045968
C92	C	1.832390	0.928127	-0.545968
C93	C	1.455830	0.327731	-1.046005
C94	C	1.955830	0.827731	-0.546005
C95	C	1.455814	0.327752	-0.964026
C96	C	1.955814	0.827752	-0.464026
C97	C	1.394083	0.377963	-0.923018
C98	C	1.894083	0.877963	-0.423018
C99	C	1.393953	0.378116	-0.174225
C100	C	1.893953	0.878116	0.325775
C101	C	1.394115	0.377920	-0.086976
C102	C	1.894115	0.877920	0.413024
H103	H	1.505893	0.676919	-0.287154
H104	H	2.005893	1.176919	0.212846
H105	H	1.505976	0.825637	-0.287192
H106	H	2.005976	1.325637	0.212808
F107	F	1.266669	0.481586	-0.920341
F108	F	1.766669	0.981586	-0.420341
H109	H	1.506026	0.929764	-0.287206
H110	H	2.006026	1.429764	0.212794
H111	H	1.282021	0.825673	-0.469192
H112	H	1.782021	1.325673	0.030808
H113	H	1.282085	0.469054	-0.826478
H114	H	1.782085	0.969054	-0.326478
H115	H	1.506111	1.078494	-0.287240
H116	H	2.006111	1.578494	0.212760
H117	H	1.506018	0.286961	-0.677822
H118	H	2.006018	0.786961	-0.177822
F119	F	1.266619	0.481652	-0.667491
F120	F	1.766619	0.981652	-0.167491
F121	F	1.266706	1.088772	-0.481773
F122	F	1.766706	1.588772	0.018227
H123	H	1.506092	0.286846	-1.079397
H124	H	2.006092	0.786846	-0.579397
H125	H	1.281937	0.676941	-0.469164
H126	H	1.781937	1.176941	0.030836
F127	F	1.266628	0.919542	-0.481754
F128	F	1.766628	1.419542	0.018246
F129	F	1.521505	0.274389	-0.836796
F130	F	2.021505	0.774389	-0.336796
F131	F	1.521498	0.274344	-0.920423
F132	F	2.021498	0.774344	-0.420423
H133	H	1.282138	0.468991	-1.079324
H134	H	1.782138	0.968991	-0.579324
