data_functionalizedCrystal
_audit_creation_method	'MofGen! by Chris Wilmer'
_symmetry_space_group_name_H-M	'P1'
_symmetry_Int_Tables_number	1
_symmetry_cell_setting	triclinic
loop_
_symmetry_equiv_pos_as_xyz
  x,y,z
_cell_length_a	17.699083
_cell_length_b	18.366186
_cell_length_c	17.699083
_cell_angle_alpha	90.002446
_cell_angle_beta	83.283015
_cell_angle_gamma	90.000344
loop_
_atom_site_label
_atom_site_type_symbol
_atom_site_fract_x
_atom_site_fract_y
_atom_site_fract_z
O1	O	1.004078	0.060449	0.095707
O2	O	1.504078	0.560449	0.595707
O3	O	0.783700	0.060473	0.108160
O4	O	1.283700	0.560473	0.608160
O5	O	0.900115	0.060454	-0.008256
O6	O	1.400115	0.560454	0.491744
O7	O	0.887663	0.060468	0.212123
O8	O	1.387663	0.560468	0.712123
O9	O	0.900100	-0.060645	-0.008252
O10	O	1.400100	0.439355	0.491748
O11	O	0.783685	-0.060626	0.108164
O12	O	1.283685	0.439374	0.608164
O13	O	1.004063	-0.060650	0.095711
O14	O	1.504063	0.439350	0.595711
Zn15	Zn	0.893872	-0.079865	0.101938
Zn16	Zn	1.393872	0.420135	0.601938
Zn17	Zn	0.893891	0.079688	0.101933
Zn18	Zn	1.393891	0.579688	0.601933
O19	O	0.887648	-0.060631	0.212127
O20	O	1.387648	0.439369	0.712127
C21	C	0.755495	-0.000074	0.107716
C22	C	1.255495	0.499926	0.607716
C23	C	0.671477	-0.000065	0.106377
C24	C	1.171477	0.499935	0.606377
N25	N	0.893864	-0.188757	0.101941
N26	N	1.393864	0.311243	0.601941
C27	C	0.939722	-0.773308	0.147764
C28	C	1.439722	-0.273308	0.647764
C29	C	0.939714	-0.697081	0.147771
C30	C	1.439714	-0.197081	0.647771
C31	C	0.893899	-0.658968	0.101925
C32	C	1.393899	-0.158968	0.601925
C33	C	0.848073	-0.697089	0.056082
C34	C	1.348073	-0.197089	0.556082
C35	C	0.848076	-0.773316	0.056082
C36	C	1.348076	-0.273316	0.556082
C37	C	0.891929	-0.538206	0.033683
C38	C	1.391929	-0.038206	0.533683
C39	C	0.891931	-0.461981	0.033682
C40	C	1.391931	0.038019	0.533682
C41	C	0.893884	-0.423860	0.101927
C42	C	1.393884	0.076140	0.601927
C43	C	0.895850	-0.461975	0.170174
C44	C	1.395850	0.038025	0.670174
C45	C	0.895854	-0.538201	0.170173
C46	C	1.395854	-0.038201	0.670173
C47	C	0.893889	-0.576313	0.101920
C48	C	1.393889	-0.076313	0.601920
C49	C	0.939694	-0.303093	0.147778
C50	C	1.439694	0.196907	0.647778
C51	C	0.939681	-0.226864	0.147787
C52	C	1.439681	0.273136	0.647787
C53	C	0.848044	-0.226874	0.056091
C54	C	1.348044	0.273126	0.556091
C55	C	0.848052	-0.303102	0.056089
C56	C	1.348052	0.196898	0.556089
C57	C	0.893882	-0.341207	0.101932
C58	C	1.393882	0.158793	0.601932
C59	C	0.622856	-0.000060	0.174710
C60	C	1.122856	0.499940	0.674710
C61	C	0.543913	-0.000070	0.173448
C62	C	1.043913	0.499930	0.673448
C63	C	0.513592	-0.000078	0.103852
C64	C	1.013592	0.499922	0.603852
C65	C	0.562219	-0.000085	0.035513
C66	C	1.062219	0.499915	0.535513
C67	C	0.641161	-0.000081	0.036776
C68	C	1.141161	0.499919	0.536776
C69	C	0.243856	-0.000103	0.030418
C70	C	0.743856	0.499897	0.530418
C71	C	0.164908	-0.000105	0.029160
C72	C	0.664908	0.499895	0.529160
C73	C	0.146608	-0.000093	0.167090
C74	C	0.646608	0.499907	0.667090
C75	C	0.225550	-0.000088	0.168353
C76	C	0.725550	0.499912	0.668353
C77	C	0.274170	-0.000098	0.100015
C78	C	0.774170	0.499902	0.600015
C79	C	0.359769	-0.000090	0.101384
C80	C	0.859769	0.499910	0.601384
C81	C	0.427995	-0.000082	0.102481
C82	C	0.927995	0.499918	0.602481
C83	C	1.032268	-0.000102	0.096156
C84	C	1.532268	0.499898	0.596156
C85	C	1.116286	-0.000106	0.097494
C86	C	1.616286	0.499894	0.597494
C87	C	0.899662	-0.000096	-0.036451
C88	C	1.399662	0.499904	0.463549
C89	C	0.898323	-0.000096	-0.120469
C90	C	1.398323	0.499904	0.379531
N91	N	0.893905	0.188579	0.101924
N92	N	1.393905	0.688579	0.601924
C93	C	0.966656	-0.000104	-0.169090
C94	C	1.466656	0.499896	0.330910
C95	C	0.965394	-0.000098	-0.248033
C96	C	1.465394	0.499902	0.251967
C97	C	0.895798	-0.000088	-0.278354
C98	C	1.395798	0.499912	0.221646
C99	C	0.827459	-0.000077	-0.229727
C100	C	1.327459	0.499923	0.270273
C101	C	0.828722	-0.000079	-0.150785
C102	C	1.328722	0.499921	0.349215
C103	C	0.822364	-0.000071	-0.548090
C104	C	1.322364	0.499929	-0.048090
C105	C	0.821106	-0.000072	-0.627038
C106	C	1.321106	0.499928	-0.127038
C107	C	0.959036	-0.000090	-0.645338
C108	C	1.459036	0.499910	-0.145338
C109	C	0.960299	-0.000091	-0.566396
C110	C	1.460299	0.499909	-0.066396
C111	C	0.891961	-0.000077	-0.517776
C112	C	1.391961	0.499923	-0.017776
C113	C	0.893330	-0.000083	-0.432177
C114	C	1.393330	0.499917	0.067823
C115	C	0.894427	-0.000087	-0.363951
C116	C	1.394427	0.499913	0.136049
C117	C	0.888102	-0.000080	0.240322
C118	C	1.388102	0.499920	0.740322
C119	C	0.889440	-0.000075	0.324340
C120	C	1.389440	0.499925	0.824340
H121	H	0.977039	-0.804329	0.185094
H122	H	1.477039	-0.304329	0.685094
H123	H	0.770792	-0.000065	-0.254420
H124	H	1.270792	0.499935	0.245580
H125	H	0.766718	-0.000059	-0.508512
H126	H	1.266718	0.499941	-0.008512
O127	O	0.755021	-0.000077	-0.098338
O128	O	1.255021	0.499923	0.401662
H129	H	0.706413	-0.000079	-0.132682
H130	H	1.206413	0.499921	0.367318
O131	O	0.491473	-0.000062	0.247152
O132	O	0.991473	0.499938	0.747152
H133	H	0.455078	-0.049426	0.249884
H134	H	0.955078	0.450574	0.749884
H135	H	0.140225	-0.000113	-0.027517
H136	H	0.640225	0.499887	0.472483
H137	H	0.977023	-0.666044	0.185103
H138	H	1.477023	-0.166044	0.685103
O139	O	0.296290	-0.000107	-0.043287
O140	O	0.796290	0.499893	0.456713
H141	H	0.332689	-0.049468	-0.046013
H142	H	0.832689	0.450532	0.453987
H143	H	0.647537	-0.000053	0.231384
H144	H	1.147537	0.499947	0.731384
O145	O	0.897971	-0.579313	0.243775
O146	O	1.397971	-0.079313	0.743775
H147	H	0.899325	-0.540006	0.291234
H148	H	1.399325	-0.040006	0.791234
H149	H	0.250232	-0.000078	0.225025
H150	H	0.750232	0.499922	0.725025
H151	H	0.107012	-0.000088	0.222734
H152	H	0.607012	0.499912	0.722734
O153	O	0.897950	-0.420873	0.243790
O154	O	1.397950	0.079127	0.743790
H155	H	0.897607	-0.361466	0.232330
H156	H	1.397607	0.138534	0.732330
O157	O	0.989111	-0.344201	0.197229
O158	O	1.489111	0.155799	0.697229
H159	H	1.020959	-0.304889	0.229117
H160	H	1.520959	0.195111	0.729117
O161	O	0.989095	-0.185751	0.197235
O162	O	1.489095	0.314249	0.697235
H163	H	1.020965	-0.225057	0.229106
H164	H	1.520965	0.274943	0.729106
H165	H	0.537526	-0.000102	-0.021154
H166	H	1.037526	0.499898	0.478846
O167	O	0.693608	-0.000083	-0.036925
O168	O	1.193608	0.499917	0.463075
H169	H	0.659264	-0.000083	-0.085533
H170	H	1.159264	0.499917	0.414467
H171	H	1.016971	-0.000103	-0.541714
H172	H	1.516971	0.499897	-0.041714
O173	O	1.041722	-0.000108	-0.136387
O174	O	1.541722	0.499892	0.363613
H175	H	1.089025	-0.000103	-0.183462
H176	H	1.589025	0.499897	0.316538
H177	H	1.021038	-0.000106	-0.287618
H178	H	1.521038	0.499894	0.212382
O179	O	1.032749	-0.000099	-0.697777
O180	O	1.532749	0.499901	-0.197777
H181	H	1.020183	-0.000089	-0.757765
H182	H	1.520183	0.499911	-0.257765
H183	H	0.764429	-0.000065	-0.651721
H184	H	1.264429	0.499935	-0.151721
H185	H	0.810735	-0.195844	0.018767
H186	H	1.310735	0.304156	0.518767
O187	O	0.798658	-0.344202	0.006613
O188	O	1.298658	0.155798	0.506613
H189	H	0.738134	-0.329573	0.023138
H190	H	1.238134	0.170427	0.523138
O191	O	0.889806	-0.420879	-0.039926
O192	O	1.389806	0.079121	0.460074
H193	H	0.837307	-0.435513	-0.065150
H194	H	1.337307	0.064487	0.434850
O195	O	0.889827	-0.579320	-0.039929
O196	O	1.389827	-0.079320	0.460071
H197	H	0.888473	-0.540013	-0.087385
H198	H	1.388473	-0.040013	0.412615
O199	O	0.798693	-0.655989	0.006594
O200	O	1.298693	-0.155989	0.506594
H201	H	0.806407	-0.596580	0.014276
H202	H	1.306407	-0.096580	0.514276
O203	O	0.798683	-0.814430	0.006614
O204	O	1.298683	-0.314430	0.506614
H205	H	0.766830	-0.775125	-0.025276
H206	H	1.266830	-0.275125	0.474724
