data_functionalizedCrystal
_audit_creation_method	'MofGen! by Chris Wilmer'
_symmetry_space_group_name_H-M	'P1'
_symmetry_Int_Tables_number	1
_symmetry_cell_setting	triclinic
loop_
_symmetry_equiv_pos_as_xyz
  x,y,z
_cell_length_a	8.559649
_cell_length_b	10.489716
_cell_length_c	7.088929
_cell_angle_alpha	83.717280
_cell_angle_beta	95.324505
_cell_angle_gamma	77.153900
loop_
_atom_site_label
_atom_site_type_symbol
_atom_site_fract_x
_atom_site_fract_y
_atom_site_fract_z
O1	O	2.103401	-0.028521	-0.158982
O2	O	1.638947	0.037278	-0.158981
O3	O	1.881762	-0.182336	-0.158989
O4	O	1.860586	0.191093	-0.158975
O5	O	1.914211	-0.211744	0.158985
O6	O	1.671396	0.007870	0.158993
O7	O	2.135850	-0.057929	0.158992
Cu8	Cu	1.906586	-0.027715	0.188026
Cu9	Cu	1.868211	0.007064	-0.188015
O10	O	1.893035	0.161684	0.158999
C11	C	1.595698	0.027560	0.000006
C12	C	1.418487	0.042403	0.000005
C13	C	1.896395	-0.244404	-0.000008
C14	C	1.891632	-0.385532	-0.000025
C15	C	2.040536	-0.498887	-0.000008
C16	C	1.945854	-0.553463	-0.156781
C17	C	1.977812	-0.582417	0.156717
C18	C	1.796999	-0.438237	-0.156927
C19	C	1.828994	-0.467202	0.156711
C20	C	1.734198	-0.521714	-0.000100
C21	C	2.179098	-0.048211	0.000001
C22	C	2.356308	-0.063053	-0.000012
C23	C	1.878402	0.223753	0.000014
C24	C	1.883163	0.364882	0.000018
N25	N	1.933588	-0.052178	0.452513
N26	N	1.841221	0.031516	-0.452503
H27	H	2.170039	-0.487833	-0.000167
H28	H	1.438655	-0.164701	-0.000016
H29	H	2.054227	-0.644770	0.289253
H30	H	1.604572	-0.532488	-0.000184
H31	H	1.995186	-0.591318	-0.289324
H32	H	2.029334	-0.138908	0.534166
H33	H	1.745493	0.118248	0.465854
H34	H	1.720635	-0.376047	-0.289613
O35	O	1.320300	0.163726	-0.000344
C36	C	1.222076	0.384818	-0.165021
C37	C	1.333323	0.247471	-0.164885
H38	H	1.232592	0.452571	-0.298017
H39	H	1.091816	0.375680	-0.165169
H40	H	1.259548	0.427908	-0.031880
H41	H	1.295996	0.204302	-0.298003
H42	H	1.463557	0.256693	-0.164637
H43	H	1.779717	-0.429330	0.289259
