data_functionalizedCrystal
_audit_creation_method	'MofGen! by Chris Wilmer'
_symmetry_space_group_name_H-M	'P1'
_symmetry_Int_Tables_number	1
_symmetry_cell_setting	triclinic
loop_
_symmetry_equiv_pos_as_xyz
  x,y,z
_cell_length_a	10.654549
_cell_length_b	16.992695
_cell_length_c	15.455313
_cell_angle_alpha	87.152573
_cell_angle_beta	87.293249
_cell_angle_gamma	92.422430
loop_
_atom_site_label
_atom_site_type_symbol
_atom_site_fract_x
_atom_site_fract_y
_atom_site_fract_z
O1	O	1.682525	-0.106807	-0.072124
O2	O	1.317954	-0.117301	-0.072127
O3	O	1.498778	0.002096	-0.072118
O4	O	1.501702	-0.226204	-0.072132
O5	O	1.488434	-0.004703	0.072143
O6	O	1.307611	-0.124100	0.072134
O7	O	1.672182	-0.113606	0.072138
Cu8	Cu	1.488952	-0.119474	0.085309
Cu9	Cu	1.501184	-0.111433	-0.085298
O10	O	1.491358	-0.233004	0.072129
C11	C	1.489846	0.027930	0.000012
C12	C	1.478627	0.115035	0.000012
C13	C	1.265918	-0.119929	0.000003
C14	C	1.126276	-0.117622	0.000002
C15	C	1.724218	-0.110978	0.000006
C16	C	1.863861	-0.113286	0.000001
C17	C	2.141882	0.025154	0.000000
C18	C	2.084082	0.097627	0.000004
C19	C	1.952876	0.099798	0.000008
C20	C	1.879466	0.029489	0.000006
C21	C	1.937267	-0.042984	0.000001
C22	C	2.068476	-0.045147	-0.000000
C23	C	1.921661	-0.185758	-0.000003
C24	C	2.052866	-0.187931	-0.000001
C25	C	1.848252	-0.256067	-0.000006
C26	C	1.906051	-0.328542	-0.000004
C27	C	2.037265	-0.330710	-0.000007
C28	C	2.110666	-0.260403	-0.000005
C29	C	1.500290	-0.258837	-0.000003
C30	C	1.511510	-0.345942	-0.000009
N31	N	1.480358	-0.125129	0.205304
C32	C	1.586877	0.164685	0.000014
C33	C	1.576329	0.246530	0.000006
C34	C	1.457528	0.278722	0.000001
C35	C	1.349269	0.229065	-0.000003
C36	C	1.359820	0.147223	-0.000001
C37	C	1.413802	0.522559	-0.000011
C38	C	1.403259	0.604407	-0.000011
C39	C	1.630320	0.621867	-0.000003
C40	C	1.640859	0.540021	0.000004
C41	C	1.532601	0.490372	-0.000005
N42	N	1.446742	0.362380	-0.000004
N43	N	1.543388	0.406716	-0.000006
N44	N	1.509788	-0.105772	-0.205293
C45	C	1.557208	-0.074424	0.250701
C46	C	1.550721	-0.078708	0.341509
C47	C	1.467389	-0.133702	0.386917
C48	C	1.390530	-0.184409	0.341513
C49	C	1.397012	-0.180121	0.250707
C50	C	1.439410	-0.152191	0.658497
C51	C	1.432937	-0.156477	0.749309
C52	C	1.593127	-0.050775	0.749299
C53	C	1.599607	-0.046494	0.658492
C54	C	1.522743	-0.097199	0.613095
N55	N	1.460759	-0.138084	0.479737
N56	N	1.529368	-0.092813	0.520277
H57	H	2.248717	0.023394	0.000007
C58	C	1.648880	-0.013926	0.200761
N59	N	1.717926	0.031645	0.163148
C60	C	2.254998	-0.262781	-0.000009
N61	N	2.363710	-0.264569	-0.000017
H62	H	1.737599	0.513817	0.000007
H63	H	1.613298	-0.037420	0.378472
C64	C	2.100834	-0.410437	-0.000010
N65	N	2.148709	-0.470489	-0.000011
H66	H	2.143866	0.154871	0.000004
C67	C	1.218586	0.264479	-0.000000
N68	N	1.120153	0.291151	0.000008
C69	C	1.691272	0.014007	0.608549
N70	N	1.760316	0.059577	0.570933
H71	H	1.683617	0.138481	0.000023
H72	H	1.376827	-0.193478	0.621543
H73	H	1.664478	0.286952	0.000009
H74	H	1.741418	-0.254294	-0.000008
H75	H	1.718457	0.662300	0.000002
H76	H	1.306512	0.630614	0.000000
H77	H	1.325650	0.482143	-0.000018
C78	C	1.677661	0.005003	0.799242
N79	N	1.741330	0.047020	0.836860
C80	C	1.889294	0.179520	0.000014
N81	N	1.841404	0.239568	0.000019
H82	H	1.365075	-0.201263	0.786277
C83	C	1.735137	0.031881	0.000010
N84	N	1.626426	0.033682	0.000017
H85	H	1.271670	0.106797	-0.000003
H86	H	1.322673	-0.229184	0.378489
H87	H	1.334430	-0.221409	0.213745
H88	H	1.846272	-0.385781	-0.000011
