data_functionalizedCrystal
_audit_creation_method	'MofGen! by Chris Wilmer'
_symmetry_space_group_name_H-M	'P1'
_symmetry_Int_Tables_number	1
_symmetry_cell_setting	triclinic
loop_
_symmetry_equiv_pos_as_xyz
  x,y,z
_cell_length_a	14.395555
_cell_length_b	20.875641
_cell_length_c	20.875621
_cell_angle_alpha	92.966151
_cell_angle_beta	58.316911
_cell_angle_gamma	117.560724
loop_
_atom_site_label
_atom_site_type_symbol
_atom_site_fract_x
_atom_site_fract_y
_atom_site_fract_z
Zr1	Zr	1.004854	0.112358	0.622078
O2	O	1.188675	0.206200	0.523101
O3	O	0.814116	0.083589	0.652417
O4	O	0.994167	0.212911	0.657163
O5	O	1.019466	-0.025132	0.514614
O6	O	0.993604	0.218207	0.762916
O7	O	1.008624	0.076878	0.518355
O8	O	0.671526	-0.013127	0.754427
O9	O	1.341544	0.206202	0.523104
O10	O	0.894711	0.075273	0.744282
O11	O	0.903222	-0.004808	0.662568
O12	O	1.115209	0.147453	0.668156
O13	O	1.123720	0.067372	0.586442
Zr14	Zr	1.021249	-0.041891	0.784777
Zr15	Zr	1.003957	0.120804	0.790743
Zr16	Zr	1.022145	-0.050336	0.616112
Zr17	Zr	1.248663	0.112361	0.622083
Zr18	Zr	0.777440	-0.041893	0.784772
O19	O	1.211986	-0.013121	0.754438
O20	O	1.187400	0.218209	0.762921
O21	O	1.213261	-0.025130	0.514619
O22	O	0.837427	-0.135733	0.883754
O23	O	0.812841	0.095598	0.892236
O24	O	0.838702	-0.147742	0.643934
O25	O	1.006636	0.095600	0.892240
O26	O	1.031935	-0.142444	0.749692
O27	O	1.032498	-0.147739	0.643938
O28	O	1.017478	-0.006410	0.888500
O29	O	1.340832	0.212915	0.657170
O30	O	0.685271	-0.142448	0.749685
O31	O	0.684558	-0.135735	0.883750
O32	O	0.670813	-0.006414	0.888492
O33	O	1.355289	0.076882	0.518362
O34	O	1.354576	0.083595	0.652428
O35	O	0.910893	-0.076985	0.738699
O36	O	0.902383	0.003096	0.820413
O37	O	1.122880	0.075275	0.744287
O38	O	1.131391	-0.004806	0.662573
C39	C	0.708083	0.035230	0.703421
C40	C	0.604580	0.035229	0.703419
C41	C	0.991422	0.238740	0.710890
C42	C	0.984081	0.307808	0.713422
C43	C	1.034680	-0.168272	0.695965
C44	C	1.042021	-0.237340	0.693433
C45	C	0.548628	-0.008437	0.658867
C46	C	0.555442	0.061587	0.630305
C47	C	0.413368	-0.034774	0.731962
C48	C	0.612816	0.105293	0.674815
C49	C	0.470684	0.008882	0.776512
C50	C	0.477540	0.078950	0.747970
C51	C	1.318019	0.035237	0.703434
C52	C	1.421522	0.035238	0.703436
C53	C	1.014173	0.024669	0.492454
C54	C	1.014553	0.021084	0.420851
C55	C	1.095727	0.377933	0.674876
C56	C	1.088822	0.442828	0.677266
C57	C	0.970270	0.437595	0.718198
C58	C	0.858616	0.367462	0.756748
C59	C	0.865522	0.302570	0.754363
C60	C	0.937273	0.627634	0.729598
C61	C	0.930375	0.692534	0.731979
C62	C	1.160582	0.767896	0.652497
C63	C	1.167478	0.702998	0.650111
C64	C	1.055824	0.632871	0.688665
N65	N	0.963209	0.503927	0.720639
N66	N	1.062886	0.566541	0.686228
C67	C	1.008763	0.075599	0.389272
C68	C	1.009114	0.072227	0.321996
C69	C	1.015265	0.014341	0.286297
C70	C	1.021052	-0.040179	0.317882
C71	C	1.020692	-0.036809	0.385160
C72	C	1.016975	-0.001767	0.084866
C73	C	1.017339	-0.005132	0.017582
C74	C	1.005399	0.107274	0.021703
C75	C	1.005046	0.110641	0.088979
C76	C	1.010827	0.056119	0.120560
N77	N	1.015629	0.010894	0.217529
N78	N	1.010454	0.059564	0.189330
C79	C	1.011929	0.045798	0.914401
C80	C	1.011549	0.049383	0.986004
C81	C	0.706962	0.045795	0.914395
C82	C	0.603078	0.049379	0.985995
C83	C	0.729712	-0.168276	0.695959
C84	C	0.633550	-0.237345	0.693424
C85	C	0.728591	-0.157711	0.906932
C86	C	0.632048	-0.223195	0.976000
C87	C	1.297511	0.228179	0.499922
C88	C	1.394055	0.293662	0.430855
C89	C	1.319141	0.024673	0.492460
C90	C	1.423024	0.021089	0.420860
C91	C	1.296390	0.238743	0.710896
C92	C	1.392552	0.307812	0.713431
C93	C	0.550287	0.088745	0.979880
C94	C	0.452689	0.092127	1.047150
C95	C	0.407877	0.056139	1.120535
C96	C	0.460677	0.016772	1.126648
C97	C	0.558280	0.013395	1.059379
C98	C	0.592396	-0.307463	0.731973
C99	C	0.502056	-0.372367	0.729588
C100	C	0.452864	-0.367151	0.688658
C101	C	0.494026	-0.297026	0.650104
C102	C	0.584372	-0.232123	0.652485
C103	C	0.582267	-0.212145	1.051096
C104	C	0.491568	-0.273667	1.115999
C105	C	0.450643	-0.346239	1.105805
C106	C	0.500433	-0.357288	1.030701
C107	C	0.591138	-0.295766	0.965800
C108	C	1.443847	0.282612	0.355759
C109	C	1.534577	0.344135	0.290855
C110	C	1.575506	0.416707	0.301050
C111	C	1.525710	0.427755	0.376154
C112	C	1.434988	0.366234	0.441055
C113	C	1.475824	-0.018270	0.426975
C114	C	1.573447	-0.021635	0.359706
C115	C	1.618263	0.014355	0.286321
C116	C	1.565458	0.053719	0.280207
C117	C	1.467843	0.057088	0.347476
C118	C	1.441716	0.302572	0.754368
C119	C	1.532059	0.367465	0.756765
C120	C	1.573242	0.437596	0.718220
C121	C	1.524069	0.442834	0.677281
C122	C	1.433722	0.377943	0.674890
H123	H	0.579773	-0.045314	0.621144
F124	F	0.412968	-0.021528	1.204756
F125	F	0.438589	-0.261893	1.195923
H126	H	0.409711	0.124184	1.042157
F127	F	1.587554	0.332360	0.210932
F128	F	0.600947	0.090726	0.549520
F129	F	1.002949	0.130247	0.288389
F130	F	0.425205	-0.020279	0.857279
F131	F	1.293658	0.708573	0.606517
F132	F	0.303997	0.059740	1.192123
F133	F	1.669403	0.506653	0.720770
F134	F	0.644731	-0.313031	0.775541
F135	F	0.614447	-0.028510	1.065899
H136	H	1.601962	0.083021	0.220449
F137	F	0.458261	-0.446992	0.770627
H138	H	1.439344	-0.047584	0.486722
H139	H	0.376785	-0.396328	1.158659
H140	H	1.251485	0.824998	0.621109
F141	F	0.998502	0.172250	0.126972
H142	H	0.379299	-0.420005	0.686726
F143	F	0.625811	-0.134914	1.061964
F144	F	0.441659	-0.291486	0.606547
H145	H	0.833831	0.688266	0.765309
F146	F	1.629625	-0.063535	0.366228
H147	H	0.586771	0.118060	0.920133
H148	H	1.649378	0.466795	0.248196
F149	F	0.628155	-0.157500	0.611457
H150	H	0.467099	-0.416384	1.022412
F151	F	0.818440	0.553007	0.770605
H152	H	0.774608	0.245470	0.785751
F153	F	0.644103	-0.307538	0.885878
H154	H	1.410527	0.223526	0.347443
H155	H	1.000691	0.151663	-0.004016
H156	H	1.003762	0.122738	0.418332
H157	H	1.559047	0.486851	0.384445
H158	H	0.698087	0.164523	0.650610
H159	H	1.394448	0.375240	0.502200
F160	F	1.722154	0.010762	0.214733
H161	H	1.424856	0.089136	0.342486
H162	H	1.408199	0.245474	0.785756
F163	F	1.027590	-0.101789	0.279890
H164	H	1.021685	-0.046160	0.110573
H165	H	1.393702	0.382219	0.641551
H166	H	1.572087	0.363185	0.790100
H167	H	0.446667	0.115929	0.785647
F168	F	0.301854	-0.112158	0.763507
H169	H	1.557615	0.499944	0.645899
H170	H	1.179736	0.499925	0.645879
F171	F	1.221908	0.383511	0.631309
H172	H	0.762088	0.363207	0.790080
H173	H	1.022350	-0.052272	-0.011482
H174	H	1.025405	-0.081202	0.410871
