data_functionalizedCrystal
_audit_creation_method	'MofGen! by Chris Wilmer'
_symmetry_space_group_name_H-M	'P1'
_symmetry_Int_Tables_number	1
_symmetry_cell_setting	triclinic
loop_
_symmetry_equiv_pos_as_xyz
  x,y,z
_cell_length_a	25.639243
_cell_length_b	29.839131
_cell_length_c	25.639233
_cell_angle_alpha	90.019585
_cell_angle_beta	90.015962
_cell_angle_gamma	90.044144
loop_
_atom_site_label
_atom_site_type_symbol
_atom_site_fract_x
_atom_site_fract_y
_atom_site_fract_z
Zn1	Zn	0.799215	-0.178875	0.295653
Zn2	Zn	1.299215	0.321125	0.795653
Zn3	Zn	0.799134	-0.253990	0.208216
Zn4	Zn	1.299134	0.246010	0.708216
Zn5	Zn	0.711791	-0.178878	0.208226
Zn6	Zn	1.211791	0.321122	0.708226
Zn7	Zn	0.711732	-0.253983	0.295615
Zn8	Zn	1.211732	0.246017	0.795615
O9	O	0.755468	-0.216432	0.251927
O10	O	1.255468	0.283568	0.751927
O11	O	0.872370	-0.188841	0.284065
O12	O	1.372370	0.311159	0.784065
O13	O	0.787539	-0.244030	0.135052
O14	O	1.287539	0.255970	0.635052
O15	O	0.723447	-0.116011	0.219844
O16	O	1.223447	0.383989	0.719844
O17	O	0.872310	-0.244028	0.219826
O18	O	1.372310	0.255972	0.719826
O19	O	0.787677	-0.116009	0.284075
O20	O	1.287677	0.383991	0.784075
O21	O	0.723369	-0.188846	0.135060
O22	O	1.223369	0.311154	0.635060
O23	O	0.638618	-0.188839	0.219807
O24	O	1.138618	0.311161	0.719807
O25	O	0.723346	-0.244015	0.368785
O26	O	1.223346	0.255985	0.868785
O27	O	0.638575	-0.244018	0.284011
O28	O	1.138575	0.255982	0.784011
O29	O	0.787619	-0.188834	0.368813
O30	O	1.287619	0.311166	0.868813
O31	O	0.787482	-0.316856	0.219789
O32	O	1.287482	0.183144	0.719789
O33	O	0.723268	-0.316851	0.284001
O34	O	1.223268	0.183149	0.784001
C35	C	0.619626	-0.216428	0.251907
C36	C	1.119626	0.283572	0.751907
C37	C	0.561512	-0.216438	0.251910
C38	C	1.061512	0.283562	0.751910
C39	C	0.201174	-0.187741	0.285433
C40	C	0.701174	0.312259	0.785433
C41	C	0.146570	-0.187741	0.285436
C42	C	0.646570	0.312259	0.785436
O43	O	0.118354	-0.163333	0.313912
O44	O	0.618354	0.336667	0.813912
N45	N	0.119229	-0.216430	0.251942
N46	N	0.619229	0.283570	0.751942
C47	C	0.146496	-0.245119	0.218438
C48	C	0.646496	0.254881	0.718438
O49	O	0.118227	-0.269521	0.189949
O50	O	0.618227	0.230479	0.689949
C51	C	0.201099	-0.245116	0.218433
C52	C	0.701099	0.254884	0.718433
C53	C	0.228437	-0.216428	0.251933
C54	C	0.728437	0.283572	0.751933
C55	C	0.228512	-0.159055	0.318930
C56	C	0.728512	0.340945	0.818930
C57	C	0.283112	-0.159056	0.318927
C58	C	0.783112	0.340944	0.818927
C59	C	0.310375	-0.187743	0.285427
C60	C	0.810375	0.312257	0.785427
C61	C	0.283037	-0.216429	0.251930
C62	C	0.783037	0.283571	0.751930
C63	C	0.228365	-0.273802	0.184927
C64	C	0.728365	0.226198	0.684927
C65	C	0.282972	-0.273797	0.184925
C66	C	0.782972	0.226203	0.684925
C67	C	0.310310	-0.245109	0.218425
C68	C	0.810310	0.254891	0.718425
C69	C	0.364901	-0.245118	0.218428
C70	C	0.864901	0.254882	0.718428
N71	N	0.392241	-0.216428	0.251922
N72	N	0.892241	0.283572	0.751922
C73	C	0.364978	-0.187741	0.285422
C74	C	0.864978	0.312259	0.785422
C75	C	0.031825	-0.245121	0.218452
C76	C	0.531825	0.254879	0.718452
C77	C	-0.022777	-0.245125	0.218460
C78	C	0.477223	0.254875	0.718460
C79	C	-0.022700	-0.187747	0.285457
C80	C	0.477300	0.312253	0.785457
C81	C	0.031904	-0.187745	0.285451
C82	C	0.531904	0.312255	0.785451
C83	C	0.059166	-0.216431	0.251946
C84	C	0.559166	0.283569	0.751946
C85	C	0.479643	-0.187746	0.285414
C86	C	0.979643	0.312254	0.785414
C87	C	0.534249	-0.187751	0.285410
C88	C	1.034249	0.312249	0.785410
C89	C	0.534167	-0.245127	0.218411
C90	C	1.034167	0.254873	0.718411
C91	C	0.479566	-0.245124	0.218417
C92	C	0.979566	0.254876	0.718417
C93	C	0.452306	-0.216430	0.251920
C94	C	0.952306	0.283570	0.751920
O95	O	0.393151	-0.269511	0.189965
O96	O	0.893151	0.230489	0.689965
O97	O	0.393254	-0.163339	0.313902
O98	O	0.893254	0.336661	0.813902
C99	C	0.755374	-0.333154	0.251902
C100	C	1.255374	0.166846	0.751902
C101	C	0.755381	-0.383089	0.251908
C102	C	1.255381	0.116911	0.751908
C103	C	0.788965	-0.692722	0.218541
C104	C	1.288965	-0.192722	0.718541
C105	C	0.789030	-0.880395	0.218561
C106	C	1.289030	-0.380395	0.718561
O107	O	0.817509	-0.904651	0.190172
O108	O	1.317509	-0.404651	0.690172
N109	N	0.755577	-0.903874	0.251967
N110	N	1.255577	-0.403874	0.751967
C111	C	0.722108	-0.880431	0.285372
C112	C	1.222108	-0.380431	0.785372
O113	O	0.693659	-0.904707	0.313790
O114	O	1.193659	-0.404707	0.813790
C115	C	0.722046	-0.692759	0.285354
C116	C	1.222046	-0.192759	0.785354
C117	C	0.755498	-0.669283	0.251943
C118	C	1.255498	-0.169283	0.751943
C119	C	0.822415	-0.669246	0.185133
C120	C	1.322415	-0.169246	0.685133
C121	C	0.822396	-0.622330	0.185126
C122	C	1.322396	-0.122330	0.685126
C123	C	0.788928	-0.598891	0.218528
C124	C	1.288928	-0.098891	0.718528
C125	C	0.755479	-0.622367	0.251936
C126	C	1.255479	-0.122367	0.751936
C127	C	0.688580	-0.669317	0.318761
C128	C	1.188580	-0.169317	0.818761
C129	C	0.688568	-0.622396	0.318755
C130	C	1.188568	-0.122396	0.818755
C131	C	0.722020	-0.598920	0.285344
C132	C	1.222020	-0.098920	0.785344
C133	C	0.721993	-0.552012	0.285331
C134	C	1.221993	-0.052012	0.785331
N135	N	0.755446	-0.528534	0.251925
N136	N	1.255446	-0.028534	0.751925
C137	C	0.788914	-0.551973	0.218524
C138	C	1.288914	-0.051973	0.718524
C139	C	0.722142	-0.978962	0.285378
C140	C	1.222142	-0.478962	0.785378
C141	C	0.722156	-1.025879	0.285382
C142	C	1.222156	-0.525879	0.785382
C143	C	0.789079	-1.025840	0.218572
C144	C	1.289079	-0.525840	0.718572
C145	C	0.789062	-0.978922	0.218566
C146	C	1.289062	-0.478922	0.718566
C147	C	0.755595	-0.955483	0.251973
C148	C	1.255595	-0.455483	0.751973
C149	C	0.788872	-0.453447	0.218512
C150	C	1.288872	0.046553	0.718512
C151	C	0.788849	-0.406528	0.218506
C152	C	1.288849	0.093472	0.718506
C153	C	0.721928	-0.406571	0.285318
C154	C	1.221928	0.093429	0.785318
C155	C	0.721949	-0.453487	0.285322
C156	C	1.221949	0.046513	0.785322
C157	C	0.755425	-0.476924	0.251917
C158	C	1.255425	0.023076	0.751917
O159	O	0.693533	-0.527727	0.313709
O160	O	1.193533	-0.027727	0.813709
O161	O	0.817366	-0.527689	0.190118
O162	O	1.317366	-0.027689	0.690118
C163	C	0.788984	-0.739637	0.218548
C164	C	1.288984	-0.239637	0.718548
C165	C	0.755535	-0.763114	0.251956
C166	C	1.255535	-0.263114	0.751956
C167	C	0.722067	-0.739674	0.285358
C168	C	1.222067	-0.239674	0.785358
C169	C	0.755549	-0.810031	0.251960
C170	C	1.255549	-0.310031	0.751960
C171	C	0.789017	-0.833471	0.218559
C172	C	1.289017	-0.333471	0.718559
C173	C	0.822470	-0.809992	0.185153
C174	C	1.322470	-0.309992	0.685153
C175	C	0.822452	-0.763077	0.185146
C176	C	1.322452	-0.263077	0.685146
C177	C	0.688614	-0.763153	0.318763
C178	C	1.188614	-0.263153	0.818763
C179	C	0.688635	-0.810068	0.318767
C180	C	1.188635	-0.310068	0.818767
C181	C	0.722102	-0.833508	0.285365
C182	C	1.222102	-0.333508	0.785365
C183	C	0.891841	-0.216435	0.251949
C184	C	1.391841	0.283565	0.751949
C185	C	0.949955	-0.216436	0.251958
C186	C	1.449955	0.283564	0.751958
C187	C	0.755485	-0.216424	0.388300
C188	C	1.255485	0.283576	0.888300
C189	C	0.755492	-0.216420	0.446415
C190	C	1.255492	0.283580	0.946415
C191	C	0.755577	-0.099253	0.251965
C192	C	1.255577	0.400747	0.751965
C193	C	0.755624	-0.049319	0.251981
C194	C	1.255624	0.450681	0.751981
C195	C	0.755482	-0.216407	0.116085
C196	C	1.255482	0.283593	0.616085
C197	C	0.755576	-0.216284	0.057971
C198	C	1.255576	0.283716	0.557971
C199	C	0.789002	-0.187602	0.806798
C200	C	1.289002	0.312398	1.306798
C201	C	0.789008	-0.187590	0.861402
C202	C	1.289008	0.312410	1.361402
O203	O	0.817457	-0.163141	0.889656
O204	O	1.317457	0.336859	1.389656
N205	N	0.755550	-0.216315	0.888697
N206	N	1.255550	0.283685	1.388697
C207	C	0.722079	-0.245051	0.861385
C208	C	1.222079	0.254949	1.361385
O209	O	0.693621	-0.269483	0.889616
O210	O	1.193621	0.230517	1.389616
C211	C	0.722071	-0.245061	0.806782
C212	C	1.222071	0.254939	1.306782
C213	C	0.755535	-0.216337	0.779490
C214	C	1.255535	0.283663	1.279490
C215	C	0.822463	-0.158880	0.779505
C216	C	1.322463	0.341120	1.279505
C217	C	0.822457	-0.158893	0.724905
C218	C	1.322457	0.341107	1.224905
C219	C	0.788990	-0.187628	0.697597
C220	C	1.288990	0.312372	1.197597
C221	C	0.755529	-0.216350	0.724889
C222	C	1.255529	0.283650	1.224889
C223	C	0.688598	-0.273795	0.779471
C224	C	1.188598	0.226205	1.279471
C225	C	0.688592	-0.273802	0.724864
C226	C	1.188592	0.226198	1.224864
C227	C	0.722056	-0.245078	0.697571
C228	C	1.222056	0.254922	1.197571
C229	C	0.722056	-0.245098	0.642980
C230	C	1.222056	0.254902	1.142980
N231	N	0.755514	-0.216373	0.615685
N232	N	1.255514	0.283627	1.115685
C233	C	0.788981	-0.187638	0.642993
C234	C	1.288981	0.312362	1.142993
C235	C	0.722100	-0.245028	0.976056
C236	C	1.222100	0.254972	1.476056
C237	C	0.722110	-0.245021	1.030658
C238	C	1.222110	0.254979	1.530658
C239	C	0.789039	-0.187558	1.030671
C240	C	1.289039	0.312442	1.530671
C241	C	0.789030	-0.187568	0.976068
C242	C	1.289030	0.312432	1.476068
C243	C	0.755558	-0.216303	0.948761
C244	C	1.255558	0.283697	1.448761
C245	C	0.788967	-0.187668	0.528328
C246	C	1.288967	0.312332	1.028328
C247	C	0.788959	-0.187685	0.473723
C248	C	1.288959	0.312315	0.973723
C249	C	0.722029	-0.245146	0.473714
C250	C	1.222029	0.254854	0.973714
C251	C	0.722038	-0.245130	0.528315
C252	C	1.222038	0.254870	1.028315
C253	C	0.755509	-0.216388	0.555621
C254	C	1.255509	0.283612	1.055621
O255	O	0.693620	-0.269534	0.614692
O256	O	1.193620	0.230466	1.114692
O257	O	0.817430	-0.163207	0.614756
O258	O	1.317430	0.336793	1.114756
H259	H	0.457455	-0.164379	0.312694
H260	H	0.957455	0.335621	0.812694
C261	C	0.825204	-0.156465	0.444029
C262	C	1.325204	0.343535	0.944029
C263	C	0.795620	-0.127684	0.412672
C264	C	1.295620	0.372316	0.912672
C265	C	0.828988	-0.098920	0.385309
C266	C	1.328988	0.401080	0.885309
H267	H	0.845144	-0.139306	0.468059
H268	H	1.345144	0.360694	0.968059
H269	H	0.847963	-0.173637	0.422698
H270	H	1.347963	0.326363	0.922698
H271	H	0.772871	-0.110513	0.434001
H272	H	1.272871	0.389487	0.934001
H273	H	0.775682	-0.144830	0.388632
H274	H	1.275682	0.355170	0.888632
H275	H	0.851747	-0.116092	0.363978
H276	H	1.351747	0.383908	0.863978
H277	H	0.848925	-0.081764	0.409343
H278	H	1.348925	0.418236	0.909343
H279	H	0.808920	-0.079391	0.364027
H280	H	1.308920	0.420609	0.864027
C281	C	0.825414	-0.953378	0.182378
C282	C	1.325414	-0.453378	0.682378
C283	C	0.858891	-0.926395	0.212009
C284	C	1.358891	-0.426395	0.712009
C285	C	0.892384	-0.902857	0.178690
C286	C	1.392384	-0.402857	0.678690
H287	H	0.845395	-0.974010	0.162475
H288	H	1.345395	-0.474010	0.662475
H289	H	0.805439	-0.935075	0.159583
H290	H	1.305439	-0.435075	0.659583
H291	H	0.878864	-0.944697	0.234795
H292	H	1.378864	-0.444697	0.734795
H293	H	0.838925	-0.905755	0.231911
H294	H	1.338925	-0.405755	0.731911
H295	H	0.872409	-0.884554	0.155895
H296	H	1.372409	-0.384554	0.655895
H297	H	0.912361	-0.923492	0.158788
H298	H	1.412361	-0.423492	0.658788
H299	H	0.915099	-0.884543	0.198789
H300	H	1.415099	-0.384543	0.698789
H301	H	0.849637	-0.603219	0.157921
H302	H	1.349637	-0.103219	0.657921
C303	C	0.825434	-1.051375	0.182402
C304	C	1.325434	-0.551375	0.682402
C305	C	0.818309	-1.097487	0.189587
C306	C	1.318309	-0.597487	0.689587
C307	C	0.851811	-1.121025	0.156302
C308	C	1.351811	-0.621025	0.656302
H309	H	0.817878	-1.043779	0.147229
H310	H	1.317878	-0.543779	0.647229
H311	H	0.860555	-1.043662	0.190131
H312	H	1.360555	-0.543662	0.690131
H313	H	0.783196	-1.105196	0.181854
H314	H	1.283196	-0.605196	0.681854
H315	H	0.825868	-1.105096	0.224753
H316	H	1.325868	-0.605096	0.724753
H317	H	0.886932	-1.113313	0.164031
H318	H	1.386932	-0.613313	0.664031
H319	H	0.844253	-1.113426	0.121131
H320	H	1.344253	-0.613426	0.621131
H321	H	0.846985	-1.152315	0.161176
H322	H	1.346985	-0.652315	0.661176
C323	C	0.825135	-0.478951	0.182221
C324	C	1.325135	0.021049	0.682221
C325	C	0.795573	-0.505940	0.148690
C326	C	1.295573	-0.005940	0.648690
C327	C	0.828960	-0.529446	0.115259
C328	C	1.328960	-0.029446	0.615259
H329	H	0.845068	-0.458300	0.162275
H330	H	1.345068	0.041700	0.662275
H331	H	0.847900	-0.497247	0.202236
H332	H	1.347900	0.002753	0.702236
H333	H	0.772818	-0.487645	0.128677
H334	H	1.272818	0.012355	0.628677
H335	H	0.775642	-0.526600	0.168622
H336	H	1.275642	-0.026600	0.668622
H337	H	0.851725	-0.547743	0.135274
H338	H	1.351725	-0.047743	0.635274
H339	H	0.848891	-0.508792	0.095316
H340	H	1.348891	-0.008792	0.595316
H341	H	0.808908	-0.547764	0.092508
H342	H	1.308908	-0.047764	0.592508
H343	H	0.816288	-0.164160	1.052916
H344	H	1.316288	0.335840	1.552916
H345	H	0.694712	-0.472602	0.312530
H346	H	1.194712	0.027398	0.812530
C347	C	0.312694	-0.127853	0.355313
C348	C	0.812694	0.372147	0.855313
C349	C	0.277122	-0.102724	0.384635
C350	C	0.777122	0.397276	0.884635
C351	C	0.304350	-0.073967	0.418153
C352	C	0.804350	0.426033	0.918153
H353	H	0.333992	-0.145011	0.378106
H354	H	0.833992	0.354989	0.878106
H355	H	0.333991	-0.108228	0.335362
H356	H	0.833991	0.391772	0.835362
H357	H	0.255834	-0.122347	0.404585
H358	H	0.755834	0.377653	0.904585
H359	H	0.255823	-0.085557	0.361855
H360	H	0.755823	0.414443	0.861855
H361	H	0.325646	-0.054342	0.398202
H362	H	0.825646	0.445658	0.898202
H363	H	0.325647	-0.091129	0.440943
H364	H	0.825647	0.408871	0.940943
H365	H	0.280218	-0.056911	0.438049
H366	H	0.780218	0.443089	0.938049
H367	H	0.054019	-0.268485	0.191169
H368	H	0.554019	0.231515	0.691169
C369	C	-0.052360	-0.276294	0.182035
C370	C	0.447640	0.223706	0.682035
C371	C	-0.016790	-0.301407	0.152691
C372	C	0.483210	0.198593	0.652691
C373	C	-0.044020	-0.330119	0.119123
C374	C	0.455980	0.169881	0.619123
H375	H	-0.073674	-0.295935	0.201934
H376	H	0.426326	0.204065	0.701934
H377	H	-0.073641	-0.259091	0.159261
H378	H	0.426359	0.240909	0.659261
H379	H	0.004482	-0.318609	0.175461
H380	H	0.504482	0.181391	0.675461
H381	H	0.004525	-0.281778	0.132780
H382	H	0.504525	0.218222	0.632780
H383	H	-0.065301	-0.312915	0.096349
H384	H	0.434699	0.187085	0.596349
H385	H	-0.065334	-0.349757	0.139027
H386	H	0.434666	0.150243	0.639027
H387	H	-0.019891	-0.347158	0.099205
H388	H	0.480109	0.152842	0.599205
H389	H	0.816220	-0.164262	0.550554
H390	H	1.316220	0.335738	1.050554
C391	C	0.685697	-0.276159	0.946384
C392	C	1.185697	0.223841	1.446384
C393	C	0.652189	-0.250734	0.915045
C394	C	1.152189	0.249266	1.415045
C395	C	0.618644	-0.279396	0.887713
C396	C	1.118644	0.220604	1.387713
H397	H	0.705615	-0.295749	0.925042
H398	H	1.205615	0.204251	1.425042
H399	H	0.665745	-0.293256	0.970448
H400	H	1.165745	0.206744	1.470448
H401	H	0.672139	-0.233645	0.890983
H402	H	1.172139	0.266355	1.390983
H403	H	0.632260	-0.231146	0.936374
H404	H	1.132260	0.268854	1.436374
H405	H	0.598692	-0.296493	0.911777
H406	H	1.098692	0.203507	1.411777
H407	H	0.638566	-0.298984	0.866373
H408	H	1.138566	0.201016	1.366373
H409	H	0.595902	-0.262149	0.866449
H410	H	1.095902	0.237851	1.366449
H411	H	0.206320	-0.135692	0.346209
H412	H	0.706320	0.364308	0.846209
C413	C	0.449853	-0.276328	0.182136
C414	C	0.949853	0.223672	0.682136
C415	C	0.418494	-0.305167	0.211678
C416	C	0.918494	0.194833	0.711678
C417	C	0.391124	-0.333918	0.178271
C418	C	0.891124	0.166082	0.678271
H419	H	0.428521	-0.259164	0.159382
H420	H	0.928521	0.240836	0.659382
H421	H	0.473894	-0.293441	0.162195
H422	H	0.973894	0.206559	0.662195
H423	H	0.394455	-0.288056	0.231611
H424	H	0.894455	0.211944	0.731611
H425	H	0.439813	-0.322341	0.234431
H426	H	0.939813	0.177659	0.734431
H427	H	0.415165	-0.351031	0.158329
H428	H	0.915165	0.148969	0.658329
H429	H	0.369794	-0.316750	0.155518
H430	H	0.869794	0.183250	0.655518
H431	H	0.369847	-0.353491	0.198310
H432	H	0.869847	0.146509	0.698310
C433	C	0.563867	-0.276222	0.182060
C434	C	1.063867	0.223778	0.682060
C435	C	0.617537	-0.270069	0.189219
C436	C	1.117537	0.229931	0.689219
C437	C	0.644914	-0.298698	0.155733
C438	C	1.144914	0.201302	0.655733
H439	H	0.554962	-0.306437	0.189609
H440	H	1.054962	0.193563	0.689609
H441	H	0.554944	-0.269594	0.146934
H442	H	1.054944	0.230406	0.646934
H443	H	0.626457	-0.276699	0.224337
H444	H	1.126457	0.223301	0.724337
H445	H	0.626458	-0.239860	0.181666
H446	H	1.126458	0.260140	0.681666
H447	H	0.635991	-0.292070	0.120607
H448	H	1.135991	0.207930	0.620607
H449	H	0.636004	-0.328911	0.163285
H450	H	1.136004	0.171089	0.663285
H451	H	0.681331	-0.294524	0.160583
H452	H	1.181331	0.205476	0.660583
C453	C	0.312597	-0.304871	0.148483
C454	C	0.812597	0.195129	0.648483
C455	C	0.343947	-0.279392	0.115014
C456	C	0.843947	0.220608	0.615014
C457	C	0.371237	-0.308002	0.081434
C458	C	0.871237	0.191998	0.581434
H459	H	0.333929	-0.324482	0.168378
H460	H	0.833929	0.175518	0.668378
H461	H	0.288508	-0.321947	0.128505
H462	H	0.788508	0.178053	0.628505
H463	H	0.368033	-0.262324	0.134990
H464	H	0.868033	0.237676	0.634990
H465	H	0.322628	-0.259783	0.095108
H466	H	0.822628	0.240217	0.595108
H467	H	0.347148	-0.325078	0.061456
H468	H	0.847148	0.174922	0.561456
H469	H	0.392566	-0.327612	0.101333
H470	H	0.892566	0.172388	0.601333
H471	H	0.392508	-0.290719	0.058718
H472	H	0.892508	0.209281	0.558718
C473	C	0.061488	-0.156547	0.321841
C474	C	0.561488	0.343453	0.821841
C475	C	0.025918	-0.131420	0.351169
C476	C	0.525918	0.368580	0.851169
C477	C	0.053148	-0.102670	0.384693
C478	C	0.553148	0.397330	0.884693
H479	H	0.082785	-0.173709	0.344630
H480	H	0.582785	0.326291	0.844630
H481	H	0.082785	-0.136919	0.301893
H482	H	0.582785	0.363081	0.801893
H483	H	0.004630	-0.151045	0.371115
H484	H	0.504630	0.348955	0.871115
H485	H	0.004619	-0.114249	0.328394
H486	H	0.504619	0.385751	0.828394
H487	H	0.074446	-0.083043	0.364745
H488	H	0.574446	0.416957	0.864745
H489	H	0.074445	-0.119836	0.407479
H490	H	0.574445	0.380164	0.907479
H491	H	0.029019	-0.085615	0.404593
H492	H	0.529019	0.414385	0.904593
H493	H	0.206116	-0.297163	0.157647
H494	H	0.706116	0.202837	0.657647
C495	C	0.563835	-0.156552	0.321802
C496	C	1.063835	0.343448	0.821802
C497	C	0.528267	-0.131421	0.351128
C498	C	1.028267	0.368579	0.851128
C499	C	0.555500	-0.102672	0.384651
C500	C	1.055500	0.397328	0.884651
H501	H	0.585129	-0.173715	0.344593
H502	H	1.085129	0.326285	0.844593
H503	H	0.585135	-0.136927	0.301855
H504	H	1.085135	0.363073	0.801855
H505	H	0.506975	-0.151043	0.371074
H506	H	1.006975	0.348957	0.871074
H507	H	0.506972	-0.114248	0.328351
H508	H	1.006972	0.385752	0.828351
H509	H	0.576801	-0.083048	0.364704
H510	H	1.076801	0.416952	0.864704
H511	H	0.576794	-0.119839	0.407439
H512	H	1.076794	0.380161	0.907439
H513	H	0.531372	-0.085614	0.404550
H514	H	1.031372	0.414386	0.904550
C515	C	0.825141	-0.381098	0.182146
C516	C	1.325141	0.118902	0.682146
C517	C	0.813805	-0.392553	0.130407
C518	C	1.313805	0.107447	0.630407
C519	C	0.847231	-0.369142	0.096899
C520	C	1.347231	0.130858	0.596899
H521	H	0.820372	-0.349791	0.186851
H522	H	1.320372	0.150209	0.686851
H523	H	0.860277	-0.388761	0.189802
H524	H	1.360277	0.111239	0.689802
H525	H	0.778678	-0.384886	0.122752
H526	H	1.278678	0.115114	0.622752
H527	H	0.818577	-0.423856	0.125685
H528	H	1.318577	0.076144	0.625685
H529	H	0.882366	-0.376806	0.104556
H530	H	1.382366	0.123194	0.604556
H531	H	0.842459	-0.337836	0.101609
H532	H	1.342459	0.162164	0.601609
H533	H	0.839547	-0.376914	0.061791
H534	H	1.339547	0.123086	0.561791
C535	C	0.685652	-0.381036	0.321563
C536	C	1.185652	0.118964	0.821563
C537	C	0.692811	-0.334924	0.314414
C538	C	1.192811	0.165076	0.814414
C539	C	0.659410	-0.311386	0.347801
C540	C	1.159410	0.188614	0.847801
H541	H	0.650507	-0.388703	0.313916
H542	H	1.150507	0.111297	0.813916
H543	H	0.693290	-0.388677	0.356712
H544	H	1.193290	0.111323	0.856712
H545	H	0.685169	-0.327285	0.279273
H546	H	1.185169	0.172715	0.779273
H547	H	0.727949	-0.327243	0.322064
H548	H	1.227949	0.172757	0.822064
H549	H	0.667049	-0.319027	0.382950
H550	H	1.167049	0.180973	0.882950
H551	H	0.624267	-0.319056	0.340152
H552	H	1.124267	0.180944	0.840152
H553	H	0.664267	-0.280096	0.342958
H554	H	1.164267	0.219904	0.842958
C555	C	0.858831	-0.737673	0.148853
C556	C	1.358831	-0.237673	0.648853
C557	C	0.888150	-0.768251	0.119617
C558	C	1.388150	-0.268251	0.619617
C559	C	0.921676	-0.744869	0.086183
C560	C	1.421676	-0.244869	0.586183
H561	H	0.838902	-0.719396	0.126002
H562	H	1.338902	-0.219396	0.626002
H563	H	0.881623	-0.719353	0.168861
H564	H	1.381623	-0.219353	0.668861
H565	H	0.865362	-0.786564	0.099611
H566	H	1.365362	-0.286564	0.599611
H567	H	0.908090	-0.786529	0.142455
H568	H	1.408090	-0.286529	0.642455
H569	H	0.944468	-0.726548	0.106190
H570	H	1.444468	-0.226548	0.606190
H571	H	0.901743	-0.726592	0.063335
H572	H	1.401743	-0.226592	0.563335
H573	H	0.941577	-0.765612	0.066345
H574	H	1.441577	-0.265612	0.566345
H575	H	0.694866	-0.268415	1.052875
H576	H	1.194866	0.231585	1.552875
H577	H	-0.044907	-0.164387	0.312733
H578	H	0.455093	0.335613	0.812733
C579	C	0.685770	-0.953459	0.321563
C580	C	1.185770	-0.453459	0.821563
C581	C	0.652277	-0.926557	0.291925
C582	C	1.152277	-0.426557	0.791925
C583	C	0.618767	-0.903056	0.325238
C584	C	1.118767	-0.403056	0.825238
H585	H	0.665800	-0.974113	0.341467
H586	H	1.165800	-0.474113	0.841467
H587	H	0.705730	-0.935105	0.344357
H588	H	1.205730	-0.435105	0.844357
H589	H	0.632319	-0.944910	0.269140
H590	H	1.132319	-0.444910	0.769140
H591	H	0.672233	-0.905894	0.272022
H592	H	1.172233	-0.405894	0.772022
H593	H	0.638728	-0.884701	0.348032
H594	H	1.138728	-0.384701	0.848032
H595	H	0.598801	-0.923713	0.345141
H596	H	1.098801	-0.423713	0.845141
H597	H	0.596042	-0.884796	0.305135
H598	H	1.096042	-0.384796	0.805135
C599	C	0.652242	-0.737650	0.354943
C600	C	1.152242	-0.237650	0.854943
C601	C	0.618749	-0.710752	0.325302
C602	C	1.118749	-0.210752	0.825302
C603	C	0.585237	-0.687250	0.358613
C604	C	1.085237	-0.187250	0.858613
H605	H	0.632274	-0.758304	0.374848
H606	H	1.132274	-0.258304	0.874848
H607	H	0.672201	-0.719293	0.377735
H608	H	1.172201	-0.219293	0.877735
H609	H	0.598792	-0.729107	0.302518
H610	H	1.098792	-0.229107	0.802518
H611	H	0.638703	-0.690090	0.305397
H612	H	1.138703	-0.190090	0.805397
H613	H	0.605195	-0.668893	0.381405
H614	H	1.105195	-0.168893	0.881405
H615	H	0.565272	-0.707907	0.378517
H616	H	1.065272	-0.207907	0.878517
H617	H	0.562510	-0.668993	0.338507
H618	H	1.062510	-0.168993	0.838507
C619	C	0.685897	-1.051340	0.321742
C620	C	1.185897	-0.551340	0.821742
C621	C	0.697255	-1.039904	0.373481
C622	C	1.197255	-0.539904	0.873481
C623	C	0.663870	-1.063352	0.406994
C624	C	1.163870	-0.563352	0.906994
H625	H	0.650752	-1.043703	0.314125
H626	H	1.150752	-0.543703	0.814125
H627	H	0.690700	-1.082645	0.317000
H628	H	1.190700	-0.582645	0.817000
H629	H	0.692448	-1.008606	0.378221
H630	H	1.192448	-0.508606	0.878221
H631	H	0.732394	-1.047542	0.381114
H632	H	1.232394	-0.547542	0.881114
H633	H	0.668673	-1.094657	0.402252
H634	H	1.168673	-0.594657	0.902252
H635	H	0.628727	-1.055713	0.399372
H636	H	1.128727	-0.555713	0.899372
H637	H	0.671575	-1.055598	0.442103
H638	H	1.171575	-0.555598	0.942103
C639	C	0.652263	-0.597005	0.355112
C640	C	1.152263	-0.097005	0.855112
C641	C	0.663612	-0.608398	0.406852
C642	C	1.163612	-0.108398	0.906852
C643	C	0.630174	-0.585022	0.440357
C644	C	1.130174	-0.085022	0.940357
H645	H	0.657009	-0.565693	0.350396
H646	H	1.157009	-0.065693	0.850396
H647	H	0.617132	-0.604740	0.347461
H648	H	1.117132	-0.104740	0.847461
H649	H	0.698735	-0.600660	0.414500
H650	H	1.198735	-0.100660	0.914500
H651	H	0.658863	-0.639706	0.411584
H652	H	1.158863	-0.139706	0.911584
H653	H	0.595043	-0.592757	0.432706
H654	H	1.095043	-0.092757	0.932706
H655	H	0.634923	-0.553711	0.435637
H656	H	1.134923	-0.053711	0.935637
H657	H	0.637867	-0.592751	0.475466
H658	H	1.137867	-0.092751	0.975466
H659	H	0.849671	-0.688325	0.157933
H660	H	1.349671	-0.188325	0.657933
C661	C	0.652293	-0.835472	0.355102
C662	C	1.152293	-0.335472	0.855102
C663	C	0.622992	-0.804897	0.384360
C664	C	1.122992	-0.304897	0.884360
C665	C	0.589519	-0.828281	0.417845
C666	C	1.089519	-0.328281	0.917845
H667	H	0.629483	-0.853808	0.335146
H668	H	1.129483	-0.353808	0.835146
H669	H	0.672275	-0.853735	0.377934
H670	H	1.172275	-0.353735	0.877934
H671	H	0.603012	-0.786642	0.361531
H672	H	1.103012	-0.286642	0.861531
H673	H	0.645788	-0.786561	0.404327
H674	H	1.145788	-0.286561	0.904327
H675	H	0.609501	-0.846544	0.440677
H676	H	1.109501	-0.346544	0.940677
H677	H	0.566713	-0.846616	0.397885
H678	H	1.066713	-0.346616	0.897885
H679	H	0.569638	-0.807540	0.437704
H680	H	1.069638	-0.307540	0.937704
C681	C	0.858831	-0.127752	0.809217
C682	C	1.358831	0.372248	1.309217
C683	C	0.892319	-0.153181	0.840574
C684	C	1.392319	0.346819	1.340574
C685	C	0.925828	-0.124521	0.867954
C686	C	1.425828	0.375479	1.367954
H687	H	0.878805	-0.110639	0.785197
H688	H	1.378805	0.389361	1.285197
H689	H	0.838870	-0.108178	0.830548
H690	H	1.338870	0.391822	1.330548
H691	H	0.912278	-0.172748	0.819245
H692	H	1.412278	0.327252	1.319245
H693	H	0.872360	-0.170294	0.864604
H694	H	1.372360	0.329706	1.364604
H695	H	0.905866	-0.104947	0.889285
H696	H	1.405866	0.395053	1.389285
H697	H	0.945798	-0.107409	0.843929
H698	H	1.445798	0.392591	1.343929
H699	H	0.948549	-0.141771	0.889236
H700	H	1.448549	0.358229	1.389236
H701	H	0.694783	-0.268542	0.451470
H702	H	1.194783	0.231458	0.951470
H703	H	0.661347	-0.297185	0.801683
H704	H	1.161347	0.202815	1.301683
C705	C	0.685795	-0.276371	0.557980
C706	C	1.185795	0.223629	1.057980
C707	C	0.715370	-0.305166	0.589327
C708	C	1.215370	0.194834	1.089327
C709	C	0.681996	-0.333950	0.616653
C710	C	1.181996	0.166050	1.116653
H711	H	0.663022	-0.259228	0.579317
H712	H	1.163022	0.240772	1.079317
H713	H	0.665871	-0.293514	0.533912
H714	H	1.165871	0.206486	1.033912
H715	H	0.735285	-0.288025	0.613392
H716	H	1.235285	0.211975	1.113392
H717	H	0.738141	-0.322319	0.568003
H718	H	1.238141	0.177681	1.068003
H719	H	0.662072	-0.351093	0.592585
H720	H	1.162072	0.148907	1.092585
H721	H	0.659225	-0.316804	0.637987
H722	H	1.159225	0.183196	1.137987
H723	H	0.702058	-0.353494	0.637921
H724	H	1.202058	0.146506	1.137921
H725	H	0.661338	-0.688423	0.345966
H726	H	1.161338	-0.188423	0.845966
C727	C	0.858805	-0.127653	0.695372
C728	C	1.358805	0.372347	1.195372
C729	C	0.888101	-0.102480	0.730984
C730	C	1.388101	0.397520	1.230984
C731	C	0.921585	-0.073689	0.703801
C732	C	1.421585	0.426311	1.203801
H733	H	0.881618	-0.144788	0.674069
H734	H	1.381618	0.355212	1.174069
H735	H	0.838831	-0.108057	0.674084
H736	H	1.338831	0.391943	1.174084
H737	H	0.908073	-0.122073	0.752263
H738	H	1.408073	0.377927	1.252263
H739	H	0.865302	-0.085335	0.752288
H740	H	1.365302	0.414665	1.252288
H741	H	0.901611	-0.054093	0.682513
H742	H	1.401611	0.445907	1.182513
H743	H	0.944394	-0.090828	0.682499
H744	H	1.444394	0.409172	1.182499
H745	H	0.941462	-0.056603	0.727960
H746	H	1.441462	0.443397	1.227960
H747	H	0.849719	-0.829085	0.157955
H748	H	1.349719	-0.329085	0.657955
H749	H	0.816279	-0.164178	0.953850
H750	H	1.316279	0.335822	1.453850
H751	H	0.661328	-0.297197	0.702633
H752	H	1.161328	0.202803	1.202633
