data_functionalizedCrystal
_audit_creation_method	'MofGen! by Chris Wilmer'
_symmetry_space_group_name_H-M	'P1'
_symmetry_Int_Tables_number	1
_symmetry_cell_setting	triclinic
loop_
_symmetry_equiv_pos_as_xyz
  x,y,z
_cell_length_a	17.077404
_cell_length_b	16.120484
_cell_length_c	17.077396
_cell_angle_alpha	92.867798
_cell_angle_beta	89.982756
_cell_angle_gamma	92.925780
loop_
_atom_site_label
_atom_site_type_symbol
_atom_site_fract_x
_atom_site_fract_y
_atom_site_fract_z
Zn1	Zn	1.184177	-0.331895	-0.459673
Zn2	Zn	1.177426	-0.471321	-0.335057
Zn3	Zn	1.052912	-0.331927	-0.328422
Zn4	Zn	1.046216	-0.471270	-0.466278
O5	O	1.115183	-0.401603	-0.397357
O6	O	1.293128	-0.350399	-0.443154
O7	O	1.160886	-0.452865	-0.224331
O8	O	1.075952	-0.215257	-0.340292
O9	O	1.288168	-0.452835	-0.351600
O10	O	1.172392	-0.215234	-0.436721
O11	O	1.069406	-0.350452	-0.219457
O12	O	0.942177	-0.350402	-0.346697
O13	O	1.064539	-0.452747	-0.575247
O14	O	0.937258	-0.452777	-0.447979
O15	O	1.165899	-0.350349	-0.570394
O16	O	1.154393	-0.587980	-0.358004
O17	O	1.057994	-0.587942	-0.454412
C18	C	0.911235	-0.401588	-0.397335
C19	C	0.823985	-0.401602	-0.397345
C20	C	0.780450	-0.454989	-0.450006
C21	C	0.698469	-0.454991	-0.450018
C22	C	0.660025	-0.401609	-0.397366
C23	C	0.703566	-0.348216	-0.344702
C24	C	0.785546	-0.348211	-0.344694
C25	C	0.532696	-0.348233	-0.344722
C26	C	0.450711	-0.348239	-0.344729
C27	C	0.445619	-0.455012	-0.450046
C28	C	0.527599	-0.455007	-0.450038
C29	C	0.571134	-0.401615	-0.397373
C30	C	1.104756	-0.618211	-0.407662
C31	C	1.100367	-0.710877	-0.412096
C32	C	1.092358	-0.880539	-0.420209
C33	C	1.138148	-0.921827	-0.374519
C34	C	1.133692	-1.016233	-0.379032
C35	C	1.096813	-0.786125	-0.415696
C36	C	1.319926	-0.401619	-0.397380
C37	C	1.407176	-0.401626	-0.397390
C38	C	1.115225	-0.401539	-0.602099
C39	C	1.115243	-0.401511	-0.689347
C40	C	1.125672	-0.184149	-0.387030
C41	C	1.130142	-0.091483	-0.382629
C42	C	1.067625	-0.348179	-0.727798
C43	C	1.067639	-0.348160	-0.809778
C44	C	1.115275	-0.401470	-0.853305
C45	C	1.162895	-0.454808	-0.814848
C46	C	1.162877	-0.454831	-0.732870
C47	C	1.162932	-0.454756	-0.985716
C48	C	1.162951	-0.454733	-1.067699
C49	C	1.067694	-0.348085	-1.062623
C50	C	1.067675	-0.348108	-0.980646
C51	C	1.115297	-0.401445	-0.942195
C52	C	1.115188	-0.401607	-0.193410
C53	C	1.115333	-0.401400	-0.106150
H54	H	0.663026	-0.498464	-0.492899
H55	H	1.201741	-0.498142	-1.103137
C56	C	1.195624	-0.873808	-0.317090
H57	H	1.223770	-0.912130	-0.289018
H58	H	1.167183	-0.839895	-0.281273
H59	H	1.231387	-0.839782	-0.345555
H60	H	1.049813	-0.916089	-0.462712
H61	H	1.028839	-0.304762	-0.692364
C62	C	1.015308	-0.289415	-1.104912
H63	H	0.986944	-0.257661	-1.067248
H64	H	0.979572	-0.321291	-1.138401
H65	H	1.047103	-0.253083	-1.135170
H66	H	1.028861	-0.304734	-0.841081
H67	H	1.028889	-0.304694	-0.945208
H68	H	1.201677	-0.498218	-0.850294
C69	C	1.215312	-0.513428	-0.943421
H70	H	1.243691	-0.545169	-0.981083
H71	H	1.183526	-0.549759	-0.913162
H72	H	1.251049	-0.481543	-0.909932
C73	C	1.215256	-0.513497	-0.690574
H74	H	1.243634	-0.545239	-0.728236
H75	H	1.183467	-0.549827	-0.660316
H76	H	1.250994	-0.481614	-0.657083
H77	H	0.811745	-0.498461	-0.492879
C78	C	0.397734	-0.513738	-0.507980
H79	H	0.343405	-0.506090	-0.500453
H80	H	0.408469	-0.569737	-0.499068
H81	H	0.411778	-0.501602	-0.560165
C82	C	0.408423	-0.289513	-0.286820
H83	H	0.446092	-0.257704	-0.255463
H84	H	0.374896	-0.321355	-0.254084
H85	H	0.378203	-0.253234	-0.315195
C86	C	0.569886	-0.513724	-0.507955
H87	H	0.532219	-0.545518	-0.539326
H88	H	0.600111	-0.550005	-0.479594
H89	H	0.603410	-0.481867	-0.540689
H90	H	0.672259	-0.304748	-0.301835
C91	C	0.580583	-0.289499	-0.286795
H92	H	0.545947	-0.257713	-0.255433
H93	H	0.614320	-0.253213	-0.315151
H94	H	0.611017	-0.321347	-0.254052
C95	C	0.833438	-0.289487	-0.286769
H96	H	0.887767	-0.297122	-0.294310
H97	H	0.819400	-0.301614	-0.234585
H98	H	0.822700	-0.233486	-0.295689
