data_functionalizedCrystal
_audit_creation_method	'MofGen! by Chris Wilmer'
_symmetry_space_group_name_H-M	'P1'
_symmetry_Int_Tables_number	1
_symmetry_cell_setting	triclinic
loop_
_symmetry_equiv_pos_as_xyz
  x,y,z
_cell_length_a	19.805407
_cell_length_b	14.908520
_cell_length_c	19.805399
_cell_angle_alpha	93.270609
_cell_angle_beta	89.980427
_cell_angle_gamma	93.320773
loop_
_atom_site_label
_atom_site_type_symbol
_atom_site_fract_x
_atom_site_fract_y
_atom_site_fract_z
Zn1	Zn	1.019204	-0.359181	-0.398269
Zn2	Zn	1.352537	-0.025848	-0.064936
Zn3	Zn	1.685870	0.307486	0.268397
Zn4	Zn	1.012594	-0.510047	-0.291612
Zn5	Zn	1.345928	-0.176714	0.041721
Zn6	Zn	1.679261	0.156620	0.375054
Zn7	Zn	0.906017	-0.359206	-0.285095
Zn8	Zn	1.239350	-0.025873	0.048238
Zn9	Zn	1.572684	0.307461	0.381572
Zn10	Zn	0.899460	-0.509999	-0.404757
Zn11	Zn	1.232793	-0.176666	-0.071424
Zn12	Zn	1.566127	0.156668	0.261910
O13	O	0.959319	-0.434608	-0.344934
O14	O	1.292652	-0.101275	-0.011600
O15	O	1.625985	0.232058	0.321733
O16	O	1.113043	-0.379203	-0.384134
O17	O	1.446376	-0.045870	-0.050800
O18	O	1.779710	0.287463	0.282533
O19	O	0.998435	-0.490068	-0.196033
O20	O	1.331768	-0.156735	0.137301
O21	O	1.665102	0.176599	0.470634
O22	O	0.926542	-0.232958	-0.294665
O23	O	1.259875	0.100376	0.038668
O24	O	1.593208	0.433709	0.372001
O25	O	1.108187	-0.490044	-0.305773
O26	O	1.441521	-0.156710	0.027560
O27	O	1.774854	0.176623	0.360894
O28	O	1.009699	-0.232939	-0.377814
O29	O	1.343033	0.100394	-0.044481
O30	O	1.676366	0.433727	0.288853
O31	O	0.920133	-0.379246	-0.191244
O32	O	1.253466	-0.045913	0.142089
O33	O	1.586800	0.287421	0.475422
O34	O	0.810431	-0.379199	-0.300956
O35	O	1.143764	-0.045866	0.032377
O36	O	1.477098	0.287467	0.365711
O37	O	0.915366	-0.489962	-0.498612
O38	O	1.248699	-0.156629	-0.165278
O39	O	1.582032	0.176705	0.168055
O40	O	0.805614	-0.489986	-0.388871
O41	O	1.138947	-0.156653	-0.055538
O42	O	1.472280	0.176680	0.277795
O43	O	1.003341	-0.379157	-0.493845
O44	O	1.336674	-0.045824	-0.160512
O45	O	1.670008	0.287510	0.172821
O46	O	0.992077	-0.636286	-0.312064
O47	O	1.325410	-0.302952	0.021269
O48	O	1.658743	0.030381	0.354603
O49	O	0.908957	-0.636250	-0.395191
O50	O	1.242291	-0.302917	-0.061858
O51	O	1.575624	0.030416	0.271476
C52	C	0.783463	-0.434591	-0.344911
C53	C	1.116797	-0.101258	-0.011578
C54	C	1.450130	0.232076	0.321756
C55	C	0.708231	-0.434605	-0.344918
C56	C	1.041564	-0.101272	-0.011585
C57	C	1.374898	0.232061	0.321748
C58	C	0.949107	-0.669002	-0.355053
C59	C	1.282440	-0.335669	-0.021720
C60	C	1.615773	-0.002335	0.311613
C61	C	0.944800	-0.769277	-0.359405
C62	C	1.278133	-0.435943	-0.026072
C63	C	1.611466	-0.102610	0.307261
C64	C	0.670392	-0.492379	-0.390629
C65	C	1.003725	-0.159046	-0.057296
C66	C	1.337059	0.174288	0.276037
C67	C	0.599704	-0.492380	-0.390639
C68	C	0.933037	-0.159047	-0.057306
C69	C	1.266370	0.174286	0.276028
C70	C	0.566855	-0.434612	-0.344934
C71	C	0.900188	-0.101279	-0.011600
C72	C	1.233522	0.232054	0.321733
C73	C	0.604699	-0.376832	-0.299220
C74	C	0.938032	-0.043499	0.034113
C75	C	1.271366	0.289834	0.367446
C76	C	0.675386	-0.376827	-0.299214
C77	C	1.008720	-0.043494	0.034119
C78	C	1.342053	0.289840	0.367452
C79	C	0.319625	-0.376852	-0.299244
C80	C	0.652958	-0.043519	0.034090
C81	C	0.986291	0.289814	0.367423
C82	C	0.248932	-0.376864	-0.299252
C83	C	0.582265	-0.043531	0.034082
C84	C	0.915599	0.289803	0.367415
C85	C	0.243942	-0.492406	-0.390668
C86	C	0.577275	-0.159073	-0.057335
C87	C	0.910609	0.174261	0.275999
C88	C	0.314629	-0.492400	-0.390662
C89	C	0.647963	-0.159067	-0.057329
C90	C	0.981296	0.174266	0.276004
C91	C	0.352467	-0.434618	-0.344952
C92	C	0.685801	-0.101284	-0.011618
C93	C	1.019134	0.232049	0.321715
C94	C	0.429116	-0.434615	-0.344943
C95	C	0.762449	-0.101282	-0.011609
C96	C	1.095783	0.232051	0.321724
C97	C	0.490208	-0.434618	-0.344939
C98	C	0.823541	-0.101285	-0.011606
C99	C	1.156874	0.232048	0.321728
C100	C	1.023348	-0.957679	-0.281093
C101	C	1.356681	-0.624346	0.052240
C102	C	1.690015	-0.291012	0.385574
C103	C	1.019304	-1.051896	-0.285180
C104	C	1.352637	-0.718563	0.048153
C105	C	1.685970	-0.385229	0.381487
C106	C	0.932671	-1.051929	-0.371669
C107	C	1.266004	-0.718596	-0.038336
C108	C	1.599337	-0.385263	0.294998
C109	C	0.936715	-0.957712	-0.367582
C110	C	1.270048	-0.624379	-0.034249
C111	C	1.603382	-0.291046	0.299084
C112	C	0.982055	-0.910590	-0.322292
C113	C	1.315388	-0.577257	0.011041
C114	C	1.648721	-0.243924	0.344375
C115	C	0.986095	-0.816372	-0.318202
C116	C	1.319428	-0.483038	0.015131
C117	C	1.652762	-0.149705	0.348465
C118	C	0.899466	-0.816407	-0.404694
C119	C	1.232799	-0.483073	-0.071361
C120	C	1.566132	-0.149740	0.261972
C121	C	0.895421	-0.910624	-0.408781
C122	C	1.228755	-0.577290	-0.075448
C123	C	1.562088	-0.243957	0.257886
C124	C	1.135861	-0.434626	-0.344957
C125	C	1.469194	-0.101293	-0.011623
C126	C	1.802527	0.232040	0.321710
C127	C	1.211092	-0.434634	-0.344967
C128	C	1.544426	-0.101301	-0.011633
C129	C	1.877759	0.232033	0.321700
C130	C	0.959359	-0.434551	-0.521474
C131	C	1.292693	-0.101218	-0.188141
C132	C	1.626026	0.232115	0.145193
C133	C	0.959376	-0.434527	-0.596705
C134	C	1.292710	-0.101194	-0.263371
C135	C	1.626043	0.232139	0.069962
C136	C	0.969589	-0.199299	-0.334789
C137	C	1.302922	0.134034	-0.001456
C138	C	1.636256	0.467368	0.331878
C139	C	0.973966	-0.099024	-0.330466
C140	C	1.307299	0.234309	0.002868
C141	C	1.640632	0.567642	0.336201
C142	C	1.005186	-0.376828	-0.629568
C143	C	1.338519	-0.043495	-0.296235
C144	C	1.671853	0.289839	0.037099
C145	C	1.005194	-0.376802	-0.700255
C146	C	1.338528	-0.043469	-0.366922
C147	C	1.671861	0.289865	-0.033589
C148	C	0.959395	-0.434480	-0.738078
C149	C	1.292729	-0.101147	-0.404745
C150	C	1.626062	0.232187	-0.071412
C151	C	0.913581	-0.492182	-0.705210
C152	C	1.246914	-0.158848	-0.371877
C153	C	1.580247	0.174485	-0.038544
C154	C	0.913570	-0.492203	-0.634524
C155	C	1.246903	-0.158869	-0.301191
C156	C	1.580237	0.174464	0.032143
C157	C	0.913622	-0.492098	-0.990280
C158	C	1.246956	-0.158764	-0.656947
C159	C	1.580289	0.174569	-0.323614
C160	C	0.913638	-0.492074	-1.060971
C161	C	1.246971	-0.158741	-0.727638
C162	C	1.580305	0.174593	-0.394305
C163	C	1.005247	-0.376697	-1.056011
C164	C	1.338580	-0.043363	-0.722678
C165	C	1.671914	0.289970	-0.389345
C166	C	1.005236	-0.376718	-0.985325
C167	C	1.338569	-0.043384	-0.651992
C168	C	1.671903	0.289949	-0.318659
C169	C	0.959419	-0.434416	-0.952463
C170	C	1.292753	-0.101082	-0.619130
C171	C	1.626086	0.232251	-0.285796
C172	C	0.959410	-0.434442	-0.875816
C173	C	1.292744	-0.101109	-0.542482
C174	C	1.626077	0.232225	-0.209149
C175	C	0.959407	-0.434459	-0.814725
C176	C	1.292740	-0.101125	-0.481391
C177	C	1.626074	0.232208	-0.148058
C178	C	0.959320	-0.434600	-0.169077
C179	C	1.292654	-0.101266	0.164256
C180	C	1.625987	0.232067	0.497590
C181	C	0.959445	-0.434370	-0.093836
C182	C	1.292779	-0.101036	0.239498
C183	C	1.626112	0.232297	0.572831
H184	H	0.697132	-0.539423	-0.427846
H185	H	1.030465	-0.206090	-0.094513
H186	H	1.363799	0.127243	0.238821
H187	H	0.568898	-0.539426	-0.427861
H188	H	0.902232	-0.206093	-0.094528
H189	H	1.235565	0.127240	0.238806
Br190	Br	0.370968	-0.298428	-0.237211
Br191	Br	0.704301	0.034906	0.096122
Br192	Br	1.037634	0.368239	0.429455
Br193	Br	0.871155	-1.115896	-0.433141
Br194	Br	1.204488	-0.782562	-0.099807
Br195	Br	1.537821	-0.449229	0.233526
Br196	Br	0.560120	-0.298423	-0.237197
Br197	Br	0.893453	0.034910	0.096137
Br198	Br	1.226787	0.368244	0.429470
Br199	Br	0.851393	-0.570506	-0.589923
Br200	Br	1.184726	-0.237173	-0.256590
Br201	Br	1.518060	0.096161	0.076744
Br202	Br	1.047622	-0.752421	-0.256734
Br203	Br	1.380955	-0.419088	0.076600
Br204	Br	1.714289	-0.085754	0.409933
H205	H	0.858509	-0.949003	-0.445657
H206	H	1.191842	-0.615670	-0.112323
H207	H	1.525176	-0.282337	0.221010
Br208	Br	0.843409	-0.752496	-0.460599
Br209	Br	1.176742	-0.419163	-0.127265
Br210	Br	1.510076	-0.085830	0.206068
H211	H	1.060261	-0.919312	-0.244211
H212	H	1.393594	-0.585978	0.089122
H213	H	1.726927	-0.252645	0.422455
H214	H	1.052931	-1.090232	-0.251633
H215	H	1.386264	-0.756899	0.081700
H216	H	1.719597	-0.423565	0.415034
H217	H	0.876288	-0.539141	-0.736011
H218	H	1.209621	-0.205808	-0.402678
H219	H	1.542955	0.127526	-0.069345
H220	H	1.042483	-0.329862	-0.598777
H221	H	1.375816	0.003471	-0.265444
H222	H	1.709150	0.336804	0.067889
H223	H	0.706194	-0.329777	-0.261995
H224	H	1.039528	0.003556	0.071338
H225	H	1.372861	0.336890	0.404672
Br226	Br	1.067397	-0.298534	-0.744855
Br227	Br	1.400730	0.034799	-0.411521
Br228	Br	1.734064	0.368132	-0.078188
Br229	Br	1.067397	-0.298443	-0.933997
Br230	Br	1.400731	0.034891	-0.600664
Br231	Br	1.734064	0.368224	-0.267331
H232	H	0.213126	-0.539452	-0.427890
H233	H	0.546459	-0.206119	-0.094557
H234	H	0.879793	0.127215	0.238776
Br235	Br	1.067427	-0.298389	-1.100613
Br236	Br	1.400761	0.034944	-0.767280
Br237	Br	1.734094	0.368277	-0.433947
H238	H	0.341371	-0.539444	-0.427878
H239	H	0.674704	-0.206111	-0.094545
H240	H	1.008038	0.127222	0.238789
H241	H	0.222189	-0.329817	-0.262033
H242	H	0.555523	0.003517	0.071301
H243	H	0.888856	0.336850	0.404634
Br244	Br	0.851479	-0.570358	-1.112303
Br245	Br	1.184812	-0.237025	-0.778970
Br246	Br	1.518146	0.096308	-0.445636
H247	H	0.876325	-0.539092	-0.963533
H248	H	1.209658	-0.205759	-0.630200
H249	H	1.542992	0.127575	-0.296866
