data_functionalizedCrystal
_audit_creation_method	'MofGen! by Chris Wilmer'
_symmetry_space_group_name_H-M	'P1'
_symmetry_Int_Tables_number	1
_symmetry_cell_setting	triclinic
loop_
_symmetry_equiv_pos_as_xyz
  x,y,z
_cell_length_a	21.295417
_cell_length_b	11.169417
_cell_length_c	11.169409
_cell_angle_alpha	90.019513
_cell_angle_beta	90.041399
_cell_angle_gamma	90.031756
loop_
_atom_site_label
_atom_site_type_symbol
_atom_site_fract_x
_atom_site_fract_y
_atom_site_fract_z
Zn1	Zn	-0.250537	1.834794	0.678457
Zn2	Zn	-0.355825	1.834613	0.477742
Zn3	Zn	-0.250576	1.634080	0.477793
Zn4	Zn	-0.355775	1.634017	0.678388
O5	O	-0.303178	1.734376	0.578095
O6	O	-0.264509	2.002720	0.651840
O7	O	-0.341901	1.807962	0.309799
O8	O	-0.162482	1.660807	0.504461
O9	O	-0.341864	2.002587	0.504375
O10	O	-0.162453	1.808271	0.651888
O11	O	-0.264575	1.660632	0.309836
O12	O	-0.264526	1.466122	0.504394
O13	O	-0.341777	1.660700	0.846347
O14	O	-0.341815	1.466076	0.651771
O15	O	-0.264460	1.808210	0.846398
O16	O	-0.443908	1.807901	0.504309
O17	O	-0.443871	1.660524	0.651722
C18	C	-0.303170	1.422551	0.578081
C19	C	-0.303182	1.289151	0.578104
C20	C	-0.466730	1.734219	0.578029
C21	C	-0.536698	1.734261	0.578040
C22	C	-0.569563	1.811069	0.501361
C23	C	-0.635306	1.811125	0.501388
C24	C	-0.668181	1.734352	0.578082
C25	C	-0.635308	1.657539	0.654776
C26	C	-0.569566	1.657494	0.654756
N27	N	-0.771447	1.629362	0.587227
N28	N	-0.833898	1.629409	0.587239
C29	C	-0.866255	1.734487	0.578151
N30	N	-0.833802	1.839518	0.569025
N31	N	-0.771345	1.839470	0.569006
C32	C	-0.739466	1.734394	0.578113
C33	C	-0.970406	1.811362	0.501496
C34	C	-1.036150	1.811420	0.501531
C35	C	-1.036150	1.657824	0.654914
C36	C	-0.970408	1.657776	0.654885
C37	C	-0.937540	1.734543	0.578169
C38	C	-0.138988	1.734567	0.578188
C39	C	-0.069020	1.734648	0.578228
C40	C	-0.303109	1.734468	0.891138
C41	C	-0.303079	1.734507	1.024538
C42	C	-0.303187	2.047418	0.578110
C43	C	-0.303191	2.180818	0.578116
C44	C	-0.303203	1.734353	0.266270
C45	C	-0.303055	1.734547	0.132871
H46	H	-0.662070	1.873675	0.438946
O47	O	-0.537565	1.885703	0.427018
C48	C	-0.499482	1.963181	0.495405
H49	H	-0.489613	1.920800	0.586320
H50	H	-0.524770	2.052133	0.508672
C51	C	-0.449176	2.036955	0.317708
C52	C	-0.437050	1.984898	0.429369
H53	H	-0.410666	2.050357	0.276973
H54	H	-0.474835	1.984761	0.271634
H55	H	-0.470251	2.111076	0.328780
H56	H	-0.415982	1.910772	0.418295
H57	H	-0.411386	2.037081	0.475440
H58	H	-0.943644	1.873874	0.439033
O59	O	-1.067980	1.886075	0.426928
C60	C	-1.024868	1.953836	0.359239
H61	H	-0.978032	1.904643	0.355027
H62	H	-1.017809	2.044963	0.403256
C63	C	-1.108104	2.031628	0.236701
C64	C	-1.050581	1.971203	0.231519
H65	H	-1.123965	2.042347	0.157918
H66	H	-1.137150	1.985980	0.282307
H67	H	-1.102214	2.107561	0.273387
H68	H	-1.056473	1.895267	0.194847
H69	H	-1.021537	2.016840	0.185904
H70	H	-0.943647	1.595227	0.717320
O71	O	-0.667309	1.583128	0.729335
C72	C	-0.705257	1.651446	0.806938
H73	H	-0.715082	1.742427	0.764687
H74	H	-0.679875	1.664572	0.895884
C75	C	-0.755659	1.473698	0.880523
C76	C	-0.767731	1.585439	0.828625
H77	H	-0.794195	1.432981	0.893906
H78	H	-0.730091	1.427670	0.828243
H79	H	-0.734506	1.484653	0.954639
H80	H	-0.788876	1.574483	0.754504
H81	H	-0.793304	1.631465	0.880893
O82	O	-0.537736	1.582763	0.729280
C83	C	-0.580845	1.515037	0.797009
H84	H	-0.627734	1.510939	0.747867
H85	H	-0.587770	1.558948	0.888200
C86	C	-0.497652	1.392308	0.874548
C87	C	-0.555240	1.387266	0.814186
H88	H	-0.481857	1.313495	0.885150
H89	H	-0.468607	1.437939	0.828922
H90	H	-0.503430	1.428906	0.950534
H91	H	-0.549460	1.350683	0.738196
H92	H	-0.584283	1.341627	0.859800
O93	O	-1.068174	1.583289	0.729307
C94	C	-1.133248	1.599824	0.712912
H95	H	-1.142252	1.639180	0.620326
H96	H	-1.151836	1.663719	0.784160
C97	C	-1.155996	1.430073	0.837545
C98	C	-1.167056	1.478402	0.723824
H99	H	-1.176851	1.355176	0.844281
H100	H	-1.112155	1.418935	0.848595
H101	H	-1.171486	1.483331	0.896905
H102	H	-1.151558	1.425152	0.664467
H103	H	-1.210895	1.489528	0.712764
