data_functionalizedCrystal
_audit_creation_method	'MofGen! by Chris Wilmer'
_symmetry_space_group_name_H-M	'P1'
_symmetry_Int_Tables_number	1
_symmetry_cell_setting	triclinic
loop_
_symmetry_equiv_pos_as_xyz
  x,y,z
_cell_length_a	16.109302
_cell_length_b	15.186229
_cell_length_c	16.109298
_cell_angle_alpha	89.994886
_cell_angle_beta	83.460985
_cell_angle_gamma	90.007553
loop_
_atom_site_label
_atom_site_type_symbol
_atom_site_fract_x
_atom_site_fract_y
_atom_site_fract_z
O1	O	1.103132	0.073257	0.106865
O2	O	0.861070	0.073249	0.120163
O3	O	0.988752	0.073260	-0.007517
O4	O	0.975450	0.073247	0.234545
O5	O	0.988737	-0.073197	-0.007510
O6	O	0.861055	-0.073208	0.120171
O7	O	1.103117	-0.073200	0.106872
Zn8	Zn	0.982084	-0.096457	0.113522
Zn9	Zn	0.982104	0.096507	0.113513
O10	O	0.975435	-0.073210	0.234552
C11	C	0.830088	0.000020	0.119628
C12	C	0.737793	0.000017	0.118013
N13	N	0.982076	-0.228150	0.113528
C14	C	1.032500	-0.453874	0.163957
C15	C	1.032509	-0.546063	0.163951
C16	C	0.931692	-0.546070	0.063066
C17	C	0.931688	-0.453883	0.063068
C18	C	0.982090	-0.407787	0.113518
C19	C	0.982104	-0.592164	0.113510
C20	C	0.982113	-0.692120	0.113503
C21	C	0.982082	-0.307824	0.113524
C22	C	0.525444	-0.079808	0.114282
C23	C	0.438724	-0.079805	0.112755
C24	C	0.438750	0.079871	0.112751
C25	C	0.525470	0.079867	0.114272
C26	C	0.568813	0.000025	0.115041
C27	C	0.395374	0.000032	0.111994
C28	C	0.301348	0.000036	0.110338
C29	C	0.662845	0.000021	0.116695
C30	C	1.134100	0.000032	0.107407
C31	C	1.226395	0.000040	0.109022
N32	N	0.982118	0.228199	0.113500
C33	C	0.988206	0.000035	-0.038489
C34	C	0.986592	0.000045	-0.130784
C35	C	0.981333	0.079860	-0.429857
C36	C	0.982861	0.079866	-0.343137
C37	C	0.982857	-0.079809	-0.343115
C38	C	0.981335	-0.079815	-0.429834
C39	C	0.980569	0.000023	-0.473202
C40	C	0.983619	0.000034	-0.299763
C41	C	0.985275	0.000041	-0.205737
C42	C	0.978914	0.000017	-0.567234
C43	C	0.975981	0.000017	0.265524
C44	C	0.977595	0.000012	0.357819
H45	H	1.073540	-0.416345	0.205036
C46	C	0.908174	-0.172457	-0.517967
C47	C	0.980480	-0.167582	-0.477479
H48	H	0.907650	-0.226637	-0.547383
H49	H	0.860326	-0.169136	-0.477779
H50	H	0.907519	-0.124910	-0.556209
H51	H	0.981133	-0.215125	-0.439233
H52	H	1.028341	-0.170911	-0.517672
C53	C	0.886875	-0.687390	0.018318
C54	C	0.876282	-0.596740	0.007621
H55	H	0.852660	-0.718667	-0.015908
H56	H	0.943751	-0.702519	0.002910
H57	H	0.871383	-0.702464	0.075206
H58	H	0.891780	-0.581665	-0.049267
H59	H	0.819393	-0.581605	0.023024
C60	C	1.132150	-0.536790	0.263679
C61	C	1.087916	-0.596722	0.219399
H62	H	1.166354	-0.568067	0.297914
H63	H	1.166226	-0.500824	0.225429
H64	H	1.093866	-0.500845	0.297734
H65	H	1.126200	-0.632664	0.185338
H66	H	1.053838	-0.632704	0.257653
H67	H	0.890638	-0.416357	0.021991
H68	H	0.560732	-0.144820	0.114908
C69	C	0.982675	-0.237642	-0.351800
C70	C	0.983672	-0.167564	-0.295439
H71	H	0.983176	-0.291818	-0.322366
H72	H	0.933637	-0.234315	-0.379276
H73	H	1.030546	-0.234324	-0.391975
H74	H	0.935797	-0.170878	-0.255268
H75	H	1.032715	-0.170893	-0.267949
H76	H	0.983485	0.144878	-0.307849
C77	C	0.909423	0.215938	-0.447204
C78	C	0.980485	0.167612	-0.477534
H79	H	0.908901	0.270114	-0.476636
H80	H	0.860731	0.183119	-0.455053
H81	H	0.910454	0.227367	-0.389355
H82	H	0.979451	0.156177	-0.535382
H83	H	1.029190	0.200437	-0.469692
H84	H	0.403449	0.144876	0.112126
H85	H	0.403416	-0.144813	0.112136
C86	C	0.632375	0.172505	0.044552
C87	C	0.573148	0.167627	0.115107
H88	H	0.661806	0.226684	0.045065
H89	H	0.670595	0.124960	0.045229
H90	H	0.604888	0.169193	-0.004489
H91	H	0.600635	0.170932	0.164149
H92	H	0.534923	0.215185	0.114438
