data_functionalizedCrystal
_audit_creation_method	'MofGen! by Chris Wilmer'
_symmetry_space_group_name_H-M	'P1'
_symmetry_Int_Tables_number	1
_symmetry_cell_setting	triclinic
loop_
_symmetry_equiv_pos_as_xyz
  x,y,z
_cell_length_a	15.944551
_cell_length_b	17.038272
_cell_length_c	14.421503
_cell_angle_alpha	90.004327
_cell_angle_beta	89.996859
_cell_angle_gamma	87.305147
loop_
_atom_site_label
_atom_site_type_symbol
_atom_site_fract_x
_atom_site_fract_y
_atom_site_fract_z
O1	O	1.121728	0.100827	-0.077015
O2	O	0.878066	0.113259	-0.077039
O3	O	0.998449	-0.006773	-0.077020
O4	O	1.001345	0.220859	-0.077034
O5	O	0.998429	-0.006755	0.077204
O6	O	0.878046	0.113277	0.077185
O7	O	1.121708	0.100845	0.077208
Cu8	Cu	0.999875	0.107062	0.091278
Cu9	Cu	0.999899	0.107041	-0.091109
O10	O	1.001325	0.220877	0.077189
C11	C	0.846725	0.112752	0.000070
C12	C	0.753369	0.111205	0.000062
C13	C	0.995805	-0.035893	0.000092
C14	C	0.987945	-0.122688	0.000091
C15	C	0.532936	0.033105	0.000085
C16	C	0.474515	0.069363	-0.075958
C17	C	0.582443	0.108405	0.000073
C18	C	0.474519	0.069398	0.076094
C19	C	0.417337	0.105696	0.000088
C20	C	0.525252	0.144684	-0.076033
C21	C	0.525261	0.144709	0.076088
C22	C	0.466862	0.181022	0.000027
C23	C	0.677557	0.109964	0.000063
C24	C	0.322225	0.104143	0.000090
C25	C	1.060103	-0.172781	0.000098
C26	C	1.052713	-0.254334	0.000089
C27	C	0.973165	-0.285792	0.000078
C28	C	0.901002	-0.235693	0.000068
C29	C	0.908393	-0.154142	0.000071
C30	C	0.947056	-0.531558	0.000063
C31	C	0.939671	-0.613115	0.000063
C32	C	1.091383	-0.631751	0.000083
C33	C	1.098766	-0.550197	0.000091
C34	C	1.026603	-0.500105	0.000075
C35	C	0.965610	-0.369152	0.000071
C36	C	1.034159	-0.416747	0.000076
C37	C	1.153049	0.101352	0.000097
C38	C	1.246405	0.102899	0.000100
C39	C	1.003969	0.249997	0.000076
C40	C	1.011829	0.336792	0.000071
N41	N	0.999865	0.107077	0.219560
N42	N	0.999916	0.107021	-0.219390
C43	C	0.944187	0.162555	0.469205
C44	C	1.021171	0.177734	0.531013
C45	C	0.999884	0.107058	0.408721
C46	C	0.922921	0.091897	0.531006
C47	C	0.999895	0.107042	0.591442
C48	C	1.076908	0.122272	0.469169
C49	C	0.978606	0.036405	0.469156
C50	C	1.055642	0.051554	0.530937
C51	C	0.999876	0.107070	0.303460
C52	C	0.999912	0.107030	0.696701
H53	H	0.561807	-0.029389	-0.000006
C54	C	0.881346	0.225058	0.432998
C55	C	0.820436	0.189388	0.379634
C56	C	0.762532	0.246940	0.346274
H57	H	0.909636	0.261456	0.395791
H58	H	0.855083	0.251889	0.483780
H59	H	0.846696	0.162569	0.328859
H60	H	0.792125	0.152995	0.416820
H61	H	0.736269	0.273771	0.397056
H62	H	0.790830	0.283335	0.309071
H63	H	0.721194	0.222746	0.310070
H64	H	0.547656	0.176539	0.140376
C65	C	1.045022	0.257455	0.567200
C66	C	0.986494	0.315343	0.535948
C67	C	1.008426	0.388791	0.569271
H68	H	1.099291	0.268710	0.545139
H69	H	1.045318	0.256759	0.633072
H70	H	0.986207	0.316040	0.470090
H71	H	0.932221	0.304114	0.558007
H72	H	1.008722	0.388095	0.635143
H73	H	1.062695	0.400038	0.547208
H74	H	0.968714	0.428075	0.548079
H75	H	1.111472	-0.295117	0.000097
C76	C	0.829979	-0.099843	-0.000082
C77	C	0.782421	-0.114078	-0.079421
C78	C	0.710174	-0.064081	-0.079592
H79	H	0.845656	-0.046743	-0.000129
H80	H	0.797544	-0.109385	0.053667
H81	H	0.814850	-0.104531	-0.133156
H82	H	0.766723	-0.167169	-0.079390
H83	H	0.677738	-0.073623	-0.025843
H84	H	0.725858	-0.010984	-0.079637
H85	H	0.677893	-0.073738	-0.133418
H86	H	0.857830	0.079082	0.558171
C87	C	0.814709	-0.269996	0.000103
C88	C	0.823678	-0.352137	0.000130
C89	C	0.744202	-0.383762	0.000179
H90	H	0.784689	-0.252893	-0.053666
H91	H	0.784735	-0.252841	0.053903
H92	H	0.853639	-0.369285	-0.053664
H93	H	0.853684	-0.369262	0.053896
H94	H	0.714228	-0.366607	0.053979
H95	H	0.714188	-0.366653	-0.053591
H96	H	0.750277	-0.439497	0.000206
H97	H	0.452149	0.037543	0.140380
C98	C	1.146546	-0.138782	0.000060
C99	C	1.208156	-0.200110	0.000037
C100	C	1.287799	-0.168823	-0.000016
H101	H	1.152699	-0.107364	0.053826
H102	H	1.152631	-0.107382	-0.053743
H103	H	1.202074	-0.231497	0.053834
H104	H	1.202031	-0.231533	-0.053726
H105	H	1.293884	-0.137424	-0.053819
H106	H	1.293942	-0.137406	0.053751
H107	H	1.329610	-0.210429	-0.000041
C108	C	1.163642	0.139549	0.432931
C109	C	1.162601	0.139436	0.335852
C110	C	1.242471	0.155388	0.302435
H111	H	1.203356	0.100409	0.454443
H112	H	1.178807	0.189598	0.454592
H113	H	1.147447	0.089393	0.314199
H114	H	1.122904	0.178576	0.314315
H115	H	1.257636	0.205438	0.324097
H116	H	1.282179	0.116246	0.323954
H117	H	1.241774	0.155321	0.236565
C118	C	1.118656	-0.010940	0.566812
C119	C	1.199079	0.005297	0.535328
C120	C	1.257151	-0.052245	0.568370
H121	H	1.104116	-0.061032	0.544716
H122	H	1.118044	-0.010885	0.632686
H123	H	1.199689	0.005234	0.469467
H124	H	1.213645	0.055379	0.557421
H125	H	1.256539	-0.052190	0.634244
H126	H	1.242603	-0.102333	0.546272
H127	H	1.311726	-0.041232	0.547020
C128	C	1.120599	-0.382747	0.000038
C129	C	1.182218	-0.444067	0.000025
C130	C	1.261855	-0.412769	-0.000020
H131	H	1.126741	-0.351327	0.053805
H132	H	1.126684	-0.351347	-0.053764
H133	H	1.176135	-0.475453	0.053822
H134	H	1.176103	-0.475492	-0.053738
H135	H	1.267940	-0.381369	-0.053822
H136	H	1.267988	-0.381349	0.053748
H137	H	1.303673	-0.454369	-0.000038
C138	C	0.428548	0.264415	0.000160
C139	C	0.379441	0.276209	0.079881
C140	C	0.344140	0.353022	0.080037
H141	H	0.394398	0.272307	-0.053307
H142	H	0.472069	0.300631	-0.000330
H143	H	0.335925	0.240005	0.080363
H144	H	0.413572	0.268334	0.133361
H145	H	0.387661	0.389238	0.079547
H146	H	0.309994	0.360907	0.026567
H147	H	0.310823	0.361037	0.134130
H148	H	1.163543	-0.524590	0.000100
C149	C	0.444507	0.026957	-0.161646
C150	C	0.356709	0.026716	-0.160938
C151	C	0.329041	-0.012333	-0.239863
H152	H	0.467167	-0.025610	-0.161651
H153	H	0.462625	0.053210	-0.215665
H154	H	0.338600	0.000461	-0.106934
H155	H	0.334028	0.079272	-0.160946
H156	H	0.347159	0.013920	-0.293882
H157	H	0.351707	-0.064897	-0.239862
H158	H	0.269468	-0.012496	-0.239398
H159	H	0.960576	-0.023318	0.441965
H160	H	0.547520	0.176502	-0.140391
H161	H	1.150134	-0.672544	0.000093
H162	H	0.874891	-0.638725	0.000069
H163	H	0.888296	-0.490782	0.000051
H164	H	0.900842	-0.394774	0.000065
