data_functionalizedCrystal
_audit_creation_method	'MofGen! by Chris Wilmer'
_symmetry_space_group_name_H-M	'P1'
_symmetry_Int_Tables_number	1
_symmetry_cell_setting	triclinic
loop_
_symmetry_equiv_pos_as_xyz
  x,y,z
_cell_length_a	16.959455
_cell_length_b	18.101397
_cell_length_c	16.959447
_cell_angle_alpha	89.966244
_cell_angle_beta	89.977004
_cell_angle_gamma	90.017485
loop_
_atom_site_label
_atom_site_type_symbol
_atom_site_fract_x
_atom_site_fract_y
_atom_site_fract_z
Zn1	Zn	1.208402	-0.294873	-0.447018
Zn2	Zn	1.708402	0.205127	0.052982
Zn3	Zn	1.208318	-0.418726	-0.314832
Zn4	Zn	1.708318	0.081274	0.185168
Zn5	Zn	1.076225	-0.294897	-0.314841
Zn6	Zn	1.576225	0.205103	0.185159
Zn7	Zn	1.076194	-0.418671	-0.446956
Zn8	Zn	1.576194	0.081329	0.053044
O9	O	1.142285	-0.356792	-0.380912
O10	O	1.642285	0.143208	0.119088
O11	O	1.319002	-0.311316	-0.429505
O12	O	1.819002	0.188684	0.070495
O13	O	1.190773	-0.402333	-0.204222
O14	O	1.690773	0.097667	0.295778
O15	O	1.093806	-0.191261	-0.332405
O16	O	1.593806	0.308739	0.167595
O17	O	1.318940	-0.402310	-0.332388
O18	O	1.818940	0.097690	0.167612
O19	O	1.190916	-0.191243	-0.429514
O20	O	1.690916	0.308757	0.070486
O21	O	1.093724	-0.311356	-0.204229
O22	O	1.593724	0.188644	0.295771
O23	O	0.965610	-0.311302	-0.332345
O24	O	1.465610	0.188698	0.167655
O25	O	1.093755	-0.402216	-0.557575
O26	O	1.593755	0.097784	-0.057575
O27	O	0.965587	-0.402239	-0.429409
O28	O	1.465587	0.097761	0.070591
O29	O	1.190887	-0.311262	-0.557621
O30	O	1.690887	0.188738	-0.057621
O31	O	1.190743	-0.522352	-0.332328
O32	O	1.690743	-0.022352	0.167672
O33	O	1.093673	-0.522311	-0.429400
O34	O	1.593673	-0.022311	0.070600
C35	C	0.936918	-0.356768	-0.380872
C36	C	1.436918	0.143232	0.119128
C37	C	0.849062	-0.356775	-0.380874
C38	C	1.349062	0.143225	0.119126
C39	C	0.477543	-0.404126	-0.330317
C40	C	0.977543	0.095874	0.169683
C41	C	0.477629	-0.309520	-0.431602
C42	C	0.977629	0.190480	0.068398
C43	C	0.560175	-0.309507	-0.431583
C44	C	1.060175	0.190493	0.068417
C45	C	0.601409	-0.356806	-0.380931
C46	C	1.101409	0.143194	0.119069
C47	C	0.560097	-0.404116	-0.330298
C48	C	1.060097	0.095884	0.169702
C49	C	0.601493	-0.262203	-0.482221
C50	C	1.101493	0.237797	0.017779
C51	C	0.684044	-0.262189	-0.482204
C52	C	1.184044	0.237811	0.017796
C53	C	0.725280	-0.309485	-0.431548
C54	C	1.225280	0.190515	0.068452
C55	C	0.683962	-0.356797	-0.380912
C56	C	1.183962	0.143203	0.119088
C57	C	0.725196	-0.404095	-0.330260
C58	C	1.225196	0.095905	0.169740
C59	C	0.683881	-0.451404	-0.279620
C60	C	1.183881	0.048596	0.220380
C61	C	0.601332	-0.451412	-0.279642
C62	C	1.101332	0.048588	0.220358
C63	C	0.807828	-0.309477	-0.431526
C64	C	1.307828	0.190523	0.068474
C65	C	0.807750	-0.404086	-0.330241
C66	C	1.307750	0.095914	0.169759
C67	C	1.142217	-0.549202	-0.380873
C68	C	1.642217	-0.049202	0.119127
C69	C	1.142260	-0.631516	-0.380884
C70	C	1.642260	-0.131516	0.119116
C71	C	1.142361	-0.930607	-0.380956
C72	C	1.642361	-0.430607	0.119044
C73	C	1.203265	-0.899277	-0.319717
C74	C	1.703265	-0.399277	0.180283
C75	C	1.203476	-0.813658	-0.319876
C76	C	1.703476	-0.313658	0.180124
C77	C	1.142311	-0.782225	-0.380919
C78	C	1.642311	-0.282225	0.119081
C79	C	1.164890	-0.813229	-0.464238
C80	C	1.664890	-0.313229	0.035762
C81	C	1.165362	-0.898874	-0.463904
C82	C	1.665362	-0.398874	0.036096
C83	C	1.058716	-0.899113	-0.359596
C84	C	1.558716	-0.399113	0.140404
C85	C	1.059129	-0.813464	-0.357737
C86	C	1.559129	-0.313464	0.142263
C87	C	1.142282	-0.698365	-0.380904
C88	C	1.642282	-0.198365	0.119096
C89	C	1.142393	-1.014467	-0.380977
C90	C	1.642393	-0.514467	0.119023
C91	C	1.348453	-0.356817	-0.380952
C92	C	1.848453	0.143183	0.119048
C93	C	1.436309	-0.356827	-0.380969
C94	C	1.936309	0.143173	0.119031
C95	C	1.142327	-0.356730	-0.587080
C96	C	1.642327	0.143270	-0.087080
C97	C	1.142345	-0.356704	-0.674937
C98	C	1.642345	0.143296	-0.174937
C99	C	1.142374	-0.163630	-0.380968
C100	C	1.642374	0.336370	0.119032
C101	C	1.142412	-0.081316	-0.380991
C102	C	1.642412	0.418684	0.119009
C103	C	1.091886	-0.309258	-1.046423
C104	C	1.591886	0.190742	-0.546423
C105	C	1.192943	-0.403994	-1.046403
C106	C	1.692943	0.096006	-0.546403
C107	C	1.192929	-0.404011	-0.963857
C108	C	1.692929	0.095989	-0.463857
C109	C	1.142393	-0.356652	-0.922590
C110	C	1.642393	0.143348	-0.422590
C111	C	1.091869	-0.309276	-0.963869
C112	C	1.591869	0.190724	-0.463869
C113	C	1.243446	-0.451392	-0.922571
C114	C	1.743446	0.048608	-0.422571
C115	C	1.243434	-0.451411	-0.840020
C116	C	1.743434	0.048589	-0.340020
C117	C	1.192900	-0.404048	-0.798752
C118	C	1.692900	0.095952	-0.298752
C119	C	1.142376	-0.356669	-0.840036
C120	C	1.642376	0.143331	-0.340036
C121	C	1.091839	-0.309310	-0.798770
C122	C	1.591839	0.190690	-0.298770
C123	C	1.041317	-0.261927	-0.840052
C124	C	1.541317	0.238073	-0.340052
C125	C	1.041336	-0.261913	-0.922601
C126	C	1.541336	0.238087	-0.422601
C127	C	1.192882	-0.404063	-0.716204
C128	C	1.692882	0.095937	-0.216204
C129	C	1.091822	-0.309328	-0.716216
C130	C	1.591822	0.190672	-0.216216
C131	C	1.142288	-0.356800	-0.175546
C132	C	1.642288	0.143200	0.324454
C133	C	1.142423	-0.356617	-0.087689
C134	C	1.642423	0.143383	0.412311
H135	H	0.443900	-0.442641	-0.289085
H136	H	0.943900	0.057359	0.210915
H137	H	0.444052	-0.271015	-0.472845
H138	H	0.944052	0.228985	0.027155
F139	F	0.728008	-0.211839	-0.536099
F140	F	1.228008	0.288161	-0.036099
F141	F	0.851795	-0.259134	-0.485420
F142	F	1.351795	0.240866	0.014580
H143	H	1.000203	-0.223337	-0.956221
H144	H	1.500203	0.276663	-0.456221
H145	H	1.284582	-0.489957	-0.956177
H146	H	1.784582	0.010043	-0.456177
H147	H	0.567915	-0.223700	-0.523464
H148	H	1.067915	0.276300	-0.023464
F149	F	0.996624	-0.785507	-0.411765
F150	F	1.496624	-0.285507	0.088235
F151	F	1.108678	-0.786621	-0.525481
F152	F	1.608678	-0.286621	-0.025481
F153	F	1.246719	-0.454399	-1.090324
F154	F	1.746719	0.045601	-0.590324
H155	H	1.225347	-0.791723	-0.482636
H156	H	1.725347	-0.291723	0.017364
H157	H	0.841316	-0.442600	-0.288990
H158	H	1.341316	0.057400	0.211010
F159	F	1.185030	-0.926266	-0.238724
F160	F	1.685030	-0.426266	0.261276
F161	F	0.999403	-0.925597	-0.417893
F162	F	1.499403	-0.425597	0.082107
H163	H	1.050671	-0.270758	-0.682622
H164	H	1.550671	0.229242	-0.182622
F165	F	1.184971	-0.786261	-0.239135
F166	F	1.684971	-0.286261	0.260865
F167	F	1.284461	-0.786806	-0.338352
F168	F	1.784461	-0.286806	0.161648
H169	H	0.717464	-0.489918	-0.238383
H170	H	1.217464	0.010082	0.261617
F171	F	1.038123	-0.258830	-1.090358
F172	F	1.538123	0.241170	-0.590358
H173	H	1.264886	-0.920747	-0.333688
H174	H	1.764886	-0.420747	0.166312
H175	H	0.567686	-0.489928	-0.238413
H176	H	1.067686	0.010072	0.261587
F177	F	1.245277	-0.924914	-0.487551
F178	F	1.745277	-0.424914	0.012449
F179	F	1.109892	-0.925962	-0.525570
F180	F	1.609892	-0.425962	-0.025570
F181	F	0.987534	-0.211526	-0.796124
F182	F	1.487534	0.288474	-0.296124
F183	F	1.031866	-0.927428	-0.281561
F184	F	1.531866	-0.427428	0.218439
F185	F	1.297205	-0.501837	-0.796092
F186	F	1.797205	-0.001837	-0.296092
F187	F	1.036871	-0.786985	-0.277594
F188	F	1.536871	-0.286985	0.222406
H189	H	1.234021	-0.442636	-0.682595
H190	H	1.734021	0.057364	-0.182595
