data_functionalizedCrystal
_audit_creation_method	'MofGen! by Chris Wilmer'
_symmetry_space_group_name_H-M	'P1'
_symmetry_Int_Tables_number	1
_symmetry_cell_setting	triclinic
loop_
_symmetry_equiv_pos_as_xyz
  x,y,z
_cell_length_a	27.440280
_cell_length_b	27.440279
_cell_length_c	17.052832
_cell_angle_alpha	53.485694
_cell_angle_beta	77.679800
_cell_angle_gamma	60.007051
loop_
_atom_site_label
_atom_site_type_symbol
_atom_site_fract_x
_atom_site_fract_y
_atom_site_fract_z
Zr1	Zr	0.483617	0.533233	-0.105171
O2	O	0.422817	0.634880	-0.233294
O3	O	0.502235	0.431590	-0.065919
O4	O	0.524462	0.533229	-0.233336
O5	O	0.383081	0.533242	0.066214
O6	O	0.604664	0.533221	-0.233341
O7	O	0.400590	0.533240	-0.065877
O8	O	0.564906	0.351407	0.066138
O9	O	0.422840	0.715055	-0.233265
O10	O	0.570055	0.473390	-0.049152
O11	O	0.497134	0.473396	0.049429
O12	O	0.523302	0.593063	-0.147683
O13	O	0.450381	0.593070	-0.049102
Zr14	Zr	0.583606	0.533222	0.105491
Zr15	Zr	0.611531	0.533220	-0.105178
Zr16	Zr	0.455692	0.533234	0.105499
Zr17	Zr	0.483654	0.661104	-0.105124
Zr18	Zr	0.583569	0.405351	0.105445
O19	O	0.564988	0.634864	0.066240
O20	O	0.604694	0.634862	-0.233305
O21	O	0.383110	0.634882	0.066251
O22	O	0.644407	0.431575	0.233614
O23	O	0.684113	0.431572	-0.065930
O24	O	0.462529	0.431593	0.233625
O25	O	0.684142	0.533213	-0.065894
O26	O	0.542761	0.533225	0.233657
O27	O	0.462559	0.533233	0.233662
O28	O	0.666633	0.533214	0.066197
O29	O	0.524514	0.715045	-0.233271
O30	O	0.542709	0.351409	0.233591
O31	O	0.644383	0.351399	0.233585
O32	O	0.666580	0.351398	0.066131
O33	O	0.400643	0.715057	-0.065811
O34	O	0.502317	0.715047	-0.065817
O35	O	0.543921	0.473391	0.148003
O36	O	0.616842	0.473385	0.049422
O37	O	0.570089	0.593058	-0.049109
O38	O	0.497168	0.593065	0.049472
C39	C	0.533565	0.373280	0.000103
C40	C	0.533550	0.318995	0.000083
C41	C	0.495539	0.084240	0.051625
C42	C	0.495529	0.135270	0.051612
O43	O	0.463166	0.161649	0.095394
N44	N	0.533586	0.160792	0.000141
C45	C	0.571660	0.135276	-0.051312
O46	O	0.604031	0.161669	-0.095093
C47	C	0.571673	0.084243	-0.051293
C48	C	0.533609	0.058729	0.000173
C49	C	0.457479	0.058726	0.103088
C50	C	0.457488	0.007700	0.103099
C51	C	0.495558	-0.017811	0.051647
C52	C	0.533618	0.007703	0.000184
C53	C	0.609749	0.058724	-0.102740
C54	C	0.609758	0.007688	-0.102716
C55	C	0.571694	-0.017826	-0.051249
C56	C	0.571697	-0.068834	-0.051256
N57	N	0.533640	-0.094355	0.000215
C58	C	0.495570	-0.068844	0.051667
C59	C	0.571632	0.242447	-0.051348
C60	C	0.571618	0.293482	-0.051373
C61	C	0.495487	0.293472	0.051553
C62	C	0.495499	0.242440	0.051572
C63	C	0.533575	0.216925	0.000123
C64	C	0.495592	-0.176001	0.051686
C65	C	0.495604	-0.227030	0.051689
C66	C	0.571736	-0.227018	-0.051232
C67	C	0.571723	-0.175992	-0.051240
C68	C	0.533649	-0.150486	0.000226
O69	O	0.604045	-0.095247	-0.095013
O70	O	0.463210	-0.095250	0.095450
C71	C	0.373611	0.533243	0.000170
C72	C	0.319308	0.533248	0.000173
C73	C	-0.007742	0.533211	-0.072611
C74	C	-0.058760	0.533206	-0.072612
O75	O	-0.076934	0.533180	-0.134479
N76	N	-0.093923	0.533208	0.000157
C77	C	-0.078064	0.533208	0.072937
O78	O	-0.112658	0.533208	0.134832
C79	C	-0.027046	0.533208	0.072940
C80	C	0.008113	0.533213	0.000161
C81	C	0.027417	0.533216	-0.145384
C82	C	0.078430	0.533222	-0.145384
C83	C	0.094286	0.533224	-0.072611
C84	C	0.059127	0.533219	0.000161
C85	C	-0.011185	0.533203	0.145723
C86	C	0.039838	0.533202	0.145721
C87	C	0.074997	0.533207	0.072942
C88	C	0.125996	0.533227	0.072933
N89	N	0.161160	0.533225	0.000165
C90	C	0.145305	0.533224	-0.072608
C91	C	-0.185206	0.533207	0.072924
C92	C	-0.236227	0.533212	0.072917
C93	C	-0.216918	0.533209	-0.072630
C94	C	-0.165899	0.533209	-0.072627
C95	C	-0.150043	0.533205	0.000156
C96	C	0.252436	0.533237	-0.072603
C97	C	0.303453	0.533246	-0.072599
C98	C	0.284141	0.533246	0.072951
C99	C	0.233128	0.533240	0.072944
C100	C	0.217278	0.533234	0.000163
O101	O	0.144208	0.533251	0.134771
O102	O	0.179907	0.533214	-0.134486
C103	C	0.693612	0.533212	0.000151
C104	C	0.747915	0.533206	0.000147
C105	C	0.568542	0.533225	-0.263355
C106	C	0.580397	0.533224	-0.352789
C107	C	0.533658	0.693175	0.000218
C108	C	0.533673	0.747459	0.000237
C109	C	0.437071	0.533233	-0.604871
C110	C	0.425933	0.533229	-0.520839
C111	C	0.464548	0.533228	-0.478823
C112	C	0.514303	0.533230	-0.520846
C113	C	0.525443	0.533229	-0.604882
C114	C	0.552921	0.533224	-0.478833
C115	C	0.602675	0.533226	-0.520857
C116	C	0.613814	0.533225	-0.604884
C117	C	0.575199	0.533226	-0.646901
C118	C	0.541780	0.533226	-0.394798
C119	C	0.630152	0.533221	-0.394808
C120	C	0.641290	0.533225	-0.478840
C121	C	0.498681	0.533229	0.263675
C122	C	0.486826	0.533230	0.353110
C123	C	0.693566	0.373264	0.000093
C124	C	0.747853	0.318974	0.000070
C125	C	0.498635	0.373282	0.263617
C126	C	0.486764	0.318998	0.353032
C127	C	0.658636	0.373266	0.263608
C128	C	0.701068	0.318977	0.353020
C129	C	0.408587	0.693188	-0.263288
C130	C	0.366155	0.747477	-0.352699
C131	C	0.373657	0.693190	0.000227
C132	C	0.319370	0.747480	0.000250
C133	C	0.568588	0.693172	-0.263297
C134	C	0.580459	0.747456	-0.352712
C135	C	0.748926	0.293482	-0.051404
C136	C	0.799932	0.242478	-0.051445
C137	C	0.849864	0.216964	-0.000006
C138	C	0.848791	0.242461	0.051470
C139	C	0.797786	0.293468	0.051505
C140	C	0.505611	0.293503	0.446486
C141	C	0.494454	0.242505	0.530509
C142	C	0.464454	0.216999	0.521076
C143	C	0.445604	0.242499	0.427613
C144	C	0.456758	0.293500	0.343592
C145	C	0.759064	0.293479	0.343550
C146	C	0.798940	0.242476	0.427554
C147	C	0.780818	0.216968	0.521026
C148	C	0.722816	0.242471	0.530494
C149	C	0.682942	0.293477	0.446491
C150	C	0.308159	0.772982	-0.343230
C151	C	0.268283	0.824001	-0.427233
C152	C	0.286405	0.849511	-0.520706
C153	C	0.344407	0.824005	-0.530174
C154	C	0.384281	0.772990	-0.446171
C155	C	0.318299	0.772978	0.051716
C156	C	0.267295	0.823996	0.051734
C157	C	0.217363	0.849512	0.000291
C158	C	0.218437	0.824012	-0.051181
C159	C	0.269440	0.772998	-0.051204
C160	C	0.610461	0.772946	-0.343248
C161	C	0.621625	0.823945	-0.427255
C162	C	0.602783	0.849456	-0.520725
C163	C	0.572780	0.823961	-0.530187
C164	C	0.561619	0.772960	-0.446181
H165	H	0.602731	-0.247795	-0.093127
H166	H	0.501269	0.533224	-0.360590
H167	H	0.625806	0.752183	-0.267147
C168	C	-0.274309	0.533180	0.152041
C169	C	-0.249490	0.533166	0.215780
C170	C	-0.284548	0.533123	0.288694
H171	H	-0.310241	0.573130	0.122291
H172	H	-0.278984	0.493198	0.188031
H173	H	-0.244822	0.573144	0.179795
H174	H	-0.213561	0.493219	0.245554
H175	H	-0.289223	0.493141	0.324683
H176	H	-0.320479	0.573074	0.258934
H177	H	-0.267711	0.533108	0.331954
C178	C	0.416201	0.086486	0.158929
C179	C	0.424333	0.136632	0.147928
C180	C	0.386317	0.162214	0.199361
H181	H	0.378453	0.106413	0.133580
H182	H	0.422653	0.049893	0.226642
H183	H	0.417877	0.173218	0.080229
H184	H	0.462073	0.116721	0.173282
H185	H	0.392769	0.125621	0.267074
H186	H	0.348572	0.182137	0.174007
H187	H	0.391833	0.196236	0.191911
H188	H	0.611874	0.890985	-0.589120
H189	H	0.221058	0.844760	-0.419505
H190	H	0.708069	0.221695	0.606611
H191	H	0.602636	0.221679	-0.093252
H192	H	-0.229835	0.533206	-0.131884
H193	H	0.530039	0.314265	0.454186
C194	C	0.514999	0.214885	0.631889
C195	C	0.543678	0.248122	0.622156
C196	C	0.562619	0.222691	0.715522
H197	H	0.483455	0.223243	0.666904
H198	H	0.539949	0.166726	0.666808
H199	H	0.518730	0.296269	0.587252
H200	H	0.575230	0.239767	0.587158
H201	H	0.587569	0.174532	0.750441
H202	H	0.531072	0.231050	0.750529
H203	H	0.582085	0.245233	0.708931
H204	H	0.455375	0.175471	0.589499
H205	H	0.441411	0.314251	0.267501
H206	H	0.800795	0.221724	-0.093363
H207	H	0.358950	0.752207	0.093613
H208	H	0.635719	0.314231	0.454215
C209	C	0.695376	0.533109	-0.524274
C210	C	0.742358	0.474156	-0.455285
C211	C	0.792191	0.474028	-0.497098
H212	H	0.696561	0.533072	-0.580317
H213	H	0.696129	0.573050	-0.543377
H214	H	0.741605	0.434225	-0.436195
H215	H	0.741191	0.474180	-0.399238
H216	H	0.792944	0.513968	-0.516201
H217	H	0.793370	0.473992	-0.553141
H218	H	0.824073	0.434032	-0.450293
H219	H	0.813292	0.175436	0.589419
H220	H	0.537187	0.752212	-0.453901
C221	C	0.416243	-0.020120	0.159067
C222	C	0.446591	-0.091090	0.230752
C223	C	0.408608	-0.116731	0.282324
H224	H	0.393563	0.002319	0.189780
H225	H	0.392576	-0.011820	0.114707
H226	H	0.470248	-0.099385	0.275106
H227	H	0.469268	-0.113547	0.200066
H228	H	0.384941	-0.108431	0.237964
H229	H	0.385931	-0.094288	0.313031
H230	H	0.429194	-0.164888	0.330962
C231	C	0.266248	0.851556	0.107729
C232	C	0.320890	0.818268	0.152804
C233	C	0.319948	0.843629	0.204406
H234	H	0.253588	0.899705	0.063435
H235	H	0.241208	0.843180	0.156469
H236	H	0.345922	0.826650	0.104070
H237	H	0.333561	0.770120	0.197113
H238	H	0.294907	0.835253	0.253146
H239	H	0.307285	0.891778	0.160106
H240	H	0.357020	0.821043	0.235003
H241	H	0.405637	0.533229	-0.639082
H242	H	0.889453	0.221680	0.093350
H243	H	0.175837	0.891051	0.000318
H244	H	0.773830	0.314240	0.267447
C245	C	0.454127	0.321310	0.107256
C246	C	0.419321	0.392282	0.041593
C247	C	0.381220	0.417953	0.092869
H248	H	0.431405	0.298888	0.137921
H249	H	0.474617	0.313014	0.155909
H250	H	0.398833	0.400573	-0.007042
H251	H	0.442027	0.414722	0.010925
H252	H	0.401710	0.409656	0.141521
H253	H	0.358502	0.395525	0.123532
H254	H	0.357604	0.466110	0.048326
C255	C	-0.049363	0.533087	0.224773
C256	C	-0.056188	0.474134	0.277552
C257	C	-0.091359	0.474008	0.350376
H258	H	-0.032657	0.533050	0.268208
H259	H	-0.085304	0.573028	0.194929
H260	H	-0.020253	0.434203	0.307396
H261	H	-0.072900	0.474159	0.234144
H262	H	-0.127300	0.513950	0.320531
H263	H	-0.074650	0.473973	0.393803
H264	H	-0.095999	0.434013	0.386189
C265	C	0.905177	0.161555	-0.000120
C266	C	0.895418	0.144682	-0.056189
C267	C	0.946354	0.093634	-0.056306
H268	H	0.931960	0.178196	-0.027692
H269	H	0.919560	0.121725	0.065413
H270	H	0.881043	0.184504	-0.121709
H271	H	0.868644	0.128029	-0.028631
H272	H	0.960738	0.053804	0.009227
H273	H	0.973134	0.110280	-0.083877
H274	H	0.939739	0.082175	-0.094341
H275	H	0.421177	0.221724	0.419947
C276	C	0.861885	0.214852	0.417055
C277	C	0.869214	0.248091	0.317215
C278	C	0.927189	0.222656	0.307503
H279	H	0.879095	0.223205	0.447605
H280	H	0.879028	0.166694	0.447632
H281	H	0.852078	0.296237	0.286650
H282	H	0.852017	0.239741	0.286644
H283	H	0.944333	0.174499	0.338080
H284	H	0.944395	0.231011	0.338058
H285	H	0.932170	0.245201	0.239762
H286	H	0.293393	0.752214	-0.267127
H287	H	0.253931	0.891050	-0.589098
C288	C	0.447224	0.745359	-0.456666
C289	C	0.454552	0.778609	-0.556507
C290	C	0.512527	0.753170	-0.566221
H291	H	0.464440	0.753699	-0.426104
H292	H	0.464363	0.697204	-0.426103
H293	H	0.437421	0.826753	-0.587058
H294	H	0.437349	0.770272	-0.587090
H295	H	0.529666	0.705015	-0.535658
H296	H	0.529738	0.761512	-0.535654
H297	H	0.517507	0.775722	-0.633963
C298	C	0.164261	0.851786	-0.107202
C299	C	0.171028	0.881088	-0.206928
C300	C	0.121128	0.906684	-0.258559
H301	H	0.156357	0.815225	-0.081917
H302	H	0.133723	0.885847	-0.099874
H303	H	0.201556	0.847030	-0.214250
H304	H	0.178923	0.917657	-0.232242
H305	H	0.090591	0.940745	-0.251232
H306	H	0.113229	0.870119	-0.233266
H307	H	0.125711	0.926574	-0.326230
H308	H	0.359156	0.844782	-0.606289
H309	H	0.796919	0.314217	0.093427
C310	C	0.452539	0.533090	-0.387477
C311	C	0.495957	0.474125	-0.311122
C312	C	0.484906	0.473974	-0.226957
H313	H	0.450738	0.573009	-0.401239
H314	H	0.417393	0.533053	-0.368405
H315	H	0.531094	0.474168	-0.330191
H316	H	0.497766	0.434197	-0.297330
H317	H	0.449760	0.473938	-0.207885
H318	H	0.483104	0.513896	-0.240728
H319	H	0.514361	0.433965	-0.175138
C320	C	0.270539	0.745237	-0.106925
C321	C	0.234282	0.715955	-0.069265
C322	C	0.235281	0.690369	-0.120564
H323	H	0.258303	0.781801	-0.174621
H324	H	0.308050	0.711167	-0.099557
H325	H	0.196779	0.750022	-0.076641
H326	H	0.246510	0.679383	-0.001575
H327	H	0.272792	0.656300	-0.113196
H328	H	0.223045	0.726937	-0.188258
H329	H	0.210685	0.670493	-0.095013
C330	C	0.654178	0.851561	-0.416762
C331	C	0.668267	0.818320	-0.316922
C332	C	0.698246	0.843748	-0.307216
H333	H	0.687840	0.843204	-0.447315
H334	H	0.631288	0.899719	-0.447338
H335	H	0.691157	0.770173	-0.286359
H336	H	0.634615	0.826673	-0.286349
H337	H	0.675355	0.891906	-0.337793
H338	H	0.731905	0.835390	-0.337774
H339	H	0.707804	0.821202	-0.239476
C340	C	0.552343	0.851781	-0.631760
C341	C	0.568526	0.901917	-0.703291
C342	C	0.549700	0.927571	-0.796872
H343	H	0.568718	0.815239	-0.639304
H344	H	0.512213	0.871731	-0.639178
H345	H	0.608648	0.881967	-0.695876
H346	H	0.552152	0.938471	-0.695779
H347	H	0.509570	0.947521	-0.804290
H348	H	0.566076	0.891025	-0.804406
H349	H	0.560673	0.961595	-0.845417
H350	H	0.464588	-0.155240	0.093592
C351	C	0.454350	-0.254818	0.107766
C352	C	0.463989	-0.284097	0.207476
C353	C	0.426008	-0.309715	0.259170
H354	H	0.416593	-0.218271	0.082501
H355	H	0.459813	-0.288895	0.100473
H356	H	0.458521	-0.250024	0.214763
H357	H	0.501739	-0.320653	0.232770
H358	H	0.431471	-0.343792	0.251877
H359	H	0.388254	-0.273164	0.233896
H360	H	0.432546	-0.329590	0.326829
H361	H	0.297057	0.533250	0.132199
C362	C	0.613003	0.321072	-0.107279
C363	C	0.646351	0.287791	-0.152312
C364	C	0.684491	0.313177	-0.203807
H365	H	0.592563	0.369220	-0.156036
H366	H	0.636704	0.312710	-0.062896
H367	H	0.622654	0.296159	-0.196692
H368	H	0.666805	0.239645	-0.103578
H369	H	0.708191	0.304814	-0.159424
H370	H	0.664045	0.361324	-0.252559
H371	H	0.707125	0.290595	-0.234361
H372	H	0.464504	0.221669	0.093480
H373	H	0.204496	0.533246	0.132199
H374	H	0.640744	0.079490	-0.144648
H375	H	0.332078	0.533252	-0.131868
H376	H	0.640765	-0.013085	-0.144610
H377	H	0.107056	0.533223	-0.204644
H378	H	0.708275	0.314255	-0.093304
C379	C	0.612955	-0.148158	-0.107274
C380	C	0.582590	-0.077192	-0.178968
C381	C	0.620557	-0.051539	-0.230608
H382	H	0.636639	-0.156429	-0.062985
H383	H	0.635618	-0.170619	-0.137977
H384	H	0.559937	-0.054737	-0.148266
H385	H	0.558908	-0.068902	-0.223278
H386	H	0.643221	-0.074000	-0.261310
H387	H	0.644240	-0.059815	-0.186311
H388	H	0.599961	-0.003387	-0.279263
C389	C	0.235318	0.533268	-0.151738
C390	C	0.277027	0.533292	-0.215476
C391	C	0.261272	0.533334	-0.288396
H392	H	0.231444	0.493314	-0.121992
H393	H	0.200212	0.573247	-0.187726
H394	H	0.312124	0.493318	-0.179492
H395	H	0.280907	0.573243	-0.245245
H396	H	0.226166	0.573313	-0.324385
H397	H	0.257398	0.493380	-0.258642
H398	H	0.289567	0.533357	-0.331656
C399	C	0.371871	0.533265	-0.475393
C400	C	0.340431	0.533284	-0.530187
C401	C	0.290619	0.533327	-0.488358
H402	H	0.381229	0.493312	-0.409715
H403	H	0.350045	0.573244	-0.475545
H404	H	0.362253	0.493309	-0.530024
H405	H	0.331059	0.573234	-0.595864
H406	H	0.268793	0.573306	-0.488510
H407	H	0.299983	0.493373	-0.422681
H408	H	0.269279	0.533347	-0.525535
C409	C	0.587383	0.533257	-0.738161
C410	C	0.639217	0.533266	-0.765980
C411	C	0.650455	0.533301	-0.850050
H412	H	0.589237	0.493305	-0.724372
H413	H	0.557992	0.573237	-0.790118
H414	H	0.668600	0.493290	-0.714035
H415	H	0.637375	0.573215	-0.779789
H416	H	0.621064	0.573282	-0.902007
H417	H	0.652307	0.493349	-0.836253
H418	H	0.685622	0.533314	-0.868942
C419	C	0.010293	0.533252	-0.224517
C420	C	0.052005	0.533273	-0.288251
C421	C	0.036249	0.533322	-0.361178
H422	H	0.006415	0.493301	-0.194778
H423	H	-0.024811	0.573234	-0.260508
H424	H	0.087099	0.493295	-0.252265
H425	H	0.055889	0.573221	-0.318014
H426	H	0.001145	0.573304	-0.397169
H427	H	0.032371	0.493371	-0.331430
H428	H	0.064545	0.533343	-0.404435
H429	H	-0.137274	0.533212	-0.131889
H430	H	-0.172303	0.533209	0.132191
H431	H	0.052745	0.533197	0.204992
H432	H	0.661596	0.533219	-0.360598
H433	H	0.654330	0.533219	-0.639093
