data_functionalizedCrystal
_audit_creation_method	'MofGen! by Chris Wilmer'
_symmetry_space_group_name_H-M	'P1'
_symmetry_Int_Tables_number	1
_symmetry_cell_setting	triclinic
loop_
_symmetry_equiv_pos_as_xyz
  x,y,z
_cell_length_a	14.519709
_cell_length_b	14.044190
_cell_length_c	12.996460
_cell_angle_alpha	89.989157
_cell_angle_beta	90.000034
_cell_angle_gamma	88.435961
loop_
_atom_site_label
_atom_site_type_symbol
_atom_site_fract_x
_atom_site_fract_y
_atom_site_fract_z
O1	O	1.233896	0.124273	-0.085444
O2	O	1.567229	0.457606	0.247890
O3	O	1.900562	0.790940	0.581223
O4	O	0.966600	0.138908	-0.085477
O5	O	1.299933	0.472241	0.247857
O6	O	1.633266	0.805574	0.581190
O7	O	1.096232	-0.006401	-0.085440
O8	O	1.429565	0.326932	0.247893
O9	O	1.762899	0.660265	0.581226
O10	O	1.104263	0.269582	-0.085480
O11	O	1.437596	0.602915	0.247853
O12	O	1.770930	0.936249	0.581187
O13	O	1.096217	-0.006409	0.085693
O14	O	1.429550	0.326924	0.419027
O15	O	1.762883	0.660257	0.752360
O16	O	0.966584	0.138899	0.085657
O17	O	1.299917	0.472233	0.418991
O18	O	1.633251	0.805566	0.752324
O19	O	1.233880	0.124265	0.085690
O20	O	1.567214	0.457598	0.419023
O21	O	1.900547	0.790932	0.752357
Cu22	Cu	1.100231	0.131581	0.101300
Cu23	Cu	1.433564	0.464915	0.434633
Cu24	Cu	1.766897	0.798248	0.767966
Cu25	Cu	1.100249	0.131591	-0.101086
Cu26	Cu	1.433582	0.464924	0.232247
Cu27	Cu	1.766916	0.798258	0.565581
O28	O	1.104248	0.269574	0.085654
O29	O	1.437581	0.602907	0.418987
O30	O	1.770914	0.936240	0.752321
C31	C	0.932177	0.138221	0.000086
C32	C	1.265510	0.471555	0.333420
C33	C	1.598844	0.804888	0.666753
C34	C	0.829631	0.136178	0.000075
C35	C	1.162964	0.469511	0.333408
C36	C	1.496298	0.802844	0.666741
C37	C	1.092711	-0.041726	0.000129
C38	C	1.426044	0.291608	0.333462
C39	C	1.759378	0.624941	0.666796
C40	C	1.082231	-0.146970	0.000137
C41	C	1.415565	0.186364	0.333470
C42	C	1.748898	0.519697	0.666803
C43	C	0.454128	0.128654	0.000123
C44	C	0.787461	0.461987	0.333456
C45	C	1.120795	0.795320	0.666789
C46	C	0.558604	0.130743	0.000109
C47	C	0.891938	0.464076	0.333442
C48	C	1.225271	0.797410	0.666776
C49	C	0.641876	0.132415	0.000098
C50	C	0.975209	0.465749	0.333431
C51	C	1.308543	0.799082	0.666764
C52	C	0.746359	0.134505	0.000086
C53	C	1.079693	0.467839	0.333419
C54	C	1.413026	0.801172	0.666753
C55	C	1.137397	-0.397162	0.000103
C56	C	1.470730	-0.063829	0.333437
C57	C	1.804063	0.269504	0.666770
C58	C	1.063087	-0.339659	0.000101
C59	C	1.396420	-0.006326	0.333435
C60	C	1.729754	0.327007	0.666768
C61	C	1.073741	-0.232437	0.000121
C62	C	1.407075	0.100896	0.333454
C63	C	1.740408	0.434230	0.666788
C64	C	1.126744	-0.504395	0.000083
C65	C	1.460077	-0.171062	0.333417
C66	C	1.793410	0.162272	0.666750
C67	C	1.268303	0.124951	0.000125
C68	C	1.601636	0.458284	0.333458
C69	C	1.934969	0.791618	0.666791
C70	C	1.370849	0.126995	0.000130
C71	C	1.704182	0.460328	0.333463
C72	C	2.037516	0.793661	0.666796
C73	C	1.107769	0.304898	0.000082
C74	C	1.441102	0.638232	0.333415
C75	C	1.774435	0.971565	0.666749
C76	C	1.118248	0.410142	0.000068
C77	C	1.451582	0.743475	0.333401
C78	C	1.784915	1.076809	0.666734
N79	N	1.100225	0.131574	0.243647
N80	N	1.433558	0.464907	0.576980
N81	N	1.766891	0.798241	0.910313
N82	N	1.100262	0.131591	-0.243433
N83	N	1.433595	0.464924	0.089900
N84	N	1.766928	0.798257	0.423234
C85	C	1.100248	0.131592	0.663461
C86	C	1.433581	0.464925	0.996794
C87	C	1.766914	0.798259	1.330128
C88	C	1.100239	0.131590	0.546656
C89	C	1.433572	0.464924	0.879989
C90	C	1.766906	0.798257	1.213322
C91	C	1.100237	0.131584	0.453557
C92	C	1.433570	0.464917	0.786891
C93	C	1.766903	0.798250	1.120224
C94	C	1.100227	0.131581	0.336745
C95	C	1.433560	0.464914	0.670078
C96	C	1.766893	0.798247	1.003412
H97	H	0.991467	-0.370956	0.000087
H98	H	1.324800	-0.037623	0.333420
H99	H	1.658133	0.295710	0.666753
H100	H	1.209011	-0.365868	0.000123
H101	H	1.542345	-0.032534	0.333456
H102	H	1.875678	0.300799	0.666789
