data_functionalizedCrystal
_audit_creation_method	'MofGen! by Chris Wilmer'
_symmetry_space_group_name_H-M	'P1'
_symmetry_Int_Tables_number	1
_symmetry_cell_setting	triclinic
loop_
_symmetry_equiv_pos_as_xyz
  x,y,z
_cell_length_a	20.919287
_cell_length_b	12.970454
_cell_length_c	12.970454
_cell_angle_alpha	59.999644
_cell_angle_beta	86.844560
_cell_angle_gamma	58.213054
loop_
_atom_site_label
_atom_site_type_symbol
_atom_site_fract_x
_atom_site_fract_y
_atom_site_fract_z
Zr1	Zr	0.616753	1.128526	-0.190064
O2	O	0.514526	1.343617	-0.345614
O3	O	0.648090	0.913435	-0.142379
O4	O	0.648090	1.128527	-0.357471
O5	O	0.514528	1.128524	0.039145
O6	O	0.753447	1.128528	-0.366825
O7	O	0.514527	1.128525	-0.130522
O8	O	0.753448	0.743767	0.017935
O9	O	0.514527	1.513284	-0.345615
O10	O	0.740082	1.001905	-0.129024
O11	O	0.661456	1.001904	0.004578
O12	O	0.661455	1.255147	-0.248665
O13	O	0.582829	1.255146	-0.115064
Zr14	Zr	0.784786	1.128526	0.065617
Zr15	Zr	0.784785	1.128527	-0.204983
Zr16	Zr	0.616753	1.128525	0.080536
Zr17	Zr	0.616753	1.399126	-0.190066
Zr18	Zr	0.784786	0.857926	0.065618
O19	O	0.753448	1.343617	0.017932
O20	O	0.753447	1.343618	-0.366826
O21	O	0.514528	1.343615	0.039144
O22	O	0.887012	0.913435	0.221166
O23	O	0.887011	0.913437	-0.163592
O24	O	0.648091	0.913433	0.242379
O25	O	0.887011	1.128527	-0.163593
O26	O	0.753448	1.128525	0.233024
O27	O	0.648091	1.128524	0.242378
O28	O	0.887011	1.128527	0.006074
O29	O	0.648090	1.513285	-0.357473
O30	O	0.753448	0.743766	0.233026
O31	O	0.887012	0.743767	0.221167
O32	O	0.887011	0.743768	0.006076
O33	O	0.514527	1.513283	-0.130524
O34	O	0.648090	1.513284	-0.142382
O35	O	0.740083	1.001904	0.124218
O36	O	0.818709	1.001905	-0.009384
O37	O	0.740082	1.255147	-0.129025
O38	O	0.661456	1.255146	0.004576
C39	C	0.700769	0.790047	-0.062222
C40	C	0.700769	0.675170	-0.062222
C41	C	0.490586	1.128524	-0.043563
C42	C	0.419252	1.128524	-0.037229
C43	C	0.385739	1.128528	-0.127727
C44	C	0.318715	1.128520	-0.121771
C45	C	0.285203	1.128518	-0.025319
C46	C	0.318722	1.128510	0.065188
C47	C	0.385748	1.128507	0.059235
C48	C	0.082831	1.128516	-0.002664
C49	C	0.015800	1.128523	0.003280
C50	C	0.015798	1.128531	-0.183678
C51	C	0.082822	1.128537	-0.189627
C52	C	0.116338	1.128521	-0.099116
C53	C	0.216692	1.128515	-0.019230
C54	C	0.184851	1.128514	-0.105201
C55	C	0.910952	1.128527	-0.080885
C56	C	0.982286	1.128528	-0.087218
C57	C	0.700768	1.128527	-0.400703
C58	C	0.700768	1.128528	-0.515580
C59	C	0.700769	1.467005	-0.062226
C60	C	0.700769	1.581882	-0.062226
C61	C	0.700770	1.128524	0.276255
C62	C	0.700770	1.128524	0.391132
C63	C	0.910952	0.790048	-0.080883
C64	C	0.982286	0.675172	-0.087216
C65	C	0.700770	0.790045	0.276257
C66	C	0.700770	0.675168	0.391134
C67	C	0.910953	0.790046	0.257596
C68	C	0.982287	0.675169	0.366140
C69	C	0.490585	1.467005	-0.382044
C70	C	0.419251	1.581882	-0.490587
C71	C	0.490586	1.467004	-0.043564
C72	C	0.419252	1.581880	-0.037232
C73	C	0.700768	1.467007	-0.400705
C74	C	0.700768	1.581884	-0.515582
C75	C	0.974743	0.621225	-0.152652
C76	C	1.041762	0.513301	-0.158627
C77	C	1.116324	0.459319	-0.099158
C78	C	1.123866	0.513277	-0.033720
C79	C	1.056847	0.621206	-0.027753
C80	C	1.056836	0.621223	0.347374
C81	C	1.123869	0.513299	0.449351
C82	C	1.116351	0.459316	0.570094
C83	C	1.041794	0.513274	0.588858
C84	C	0.974763	0.621203	0.486882
C85	C	0.344702	1.635842	-0.471821
C86	C	0.277670	1.743799	-0.573799
C87	C	0.285187	1.797788	-0.694542
C88	C	0.359744	1.743823	-0.713306
C89	C	0.426775	1.635875	-0.611329
C90	C	0.426795	1.635838	0.028193
C91	C	0.359776	1.743791	0.034139
C92	C	0.285214	1.797777	-0.025334
C93	C	0.277672	1.743814	-0.090768
C94	C	0.344691	1.635870	-0.096719
H95	H	0.413017	1.128539	-0.206273
C96	C	1.190040	0.340584	-0.105724
N97	N	1.245560	0.251147	-0.110669
H98	H	0.338538	1.591940	-0.149992
C99	C	0.336414	1.576484	-0.339012
N100	N	0.330164	1.531791	-0.238983
C101	C	1.065125	0.680591	0.214565
N102	N	1.071374	0.725309	0.114535
H103	H	0.189400	1.128517	0.059300
C104	C	0.281865	1.128485	-0.221308
N105	N	0.254116	1.128443	-0.296276
H106	H	0.110106	1.128539	-0.268165
C107	C	0.892730	0.680592	-0.218088
N108	N	0.830960	0.725309	-0.267385
H109	H	0.212140	1.128508	-0.183728
C110	C	1.205892	0.453870	0.031701
N111	N	1.267676	0.409114	0.080984
H112	H	1.035606	0.469382	-0.211913
C113	C	1.190095	0.340579	0.682259
N114	N	1.245642	0.251141	0.766737
C115	C	-0.021060	1.128514	0.109392
N116	N	-0.048823	1.128507	0.189311
H117	H	0.216969	1.787719	-0.558497
H118	H	0.365855	1.787795	-0.811626
C119	C	0.211443	1.916523	-0.806707
N120	N	0.155896	2.005948	-0.891185
H121	H	1.184570	0.469378	0.434051
C122	C	-0.021070	1.128532	-0.283225
N123	N	-0.048836	1.128524	-0.358203
C124	C	0.892761	0.680529	0.507546
N125	N	0.830998	0.725211	0.523119
H126	H	0.110114	1.128507	0.071031
H127	H	0.291436	1.128499	0.143726
C128	C	0.508777	1.576514	-0.631993
N129	N	0.570540	1.531806	-0.647567
H130	H	1.035685	0.469305	0.687180
C131	C	0.508808	1.576481	0.093618
N132	N	0.570578	1.531787	0.142892
H133	H	0.413035	1.128501	0.132929
H134	H	0.365932	1.787710	0.087426
H135	H	0.230649	1.885672	-0.020478
H136	H	1.063000	0.665116	0.025539
C137	C	0.195646	1.803194	-0.156162
N138	N	0.133862	1.847911	-0.205405
