data_functionalizedCrystal
_audit_creation_method	'MofGen! by Chris Wilmer'
_symmetry_space_group_name_H-M	'P1'
_symmetry_Int_Tables_number	1
_symmetry_cell_setting	triclinic
loop_
_symmetry_equiv_pos_as_xyz
  x,y,z
_cell_length_a	12.759401
_cell_length_b	16.959453
_cell_length_c	12.759393
_cell_angle_alpha	90.035042
_cell_angle_beta	90.018496
_cell_angle_gamma	90.020149
loop_
_atom_site_label
_atom_site_type_symbol
_atom_site_fract_x
_atom_site_fract_y
_atom_site_fract_z
Zn1	Zn	1.606217	-0.314632	0.593956
Zn2	Zn	1.606095	-0.446833	0.418265
Zn3	Zn	1.430519	-0.314673	0.418295
Zn4	Zn	1.430491	-0.446772	0.593907
O5	O	1.518330	-0.380727	0.506106
O6	O	1.753222	-0.332177	0.570658
O7	O	1.582765	-0.429345	0.271248
O8	O	1.453888	-0.204057	0.441630
O9	O	1.753132	-0.429304	0.441579
O10	O	1.582973	-0.204026	0.570687
O11	O	1.453770	-0.332247	0.271270
O12	O	1.283494	-0.332188	0.441583
O13	O	1.453841	-0.429201	0.740935
O14	O	1.283474	-0.429241	0.570604
O15	O	1.582946	-0.332118	0.740971
O16	O	1.582738	-0.557436	0.441532
O17	O	1.453723	-0.557391	0.570575
C18	C	1.245363	-0.380713	0.506092
C19	C	1.128586	-0.380726	0.506110
C20	C	1.518243	-0.586094	0.506067
C21	C	1.518301	-0.673950	0.506086
C22	C	1.073741	-0.431342	0.573181
C23	C	0.964017	-0.431352	0.573192
C24	C	0.963993	-0.330127	0.439054
C25	C	1.073715	-0.330114	0.439049
C26	C	1.128613	-0.481954	0.640242
C27	C	1.073767	-0.532575	0.707317
C28	C	0.964043	-0.532585	0.707328
C29	C	0.909165	-0.481974	0.640265
C30	C	1.585631	-1.045352	0.573433
C31	C	1.451323	-1.045500	0.438935
C32	C	1.451284	-0.962954	0.438911
C33	C	1.518419	-0.921603	0.506150
C34	C	1.585592	-0.962798	0.573413
C35	C	1.384105	-0.921753	0.371657
C36	C	1.384063	-0.839202	0.371631
C37	C	1.451203	-0.797850	0.438865
C38	C	1.518379	-0.839050	0.506130
C39	C	1.585514	-0.797699	0.573369
C40	C	1.652696	-0.838897	0.640629
C41	C	1.652732	-0.921445	0.640647
C42	C	1.451167	-0.715301	0.438847
C43	C	1.585475	-0.715145	0.573349
C44	C	1.792364	-0.380743	0.506121
C45	C	1.909140	-0.380749	0.506127
C46	C	1.518404	-0.380648	0.780139
C47	C	1.518435	-0.380614	0.896916
C48	C	1.518447	-0.174559	0.506168
C49	C	1.518497	-0.086703	0.506194
C50	C	1.518318	-0.380750	0.233139
C51	C	1.518490	-0.380561	0.116362
C52	C	1.585669	-0.330058	0.951799
C53	C	1.585694	-0.330029	1.061523
C54	C	1.451248	-0.431120	1.061472
C55	C	1.451219	-0.431144	0.951750
C56	C	1.652886	-0.279528	0.896965
C57	C	1.720127	-0.228968	0.951847
C58	C	1.720152	-0.228940	1.061571
C59	C	1.652936	-0.279471	1.116413
H60	H	1.217955	-0.481953	0.640239
H61	H	0.919302	-0.288923	0.384454
H62	H	1.396463	-0.681762	0.384090
H63	H	1.118371	-0.288892	0.384442
H64	H	1.118457	-0.573776	0.761924
H65	H	1.329360	-0.805664	0.316863
N66	N	0.790819	-0.481989	0.640284
H67	H	0.764355	-0.496457	0.568181
H68	H	0.764495	-0.427775	0.659773
H69	H	1.396662	-1.079173	0.384197
N70	N	1.657890	-0.670547	0.645867
H71	H	1.700451	-0.709173	0.688475
H72	H	1.615081	-0.636293	0.694446
H73	H	1.329445	-0.955427	0.316917
H74	H	1.396524	-0.472259	1.106133
N75	N	1.652958	-0.279431	1.234758
H76	H	1.725028	-0.293957	1.261191
H77	H	1.600134	-0.319107	1.261087
N78	N	1.725092	-0.794287	0.713155
H79	H	1.773779	-0.760032	0.670492
H80	H	1.767590	-0.832954	0.755756
H81	H	1.707428	-0.954996	0.695408
N82	N	0.904886	-0.587178	0.779669
H83	H	0.956299	-0.619238	0.822147
H84	H	0.859337	-0.623721	0.736811
N85	N	1.658095	-1.089779	0.645970
H86	H	1.647940	-1.148349	0.635782
H87	H	1.641695	-1.075315	0.720988
H88	H	1.652876	-0.279547	0.807622
N89	N	1.378703	-0.485669	0.892546
H90	H	1.336132	-0.517681	0.943930
H91	H	1.421437	-0.522260	0.847007
N92	N	1.792630	-0.174477	0.892705
H93	H	1.782421	-0.182171	0.814868
H94	H	1.867654	-0.186795	0.911898
N95	N	1.792651	-0.174398	1.120769
H96	H	1.835222	-0.142391	1.069380
H97	H	1.841266	-0.206559	1.166292
