data_functionalizedCrystal
_audit_creation_method	'MofGen! by Chris Wilmer'
_symmetry_space_group_name_H-M	'P1'
_symmetry_Int_Tables_number	1
_symmetry_cell_setting	triclinic
loop_
_symmetry_equiv_pos_as_xyz
  x,y,z
_cell_length_a	14.395555
_cell_length_b	23.196402
_cell_length_c	23.196401
_cell_angle_alpha	59.997774
_cell_angle_beta	90.005614
_cell_angle_gamma	60.005851
loop_
_atom_site_label
_atom_site_type_symbol
_atom_site_fract_x
_atom_site_fract_y
_atom_site_fract_z
Zr1	Zr	0.894954	0.631014	-0.075650
O2	O	0.746622	0.751287	-0.167702
O3	O	0.940412	0.510750	-0.047434
O4	O	0.940396	0.631032	-0.167709
O5	O	0.746667	0.630989	0.047452
O6	O	1.093263	0.631036	-0.167712
O7	O	0.746639	0.631005	-0.047427
O8	O	1.093292	0.415874	0.047439
O9	O	0.746638	0.846151	-0.167698
O10	O	1.073899	0.560217	-0.035398
O11	O	0.959837	0.560201	0.035410
O12	O	0.959818	0.701817	-0.106198
O13	O	0.845756	0.701802	-0.035390
Zr14	Zr	1.138805	0.630995	0.075667
Zr15	Zr	1.138759	0.631021	-0.075653
Zr16	Zr	0.894999	0.630988	0.075671
Zr17	Zr	0.894979	0.782312	-0.075644
Zr18	Zr	1.138780	0.479698	0.075662
O19	O	1.093347	0.751260	0.047452
O20	O	1.093282	0.751297	-0.167707
O21	O	0.746686	0.751250	0.047457
O22	O	1.287136	0.510722	0.167719
O23	O	1.287072	0.510759	-0.047439
O24	O	0.940476	0.510713	0.167725
O25	O	1.287092	0.631021	-0.047435
O26	O	1.093363	0.630978	0.167727
O27	O	0.940496	0.630974	0.167729
O28	O	1.287120	0.631004	0.047444
O29	O	0.940431	0.846157	-0.167701
O30	O	1.093328	0.415853	0.167719
O31	O	1.287121	0.415858	0.167716
O32	O	1.287085	0.415879	0.047436
O33	O	0.746674	0.846131	-0.047419
O34	O	0.940466	0.846136	-0.047422
O35	O	1.073941	0.560192	0.106216
O36	O	1.188003	0.560208	0.035407
O37	O	1.073922	0.701809	-0.035393
O38	O	0.959860	0.701793	0.035416
C39	C	1.016848	0.441755	0.000002
C40	C	1.016838	0.377525	-0.000001
C41	C	0.711916	0.630996	0.000013
C42	C	0.608414	0.630993	0.000015
C43	C	1.101070	0.295090	0.052263
C44	C	1.101078	0.234730	0.052269
C45	C	1.016862	0.256810	0.000001
C46	C	0.932615	0.339259	-0.052267
C47	C	0.932603	0.399617	-0.052268
C48	C	0.990621	0.201232	-0.063795
C49	C	0.990641	0.140873	-0.063795
C50	C	1.016893	0.070648	0.000004
C51	C	1.043149	0.060779	0.063807
C52	C	1.043137	0.121137	0.063806
C53	C	1.016865	0.191367	-0.000003
C54	C	1.101138	-0.077241	0.052279
C55	C	1.101138	-0.137600	0.052286
C56	C	0.932679	-0.033068	-0.052256
C57	C	0.932675	0.027288	-0.052257
C58	C	1.016910	0.005197	0.000010
C59	C	0.610027	0.553786	0.038617
C60	C	0.517026	0.592374	0.066601
C61	C	0.516987	0.592409	-0.027949
C62	C	0.516776	0.669582	0.028038
C63	C	0.516751	0.669605	-0.066549
C64	C	0.423732	0.708249	-0.038582
C65	C	1.321843	0.631013	0.000004
C66	C	1.425345	0.631016	0.000003
C67	C	1.016823	0.631037	-0.189270
C68	C	1.016804	0.631048	-0.253510
C69	C	1.016910	0.820255	0.000016
C70	C	1.016920	0.884484	0.000018
C71	C	1.101022	0.631052	-0.283674
C72	C	1.101048	0.631036	-0.344021
C73	C	1.016837	0.631032	-0.374209
C74	C	0.932611	0.631024	-0.344035
C75	C	0.932594	0.631032	-0.283686
C76	C	0.914070	0.678522	-0.493588
C77	C	0.914085	0.678519	-0.553939
C78	C	1.016887	0.631003	-0.560345
C79	C	1.119679	0.583501	-0.506399
C80	C	1.119663	0.583509	-0.446050
C81	C	1.016845	0.631023	-0.439648
C82	C	1.101140	0.630988	-0.655944
C83	C	1.101165	0.630966	-0.716289
C84	C	0.932720	0.630962	-0.716306
C85	C	0.932703	0.630976	-0.655958
C86	C	1.016912	0.630992	-0.625783
C87	C	1.016936	0.630972	0.189288
C88	C	1.016955	0.630961	0.253528
C89	C	1.321812	0.441764	-0.000003
C90	C	1.425303	0.377537	-0.000007
C91	C	1.016905	0.441722	0.189281
C92	C	1.016914	0.377482	0.253518
C93	C	1.321868	0.441731	0.189276
C94	C	1.425379	0.377493	0.253512
C95	C	0.711890	0.820279	-0.189259
C96	C	0.608380	0.884516	-0.253495
C97	C	0.711946	0.820246	0.000020
C98	C	0.608455	0.884473	0.000024
C99	C	1.016854	0.820287	-0.189263
C100	C	1.016845	0.884528	-0.253501
C101	C	1.414343	0.347380	-0.036975
C102	C	1.511575	0.287040	-0.036992
C103	C	1.619766	0.256855	-0.000038
C104	C	1.630724	0.287018	0.036931
C105	C	1.533494	0.347360	0.036944
C106	C	1.076479	0.347309	0.320651
C107	C	1.076483	0.286957	0.381014
C108	C	1.016927	0.256774	0.374243
C109	C	0.957355	0.286952	0.307104
C110	C	0.957345	0.347308	0.246742
C111	C	1.533538	0.347335	0.246716
C112	C	1.630806	0.286985	0.307067
C113	C	1.619913	0.256791	0.374212
C114	C	1.511743	0.286955	0.381007
C115	C	1.414477	0.347308	0.320657
C116	C	0.500220	0.914683	-0.246699
C117	C	0.402952	0.975051	-0.307049
C118	C	0.413845	1.005248	-0.374195
C119	C	0.522016	0.975080	-0.380989
C120	C	0.619282	0.914716	-0.320639
C121	C	0.619416	0.914636	0.036986
C122	C	0.522184	0.974992	0.036987
C123	C	0.413992	1.005180	0.000030
C124	C	0.403034	0.975014	-0.036936
C125	C	0.500265	0.914663	-0.036941
C126	C	1.076412	0.914692	-0.246707
C127	C	1.076426	0.975044	-0.307059
C128	C	1.016866	1.005237	-0.374204
C129	C	0.957297	0.975067	-0.380996
C130	C	0.957290	0.914711	-0.320644
H131	H	1.169660	0.277096	0.094823
H132	H	0.908804	0.999659	-0.435673
Cl133	Cl	1.016881	1.081117	-0.450068
H134	H	0.517615	0.702182	0.051747
Cl135	Cl	0.784829	0.738321	-0.485572
Cl136	Cl	1.547262	0.385286	0.162312
Cl137	Cl	1.151311	1.012964	-0.298505
H138	H	0.908779	0.890159	-0.326185
H139	H	1.016944	0.207628	0.423400
H140	H	1.124976	0.371877	0.326177
H141	H	1.203360	0.544829	-0.402127
H142	H	1.502630	0.262489	-0.067097
Cl143	Cl	1.151299	0.876747	-0.162305
H144	H	0.969266	0.148914	-0.115746
Cl145	Cl	1.206981	0.131084	0.117975
Cl146	Cl	1.766778	0.249072	0.298509
H147	H	0.334830	1.054322	0.000040
H148	H	1.699123	0.207647	0.423347
Cl149	Cl	0.515559	0.542020	-0.064457
H150	H	1.542434	0.371906	0.067052
Cl151	Cl	1.741989	0.180993	-0.000060
H152	H	0.344105	0.773588	-0.071224
Cl153	Cl	1.498068	0.248987	0.465424
H154	H	1.326413	0.371856	0.326200
Cl155	Cl	0.486496	0.876732	-0.162295
Cl156	Cl	0.826738	0.367017	-0.117972
Cl157	Cl	0.518235	0.719952	-0.153435
Cl158	Cl	0.826702	0.503257	-0.117976
Cl159	Cl	0.266981	1.012962	-0.298492
Cl160	Cl	1.151385	0.249027	0.465409
H161	H	0.707347	0.890156	-0.326181
H162	H	1.326257	0.371956	-0.067076
H163	H	1.064512	0.113099	0.115756
Cl164	Cl	0.535690	1.013048	-0.465406
H165	H	1.064517	0.003601	0.115757
H166	H	0.314932	0.999602	-0.067025
Cl167	Cl	0.957615	0.289515	-0.144008
Cl168	Cl	0.882462	0.385227	0.162349
H169	H	0.830387	0.717202	-0.597860
H170	H	0.707502	0.890062	0.067085
H171	H	0.531129	0.999543	0.067092
H172	H	0.864012	0.631029	-0.259125
Cl173	Cl	0.291555	1.081133	-0.450058
Cl174	Cl	0.486466	0.876746	-0.083406
H175	H	1.169593	0.631063	-0.259106
Cl176	Cl	0.882493	0.248998	0.298604
Cl177	Cl	1.207028	-0.105008	0.117986
H178	H	1.169729	-0.204726	0.094849
Cl179	Cl	1.766745	0.249058	0.083389
Cl180	Cl	0.826780	0.130927	-0.117965
Cl181	Cl	0.826801	-0.005304	-0.117961
H182	H	0.516111	0.559737	0.122889
Cl183	Cl	0.733167	0.452993	0.089081
H184	H	1.203390	0.544808	-0.511612
H185	H	1.169631	0.631039	-0.368585
H186	H	1.169711	0.630998	-0.631372
H187	H	0.864157	0.630955	-0.740883
Cl188	Cl	0.826818	0.630977	-0.618037
Cl189	Cl	1.207055	0.630964	-0.754209
Cl190	Cl	0.826749	0.631014	-0.381982
