data_functionalizedCrystal
_audit_creation_method	'MofGen! by Chris Wilmer'
_symmetry_space_group_name_H-M	'P1'
_symmetry_Int_Tables_number	1
_symmetry_cell_setting	triclinic
loop_
_symmetry_equiv_pos_as_xyz
  x,y,z
_cell_length_a	10.654550
_cell_length_b	12.837942
_cell_length_c	9.730223
_cell_angle_alpha	89.996108
_cell_angle_beta	89.999957
_cell_angle_gamma	89.656935
loop_
_atom_site_label
_atom_site_type_symbol
_atom_site_fract_x
_atom_site_fract_y
_atom_site_fract_z
O1	O	1.683741	0.145723	-0.114186
O2	O	1.319778	0.159606	-0.114211
O3	O	1.493689	0.001704	-0.114190
O4	O	1.509830	0.303625	-0.114206
O5	O	1.493676	0.001699	0.114390
O6	O	1.319765	0.159602	0.114369
O7	O	1.683728	0.145718	0.114394
Zn8	Zn	1.501744	0.152660	0.150674
Zn9	Zn	1.501761	0.152665	-0.150490
O10	O	1.509817	0.303621	0.114374
C11	C	1.272862	0.158585	0.000076
C12	C	1.133086	0.155535	0.000067
C13	C	1.063746	0.248505	0.000066
C14	C	0.932411	0.245633	0.000090
C15	C	0.939770	0.056812	0.000110
C16	C	1.071101	0.059685	0.000096
C17	C	1.488230	-0.036958	0.000099
C18	C	1.471967	-0.152152	0.000095
C19	C	1.667472	-0.391705	0.000080
C20	C	1.652197	-0.499941	0.000077
C21	C	1.426146	-0.476861	0.000075
C22	C	1.441420	-0.368626	0.000079
C23	C	1.562087	-0.326052	0.000083
C24	C	1.577360	-0.217814	0.000096
C25	C	1.351309	-0.194737	0.000085
C26	C	1.336035	-0.302972	0.000082
C27	C	1.730644	0.146740	0.000104
C28	C	1.870420	0.149790	0.000105
C29	C	1.515276	0.342283	0.000082
C30	C	1.531538	0.457477	0.000076
N31	N	1.501742	0.152655	0.356210
N32	N	1.501773	0.152662	-0.356027
C33	C	1.578782	0.082766	0.428145
C34	C	1.578795	0.082766	0.572028
C35	C	1.424724	0.222554	0.572028
C36	C	1.424705	0.222548	0.428148
H37	H	1.127560	-0.016027	0.000100
C38	C	1.272418	0.360738	0.442589
C39	C	1.340020	0.299380	0.349066
H40	H	1.220144	0.408169	0.393764
H41	H	1.222050	0.317207	0.498720
H42	H	1.329219	0.398463	0.498695
H43	H	1.283218	0.261648	0.292966
H44	H	1.390392	0.342917	0.292912
H45	H	0.875960	0.321340	0.000092
H46	H	1.765723	-0.357041	0.000097
H47	H	1.675613	-0.183153	0.000105
C48	C	1.589072	-0.058275	0.266437
C49	C	1.663411	0.005884	0.349103
H50	H	1.641310	-0.105751	0.217648
H51	H	1.532279	-0.095941	0.322607
H52	H	1.543226	-0.016642	0.202975
H53	H	1.709249	-0.035749	0.412572
H54	H	1.720226	0.043553	0.292927
C55	C	1.877171	-0.511877	0.000088
C56	C	1.768040	-0.572108	0.000081
H57	H	1.948689	-0.556433	0.000098
H58	H	1.878428	-0.469179	-0.079617
H59	H	1.878416	-0.469182	0.079805
H60	H	1.766790	-0.614797	-0.079641
H61	H	1.766783	-0.614824	0.079795
C62	C	1.261801	0.336754	0.000017
C63	C	1.131882	0.353861	0.000039
H64	H	1.303860	0.401799	-0.000007
H65	H	1.284839	0.298444	0.079724
H66	H	1.284813	0.298431	-0.079698
H67	H	1.108868	0.392177	0.079760
H68	H	1.108834	0.392187	-0.079677
C69	C	1.212248	-0.458643	0.000085
C70	C	1.203403	-0.349776	0.000086
H71	H	1.130363	-0.487533	0.000100
H72	H	1.256170	-0.481109	-0.079626
H73	H	1.256193	-0.481118	0.079796
H74	H	1.159466	-0.327300	-0.079631
H75	H	1.159463	-0.327301	0.079806
C76	C	1.237330	-0.059625	-0.117419
C77	C	1.235455	-0.122572	0.000082
H78	H	1.165803	-0.015080	-0.117419
H79	H	1.311363	-0.018776	-0.117404
H80	H	1.236073	-0.102332	-0.197124
H81	H	1.236721	-0.079864	0.079787
H82	H	1.161402	-0.163424	0.000079
C83	C	1.731096	-0.055397	0.557566
C84	C	1.663486	0.005945	0.651099
H85	H	1.783387	-0.102821	0.606384
H86	H	1.674310	-0.093122	0.501463
H87	H	1.781460	-0.011848	0.501433
H88	H	1.613114	-0.037604	0.707226
H89	H	1.720279	0.043673	0.707225
C90	C	0.741713	-0.031433	0.000126
C91	C	0.871631	-0.048542	0.000124
H92	H	0.699652	-0.096477	0.000123
H93	H	0.718690	0.006878	0.079832
H94	H	0.718687	0.006890	-0.079591
H95	H	0.894658	-0.086859	0.079846
H96	H	0.894664	-0.086869	-0.079590
H97	H	1.327904	-0.511544	0.000057
H98	H	1.362004	0.279461	0.630615
