data_functionalizedCrystal
_audit_creation_method	'MofGen! by Chris Wilmer'
_symmetry_space_group_name_H-M	'P1'
_symmetry_Int_Tables_number	1
_symmetry_cell_setting	triclinic
loop_
_symmetry_equiv_pos_as_xyz
  x,y,z
_cell_length_a	18.101398
_cell_length_b	18.101396
_cell_length_c	18.101389
_cell_angle_alpha	89.983791
_cell_angle_beta	90.024327
_cell_angle_gamma	89.967710
loop_
_atom_site_label
_atom_site_type_symbol
_atom_site_fract_x
_atom_site_fract_y
_atom_site_fract_z
Zn1	Zn	1.132091	0.295001	0.418850
Zn2	Zn	1.465424	0.628334	0.752183
Zn3	Zn	1.798757	0.961667	1.085517
Zn4	Zn	1.131974	0.418826	0.295013
Zn5	Zn	1.465307	0.752160	0.628347
Zn6	Zn	1.798640	1.085493	0.961680
Zn7	Zn	1.008249	0.294993	0.295011
Zn8	Zn	1.341583	0.628326	0.628345
Zn9	Zn	1.674916	0.961660	0.961678
Zn10	Zn	1.008187	0.418795	0.418802
Zn11	Zn	1.341521	0.752128	0.752135
Zn12	Zn	1.674854	1.085461	1.085469
O13	O	1.070125	0.356904	0.356919
O14	O	1.403459	0.690237	0.690252
O15	O	1.736792	1.023570	1.023586
O16	O	1.235708	0.311443	0.402444
O17	O	1.569041	0.644776	0.735777
O18	O	1.902375	0.978110	1.069111
O19	O	1.115538	0.402410	0.191380
O20	O	1.448872	0.735743	0.524713
O21	O	1.782205	1.069076	0.858047
O22	O	1.024752	0.191361	0.311458
O23	O	1.358085	0.524695	0.644791
O24	O	1.691419	0.858028	0.978125
O25	O	1.235622	0.402417	0.311462
O26	O	1.568955	0.735751	0.644795
O27	O	1.902289	1.069084	0.978128
O28	O	1.115738	0.191367	0.402442
O29	O	1.449071	0.524700	0.735775
O30	O	1.782404	0.858034	1.069109
O31	O	1.024639	0.311430	0.191379
O32	O	1.357972	0.644763	0.524712
O33	O	1.691305	0.978097	0.858045
O34	O	0.904608	0.311399	0.311411
O35	O	1.237942	0.644733	0.644745
O36	O	1.571275	0.978066	0.978078
O37	O	1.024646	0.402363	0.522441
O38	O	1.357980	0.735697	0.855775
O39	O	1.691313	1.069030	1.189108
O40	O	0.904563	0.402356	0.402360
O41	O	1.237896	0.735689	0.735693
O42	O	1.571229	1.069022	1.069026
O43	O	1.115677	0.311412	0.522477
O44	O	1.449011	0.644746	0.855810
O45	O	1.782344	0.978079	1.189143
O46	O	1.115478	0.522455	0.311415
O47	O	1.448812	0.855789	0.644748
O48	O	1.782145	1.189122	0.978082
O49	O	1.024533	0.522432	0.402362
O50	O	1.357866	0.855765	0.735695
O51	O	1.691200	1.189099	1.069028
C52	C	0.877715	0.356874	0.356880
C53	C	1.211048	0.690207	0.690214
C54	C	1.544381	1.023540	1.023547
C55	C	0.795401	0.356879	0.356882
C56	C	1.128734	0.690212	0.690215
C57	C	1.462067	1.023545	1.023548
C58	C	1.070006	0.549314	0.356899
C59	C	1.403340	0.882648	0.690233
C60	C	1.736673	1.215981	1.023566
C61	C	1.070023	0.631628	0.356916
C62	C	1.403356	0.964962	0.690249
C63	C	1.736690	1.298295	1.023582
C64	C	0.496310	0.356925	0.356944
C65	C	0.829643	0.690258	0.690277
C66	C	1.162976	1.023592	1.023610
C67	C	0.527639	0.299412	0.300001
C68	C	0.860972	0.632745	0.633334
C69	C	1.194306	0.966078	0.966667
C70	C	0.613257	0.299566	0.299758
C71	C	0.946590	0.632899	0.633091
C72	C	1.279924	0.966232	0.966424
C73	C	0.644692	0.356901	0.356913
C74	C	0.978026	0.690235	0.690246
C75	C	1.311359	1.023568	1.023580
C76	C	0.613566	0.434909	0.335591
C77	C	0.946899	0.768243	0.668925
C78	C	1.280233	1.101576	1.002258
C79	C	0.527921	0.434590	0.335195
C80	C	0.861254	0.767923	0.668529
C81	C	1.194588	1.101256	1.001862
C82	C	0.527926	0.337109	0.435342
C83	C	0.861260	0.670442	0.768676
C84	C	1.194593	1.003775	1.102009
C85	C	0.613577	0.335371	0.434914
C86	C	0.946911	0.668705	0.768248
C87	C	1.280244	1.002038	1.101581
C88	C	0.728552	0.356893	0.356897
C89	C	1.061885	0.690226	0.690230
C90	C	1.395218	1.023559	1.023563
C91	C	0.412450	0.356939	0.356958
C92	C	0.745783	0.690272	0.690291
C93	C	1.079117	1.023605	1.023625
C94	C	1.070155	0.930719	0.356959
C95	C	1.403488	1.264053	0.690292
C96	C	1.736821	1.597386	1.023626
C97	C	1.013070	0.899410	0.414322
C98	C	1.346404	1.232744	0.747655
C99	C	1.679737	1.566077	1.080989
C100	C	1.012808	0.813792	0.414142
C101	C	1.346141	1.147126	0.747475
C102	C	1.679475	1.480459	1.080808
C103	C	1.070089	0.782337	0.356938
C104	C	1.403423	1.115670	0.690272
C105	C	1.736756	1.449004	1.023605
C106	C	1.048957	0.813472	0.278887
C107	C	1.382290	1.146806	0.612220
C108	C	1.715624	1.480139	0.945554
C109	C	1.048580	0.899117	0.279231
C110	C	1.381914	1.232451	0.612565
C111	C	1.715247	1.565784	0.945898
C112	C	1.148500	0.899073	0.376960
C113	C	1.481833	1.232407	0.710293
C114	C	1.815166	1.565740	1.043626
C115	C	1.148048	0.813422	0.378670
C116	C	1.481381	1.146756	0.712004
C117	C	1.814715	1.480089	1.045337
C118	C	1.070054	0.698477	0.356922
C119	C	1.403387	1.031811	0.690255
C120	C	1.736720	1.365144	1.023588
C121	C	1.070189	1.014579	0.356970
C122	C	1.403522	1.347912	0.690304
C123	C	1.736855	1.681245	1.023637
C124	C	1.263287	0.356934	0.356958
C125	C	1.596620	0.690268	0.690292
C126	C	1.929954	1.023601	1.023625
C127	C	1.345601	0.356948	0.356975
C128	C	1.678935	0.690281	0.690308
C129	C	2.012268	1.023614	1.023642
C130	C	1.070168	0.356885	0.550081
C131	C	1.403501	0.690218	0.883414
C132	C	1.736835	1.023552	1.216748
C133	C	1.070186	0.356877	0.632395
C134	C	1.403520	0.690210	0.965729
C135	C	1.736853	1.023544	1.299062
C136	C	1.070239	1.163742	0.356958
C137	C	1.403572	1.497075	0.690291
C138	C	1.736906	1.830409	1.023625
C139	C	1.070221	1.081428	0.356981
C140	C	1.403554	1.414761	0.690315
C141	C	1.736888	1.748094	1.023648
C142	C	1.070125	0.356869	0.164509
C143	C	1.403459	0.690202	0.497842
C144	C	1.736792	1.023536	0.831175
C145	C	1.070251	0.356668	0.082195
C146	C	1.403584	0.690002	0.415528
C147	C	1.736917	1.023335	0.748862
C148	C	1.070229	0.356738	0.931486
C149	C	1.403563	0.690072	1.264820
C150	C	1.736896	1.023405	1.598153
C151	C	1.012758	0.413780	0.900139
C152	C	1.346091	0.747113	1.233472
C153	C	1.679425	1.080447	1.566806
C154	C	1.012913	0.414045	0.814521
C155	C	1.346247	0.747378	1.147854
C156	C	1.679580	1.080711	1.481187
C157	C	1.070207	0.356807	0.783104
C158	C	1.403541	0.690141	1.116437
C159	C	1.736874	1.023474	1.449770
C160	C	1.148231	0.377998	0.814210
C161	C	1.481564	0.711331	1.147544
C162	C	1.814897	1.044664	1.480877
C163	C	1.147910	0.378372	0.899855
C164	C	1.481244	0.711705	1.233189
C165	C	1.814577	1.045039	1.566522
C166	C	1.050356	0.278379	0.899908
C167	C	1.383689	0.611712	1.233241
C168	C	1.717023	0.945046	1.566574
C169	C	1.048620	0.278832	0.814257
C170	C	1.381953	0.612165	1.147590
C171	C	1.715287	0.945498	1.480923
C172	C	1.070200	0.356845	0.699244
C173	C	1.403533	0.690178	1.032578
C174	C	1.736866	1.023511	1.365911
C175	C	1.070242	0.356702	1.015346
C176	C	1.403576	0.690036	1.348679
C177	C	1.736909	1.023369	1.682013
H178	H	0.634304	0.241719	0.313122
H179	H	0.967637	0.575052	0.646455
H180	H	1.300970	0.908386	0.979789
H181	H	0.507665	0.378999	0.477770
H182	H	0.840999	0.712333	0.811104
H183	H	1.174332	1.045666	1.144437
H184	H	0.994451	0.259074	0.921493
H185	H	1.327784	0.592407	1.254826
H186	H	1.661118	0.925741	1.588159
H187	H	1.163984	0.793071	0.436112
H188	H	1.497317	1.126404	0.769445
H189	H	1.830650	1.459738	1.102778
H190	H	1.026033	0.472127	0.794040
H191	H	1.359366	0.805460	1.127374
H192	H	1.692700	1.138794	1.460707
H193	H	1.087426	0.234076	0.792871
H194	H	1.420759	0.567409	1.126204
H195	H	1.754092	0.900742	1.459538
Cl196	Cl	0.961478	0.780450	0.252260
Cl197	Cl	1.294812	1.113784	0.585593
Cl198	Cl	1.628145	1.447117	0.918926
H199	H	0.991311	0.919153	0.262290
H200	H	1.324644	1.252486	0.595623
H201	H	1.657977	1.585819	0.928956
Cl202	Cl	1.216121	0.315871	0.782798
Cl203	Cl	1.549454	0.649204	1.116132
Cl204	Cl	1.882787	0.982537	1.449465
Cl205	Cl	1.032768	0.502898	0.933429
Cl206	Cl	1.366101	0.836231	1.266763
Cl207	Cl	1.699434	1.169564	1.600096
H208	H	0.506360	0.281216	0.454728
H209	H	0.839693	0.614549	0.788062
H210	H	1.173027	0.947883	1.121395
Cl211	Cl	1.033217	0.781286	0.503495
Cl212	Cl	1.366551	1.114619	0.836829
Cl213	Cl	1.699884	1.447952	1.170162
H214	H	1.164759	0.435654	0.919841
H215	H	1.498092	0.768987	1.253174
H216	H	1.831426	1.102320	1.586508
Cl217	Cl	1.114983	0.212763	0.931208
Cl218	Cl	1.448316	0.546097	1.264542
Cl219	Cl	1.781650	0.879430	1.597875
Cl220	Cl	0.646621	0.461310	0.248059
Cl221	Cl	0.979954	0.794644	0.581392
Cl222	Cl	1.313288	1.127977	0.914725
H223	H	0.955352	0.920990	0.401240
H224	H	1.288686	1.254323	0.734573
H225	H	1.622019	1.587656	1.067907
Cl226	Cl	0.644839	0.319786	0.210066
Cl227	Cl	0.978172	0.653120	0.543399
Cl228	Cl	1.311506	0.986453	0.876732
Cl229	Cl	0.645009	0.246749	0.459748
Cl230	Cl	0.978342	0.580082	0.793081
Cl231	Cl	1.311676	0.913416	1.126414
H232	H	1.089231	0.793097	0.234981
H233	H	1.422564	1.126431	0.568314
H234	H	1.755898	1.459764	0.901648
H235	H	1.165370	0.434671	0.792770
H236	H	1.498704	0.768004	1.126104
H237	H	1.832037	1.101337	1.459437
Cl238	Cl	1.033268	0.931155	0.503968
Cl239	Cl	1.366602	1.264488	0.837301
Cl240	Cl	1.699935	1.597822	1.170635
Cl241	Cl	0.495890	0.209824	0.320403
Cl242	Cl	0.829223	0.543158	0.653737
Cl243	Cl	1.162556	0.876491	0.987070
Cl244	Cl	1.216222	0.316972	0.931878
Cl245	Cl	1.549556	0.650305	1.265211
Cl246	Cl	1.882889	0.983638	1.598545
H247	H	0.955056	0.400784	0.793487
H248	H	1.288389	0.734117	1.126821
H249	H	1.621722	1.067450	1.460154
Cl250	Cl	0.959966	0.254161	0.782875
Cl251	Cl	1.293299	0.587494	1.116208
Cl252	Cl	1.626633	0.920828	1.449542
Cl253	Cl	1.178238	0.932358	0.463337
Cl254	Cl	1.511572	1.265691	0.796670
Cl255	Cl	1.844905	1.599024	1.130003
H256	H	1.192833	0.792007	0.339935
H257	H	1.526167	1.125340	0.673269
H258	H	1.859500	1.458673	1.006602
Cl259	Cl	1.214167	0.930346	0.312468
Cl260	Cl	1.547500	1.263679	0.645801
Cl261	Cl	1.880834	1.597013	0.979135
H262	H	0.954741	0.793362	0.400892
H263	H	1.288075	1.126695	0.734226
H264	H	1.621408	1.460029	1.067559
Cl265	Cl	0.644989	0.502843	0.397625
Cl266	Cl	0.978323	0.836176	0.730958
Cl267	Cl	1.311656	1.169510	1.064292
H268	H	0.954726	0.400655	0.920724
H269	H	1.288060	0.733988	1.254058
H270	H	1.621393	1.067321	1.587391
H271	H	1.088354	0.919830	0.235034
H272	H	1.421688	1.253163	0.568367
H273	H	1.755021	1.586497	0.901700
H274	H	0.506088	0.312363	0.242246
H275	H	0.839421	0.645696	0.575579
H276	H	1.172755	0.979029	0.908913
H277	H	0.634978	0.374209	0.479615
H278	H	0.968312	0.707543	0.812948
H279	H	1.301645	1.040876	1.146281
H280	H	0.507907	0.451397	0.277882
H281	H	0.841241	0.784730	0.611216
H282	H	1.174574	1.118063	0.944549
H283	H	0.507194	0.478892	0.374862
H284	H	0.840528	0.812225	0.708195
H285	H	1.173861	1.145558	1.041528
