data_functionalizedCrystal
_audit_creation_method	'MofGen! by Chris Wilmer'
_symmetry_space_group_name_H-M	'P1'
_symmetry_Int_Tables_number	1
_symmetry_cell_setting	triclinic
loop_
_symmetry_equiv_pos_as_xyz
  x,y,z
_cell_length_a	13.635800
_cell_length_b	19.551900
_cell_length_c	21.457829
_cell_angle_alpha	87.323406
_cell_angle_beta	63.171644
_cell_angle_gamma	101.664829
loop_
_atom_site_label
_atom_site_type_symbol
_atom_site_fract_x
_atom_site_fract_y
_atom_site_fract_z
V1	V	-2.090357	-0.097429	0.218192
O2	O	-2.087138	0.003908	0.213700
O3	O	-2.061271	-0.192440	0.217024
O4	O	-2.101698	-0.096270	0.313204
O5	O	-2.046430	-0.092928	0.116854
V6	V	-2.328198	-0.085267	0.206031
O7	O	-2.229584	-0.124105	0.244866
O8	O	-2.414070	-0.058591	0.179357
O9	O	-2.245681	0.009744	0.207199
O10	O	-2.390116	-0.186604	0.210523
O11	O	-2.430823	-0.089768	0.307368
O12	O	-2.205254	-0.086427	0.111019
V13	V	-1.590357	-0.097429	0.218192
O14	O	-1.587138	0.003908	0.213700
O15	O	-1.561271	-0.192440	0.217024
O16	O	-1.601698	-0.096270	0.313204
O17	O	-1.546430	-0.092928	0.116854
V18	V	-1.828198	-0.085267	0.206031
O19	O	-1.729584	-0.124105	0.244866
O20	O	-1.914070	-0.058591	0.179357
O21	O	-1.745681	0.009744	0.207199
O22	O	-1.890116	-0.186604	0.210523
O23	O	-1.930823	-0.089768	0.307368
O24	O	-1.705254	-0.086427	0.111019
C25	C	-1.981432	-0.215591	0.213666
C26	C	-1.998532	-0.293267	0.213345
C27	C	-2.033001	-0.092915	0.336352
C28	C	-2.082884	-0.092596	0.414028
C29	C	-2.214328	-0.856628	0.215197
C30	C	-2.198268	-0.783643	0.215494
C31	C	-2.097596	-0.743469	0.211488
C32	C	-2.012966	-0.776283	0.207166
C33	C	-2.029024	-0.849265	0.206863
C34	C	-2.028564	-0.631556	0.249905
C35	C	-2.012513	-0.558576	0.250213
C36	C	-2.048063	-0.518367	0.212422
C37	C	-2.099688	-0.551149	0.174332
C38	C	-2.115746	-0.624131	0.174029
C39	C	-2.080174	-0.664332	0.211817
C40	C	-2.115271	-0.406422	0.217060
C41	C	-2.099204	-0.333436	0.217353
C42	C	-1.913905	-0.326078	0.209032
C43	C	-1.929969	-0.399063	0.208732
C44	C	-2.030657	-0.439231	0.212750
C45	C	-2.157190	0.032892	0.210555
C46	C	-2.129711	0.110566	0.210880
C47	C	-2.105620	-0.089783	0.087867
C48	C	-2.045357	-0.090098	0.010191
C49	C	-2.198545	-0.095943	0.454078
C50	C	-2.245426	-0.095634	0.527061
C51	C	-2.176645	-0.091984	0.559994
C52	C	-2.060972	-0.088635	0.519937
C53	C	-2.014092	-0.088939	0.446954
C54	C	-1.931926	-0.093754	-0.022728
C55	C	-1.875305	-0.094055	-0.095713
C56	C	-1.932128	-0.090714	-0.135773
C57	C	-2.045574	-0.087054	-0.102845
C58	C	-2.102189	-0.086746	-0.029864
C59	C	-1.927366	-0.129671	-0.247571
C60	C	-1.870750	-0.129984	-0.320551
C61	C	-1.757511	-0.091661	-0.360874
C62	C	-1.700882	-0.053035	-0.328206
C63	C	-1.757496	-0.052727	-0.255224
C64	C	-1.870748	-0.091047	-0.214910
C65	C	-1.582678	-0.095642	-0.472931
C66	C	-1.526056	-0.095938	-0.545917
C67	C	-1.696333	-0.088944	-0.553048
C68	C	-1.752948	-0.088641	-0.480064
C69	C	-1.696115	-0.091993	-0.440009
C70	C	-1.533001	-0.092915	0.336352
C71	C	-1.582884	-0.092596	0.414028
C72	C	-1.481432	-0.215591	0.213666
C73	C	-1.498532	-0.293267	0.213345
C74	C	-1.657190	0.032892	0.210555
C75	C	-1.629711	0.110566	0.210880
C76	C	-1.605620	-0.089783	0.087867
C77	C	-1.545357	-0.090098	0.010191
C78	C	-1.598770	-0.333319	0.216698
C79	C	-1.614858	-0.406305	0.216407
C80	C	-1.530702	-0.439237	0.212758
C81	C	-1.430457	-0.399180	0.209408
C82	C	-1.414374	-0.326196	0.209704
C83	C	-1.701967	0.150618	0.207530
C84	C	-1.676152	0.223604	0.207824
C85	C	-1.578086	0.256536	0.211474
C86	C	-1.505823	0.216479	0.214823
C87	C	-1.531634	0.143495	0.214523
C88	C	-1.431915	-0.093741	-0.022723
C89	C	-1.375274	-0.094029	-0.095709
C90	C	-1.432079	-0.090680	-0.135778
C91	C	-1.545531	-0.087035	-0.102860
C92	C	-1.602168	-0.086742	-0.029876
H93	H	-2.296313	-0.889328	0.218467
C94	C	-1.985384	-0.084807	0.556196
H95	H	-1.909796	-0.082909	0.521903
H96	H	-2.013393	-0.125566	0.590992
H97	H	-1.986334	-0.043630	0.578063
C98	C	-1.520168	-0.099321	-0.428869
H99	H	-1.570132	-0.098624	-0.380686
H100	H	-1.456290	-0.059849	-0.445892
H101	H	-1.495531	-0.141771	-0.432840
H102	H	-1.735005	0.256208	0.205098
C103	C	-1.902227	-0.732098	0.202757
H104	H	-1.854126	-0.762091	0.200136
H105	H	-1.919363	-0.709975	0.243634
H106	H	-1.864855	-0.696974	0.161764
C107	C	-2.226973	-0.082734	0.006351
H108	H	-2.252712	-0.080791	-0.027957
H109	H	-2.232985	-0.041514	0.028150
H110	H	-2.272213	-0.123436	0.041197
C111	C	-1.726960	-0.082748	0.006324
H112	H	-1.752674	-0.080804	-0.027997
H113	H	-1.733000	-0.041533	0.028130
H114	H	-1.772203	-0.123456	0.041162
H115	H	-2.267172	-0.756926	0.219006
H116	H	-2.157777	-0.650818	0.143013
C117	C	-1.608013	-0.083360	-0.146938
H118	H	-1.683690	-0.081146	-0.116888
H119	H	-1.609059	-0.124291	-0.169034
H120	H	-1.569842	-0.042369	-0.182081
H121	H	-1.557082	0.315964	0.211717
H122	H	-1.425976	0.243304	0.217794
H123	H	-1.472794	0.110889	0.217258
C124	C	-1.691351	-0.297107	0.220710
H125	H	-1.753352	-0.331422	0.222671
H126	H	-1.661052	-0.262262	0.180013
H127	H	-1.716786	-0.275308	0.261934
C128	C	-1.337891	-0.435411	0.205388
H129	H	-1.361831	-0.484612	0.205684
H130	H	-1.325227	-0.428516	0.244953
H131	H	-1.269507	-0.415465	0.163032
C132	C	-1.886866	-0.085270	0.402908
H133	H	-1.852630	-0.083060	0.432980
H134	H	-1.851329	-0.044287	0.367759
H135	H	-1.878152	-0.126210	0.380822
H136	H	-1.831934	-0.293369	0.205767
C137	C	-1.401278	-0.099961	-0.582129
H138	H	-1.375549	-0.101920	-0.547817
H139	H	-1.356025	-0.059268	-0.616978
H140	H	-1.395284	-0.141189	-0.603922
C141	C	-2.228221	-0.091651	0.640274
H142	H	-2.170696	-0.088993	0.654155
H143	H	-2.286288	-0.133833	0.664622
H144	H	-2.259487	-0.051911	0.651569
C145	C	-1.695219	-0.010232	-0.219294
H146	H	-1.619672	0.012555	-0.253757
H147	H	-1.693797	-0.041321	-0.184511
H148	H	-1.733763	0.024304	-0.197456
C149	C	-2.138791	-0.506926	0.132757
H150	H	-2.121289	-0.458707	0.138086
H151	H	-2.218403	-0.523614	0.150429
H152	H	-2.100782	-0.511164	0.084102
H153	H	-2.091837	-0.084334	-0.135467
H154	H	-2.339615	-0.098364	0.559666
H155	H	-1.885643	-0.096483	0.009880
H156	H	-1.385643	-0.096468	0.009893
C157	C	-1.725123	-0.450353	0.220083
H158	H	-1.772924	-0.420281	0.222285
H159	H	-1.763114	-0.485495	0.261071
H160	H	-1.707350	-0.472448	0.179149
H161	H	-1.782927	-0.097021	-0.122523
C162	C	-1.955730	-0.522523	0.292109
H163	H	-1.936839	-0.556919	0.314562
H164	H	-2.006628	-0.500702	0.326876
H165	H	-1.888674	-0.487712	0.260730
H166	H	-1.742602	-0.086228	-0.585663
H167	H	-1.282897	-0.096996	-0.122500
H168	H	-1.999595	-0.664288	0.280672
C169	C	-2.192283	-0.297345	0.222098
H170	H	-2.168295	-0.248124	0.221695
H171	H	-2.260238	-0.317316	0.264693
H172	H	-2.205723	-0.304319	0.182822
C173	C	-1.369772	-0.091011	-0.216057
H174	H	-1.294077	-0.093668	-0.229914
H175	H	-1.368777	-0.048831	-0.240418
H176	H	-1.408014	-0.130753	-0.227363
H177	H	-1.960116	-0.875976	0.203349
H178	H	-2.254568	-0.098917	0.427275
C179	C	-1.576266	-0.010969	-0.372533
H180	H	-1.550642	-0.016704	-0.420673
H181	H	-1.530783	-0.027997	-0.355627
H182	H	-1.570481	0.037724	-0.368651
C183	C	-1.809838	0.114407	0.203509
H184	H	-1.849156	0.148723	0.201547
H185	H	-1.857553	0.079559	0.244201
H186	H	-1.789344	0.092613	0.162281
C187	C	-1.548404	-0.519519	0.212431
H188	H	-1.620156	-0.538650	0.214944
H189	H	-1.545862	-0.541242	0.252028
H190	H	-1.490125	-0.528191	0.170107
C191	C	-1.933046	-0.172462	-0.356480
H192	H	-2.008602	-0.195229	-0.322017
H193	H	-1.894529	-0.207001	-0.378326
H194	H	-1.934458	-0.141355	-0.391257
C195	C	-2.051926	-0.171836	-0.203221
H196	H	-2.077536	-0.194894	-0.233126
H197	H	-2.097529	-0.140508	-0.181054
H198	H	-2.057548	-0.206132	-0.168128
H199	H	-2.197255	-0.439129	0.220328
H200	H	-1.861066	-0.425774	0.205220
H201	H	-1.332745	-0.293590	0.206970
H202	H	-1.845314	-0.085668	-0.453260
