data_functionalizedCrystal
_audit_creation_method	'MofGen! by Chris Wilmer'
_symmetry_space_group_name_H-M	'P1'
_symmetry_Int_Tables_number	1
_symmetry_cell_setting	triclinic
loop_
_symmetry_equiv_pos_as_xyz
  x,y,z
_cell_length_a	23.196402
_cell_length_b	16.704494
_cell_length_c	23.196401
_cell_angle_alpha	90.013666
_cell_angle_beta	60.008822
_cell_angle_gamma	56.632774
loop_
_atom_site_label
_atom_site_type_symbol
_atom_site_fract_x
_atom_site_fract_y
_atom_site_fract_z
Zr1	Zr	0.570728	0.815205	-0.045488
O2	O	0.700986	0.680059	-0.142531
O3	O	0.447399	0.856632	-0.015743
O4	O	0.567669	0.856594	-0.136010
O5	O	0.580713	0.680130	0.072608
O6	O	0.557373	0.995852	-0.130861
O7	O	0.580717	0.680096	-0.022265
O8	O	0.342233	0.995919	0.084274
O9	O	0.795853	0.680063	-0.142527
O10	O	0.487876	0.978230	0.000789
O11	O	0.495557	0.874329	0.067750
O12	O	0.637159	0.874285	-0.073849
O13	O	0.644840	0.770383	-0.006889
Zr14	Zr	0.554301	1.037359	0.114034
Zr15	Zr	0.554307	1.037306	-0.037277
Zr16	Zr	0.570722	0.815259	0.105822
Zr17	Zr	0.722030	0.815212	-0.045482
Zr18	Zr	0.402999	1.037353	0.114027
O19	O	0.677629	0.995933	0.084289
O20	O	0.677638	0.995857	-0.130856
O21	O	0.700977	0.680135	0.072613
O22	O	0.424042	1.172506	0.211077
O23	O	0.424051	1.172430	-0.004068
O24	O	0.447390	0.856707	0.199401
O25	O	0.544316	1.172435	-0.004063
O26	O	0.557360	0.995970	0.204555
O27	O	0.567655	0.856712	0.199407
O28	O	0.544312	1.172468	0.090810
O29	O	0.782801	0.856603	-0.136000
O30	O	0.342228	0.995962	0.204546
O31	O	0.329175	1.172502	0.211073
O32	O	0.329180	1.172460	0.090801
O33	O	0.795848	0.680105	-0.022255
O34	O	0.782796	0.856645	-0.015728
O35	O	0.487870	0.978280	0.142394
O36	O	0.480189	1.082182	0.075434
O37	O	0.629472	0.978236	0.000796
O38	O	0.637153	0.874334	0.067756
C39	C	0.373259	0.926275	0.034264
C40	C	0.309027	0.926272	0.034261
C41	C	0.274848	0.980501	-0.000694
C42	C	0.214486	0.980511	-0.000688
C43	C	0.188319	0.926272	0.034263
C44	C	0.222502	0.872041	0.069227
C45	C	0.282856	0.872041	0.069226
C46	C	0.133008	0.835402	0.025629
C47	C	0.072659	0.835399	0.025625
C48	C	0.002164	0.926273	0.034270
C49	C	-0.007967	1.017149	0.042906
C50	C	0.052387	1.017150	0.042905
C51	C	0.122875	0.926266	0.034269
C52	C	-0.097467	0.980517	-0.000680
C53	C	-0.157834	0.980530	-0.000669
C54	C	-0.149810	0.872051	0.069241
C55	C	-0.089451	0.872048	0.069235
C56	C	-0.063281	0.926279	0.034270
C57	C	0.583054	0.648468	0.024002
C58	C	0.590025	0.554181	0.020516
C59	C	0.447259	0.485532	0.091905
C60	C	0.453805	0.396944	0.088632
C61	C	0.609662	0.288414	0.010700
C62	C	0.603116	0.377003	0.013973
C63	C	0.521912	0.475561	0.054576
C64	C	0.515367	0.564151	0.057845
C65	C	0.671223	0.455620	-0.020082
C66	C	0.677769	0.367031	-0.023355
C67	C	0.751770	0.926290	0.034281
C68	C	0.816002	0.926293	0.034284
C69	C	0.562522	0.926216	-0.154994
C70	C	0.562525	0.926193	-0.219230
C71	C	0.541975	1.204096	0.044544
C72	C	0.535004	1.298384	0.048030
C73	C	0.640446	0.871940	-0.288363
C74	C	0.640446	0.871966	-0.348717
C75	C	0.562520	0.926232	-0.339934
C76	C	0.484588	0.980497	-0.270789
C77	C	0.484590	0.980478	-0.210436
C78	C	0.506462	0.918524	-0.407539
C79	C	0.506463	0.918535	-0.467892
C80	C	0.562509	0.926297	-0.526080
C81	C	0.618569	0.934027	-0.523914
C82	C	0.618571	0.934007	-0.463562
C83	C	0.562509	0.926259	-0.405372
C84	C	0.640435	0.872070	-0.660659
C85	C	0.640430	0.872103	-0.721012
C86	C	0.484571	0.980628	-0.643082
C87	C	0.484577	0.980601	-0.582730
C88	C	0.562512	0.926316	-0.591524
C89	C	0.562507	0.926349	0.223540
C90	C	0.562504	0.926371	0.287775
C91	C	0.352719	1.204088	0.044535
C92	C	0.281516	1.298373	0.048018
C93	C	0.373251	0.926341	0.223531
C94	C	0.309017	0.926361	0.287764
C95	C	0.352711	1.204155	0.233802
C96	C	0.281506	1.298462	0.301521
C97	C	0.772318	0.648410	-0.165257
C98	C	0.843523	0.554102	-0.232975
C99	C	0.772310	0.648476	0.024010
C100	C	0.843513	0.554191	0.020527
C101	C	0.751778	0.926223	-0.154986
C102	C	0.816012	0.926203	-0.219218
C103	C	0.252091	1.288389	0.010684
C104	C	0.185198	1.376971	0.013942
C105	C	0.147726	1.475537	0.054539
C106	C	0.177158	1.485519	0.091875
C107	C	0.244054	1.396938	0.088612
C108	C	0.274839	0.980632	0.356898
C109	C	0.214493	0.980647	0.417257
C110	C	0.188321	0.926396	0.408480
C111	C	0.222505	0.872118	0.339339
C112	C	0.282854	0.872098	0.278981
C113	C	0.244057	1.396995	0.298370
C114	C	0.177160	1.485615	0.361993
C115	C	0.147709	1.475701	0.428766
C116	C	0.185164	1.377158	0.431915
C117	C	0.252064	1.288540	0.368293
C118	C	0.880979	0.455569	-0.229824
C119	C	0.947895	0.366949	-0.293448
C120	C	0.977350	0.376864	-0.360221
C121	C	0.939890	0.475407	-0.363370
C122	C	0.872980	0.564025	-0.299748
C123	C	0.872944	0.564176	0.057855
C124	C	0.939854	0.475594	0.054580
C125	C	0.977328	0.377028	0.013981
C126	C	0.947893	0.367045	-0.023352
C127	C	0.880989	0.455627	-0.020081
C128	C	0.842165	0.980465	-0.210419
C129	C	0.902510	0.980466	-0.270765
C130	C	0.936707	0.926200	-0.339912
C131	C	0.910549	0.871937	-0.348710
C132	C	0.850200	0.871942	-0.288364
H133	H	0.044134	1.091145	0.049938
H134	H	0.296141	1.024810	0.364058
C135	C	0.398868	1.040233	-0.506682
H136	H	0.410030	1.032444	-0.471996
H137	H	0.370501	1.013424	-0.502413
H138	H	0.363199	1.111622	-0.498714
C139	C	-0.068691	1.040187	-0.039124
H140	H	-0.097706	1.072501	-0.059931
H141	H	-0.008251	0.993357	-0.075831
H142	H	-0.082384	1.091534	-0.005319
H143	H	0.857028	0.447483	-0.050476
C144	C	0.848592	0.444648	-0.156381
H145	H	0.803372	0.511532	-0.118934
H146	H	0.894639	0.407849	-0.152446
H147	H	0.827771	0.407832	-0.152451
C148	C	0.303625	1.040162	-0.039146
H149	H	0.274615	1.072468	-0.059958
H150	H	0.364067	0.993329	-0.075849
H151	H	0.289930	1.091517	-0.005344
H152	H	-0.065372	1.091151	0.049954
H153	H	-0.171115	0.827889	0.097699
C154	C	0.972285	0.486305	-0.436821
H155	H	0.940401	0.557679	-0.429593
H156	H	0.964785	0.453976	-0.463089
H157	H	1.031657	0.453994	-0.463093
H158	H	0.732011	0.447506	-0.050480
C159	C	0.371687	0.407915	0.129690
H160	H	0.322391	0.479301	0.154335
H161	H	0.371001	0.375621	0.163468
H162	H	0.371001	0.375604	0.096591
C163	C	0.989114	0.258621	-0.068002
H164	H	1.033167	0.207303	-0.064592
H165	H	1.013240	0.250813	-0.116914
H166	H	0.946361	0.250849	-0.050030
C167	C	0.293303	1.179976	-0.033977
H168	H	0.337356	1.128640	-0.030575
H169	H	0.317427	1.172191	-0.082886
H170	H	0.250546	1.172211	-0.016014
H171	H	0.186667	1.024850	0.473550
C172	C	0.293242	1.180159	0.371768
H173	H	0.266109	1.186956	0.420649
H174	H	0.352945	1.143319	0.348404
H175	H	0.286056	1.143345	0.348406
C176	C	0.726160	0.812283	-0.424774
H177	H	0.714995	0.820076	-0.459457
H178	H	0.761805	0.740905	-0.432721
H179	H	0.754555	0.839067	-0.429067
H180	H	0.814330	1.024655	-0.154122
H181	H	0.161175	1.369100	0.486291
C182	C	0.989081	0.258566	-0.289971
H183	H	0.961942	0.265361	-0.241090
H184	H	1.048781	0.221738	-0.313325
H185	H	0.981912	0.221740	-0.313342
C186	C	0.121931	0.926433	0.474878
H187	H	0.105322	0.966537	0.517308
H188	H	0.146814	0.857323	0.472337
H189	H	0.072686	0.955490	0.475961
H190	H	0.268003	1.405082	0.119019
C191	C	0.074121	1.573183	0.498747
H192	H	0.061944	1.553174	0.538970
H193	H	0.024073	1.613263	0.500226
H194	H	0.090958	1.613249	0.500221
C195	C	0.193699	0.812461	0.329694
H196	H	0.152854	0.820265	0.375547
H197	H	0.242290	0.741079	0.301980
H198	H	0.168160	0.839260	0.305616
H199	H	0.186652	1.024672	-0.029153
C200	C	0.726154	0.812371	-0.670322
H201	H	0.714997	0.820117	-0.624477
H202	H	0.754545	0.839160	-0.694391
H203	H	0.761800	0.740995	-0.698053
H204	H	0.923801	1.024652	-0.263588
C205	C	0.821449	0.812237	-0.298053
H206	H	0.850470	0.779911	-0.347878
H207	H	0.761009	0.859048	-0.274320
H208	H	0.835153	0.760896	-0.277950
H209	H	0.449246	0.644398	0.090911
H210	H	1.031833	0.304697	-0.412021
C211	C	0.831753	0.672408	-0.303219
H212	H	0.787680	0.723774	-0.255768
H213	H	0.807651	0.680121	-0.328017
H214	H	0.874493	0.680197	-0.328008
H215	H	0.190416	0.761391	0.018574
H216	H	0.161243	1.368823	-0.016461
C217	C	0.972212	0.486593	0.095656
H218	H	0.940297	0.557983	0.120313
H219	H	1.031577	0.454296	0.062572
H220	H	0.964704	0.454299	0.129438
H221	H	0.080916	0.761401	0.018590
H222	H	0.985846	0.926204	-0.389043
H223	H	0.310674	0.827908	0.222691
C224	C	0.831734	0.672586	0.102518
H225	H	0.858859	0.665831	0.124271
H226	H	0.772034	0.709411	0.138854
H227	H	0.838907	0.709392	0.071975
H228	H	0.460819	0.912236	-0.469651
C229	C	0.948178	0.812239	-0.424773
H230	H	0.987872	0.820003	-0.459447
H231	H	0.902884	0.839009	-0.429094
H232	H	0.977013	0.740860	-0.432707
C233	C	0.680222	0.942524	-0.461175
H234	H	0.713599	0.947158	-0.504468
H235	H	0.717376	0.882932	-0.456215
H236	H	0.647718	1.002759	-0.421369
H237	H	0.421122	1.024814	-0.635929
C238	C	0.135963	1.593999	0.358516
H239	H	0.163077	1.587204	0.309635
H240	H	0.143134	1.630832	0.381875
H241	H	0.076258	1.630819	0.381884
C242	C	-0.195431	1.040184	-0.039123
H243	H	-0.171191	1.072471	-0.059950
H244	H	-0.256205	1.091535	-0.005328
H245	H	-0.182073	0.993336	-0.075826
H246	H	0.381139	0.565781	0.124970
C247	C	0.276447	1.407916	0.224926
H248	H	0.321650	1.341032	0.187479
H249	H	0.297273	1.444720	0.220995
H250	H	0.230395	1.444728	0.220992
C251	C	1.050918	0.279598	0.010391
H252	H	1.063070	0.299670	0.038444
H253	H	1.100977	0.239500	-0.038173
H254	H	1.034098	0.239526	0.028704
H255	H	-0.061619	0.827885	0.097696
H256	H	0.310686	0.827879	0.097691
C257	C	0.193724	0.812376	0.107669
H258	H	0.152890	0.820133	0.102657
H259	H	0.168197	0.839181	0.157282
H260	H	0.242333	0.740996	0.086775
H261	H	0.743883	0.286775	-0.056410
C262	C	0.698976	0.179998	-0.033958
H263	H	0.692178	0.128670	-0.030562
H264	H	0.729928	0.172226	-0.016000
H265	H	0.729918	0.172208	-0.082872
H266	H	0.703907	0.827741	-0.295529
C267	C	0.680209	0.942589	-0.587907
H268	H	0.672170	0.941512	-0.624157
H269	H	0.738067	0.885866	-0.606956
H270	H	0.668400	1.005691	-0.572086
C271	C	0.726147	0.812420	-0.797063
H272	H	0.714985	0.820213	-0.831749
H273	H	0.761788	0.741041	-0.805009
H274	H	0.754543	0.839200	-0.801354
C275	C	0.398871	1.040177	-0.261123
H276	H	0.352461	1.072490	-0.211302
H277	H	0.399264	0.993353	-0.284875
H278	H	0.391997	1.091527	-0.281217
C279	C	0.444799	0.910002	-0.343529
H280	H	0.452819	0.911113	-0.307271
H281	H	0.456581	0.846917	-0.359325
H282	H	0.386946	0.966746	-0.324492
H283	H	0.421135	1.024659	-0.154143
C284	C	0.074135	1.572967	0.058130
H285	H	0.061976	1.552894	0.030084
H286	H	0.090943	1.613048	0.039826
H287	H	0.024075	1.613055	0.106699
H288	H	0.146639	1.565783	0.124928
