data_functionalizedCrystal
_audit_creation_method	'MofGen! by Chris Wilmer'
_symmetry_space_group_name_H-M	'P1'
_symmetry_Int_Tables_number	1
_symmetry_cell_setting	triclinic
loop_
_symmetry_equiv_pos_as_xyz
  x,y,z
_cell_length_a	19.805399
_cell_length_b	21.395362
_cell_length_c	21.395361
_cell_angle_alpha	89.953415
_cell_angle_beta	89.967690
_cell_angle_gamma	90.035332
loop_
_atom_site_label
_atom_site_type_symbol
_atom_site_fract_x
_atom_site_fract_y
_atom_site_fract_z
Zn1	Zn	-0.383037	-0.957806	-0.249179
Zn2	Zn	-0.269842	-0.957724	-0.353958
Zn3	Zn	-0.269825	-0.853037	-0.249228
Zn4	Zn	-0.382953	-0.852990	-0.353952
O5	O	-0.326414	-0.905390	-0.301579
O6	O	-0.368064	-1.045473	-0.263060
O7	O	-0.175124	-0.943823	-0.340089
O8	O	-0.284871	-0.866989	-0.161543
O9	O	-0.284900	-1.045413	-0.340042
O10	O	-0.368048	-0.943962	-0.161507
O11	O	-0.175111	-0.866909	-0.263144
O12	O	-0.284789	-0.765353	-0.263137
O13	O	-0.477681	-0.866909	-0.340030
O14	O	-0.367904	-0.765319	-0.340077
O15	O	-0.477743	-0.943917	-0.263054
O16	O	-0.284819	-0.943778	-0.441635
O17	O	-0.367920	-0.866830	-0.441630
C18	C	-0.326336	-0.742602	-0.301612
C19	C	-0.326318	-0.672961	-0.301642
C20	C	-0.326377	-0.905307	-0.464367
C21	C	-0.326383	-0.905329	-0.534008
C22	C	-0.502957	-0.905417	-0.301536
C23	C	-0.578189	-0.905429	-0.301517
C24	C	-0.613526	-0.865391	-0.261448
C25	C	-0.684215	-0.865400	-0.261436
C26	C	-0.719565	-0.905450	-0.301490
C27	C	-0.684223	-0.945489	-0.341564
C28	C	-0.613536	-0.945477	-0.341578
C29	C	-0.969296	-0.945539	-0.341505
C30	C	-1.039989	-0.945549	-0.341486
C31	C	-1.039976	-0.865462	-0.261362
C32	C	-0.969288	-0.865450	-0.261377
C33	C	-0.933952	-0.905486	-0.301453
C34	C	-0.857304	-0.905476	-0.301466
C35	C	-0.796212	-0.905464	-0.301474
C36	C	-0.150558	-0.905398	-0.301577
C37	C	-0.075327	-0.905508	-0.301419
C38	C	-0.326494	-1.068813	-0.301546
C39	C	-0.326527	-1.138454	-0.301532
C40	C	-0.369531	-0.640246	-0.341757
C41	C	-0.369561	-0.574811	-0.341742
C42	C	-0.326367	-0.542092	-0.301617
C43	C	-0.283151	-0.574815	-0.261494
C44	C	-0.283127	-0.640249	-0.261506
C45	C	-0.265434	-0.438376	-0.296581
C46	C	-0.265456	-0.372943	-0.296573
C47	C	-0.326441	-0.340272	-0.301576
C48	C	-0.387405	-0.373041	-0.306601
C49	C	-0.387381	-0.438475	-0.306613
C50	C	-0.326388	-0.471140	-0.301600
C51	C	-0.369690	-0.236605	-0.341678
C52	C	-0.369722	-0.171168	-0.341658
C53	C	-0.283305	-0.171173	-0.261413
C54	C	-0.283280	-0.236609	-0.261430
C55	C	-0.326472	-0.269320	-0.301565
C56	C	-0.283157	-0.945431	-0.566703
C57	C	-0.283172	-0.945460	-0.632138
C58	C	-0.326407	-0.905376	-0.664876
C59	C	-0.369642	-0.865271	-0.632173
C60	C	-0.369630	-0.865247	-0.566739
C61	C	-0.331690	-0.848960	-0.768606
C62	C	-0.331697	-0.848983	-0.834039
C63	C	-0.326446	-0.905449	-0.866697
C64	C	-0.321175	-0.961894	-0.833914
C65	C	-0.321163	-0.961870	-0.768480
C66	C	-0.326424	-0.905397	-0.735829
C67	C	-0.283234	-0.945586	-0.970344
C68	C	-0.283254	-0.945616	-1.035781
C69	C	-0.369720	-0.865421	-1.035815
C70	C	-0.369704	-0.865397	-0.970380
C71	C	-0.326457	-0.905478	-0.937648
C72	C	-0.326467	-0.905490	-0.138156
C73	C	-0.326490	-0.905532	-0.068514
H74	H	-0.712983	-0.832795	-0.228810
C75	C	-0.378978	-0.097500	-0.425929
C76	C	-0.417225	-0.135202	-0.385755
H77	H	-0.408306	-0.075293	-0.453149
H78	H	-0.349435	-0.122975	-0.449863
H79	H	-0.353262	-0.068655	-0.402017
H80	H	-0.442936	-0.164050	-0.409666
H81	H	-0.446780	-0.109725	-0.361819
H82	H	-0.404702	-0.666876	-0.374438
H83	H	-1.068769	-0.978164	-0.374105
C84	C	-0.280264	-0.778799	-0.695137
C85	C	-0.337463	-0.786886	-0.732714
H86	H	-0.283833	-0.740480	-0.672979
H87	H	-0.241041	-0.778018	-0.720691
H88	H	-0.277135	-0.812412	-0.666250
H89	H	-0.340590	-0.753275	-0.761605
H90	H	-0.376697	-0.787662	-0.707158
C91	C	-0.168720	-0.256685	-0.230783
C92	C	-0.235772	-0.272573	-0.217339
H93	H	-0.139391	-0.278892	-0.203563
H94	H	-0.162558	-0.213039	-0.225030
H95	H	-0.158736	-0.267361	-0.272872
H96	H	-0.245758	-0.261893	-0.175251
H97	H	-0.241937	-0.316230	-0.223087
C98	C	-0.505164	-0.829812	-0.225888
C99	C	-0.574672	-0.821368	-0.217418
H100	H	-0.481180	-0.802634	-0.198703
H101	H	-0.493563	-0.820613	-0.267985
H102	H	-0.493610	-0.871915	-0.216711
H103	H	-0.586228	-0.779266	-0.226600
H104	H	-0.586278	-0.830562	-0.175311
C105	C	-0.244940	-0.070873	-0.225794
C106	C	-0.235803	-0.135217	-0.217326
H107	H	-0.215604	-0.048675	-0.198582
H108	H	-0.290427	-0.060194	-0.216656
H109	H	-0.234973	-0.060115	-0.267886
H110	H	-0.245775	-0.145976	-0.175235
H111	H	-0.190306	-0.145901	-0.226459
C112	C	-0.706022	-1.051567	-0.372062
C113	C	-0.723077	-0.989513	-0.385593
H114	H	-0.730006	-1.078746	-0.399247
H115	H	-0.717628	-1.060761	-0.329966
H116	H	-0.658864	-1.057281	-0.377808
H117	H	-0.770234	-0.983798	-0.379843
H118	H	-0.711475	-0.980316	-0.427700
H119	H	-0.404845	-0.832635	-0.658833
C120	C	-0.976378	-0.786279	-0.182179
C121	C	-0.930432	-0.821424	-0.217351
H122	H	-0.952389	-0.759096	-0.155003
H123	H	-1.003967	-0.813596	-0.158200
H124	H	-1.003930	-0.762304	-0.209484
H125	H	-0.902883	-0.845403	-0.190046
H126	H	-0.902832	-0.794104	-0.241331
H127	H	-0.215816	-0.346267	-0.292485
C128	C	-0.484198	-0.834650	-0.546551
C129	C	-0.417145	-0.821160	-0.530798
H130	H	-0.513530	-0.807429	-0.524363
H131	H	-0.494153	-0.876732	-0.535766
H132	H	-0.490386	-0.828927	-0.590207
H133	H	-0.410956	-0.826888	-0.487142
H134	H	-0.407187	-0.779068	-0.541578
H135	H	-0.404753	-0.548169	-0.374409
C136	C	-0.402553	-0.759313	-1.056060
C137	C	-0.417247	-0.821360	-1.071792
H138	H	-0.431900	-0.732114	-1.078271
H139	H	-0.357072	-0.750179	-1.066830
H140	H	-0.408732	-0.753566	-1.012409
H141	H	-0.411063	-0.827109	-1.115443
H142	H	-0.462739	-0.830498	-1.061026
H143	H	-0.940534	-0.978132	-0.374144
C144	C	-0.591751	-0.975924	-0.447671
C145	C	-0.574690	-0.989486	-0.385624
H146	H	-0.567772	-1.003096	-0.474864
H147	H	-0.580142	-0.933823	-0.456844
H148	H	-0.638909	-0.981667	-0.453386
H149	H	-0.527532	-0.983739	-0.379908
H150	H	-0.586294	-1.031597	-0.376448
C151	C	-0.507927	-0.432008	-0.316514
C152	C	-0.454389	-0.474496	-0.312126
H153	H	-0.549295	-0.454247	-0.319911
H154	H	-0.501920	-0.406448	-0.352409
H155	H	-0.508880	-0.406520	-0.280190
H156	H	-0.453432	-0.499981	-0.348452
H157	H	-0.460398	-0.500066	-0.276227
H158	H	-1.068755	-0.832860	-0.228733
H159	H	-0.437065	-0.346441	-0.310674
C160	C	-0.484266	-0.834793	-0.950195
C161	C	-0.417214	-0.821307	-0.934439
H162	H	-0.513597	-0.807569	-0.928009
H163	H	-0.494224	-0.876874	-0.939410
H164	H	-0.490452	-0.829070	-0.993851
H165	H	-0.411027	-0.827034	-0.890783
H166	H	-0.407252	-0.779215	-0.945220
C167	C	-0.455120	-0.230029	-0.420986
C168	C	-0.417175	-0.272566	-0.385785
H169	H	-0.484438	-0.252231	-0.448212
H170	H	-0.425595	-0.204459	-0.444914
H171	H	-0.481070	-0.204557	-0.393704
H172	H	-0.391220	-0.298036	-0.413067
H173	H	-0.446704	-0.298148	-0.361855
H174	H	-0.215769	-0.464972	-0.292503
H175	H	-0.247983	-0.548171	-0.228823
H176	H	-0.247944	-0.978069	-0.540055
C177	C	-0.197709	-0.633680	-0.182189
C178	C	-0.235618	-0.676213	-0.217413
H179	H	-0.168375	-0.655885	-0.154972
H180	H	-0.227257	-0.608213	-0.158251
H181	H	-0.171777	-0.608104	-0.209457
H182	H	-0.261554	-0.701786	-0.190144
H183	H	-0.206067	-0.701690	-0.241352
C184	C	-0.197688	-1.024713	-0.625539
C185	C	-0.235649	-0.989539	-0.668087
H186	H	-0.168346	-1.051921	-0.647732
H187	H	-0.227201	-1.048658	-0.599973
H188	H	-0.171762	-0.997413	-0.600063
H189	H	-0.261579	-1.016839	-0.693560
H190	H	-0.206131	-0.965592	-0.693663
C191	C	-0.254682	-1.053483	-0.748266
C192	C	-0.315377	-1.023913	-0.732446
H193	H	-0.251116	-1.091787	-0.726022
H194	H	-0.217831	-1.027149	-0.737595
H195	H	-0.253944	-1.061576	-0.791910
H196	H	-0.316113	-1.015815	-0.688802
H197	H	-0.352238	-1.050253	-0.743113
C198	C	-0.372621	-1.032057	-0.907363
C199	C	-0.315413	-1.023972	-0.869798
H200	H	-0.369065	-1.070382	-0.929513
H201	H	-0.375753	-0.998453	-0.936251
H202	H	-0.411843	-1.032829	-0.881797
H203	H	-0.276191	-1.023195	-0.895364
H204	H	-0.312274	-1.057584	-0.840906
C205	C	-0.168658	-0.976169	-0.950242
C206	C	-0.235703	-0.989646	-0.934360
H207	H	-0.139316	-1.003373	-0.928030
H208	H	-0.158698	-0.934078	-0.939575
H209	H	-0.162489	-0.981928	-0.993893
H210	H	-0.241873	-0.983882	-0.890710
H211	H	-0.245667	-1.031747	-0.945023
C212	C	-0.250453	-1.051749	-1.055743
C213	C	-0.235737	-0.989731	-1.071687
H214	H	-0.221115	-1.078991	-1.077898
H215	H	-0.295937	-1.060887	-1.066438
H216	H	-0.244276	-1.057431	-1.012080
H217	H	-0.241919	-0.984048	-1.115349
H218	H	-0.190242	-0.980590	-1.060997
C219	C	-0.342110	-0.737374	-0.827590
C220	C	-0.337491	-0.786940	-0.870071
H221	H	-0.345691	-0.699072	-0.849835
H222	H	-0.302874	-0.736573	-0.802096
H223	H	-0.380906	-0.742860	-0.802036
H224	H	-0.298692	-0.781457	-0.895622
H225	H	-0.376732	-0.787741	-0.895576
