data_functionalizedCrystal
_audit_creation_method	'MofGen! by Chris Wilmer'
_symmetry_space_group_name_H-M	'P1'
_symmetry_Int_Tables_number	1
_symmetry_cell_setting	triclinic
loop_
_symmetry_equiv_pos_as_xyz
  x,y,z
_cell_length_a	6.817900
_cell_length_b	11.102288
_cell_length_c	13.212919
_cell_angle_alpha	87.857017
_cell_angle_beta	106.298290
_cell_angle_gamma	108.605689
loop_
_atom_site_label
_atom_site_type_symbol
_atom_site_fract_x
_atom_site_fract_y
_atom_site_fract_z
V1	V	-4.063263	-0.138431	-0.325527
O2	O	-4.023214	0.045146	-0.319330
O3	O	-4.040370	-0.311507	-0.323300
O4	O	-4.018993	-0.119411	-0.467500
O5	O	-4.044740	-0.148280	-0.174132
V6	V	-4.543051	-0.118469	-0.307418
O7	O	-4.332715	-0.182220	-0.365248
O8	O	-4.723796	-0.074680	-0.267697
O9	O	-4.342737	0.054607	-0.309645
O10	O	-4.700496	-0.302046	-0.313615
O11	O	-4.678971	-0.108620	-0.458813
O12	O	-4.364114	-0.137489	-0.165445
C13	C	-3.891443	-0.354227	-0.318165
C14	C	-3.954039	-0.495610	-0.317291
C15	C	-3.864173	-0.109188	-0.502104
C16	C	-3.909429	-0.094783	-0.618168
C17	C	-4.166683	-0.567907	-0.322089
C18	C	-4.225491	-0.700752	-0.321276
C19	C	-3.858989	-0.688991	-0.310862
C20	C	-3.800188	-0.556149	-0.311683
C21	C	-4.110441	-0.297084	-0.866095
C22	C	-4.152966	-0.283555	-0.975148
C23	C	-4.037022	-0.054197	-0.945331
C24	C	-3.994497	-0.067726	-0.836277
C25	C	-4.031207	-0.189174	-0.796664
C26	C	-3.988665	-0.202701	-0.687608
C27	C	-3.872737	0.026655	-0.657793
C28	C	-3.915263	0.040184	-0.766846
C29	C	-4.155008	0.097320	-0.314777
C30	C	-4.071649	0.238703	-0.315658
C31	C	-4.182277	-0.147716	-0.130835
C32	C	-4.116258	-0.162115	-0.014770
H33	H	-4.291962	-0.518621	-0.326654
F34	F	-4.451813	-0.777691	-0.326386
F35	F	-3.695263	-0.753431	-0.304889
H36	H	-3.627024	-0.497283	-0.307779
F37	F	-3.876204	0.169430	-0.809018
H38	H	-3.808193	0.114525	-0.601249
F39	F	-3.997977	0.075045	-0.987509
F40	F	-4.027725	-0.331954	-0.645449
H41	H	-4.140307	-0.395970	-0.833840
F42	F	-4.237301	-0.398409	-1.049039
