data_functionalizedCrystal
_audit_creation_method	'MofGen! by Chris Wilmer'
_symmetry_space_group_name_H-M	'P1'
_symmetry_Int_Tables_number	1
_symmetry_cell_setting	triclinic
loop_
_symmetry_equiv_pos_as_xyz
  x,y,z
_cell_length_a	19.288864
_cell_length_b	15.500361
_cell_length_c	19.288857
_cell_angle_alpha	92.829420
_cell_angle_beta	83.134677
_cell_angle_gamma	87.195348
loop_
_atom_site_label
_atom_site_type_symbol
_atom_site_fract_x
_atom_site_fract_y
_atom_site_fract_z
O1	O	0.918099	0.072224	0.089894
O2	O	0.715841	0.072165	0.101580
O3	O	0.822818	0.072186	-0.005394
O4	O	0.811123	0.072203	0.196868
O5	O	0.829276	-0.071699	-0.011864
O6	O	0.722299	-0.071719	0.095110
O7	O	0.924558	-0.071661	0.083424
Cu8	Cu	0.824018	-0.084828	0.088676
Cu9	Cu	0.816381	0.085332	0.096328
O10	O	0.817581	-0.071681	0.190398
C11	C	0.693194	0.000215	0.097969
C12	C	0.616092	0.000192	0.096839
N13	N	0.829395	-0.204509	0.083294
C14	C	0.571393	0.000211	0.159608
C15	C	0.498945	0.000221	0.158547
C16	C	0.471199	0.000229	0.094715
C17	C	0.515908	0.000205	0.031938
C18	C	0.588354	0.000187	0.033000
C19	C	0.360675	0.050663	0.046804
C20	C	0.288229	0.050686	0.045745
C21	C	0.247751	0.000281	0.091438
C22	C	0.279726	-0.050137	0.138202
C23	C	0.352172	-0.050155	0.139264
C24	C	0.392644	0.000248	0.093557
C25	C	0.124496	0.000309	0.153062
C26	C	0.052048	0.000313	0.151998
C27	C	0.069012	0.000306	0.025388
C28	C	0.141459	0.000293	0.026452
C29	C	0.169196	0.000299	0.090291
C30	C	0.784057	-0.249816	0.128606
C31	C	0.788144	-0.340386	0.124532
C32	C	0.837565	-0.385648	0.075144
C33	C	0.882908	-0.340335	0.029831
C34	C	0.878824	-0.249766	0.033908
C35	C	0.852268	-0.659105	0.060468
C36	C	0.856347	-0.749680	0.056393
C37	C	0.761583	-0.749725	0.151096
C38	C	0.757501	-0.659155	0.155166
C39	C	0.802846	-0.613849	0.109855
C40	C	0.841742	-0.478225	0.070978
C41	C	0.798673	-0.521274	0.114025
C42	C	0.947205	0.000291	0.087036
C43	C	1.024307	0.000319	0.088166
C44	C	0.825672	0.000242	-0.034506
C45	C	0.824545	0.000240	-0.111610
N46	N	0.811009	0.205013	0.101704
C47	C	0.820499	0.078671	-0.144293
C48	C	0.819430	0.078677	-0.216739
C49	C	0.822421	0.000247	-0.256500
C50	C	0.826464	-0.078194	-0.223808
C51	C	0.827526	-0.078198	-0.151362
C52	C	0.864119	-0.059823	-0.379433
C53	C	0.863061	-0.059816	-0.451877
C54	C	0.819143	0.000256	-0.479946
C55	C	0.776291	0.060336	-0.435561
C56	C	0.777353	0.060332	-0.363116
C57	C	0.821270	0.000243	-0.335056
C58	C	0.813936	0.078700	-0.591183
C59	C	0.812863	0.078703	-0.663630
C60	C	0.819905	-0.078171	-0.670698
C61	C	0.820971	-0.078172	-0.598252
C62	C	0.817990	0.000266	-0.558499
C63	C	0.814727	0.000264	0.219510
C64	C	0.815854	0.000272	0.296614
H65	H	0.593971	0.000218	0.211590
H66	H	0.262201	0.091743	0.007670
N67	N	0.925083	-0.203462	-0.012413
N68	N	0.924737	-0.213583	-0.077061
H69	H	0.957390	-0.180869	-0.109785
H70	H	0.824272	-0.142039	-0.571641
N71	N	0.898679	-0.612916	0.014216
N72	N	0.898497	-0.623042	-0.050454
H73	H	0.931313	-0.590444	-0.083106
N74	N	0.808752	0.158827	-0.697016
N75	N	0.856331	0.176332	-0.743206
H76	H	0.853432	0.232923	-0.766784
H77	H	0.751227	-0.377274	0.161429
H78	H	0.881981	-0.515085	0.030764
N79	N	0.906844	-0.121179	-0.497202
N80	N	0.946049	-0.174815	-0.472134
H81	H	0.976974	-0.218154	-0.504143
N82	N	0.817456	0.158784	-0.103680
N83	N	0.866213	0.176294	-0.069023
H84	H	0.864064	0.232875	-0.040337
H85	H	0.742460	0.109249	-0.326981
H86	H	0.046420	0.000366	-0.026583
N87	N	0.152825	0.000292	0.218273
N88	N	0.141758	-0.060359	0.257808
H89	H	0.161764	-0.060373	0.303864
H90	H	0.896594	-0.786528	0.016172
N91	N	0.748201	-0.475045	0.164482
N92	N	0.767822	-0.424492	0.209818
H93	H	0.732175	-0.391836	0.245453
N94	N	0.238406	-0.101629	0.184896
N95	N	0.237376	-0.088913	0.249518
H96	H	0.208195	-0.125276	0.282499
N97	N	0.634018	0.000154	-0.031121
N98	N	0.634311	-0.060502	-0.076350
H99	H	0.666563	-0.060525	-0.121636
N100	N	0.810867	0.158819	-0.550570
N101	N	0.761724	0.176301	-0.502800
H102	H	0.759554	0.232887	-0.474119
H103	H	0.899882	-0.108748	-0.356587
N104	N	0.829513	-0.158301	-0.264429
N105	N	0.828565	-0.158288	-0.329111
H106	H	0.830715	-0.214865	-0.357800
N107	N	0.822950	-0.158279	-0.711313
N108	N	0.821996	-0.158267	-0.775995
H109	H	0.824143	-0.214845	-0.804683
H110	H	0.830818	-0.142068	-0.124752
N111	N	0.815293	0.158804	-0.250124
N112	N	0.812629	0.228829	-0.214622
H113	H	0.809708	0.285420	-0.238197
H114	H	0.923152	-0.377192	-0.010380
H115	H	0.177854	0.000282	-0.024661
H116	H	0.724666	-0.786620	0.187987
N117	N	0.733584	-0.203586	0.179066
N118	N	0.753206	-0.153036	0.224402
H119	H	0.717560	-0.120388	0.260044
N120	N	0.453286	0.000236	0.222673
N121	N	0.478061	0.000236	0.279665
H122	H	0.445816	0.000246	0.324955
N123	N	0.731410	0.121683	-0.464224
N124	N	0.685384	0.096078	-0.499551
H125	H	0.653685	0.139400	-0.519796
N126	N	0.384822	-0.101655	0.187032
N127	N	0.348681	-0.146656	0.227830
H128	H	0.371740	-0.183031	0.261567
N129	N	0.006390	0.000310	0.216120
N130	N	0.011512	-0.060340	0.255897
H131	H	-0.020733	-0.060345	0.301186
N132	N	0.402009	0.102150	0.000115
N133	N	0.373455	0.147164	-0.041630
H134	H	0.402646	0.183524	-0.074605
H135	H	0.493312	0.000223	-0.020034
N136	N	0.707009	-0.612937	0.205614
N137	N	0.666529	-0.653401	0.246065
H138	H	0.630864	-0.620760	0.281693
