data_functionalizedCrystal
_audit_creation_method	'MofGen! by Chris Wilmer'
_symmetry_space_group_name_H-M	'P1'
_symmetry_Int_Tables_number	1
_symmetry_cell_setting	triclinic
loop_
_symmetry_equiv_pos_as_xyz
  x,y,z
_cell_length_a	10.489689
_cell_length_b	26.210047
_cell_length_c	10.489741
_cell_angle_alpha	89.994765
_cell_angle_beta	84.528498
_cell_angle_gamma	90.012283
loop_
_atom_site_label
_atom_site_type_symbol
_atom_site_fract_x
_atom_site_fract_y
_atom_site_fract_z
O1	O	-1.694103	-0.042467	-0.179632
O2	O	-1.322899	-0.042459	-0.196594
O3	O	-1.516947	-0.042460	-0.002514
O4	O	-1.500054	-0.042466	-0.373712
O5	O	-1.516910	0.042398	-0.002545
O6	O	-1.322861	0.042399	-0.196626
O7	O	-1.694065	0.042391	-0.179664
Cu8	Cu	-1.508460	0.050143	-0.188148
Cu9	Cu	-1.508504	-0.050211	-0.188110
O10	O	-1.500016	0.042392	-0.373744
C11	C	-1.275347	-0.000029	-0.195343
C12	C	-1.133714	-0.000026	-0.191552
N13	N	-1.508438	0.120727	-0.188173
C14	C	-0.951326	-0.000032	-0.308272
C15	C	-1.043491	-0.041871	-0.249953
C16	C	-1.043427	0.041793	-0.249953
C17	C	-0.973539	-0.041908	-0.126416
C18	C	-0.973466	0.041793	-0.126433
C19	C	-1.065603	-0.000056	-0.068025
C20	C	-1.594420	0.473241	-0.102200
C21	C	-1.594447	0.686900	-0.102186
O22	O	-1.667504	0.714521	-0.029089
N23	N	-1.508510	0.713621	-0.188095
C24	C	-1.422554	0.686925	-0.274009
O25	O	-1.349450	0.714556	-0.347071
C26	C	-1.422521	0.473267	-0.274015
C27	C	-1.508473	0.446548	-0.188109
C28	C	-1.680364	0.446522	-0.016300
C29	C	-1.680360	0.393111	-0.016309
C30	C	-1.594413	0.366418	-0.102218
C31	C	-1.508470	0.393137	-0.188118
C32	C	-1.336559	0.446572	-0.359921
C33	C	-1.336557	0.393154	-0.359913
C34	C	-1.422508	0.366435	-0.274007
C35	C	-1.422519	0.313033	-0.274036
N36	N	-1.508457	0.286311	-0.188127
C37	C	-1.594404	0.313004	-0.102218
C38	C	-1.422579	0.799098	-0.274001
C39	C	-1.422588	0.852512	-0.274001
C40	C	-1.594481	0.852483	-0.102176
C41	C	-1.594476	0.799068	-0.102183
C42	C	-1.508516	0.772377	-0.188092
C43	C	-1.594392	0.200836	-0.102244
C44	C	-1.594385	0.147420	-0.102264
C45	C	-1.422488	0.147453	-0.274083
C46	C	-1.422499	0.200865	-0.274068
C47	C	-1.508456	0.227555	-0.188138
O48	O	-1.349492	0.285378	-0.347086
O49	O	-1.667477	0.285364	-0.029148
C50	C	-1.594423	0.526652	-0.102191
C51	C	-1.508479	0.553371	-0.188091
C52	C	-1.422532	0.526679	-0.274000
C53	C	-1.508488	0.606785	-0.188091
C54	C	-1.594435	0.633478	-0.102182
C55	C	-1.680373	0.606756	-0.016273
C56	C	-1.680370	0.553345	-0.016282
C57	C	-1.336594	0.553400	-0.359910
C58	C	-1.336605	0.606812	-0.359894
C59	C	-1.422552	0.633504	-0.273985
C60	C	-0.741614	-0.000037	-0.180935
C61	C	-0.883240	-0.000034	-0.184786
C62	C	-1.515652	-0.000031	0.045002
C63	C	-1.511835	-0.000032	0.186631
N64	N	-1.508535	0.879205	-0.188092
C65	C	-1.501311	-0.000038	-0.421260
C66	C	-1.505128	-0.000040	-0.562888
C67	C	-1.388368	-0.000033	0.254748
C68	C	-1.446674	0.041805	0.346866
C69	C	-1.446740	-0.041859	0.346871
C70	C	-1.570192	0.041841	0.276883
C71	C	-1.570242	-0.041860	0.276879
C72	C	-1.628638	-0.000012	0.368970
H73	H	-0.901635	-0.000075	-0.409777
C74	C	-1.327947	0.118081	-0.368575
N75	N	-1.256730	0.095957	-0.439739
C76	C	-1.640682	0.089680	0.235230
N77	N	-1.693768	0.125714	0.203852
C78	C	-0.931520	0.089583	-0.055928
N79	N	-0.899921	0.125583	-0.002834
H80	H	-1.074367	0.077163	-0.302237
H81	H	-1.730243	0.000009	0.418413
H82	H	-1.266553	0.371424	-0.429869
C83	C	-1.688938	0.118032	-0.007752
N84	N	-1.760150	0.095899	0.063436
C85	C	-1.242043	0.636197	-0.454404
N86	N	-1.170812	0.658327	-0.525577
H87	H	-1.352522	0.222620	-0.344033
C88	C	-1.689016	0.881855	-0.007669
N89	N	-1.760209	0.903980	0.063518
H90	H	-1.394416	0.077178	0.377854
H91	H	-1.394499	-0.077233	0.377839
C92	C	-1.251232	0.000027	0.187635
N93	N	-1.147945	0.000076	0.137081
C94	C	-1.774901	0.363727	0.078210
N95	N	-1.846109	0.341598	0.149411
C96	C	-1.085396	-0.089654	-0.320529
N97	N	-1.116959	-0.125641	-0.373697
C98	C	-0.931943	-0.089748	-0.055878
N99	N	-0.900609	-0.125782	-0.002755
C100	C	-1.640778	-0.089651	0.234965
N101	N	-1.693898	-0.125651	0.203391
C102	C	-1.688952	0.230187	-0.007719
N103	N	-1.760180	0.252294	0.063471
H104	H	-1.750352	0.468250	0.053664
C105	C	-1.689021	0.769682	-0.007672
N106	N	-1.760232	0.747552	0.063521
C107	C	-1.328107	0.769744	-0.368610
N108	N	-1.256987	0.747637	-0.439909
H109	H	-1.352612	0.874263	-0.343967
C110	C	-1.241994	0.475951	-0.454417
N111	N	-1.170757	0.498078	-0.525592
H112	H	-1.115061	-0.000076	0.033574
C113	C	-1.774917	0.523961	0.078231
N114	N	-1.846131	0.501833	0.149426
C115	C	-1.774912	0.636128	0.078231
N116	N	-1.846109	0.658254	0.149413
H117	H	-1.266604	0.531671	-0.429866
