data_functionalizedCrystal
_audit_creation_method	'MofGen! by Chris Wilmer'
_symmetry_space_group_name_H-M	'P1'
_symmetry_Int_Tables_number	1
_symmetry_cell_setting	triclinic
loop_
_symmetry_equiv_pos_as_xyz
  x,y,z
_cell_length_a	17.077404
_cell_length_b	29.839131
_cell_length_c	17.077396
_cell_angle_alpha	89.967252
_cell_angle_beta	89.982756
_cell_angle_gamma	90.041645
loop_
_atom_site_label
_atom_site_type_symbol
_atom_site_fract_x
_atom_site_fract_y
_atom_site_fract_z
Zn1	Zn	1.199936	-0.178847	-0.443824
Zn2	Zn	1.199806	-0.253979	-0.312550
Zn3	Zn	1.068673	-0.178864	-0.312572
Zn4	Zn	1.068593	-0.253951	-0.443774
O5	O	1.134252	-0.216410	-0.378180
O6	O	1.309766	-0.188818	-0.426422
O7	O	1.182390	-0.244033	-0.202706
O8	O	1.086173	-0.115994	-0.330013
O9	O	1.309670	-0.244017	-0.329976
O10	O	1.182612	-0.115982	-0.426443
O11	O	1.086047	-0.188847	-0.202722
O12	O	0.958816	-0.188820	-0.329964
O13	O	1.086037	-0.243970	-0.553627
O14	O	0.958757	-0.243986	-0.426358
O15	O	1.182534	-0.188791	-0.553664
O16	O	1.182312	-0.316842	-0.329927
O17	O	1.085911	-0.316822	-0.426336
C18	C	0.930304	-0.216402	-0.378158
C19	C	0.843054	-0.216409	-0.378168
C20	C	0.802054	-0.245178	-0.428279
C21	C	0.720074	-0.245179	-0.428292
C22	C	0.679095	-0.216413	-0.378188
C23	C	0.720101	-0.187642	-0.328074
C24	C	0.802080	-0.187639	-0.328066
C25	C	0.549231	-0.187650	-0.328093
C26	C	0.467246	-0.187654	-0.328100
C27	C	0.467225	-0.245190	-0.428319
C28	C	0.549204	-0.245188	-0.428311
C29	C	0.590204	-0.216416	-0.378196
C30	C	1.134110	-0.333133	-0.378141
C31	C	1.134122	-0.383067	-0.378151
C32	C	1.184539	-0.692708	-0.328053
C33	C	1.184636	-0.880381	-0.328083
O34	O	1.227391	-0.904645	-0.285459
N35	N	1.134415	-0.903852	-0.378239
C36	C	1.084169	-0.880402	-0.428394
O37	O	1.041461	-0.904671	-0.471061
C38	C	1.084077	-0.692729	-0.428367
C39	C	1.134296	-0.669261	-0.378203
C40	C	1.234755	-0.669240	-0.277893
C41	C	1.234727	-0.622325	-0.277883
C42	C	1.184484	-0.598878	-0.328033
C43	C	1.134268	-0.622346	-0.378193
C44	C	1.033836	-0.669280	-0.478526
C45	C	1.033818	-0.622359	-0.478516
C46	C	1.084038	-0.598891	-0.428352
C47	C	1.083997	-0.551983	-0.428332
N48	N	1.134219	-0.528513	-0.378177
C49	C	1.184462	-0.551960	-0.328027
C50	C	1.084220	-0.978932	-0.428404
C51	C	1.084242	-1.025850	-0.428410
C52	C	1.184710	-1.025827	-0.328100
C53	C	1.184684	-0.978908	-0.328090
C54	C	1.134442	-0.955462	-0.378248
C55	C	1.184399	-0.453434	-0.328009
C56	C	1.184365	-0.406514	-0.328001
C57	C	1.083900	-0.406542	-0.428314
C58	C	1.083931	-0.453457	-0.428319
C59	C	1.134187	-0.476902	-0.378164
O60	O	1.041271	-0.527691	-0.470941
O61	O	1.227176	-0.527682	-0.285378
C62	C	1.184567	-0.739624	-0.328063
C63	C	1.134351	-0.763092	-0.378223
C64	C	1.084108	-0.739645	-0.428373
C65	C	1.134373	-0.810010	-0.378229
C66	C	1.184617	-0.833457	-0.328079
C67	C	1.234838	-0.809987	-0.277923
C68	C	1.234811	-0.763071	-0.277913
C69	C	1.033887	-0.763116	-0.478529
C70	C	1.033918	-0.810031	-0.478534
C71	C	1.084161	-0.833478	-0.428384
C72	C	1.338996	-0.216419	-0.378202
C73	C	1.426246	-0.216422	-0.378212
C74	C	1.134292	-0.216375	-0.582924
C75	C	1.134308	-0.216360	-0.670174
C76	C	1.134416	-0.099232	-0.378236
C77	C	1.134486	-0.049297	-0.378260
C78	C	1.084158	-0.187621	-0.711172
C79	C	1.084171	-0.187611	-0.793153
C80	C	1.134339	-0.216338	-0.834134
C81	C	1.184491	-0.245080	-0.793130
C82	C	1.184474	-0.245093	-0.711151
C83	C	1.184525	-0.245052	-0.964000
C84	C	1.184544	-0.245040	-1.045985
C85	C	1.084222	-0.187571	-1.046002
C86	C	1.084205	-0.187583	-0.964023
C87	C	1.134359	-0.216325	-0.923025
C88	C	1.134258	-0.216412	-0.174232
C89	C	1.134393	-0.216301	-0.086983
H90	H	0.433839	-0.268616	-0.469126
C91	C	1.239672	-0.276681	-0.838213
C92	C	1.205612	-0.311938	-0.894553
C93	C	1.260794	-0.343538	-0.939637
C94	C	1.350034	-0.339882	-0.928381
C95	C	1.384098	-0.304624	-0.872039
C96	C	1.328917	-0.273023	-0.826954
H97	H	1.139547	-0.314645	-0.902888
H98	H	1.235577	-0.369638	-0.981346
H99	H	1.390883	-0.363274	-0.961755
H100	H	1.450164	-0.301916	-0.863704
H101	H	1.354134	-0.246923	-0.785246
C102	C	0.422167	-0.155999	-0.273009
C103	C	0.467262	-0.124341	-0.217905
C104	C	0.422182	-0.092681	-0.162822
C105	C	0.332009	-0.092680	-0.162844
C106	C	0.286909	-0.124340	-0.217950
C107	C	0.331989	-0.156000	-0.273033
H108	H	0.534018	-0.124340	-0.217887
H109	H	0.455569	-0.069244	-0.122029
H110	H	0.298638	-0.069243	-0.122068
H111	H	0.220153	-0.124340	-0.217968
H112	H	0.298602	-0.179436	-0.313826
H113	H	1.043041	-0.472566	-0.469170
C114	C	0.847182	-0.155993	-0.272941
C115	C	0.903496	-0.175411	-0.211245
C116	C	0.948596	-0.143762	-0.156122
C117	C	0.937381	-0.092696	-0.162694
C118	C	0.881064	-0.073276	-0.224392
C119	C	0.835964	-0.104924	-0.279516
H120	H	0.911800	-0.213215	-0.206378
H121	H	0.990286	-0.158138	-0.110449
H122	H	0.970767	-0.069268	-0.121888
H123	H	0.872760	-0.035471	-0.229259
H124	H	0.794275	-0.090548	-0.325189
H125	H	0.582611	-0.164218	-0.287291
C126	C	0.978592	-0.695085	-0.533712
C127	C	0.916987	-0.727385	-0.499663
C128	C	0.861739	-0.753188	-0.554853
C129	C	0.868096	-0.746690	-0.644092
C130	C	0.929704	-0.714388	-0.678146
C131	C	0.984952	-0.688585	-0.622955
H132	H	0.912279	-0.732196	-0.433599
H133	H	0.816133	-0.777100	-0.529644
H134	H	0.827198	-0.765791	-0.684947
H135	H	0.934412	-0.709577	-0.744210
H136	H	1.030558	-0.664673	-0.648164
H137	H	0.686729	-0.164218	-0.287283
C138	C	1.239639	-0.276705	-0.666047
C139	C	1.328885	-0.273044	-0.677320
C140	C	1.384047	-0.304659	-0.632215
C141	C	1.349964	-0.339936	-0.575837
C142	C	1.260714	-0.343599	-0.564562
C143	C	1.205551	-0.311984	-0.609666
H144	H	1.354119	-0.246929	-0.719057
H145	H	1.450116	-0.301948	-0.640563
H146	H	1.390798	-0.363340	-0.542448
H147	H	1.235479	-0.369714	-0.522825
H148	H	1.139482	-0.314695	-0.601319
C149	C	0.847128	-0.276821	-0.483395
C150	C	0.835792	-0.327888	-0.476830
C151	C	0.880863	-0.359531	-0.531950
C152	C	0.937270	-0.340106	-0.593633
C153	C	0.948608	-0.289036	-0.600200
C154	C	0.903537	-0.257393	-0.545081
H155	H	0.794034	-0.342270	-0.431166
H156	H	0.872469	-0.397336	-0.527088
H157	H	0.970634	-0.363530	-0.634436
H158	H	0.990366	-0.274655	-0.645864
H159	H	0.911931	-0.219588	-0.549942
C160	C	1.029021	-0.155983	-0.918943
C161	C	1.035498	-0.104910	-0.930241
C162	C	0.980312	-0.073310	-0.885162
C163	C	0.918647	-0.092784	-0.828786
C164	C	0.912167	-0.143860	-0.817485
C165	C	0.967353	-0.175459	-0.862564
H166	H	1.081149	-0.090492	-0.971977
H167	H	0.985109	-0.035500	-0.893528
H168	H	0.877794	-0.069392	-0.795416
H169	H	0.866516	-0.158277	-0.775750
H170	H	0.962556	-0.213269	-0.854198
H171	H	1.225395	-0.268432	-1.079349
C172	C	0.674977	-0.276827	-0.483415
C173	C	0.686188	-0.327893	-0.476837
C174	C	0.641093	-0.359542	-0.531964
C175	C	0.584788	-0.340125	-0.593669
C176	C	0.573575	-0.289056	-0.600249
C177	C	0.618670	-0.257407	-0.545122
H178	H	0.727871	-0.342269	-0.431157
H179	H	0.649394	-0.397347	-0.527093
H180	H	0.551406	-0.363554	-0.634478
H181	H	0.531892	-0.274680	-0.645929
H182	H	0.610369	-0.219602	-0.549994
C183	C	1.239612	-0.380700	-0.272819
C184	C	1.233268	-0.387194	-0.183578
C185	C	1.288514	-0.361382	-0.128399
C186	C	1.350104	-0.329077	-0.162460
C187	C	1.356451	-0.322581	-0.251705
C188	C	1.301204	-0.348393	-0.306885
H189	H	1.187673	-0.411110	-0.158359
H190	H	1.283816	-0.366191	-0.062333
H191	H	1.391001	-0.309969	-0.121613
H192	H	1.402045	-0.298666	-0.276924
H193	H	1.305903	-0.343585	-0.372950
C194	C	1.239676	-0.479219	-0.272834
C195	C	1.233311	-0.472801	-0.183592
C196	C	1.288581	-0.498586	-0.128413
C197	C	1.350216	-0.530789	-0.162476
C198	C	1.356584	-0.537209	-0.251722
C199	C	1.301313	-0.511424	-0.306901
H200	H	1.187682	-0.448961	-0.158372
H201	H	1.283867	-0.493833	-0.062347
H202	H	1.391131	-0.549877	-0.121629
H203	H	1.402212	-0.561049	-0.276942
H204	H	1.306027	-0.516176	-0.372968
H205	H	1.275622	-0.603220	-0.237037
H206	H	1.275746	-0.829085	-0.237087
H207	H	1.275674	-0.688326	-0.237055
H208	H	1.225577	-0.959803	-0.287243
H209	H	0.582567	-0.268613	-0.469105
C210	C	1.028994	-1.051662	-0.483586
C211	C	0.973733	-1.025864	-0.538750
C212	C	0.918487	-1.051674	-0.593932
C213	C	0.918502	-1.103282	-0.593949
C214	C	0.973764	-1.129083	-0.538783
C215	C	1.029010	-1.103273	-0.483601
H216	H	0.973721	-0.987658	-0.538739
H217	H	0.877578	-1.032575	-0.634769
H218	H	0.877605	-1.122388	-0.634798
H219	H	0.973777	-1.167288	-0.538794
H220	H	1.069919	-1.122372	-0.442764
C221	C	1.028945	-0.953146	-0.483580
C222	C	0.939717	-0.959657	-0.477088
C223	C	0.884439	-0.933874	-0.532263
C224	C	0.918389	-0.901581	-0.593930
C225	C	1.007622	-0.895069	-0.600425
C226	C	1.062900	-0.920852	-0.545250
H227	H	0.914581	-0.983564	-0.431436
H228	H	0.818383	-0.938695	-0.527455
H229	H	0.877469	-0.882495	-0.634774
H230	H	1.032758	-0.871162	-0.646077
H231	H	1.128956	-0.916031	-0.550058
H232	H	1.225621	-1.044925	-0.287266
C233	C	0.978546	-0.596568	-0.533689
C234	C	0.889318	-0.603077	-0.527203
C235	C	0.834044	-0.577287	-0.582372
C236	C	0.868000	-0.544988	-0.644027
C237	C	0.957233	-0.538478	-0.650516
C238	C	1.012507	-0.564268	-0.595347
H239	H	0.864177	-0.626988	-0.481560
H240	H	0.767988	-0.582107	-0.577569
H241	H	0.827083	-0.525897	-0.684867
H242	H	0.982374	-0.514567	-0.696159
H243	H	1.078563	-0.559448	-0.600150
H244	H	1.042990	-0.387444	-0.469143
H245	H	1.043386	-0.164168	-1.079386
C246	C	1.290058	-0.737261	-0.222735
C247	C	1.283714	-0.743756	-0.133494
C248	C	1.338966	-0.717950	-0.078314
C249	C	1.400563	-0.685648	-0.112373
C250	C	1.406910	-0.679151	-0.201618
C251	C	1.351657	-0.704957	-0.256799
H252	H	1.238114	-0.767670	-0.108277
H253	H	1.334267	-0.722760	-0.012248
H254	H	1.441464	-0.666544	-0.071525
H255	H	1.452510	-0.655237	-0.226835
H256	H	1.356356	-0.700147	-0.322864
H257	H	0.993016	-0.829135	-0.519383
H258	H	0.992973	-0.744029	-0.519368
H259	H	1.043310	-0.164226	-0.677811
H260	H	1.043330	-0.164211	-0.826529
H261	H	1.225373	-0.268453	-0.930622
