data_functionalizedCrystal
_audit_creation_method	'MofGen! by Chris Wilmer'
_symmetry_space_group_name_H-M	'P1'
_symmetry_Int_Tables_number	1
_symmetry_cell_setting	triclinic
loop_
_symmetry_equiv_pos_as_xyz
  x,y,z
_cell_length_a	19.077105
_cell_length_b	18.101395
_cell_length_c	19.075868
_cell_angle_alpha	87.593339
_cell_angle_beta	85.264809
_cell_angle_gamma	87.727498
loop_
_atom_site_label
_atom_site_type_symbol
_atom_site_fract_x
_atom_site_fract_y
_atom_site_fract_z
Zn1	Zn	1.093925	-0.321803	-0.441940
Zn2	Zn	1.089028	-0.450605	-0.324029
Zn3	Zn	0.971239	-0.322001	-0.319312
Zn4	Zn	0.975988	-0.440822	-0.437171
O5	O	1.032545	-0.383808	-0.380613
O6	O	1.191927	-0.342900	-0.430269
O7	O	1.069367	-0.437723	-0.224733
O8	O	0.987576	-0.218344	-0.335601
O9	O	1.188330	-0.437530	-0.343641
O10	O	1.077712	-0.218198	-0.425695
O11	O	0.982828	-0.343238	-0.221267
O12	O	0.873217	-0.333752	-0.330976
O13	O	0.995669	-0.420857	-0.536474
O14	O	0.876706	-0.421049	-0.417566
O15	O	1.082317	-0.333414	-0.539978
O16	O	1.073971	-0.552939	-0.339016
O17	O	0.990921	-0.545751	-0.422140
C18	C	0.849382	-0.376361	-0.373242
C19	C	0.771025	-0.373192	-0.370106
C20	C	1.032450	-0.576215	-0.380589
C21	C	1.032475	-0.658530	-0.380604
C22	C	0.736045	-0.417229	-0.413644
C23	C	0.662420	-0.414242	-0.410700
C24	C	0.623777	-0.367222	-0.364214
C25	C	0.658762	-0.323180	-0.320674
C26	C	0.732386	-0.326164	-0.323622
C27	C	0.403390	-0.353412	-0.350574
C28	C	0.329761	-0.350433	-0.347628
C29	C	0.333424	-0.441495	-0.437656
C30	C	0.407048	-0.444478	-0.440597
C31	C	0.442028	-0.400433	-0.397059
N32	N	0.548521	-0.364169	-0.361202
N33	N	0.517283	-0.403483	-0.400075
C34	C	1.032631	-0.957625	-0.380648
C35	C	0.980510	-0.921808	-0.433089
C36	C	0.980244	-0.836187	-0.432907
C37	C	1.032553	-0.809241	-0.380627
C38	C	1.009416	-0.842701	-0.305508
C39	C	1.009079	-0.928318	-0.305821
C40	C	1.107981	-0.928195	-0.402678
C41	C	1.107609	-0.842458	-0.404290
C42	C	1.032510	-0.725380	-0.380611
C43	C	1.032672	-1.041486	-0.380660
C44	C	1.216423	-0.391284	-0.388013
C45	C	1.294781	-0.394470	-0.391167
C46	C	1.040069	-0.376022	-0.564526
C47	C	1.043275	-0.372704	-0.642898
C48	C	1.032660	-0.190649	-0.380654
C49	C	1.032709	-0.108336	-0.380671
C50	C	1.025091	-0.391512	-0.197418
C51	C	1.022022	-0.394627	-0.119051
C52	C	1.065368	-0.350203	-0.084235
C53	C	1.062485	-0.353140	-0.010601
C54	C	1.016250	-0.400499	0.028215
C55	C	0.972902	-0.444928	-0.006606
C56	C	0.975789	-0.441993	-0.080238
C57	C	1.002814	-0.414199	0.248648
C58	C	0.999928	-0.417128	0.322286
C59	C	1.089512	-0.325341	0.318285
C60	C	1.092393	-0.322408	0.244652
C61	C	1.049047	-0.366840	0.209837
N62	N	1.013300	-0.403501	0.103481
N63	N	1.052002	-0.363841	0.134572
H64	H	0.767503	-0.455521	-0.451496
H65	H	0.760866	-0.290300	-0.288172
H66	H	0.995070	-0.813317	-0.488514
H67	H	1.097784	-0.316967	0.017743
H68	H	1.125002	-0.820411	-0.459588
H69	H	0.304936	-0.477352	-0.473103
H70	H	0.995218	-0.940537	-0.488868
H71	H	0.962261	-0.455678	0.353889
H72	H	0.954811	-0.819817	-0.286929
H73	H	1.124803	-0.289168	0.346640
H74	H	0.967518	-0.450377	0.220311
H75	H	1.148739	-0.824326	-0.369117
H76	H	0.953908	-0.946826	-0.287508
H77	H	0.935260	-0.483491	0.025004
H78	H	0.940492	-0.478169	-0.108585
H79	H	1.130045	-0.283847	0.213052
H80	H	1.103013	-0.311633	-0.115834
H81	H	1.128486	-0.948248	-0.456678
H82	H	0.431861	-0.317554	-0.315118
H83	H	0.438507	-0.482769	-0.478449
H84	H	1.146850	-0.951761	-0.364520
H85	H	0.627293	-0.284891	-0.282827
H86	H	0.633942	-0.450102	-0.446153
H87	H	1.046051	-0.825644	-0.265240
H88	H	0.298300	-0.312135	-0.309778
H89	H	0.924454	-0.814051	-0.418079
H90	H	0.925062	-0.941689	-0.418433
H91	H	1.045231	-0.952342	-0.265256
