data_functionalizedCrystal
_audit_creation_method	'MofGen! by Chris Wilmer'
_symmetry_space_group_name_H-M	'P1'
_symmetry_Int_Tables_number	1
_symmetry_cell_setting	triclinic
loop_
_symmetry_equiv_pos_as_xyz
  x,y,z
_cell_length_a	10.654562
_cell_length_b	15.944551
_cell_length_c	9.730223
_cell_angle_alpha	89.997716
_cell_angle_beta	89.996961
_cell_angle_gamma	83.994421
loop_
_atom_site_label
_atom_site_type_symbol
_atom_site_fract_x
_atom_site_fract_y
_atom_site_fract_z
O1	O	1.666298	0.118024	-0.114384
O2	O	1.300676	0.129252	-0.114367
O3	O	1.493471	0.001421	-0.114363
O4	O	1.473502	0.245855	-0.114387
O5	O	1.493469	0.001425	0.114217
O6	O	1.300674	0.129256	0.114213
O7	O	1.666295	0.118027	0.114196
Zn8	Zn	1.483484	0.123642	0.150497
Zn9	Zn	1.483487	0.123638	-0.150667
O10	O	1.473500	0.245858	0.114193
C11	C	1.253888	0.128427	-0.000075
C12	C	1.114477	0.125954	-0.000068
C13	C	1.048960	0.124802	0.124521
C14	C	0.917968	0.122485	0.124498
C15	C	0.918021	0.122475	-0.124713
C16	C	1.049012	0.124786	-0.124688
C17	C	1.048928	0.124811	0.268400
C18	C	0.917936	0.122494	0.268378
C19	C	1.492641	-0.029876	-0.000073
C20	C	1.490156	-0.123136	-0.000072
C21	C	1.364712	-0.338723	-0.000085
C22	C	1.422963	-0.399400	0.112616
C23	C	1.485660	-0.293888	-0.000082
C24	C	1.422993	-0.399386	-0.112746
C25	C	1.481308	-0.458826	-0.000098
C26	C	1.543944	-0.353337	0.112712
C27	C	1.543957	-0.353317	-0.112752
C28	C	1.602296	-0.413976	-0.000023
C29	C	1.488163	-0.198872	-0.000072
C30	C	1.478814	-0.553842	-0.000099
C31	C	1.713084	0.118852	-0.000099
C32	C	1.852494	0.121325	-0.000115
C33	C	1.474330	0.277155	-0.000100
C34	C	1.476816	0.370416	-0.000110
N35	N	1.483491	0.123644	0.356033
N36	N	1.483490	0.123628	-0.356204
C37	C	1.568883	0.067060	0.427961
C38	C	1.568880	0.067050	0.571844
C39	C	1.398089	0.180215	0.571859
C40	C	1.398088	0.180221	0.427978
C41	C	1.667491	0.001727	0.427953
C42	C	1.667488	0.001717	0.571836
H43	H	1.102353	0.125711	-0.226140
Cl44	Cl	1.757427	-0.464272	0.000062
H45	H	1.328555	0.226278	0.630452
Cl46	Cl	1.622873	-0.321776	-0.259872
Cl47	Cl	1.622861	-0.322018	0.259978
Cl48	Cl	1.093375	0.219390	0.337317
Cl49	Cl	1.343984	-0.430904	0.259728
Cl50	Cl	1.635674	-0.097948	0.367657
Cl51	Cl	0.873449	0.028002	0.337610
Cl52	Cl	1.621587	-0.092473	0.640743
Cl53	Cl	1.121518	0.035194	0.353713
Cl54	Cl	1.343981	-0.430867	-0.259839
Cl55	Cl	0.845304	0.212116	0.353644
Cl56	Cl	1.290719	0.251346	0.337554
Cl57	Cl	1.816203	0.023933	0.632129
H58	H	0.864703	0.121524	-0.226174
H59	H	1.264320	-0.305999	0.000032
H60	H	1.758409	0.022187	0.383321
