data_functionalizedCrystal
_audit_creation_method	'MofGen! by Chris Wilmer'
_symmetry_space_group_name_H-M	'P1'
_symmetry_Int_Tables_number	1
_symmetry_cell_setting	triclinic
loop_
_symmetry_equiv_pos_as_xyz
  x,y,z
_cell_length_a	20.919309
_cell_length_b	20.919309
_cell_length_c	15.698487
_cell_angle_alpha	90.000128
_cell_angle_beta	57.441887
_cell_angle_gamma	60.099716
loop_
_atom_site_label
_atom_site_type_symbol
_atom_site_fract_x
_atom_site_fract_y
_atom_site_fract_z
Zr1	Zr	0.648694	0.668073	-0.110794
O2	O	0.790103	0.567433	-0.259360
O3	O	0.513018	0.695179	-0.060658
O4	O	0.646163	0.700575	-0.244996
O5	O	0.656955	0.562041	0.065163
O6	O	0.637644	0.809859	-0.238890
O7	O	0.656958	0.562037	-0.075022
O8	O	0.399472	0.800207	0.090857
O9	O	0.895128	0.571693	-0.264584
O10	O	0.560343	0.792822	-0.040267
O11	O	0.566698	0.711267	0.059794
O12	O	0.723459	0.717620	-0.157240
O13	O	0.729814	0.636064	-0.057179
Zr14	Zr	0.635104	0.842374	0.122523
Zr15	Zr	0.635108	0.842368	-0.101055
Zr16	Zr	0.648689	0.668078	0.112785
Zr17	Zr	0.816196	0.674866	-0.119126
Zr18	Zr	0.467602	0.835580	0.130855
O19	O	0.770780	0.815267	0.072387
O20	O	0.770786	0.815259	-0.245513
O21	O	0.790097	0.567441	0.058540
O22	O	0.493694	0.943013	0.271089
O23	O	0.493701	0.943006	-0.046811
O24	O	0.513011	0.695187	0.257242
O25	O	0.626842	0.948406	-0.053434
O26	O	0.637635	0.809872	0.256725
O27	O	0.646153	0.700587	0.250619
O28	O	0.626839	0.948409	0.086751
O29	O	0.884329	0.710235	-0.256843
O30	O	0.399469	0.800212	0.268573
O31	O	0.388670	0.938754	0.276313
O32	O	0.388673	0.938749	0.098598
O33	O	0.895124	0.571697	-0.086869
O34	O	0.884325	0.710239	-0.079128
O35	O	0.560338	0.792827	0.168970
O36	O	0.553983	0.874382	0.068908
O37	O	0.717100	0.799180	-0.048065
O38	O	0.723455	0.717625	0.051997
C39	C	0.432379	0.746725	0.016287
C40	C	0.361270	0.743841	0.019824
C41	C	0.324546	0.785055	-0.030745
C42	C	0.257727	0.782347	-0.027411
C43	C	0.227638	0.738420	0.026486
C44	C	0.264365	0.697205	0.077062
C45	C	0.331178	0.699918	0.073734
C46	C	0.026067	0.728103	0.039153
C47	C	-0.040749	0.725392	0.042475
C48	C	-0.047384	0.810535	-0.061997
C49	C	0.019435	0.813240	-0.065326
C50	C	0.056153	0.772029	-0.014745
C51	C	0.159340	0.735649	0.029892
C52	C	0.124444	0.774805	-0.018145
C53	C	0.658892	0.537206	-0.006317
C54	C	0.664660	0.463213	-0.010451
C55	C	0.582226	0.467703	0.048660
C56	C	0.587651	0.398176	0.044773
C57	C	0.675510	0.324159	-0.018232
C58	C	0.757949	0.319671	-0.077345
C59	C	0.752524	0.389197	-0.073451
C60	C	0.696152	0.112271	-0.033038
C61	C	0.701571	0.042743	-0.036931
C62	C	0.531272	0.121254	0.085189
C63	C	0.525854	0.190778	0.089072
C64	C	0.608293	0.186283	0.029964
C65	C	0.681057	0.253091	-0.022210
C66	C	0.602745	0.257351	0.033949
C67	C	0.851418	0.763721	-0.004558
C68	C	0.922527	0.766605	-0.008095
C69	C	0.641904	0.755216	-0.273798
C70	C	0.641906	0.755214	-0.368713
C71	C	0.624905	0.973241	0.018046
C72	C	0.619138	1.047234	0.022180
C73	C	0.641889	0.755232	-0.542475
C74	C	0.641895	0.755224	-0.445779
C75	C	0.641893	0.755230	0.285527
C76	C	0.641891	0.755233	0.380442
C77	C	0.415386	0.964743	0.028468
C78	C	0.338509	1.035852	0.036140
C79	C	0.432374	0.746732	0.295950
C80	C	0.361263	0.743851	0.394402
C81	C	0.415380	0.964750	0.308131
C82	C	0.338502	1.035861	0.410718
C83	C	0.868417	0.545697	-0.296402
C84	C	0.945295	0.474585	-0.398988
C85	C	0.868411	0.545704	-0.016739
C86	C	0.945288	0.474595	-0.024410
C87	C	0.851424	0.763714	-0.284220
C88	C	0.922534	0.766596	-0.382673
C89	C	0.305727	1.026672	-0.017255
C90	C	0.233503	1.093480	-0.010069
C91	C	0.194059	1.169468	0.050520
C92	C	0.226848	1.178646	0.103916
C93	C	0.299075	1.111839	0.096723
C94	C	0.324549	0.785071	0.497634
C95	C	0.257743	0.782361	0.590148
C96	C	0.227646	0.738434	0.579429
C97	C	0.264367	0.697209	0.476186
C98	C	0.331177	0.699915	0.383673
C99	C	0.299081	1.111834	0.406663
C100	C	0.226855	1.178658	0.503045
C101	C	0.194046	1.169507	0.603481
C102	C	0.233474	1.093526	0.607533
C103	C	0.305703	1.026704	0.511152
C104	C	0.984724	0.398613	-0.394934
C105	C	1.056971	0.331790	-0.491317
C106	C	1.089784	0.340941	-0.591753
C107	C	1.050352	0.416922	-0.595805
C108	C	0.978110	0.483743	-0.499423
C109	C	0.978077	0.483775	0.028975
C110	C	1.050320	0.416967	0.021763
C111	C	1.089766	0.340980	-0.038829
C112	C	1.056974	0.331801	-0.092221
C113	C	0.984738	0.398608	-0.085014
C114	C	0.952609	0.810530	-0.371918
C115	C	1.019415	0.813253	-0.464415
C116	C	1.056150	0.772037	-0.567665
C117	C	1.026069	0.728102	-0.578417
C118	C	0.959259	0.725384	-0.485921
H119	H	0.227826	0.815907	-0.068588
O120	O	1.051851	0.860641	-0.452796
H121	H	1.104470	0.855622	-0.534453
O122	O	0.949374	0.388699	-0.142596
H123	H	0.873360	0.415346	-0.082143
H124	H	0.173244	0.736237	0.654767
O125	O	1.099526	0.249839	-0.157566
H126	H	1.064600	0.254669	-0.193491
H127	H	0.135231	1.223924	0.681953
H128	H	0.325783	1.119300	0.324892
H129	H	0.464155	0.124904	0.133312
O130	O	0.184293	1.260605	0.169275
H131	H	0.128555	1.305511	0.165310
H132	H	0.194760	1.240519	0.499726
H133	H	0.325757	1.119325	0.140211
O134	O	0.231875	0.649857	0.464632
H135	H	0.179234	0.654922	0.546312
H136	H	1.055989	0.694545	-0.662496
H137	H	0.934781	0.689604	-0.494693
H138	H	1.089065	0.269930	-0.487996
O139	O	1.085747	0.426779	-0.704141
H140	H	1.113566	0.461765	-0.712862
O141	O	1.167712	0.268867	-0.695707
H142	H	1.189610	0.214503	-0.676003
H143	H	0.819650	0.385536	-0.121572
H144	H	0.752592	0.192819	-0.073508
O145	O	0.356998	0.832454	0.509219
H146	H	0.409618	0.827424	0.427554
O147	O	0.935573	0.565685	-0.503801
H148	H	0.970524	0.560813	-0.589835
O149	O	0.935540	0.565729	0.094327
H150	H	0.945729	0.599957	0.040434
H151	H	0.206750	1.086087	0.689321
H152	H	1.077007	0.424456	0.065247
O153	O	0.218127	0.826841	0.701497
H154	H	0.250267	0.857853	0.693401
O155	O	0.370752	0.655498	0.128326
H156	H	0.422245	0.664782	0.116986
O157	O	0.348201	0.944761	0.515531
H158	H	0.313236	0.949632	0.601567
H159	H	0.043932	0.849009	-0.109214
H160	H	0.337842	0.964805	-0.066605
H161	H	0.206816	1.085991	-0.053552
O162	O	0.370638	0.655580	0.272343
H163	H	0.338427	0.624633	0.280449
H164	H	1.148585	0.286588	-0.044688
H165	H	0.135247	1.223860	0.056369
H166	H	0.958013	0.391146	-0.313162
O167	O	0.912983	0.854997	-0.260559
H168	H	0.945118	0.886011	-0.268637
H169	H	1.110551	0.774257	-0.642972
H170	H	-0.065243	0.689617	0.086364
O171	O	0.356999	0.832434	-0.088877
H172	H	0.320227	0.860643	-0.123471
H173	H	0.773120	-0.017526	-0.088242
O174	O	-0.086985	0.854981	-0.116552
H175	H	-0.164356	0.899052	-0.055124
O176	O	0.065677	0.683647	0.093691
H177	H	0.033537	0.652638	0.131713
H178	H	0.134834	0.699884	0.073776
H179	H	0.531211	0.317618	0.085251
O180	O	0.231925	0.649818	0.135186
H181	H	0.154870	0.689801	0.201610
O182	O	0.156904	0.822173	-0.076287
H183	H	0.140423	0.868707	-0.017895
H184	H	0.510682	0.527967	0.099970
H185	H	0.454310	0.251042	0.140357
O186	O	0.498742	0.403017	0.108511
H187	H	0.436738	0.466165	0.152960
H188	H	0.763279	0.108601	-0.081187
H189	H	0.829486	0.259400	-0.128639
