data_functionalizedCrystal
_audit_creation_method	'MofGen! by Chris Wilmer'
_symmetry_space_group_name_H-M	'P1'
_symmetry_Int_Tables_number	1
_symmetry_cell_setting	triclinic
loop_
_symmetry_equiv_pos_as_xyz
  x,y,z
_cell_length_a	17.639617
_cell_length_b	19.121063
_cell_length_c	17.639407
_cell_angle_alpha	76.920548
_cell_angle_beta	92.180663
_cell_angle_gamma	104.083010
loop_
_atom_site_label
_atom_site_type_symbol
_atom_site_fract_x
_atom_site_fract_y
_atom_site_fract_z
Zn1	Zn	1.062298	-0.209957	0.672068
Zn2	Zn	1.562298	0.290043	1.172068
Zn3	Zn	1.082840	-0.301493	0.548447
Zn4	Zn	1.582840	0.198507	1.048447
Zn5	Zn	0.961548	-0.200531	0.519061
Zn6	Zn	1.461548	0.299469	1.019061
Zn7	Zn	0.927633	-0.347802	0.651362
Zn8	Zn	1.427633	0.152198	1.151362
O9	O	1.008580	-0.264946	0.597734
O10	O	1.508580	0.235054	1.097734
O11	O	1.172141	-0.206664	0.676633
O12	O	1.672141	0.293336	1.176633
O13	O	1.089540	-0.264774	0.437444
O14	O	1.589540	0.235226	0.937444
O15	O	0.980509	-0.101839	0.535725
O16	O	1.480509	0.398161	1.035725
O17	O	1.187233	-0.273915	0.585809
O18	O	1.687233	0.226085	1.085809
O19	O	1.054530	-0.108765	0.648139
O20	O	1.554530	0.391235	1.148139
O21	O	1.000427	-0.190598	0.415854
O22	O	1.500427	0.309402	0.915854
O23	O	0.849930	-0.235502	0.515647
O24	O	1.349930	0.264498	1.015647
O25	O	0.922707	-0.352842	0.761213
O26	O	1.422707	0.147158	1.261213
O27	O	0.825014	-0.343702	0.612848
O28	O	1.325014	0.156298	1.112848
O29	O	1.021644	-0.251568	0.776426
O30	O	1.521644	0.248432	1.276426
O31	O	1.056655	-0.407578	0.565731
O32	O	1.556655	0.092422	1.065731
O33	O	0.942625	-0.441601	0.641343
O34	O	1.442625	0.058399	1.141343
C35	C	0.809697	-0.293605	0.558813
C36	C	1.309697	0.206395	1.058813
C37	C	0.724610	-0.305887	0.542181
C38	C	1.224610	0.194113	1.042181
C39	C	0.405356	-0.171669	0.724276
C40	C	0.905356	0.328331	1.224276
C41	C	0.325405	-0.183224	0.708633
C42	C	0.825405	0.316776	1.208633
C43	C	0.341181	-0.253070	0.613911
C44	C	0.841181	0.246930	1.113911
C45	C	0.421134	-0.241524	0.629549
C46	C	0.921134	0.258476	1.129549
C47	C	0.453215	-0.200822	0.684732
C48	C	0.953215	0.299178	1.184732
C49	C	0.468993	-0.270677	0.590005
C50	C	0.968993	0.229323	1.090005
C51	C	0.548939	-0.259129	0.605639
C52	C	1.048939	0.240871	1.105639
C53	C	0.581027	-0.218427	0.660817
C54	C	1.081027	0.281573	1.160817
C55	C	0.533161	-0.189274	0.700366
C56	C	1.033161	0.310726	1.200366
C57	C	0.436911	-0.311375	0.534819
C58	C	0.936911	0.188625	1.034819
C59	C	0.484770	-0.340528	0.495275
C60	C	0.984770	0.159472	0.995275
C61	C	0.564717	-0.328984	0.510912
C62	C	1.064717	0.171016	1.010912
C63	C	0.596804	-0.288282	0.566091
C64	C	1.096804	0.211718	1.066091
C65	C	0.612582	-0.358137	0.471364
C66	C	1.112582	0.141863	0.971364
C67	C	0.692529	-0.346589	0.486998
C68	C	1.192529	0.153411	0.986998
C69	C	0.676751	-0.276733	0.581725
C70	C	1.176751	0.223267	1.081725
C71	C	0.998206	-0.450504	0.604500
C72	C	1.498206	0.049496	1.104500
C73	C	0.993833	-0.529882	0.607433
C74	C	1.493833	-0.029882	1.107433
C75	C	1.051177	-0.549440	0.569493
C76	C	1.551177	-0.049440	1.069493
C77	C	1.047067	-0.624026	0.572257
C78	C	1.547067	-0.124026	1.072257
C79	C	0.985610	-0.679052	0.612958
C80	C	1.485610	-0.179052	1.112958
C81	C	0.928264	-0.659490	0.650903
C82	C	1.428264	-0.159490	1.150903
C83	C	0.932377	-0.584906	0.648143
C84	C	1.432377	-0.084906	1.148143
C85	C	0.970222	-0.905135	0.623263
C86	C	1.470222	-0.405135	1.123263
C87	C	0.966112	-0.979723	0.626019
C88	C	1.466112	-0.479723	1.126019
C89	C	1.084917	-0.944254	0.547373
C90	C	1.584917	-0.444254	1.047373
C91	C	1.089023	-0.869669	0.544613
C92	C	1.589023	-0.369669	1.044613
C93	C	1.031678	-0.850114	0.582562
C94	C	1.531678	-0.350114	1.082562
C95	C	0.981407	-0.755291	0.615783
C96	C	1.481407	-0.255291	1.115783
C97	C	1.035885	-0.773877	0.579741
C98	C	1.535885	-0.273877	1.079741
C99	C	1.208239	-0.236175	0.636809
C100	C	1.708239	0.263825	1.136809
C101	C	1.293321	-0.223915	0.653460
C102	C	1.793321	0.276085	1.153460
C103	C	0.966101	-0.308422	0.797367
C104	C	1.466101	0.191578	1.297367
C105	C	0.947999	-0.326950	0.882439
C106	C	1.447999	0.173050	1.382439
C107	C	1.019011	-0.078664	0.590964
C108	C	1.519011	0.421336	1.090964
C109	C	1.023456	0.000719	0.588078
C110	C	1.523456	0.500719	1.088078
C111	C	1.146018	-0.124261	1.201830
C112	C	1.646018	0.375739	1.701830
C113	C	1.128999	-0.141688	1.281766
C114	C	1.628999	0.358312	1.781766
C115	C	1.025984	-0.247136	1.265917
C116	C	1.525984	0.252864	1.765917
C117	C	1.042997	-0.229720	1.185978
C118	C	1.542997	0.270280	1.685978
C119	C	1.103014	-0.168282	1.153941
C120	C	1.603014	0.331718	1.653941
C121	C	0.999993	-0.273741	1.138088
C122	C	1.499993	0.226259	1.638088
C123	C	1.017002	-0.256324	1.058156
C124	C	1.517002	0.243676	1.558156
C125	C	1.077015	-0.194887	1.026113
C126	C	1.577015	0.305113	1.526113
C127	C	1.120023	-0.150865	1.074008
C128	C	1.620023	0.349135	1.574008
C129	C	0.939973	-0.335176	1.170126
C130	C	1.439973	0.164824	1.670126
C131	C	0.896969	-0.379196	1.122237
C132	C	1.396969	0.120804	1.622237
C133	C	0.913981	-0.361783	1.042304
C134	C	1.413981	0.138217	1.542304
C135	C	0.973994	-0.300346	1.010260
C136	C	1.473994	0.199654	1.510260
C137	C	0.870973	-0.405805	0.994408
C138	C	1.370973	0.094195	1.494408
C139	C	0.887982	-0.388388	0.914475
C140	C	1.387982	0.111612	1.414475
C141	C	0.991003	-0.282929	0.930328
C142	C	1.491003	0.217071	1.430328
C143	C	1.050888	-0.221651	1.398878
C144	C	1.550888	0.278349	1.898878
C145	C	1.068993	-0.203111	1.313807
C146	C	1.568993	0.296889	1.813807
H147	H	0.702872	-0.243593	0.626663
H148	H	1.202872	0.256407	1.126663
H149	H	1.139066	-0.824867	0.511471
H150	H	1.639066	-0.324867	1.011471
Br151	Br	1.162741	-0.970798	0.495879
Br152	Br	1.662741	-0.470798	0.995879
H153	H	0.916073	-1.024527	0.659177
H154	H	1.416073	-0.524527	1.159177
Br155	Br	0.892397	-0.878606	0.674766
Br156	Br	1.392397	-0.378606	1.174766
H157	H	0.315050	-0.286207	0.568979
H158	H	0.815050	0.213793	1.068979
H159	H	0.458639	-0.373665	0.450342
H160	H	0.958639	0.126335	0.950342
Br161	Br	0.689529	-0.202742	0.682029
Br162	Br	1.189529	0.297258	1.182029
H163	H	0.586451	-0.391270	0.426429
H164	H	1.086451	0.108730	0.926429
Br165	Br	0.576705	-0.134044	0.775266
Br166	Br	1.076705	0.365956	1.275266
H167	H	1.168898	-0.100838	1.047923
H168	H	1.668898	0.399162	1.547923
Br169	Br	1.119292	-0.699199	0.524512
Br170	Br	1.619292	-0.199199	1.024512
H171	H	0.431477	-0.138529	0.769214
H172	H	0.931477	0.361471	1.269214
Br173	Br	1.134581	-0.474767	0.514245
Br174	Br	1.634581	0.025233	1.014245
H175	H	1.039878	-0.232903	0.904243
H176	H	1.539878	0.267097	1.404243
Br177	Br	0.757484	-0.386160	0.433337
Br178	Br	1.257484	0.113840	0.933337
H179	H	0.286441	-0.159476	0.740835
H180	H	0.786441	0.340524	1.240835
Br181	Br	0.328413	-0.327040	0.513593
Br182	Br	0.828413	0.172960	1.013593
H183	H	1.090863	-0.180708	0.961026
H184	H	1.590863	0.319292	1.461026
Br185	Br	0.829617	-0.448127	0.849477
Br186	Br	1.329617	0.051873	1.349477
Br187	Br	0.854554	-0.558363	0.699642
Br188	Br	1.354554	-0.058363	1.199642
H189	H	1.093762	-0.639944	0.541361
H190	H	1.593762	-0.139944	1.041361
H191	H	0.878227	-0.704299	0.684047
H192	H	1.378227	-0.204299	1.184047
Br193	Br	1.227481	-0.040888	1.158346
Br194	Br	1.727481	0.459112	1.658346
Br195	Br	1.187338	-0.081913	1.346751
Br196	Br	1.687338	0.418087	1.846751
H197	H	0.931367	-0.800101	0.648920
H198	H	1.431367	-0.300101	1.148920
H199	H	0.977117	-0.297158	1.292012
H200	H	1.477117	0.202842	1.792012
Br201	Br	0.916877	-0.358803	1.278605
Br202	Br	1.416877	0.141197	1.778605
H203	H	0.848102	-0.429218	1.148332
H204	H	1.348102	0.070782	1.648332
Br205	Br	0.789516	-0.489174	1.037894
Br206	Br	1.289516	0.010826	1.537894
