data_functionalizedCrystal
_audit_creation_method	'MofGen! by Chris Wilmer'
_symmetry_space_group_name_H-M	'P1'
_symmetry_Int_Tables_number	1
_symmetry_cell_setting	triclinic
loop_
_symmetry_equiv_pos_as_xyz
  x,y,z
_cell_length_a	16.992694
_cell_length_b	10.489741
_cell_length_c	16.053802
_cell_angle_alpha	92.592148
_cell_angle_beta	87.249047
_cell_angle_gamma	87.603699
loop_
_atom_site_label
_atom_site_type_symbol
_atom_site_fract_x
_atom_site_fract_y
_atom_site_fract_z
O1	O	1.045194	0.265584	-0.069324
O2	O	0.816893	0.262613	-0.069348
O3	O	0.936238	0.078953	-0.069330
O4	O	0.925849	0.449244	-0.069341
O5	O	0.929669	0.089018	0.069528
O6	O	0.810324	0.272678	0.069510
O7	O	1.038624	0.275649	0.069534
Zn8	Zn	0.923431	0.275761	0.091569
Zn9	Zn	0.932086	0.262501	-0.091383
O10	O	0.919279	0.459309	0.069516
C11	C	0.784374	0.263826	0.000078
C12	C	0.697266	0.252430	0.000068
C13	C	0.932169	0.036385	0.000098
C14	C	0.929821	-0.105448	0.000096
C15	C	0.647647	0.362379	0.000066
C16	C	0.565799	0.351666	0.000078
C17	C	0.533573	0.231001	0.000086
C18	C	0.583199	0.121044	0.000091
C19	C	0.665044	0.131759	0.000085
C20	C	0.289723	0.186590	0.000110
C21	C	0.207871	0.175882	0.000113
C22	C	0.190477	0.406505	0.000101
C23	C	0.272325	0.417210	0.000090
C24	C	0.321944	0.307253	0.000100
N25	N	0.449912	0.220047	0.000096
N26	N	0.405603	0.318209	0.000096
C27	C	0.853885	-0.180196	0.000082
C28	C	0.886518	-0.264235	0.068550
C29	C	0.893013	-0.274131	-0.068353
C30	C	0.962482	-0.187615	0.068621
C31	C	0.968969	-0.197507	-0.068344
C32	C	1.001656	-0.281513	0.000141
C33	C	1.071143	0.274436	0.000107
C34	C	1.158252	0.285831	0.000110
C35	C	0.923349	0.501876	0.000086
C36	C	0.925697	0.643710	0.000083
N37	N	0.917530	0.284811	0.216428
N38	N	0.937994	0.253441	-0.216242
C39	C	0.968330	0.206695	0.260130
C40	C	0.964209	0.213038	0.347536
C41	C	0.909292	0.297505	0.391239
C42	C	0.858486	0.375625	0.347531
C43	C	0.862603	0.369274	0.260127
C44	C	0.891306	0.325210	0.652646
C45	C	0.887193	0.331557	0.740056
C46	C	0.992917	0.168969	0.740055
C47	C	0.997032	0.162631	0.652649
C48	C	0.946224	0.240745	0.608949
N49	N	0.905080	0.303994	0.480582
N50	N	0.950432	0.234249	0.519607
H51	H	0.525402	0.441198	0.000074
N52	N	1.024382	0.120350	0.215477
N53	N	1.022127	0.002993	0.225256
H54	H	1.061696	-0.058012	0.193713
N55	N	1.016066	0.133203	0.392188
N56	N	1.012359	0.138837	0.470227
H57	H	1.048971	0.082427	0.501765
N58	N	0.802387	0.461889	0.392183
N59	N	0.798717	0.467550	0.470222
H60	H	0.759096	0.528477	0.501757
H61	H	0.991843	-0.149790	0.126570
H62	H	0.298558	0.515467	0.000074
N63	N	1.080038	-0.336728	0.000185
N64	N	1.105600	-0.411668	-0.058607
H65	H	1.160956	-0.450669	-0.058573
N66	N	0.810703	0.449071	0.215497
N67	N	0.761671	0.524482	0.254524
H68	H	0.725012	0.580839	0.223006
H69	H	0.556953	0.022797	0.000110
N70	N	1.012674	-0.160331	-0.140960
N71	N	0.990160	-0.189794	-0.212001
H72	H	1.021022	-0.163537	-0.263293
N73	N	0.856116	-0.321768	-0.140960
N74	N	0.786414	-0.287635	-0.153146
H75	H	0.760349	-0.321275	-0.204421
H76	H	1.041751	0.093852	0.617068
H77	H	0.673878	0.460637	0.000058
H78	H	0.849937	0.388816	0.617072
H79	H	1.034282	0.105370	0.775644
N80	N	0.831083	0.417841	0.784687
N81	N	0.785719	0.487572	0.745660
H82	H	0.746091	0.548504	0.777180
H83	H	0.150069	0.496026	0.000095
H84	H	0.330113	0.097054	0.000118
N85	N	0.174965	0.052609	0.000120
N86	N	0.219274	-0.045556	0.000128
H87	H	0.196034	-0.132614	0.000131
H88	H	0.705444	0.042226	0.000087
N89	N	0.775557	-0.124728	0.000162
N90	N	0.726950	-0.143146	0.058854
H91	H	0.671631	-0.103971	0.058914
N92	N	0.842770	-0.301377	0.141154
N93	N	0.771916	-0.265491	0.153346
H94	H	0.741013	-0.291720	0.204619
