data_functionalizedCrystal
_audit_creation_method	'MofGen! by Chris Wilmer'
_symmetry_space_group_name_H-M	'P1'
_symmetry_Int_Tables_number	1
_symmetry_cell_setting	triclinic
loop_
_symmetry_equiv_pos_as_xyz
  x,y,z
_cell_length_a	9.065218
_cell_length_b	10.654550
_cell_length_c	9.730223
_cell_angle_alpha	90.000043
_cell_angle_beta	89.997438
_cell_angle_gamma	95.249592
loop_
_atom_site_label
_atom_site_type_symbol
_atom_site_fract_x
_atom_site_fract_y
_atom_site_fract_z
O1	O	0.207235	-1.668660	-0.114181
O2	O	0.226979	-1.303260	-0.114206
O3	O	0.002423	-1.493512	-0.114190
O4	O	0.431790	-1.478407	-0.114197
O5	O	0.002417	-1.493500	0.114390
O6	O	0.226972	-1.303247	0.114374
O7	O	0.207228	-1.668647	0.114399
Zn8	Zn	0.217099	-1.485945	0.150678
Zn9	Zn	0.217108	-1.485962	-0.150486
O10	O	0.431784	-1.478395	0.114383
C11	C	0.225526	-1.256450	0.000081
C12	C	0.221188	-1.116989	0.000071
C13	C	-0.052559	-1.492055	0.000097
C14	C	-0.216378	-1.487714	0.000091
C15	C	0.208681	-1.715457	0.000109
C16	C	0.213019	-1.854918	0.000109
C17	C	0.486766	-1.479852	0.000092
C18	C	0.650585	-1.484193	0.000090
N19	N	0.217093	-1.485943	0.356215
C20	C	0.353403	-1.038027	0.000073
C21	C	0.349319	-0.906990	0.000097
C22	C	0.080794	-0.933890	0.000112
C23	C	0.084879	-1.064924	0.000098
N24	N	0.217102	-1.485973	-0.356022
C25	C	0.117702	-1.570217	0.428148
C26	C	0.117703	-1.570229	0.572031
C27	C	0.316498	-1.401691	0.572035
C28	C	0.316489	-1.401674	0.428155
H29	H	0.464395	-1.080414	0.000062
H30	H	0.036766	-1.638832	0.369577
H31	H	0.456982	-0.842704	0.000102
C32	C	0.008376	-1.662934	0.651159
C33	C	-0.100929	-1.755644	0.572024
C34	C	-0.210262	-1.848352	0.651152
C35	C	-0.210291	-1.848350	0.809415
C36	C	-0.100982	-1.755637	0.888558
C37	C	0.008351	-1.662930	0.809430
H38	H	-0.100911	-1.755648	0.454860
H39	H	-0.291180	-1.916984	0.592564
H40	H	-0.291226	-1.916978	0.867990
H41	H	-0.101000	-1.755633	1.005722
H42	H	0.089269	-1.594297	0.868018
H43	H	-0.022793	-1.129219	0.000100
H44	H	0.397426	-1.333042	0.369583
C45	C	0.425842	-1.309007	0.651170
C46	C	0.425950	-1.309092	0.809433
C47	C	0.535302	-1.216408	0.888562
C48	C	0.644545	-1.123638	0.809429
C49	C	0.644441	-1.123549	0.651158
C50	C	0.535090	-1.216233	0.572028
H51	H	0.345078	-1.377769	0.868019
H52	H	0.535378	-1.216474	1.005726
H53	H	0.725493	-1.055027	0.868006
H54	H	0.725313	-1.054872	0.592571
H55	H	0.535014	-1.216167	0.454865
H56	H	-0.030185	-0.891482	0.000141
