data_functionalizedCrystal
_audit_creation_method	'MofGen! by Chris Wilmer'
_symmetry_space_group_name_H-M	'P1'
_symmetry_Int_Tables_number	1
_symmetry_cell_setting	triclinic
loop_
_symmetry_equiv_pos_as_xyz
  x,y,z
_cell_length_a	21.295418
_cell_length_b	21.295416
_cell_length_c	21.295411
_cell_angle_alpha	89.980829
_cell_angle_beta	89.952143
_cell_angle_gamma	90.048540
loop_
_atom_site_label
_atom_site_type_symbol
_atom_site_fract_x
_atom_site_fract_y
_atom_site_fract_z
Zn1	Zn	-0.962357	0.250375	0.356314
Zn2	Zn	-0.962259	0.355627	0.251044
Zn3	Zn	-0.857080	0.250409	0.251016
Zn4	Zn	-0.857050	0.355644	0.356232
O5	O	-0.909686	0.303014	0.303651
O6	O	-1.050433	0.264316	0.342395
O7	O	-0.948279	0.341677	0.162950
O8	O	-0.871098	0.162315	0.265006
O9	O	-1.050362	0.341644	0.265053
O10	O	-0.948445	0.162290	0.342368
O11	O	-0.871004	0.264373	0.162930
O12	O	-0.768986	0.264390	0.264927
O13	O	-0.871047	0.341672	0.444333
O14	O	-0.768964	0.341705	0.342230
O15	O	-0.948415	0.264332	0.444392
O16	O	-0.948250	0.443718	0.264975
O17	O	-0.870952	0.443731	0.342257
C18	C	-0.746135	0.303054	0.303567
C19	C	-0.676167	0.303086	0.303546
C20	C	-0.909604	0.466565	0.303624
C21	C	-0.909627	0.536533	0.303633
C22	C	-0.643305	0.343399	0.343735
C23	C	-0.577562	0.343386	0.343758
C24	C	-0.544684	0.303067	0.303582
C25	C	-0.577554	0.262746	0.263390
C26	C	-0.643295	0.262756	0.263372
N27	N	-0.441408	0.298144	0.248517
N28	N	-0.378957	0.298139	0.248535
C29	C	-0.346609	0.303035	0.303634
N30	N	-0.379073	0.307949	0.358715
N31	N	-0.441530	0.307958	0.358696
C32	C	-0.473399	0.303052	0.303597
C33	C	-0.242462	0.343336	0.343852
C34	C	-0.176718	0.343319	0.343877
C35	C	-0.176711	0.262683	0.263503
C36	C	-0.242454	0.262696	0.263484
C37	C	-0.275325	0.303027	0.303658
C38	C	-0.073877	0.302984	0.303718
C39	C	-0.143845	0.302999	0.303701
C40	C	-0.949911	0.569373	0.263435
C41	C	-0.949941	0.635115	0.263452
C42	C	-0.909675	0.668016	0.303660
C43	C	-0.869388	0.635169	0.343866
C44	C	-0.869364	0.569427	0.343852
N45	N	-0.854608	0.771300	0.308435
N46	N	-0.854633	0.833751	0.308444
C47	C	-0.909746	0.866090	0.303705
N48	N	-0.964835	0.833619	0.298943
N49	N	-0.964810	0.771162	0.298930
C50	C	-0.909697	0.739301	0.303680
C51	C	-0.950066	0.970215	0.263523
C52	C	-0.950097	1.035959	0.263545
C53	C	-0.869538	1.036011	0.343955
C54	C	-0.869513	0.970269	0.343937
C55	C	-0.909776	0.937375	0.303718
C56	C	-0.909739	0.303000	0.467842
C57	C	-0.909761	0.302995	0.537810
C58	C	-0.909787	1.138823	0.303704
C59	C	-0.909831	1.068855	0.303754
C60	C	-0.909671	0.302981	0.140100
C61	C	-0.909770	0.302810	0.070132
C62	C	-0.950045	0.262722	0.570709
C63	C	-0.950044	0.262694	0.636451
C64	C	-0.909766	0.302951	0.669292
C65	C	-0.869474	0.343227	0.636386
C66	C	-0.869471	0.343249	0.570644
N67	N	-0.904909	0.358021	0.772508
N68	N	-0.904915	0.357998	0.834960
C69	C	-0.909770	0.302887	0.867367
N70	N	-0.914630	0.247799	0.834964
N71	N	-0.914628	0.247822	0.772507
C72	C	-0.909764	0.302932	0.740578
C73	C	-0.950055	0.262581	0.971552
C74	C	-0.950050	0.262553	1.037295
C75	C	-0.869483	0.343092	1.037229
C76	C	-0.869485	0.343114	0.971486
C77	C	-0.909774	0.302860	0.938652
H78	H	-0.670065	0.376238	0.376448
C79	C	-0.825245	1.072194	0.388187
C80	C	-0.780929	1.036067	0.432404
C81	C	-0.736637	1.072253	0.476640
C82	C	-0.736662	1.144566	0.476659
C83	C	-0.780980	1.180696	0.432441
C84	C	-0.825272	1.144511	0.388205
H85	H	-0.780909	0.982533	0.432391
H86	H	-0.703830	1.045506	0.509373
H87	H	-0.703875	1.171352	0.509405
H88	H	-0.781000	1.234230	0.432453
H89	H	-0.858079	1.171257	0.355472
H90	H	-0.836604	0.661961	0.376605
C91	C	-0.278603	0.218360	0.219264
C92	C	-0.269641	0.146804	0.224523
C93	C	-0.305789	0.102465	0.180300
C94	C	-0.350899	0.129682	0.130817
C95	C	-0.359863	0.201241	0.125555
C96	C	-0.323715	0.245580	0.169779
H97	H	-0.236246	0.126653	0.261155
H98	H	-0.299153	0.049492	0.184195
H99	H	-0.377658	0.096859	0.098080
H100	H	-0.393258	0.221392	0.088923
H101	H	-0.330351	0.298554	0.165883
C102	C	-0.994206	0.533193	0.219198
C103	C	-0.989108	0.542281	0.147632
C104	C	-1.033404	0.506101	0.103397
C105	C	-1.082800	0.460833	0.130727
C106	C	-1.087900	0.451743	0.202296
C107	C	-1.043604	0.487923	0.246532
H108	H	-0.952541	0.575793	0.127398
H109	H	-1.029628	0.512831	0.050416
H110	H	-1.115591	0.434051	0.097981
H111	H	-1.124467	0.418231	0.222531
H112	H	-1.047380	0.481194	0.299513
H113	H	-0.149963	0.376145	0.376607
C114	C	-0.994252	0.671251	0.219229
C115	C	-0.967004	0.716506	0.169787
C116	C	-1.011313	0.752640	0.125563
C117	C	-1.082870	0.743519	0.130781
C118	C	-1.110122	0.698261	0.180225
C119	C	-1.065813	0.662127	0.224448
H120	H	-0.914029	0.723260	0.165923
H121	H	-0.991138	0.786142	0.088962
H122	H	-1.115670	0.770267	0.098044
H123	H	-1.163097	0.691507	0.184089
H124	H	-1.085988	0.628625	0.261050
H125	H	-0.836558	0.542689	0.376587
C126	C	-0.994359	0.934027	0.219289
C127	C	-1.038681	0.970153	0.175077
C128	C	-1.082974	0.933966	0.130843
C129	C	-1.082946	0.861653	0.130822
C130	C	-1.038622	0.825523	0.175036
C131	C	-0.994329	0.861710	0.219269
H132	H	-1.038704	1.023687	0.175092
H133	H	-1.115785	0.960713	0.098113
H134	H	-1.115734	0.834866	0.098077
H135	H	-1.038600	0.771989	0.175021
H136	H	-0.961518	0.834963	0.251999
H137	H	-0.149942	0.229851	0.230794
C138	C	-0.994417	1.072083	0.219325
C139	C	-0.989307	1.063093	0.147755
C140	C	-1.033628	1.099217	0.103536
C141	C	-1.083059	1.144332	0.130887
C142	C	-1.088171	1.153323	0.202461
C143	C	-1.043850	1.117199	0.246680
H144	H	-0.952713	1.029695	0.127505
H145	H	-1.029844	1.092561	0.050552
H146	H	-1.115869	1.171073	0.098153
H147	H	-1.124765	1.186721	0.222711
H148	H	-1.047634	1.123856	0.299664
H149	H	-0.836707	0.943529	0.376668
H150	H	-0.982851	0.229943	0.543979
H151	H	-0.982847	0.229896	0.663242
H152	H	-0.836677	0.376003	0.663129
C153	C	-0.825158	0.387555	0.534454
C154	C	-0.753600	0.382432	0.543434
C155	C	-0.709286	0.426740	0.507243
C156	C	-0.736531	0.476171	0.462071
C157	C	-0.808093	0.481297	0.453088
C158	C	-0.852406	0.436989	0.489280
H159	H	-0.733428	0.345837	0.576875
H160	H	-0.656311	0.422945	0.513893
H161	H	-0.703728	0.508971	0.435280
H162	H	-0.828265	0.517891	0.419647
H163	H	-0.905381	0.440784	0.482630
C164	C	-0.994365	0.218297	0.935428
C165	C	-1.038670	0.173987	0.971620
C166	C	-1.082979	0.129702	0.935498
C167	C	-1.082982	0.129727	0.863186
C168	C	-1.038674	0.174038	0.826990
C169	C	-0.994366	0.218324	0.863111
H170	H	-1.038670	0.173967	1.025154
H171	H	-1.115778	0.096899	0.962293
H172	H	-1.115782	0.096944	0.836447
H173	H	-1.038675	0.174058	0.773456
H174	H	-0.961566	0.251126	0.836316
H175	H	-0.982853	0.229754	1.064080
H176	H	-0.269228	0.376172	0.376567
C177	C	-0.825174	0.387375	1.073346
C178	C	-0.825173	0.387353	1.145659
C179	C	-0.780861	0.431635	1.181779
C180	C	-0.736550	0.475940	1.145587
C181	C	-0.736549	0.475963	1.073270
C182	C	-0.780861	0.431681	1.037150
H183	H	-0.857976	0.354555	1.172454
H184	H	-0.780862	0.431618	1.235313
H185	H	-0.703748	0.508720	1.172326
H186	H	-0.703746	0.508761	1.046475
H187	H	-0.780861	0.431698	0.983616
H188	H	-0.836685	0.375913	0.944700
H189	H	-0.550801	0.376213	0.376487
C190	C	-0.541390	0.218395	0.219195
C191	C	-0.496270	0.169011	0.246575
C192	C	-0.460107	0.124656	0.202381
C193	C	-0.469063	0.129686	0.130808
C194	C	-0.514185	0.179072	0.103425
C195	C	-0.550348	0.223427	0.147618
H196	H	-0.489638	0.165287	0.299561
H197	H	-0.426705	0.088098	0.222652
H198	H	-0.442293	0.096852	0.098093
H199	H	-0.520816	0.182797	0.050438
H200	H	-0.583750	0.259986	0.127347
C201	C	-0.679446	0.218413	0.219157
C202	C	-0.670488	0.146857	0.224422
C203	C	-0.706640	0.102516	0.180204
C204	C	-0.751750	0.129731	0.130720
C205	C	-0.760710	0.201291	0.125453
C206	C	-0.724558	0.245632	0.169671
H207	H	-0.637093	0.126708	0.261055
H208	H	-0.700006	0.049543	0.184104
H209	H	-0.778512	0.096907	0.097987
H210	H	-0.794105	0.221440	0.088820
H211	H	-0.731192	0.298605	0.165771
