data_functionalizedCrystal
_audit_creation_method	'MofGen! by Chris Wilmer'
_symmetry_space_group_name_H-M	'P1'
_symmetry_Int_Tables_number	1
_symmetry_cell_setting	triclinic
loop_
_symmetry_equiv_pos_as_xyz
  x,y,z
_cell_length_a	16.120444
_cell_length_b	12.759395
_cell_length_c	12.759387
_cell_angle_alpha	89.979491
_cell_angle_beta	87.135681
_cell_angle_gamma	87.071990
loop_
_atom_site_label
_atom_site_type_symbol
_atom_site_fract_x
_atom_site_fract_y
_atom_site_fract_z
Zn1	Zn	-0.331830	-1.584980	0.615172
Zn2	Zn	-0.471267	-1.575924	0.448387
Zn3	Zn	-0.331875	-1.409275	0.439512
Zn4	Zn	-0.471207	-1.400328	0.624022
O5	O	-0.401545	-1.492627	0.531773
O6	O	-0.350332	-1.730799	0.593058
O7	O	-0.452820	-1.553773	0.300191
O8	O	-0.215203	-1.440116	0.455395
O9	O	-0.452776	-1.724146	0.470522
O10	O	-0.215170	-1.569206	0.584452
O11	O	-0.350409	-1.431336	0.293671
O12	O	-0.350352	-1.261067	0.463977
O13	O	-0.452675	-1.424868	0.769867
O14	O	-0.452719	-1.254494	0.599536
O15	O	-0.350274	-1.560530	0.763364
O16	O	-0.587925	-1.545097	0.479104
O17	O	-0.587881	-1.416087	0.608142
C18	C	-0.401534	-1.219660	0.531755
C19	C	-0.401550	-1.102882	0.531773
C20	C	-0.618153	-1.478667	0.545569
C21	C	-0.710819	-1.472792	0.551506
C22	C	-0.921763	-1.523365	0.501201
C23	C	-0.880475	-1.462083	0.562357
C24	C	-0.786070	-1.468043	0.556318
C25	C	-1.016177	-1.517406	0.507238
C26	C	-0.401463	-1.492711	0.805802
C27	C	-0.401428	-1.492747	0.922576
C28	C	-0.184090	-1.506669	0.517947
C29	C	-0.091424	-1.512653	0.512054
C30	C	-0.401555	-1.766659	0.531793
C31	C	-0.401560	-1.883436	0.531801
C32	C	-0.508317	-1.096065	0.672724
C33	C	-0.561707	-1.037795	0.743203
C34	C	-0.561717	-0.928073	0.743217
C35	C	-0.508330	-0.876618	0.672746
C36	C	-0.454940	-0.934888	0.602267
C37	C	-0.454937	-1.044613	0.602259
C38	C	-0.348170	-0.941706	0.461322
C39	C	-0.348163	-1.051428	0.461302
C40	C	-0.294782	-0.890251	0.390851
C41	C	-0.241395	-0.948521	0.320365
C42	C	-0.241388	-1.058249	0.320354
C43	C	-0.294773	-1.109697	0.390823
C44	C	-0.401566	-1.492607	0.258807
C45	C	-0.401366	-1.492789	0.142018
C46	C	-0.294806	-1.634022	0.915826
C47	C	-0.241482	-1.704674	0.967310
C48	C	-0.241452	-1.704702	1.077030
C49	C	-0.294749	-1.634067	1.135268
C50	C	-0.348073	-1.563414	1.083783
C51	C	-0.348099	-1.563397	0.974061
C52	C	-0.454689	-1.422137	1.090533
C53	C	-0.454725	-1.422113	0.980814
C54	C	-0.507987	-1.351502	1.148771
C55	C	-0.561316	-1.280853	1.097287
C56	C	-0.561345	-1.280829	0.987560
C57	C	-0.508049	-1.351460	0.929329
H58	H	-0.916029	-1.405143	0.619250
C59	C	-0.874318	-1.599104	0.425202
C60	C	-0.824434	-1.542720	0.354675
C61	C	-0.780713	-1.612448	0.284640
H62	H	-0.840215	-1.646991	0.463167
H63	H	-0.912607	-1.636754	0.387554
H64	H	-0.786149	-1.505087	0.392319
H65	H	-0.858516	-1.494837	0.316686
H66	H	-0.819002	-1.650099	0.246992
H67	H	-0.746615	-1.660332	0.322613
H68	H	-0.746868	-1.574201	0.236773
C69	C	-0.508134	-1.351525	1.267907
C70	C	-0.587509	-1.373170	1.309252
C71	C	-0.587683	-1.373187	1.418996
H72	H	-0.468810	-1.403711	1.290371
H73	H	-0.493747	-1.284652	1.291845
H74	H	-0.601886	-1.440034	1.285324
H75	H	-0.626847	-1.320992	1.286818
H76	H	-0.573296	-1.306314	1.442934
H77	H	-0.548356	-1.425373	1.441449
H78	H	-0.641539	-1.387863	1.447062
C79	C	-0.619310	-1.204223	1.160389
C80	C	-0.701808	-1.221743	1.138935
C81	C	-0.755257	-1.151162	1.197039
H82	H	-0.611765	-1.214279	1.233130
H83	H	-0.607159	-1.134397	1.141598
H84	H	-0.713956	-1.291552	1.157733
H85	H	-0.709380	-1.211678	1.066205
H86	H	-0.743105	-1.081337	1.178248
H87	H	-0.747704	-1.161225	1.269777
H88	H	-0.811237	-1.163033	1.182484
C89	C	-0.183715	-1.781321	0.903897
C90	C	-0.195169	-1.766203	0.796790
C91	C	-0.141977	-1.836800	0.738348
H92	H	-0.127657	-1.769650	0.918185
H93	H	-0.195934	-1.851145	0.922610
H94	H	-0.182944	-1.696395	0.778084
H95	H	-0.251216	-1.777882	0.782470
H96	H	-0.154196	-1.906625	0.757061
H97	H	-0.085922	-1.825123	0.752645
H98	H	-0.149747	-1.826559	0.665670
C99	C	-0.508412	-1.215186	0.672894
C100	C	-0.566581	-1.247776	0.749701
C101	C	-0.566688	-1.357503	0.749896
H102	H	-0.522789	-1.239168	0.606035
H103	H	-0.454646	-1.243529	0.687804
H104	H	-0.620335	-1.219444	0.734785
H105	H	-0.552217	-1.223822	0.816572
H106	H	-0.512922	-1.385847	0.764806
H107	H	-0.581063	-1.381476	0.683033
H108	H	-0.606149	-1.379630	0.802015
H109	H	-0.605188	-0.880630	0.800612
H110	H	-0.605173	-1.079702	0.800581
C111	C	-0.508490	-0.757481	0.672889
C112	C	-0.566684	-0.717464	0.749680
C113	C	-0.566861	-0.607719	0.749831
H114	H	-0.454759	-0.735998	0.687790
H115	H	-0.522883	-0.731663	0.605997
H116	H	-0.552285	-0.743272	0.816558
H117	H	-0.620423	-0.738917	0.734797
H118	H	-0.581255	-0.581900	0.682939
H119	H	-0.513127	-0.586246	0.764730
H120	H	-0.606350	-0.580552	0.801926
C121	C	-0.294638	-0.771134	0.390962
C122	C	-0.215303	-0.739945	0.412916
C123	C	-0.215143	-0.630222	0.413036
H124	H	-0.308934	-0.745232	0.324078
H125	H	-0.334044	-0.743760	0.443055
H126	H	-0.175909	-0.767307	0.360826
H127	H	-0.200990	-0.765818	0.479799
H128	H	-0.254548	-0.602849	0.465129
H129	H	-0.229442	-0.604331	0.346151
H130	H	-0.161317	-0.609046	0.427941
H131	H	-0.604758	-1.223284	0.945648
H132	H	-0.294712	-1.634087	1.224607
H133	H	-0.197928	-0.906618	0.262998
C134	C	-0.183317	-1.121570	0.243998
C135	C	-0.129922	-1.188011	0.300191
C136	C	-0.076407	-1.246342	0.229886
H137	H	-0.215060	-1.162390	0.200143
H138	H	-0.151478	-1.075242	0.202052
H139	H	-0.161757	-1.234334	0.342119
H140	H	-0.098160	-1.147219	0.344042
H141	H	-0.044569	-1.200014	0.187940
H142	H	-0.108158	-1.287156	0.186035
H143	H	-0.040168	-1.291422	0.268003
C144	C	-0.183526	-1.781525	1.132743
C145	C	-0.136869	-1.843393	1.058265
C146	C	-0.083509	-1.914181	1.109549
H147	H	-0.147114	-1.743814	1.173232
H148	H	-0.215396	-1.825303	1.177554
H149	H	-0.105002	-1.799620	1.013473
H150	H	-0.173260	-1.881126	1.017773
H151	H	-0.115379	-1.957960	1.154360
H152	H	-0.047102	-1.876462	1.150037
H153	H	-0.051851	-1.956174	1.059025
H154	H	-0.508071	-1.351452	0.839989
H155	H	-0.294833	-1.634016	0.826486
H156	H	-0.294774	-1.199038	0.390817
