data_functionalizedCrystal
_audit_creation_method	'MofGen! by Chris Wilmer'
_symmetry_space_group_name_H-M	'P1'
_symmetry_Int_Tables_number	1
_symmetry_cell_setting	triclinic
loop_
_symmetry_equiv_pos_as_xyz
  x,y,z
_cell_length_a	14.044220
_cell_length_b	27.732048
_cell_length_c	13.101039
_cell_angle_alpha	93.329410
_cell_angle_beta	86.340132
_cell_angle_gamma	87.915767
loop_
_atom_site_label
_atom_site_type_symbol
_atom_site_fract_x
_atom_site_fract_y
_atom_site_fract_z
O1	O	1.261246	0.114020	-0.085126
O2	O	0.985339	0.109817	-0.085151
O3	O	1.131860	0.041925	-0.085119
O4	O	1.114725	0.181913	-0.085159
O5	O	1.121348	0.046805	0.085309
O6	O	0.974827	0.114697	0.085276
O7	O	1.250733	0.118900	0.085301
Zn8	Zn	1.111111	0.117574	0.112348
Zn9	Zn	1.124962	0.111144	-0.112198
O10	O	1.104212	0.186793	0.085268
C11	C	0.944796	0.110418	0.000059
C12	C	0.839651	0.104930	0.000051
C13	C	0.647135	0.094899	0.000074
C14	C	0.588932	0.133816	0.000067
C15	C	0.481810	0.128235	0.000080
C16	C	0.754268	0.100480	0.000061
C17	C	1.126244	0.026341	0.000098
C18	C	1.125160	-0.027364	0.000106
C19	C	1.204929	-0.362438	0.000061
C20	C	1.200910	-0.564286	0.000046
O21	O	1.273853	-0.592120	0.000008
N22	N	1.114029	-0.587487	0.000039
C23	C	1.028146	-0.560223	0.000029
O24	O	0.954156	-0.584589	0.000012
C25	C	1.032166	-0.358376	0.000037
C26	C	1.119052	-0.335177	0.000054
C27	C	1.291808	-0.339239	0.000077
C28	C	1.292812	-0.288779	0.000086
C29	C	1.206935	-0.261519	0.000079
C30	C	1.120056	-0.284718	0.000063
C31	C	0.946285	-0.331113	0.000019
C32	C	0.947297	-0.280648	0.000018
C33	C	1.034184	-0.257449	0.000036
C34	C	1.035183	-0.206998	0.000066
N35	N	1.122064	-0.183797	0.000072
C36	C	1.207941	-0.211057	0.000079
C37	C	1.026042	-0.666196	0.000027
C38	C	1.025036	-0.716658	0.000027
C39	C	1.197801	-0.720717	0.000043
C40	C	1.198805	-0.670255	0.000050
C41	C	1.112923	-0.642995	0.000034
C42	C	1.210041	-0.105089	0.000100
C43	C	1.211037	-0.054625	0.000113
C44	C	1.038273	-0.050570	0.000093
C45	C	1.037276	-0.101030	0.000085
C46	C	1.123168	-0.128288	0.000085
O47	O	0.962280	-0.179134	0.000092
O48	O	1.281921	-0.186683	0.000073
C49	C	1.203925	-0.412897	0.000052
C50	C	1.117046	-0.436096	0.000035
C51	C	1.031169	-0.408835	0.000029
C52	C	1.116040	-0.486557	0.000035
C53	C	1.201917	-0.513818	0.000042
C54	C	1.288798	-0.490617	0.000049
C55	C	1.289802	-0.440157	0.000059
C56	C	0.944288	-0.432037	0.000022
C57	C	0.943292	-0.482496	0.000013
C58	C	1.029168	-0.509756	0.000020
C59	C	1.291277	0.118300	0.000088
C60	C	1.396422	0.123787	0.000090
C61	C	1.109828	0.202376	0.000050
C62	C	1.110913	0.256082	0.000034
N63	N	1.101664	0.121962	0.265594
N64	N	1.134415	0.106752	-0.265444
C65	C	1.088813	0.127936	0.474634
C66	C	1.147264	0.100779	0.525523
C67	C	1.140113	0.104104	0.641839
C68	C	1.095962	0.124612	0.358306
H69	H	0.619555	0.171325	0.000051
H70	H	1.033404	0.153681	0.518418
H71	H	0.616514	0.057393	0.000090
C72	C	1.222131	0.066001	0.466372
C73	C	1.229225	0.062657	0.348373
C74	C	1.304092	0.027882	0.289217
C75	C	1.371863	-0.003550	0.348060
C76	C	1.364771	-0.000207	0.466066
C77	C	1.289905	0.034568	0.525222
H78	H	1.179055	0.085925	0.304808
H79	H	1.309341	0.025407	0.201861
H80	H	1.427284	-0.029293	0.304269
H81	H	1.414941	-0.023476	0.509631
H82	H	1.284655	0.037042	0.612578
H83	H	0.956102	-0.644006	0.000015
C84	C	1.304521	-0.135068	0.000108
C85	C	1.370452	-0.127273	0.088622
C86	C	1.464930	-0.157252	0.088639
C87	C	1.493477	-0.195026	0.000142
C88	C	1.427545	-0.202823	-0.088379
C89	C	1.333067	-0.172844	-0.088396
H90	H	1.349321	-0.099308	0.154140
H91	H	1.513738	-0.151480	0.154169
H92	H	1.563416	-0.217219	0.000154
H93	H	1.448676	-0.230788	-0.153896
H94	H	1.284259	-0.178617	-0.153926
H95	H	1.281793	-0.035739	0.000130
C96	C	0.850702	-0.356619	0.000003
C97	C	0.820770	-0.388219	0.088498
C98	C	0.725179	-0.413722	0.088484
C99	C	0.659521	-0.407626	-0.000024
C100	C	0.689452	-0.376025	-0.088526
C101	C	0.785043	-0.350522	-0.088512
H102	H	0.869375	-0.392733	0.154023
H103	H	0.703022	-0.437115	0.154000
H104	H	0.588759	-0.426505	-0.000035
H105	H	0.640847	-0.371511	-0.154051
H106	H	0.807199	-0.327129	-0.154027
C107	C	1.294381	-0.644738	0.000060
C108	C	1.360046	-0.650827	0.088565
C109	C	1.455627	-0.625314	0.088573
C110	C	1.485542	-0.593712	0.000075
C111	C	1.419875	-0.587623	-0.088437
C112	C	1.324295	-0.613136	-0.088444
H113	H	1.337902	-0.674221	0.154082
H114	H	1.504237	-0.629822	0.154096
H115	H	1.556296	-0.574826	0.000081
H116	H	1.442019	-0.564228	-0.153954
H117	H	1.275684	-0.608627	-0.153967
H118	H	1.363564	-0.269896	0.000096
C119	C	0.852823	-0.250663	0.000005
C120	C	0.786886	-0.258455	-0.088505
C121	C	0.692413	-0.228470	-0.088516
C122	C	0.663878	-0.190695	-0.000018
C123	C	0.729818	-0.182901	0.088498
C124	C	0.824290	-0.212886	0.088510
H125	H	0.808007	-0.286420	-0.154023
H126	H	0.643601	-0.234240	-0.154042
H127	H	0.593944	-0.168498	-0.000026
H128	H	0.708696	-0.154936	0.154016
H129	H	0.873102	-0.207116	0.154036
H130	H	1.361743	-0.361429	0.000079
H131	H	1.267725	-0.742921	0.000049
C132	C	1.385381	-0.414644	0.000067
C133	C	1.451049	-0.420738	0.088568
C134	C	1.546634	-0.395229	0.088573
C135	C	1.576551	-0.363626	0.000078
C136	C	1.510881	-0.357531	-0.088429
C137	C	1.415296	-0.383040	-0.088434
H138	H	1.428905	-0.444133	0.154083
H139	H	1.595248	-0.399741	0.154092
H140	H	1.647308	-0.344743	0.000082
H141	H	1.533025	-0.334135	-0.153944
H142	H	1.366683	-0.378528	-0.153954
H143	H	0.954283	-0.735541	0.000031
H144	H	0.966524	-0.119918	0.000099
H145	H	1.358722	-0.512821	0.000060
H146	H	0.968354	-0.028365	0.000091
H147	H	0.872532	-0.501380	0.000008
H148	H	0.874355	-0.409846	0.000014
