data_functionalizedCrystal
_audit_creation_method	'MofGen! by Chris Wilmer'
_symmetry_space_group_name_H-M	'P1'
_symmetry_Int_Tables_number	1
_symmetry_cell_setting	triclinic
loop_
_symmetry_equiv_pos_as_xyz
  x,y,z
_cell_length_a	9.065218
_cell_length_b	12.837942
_cell_length_c	8.140239
_cell_angle_alpha	89.996939
_cell_angle_beta	89.997198
_cell_angle_gamma	89.922413
loop_
_atom_site_label
_atom_site_type_symbol
_atom_site_fract_x
_atom_site_fract_y
_atom_site_fract_z
O1	O	1.978903	0.152196	-0.136617
O2	O	1.551136	0.164680	-0.136619
O3	O	1.755534	0.007446	-0.136608
O4	O	1.774505	0.309430	-0.136628
O5	O	1.755521	0.007444	0.136619
O6	O	1.551123	0.164678	0.136608
O7	O	1.978890	0.152194	0.136610
Zn8	Zn	1.765005	0.158436	0.179990
Zn9	Zn	1.765021	0.158439	-0.179999
O10	O	1.774492	0.309428	0.136599
C11	C	1.495997	0.163479	-0.000006
C12	C	1.331718	0.159892	-0.000007
C13	C	1.749119	-0.031235	0.000004
C14	C	1.730006	-0.146492	0.000002
C15	C	1.959783	-0.385293	-0.000031
C16	C	1.941831	-0.493587	-0.000034
C17	C	1.676152	-0.471377	-0.000019
C18	C	1.694104	-0.363083	-0.000016
C19	C	1.835924	-0.320045	-0.000020
C20	C	1.853874	-0.211748	-0.000005
C21	C	1.588196	-0.189540	-0.000001
C22	C	1.570245	-0.297835	-0.000004
C23	C	2.034029	0.153395	-0.000007
C24	C	2.198308	0.156983	-0.000017
C25	C	1.780907	0.348110	-0.000017
C26	C	1.800020	0.463366	-0.000025
N27	N	1.765004	0.158434	0.425672
N28	N	1.765033	0.158433	-0.425681
H29	H	1.969351	-0.176709	-0.000002
H30	H	2.075258	-0.350251	-0.000019
C31	C	1.453658	-0.118746	0.000350
C32	C	1.369172	-0.138381	0.140945
C33	C	1.245241	-0.073175	0.141344
H34	H	1.395964	-0.131862	-0.094815
H35	H	1.484600	-0.048070	0.000445
H36	H	1.338228	-0.209040	0.140836
H37	H	1.426822	-0.125258	0.236133
H38	H	1.276183	-0.002499	0.141439
H39	H	1.187560	-0.086296	0.046173
H40	H	1.187910	-0.086481	0.236743
C41	C	1.416398	-0.344767	0.000089
C42	C	1.427182	-0.453572	0.000123
C43	C	1.285487	-0.496838	0.000237
H44	H	1.364623	-0.322566	-0.095156
H45	H	1.364744	-0.322521	0.095417
H46	H	1.478814	-0.475809	-0.095195
H47	H	1.478930	-0.475802	0.095361
H48	H	1.233833	-0.474592	0.095565
H49	H	1.233723	-0.474630	-0.095010
H50	H	1.292785	-0.570666	0.000275
H51	H	2.042690	-0.546709	-0.000049
H52	H	1.560688	-0.506438	-0.000033
