data_functionalizedCrystal
_audit_creation_method	'MofGen! by Chris Wilmer'
_symmetry_space_group_name_H-M	'P1'
_symmetry_Int_Tables_number	1
_symmetry_cell_setting	triclinic
loop_
_symmetry_equiv_pos_as_xyz
  x,y,z
_cell_length_a	14.853567
_cell_length_b	14.853567
_cell_length_c	13.330367
_cell_angle_alpha	90.000844
_cell_angle_beta	89.994807
_cell_angle_gamma	96.365070
loop_
_atom_site_label
_atom_site_type_symbol
_atom_site_fract_x
_atom_site_fract_y
_atom_site_fract_z
O1	O	1.196369	-0.117704	-0.083360
O2	O	0.933909	-0.131725	-0.083373
O3	O	1.072150	0.006515	-0.083369
O4	O	1.058128	-0.255944	-0.083364
O5	O	1.072130	0.006519	0.083478
O6	O	0.933889	-0.131722	0.083474
O7	O	1.196349	-0.117700	0.083487
Cu8	Cu	1.065117	-0.124711	0.098715
Cu9	Cu	1.065141	-0.124715	-0.098601
O10	O	1.058108	-0.255941	0.083483
C11	C	0.900311	-0.131088	0.000049
C12	C	0.800227	-0.129184	0.000043
C13	C	1.071504	0.040106	0.000052
C14	C	1.069601	0.140189	0.000043
C15	C	1.229947	-0.118337	0.000063
C16	C	1.330031	-0.120241	0.000062
C17	C	1.742565	-0.210407	0.000046
C18	C	1.763846	-0.046174	0.000043
C19	C	1.669812	-0.044384	0.000049
C20	C	1.612150	-0.125607	0.000052
C21	C	1.648522	-0.208619	0.000049
C22	C	1.633433	0.038627	0.000041
C23	C	1.539394	0.040421	0.000046
C24	C	1.481730	-0.040803	0.000056
C25	C	1.518108	-0.123819	0.000054
C26	C	1.460446	-0.205042	0.000057
C27	C	1.496821	-0.288059	0.000062
C28	C	1.590859	-0.289843	0.000059
C29	C	1.387693	-0.039019	0.000059
C30	C	1.366403	-0.203254	0.000059
C31	C	1.058754	-0.289531	0.000061
C32	C	1.060657	-0.389615	0.000063
N33	N	1.065107	-0.124708	0.237497
C34	C	0.979435	0.552723	0.000057
C35	C	1.143668	0.574004	0.000065
C36	C	1.145458	0.479971	0.000060
C37	C	1.064235	0.422309	0.000054
C38	C	0.981223	0.458680	0.000055
C39	C	1.228469	0.443591	0.000069
C40	C	1.230262	0.349552	0.000065
C41	C	1.149039	0.291889	0.000052
C42	C	1.066023	0.328266	0.000051
C43	C	0.984800	0.270604	0.000046
C44	C	0.901783	0.306979	0.000038
C45	C	0.899999	0.401017	0.000042
C46	C	1.150823	0.197851	0.000048
C47	C	0.986588	0.176561	0.000043
N48	N	1.065158	-0.124711	-0.237382
C49	C	1.003925	-0.185903	0.710118
C50	C	1.126381	-0.063519	0.710089
C51	C	1.126371	-0.063516	0.605071
C52	C	1.065138	-0.124709	0.552571
C53	C	1.003915	-0.185904	0.605090
C54	C	1.187598	-0.002328	0.552544
C55	C	1.187591	-0.002323	0.447520
C56	C	1.126353	-0.063512	0.395018
C57	C	1.065127	-0.124710	0.447543
C58	C	1.003895	-0.185902	0.395043
C59	C	0.942664	-0.247096	0.447567
C60	C	0.942677	-0.247093	0.552588
C61	C	1.126340	-0.063515	0.289996
C62	C	1.003884	-0.185903	0.290015
H63	H	1.319460	-0.269396	0.000068
H64	H	1.620484	-0.357431	0.000061
C65	C	1.696855	0.127965	0.000021
H66	H	1.661725	0.177661	0.000004
H67	H	1.733983	0.130692	0.058200
H68	H	1.733980	0.130667	-0.058174
H69	H	0.911844	0.582344	0.000047
H70	H	0.954070	-0.235724	0.752885
C71	C	1.242127	0.157836	0.000060
H72	H	1.231560	0.093573	0.000062
H73	H	1.275588	0.177624	-0.058116
H74	H	1.275560	0.177616	0.058258
C75	C	1.782573	-0.301718	0.000048
H76	H	1.846836	-0.291155	0.000041
H77	H	1.762781	-0.335166	0.058230
H78	H	1.762793	-0.335162	-0.058144
C79	C	1.321575	0.309547	0.000060
H80	H	1.369691	0.357357	0.000056
H81	H	1.325685	0.273298	0.058237
H82	H	1.325689	0.273313	-0.058137
C83	C	0.936529	-0.253219	0.232273
H84	H	0.900072	-0.289664	0.278597
H85	H	0.898961	-0.220722	0.191307
H86	H	0.969006	-0.290814	0.191303
C87	C	1.193731	0.003787	0.767836
H88	H	1.184966	-0.004974	0.837905
H89	H	1.253907	-0.006110	0.750610
H90	H	1.183858	0.063978	0.750631
H91	H	0.892811	-0.296924	0.404809
H92	H	1.237447	0.047504	0.404762
H93	H	1.509786	0.108018	0.000043
H94	H	0.920445	0.129618	0.000034
C95	C	0.812444	0.243546	0.000030
H96	H	0.825404	0.182333	0.000026
H97	H	0.778397	0.254581	0.058208
H98	H	0.778422	0.254579	-0.058166
C99	C	0.875339	-0.314406	0.610365
H100	H	0.884125	-0.305648	0.680430
H101	H	0.815158	-0.304511	0.593174
H102	H	0.885210	-0.374595	0.593146
C103	C	0.808691	0.441032	0.000047
H104	H	0.819262	0.505295	0.000063
H105	H	0.775244	0.421256	-0.058135
H106	H	0.775243	0.421244	0.058238
C107	C	1.233007	0.637424	0.000072
H108	H	1.282702	0.602293	0.000077
H109	H	1.235728	0.674556	-0.058107
H110	H	1.235716	0.674545	0.058267
H111	H	1.294596	0.490546	0.000083
C112	C	1.347682	0.052288	0.000051
H113	H	1.395492	0.100404	0.000051
H114	H	1.311440	0.056394	-0.058129
H115	H	1.311442	0.056403	0.058245
H116	H	1.237457	0.047489	0.595293
C117	C	1.193684	0.003786	0.232221
H118	H	1.184912	-0.004980	0.162154
H119	H	1.183831	0.063975	0.249437
H120	H	1.253864	-0.006128	0.249417
C121	C	1.433388	-0.377398	0.000065
H122	H	1.372175	-0.364437	0.000069
H123	H	1.444428	-0.411437	-0.058114
H124	H	1.444415	-0.411427	0.058260
C125	C	1.827270	0.043163	0.000042
H126	H	1.888485	0.030209	0.000045
H127	H	1.816235	0.077200	-0.058138
H128	H	1.816230	0.077192	0.058236
