data_functionalizedCrystal
_audit_creation_method	'MofGen! by Chris Wilmer'
_symmetry_space_group_name_H-M	'P1'
_symmetry_Int_Tables_number	1
_symmetry_cell_setting	triclinic
loop_
_symmetry_equiv_pos_as_xyz
  x,y,z
_cell_length_a	23.532407
_cell_length_b	16.109301
_cell_length_c	14.586319
_cell_angle_alpha	90.000787
_cell_angle_beta	89.991566
_cell_angle_gamma	96.844921
loop_
_atom_site_label
_atom_site_type_symbol
_atom_site_fract_x
_atom_site_fract_y
_atom_site_fract_z
O1	O	0.073202	-1.102555	-0.076192
O2	O	0.573202	-0.602555	0.423808
O3	O	0.082312	-0.860422	-0.076208
O4	O	0.582312	-0.360422	0.423792
O5	O	-0.005148	-0.988790	-0.076183
O6	O	0.494852	-0.488790	0.423817
O7	O	0.160662	-0.974187	-0.076217
O8	O	0.660662	-0.474187	0.423783
O9	O	-0.005149	-0.988781	0.076298
O10	O	0.494851	-0.488781	0.576298
O11	O	0.082311	-0.860413	0.076273
O12	O	0.582311	-0.360413	0.576273
O13	O	0.073201	-1.102546	0.076289
O14	O	0.573201	-0.602546	0.576289
Cu15	Cu	0.077756	-0.981479	0.090204
Cu16	Cu	0.577756	-0.481479	0.590204
Cu17	Cu	0.077757	-0.981489	-0.090123
Cu18	Cu	0.577757	-0.481489	0.409877
O19	O	0.160660	-0.974178	0.076264
O20	O	0.660660	-0.474178	0.576264
C21	C	0.081942	-0.829445	0.000031
C22	C	0.581942	-0.329445	0.500031
C23	C	0.080836	-0.737159	0.000026
C24	C	0.580836	-0.237159	0.500026
C25	C	-0.026366	-0.988414	0.000060
C26	C	0.473634	-0.488414	0.500060
C27	C	-0.089587	-0.987296	0.000067
C28	C	0.410413	-0.487296	0.500067
C29	C	0.073570	-1.133523	0.000048
C30	C	0.573570	-0.633523	0.500048
C31	C	0.074677	-1.225809	0.000047
C32	C	0.574677	-0.725809	0.500047
C33	C	-0.488436	-1.056249	0.000021
C34	C	0.011564	-0.556249	0.500021
C35	C	-0.547840	-1.055210	0.000014
C36	C	-0.047840	-0.555210	0.500014
O37	O	-0.584349	-1.119130	-0.000015
O38	O	-0.084349	-0.619130	0.499985
N39	N	-0.570748	-0.978895	0.000010
N40	N	-0.070748	-0.478895	0.500010
C41	C	-0.534248	-0.903614	0.000003
C42	C	-0.034248	-0.403614	0.500003
O43	O	-0.559187	-0.838607	-0.000002
O44	O	-0.059187	-0.338607	0.499998
C45	C	-0.474845	-0.904654	0.000004
C46	C	0.025155	-0.404654	0.500004
C47	C	-0.451941	-0.980973	0.000018
C48	C	0.048059	-0.480973	0.500018
C49	C	-0.465531	-1.132562	0.000034
C50	C	0.034469	-0.632562	0.500034
C51	C	-0.406131	-1.133601	0.000043
C52	C	0.093869	-0.633601	0.500043
C53	C	-0.369636	-1.058325	0.000039
C54	C	0.130364	-0.558325	0.500039
C55	C	-0.392541	-0.982012	0.000026
C56	C	0.107459	-0.482012	0.500026
C57	C	-0.438346	-0.829373	-0.000009
C58	C	0.061654	-0.329373	0.499991
C59	C	-0.378940	-0.830419	-0.000009
C60	C	0.121060	-0.330419	0.499991
C61	C	-0.356036	-0.906739	0.000004
C62	C	0.143964	-0.406739	0.500004
C63	C	-0.296645	-0.907774	0.000031
C64	C	0.203355	-0.407774	0.500031
N65	N	-0.273738	-0.984089	0.000035
N66	N	0.226262	-0.484089	0.500035
C67	C	-0.310233	-1.059365	0.000039
C68	C	0.189767	-0.559365	0.500039
C69	C	-0.658998	-0.901437	0.000001
C70	C	-0.158998	-0.401437	0.500001
C71	C	-0.718400	-0.900396	0.000007
C72	C	-0.218400	-0.400396	0.500007
C73	C	-0.731988	-1.051993	0.000016
C74	C	-0.231988	-0.551993	0.500016
C75	C	-0.672585	-1.053032	0.000017
C76	C	-0.172585	-0.553032	0.500017
C77	C	-0.636091	-0.977752	0.000005
C78	C	-0.136091	-0.477752	0.500005
C79	C	-0.185488	-1.061539	0.000058
C80	C	0.314512	-0.561539	0.500058
C81	C	-0.126082	-1.062571	0.000071
C82	C	0.373918	-0.562571	0.500071
C83	C	-0.112499	-0.910975	0.000057
C84	C	0.387501	-0.410975	0.500057
C85	C	-0.171900	-0.909943	0.000049
C86	C	0.328100	-0.409943	0.500049
C87	C	-0.208394	-0.985232	0.000047
C88	C	0.291606	-0.485232	0.500047
O89	O	-0.260102	-0.843888	0.000057
O90	O	0.239898	-0.343888	0.500057
O91	O	-0.285285	-1.124361	0.000032
O92	O	0.214715	-0.624361	0.500032
C93	C	0.181878	-0.974554	0.000019
C94	C	0.681878	-0.474554	0.500019
C95	C	0.245100	-0.975672	0.000006
C96	C	0.745100	-0.475672	0.500006
N97	N	0.077754	-0.981477	0.217035
N98	N	0.577754	-0.481477	0.717035
C99	C	0.130160	-0.514498	0.000026
C100	C	0.630160	-0.014498	0.500026
C101	C	0.129116	-0.427786	0.000032
C102	C	0.629116	0.072214	0.500032
C103	C	0.025348	-0.448476	0.000050
C104	C	0.525348	0.051524	0.500050
C105	C	0.026393	-0.535187	0.000050
C106	C	0.526393	-0.035187	0.500050
C107	C	0.078801	-0.568195	0.000034
C108	C	0.578801	-0.068195	0.500034
C109	C	0.076712	-0.394773	0.000039
C110	C	0.576712	0.105227	0.500039
C111	C	0.075580	-0.300755	0.000046
C112	C	0.575580	0.199245	0.500046
C113	C	0.079933	-0.662218	0.000029
C114	C	0.579933	-0.162218	0.500029
N115	N	0.077754	-0.981497	-0.216954
N116	N	0.577754	-0.481497	0.283046
C117	C	0.039040	-1.038338	0.452053
C118	C	0.539040	-0.538338	0.952053
C119	C	0.039039	-1.038340	0.548034
C120	C	0.539039	-0.538340	1.048034
C121	C	0.116470	-0.924631	0.548021
C122	C	0.616470	-0.424631	1.048021
C123	C	0.116468	-0.924625	0.452042
C124	C	0.616468	-0.424625	0.952042
C125	C	0.077754	-0.981483	0.404060
C126	C	0.577754	-0.481483	0.904060
C127	C	0.077754	-0.981491	0.596021
C128	C	0.577754	-0.481491	1.096021
C129	C	0.077753	-0.981494	0.700088
C130	C	0.577753	-0.481494	1.200088
C131	C	0.077754	-0.981480	0.299986
C132	C	0.577754	-0.481480	0.799986
H133	H	-0.107437	-1.124722	0.000084
H134	H	0.392563	-0.624722	0.500084
O135	O	-0.381435	-1.215921	0.000049
O136	O	0.118565	-0.715921	0.500049
H137	H	-0.333996	-1.204011	0.000057
H138	H	0.166004	-0.704011	0.500057
O139	O	0.186682	-0.550105	0.000027
O140	O	0.686682	-0.050105	0.500027
H141	H	0.222220	-0.498195	0.000035
H142	H	0.722220	0.001805	0.500035
O143	O	0.184511	-0.369867	0.000021
O144	O	0.684511	0.130133	0.500021
H145	H	0.221126	-0.407391	0.000004
H146	H	0.721126	0.092609	0.500004
H147	H	-0.017320	-0.421590	0.000069
H148	H	0.482680	0.078410	0.500069
H149	H	-0.215195	-1.122847	0.000053
H150	H	0.284805	-0.622847	0.500053
H151	H	0.147994	-0.878324	0.412964
H152	H	0.647994	-0.378324	0.912964
H153	H	-0.015433	-0.578910	0.000059
H154	H	0.484567	-0.078910	0.500059
O155	O	-0.002732	-1.099639	0.400304
O156	O	0.497268	-0.599639	0.900304
H157	H	0.003768	-1.090085	0.325500
H158	H	0.503768	-0.590085	0.825500
O159	O	-0.504890	-1.213759	0.000051
O160	O	-0.004890	-0.713759	0.500051
H161	H	-0.478973	-1.266991	0.000069
H162	H	0.021027	-0.766991	0.500069
H163	H	0.007514	-1.084635	0.587107
H164	H	0.507514	-0.584635	1.087107
O165	O	-0.647885	-1.135350	0.000013
O166	O	-0.147885	-0.635350	0.500013
H167	H	-0.662555	-1.171497	0.062159
H168	H	-0.162555	-0.671497	0.562159
O169	O	-0.771356	-1.133188	0.000011
O170	O	-0.271356	-0.633188	0.500011
H171	H	-0.816509	-1.119637	-0.000003
H172	H	-0.316509	-0.619637	0.499997
O173	O	-0.743102	-0.818081	0.000004
O174	O	-0.243102	-0.318081	0.500004
H175	H	-0.707740	-0.765917	-0.000002
H176	H	-0.207740	-0.265917	0.499998
O177	O	-0.619636	-0.820237	0.000013
O178	O	-0.119636	-0.320237	0.500013
H179	H	-0.645550	-0.767002	0.000022
H180	H	-0.145550	-0.267002	0.500022
H181	H	-0.456984	-0.767225	-0.000026
H182	H	0.043016	-0.267225	0.499974
H183	H	0.147991	-0.878340	0.587098
H184	H	0.647991	-0.378340	1.087098
H185	H	-0.190549	-0.847797	0.000064
H186	H	0.309451	-0.347797	0.500064
O187	O	-0.339576	-0.749222	-0.000011
O188	O	0.160424	-0.249222	0.499989
H189	H	-0.365487	-0.695984	-0.000011
H190	H	0.134513	-0.195984	0.499989
H191	H	-0.082774	-0.849688	0.000057
H192	H	0.417226	-0.349688	0.500057
