data_functionalizedCrystal
_audit_creation_method	'MofGen! by Chris Wilmer'
_symmetry_space_group_name_H-M	'P1'
_symmetry_Int_Tables_number	1
_symmetry_cell_setting	triclinic
loop_
_symmetry_equiv_pos_as_xyz
  x,y,z
_cell_length_a	19.077236
_cell_length_b	16.120444
_cell_length_c	19.077174
_cell_angle_alpha	95.282088
_cell_angle_beta	85.294282
_cell_angle_gamma	95.330924
loop_
_atom_site_label
_atom_site_type_symbol
_atom_site_fract_x
_atom_site_fract_y
_atom_site_fract_z
Zn1	Zn	1.081291	-0.302198	-0.454398
Zn2	Zn	1.581291	0.197802	0.045602
Zn3	Zn	1.070934	-0.436764	-0.342043
Zn4	Zn	1.570934	0.063236	0.157957
Zn5	Zn	0.958672	-0.302210	-0.331782
Zn6	Zn	1.458672	0.197790	0.168218
Zn7	Zn	0.957381	-0.447513	-0.455589
Zn8	Zn	1.457381	0.052487	0.044411
O9	O	1.017070	-0.372171	-0.395953
O10	O	1.517070	0.127829	0.104047
O11	O	1.178756	-0.315544	-0.443290
O12	O	1.678756	0.184456	0.056710
O13	O	1.052247	-0.414421	-0.241847
O14	O	1.552247	0.085579	0.258153
O15	O	0.979813	-0.185083	-0.343255
O16	O	1.479813	0.314917	0.156745
O17	O	1.171146	-0.414409	-0.360743
O18	O	1.671146	0.085591	0.139257
O19	O	1.069900	-0.185073	-0.433340
O20	O	1.569900	0.314927	0.066660
O21	O	0.969769	-0.315566	-0.234308
O22	O	1.469769	0.184434	0.265692
O23	O	0.859662	-0.325989	-0.344409
O24	O	1.359662	0.174011	0.155591
O25	O	0.977613	-0.432730	-0.554266
O26	O	1.477613	0.067270	-0.054266
O27	O	0.858714	-0.432743	-0.435370
O28	O	1.358714	0.067257	0.064630
O29	O	1.068649	-0.325967	-0.553391
O30	O	1.568649	0.174033	-0.053391
O31	O	1.050996	-0.555315	-0.361898
O32	O	1.550996	-0.055315	0.138102
O33	O	0.967569	-0.563213	-0.445320
O34	O	1.467569	-0.063213	0.054680
C35	C	0.833560	-0.380534	-0.388906
C36	C	1.333560	0.119466	0.111094
C37	C	0.755054	-0.384133	-0.385909
C38	C	1.255054	0.115867	0.114091
C39	C	0.722134	-0.334438	-0.427551
C40	C	1.222134	0.165562	0.072449
C41	C	0.648369	-0.337815	-0.424729
C42	C	1.148369	0.162185	0.075271
C43	C	0.607525	-0.390892	-0.380267
C44	C	1.107525	0.109108	0.119733
C45	C	0.640451	-0.440589	-0.338620
C46	C	1.140451	0.059411	0.161380
C47	C	0.714215	-0.437207	-0.341440
C48	C	1.214215	0.062793	0.158560
C49	C	0.386490	-0.406513	-0.367216
C50	C	0.886490	0.093487	0.132784
C51	C	0.312722	-0.409893	-0.364401
C52	C	0.812722	0.090107	0.135599
C53	C	0.320645	-0.307118	-0.450509
C54	C	0.820645	0.192882	0.049491
C55	C	0.394409	-0.303744	-0.453327
C56	C	0.894409	0.196256	0.046673
C57	C	0.427328	-0.353438	-0.411678
C58	C	0.927328	0.146562	0.088322
N59	N	0.532126	-0.394347	-0.377383
N60	N	1.032126	0.105653	0.122617
N61	N	0.502727	-0.349978	-0.414559
N62	N	1.002727	0.150022	0.085441
C63	C	1.008038	-0.589634	-0.404868
C64	C	1.508038	-0.089634	0.095132
C65	C	1.004240	-0.682663	-0.408708
C66	C	1.504240	-0.182663	0.091292
C67	C	1.036951	-0.890502	-0.376193
C68	C	1.536951	-0.390502	0.123807
C69	C	0.997319	-0.852983	-0.415726
C70	C	1.497319	-0.352983	0.084274
C71	C	1.001171	-0.758208	-0.411820
C72	C	1.501171	-0.258208	0.088180
C73	C	1.033100	-0.985286	-0.380098
C74	C	1.533100	-0.485286	0.119902
C75	C	1.201295	-0.363776	-0.403028
C76	C	1.701295	0.136224	0.096972
C77	C	1.279801	-0.360198	-0.406043
C78	C	1.779801	0.139802	0.093957
C79	C	1.024142	-0.380546	-0.580172
C80	C	1.524142	0.119454	-0.080172
C81	C	1.027156	-0.384115	-0.658675
C82	C	1.527156	0.115885	-0.158675
C83	C	1.026156	-0.153859	-0.387020
C84	C	1.526156	0.346141	0.112980
C85	C	1.030028	-0.060828	-0.383213
C86	C	1.530028	0.439172	0.116787
C87	C	0.985632	-0.334324	-0.691631
C88	C	1.485632	0.165676	-0.191631
C89	C	0.988461	-0.337685	-0.765393
C90	C	1.488461	0.162315	-0.265393
C91	C	1.032818	-0.390833	-0.806199
C92	C	1.532818	0.109167	-0.306199
C93	C	1.074344	-0.440629	-0.773238
C94	C	1.574344	0.059371	-0.273238
C95	C	1.071511	-0.437273	-0.699477
C96	C	1.571511	0.062727	-0.199477
C97	C	1.045893	-0.406395	-1.027221
C98	C	1.545893	0.093605	-0.527221
C99	C	1.048724	-0.409746	-1.100987
C100	C	1.548724	0.090254	-0.600987
C101	C	0.962840	-0.306802	-1.093137
C102	C	1.462840	0.193198	-0.593137
C103	C	0.960014	-0.303447	-1.019375
C104	C	1.460014	0.196553	-0.519375
C105	C	1.001537	-0.353247	-0.986421
C106	C	1.501537	0.146753	-0.486421
N107	N	1.035713	-0.394267	-0.881596
N108	N	1.535713	0.105733	-0.381596
N109	N	0.998638	-0.349816	-0.911026
N110	N	1.498638	0.150184	-0.411026
C111	C	1.010068	-0.363766	-0.212450
C112	C	1.510068	0.136234	0.287550
C113	C	1.007200	-0.359955	-0.133943
C114	C	1.507200	0.140045	0.366057
H115	H	0.755383	-0.291219	-0.463758
H116	H	1.255383	0.208781	0.036242
O117	O	0.612858	-0.284216	-0.469641
O118	O	1.112858	0.215784	0.030359
H119	H	0.653652	-0.246747	-0.501037
H120	H	1.153652	0.253253	-0.001037
H121	H	0.427659	-0.260527	-0.489535
H122	H	0.927659	0.239473	0.010465
H123	H	0.949516	-0.291041	-0.658412
H124	H	1.449516	0.208959	-0.158412
O125	O	0.285141	-0.253509	-0.495419
O126	O	0.785141	0.246491	0.004581
H127	H	0.226987	-0.264767	-0.485985
H128	H	0.726987	0.235233	0.014015
O129	O	0.749725	-0.490802	-0.296521
O130	O	1.249725	0.009198	0.203479
H131	H	0.782790	-0.533333	-0.331102
H132	H	1.282790	-0.033333	0.168898
O133	O	1.085732	-0.838770	-0.327486
O134	O	1.585732	-0.338770	0.172514
H135	H	1.054355	-0.798803	-0.288706
H136	H	1.554355	-0.298803	0.211294
H137	H	0.960496	-0.892040	-0.452505
H138	H	1.460496	-0.392040	0.047495
O139	O	0.268665	-0.467137	-0.316440
O140	O	0.768665	0.032863	0.183560
H141	H	0.303947	-0.501118	-0.287946
H142	H	0.803947	-0.001118	0.212054
O143	O	1.116304	-0.490967	-0.663927
O144	O	1.616304	0.009033	-0.163927
H145	H	1.147631	-0.528480	-0.704692
H146	H	1.647631	-0.028480	-0.204692
H147	H	1.084848	-0.453027	-1.134210
H148	H	1.584848	0.046973	-0.634210
H149	H	0.954645	-0.297143	-0.792222
H150	H	1.454645	0.202857	-0.292222
H151	H	0.923892	-0.260170	-0.986156
H152	H	1.423892	0.239830	-0.486156
O153	O	0.421993	-0.460105	-0.322294
O154	O	0.921993	0.039895	0.177706
H155	H	0.381198	-0.497584	-0.290909
H156	H	0.881198	0.002416	0.209091
O157	O	0.596400	-0.497831	-0.290660
O158	O	1.096400	0.002169	0.209340
H159	H	0.608303	-0.563440	-0.305910
H160	H	1.108303	-0.063440	0.194090
O161	O	0.918066	-0.253086	-1.128685
O162	O	1.418066	0.246914	-0.628685
H163	H	0.881857	-0.293705	-1.162444
H164	H	1.381857	0.206295	-0.662444
O165	O	1.090694	-0.460083	-0.991681
O166	O	1.590694	0.039917	-0.491681
H167	H	1.122024	-0.497589	-1.032450
H168	H	1.622024	0.002411	-0.532450
H169	H	1.110456	-0.483908	-0.806468
H170	H	1.610456	0.016092	-0.306468
