data_functionalizedCrystal
_audit_creation_method	'MofGen! by Chris Wilmer'
_symmetry_space_group_name_H-M	'P1'
_symmetry_Int_Tables_number	1
_symmetry_cell_setting	triclinic
loop_
_symmetry_equiv_pos_as_xyz
  x,y,z
_cell_length_a	10.685980
_cell_length_b	16.625546
_cell_length_c	10.685880
_cell_angle_alpha	94.335175
_cell_angle_beta	80.918858
_cell_angle_gamma	94.388851
loop_
_atom_site_label
_atom_site_type_symbol
_atom_site_fract_x
_atom_site_fract_y
_atom_site_fract_z
Zn1	Zn	1.995681	-0.265671	-0.866636
Zn2	Zn	2.495681	0.234329	-0.366636
Zn3	Zn	1.979243	-0.390938	-0.654362
Zn4	Zn	2.479243	0.109062	-0.154362
Zn5	Zn	1.767121	-0.265714	-0.638108
Zn6	Zn	2.267121	0.234286	-0.138108
Zn7	Zn	1.783352	-0.410061	-0.850263
Zn8	Zn	2.283352	0.089939	-0.350263
O9	O	1.881349	-0.333096	-0.752342
O10	O	2.381349	0.166904	-0.252342
O11	O	2.171135	-0.274267	-0.852132
O12	O	2.671135	0.225733	-0.352132
O13	O	1.937433	-0.366342	-0.474581
O14	O	2.437433	0.133658	0.025419
O15	O	1.797526	-0.152874	-0.668473
O16	O	2.297526	0.347126	-0.168473
O17	O	2.159058	-0.366300	-0.696175
O18	O	2.659058	0.133700	-0.196175
O19	O	1.965448	-0.152843	-0.836371
O20	O	2.465448	0.347157	-0.336371
O21	O	1.781588	-0.274340	-0.462640
O22	O	2.281588	0.225660	0.037360
O23	O	1.591639	-0.292883	-0.652597
O24	O	2.091639	0.207117	-0.152597
O25	O	1.825189	-0.398893	-1.030059
O26	O	2.325189	0.101107	-0.530059
O27	O	1.603564	-0.398934	-0.808466
O28	O	2.103564	0.101066	-0.308466
O29	O	1.981187	-0.292810	-1.042089
O30	O	2.481187	0.207190	-0.542089
O31	O	1.953171	-0.506309	-0.680299
O32	O	2.453171	-0.006309	-0.180299
O33	O	1.809250	-0.520359	-0.824226
O34	O	2.309250	-0.020359	-0.324226
C35	C	1.551543	-0.347989	-0.726991
C36	C	2.051543	0.152011	-0.226991
C37	C	1.410453	-0.354381	-0.716176
C38	C	1.910453	0.145619	-0.216176
C39	C	1.881225	-0.542590	-0.752280
C40	C	2.381225	-0.042590	-0.252280
C41	C	1.881291	-0.632209	-0.752305
C42	C	2.381291	-0.132209	-0.252305
C43	C	1.881523	-0.960381	-0.752454
C44	C	2.381523	-0.460381	-0.252454
C45	C	1.881455	-0.869074	-0.752416
C46	C	2.381455	-0.369074	-0.252416
C47	C	1.881406	-0.796298	-0.752378
C48	C	2.381406	-0.296298	-0.252378
C49	C	1.881340	-0.704985	-0.752342
C50	C	2.381340	-0.204985	-0.252342
C51	C	2.212443	-0.318146	-0.777793
C52	C	2.712443	0.181854	-0.277793
C53	C	2.353535	-0.311775	-0.788638
C54	C	2.853535	0.188225	-0.288638
C55	C	1.906832	-0.347980	-1.083418
C56	C	2.406832	0.152020	-0.583418
C57	C	1.917691	-0.354322	-1.224503
C58	C	2.417691	0.145678	-0.724503
C59	C	1.881511	-0.122784	-0.752435
C60	C	2.381511	0.377216	-0.252435
C61	C	1.881579	-0.033161	-0.752475
C62	C	2.381579	0.466839	-0.252475
C63	C	1.856038	-0.318209	-0.422560
C64	C	2.356038	0.181791	0.077440
C65	C	1.845425	-0.311628	-0.281495
C66	C	2.345425	0.188372	0.218505
H67	H	1.351237	-0.395749	-0.645854
H68	H	1.851237	0.104251	-0.145854
H69	H	1.775237	-0.270227	-1.222354
H70	H	2.275237	0.229773	-0.722354
H71	H	1.987878	-0.395730	-1.283650
H72	H	2.487878	0.104270	-0.783650
H73	H	1.412744	-0.270404	-0.858948
H74	H	1.912744	0.229596	-0.358948
