data_functionalizedCrystal
_audit_creation_method	'MofGen! by Chris Wilmer'
_symmetry_space_group_name_H-M	'P1'
_symmetry_Int_Tables_number	1
_symmetry_cell_setting	triclinic
loop_
_symmetry_equiv_pos_as_xyz
  x,y,z
_cell_length_a	14.519709
_cell_length_b	10.654541
_cell_length_c	9.730217
_cell_angle_alpha	90.003041
_cell_angle_beta	89.995795
_cell_angle_gamma	84.082037
loop_
_atom_site_label
_atom_site_type_symbol
_atom_site_fract_x
_atom_site_fract_y
_atom_site_fract_z
O1	O	-1.224716	-0.164621	-0.114110
O2	O	-0.956340	-0.184008	-0.114152
O3	O	-1.096699	0.008484	-0.114122
O4	O	-1.084356	-0.357113	-0.114141
O5	O	-1.096695	0.008486	0.114458
O6	O	-0.956335	-0.184006	0.114428
O7	O	-1.224712	-0.164619	0.114470
Zn8	Zn	-1.090523	-0.174312	0.150741
Zn9	Zn	-1.090528	-0.174315	-0.150423
O10	O	-1.084352	-0.357112	0.114440
C11	C	-1.095791	0.055275	0.000167
C12	C	-1.093081	0.194692	0.000164
C13	C	-0.921973	-0.183103	0.000133
C14	C	-0.819578	-0.180396	0.000117
C15	C	-1.259078	-0.165524	0.000182
C16	C	-1.361474	-0.168231	0.000189
C17	C	-0.444630	-0.170429	0.000180
C18	C	-0.548952	-0.173197	0.000162
C19	C	-0.632101	-0.175412	0.000147
C20	C	-0.736429	-0.178181	0.000132
C21	C	-1.085260	-0.403902	0.000147
C22	C	-1.087970	-0.543319	0.000141
N23	N	-1.090526	-0.174310	0.356277
C24	C	-1.260920	0.224277	0.000208
C25	C	-1.343562	0.304566	0.000233
C26	C	-1.341010	0.435559	0.000228
C27	C	-1.255806	0.486265	0.000195
C28	C	-1.173164	0.405976	0.000170
C29	C	-1.175725	0.274981	0.000179
C30	C	-1.005328	0.376392	0.000117
C31	C	-1.007878	0.245398	0.000131
C32	C	-0.920124	0.427098	0.000084
C33	C	-0.837480	0.346809	0.000069
C34	C	-0.840036	0.215808	0.000075
C35	C	-0.925236	0.165109	0.000107
N36	N	-1.090533	-0.174307	-0.355960
C37	C	-1.214865	-0.003908	0.356295
C38	C	-1.277042	0.081290	0.428244
C39	C	-1.277051	0.081291	0.572123
C40	C	-1.214876	-0.003913	0.644058
C41	C	-1.152700	-0.089110	0.572109
C42	C	-1.152699	-0.089104	0.428226
C43	C	-1.028357	-0.259505	0.572092
C44	C	-1.028350	-0.259514	0.428212
C45	C	-0.966181	-0.344708	0.644026
C46	C	-0.904008	-0.429914	0.572077
C47	C	-0.904002	-0.429912	0.428189
C48	C	-0.966174	-0.344711	0.356263
H49	H	-1.263006	0.117616	0.000231
N50	N	-1.340458	0.168461	0.354786
N51	N	-1.395897	0.244616	0.419043
H52	H	-1.440644	0.306236	0.367169
N53	N	-1.430583	0.252749	0.000253
N54	N	-1.432856	0.135790	0.000254
H55	H	-1.494315	0.099196	0.000264
N56	N	-1.214880	-0.003968	0.209326
N57	N	-1.286260	-0.025006	0.145140
H58	H	-1.286276	-0.025063	0.041341
H59	H	-0.966188	-0.344699	0.761181
H60	H	-1.327677	0.150671	0.630704
H61	H	-0.772738	0.150442	0.000049
H62	H	-1.214880	-0.003896	0.761212
N63	N	-1.425415	0.517596	0.000240
N64	N	-1.442715	0.593991	-0.096107
H65	H	-1.502326	0.651932	-0.096100
H66	H	-0.853385	-0.499275	0.630655
N67	N	-1.253218	0.620074	0.000192
N68	N	-1.289543	0.685155	0.096546
H69	H	-1.287715	0.779660	0.096545
H70	H	-0.853367	-0.499286	0.369616
H71	H	-0.918052	0.533761	0.000071
H72	H	-0.966178	-0.344707	0.239109
H73	H	-0.768114	0.388105	0.000033
H74	H	-0.927325	0.058449	0.000120
