data_functionalizedCrystal
_audit_creation_method	'MofGen! by Chris Wilmer'
_symmetry_space_group_name_H-M	'P1'
_symmetry_Int_Tables_number	1
_symmetry_cell_setting	triclinic
loop_
_symmetry_equiv_pos_as_xyz
  x,y,z
_cell_length_a	12.759401
_cell_length_b	25.639240
_cell_length_c	25.639243
_cell_angle_alpha	90.021464
_cell_angle_beta	90.011420
_cell_angle_gamma	90.032989
loop_
_atom_site_label
_atom_site_type_symbol
_atom_site_fract_x
_atom_site_fract_y
_atom_site_fract_z
Zn1	Zn	1.606038	-0.208234	0.295565
Zn2	Zn	2.106038	0.291766	0.795565
Zn3	Zn	1.605903	-0.295646	0.208118
Zn4	Zn	2.105903	0.204354	0.708118
Zn5	Zn	1.430366	-0.208227	0.208145
Zn6	Zn	1.930366	0.291773	0.708145
Zn7	Zn	1.430274	-0.295641	0.295525
Zn8	Zn	1.930274	0.204359	0.795525
O9	O	1.518145	-0.251937	0.251838
O10	O	2.018145	0.248063	0.751838
O11	O	1.753041	-0.219835	0.283970
O12	O	2.253041	0.280165	0.783970
O13	O	1.582599	-0.284049	0.134957
O14	O	2.082599	0.215951	0.634957
O15	O	1.453764	-0.135063	0.219770
O16	O	1.953764	0.364937	0.719770
O17	O	1.752942	-0.284056	0.219724
O18	O	2.252942	0.215944	0.719724
O19	O	1.582830	-0.135068	0.283997
O20	O	2.082830	0.364932	0.783997
O21	O	1.453633	-0.219823	0.134977
O22	O	1.953633	0.280177	0.634977
O23	O	1.283332	-0.219817	0.219731
O24	O	1.783332	0.280183	0.719731
O25	O	1.453608	-0.284047	0.368695
O26	O	1.953608	0.215953	0.868695
O27	O	1.283265	-0.284040	0.283928
O28	O	1.783265	0.215960	0.783928
O29	O	1.582741	-0.219830	0.368725
O30	O	2.082741	0.280170	0.868725
O31	O	1.582510	-0.368811	0.219685
O32	O	2.082510	0.131189	0.719685
O33	O	1.453476	-0.368807	0.283902
O34	O	1.953476	0.131193	0.783902
C35	C	1.245178	-0.251928	0.251829
C36	C	1.745178	0.248072	0.751829
C37	C	1.128401	-0.251936	0.251837
C38	C	1.628401	0.248064	0.751837
C39	C	1.073491	-0.285322	0.218338
C40	C	1.573491	0.214678	0.718338
C41	C	0.963767	-0.285332	0.218347
C42	C	1.463767	0.214668	0.718347
C43	C	0.963873	-0.218563	0.285355
C44	C	1.463873	0.281437	0.785355
C45	C	1.073595	-0.218557	0.285348
C46	C	1.573595	0.281443	0.785348
C47	C	1.128297	-0.318701	0.184826
C48	C	1.628297	0.181299	0.684826
C49	C	1.073386	-0.352090	0.151324
C50	C	1.573386	0.147910	0.651324
C51	C	0.963662	-0.352099	0.151333
C52	C	1.463662	0.147901	0.651333
C53	C	0.908849	-0.318719	0.184844
C54	C	1.408849	0.181281	0.684844
C55	C	1.517997	-0.387780	0.251797
C56	C	2.017997	0.112220	0.751797
C57	C	1.518029	-0.445894	0.251797
C58	C	2.018029	0.054106	0.751797
C59	C	1.585383	-0.806221	0.285341
C60	C	2.085383	-0.306221	0.785341
C61	C	1.585414	-0.860825	0.285352
C62	C	2.085414	-0.360825	0.785352
O63	O	1.642504	-0.889032	0.313830
O64	O	2.142504	-0.389032	0.813830
N65	N	1.518291	-0.888176	0.251889
N66	N	2.018291	-0.388176	0.751889
C67	C	1.451125	-0.860920	0.218417
C68	C	1.951125	-0.360920	0.718417
O69	O	1.394033	-0.889198	0.189955
O70	O	1.894033	-0.389198	0.689955
C71	C	1.451089	-0.806316	0.218409
C72	C	1.951089	-0.306316	0.718409
C73	C	1.518224	-0.778968	0.251871
C74	C	2.018224	-0.278968	0.751871
C75	C	1.652512	-0.778873	0.318801
C76	C	2.152512	-0.278873	0.818801
C77	C	1.652482	-0.724272	0.318789
C78	C	2.152482	-0.224272	0.818789
C79	C	1.585323	-0.697020	0.285319
C80	C	2.085323	-0.197020	0.785319
C81	C	1.518195	-0.724368	0.251859
C82	C	2.018195	-0.224368	0.751859
C83	C	1.383918	-0.779061	0.184940
C84	C	1.883918	-0.279061	0.684940
C85	C	1.383888	-0.724454	0.184935
C86	C	1.883888	-0.224454	0.684935
C87	C	1.451023	-0.697106	0.218397
C88	C	1.951023	-0.197106	0.718397
C89	C	1.451006	-0.642515	0.218377
C90	C	1.951006	-0.142515	0.718377
N91	N	1.518129	-0.615164	0.251840
N92	N	2.018129	-0.115164	0.751840
C93	C	1.585288	-0.642417	0.285311
C94	C	2.085288	-0.142417	0.785311
C95	C	1.451203	-0.975590	0.218436
C96	C	1.951203	-0.475590	0.718436
C97	C	1.451243	-1.030193	0.218440
C98	C	1.951243	-0.530193	0.718440
C99	C	1.585531	-1.030094	0.285377
C100	C	2.085531	-0.530094	0.785377
C101	C	1.585496	-0.975491	0.285369
C102	C	2.085496	-0.475491	0.785369
C103	C	1.518326	-0.948240	0.251899
C104	C	2.018326	-0.448240	0.751899
C105	C	1.585221	-0.527752	0.285284
C106	C	2.085221	-0.027752	0.785284
C107	C	1.585188	-0.473146	0.285268
C108	C	2.085188	0.026854	0.785268
C109	C	1.450896	-0.473249	0.218334
C110	C	1.950896	0.026751	0.718334
C111	C	1.450932	-0.527850	0.218348
C112	C	1.950932	-0.027850	0.718348
C113	C	1.518098	-0.555100	0.251827
C114	C	2.018098	-0.055100	0.751827
O115	O	1.393942	-0.614274	0.189915
O116	O	1.893942	-0.114274	0.689915
O117	O	1.642360	-0.614132	0.313773
O118	O	2.142360	-0.114132	0.813773
C119	C	1.792178	-0.251947	0.251848
C120	C	2.292178	0.248053	0.751848
C121	C	1.908955	-0.251951	0.251853
C122	C	2.408955	0.248049	0.751853
C123	C	1.518179	-0.251939	0.388211
C124	C	2.018179	0.248061	0.888211
C125	C	1.518194	-0.251939	0.446325
C126	C	2.018194	0.248061	0.946325
C127	C	1.518323	-0.115564	0.251891
C128	C	2.018323	0.384436	0.751891
C129	C	1.518398	-0.057450	0.251913
C130	C	2.018398	0.442550	0.751913
C131	C	1.450981	-0.218501	0.806704
C132	C	1.950981	0.281499	1.306704
C133	C	1.450973	-0.218502	0.861309
C134	C	1.950973	0.281498	1.361309
O135	O	1.393843	-0.190077	0.889559
O136	O	1.893843	0.309923	1.389559
N137	N	1.518119	-0.251939	0.888608
N138	N	2.018119	0.248061	1.388608
C139	C	1.585269	-0.285382	0.861300
C140	C	2.085269	0.214618	1.361300
O141	O	1.642381	-0.313824	0.889534
O142	O	2.142381	0.186176	1.389534
C143	C	1.585271	-0.285384	0.806697
C144	C	2.085271	0.214616	1.306697
C145	C	1.518129	-0.251940	0.779400
C146	C	2.018129	0.248060	1.279400
C147	C	1.383843	-0.185061	0.779408
C148	C	1.883843	0.314939	1.279408
C149	C	1.383853	-0.185059	0.724807
C150	C	1.883853	0.314941	1.224807
C151	C	1.451000	-0.218499	0.697503
C152	C	1.951000	0.281501	1.197503
C153	C	1.518138	-0.251939	0.724800
C154	C	2.018138	0.248061	1.224800
C155	C	1.652416	-0.318829	0.779390
C156	C	2.152416	0.181171	1.279390
C157	C	1.652411	-0.318828	0.724783
C158	C	2.152411	0.181172	1.224783
C159	C	1.585269	-0.285384	0.697486
C160	C	2.085269	0.214616	1.197486
C161	C	1.585295	-0.285377	0.642895
C162	C	2.085295	0.214623	1.142895
N163	N	1.518150	-0.251939	0.615596
N164	N	2.018150	0.248061	1.115596
C165	C	1.451002	-0.218500	0.642900
C166	C	1.951002	0.281500	1.142900
C167	C	1.585259	-0.285377	0.975971
C168	C	2.085259	0.214623	1.475971
C169	C	1.585263	-0.285373	1.030573
C170	C	2.085263	0.214627	1.530573
C171	C	1.450966	-0.218493	1.030578
C172	C	1.950966	0.281507	1.530578
C173	C	1.450967	-0.218495	0.975974
C174	C	1.950967	0.281505	1.475974
C175	C	1.518113	-0.251939	0.948671
C176	C	2.018113	0.248061	1.448671
C177	C	1.451028	-0.218500	0.528235
C178	C	1.951028	0.281500	1.028235
C179	C	1.451047	-0.218500	0.473629
C180	C	1.951047	0.281500	0.973629
C181	C	1.585340	-0.285382	0.473629
C182	C	2.085340	0.214618	0.973629
C183	C	1.585326	-0.285380	0.528230
C184	C	2.085326	0.214620	1.028230
C185	C	1.518161	-0.251937	0.555531
C186	C	2.018161	0.248063	1.055531
O187	O	1.642394	-0.313788	0.614610
O188	O	2.142394	0.186212	1.114610
O189	O	1.393891	-0.190068	0.614659
O190	O	1.893891	0.309932	1.114659
C191	C	1.518109	-0.251944	1.115996
C192	C	2.018109	0.248056	1.615996
C193	C	1.518111	-0.251935	1.057882
C194	C	2.018111	0.248065	1.557882
H195	H	1.639861	-0.450881	0.312517
H196	H	2.139861	0.049119	0.812517
H197	H	1.707097	-0.346060	0.702555
H198	H	2.207097	0.153940	1.202555
O199	O	1.246641	-0.318690	0.184811
O200	O	1.746641	0.181310	0.684811
H201	H	1.275617	-0.289863	0.213732
H202	H	1.775617	0.210137	0.713732
O203	O	1.657668	-0.557139	0.321389
O204	O	2.157668	-0.057139	0.821389
H205	H	1.704344	-0.528942	0.344647
H206	H	2.204344	-0.028942	0.844647
O207	O	1.132505	-0.388091	0.115184
O208	O	1.632505	0.111909	0.615184
H209	H	1.075886	-0.411312	0.091895
H210	H	1.575886	0.088688	0.591895
O211	O	0.904434	-0.388111	0.115204
O212	O	1.404434	0.111889	0.615204
H213	H	0.854440	-0.364669	0.088657
H214	H	1.354440	0.135331	0.588657
H215	H	1.639949	-0.312600	1.052793
H216	H	2.139949	0.187400	1.552793
H217	H	1.396219	-0.451052	0.191081
H218	H	1.896219	0.048948	0.691081
H219	H	0.919235	-0.191387	0.312638
H220	H	1.419235	0.308613	0.812638
H221	H	1.118304	-0.191370	0.312625
H222	H	1.618304	0.308630	0.812625
H223	H	1.640010	-0.312606	0.550456
H224	H	2.140010	0.187394	1.050456
O225	O	1.724830	-0.354910	0.808814
O226	O	2.224830	0.145090	1.308814
H227	H	1.778337	-0.331524	0.833705
H228	H	2.278337	0.168476	1.333705
H229	H	1.329174	-0.157828	0.702587
H230	H	1.829174	0.342172	1.202587
O231	O	1.724908	-0.694778	0.354872
O232	O	2.224908	-0.194778	0.854872
H233	H	1.771608	-0.722909	0.378144
H234	H	2.271608	-0.222909	0.878144
O235	O	0.790502	-0.318726	0.184856
O236	O	1.290502	0.181274	0.684856
H237	H	0.761525	-0.347548	0.155930
H238	H	1.261525	0.152452	0.655930
H239	H	1.396274	-0.550118	0.191096
H240	H	1.896274	-0.050118	0.691096
H241	H	1.329250	-0.801318	0.157691
H242	H	1.829250	-0.301318	0.657691
H243	H	1.707201	-0.801056	0.346060
H244	H	2.207201	-0.301056	0.846060
H245	H	1.640163	-0.953228	0.312617
H246	H	2.140163	-0.453228	0.812617
H247	H	1.640214	-1.052293	0.312631
H248	H	2.140214	-0.552293	0.812631
O249	O	1.378841	-1.059688	0.182347
O250	O	1.878841	-0.559688	0.682347
H251	H	1.332135	-1.031559	0.159075
H252	H	1.832135	-0.531559	0.659075
O253	O	1.378773	-0.946198	0.182323
O254	O	1.878773	-0.446198	0.682323
H255	H	1.332119	-0.974394	0.159054
H256	H	1.832119	-0.474394	0.659054
H257	H	1.639950	-0.312608	0.953744
H258	H	2.139950	0.187392	1.453744
H259	H	1.329187	-0.702268	0.157680
H260	H	1.829187	-0.202268	0.657680
O261	O	1.657761	-0.321445	0.444171
O262	O	2.157761	0.178555	0.944171
H263	H	1.704458	-0.344698	0.472322
H264	H	2.204458	0.155302	0.972322
O265	O	1.378632	-0.182425	0.444187
O266	O	1.878632	0.317575	0.944187
H267	H	1.331935	-0.159176	0.472350
H268	H	1.831935	0.340824	0.972350
H269	H	1.396337	-0.191267	0.550457
H270	H	1.896337	0.308733	1.050457
O271	O	1.311423	-0.148987	0.808854
O272	O	1.811423	0.351013	1.308854
H273	H	1.264753	-0.125734	0.780691
H274	H	1.764753	0.374266	1.280691
H275	H	1.396295	-0.191262	0.953753
H276	H	1.896295	0.308738	1.453753
H277	H	1.396290	-0.191265	1.052819
H278	H	1.896290	0.308735	1.552819
