data_functionalizedCrystal
_audit_creation_method	'MofGen! by Chris Wilmer'
_symmetry_space_group_name_H-M	'P1'
_symmetry_Int_Tables_number	1
_symmetry_cell_setting	triclinic
loop_
_symmetry_equiv_pos_as_xyz
  x,y,z
_cell_length_a	10.540539
_cell_length_b	19.288865
_cell_length_c	17.766277
_cell_angle_alpha	90.011603
_cell_angle_beta	90.007287
_cell_angle_gamma	83.830870
loop_
_atom_site_label
_atom_site_type_symbol
_atom_site_fract_x
_atom_site_fract_y
_atom_site_fract_z
O1	O	-1.683715	-0.097883	-0.062568
O2	O	-1.183715	0.402117	0.437432
O3	O	-1.314096	-0.107106	-0.062579
O4	O	-0.814096	0.392894	0.437421
O5	O	-1.509585	-0.001436	-0.062558
O6	O	-1.009585	0.498564	0.437442
O7	O	-1.488225	-0.203554	-0.062589
O8	O	-0.988225	0.296446	0.437411
O9	O	-1.509551	-0.001430	0.062630
O10	O	-1.009551	0.498570	0.562630
O11	O	-1.314062	-0.107100	0.062610
O12	O	-0.814062	0.392900	0.562610
O13	O	-1.683680	-0.097878	0.062620
O14	O	-1.183680	0.402122	0.562620
Cu15	Cu	-1.498868	-0.102489	0.074046
Cu16	Cu	-0.998868	0.397511	0.574046
Cu17	Cu	-1.498908	-0.102495	-0.074004
Cu18	Cu	-0.998908	0.397505	0.425996
O19	O	-1.488191	-0.203548	0.062600
O20	O	-0.988191	0.296452	0.562600
C21	C	-1.266791	-0.106411	0.000014
C22	C	-0.766791	0.393589	0.500014
C23	C	-1.125889	-0.104342	0.000011
C24	C	-0.625889	0.395658	0.500011
C25	C	-1.508881	0.024448	0.000038
C26	C	-1.008881	0.524448	0.500038
C27	C	-1.506818	0.101566	0.000045
C28	C	-1.006818	0.601566	0.500045
C29	C	-1.730985	-0.098572	0.000025
C30	C	-1.230985	0.401428	0.500025
C31	C	-1.871887	-0.100641	0.000023
C32	C	-1.371887	0.399359	0.500023
C33	C	-0.944230	-0.025053	0.000315
C34	C	-0.444230	0.474947	0.500315
C35	C	-1.090801	-0.027151	0.000025
C36	C	-0.590801	0.472849	0.500025
C37	C	-1.063408	-0.141493	-0.071480
C38	C	-0.563408	0.358507	0.428520
C39	C	-0.916923	-0.138859	-0.071532
C40	C	-0.416923	0.361141	0.428468
C41	C	-0.916360	-0.140423	0.070830
C42	C	-0.416360	0.359577	0.570830
C43	C	-1.063326	-0.141134	0.071767
C44	C	-0.563326	0.358866	0.571767
C45	C	-1.488895	-0.229432	0.000002
C46	C	-0.988895	0.270568	0.500002
C47	C	-1.490958	-0.306549	-0.000010
C48	C	-0.990958	0.193451	0.499990
N49	N	-1.498849	-0.102483	0.178176
N50	N	-0.998849	0.397517	0.678176
C51	C	-1.621522	0.145496	0.000052
C52	C	-1.121522	0.645496	0.500052
C53	C	-1.619584	0.217956	0.000040
C54	C	-1.119584	0.717956	0.500040
C55	C	-1.502935	0.246482	0.000036
C56	C	-1.002935	0.746482	0.500036
C57	C	-1.388215	0.202542	0.000025
C58	C	-0.888215	0.702542	0.500025
C59	C	-1.390157	0.130083	0.000029
C60	C	-0.890157	0.630083	0.500029
C61	C	-1.411223	0.355384	0.043884
C62	C	-0.911223	0.855384	0.543884
C63	C	-1.409286	0.427841	0.043884
C64	C	-0.909286	0.927841	0.543884
C65	C	-1.496941	0.469968	0.000019
C66	C	-0.996941	0.969968	0.500019
C67	C	-1.586555	0.439630	-0.043837
C68	C	-1.086555	0.939630	0.456163
C69	C	-1.588497	0.367172	-0.043833
C70	C	-1.088497	0.867172	0.456167
C71	C	-1.500816	0.325051	0.000031
C72	C	-1.000816	0.825051	0.500031
C73	C	-1.609552	0.592469	0.000012
C74	C	-1.109552	1.092469	0.500012
C75	C	-1.607609	0.664930	-0.000005
C76	C	-1.107609	1.164930	0.499995
C77	C	-1.376237	0.649513	-0.000012
C78	C	-0.876237	1.149513	0.499988
C79	C	-1.378183	0.577054	-0.000003
C80	C	-0.878183	1.077054	0.499997
C81	C	-1.494844	0.548536	0.000012
C82	C	-0.994844	1.048536	0.500012
N83	N	-1.498938	-0.102495	-0.178135
N84	N	-0.998938	0.397505	0.321865
C85	C	-1.585439	-0.055716	0.217572
C86	C	-1.085439	0.444284	0.717572
C87	C	-1.585447	-0.055713	0.296374
C88	C	-1.085447	0.444287	0.796374
C89	C	-1.498875	-0.102489	0.335777
C90	C	-0.998875	0.397511	0.835777
C91	C	-1.412269	-0.149260	0.296371
C92	C	-0.912269	0.350740	0.796371
C93	C	-1.412255	-0.149257	0.217571
C94	C	-0.912255	0.350743	0.717571
C95	C	-1.481882	-0.165663	0.460605
C96	C	-0.981882	0.334337	0.960605
C97	C	-1.481905	-0.165667	0.539404
C98	C	-0.981905	0.334333	1.039404
C99	C	-1.498909	-0.102498	0.578823
C100	C	-0.998909	0.397502	1.078823
C101	C	-1.515919	-0.039322	0.539434
C102	C	-1.015919	0.460678	1.039434
C103	C	-1.515905	-0.039319	0.460633
C104	C	-1.015905	0.460681	0.960633
C105	C	-1.498880	-0.102497	0.421222
C106	C	-0.998880	0.397503	0.921222
C107	C	-1.585513	-0.055723	0.703665
C108	C	-1.085513	0.444277	1.203665
C109	C	-1.585511	-0.055719	0.782468
C110	C	-1.085511	0.444281	1.282468
C111	C	-1.412339	-0.149272	0.782464
C112	C	-0.912339	0.350728	1.282464
C113	C	-1.412335	-0.149270	0.703662
C114	C	-0.912335	0.350730	1.203662
C115	C	-1.498928	-0.102496	0.664267
C116	C	-0.998928	0.397504	1.164267
H117	H	-1.134052	0.002081	0.051274
H118	H	-0.634052	0.502081	0.551274
H119	H	-1.086297	-0.197411	0.076075
H120	H	-0.586297	0.302589	0.576075
H121	H	-1.341846	-0.187356	0.814545
H122	H	-0.841846	0.312644	1.314545
H123	H	-1.296748	0.094314	0.000024
H124	H	-0.796748	0.594314	0.500024
H125	H	-1.655961	-0.017628	0.328456
H126	H	-1.155961	0.482372	0.828456
H127	H	-1.133216	0.002282	-0.051303
H128	H	-0.633216	0.502282	0.448697
Br129	Br	-1.294818	-0.212745	0.650190
Br130	Br	-0.794818	0.287255	1.150190
Br131	Br	-0.835580	-0.233351	0.071622
Br132	Br	-0.335580	0.266649	0.571622
H133	H	-1.656019	-0.017635	0.671588
H134	H	-1.156019	0.482365	1.171588
Br135	Br	-1.763293	0.724553	-0.000004
Br136	Br	-1.263293	1.224553	0.499996
Br137	Br	-1.539014	0.046414	0.592921
Br138	Br	-1.039014	0.546414	1.092921
Br139	Br	-0.864692	-0.098780	0.161152
Br140	Br	-0.364692	0.401220	0.661152
H141	H	-0.889339	-0.111406	-0.124964
H142	H	-0.389339	0.388594	0.375036
H143	H	-1.468063	-0.217109	0.571468
H144	H	-0.968063	0.282891	1.071468
Br145	Br	-1.710103	0.325999	-0.103352
Br146	Br	-1.210103	0.825999	0.396648
Br147	Br	-1.458930	-0.251404	0.407115
Br148	Br	-0.958930	0.248596	0.907115
Br149	Br	-1.294768	-0.212738	0.349843
Br150	Br	-0.794768	0.287262	0.849843
H151	H	-1.704544	0.569249	0.000021
H152	H	-1.204544	1.069249	0.500021
H153	H	-1.341741	-0.187342	0.185494
H154	H	-0.841741	0.312658	0.685494
H155	H	-0.916310	0.005444	0.051587
H156	H	-0.416310	0.505444	0.551587
Br157	Br	-0.834903	-0.231384	-0.076954
Br158	Br	-0.334903	0.268616	0.423046
H159	H	-1.084499	-0.198181	-0.074149
H160	H	-0.584499	0.301819	0.425851
H161	H	-0.914713	0.005310	-0.050661
H162	H	-0.414713	0.505310	0.449339
H163	H	-1.106586	-0.115690	-0.124678
H164	H	-0.606586	0.384310	0.375322
Br165	Br	-1.132406	-0.095820	0.159920
Br166	Br	-0.632406	0.404180	0.659920
Br167	Br	-1.292251	0.298218	0.103422
Br168	Br	-0.792251	0.798218	0.603422
Br169	Br	-1.222504	0.517429	-0.000012
Br170	Br	-0.722504	1.017429	0.499988
H171	H	-1.716517	0.122282	0.000062
H172	H	-1.216517	0.622282	0.500062
H173	H	-1.712993	0.253732	0.000042
H174	H	-1.212993	0.753732	0.500042
Br175	Br	-1.217924	0.688219	-0.000025
Br176	Br	-0.717924	1.188219	0.499975
Br177	Br	-1.703025	0.007762	0.835938
Br178	Br	-1.203025	0.507762	1.335938
H179	H	-1.336312	0.452536	0.079590
H180	H	-0.836312	0.952536	0.579590
Br181	Br	-1.229904	0.241253	0.000010
Br182	Br	-0.729904	0.741253	0.500010
Br183	Br	-1.705527	0.496793	-0.103373
Br184	Br	-1.205527	0.996793	0.396627
Br185	Br	-1.702951	0.007763	0.164107
Br186	Br	-1.202951	0.507763	0.664107
H187	H	-1.529751	0.012121	0.428566
H188	H	-1.029751	0.512121	0.928566
