data_functionalizedCrystal
_audit_creation_method	'MofGen! by Chris Wilmer'
_symmetry_space_group_name_H-M	'P1'
_symmetry_Int_Tables_number	1
_symmetry_cell_setting	triclinic
loop_
_symmetry_equiv_pos_as_xyz
  x,y,z
_cell_length_a	15.021413
_cell_length_b	11.026607
_cell_length_c	11.026607
_cell_angle_alpha	108.586017
_cell_angle_beta	90.006228
_cell_angle_gamma	90.003435
loop_
_atom_site_label
_atom_site_type_symbol
_atom_site_fract_x
_atom_site_fract_y
_atom_site_fract_z
O1	O	-0.074030	-1.726735	-0.533631
O2	O	-0.074031	-1.360155	-0.472867
O3	O	-0.074027	-1.513063	-0.319959
O4	O	-0.074034	-1.573827	-0.686539
O5	O	0.074037	-1.513042	-0.319935
O6	O	0.074033	-1.360134	-0.472843
O7	O	0.074034	-1.726713	-0.533607
Zn8	Zn	0.097542	-1.543420	-0.503221
Zn9	Zn	-0.097539	-1.543448	-0.503253
O10	O	0.074031	-1.573805	-0.686515
C11	C	0.000001	-1.312485	-0.461645
C12	C	0.000000	-1.170471	-0.428228
N13	N	0.230680	-1.543410	-0.503201
N14	N	-0.230677	-1.543467	-0.503265
C15	C	0.529673	-1.613280	-0.431630
C16	C	0.470304	-1.664123	-0.552057
C17	C	0.587717	-1.543448	-0.503246
C18	C	0.470343	-1.492647	-0.382813
C19	C	0.412292	-1.543432	-0.503218
C20	C	0.529654	-1.594362	-0.623744
C21	C	0.529699	-1.422819	-0.454413
C22	C	0.470357	-1.473631	-0.574913
C23	C	0.688774	-1.543461	-0.503261
C24	C	0.311237	-1.543421	-0.503217
C25	C	0.000004	-1.501843	-0.272287
C26	C	0.000000	-1.468426	-0.130273
C27	C	0.000000	-1.774384	-0.544828
C28	C	-0.000005	-1.916398	-0.578245
C29	C	-0.000002	-1.116821	-0.520498
C30	C	-0.000003	-0.970043	-0.485962
C31	C	-0.000002	-1.585026	-0.734187
C32	C	-0.000005	-1.618443	-0.876200
C33	C	-0.000001	-1.560695	-0.076624
C34	C	-0.000004	-1.526160	0.070155
H35	H	0.444215	-1.766132	-0.593355
H36	H	-0.000010	-1.421590	0.132884
C37	C	0.000043	-0.886631	-0.346451
C38	C	0.000066	-0.964571	-0.268019
C39	C	0.000119	-0.887777	-0.139498
H40	H	-0.051576	-0.834140	-0.329411
H41	H	0.051697	-0.834170	-0.329508
H42	H	-0.051584	-1.017010	-0.284954
H43	H	0.051681	-1.017061	-0.285019
H44	H	0.051773	-0.835316	-0.122556
H45	H	-0.051501	-0.835290	-0.122472
H46	H	0.000143	-0.940648	-0.086266
H47	H	0.555807	-1.320832	-0.413085
H48	H	-0.000006	-1.363863	-0.067540
H49	H	-0.000001	-0.979125	-0.682816
C50	C	-0.000185	-1.757902	0.040237
C51	C	-0.076372	-1.818366	0.066428
C52	C	-0.076574	-1.946828	-0.010536
H53	H	0.051388	-1.799285	0.057808
H54	H	-0.000232	-1.762642	-0.047317
H55	H	-0.076317	-1.813634	0.153962
H56	H	-0.127957	-1.777022	0.048850
H57	H	-0.076620	-1.951569	-0.098090
H58	H	-0.024997	-1.988199	0.007041
H59	H	-0.128269	-1.987867	0.007216
H60	H	0.555716	-1.672412	-0.371175
H61	H	0.555599	-1.637430	-0.725629
H62	H	0.444477	-1.414584	-0.635548
H63	H	0.444289	-1.449689	-0.280975
H64	H	0.000001	-1.179555	-0.625061
H65	H	-0.000021	-1.107738	-0.323666
H66	H	0.000005	-1.665258	-0.139357
