data_functionalizedCrystal
_audit_creation_method	'MofGen! by Chris Wilmer'
_symmetry_space_group_name_H-M	'P1'
_symmetry_Int_Tables_number	1
_symmetry_cell_setting	triclinic
loop_
_symmetry_equiv_pos_as_xyz
  x,y,z
_cell_length_a	27.732048
_cell_length_b	27.732048
_cell_length_c	13.330367
_cell_angle_alpha	89.990394
_cell_angle_beta	89.997949
_cell_angle_gamma	82.642655
loop_
_atom_site_label
_atom_site_type_symbol
_atom_site_fract_x
_atom_site_fract_y
_atom_site_fract_z
O1	O	0.640929	0.057517	-0.083305
O2	O	0.500136	0.066262	-0.083337
O3	O	0.574905	-0.008507	-0.083301
O4	O	0.566160	0.132286	-0.083341
O5	O	0.574895	-0.008509	0.083546
O6	O	0.500125	0.066261	0.083510
O7	O	0.640919	0.057515	0.083542
Cu8	Cu	0.570521	0.061888	0.098761
Cu9	Cu	0.570534	0.061890	-0.098555
O10	O	0.566149	0.132285	0.083506
C11	C	0.482124	0.066078	0.000083
C12	C	0.428469	0.065525	0.000072
C13	C	0.089654	0.106229	0.000103
C14	C	-0.112006	0.104178	0.000113
O15	O	-0.143262	0.141398	0.000146
N16	N	-0.131130	0.059843	0.000124
C17	C	-0.099835	0.016017	0.000139
O18	O	-0.120728	-0.021740	0.000159
C19	C	0.101824	0.018068	0.000137
C20	C	0.120944	0.062407	0.000116
C21	C	0.108775	0.150563	0.000084
C22	C	0.159187	0.151075	0.000076
C23	C	0.190477	0.107253	0.000088
C24	C	0.171356	0.062919	0.000108
C25	C	0.133117	-0.025757	0.000159
C26	C	0.183535	-0.025240	0.000161
C27	C	0.202655	0.019098	0.000140
C28	C	0.253059	0.019609	0.000112
N29	N	0.272183	0.063944	0.000101
C30	C	0.240892	0.107766	0.000089
C31	C	-0.205709	0.014943	0.000138
C32	C	-0.256124	0.014430	0.000137
C33	C	-0.268291	0.102591	0.000113
C34	C	-0.217876	0.103104	0.000107
C35	C	-0.186585	0.059278	0.000127
C36	C	0.346761	0.108839	0.000072
C37	C	0.397178	0.109347	0.000060
C38	C	0.409341	0.021186	0.000089
C39	C	0.358929	0.020678	0.000096
C40	C	0.327639	0.064508	0.000090
O41	O	0.284343	-0.017592	0.000090
O42	O	0.261794	0.145518	0.000091
C43	C	0.039242	0.105716	0.000111
C44	C	0.020120	0.061382	0.000131
C45	C	0.051411	0.017560	0.000143
C46	C	-0.030294	0.060869	0.000130
C47	C	-0.061585	0.104691	0.000118
C48	C	-0.042461	0.149026	0.000107
C49	C	0.007951	0.149539	0.000099
C50	C	0.032287	-0.026775	0.000154
C51	C	-0.018125	-0.027284	0.000161
C52	C	-0.049416	0.016538	0.000149
C53	C	0.574716	-0.026515	0.000126
C54	C	0.574164	-0.080170	0.000134
C55	C	0.614867	-0.418985	0.000091
C56	C	0.612816	-0.620645	0.000077
O57	O	0.650037	-0.651900	0.000041
N58	N	0.568481	-0.639768	0.000068
C59	C	0.524656	-0.608474	0.000056
O60	O	0.486899	-0.629367	0.000037
C61	C	0.526707	-0.406815	0.000063
C62	C	0.571045	-0.387694	0.000082
C63	C	0.659202	-0.399864	0.000110
C64	C	0.659714	-0.349452	0.000119
C65	C	0.615892	-0.318161	0.000110
C66	C	0.571557	-0.337282	0.000091
C67	C	0.482882	-0.375521	0.000044
C68	C	0.483399	-0.325104	0.000043
C69	C	0.527737	-0.305983	0.000062
C70	C	0.528247	-0.255580	0.000091
N71	N	0.572583	-0.236456	0.000100
C72	C	0.616405	-0.267747	0.000110
C73	C	0.523582	-0.714348	0.000054
C74	C	0.523069	-0.764762	0.000054
C75	C	0.611230	-0.776930	0.000073
C76	C	0.611742	-0.726514	0.000080
C77	C	0.567917	-0.695224	0.000063
C78	C	0.617477	-0.161878	0.000129
C79	C	0.617986	-0.111461	0.000143
C80	C	0.529825	-0.099298	0.000118
C81	C	0.529316	-0.149710	0.000110
C82	C	0.573147	-0.180999	0.000112
O83	O	0.491047	-0.224296	0.000116
O84	O	0.654156	-0.246844	0.000106
C85	C	0.614355	-0.469397	0.000082
C86	C	0.570021	-0.488518	0.000064
C87	C	0.526198	-0.457228	0.000055
C88	C	0.569508	-0.538933	0.000064
C89	C	0.613330	-0.570223	0.000073
C90	C	0.657665	-0.551100	0.000082
C91	C	0.658177	-0.500688	0.000091
C92	C	0.481863	-0.476351	0.000046
C93	C	0.481355	-0.526764	0.000038
C94	C	0.525177	-0.558054	0.000047
C95	C	0.658931	0.057699	0.000120
C96	C	0.712586	0.058252	0.000125
C97	C	0.566338	0.150292	0.000078
C98	C	0.566891	0.203947	0.000063
N99	N	0.570515	0.061886	0.237542
N100	N	0.570543	0.061887	-0.237337
C101	C	0.537424	0.094985	0.710149
C102	C	0.603656	0.028791	0.710149
C103	C	0.603650	0.028789	0.605131
C104	C	0.570532	0.061886	0.552617
C105	C	0.537419	0.094985	0.605121
C106	C	0.636766	-0.004306	0.552619
C107	C	0.636762	-0.004308	0.447594
C108	C	0.603641	0.028787	0.395078
C109	C	0.570526	0.061887	0.447589
C110	C	0.537408	0.094984	0.395075
C111	C	0.504290	0.128082	0.447584
C112	C	0.504298	0.128080	0.552605
C113	C	0.603634	0.028789	0.290056
C114	C	0.537402	0.094985	0.290047
H115	H	0.321291	0.144530	0.000070
O116	O	0.114530	-0.068816	0.000006
C117	C	0.085724	-0.071757	-0.086388
H118	H	0.097456	-0.046588	-0.146800
H119	H	0.090544	-0.110750	-0.115372
H120	H	0.045879	-0.060313	-0.066853
O121	O	-0.072813	0.191627	0.000229
C122	C	-0.064207	0.218563	0.086646
H123	H	-0.025871	0.206407	0.115453
H124	H	-0.068056	0.258906	0.067202
H125	H	-0.091735	0.212157	0.147160
O126	O	-0.036615	-0.070400	0.000224
C127	C	0.001820	-0.108965	0.000210
H128	H	0.035972	-0.095672	0.031781
H129	H	-0.008485	-0.139942	0.048671
H130	H	0.009051	-0.122467	-0.079829
O131	O	0.635801	-0.003426	0.761052
C132	C	0.628288	-0.051223	0.735432
H133	H	0.609656	-0.051034	0.659180
H134	H	0.664796	-0.075285	0.731849
H135	H	0.604336	-0.065999	0.794549
H136	H	0.663733	-0.031250	0.595379
O137	O	0.668947	-0.036507	0.396747
C138	C	0.698187	-0.065710	0.465619
H139	H	0.678379	-0.066117	0.540491
H140	H	0.705848	-0.104366	0.435292
H141	H	0.733978	-0.050262	0.476767
O142	O	0.635753	-0.003419	0.239083
C143	C	0.628276	-0.051222	0.264770
H144	H	0.589583	-0.051202	0.293662
H145	H	0.634015	-0.075514	0.195701
H146	H	0.655184	-0.065605	0.325717
O147	O	0.472066	0.160182	0.603570
C148	C	0.424274	0.152661	0.577914
H149	H	0.424327	0.113961	0.549053
H150	H	0.399981	0.158384	0.646992
H151	H	0.409868	0.179554	0.516954
H152	H	-0.202311	0.139207	0.000096
O153	O	0.062700	-0.069333	0.000336
C154	C	0.092239	-0.071679	0.086727
H155	H	0.073600	-0.046822	0.147127
H156	H	0.098189	-0.110662	0.115733
H157	H	0.128814	-0.059452	0.067179
O158	O	-0.298760	0.145116	0.000148
C159	C	-0.347355	0.135150	0.000124
H160	H	-0.349005	0.097194	0.031715
H161	H	-0.370406	0.163101	0.048563
H162	H	-0.361950	0.137097	-0.079921
O163	O	0.438293	-0.545358	0.000196
C164	C	0.435349	-0.574177	0.086583
H165	H	0.460511	-0.562449	0.146999
H166	H	0.396353	-0.569367	0.115567
H167	H	0.446802	-0.614018	0.067040
O168	O	0.213949	-0.067801	0.000354
C169	C	0.243485	-0.070139	0.086749
H170	H	0.224842	-0.045278	0.147139
H171	H	0.249435	-0.109120	0.115767
H172	H	0.280059	-0.057912	0.067202
O173	O	0.415670	0.152462	0.000087
C174	C	0.377238	0.191029	0.000056
H175	H	0.343086	0.177738	0.031652
H176	H	0.387547	0.222006	0.048485
H177	H	0.370003	0.204529	-0.079992
H178	H	0.446777	-0.391080	0.000022
H179	H	0.654093	-0.095896	0.000161
H180	H	-0.271687	-0.021674	0.000138
H181	H	0.447710	-0.299629	0.000027
H182	H	0.653168	-0.187348	0.000127
O183	O	0.701290	-0.482198	0.000059
C184	C	0.739853	-0.520634	0.000089
H185	H	0.726561	-0.554782	-0.031503
H186	H	0.770836	-0.510326	-0.048344
H187	H	0.753347	-0.527876	0.080137
H188	H	0.695819	-0.333889	0.000130
H189	H	0.494146	-0.073812	0.000114
H190	H	0.646911	-0.802415	0.000081
O191	O	0.480975	-0.684005	-0.000088
C192	C	0.454043	-0.692612	-0.086515
H193	H	0.466213	-0.730943	-0.115325
H194	H	0.413701	-0.688781	-0.067084
H195	H	0.460438	-0.665074	-0.147021
O196	O	0.486205	-0.168206	0.000051
C197	C	0.447637	-0.129775	0.000074
H198	H	0.460929	-0.095617	-0.031492
H199	H	0.416664	-0.140076	-0.048386
H200	H	0.434129	-0.122556	0.080116
H201	H	-0.180236	-0.020747	0.000155
O202	O	0.439260	-0.446009	-0.000091
C203	C	0.412328	-0.454611	-0.086520
H204	H	0.424497	-0.492940	-0.115338
H205	H	0.371985	-0.450780	-0.067087
H206	H	0.418723	-0.427070	-0.147020
O207	O	0.177676	0.194189	0.000112
C208	C	0.139240	0.232752	0.000081
H209	H	0.105089	0.219455	0.031668
H210	H	0.149543	0.263729	0.048519
H211	H	0.132007	0.246254	-0.079966
H212	H	0.477327	0.155032	0.404815
H213	H	0.343360	-0.015426	0.000098
O214	O	0.700222	-0.581520	-0.000089
C215	C	0.702555	-0.611044	-0.086494
H216	H	0.677700	-0.592387	-0.146890
H217	H	0.741536	-0.617001	-0.115495
H218	H	0.690317	-0.647616	-0.066965
O219	O	0.078335	0.193105	-0.000068
C220	C	0.048823	0.195454	-0.086499
H221	H	0.046546	0.157106	-0.115287
H222	H	0.010798	0.213759	-0.067081
H223	H	0.065259	0.217396	-0.147017
H224	H	0.023514	0.185643	0.000084
H225	H	0.510431	0.121935	0.247296
H226	H	0.434827	-0.014492	0.000095
H227	H	0.510459	0.121931	0.752905
O228	O	0.701819	-0.430187	0.000166
C229	C	0.741053	-0.402488	0.000155
H230	H	0.728484	-0.364770	0.031733
H231	H	0.771732	-0.421306	0.048611
H232	H	0.754669	-0.398991	-0.079884
H233	H	0.647846	-0.710950	0.000095
H234	H	0.486964	-0.780325	0.000056
