data_functionalizedCrystal
_audit_creation_method	'MofGen! by Chris Wilmer'
_symmetry_space_group_name_H-M	'P1'
_symmetry_Int_Tables_number	1
_symmetry_cell_setting	triclinic
loop_
_symmetry_equiv_pos_as_xyz
  x,y,z
_cell_length_a	19.805407
_cell_length_b	12.827892
_cell_length_c	19.805399
_cell_angle_alpha	89.980369
_cell_angle_beta	90.024201
_cell_angle_gamma	89.983422
loop_
_atom_site_label
_atom_site_type_symbol
_atom_site_fract_x
_atom_site_fract_y
_atom_site_fract_z
Zn1	Zn	1.034778	0.416078	0.382841
Zn2	Zn	1.534778	0.916078	0.882841
Zn3	Zn	1.034711	0.590833	0.269668
Zn4	Zn	1.534711	1.090833	0.769668
Zn5	Zn	0.921593	0.416105	0.269656
Zn6	Zn	1.421593	0.916105	0.769656
Zn7	Zn	0.921575	0.590776	0.382806
Zn8	Zn	1.421575	1.090776	0.882806
O9	O	0.978164	0.503448	0.326243
O10	O	1.478164	1.003448	0.826243
O11	O	1.129486	0.439273	0.367848
O12	O	1.629486	0.939273	0.867848
O13	O	1.019685	0.567691	0.174950
O14	O	1.519685	1.067691	0.674950
O15	O	0.936643	0.269865	0.284680
O16	O	1.436643	0.769865	0.784680
O17	O	1.129437	0.567665	0.284700
O18	O	1.629437	1.067665	0.784700
O19	O	1.019800	0.269846	0.367836
O20	O	1.519800	0.769846	0.867836
O21	O	0.936578	0.439318	0.174941
O22	O	1.436578	0.939318	0.674941
O23	O	0.826874	0.439262	0.284646
O24	O	1.326874	0.939262	0.784646
O25	O	0.936612	0.567566	0.477527
O26	O	1.436612	1.067566	0.977527
O27	O	0.826860	0.567592	0.367776
O28	O	1.326860	1.067592	0.867776
O29	O	1.019782	0.439217	0.477553
O30	O	1.519782	0.939217	0.977553
O31	O	1.019667	0.737062	0.284666
O32	O	1.519667	1.237062	0.784666
O33	O	0.936546	0.737019	0.367788
O34	O	1.436546	1.237019	0.867788
C35	C	0.802308	0.503424	0.326207
C36	C	1.302308	1.003424	0.826207
C37	C	0.727076	0.503440	0.326207
C38	C	1.227076	1.003440	0.826207
C39	C	0.265296	0.570395	0.369504
C40	C	0.765296	1.070395	0.869504
C41	C	0.335984	0.570393	0.369490
C42	C	0.835984	1.070393	0.869490
C43	C	0.371315	0.503473	0.326269
C44	C	0.871315	1.003473	0.826269
C45	C	0.335953	0.436558	0.283055
C46	C	0.835953	0.936558	0.783055
C47	C	0.265266	0.436566	0.283066
C48	C	0.765266	0.936566	0.783066
C49	C	0.621026	0.436526	0.283007
C50	C	1.121026	0.936526	0.783007
C51	C	0.691718	0.436521	0.283001
C52	C	1.191718	0.936521	0.783001
C53	C	0.691745	0.570354	0.369431
C54	C	1.191745	1.070354	0.869431
C55	C	0.621058	0.570361	0.369442
C56	C	1.121058	1.070361	0.869442
C57	C	0.585702	0.503451	0.326226
C58	C	1.085702	1.003451	0.826226
C59	C	0.509054	0.503455	0.326241
C60	C	1.009054	1.003455	0.826241
C61	C	0.447962	0.503463	0.326257
C62	C	0.947962	1.003463	0.826257
C63	C	0.978116	0.774958	0.326240
C64	C	1.478116	1.274958	0.826240
C65	C	0.978157	0.891111	0.326261
C66	C	1.478157	1.391111	0.826261
C67	C	1.019336	0.942882	0.285177
C68	C	1.519336	1.442882	0.785177
C69	C	1.019379	1.062932	0.285198
C70	C	1.519379	1.562932	0.785198
C71	C	1.154707	0.503472	0.326279
C72	C	1.654707	1.003472	0.826279
C73	C	1.229939	0.503483	0.326295
C74	C	1.729939	1.003483	0.826295
C75	C	0.978202	0.503382	0.502785
C76	C	1.478202	1.003382	1.002785
C77	C	0.978218	0.503354	0.578017
C78	C	1.478218	1.003354	1.078017
C79	C	0.978226	1.230878	0.326269
C80	C	1.478226	1.730878	0.826269
C81	C	0.978238	1.114725	0.326301
C82	C	1.478238	1.614725	0.826301
C83	C	0.978165	0.503438	0.150387
C84	C	1.478165	1.003438	0.650387
C85	C	0.978280	0.503172	0.075155
C86	C	1.478280	1.003172	0.575155
C87	C	1.021526	0.436519	0.613376
C88	C	1.521526	0.936519	1.113376
C89	C	1.021533	0.436489	0.684065
C90	C	1.521533	0.936489	1.184065
C91	C	0.978235	0.503300	0.719393
C92	C	1.478235	1.003300	1.219393
C93	C	0.934923	0.570137	0.684030
C94	C	1.434923	1.070137	1.184030
C95	C	0.934913	0.570162	0.613342
C96	C	1.434913	1.070162	1.113342
C97	C	0.934961	0.570040	0.969103
C98	C	1.434961	1.070040	1.469103
C99	C	0.934975	0.570013	1.039795
C100	C	1.434975	1.070013	1.539795
C101	C	1.021581	0.436367	1.039825
C102	C	1.521581	0.936367	1.539825
C103	C	1.021571	0.436392	0.969138
C104	C	1.521571	0.936392	1.469138
C105	C	0.978257	0.503225	0.933781
C106	C	1.478257	1.003225	1.433781
C107	C	0.978249	0.503256	0.857132
C108	C	1.478249	1.003256	1.357132
C109	C	0.978246	0.503275	0.796040
C110	C	1.478246	1.003275	1.296040
H111	H	0.592295	0.624851	0.404639
H112	H	1.092295	1.124851	0.904639
H113	H	0.592248	0.382047	0.247816
H114	H	1.092248	0.882047	0.747816
H115	H	1.056831	0.381991	0.940377
H116	H	1.556831	0.881991	1.440377
C117	C	0.968818	1.013915	0.417244
C118	C	1.468818	1.513915	0.917244
C119	C	0.930606	0.951247	0.373768
C120	C	1.430606	1.451247	0.873768
H121	H	0.939459	1.051042	0.446570
H122	H	1.439459	1.551042	0.946570
H123	H	0.998244	0.971269	0.443180
H124	H	1.498244	1.471269	0.943180
H125	H	0.994656	1.061946	0.391464
H126	H	1.494656	1.561946	0.891464
H127	H	0.904771	0.903211	0.399548
H128	H	1.404771	1.403211	0.899548
H129	H	0.901168	0.993897	0.347829
H130	H	1.401168	1.493897	0.847829
H131	H	1.056787	0.382117	0.584617
H132	H	1.556787	0.882117	1.084617
H133	H	1.054561	0.898331	0.249990
H134	H	1.554561	1.398331	0.749990
C135	C	0.713493	0.747377	0.402221
C136	C	1.213493	1.247377	0.902221
C137	C	0.730608	0.643914	0.416933
C138	C	1.230608	1.143914	0.916933
H139	H	0.737481	0.792784	0.431550
H140	H	1.237481	1.292784	0.931550
H141	H	0.725054	0.762576	0.356733
H142	H	1.225054	1.262576	0.856733
H143	H	0.666337	0.756939	0.408413
H144	H	1.166337	1.256939	0.908413
H145	H	0.777764	0.634350	0.410735
H146	H	1.277764	1.134350	0.910735
H147	H	0.719052	0.628710	0.462432
H148	H	1.219052	1.128710	0.962432
H149	H	0.720482	0.382022	0.247804
H150	H	1.220482	0.882022	0.747804
C151	C	0.444298	0.377111	0.244664
C152	C	0.944298	0.877111	0.744664
C153	C	0.374786	0.362995	0.235547
C154	C	0.874786	0.862995	0.735547
H155	H	0.468269	0.331687	0.215337
H156	H	0.968269	0.831687	0.715337
H157	H	0.455864	0.447294	0.234679
H158	H	0.955864	0.947294	0.734679
H159	H	0.455902	0.361906	0.290158
H160	H	0.955902	0.861906	0.790158
H161	H	0.363181	0.378207	0.190054
H162	H	0.863181	0.878207	0.690054
H163	H	0.363215	0.292796	0.245527
H164	H	0.863215	0.792796	0.745527
C165	C	1.107151	0.304402	0.676994
C166	C	1.607151	0.804402	1.176994
C167	C	1.069143	0.363029	0.722931
C168	C	1.569143	0.863029	1.222931
H169	H	1.136547	0.259054	0.700990
H170	H	1.636547	0.759054	1.200990
H171	H	1.077670	0.264432	0.649420
H172	H	1.577670	0.764432	1.149420
H173	H	1.133021	0.349963	0.649427
H174	H	1.633021	0.849963	1.149427
H175	H	1.043269	0.317468	0.750495
H176	H	1.543269	0.817468	1.250495
H177	H	1.098628	0.403002	0.750517
H178	H	1.598628	0.903002	1.250517
H179	H	0.236535	0.624884	0.404703
H180	H	0.736535	1.124884	0.904703
H181	H	1.056848	0.381944	1.068622
H182	H	1.556848	0.881944	1.568622
C183	C	0.849349	0.702111	1.032669
C184	C	1.349349	1.202111	1.532669
C185	C	0.887373	0.643448	1.078630
C186	C	1.387373	1.143448	1.578630
H187	H	0.819961	0.747439	1.056646
H188	H	1.319961	1.247439	1.556646
H189	H	0.878819	0.742104	1.005104
H190	H	1.378819	1.242104	1.505104
H191	H	0.823469	0.656572	1.005094
H192	H	1.323469	1.156572	1.505094
H193	H	0.913257	0.688988	1.106202
H194	H	1.413257	1.188988	1.606202
H195	H	0.857899	0.603453	1.106206
H196	H	1.357899	1.103453	1.606206
H197	H	0.899666	0.624532	0.712800
H198	H	1.399666	1.124532	1.212800
H199	H	0.236479	0.382076	0.247883
H200	H	0.736479	0.882076	0.747883
C201	C	0.925492	0.710642	0.889608
C202	C	1.425492	1.210642	1.389608
C203	C	0.887349	0.643509	0.930250
C204	C	1.387349	1.143509	1.430250
H205	H	0.896094	0.755996	0.865620
H206	H	1.396094	1.255996	1.365620
H207	H	0.954974	0.750604	0.917186
H208	H	1.454974	1.250604	1.417186
H209	H	0.951268	0.670851	0.858446
H210	H	1.451268	1.170851	1.358446
H211	H	0.861577	0.683300	0.961416
H212	H	1.361577	1.183300	1.461416
H213	H	0.857855	0.603543	0.902670
H214	H	1.357855	1.103543	1.402670
C215	C	0.849323	0.702295	0.620408
C216	C	1.349323	1.202295	1.120408
C217	C	0.887319	0.643647	0.574473
C218	C	1.387319	1.143647	1.074473
H219	H	0.819945	0.747668	0.596411
H220	H	1.319945	1.247668	1.096411
H221	H	0.823441	0.656756	0.647969
H222	H	1.323441	1.156756	1.147969
H223	H	0.878818	0.742248	0.647989
H224	H	1.378818	1.242248	1.147989
H225	H	0.857825	0.603687	0.546895
H226	H	1.357825	1.103687	1.046895
H227	H	0.913203	0.689191	0.546901
H228	H	1.413203	1.189191	1.046901
H229	H	0.364769	0.624882	0.404673
H230	H	0.864769	1.124882	0.904673
H231	H	1.054632	1.107454	0.250023
H232	H	1.554632	1.607454	0.750023
H233	H	0.942979	1.070210	0.361474
H234	H	1.442979	1.570210	0.861474
