data_functionalizedCrystal
_audit_creation_method	'MofGen! by Chris Wilmer'
_symmetry_space_group_name_H-M	'P1'
_symmetry_Int_Tables_number	1
_symmetry_cell_setting	triclinic
loop_
_symmetry_equiv_pos_as_xyz
  x,y,z
_cell_length_a	21.295418
_cell_length_b	21.295417
_cell_length_c	21.295412
_cell_angle_alpha	89.968813
_cell_angle_beta	89.964379
_cell_angle_gamma	90.046319
loop_
_atom_site_label
_atom_site_type_symbol
_atom_site_fract_x
_atom_site_fract_y
_atom_site_fract_z
Zn1	Zn	0.962305	-0.250356	-0.356234
Zn2	Zn	1.462305	0.249644	0.143766
Zn3	Zn	0.962223	-0.355625	-0.250959
Zn4	Zn	1.462223	0.144375	0.249041
Zn5	Zn	0.857043	-0.250403	-0.250943
Zn6	Zn	1.357043	0.249597	0.249057
Zn7	Zn	0.856998	-0.355620	-0.356155
Zn8	Zn	1.356998	0.144380	0.143845
O9	O	0.909642	-0.303001	-0.303573
O10	O	1.409642	0.196999	0.196427
O11	O	1.050384	-0.264303	-0.342308
O12	O	1.550384	0.235697	0.157692
O13	O	0.948255	-0.341689	-0.162867
O14	O	1.448255	0.158311	0.337133
O15	O	0.871060	-0.162307	-0.264937
O16	O	1.371060	0.337693	0.235063
O17	O	1.050323	-0.341644	-0.264963
O18	O	1.550323	0.158356	0.235037
O19	O	0.948396	-0.162273	-0.342293
O20	O	1.448396	0.337727	0.157707
O21	O	0.870980	-0.264383	-0.162856
O22	O	1.370980	0.235617	0.337144
O23	O	0.768948	-0.264378	-0.264861
O24	O	1.268948	0.235622	0.235139
O25	O	0.870983	-0.341635	-0.444255
O26	O	1.370983	0.158365	0.055745
O27	O	0.768915	-0.341681	-0.342160
O28	O	1.268915	0.158319	0.157840
O29	O	0.948352	-0.264298	-0.444313
O30	O	1.448352	0.235702	0.055687
O31	O	0.948211	-0.443714	-0.264887
O32	O	1.448211	0.056286	0.235113
O33	O	0.870903	-0.443710	-0.342175
O34	O	1.370903	0.056290	0.157825
C35	C	0.746091	-0.303034	-0.303500
C36	C	1.246091	0.196966	0.196500
C37	C	0.676123	-0.303064	-0.303484
C38	C	1.176123	0.196936	0.196516
C39	C	0.643255	-0.343368	-0.343674
C40	C	1.143255	0.156632	0.156326
C41	C	0.577512	-0.343353	-0.343702
C42	C	1.077512	0.156647	0.156298
C43	C	0.544640	-0.303039	-0.303530
C44	C	1.044640	0.196961	0.196470
C45	C	0.577516	-0.262727	-0.263337
C46	C	1.077516	0.237273	0.236663
C47	C	0.643257	-0.262739	-0.263315
C48	C	1.143257	0.237261	0.236685
N49	N	0.441372	-0.298121	-0.248472
N50	N	0.941372	0.201879	0.251528
N51	N	0.378920	-0.298113	-0.248495
N52	N	0.878920	0.201887	0.251505
C53	C	0.346565	-0.302999	-0.303596
C54	C	0.846565	0.197001	0.196404
N55	N	0.379021	-0.307905	-0.358674
N56	N	0.879021	0.192095	0.141326
N57	N	0.441478	-0.307916	-0.358650
N58	N	0.941478	0.192084	0.141350
C59	C	0.473355	-0.303021	-0.303550
C60	C	0.973355	0.196979	0.196450
C61	C	0.242412	-0.343289	-0.343820
C62	C	0.742412	0.156711	0.156180
C63	C	0.176669	-0.343269	-0.343849
C64	C	0.676669	0.156731	0.156151
C65	C	0.176673	-0.262646	-0.263479
C66	C	0.676673	0.237354	0.236521
C67	C	0.242415	-0.262663	-0.263455
C68	C	0.742415	0.237337	0.236545
C69	C	0.275281	-0.302988	-0.303625
C70	C	0.775281	0.197012	0.196375
C71	C	0.909560	-0.466553	-0.303538
C72	C	1.409560	0.033447	0.196462
C73	C	0.909582	-0.536521	-0.303544
C74	C	1.409582	-0.036521	0.196456
C75	C	0.949872	-0.569369	-0.263342
C76	C	1.449872	-0.069369	0.236658
C77	C	0.949902	-0.635111	-0.263356
C78	C	1.449902	-0.135111	0.236644
C79	C	0.909630	-0.668003	-0.303566
C80	C	1.409630	-0.168003	0.196434
C81	C	0.869337	-0.635148	-0.343776
C82	C	1.369337	-0.135148	0.156224
C83	C	0.869313	-0.569407	-0.343765
C84	C	1.369313	-0.069407	0.156235
N85	N	0.854562	-0.771284	-0.308340
N86	N	1.354562	-0.271284	0.191660
N87	N	0.854587	-0.833736	-0.308347
N88	N	1.354587	-0.333736	0.191653
C89	C	0.909700	-0.866078	-0.303602
C90	C	1.409700	-0.366078	0.196398
N91	N	0.964790	-0.833610	-0.298838
N92	N	1.464790	-0.333610	0.201162
N93	N	0.964765	-0.771152	-0.298828
N94	N	1.464765	-0.271152	0.201172
C95	C	0.909652	-0.739289	-0.303582
C96	C	1.409652	-0.239289	0.196418
C97	C	0.950026	-0.970211	-0.263413
C98	C	1.450026	-0.470211	0.236587
C99	C	0.950056	-1.035955	-0.263431
C100	C	1.450056	-0.535955	0.236569
C101	C	0.869486	-1.035990	-0.343848
C102	C	1.369486	-0.535990	0.156152
C103	C	0.869461	-0.970248	-0.343833
C104	C	1.369461	-0.470248	0.156167
C105	C	0.909730	-0.937362	-0.303612
C106	C	1.409730	-0.437362	0.196388
C107	C	1.073833	-0.302968	-0.303646
C108	C	1.573833	0.197032	0.196354
C109	C	1.143801	-0.302954	-0.303677
C110	C	1.643801	0.197046	0.196323
C111	C	0.909671	-0.302960	-0.467763
C112	C	1.409671	0.197040	0.032237
C113	C	0.909684	-0.302943	-0.537731
C114	C	1.409684	0.197057	-0.037731
C115	C	0.909742	-0.138811	-0.303622
C116	C	1.409742	0.361189	0.196378
C117	C	0.909785	-0.068843	-0.303642
C118	C	1.409785	0.431157	0.196358
C119	C	0.950029	-0.262574	-1.037220
C120	C	1.450029	0.237426	-0.537220
C121	C	0.950025	-0.262589	-0.971478
C122	C	1.450025	0.237411	-0.471478
C123	C	0.909738	-0.302860	-0.938571
C124	C	1.409738	0.197140	-0.438571
C125	C	0.869465	-0.343130	-0.971412
C126	C	1.369465	0.156870	-0.471412
C127	C	0.869476	-0.343118	-1.037153
C128	C	1.369476	0.156882	-0.537153
N129	N	0.854617	-0.307719	-0.835324
N130	N	1.354617	0.192281	-0.335324
N131	N	0.854609	-0.307727	-0.772872
N132	N	1.354609	0.192273	-0.272872
C133	C	0.909705	-0.302899	-0.740496
C134	C	1.409705	0.197101	-0.240496
N135	N	0.964811	-0.298052	-0.772931
N136	N	1.464811	0.201948	-0.272931
N137	N	0.964819	-0.298041	-0.835388
N138	N	1.464819	0.201959	-0.335388
C139	C	0.909723	-0.302878	-0.867286
C140	C	1.409723	0.197122	-0.367286
C141	C	0.949973	-0.262652	-0.636377
C142	C	1.449973	0.237348	-0.136377
C143	C	0.949970	-0.262671	-0.570634
C144	C	1.449970	0.237329	-0.070634
C145	C	0.869405	-0.343209	-0.570569
C146	C	1.369405	0.156791	-0.070569
C147	C	0.869414	-0.343192	-0.636312
C148	C	1.369414	0.156808	-0.136312
C149	C	0.909698	-0.302910	-0.669212
C150	C	1.409698	0.197090	-0.169212
C151	C	0.909650	-0.302996	-0.140021
C152	C	1.409650	0.197004	0.359979
C153	C	0.909759	-0.302836	-0.070054
C154	C	1.409759	0.197164	0.429946
H155	H	0.269177	-0.229845	-0.230726
H156	H	0.769177	0.270155	0.269274
H157	H	0.982713	-0.661861	-0.230619
H158	H	1.482713	-0.161861	0.269381
H159	H	0.836605	-0.376000	-0.543777
H160	H	1.336605	0.124000	-0.043777
H161	H	0.836548	-0.661933	-0.376516
H162	H	1.336548	-0.161933	0.123484
H163	H	0.836503	-0.542661	-0.376503
H164	H	1.336503	-0.042661	0.123497
H165	H	0.149909	-0.376089	-0.376580
H166	H	0.649909	0.123911	0.123420
H167	H	0.836699	-1.062771	-0.376591
H168	H	1.336699	-0.562771	0.123409
H169	H	0.982834	-0.229776	-1.064004
H170	H	1.482834	0.270224	-0.564004
H171	H	0.982818	-0.943435	-0.230664
H172	H	1.482818	-0.443435	0.269336
H173	H	0.982817	-0.229801	-0.944740
H174	H	1.482817	0.270199	-0.444740
H175	H	0.836650	-0.943502	-0.376567
H176	H	1.336650	-0.443502	0.123433
H177	H	0.269173	-0.376121	-0.376531
H178	H	0.769173	0.123879	0.123469
H179	H	0.982869	-1.062698	-0.230695
H180	H	1.482869	-0.562698	0.269305
H181	H	0.149909	-0.229819	-0.230773
H182	H	0.649909	0.270181	0.269227
H183	H	0.836665	-0.375920	-0.944615
H184	H	1.336665	0.124080	-0.444615
H185	H	0.982774	-0.229851	-0.663166
H186	H	1.482774	0.270149	-0.163166
H187	H	0.982767	-0.229887	-0.543902
H188	H	1.482767	0.270113	-0.043902
H189	H	0.836682	-0.375905	-1.063886
H190	H	1.336682	0.124095	-0.563886
H191	H	0.670010	-0.376203	-0.376384
H192	H	1.170010	0.123797	0.123616
H193	H	0.550746	-0.376174	-0.376431
H194	H	1.050746	0.123826	0.123569
H195	H	0.550747	-0.229902	-0.230630
H196	H	1.050747	0.270098	0.269370
H197	H	0.670017	-0.229916	-0.230588
H198	H	1.170017	0.270084	0.269412
H199	H	0.836619	-0.375976	-0.663045
H200	H	1.336619	0.124024	-0.163045
H201	H	0.982663	-0.542595	-0.230593
H202	H	1.482663	-0.042595	0.269407
