data_functionalizedCrystal
_audit_creation_method	'MofGen! by Chris Wilmer'
_symmetry_space_group_name_H-M	'P1'
_symmetry_Int_Tables_number	1
_symmetry_cell_setting	triclinic
loop_
_symmetry_equiv_pos_as_xyz
  x,y,z
_cell_length_a	14.519709
_cell_length_b	17.699083
_cell_length_c	16.176319
_cell_angle_alpha	89.992304
_cell_angle_beta	89.998204
_cell_angle_gamma	83.481580
loop_
_atom_site_label
_atom_site_type_symbol
_atom_site_fract_x
_atom_site_fract_y
_atom_site_fract_z
O1	O	1.223449	0.099215	-0.068641
O2	O	1.723449	0.599215	0.431359
O3	O	0.954923	0.110899	-0.068666
O4	O	1.454923	0.610899	0.431334
O5	O	1.096773	-0.005110	-0.068645
O6	O	1.596773	0.494890	0.431355
O7	O	1.081600	0.215225	-0.068661
O8	O	1.581600	0.715225	0.431339
O9	O	1.096753	-0.005118	0.068848
O10	O	1.596753	0.494882	0.568848
O11	O	0.954903	0.110892	0.068827
O12	O	1.454903	0.610892	0.568827
O13	O	1.223430	0.099208	0.068853
O14	O	1.723430	0.599208	0.568853
Cu15	Cu	1.089165	0.105049	0.081394
Cu16	Cu	1.589165	0.605049	0.581394
Cu17	Cu	1.089188	0.105058	-0.081208
Cu18	Cu	1.589188	0.605058	0.418792
O19	O	1.081580	0.215217	0.068832
O20	O	1.581580	0.715217	0.568832
C21	C	1.096219	-0.033312	0.000101
C22	C	1.596219	0.466688	0.500101
C23	C	1.094588	-0.117335	0.000101
C24	C	1.594588	0.382665	0.500101
C25	C	0.920556	0.110351	0.000077
C26	C	1.420556	0.610351	0.500077
C27	C	0.818181	0.108719	0.000068
C28	C	1.318181	0.608719	0.500068
C29	C	1.177851	-0.165718	0.000111
C30	C	1.677851	0.334282	0.500111
C31	C	1.176313	-0.244665	0.000103
C32	C	1.676313	0.255335	0.500103
C33	C	1.091511	-0.275229	0.000093
C34	C	1.591511	0.224771	0.500093
C35	C	1.008242	-0.226840	0.000081
C36	C	1.508242	0.273160	0.500081
C37	C	1.009781	-0.147894	0.000082
C38	C	1.509781	0.352106	0.500082
C39	C	1.002033	-0.545221	0.000074
C40	C	1.502033	-0.045221	0.500074
C41	C	1.000501	-0.624173	0.000075
C42	C	1.500501	-0.124173	0.500075
C43	C	1.168566	-0.641992	0.000094
C44	C	1.668566	-0.141992	0.500094
C45	C	1.170105	-0.563046	0.000096
C46	C	1.670105	-0.063046	0.500096
C47	C	1.086836	-0.514664	0.000080
C48	C	1.586836	-0.014664	0.500080
C49	C	1.088505	-0.429060	0.000086
C50	C	1.588505	0.070940	0.500086
C51	C	1.089841	-0.360831	0.000092
C52	C	1.589841	0.139169	0.500092
C53	C	0.443311	0.102712	0.000106
C54	C	0.943311	0.602712	0.500106
C55	C	0.547612	0.104380	0.000095
C56	C	1.047612	0.604380	0.500095
C57	C	0.630743	0.105716	0.000086
C58	C	1.130743	0.605716	0.500086
C59	C	0.735050	0.107384	0.000077
C60	C	1.235050	0.607384	0.500077
C61	C	1.257797	0.099756	0.000107
C62	C	1.757797	0.599756	0.500107
C63	C	1.360171	0.101388	0.000111
C64	C	1.860171	0.601388	0.500111
C65	C	1.082134	0.243420	0.000083
C66	C	1.582134	0.743420	0.500083
C67	C	1.083765	0.327442	0.000078
C68	C	1.583765	0.827442	0.500078
N69	N	1.089155	0.105043	0.195759
N70	N	1.589155	0.605043	0.695759
N71	N	1.089205	0.105059	-0.195573
N72	N	1.589205	0.605059	0.304427
C73	C	1.151985	0.053695	0.239033
C74	C	1.651985	0.553695	0.739033
C75	C	1.151990	0.053694	0.325580
C76	C	1.651990	0.553694	0.825580
C77	C	1.089168	0.105045	0.368852
C78	C	1.589168	0.605045	0.868852
C79	C	1.026332	0.156396	0.325572
C80	C	1.526332	0.656396	0.825572
C81	C	1.026323	0.156392	0.239027
C82	C	1.526323	0.656392	0.739027
C83	C	1.026363	0.156410	0.674601
C84	C	1.526363	0.656410	1.174601
C85	C	1.026378	0.156411	0.761152
C86	C	1.526378	0.656411	1.261152
C87	C	1.152030	0.053712	0.761154
C88	C	1.652030	0.553712	1.261154
C89	C	1.152022	0.053708	0.674608
C90	C	1.652022	0.553708	1.174608
C91	C	1.089182	0.105055	0.631336
C92	C	1.589182	0.605055	1.131336
C93	C	1.089177	0.105055	0.537492
C94	C	1.589177	0.605055	1.037492
C95	C	1.089178	0.105050	0.462694
C96	C	1.589178	0.605050	0.962694
H97	H	1.246907	-0.140840	0.000124
H98	H	1.746907	0.359160	0.500124
O99	O	1.249371	-0.689100	0.000064
O100	O	1.749371	-0.189100	0.500064
C101	C	1.229836	-0.765335	0.000077
C102	C	1.729836	-0.265335	0.500077
H103	H	1.157411	-0.768457	-0.025964
H104	H	1.657411	-0.268457	0.474036
H105	H	1.282929	-0.801022	-0.039836
H106	H	1.782929	-0.301022	0.460164
H107	H	1.233371	-0.788171	0.066038
H108	H	1.733371	-0.288171	0.566038
H109	H	0.941980	-0.108501	0.000075
H110	H	1.441980	0.391499	0.500075
H111	H	1.239159	-0.538166	0.000109
H112	H	1.739159	-0.038166	0.500109
H113	H	1.203146	0.011882	0.203806
H114	H	1.703146	0.511882	0.703806
O115	O	0.965384	0.206378	0.197025
O116	O	1.465384	0.706378	0.697025
C117	C	0.980187	0.281331	0.218170
C118	C	1.480187	0.781331	0.718170
H119	H	1.054020	0.281840	0.241952
H120	H	1.554020	0.781840	0.741952
H121	H	0.969484	0.319293	0.161247
H122	H	1.469484	0.819293	0.661247
H123	H	0.929026	0.303470	0.268407
H124	H	1.429026	0.803470	0.768407
H125	H	0.934231	-0.505837	0.000061
H126	H	1.434231	-0.005837	0.500061
O127	O	1.257110	-0.291772	0.000073
O128	O	1.757110	0.208228	0.500073
C129	C	1.237571	-0.368006	0.000082
C130	C	1.737571	0.131994	0.500082
H131	H	1.165144	-0.371125	-0.025955
H132	H	1.665144	0.128875	0.474045
H133	H	1.290661	-0.403692	-0.039835
H134	H	1.790661	0.096308	0.460165
H135	H	1.241111	-0.390846	0.066042
H136	H	1.741111	0.109154	0.566042
H137	H	1.203150	0.011882	0.360813
H138	H	1.703150	0.511882	0.860813
H139	H	1.203180	0.011896	0.639378
H140	H	1.703180	0.511896	1.139378
O141	O	0.925945	-0.256653	0.000107
O142	O	1.425945	0.243347	0.500107
C143	C	0.942439	-0.336708	0.000090
C144	C	1.442439	0.163292	0.500090
H145	H	1.014445	-0.355153	0.026127
H146	H	1.514445	0.144847	0.526127
H147	H	0.888179	-0.361023	0.040003
H148	H	1.388179	0.138977	0.540003
H149	H	0.938028	-0.358683	-0.065873
H150	H	1.438028	0.141317	0.434127
H151	H	1.203195	0.011899	0.796395
H152	H	1.703195	0.511899	1.296395
H153	H	0.931441	-0.649055	0.000068
H154	H	1.431441	-0.149055	0.500068
H155	H	0.975218	0.198229	0.796383
H156	H	1.475218	0.698229	1.296383
H157	H	0.975199	0.198220	0.639376
H158	H	1.475199	0.698220	1.139376
H159	H	0.975177	0.198204	0.360810
H160	H	1.475177	0.698204	0.860810
