data_functionalizedCrystal
_audit_creation_method	'MofGen! by Chris Wilmer'
_symmetry_space_group_name_H-M	'P1'
_symmetry_Int_Tables_number	1
_symmetry_cell_setting	triclinic
loop_
_symmetry_equiv_pos_as_xyz
  x,y,z
_cell_length_a	10.489741
_cell_length_b	16.992695
_cell_length_c	15.455313
_cell_angle_alpha	87.152573
_cell_angle_beta	92.705853
_cell_angle_gamma	87.603698
loop_
_atom_site_label
_atom_site_type_symbol
_atom_site_fract_x
_atom_site_fract_y
_atom_site_fract_z
O1	O	-1.708924	-0.107291	-0.072078
O2	O	-1.338633	-0.117680	-0.072091
O3	O	-1.522293	0.001665	-0.072078
O4	O	-1.525263	-0.226636	-0.072091
O5	O	-1.511788	-0.005131	0.072184
O6	O	-1.328127	-0.124476	0.072170
O7	O	-1.698418	-0.114087	0.072184
Cu8	Cu	-1.512313	-0.119902	0.085349
Cu9	Cu	-1.524737	-0.111865	-0.085257
O10	O	-1.514758	-0.233432	0.072170
C11	C	-1.285780	-0.120293	0.000038
C12	C	-1.143947	-0.117945	0.000033
C13	C	-1.513221	0.027501	0.000053
C14	C	-1.501826	0.114610	0.000052
C15	C	-1.751271	-0.111474	0.000053
C16	C	-1.893105	-0.113821	0.000052
C17	C	-1.069200	-0.042010	0.000045
C18	C	-0.985373	-0.074530	-0.071083
C19	C	-0.975051	-0.081249	0.071147
C20	C	-1.061993	-0.150494	-0.071155
C21	C	-1.051675	-0.157206	0.071139
C22	C	-0.967882	-0.189781	-0.000007
C23	C	-1.523830	-0.259268	0.000038
C24	C	-1.535225	-0.346377	0.000033
N25	N	-1.503584	-0.125555	0.205344
C26	C	-1.611775	0.164229	0.000057
C27	C	-1.601061	0.246077	0.000048
C28	C	-1.480396	0.278303	0.000041
C29	C	-1.370439	0.228677	0.000033
C30	C	-1.381155	0.146832	0.000036
C31	C	-1.435984	0.522152	0.000027
C32	C	-1.425276	0.604004	0.000028
C33	C	-1.655899	0.621398	0.000041
C34	C	-1.666604	0.539550	0.000049
C35	C	-1.556647	0.489931	0.000036
N36	N	-1.469442	0.361964	0.000035
N37	N	-1.567604	0.406272	0.000036
N38	N	-1.533476	-0.106206	-0.205252
C39	C	-1.581641	-0.074872	0.250744
C40	C	-1.575052	-0.079154	0.341551
C41	C	-1.490412	-0.134124	0.386957
C42	C	-1.412347	-0.184809	0.341551
C43	C	-1.418931	-0.180522	0.250745
C44	C	-1.461994	-0.152605	0.658536
C45	C	-1.455420	-0.156889	0.749348
C46	C	-1.618123	-0.051233	0.749343
C47	C	-1.624704	-0.046954	0.658535
C48	C	-1.546635	-0.097637	0.613137
N49	N	-1.483678	-0.138504	0.479777
N50	N	-1.553363	-0.093252	0.520319
H51	H	-1.113465	0.020419	-0.000040
N52	N	-0.909606	-0.272550	-0.000056
H53	H	-0.941439	-0.298587	-0.053808
H54	H	-0.813491	-0.270472	0.000489
H55	H	-1.710033	0.137997	0.000068
N56	N	-1.719652	0.299592	0.000061
H57	H	-1.716442	0.331423	0.053537
H58	H	-1.724184	0.336403	-0.053454
H59	H	-0.955943	-0.039567	-0.131215
N60	N	-1.334735	-0.235183	0.201773
H61	H	-1.280117	-0.270657	0.244315
H62	H	-1.389852	-0.268383	0.164082
H63	H	-1.272192	0.254922	0.000022
H64	H	-1.764862	0.513318	0.000055
N65	N	-1.112319	-0.189265	-0.150902
H66	H	-1.208455	-0.190590	-0.150430
H67	H	-1.087588	-0.158245	-0.204513
H68	H	-1.081135	-0.192143	0.131274
N69	N	-1.262578	0.093301	0.000034
H70	H	-1.214193	0.106254	-0.053445
H71	H	-1.206501	0.101243	0.053546
H72	H	-1.386492	-0.201655	0.786314
H73	H	-1.650569	-0.030113	0.213780
H74	H	-0.936898	-0.051938	0.131281
N75	N	-1.295125	0.638765	0.000018
H76	H	-1.227093	0.594913	0.000009
H77	H	-1.289564	0.674863	-0.053461
H78	H	-1.745420	0.661806	0.000049
N79	N	-1.659287	-0.024516	0.390519
H80	H	-1.713926	0.010944	0.347976
H81	H	-1.716013	-0.056701	0.428166
H82	H	-1.346449	0.481762	0.000018
H83	H	-1.693624	-0.002194	0.621568
N84	N	-1.702322	0.003430	0.798307
H85	H	-1.685312	-0.007624	0.862722
H86	H	-1.683060	0.059924	0.782446
H87	H	-1.398429	-0.193874	0.621580
H88	H	-1.343425	-0.229564	0.378525
