data_functionalizedCrystal
_audit_creation_method	'MofGen! by Chris Wilmer'
_symmetry_space_group_name_H-M	'P1'
_symmetry_Int_Tables_number	1
_symmetry_cell_setting	triclinic
loop_
_symmetry_equiv_pos_as_xyz
  x,y,z
_cell_length_a	14.519709
_cell_length_b	14.519709
_cell_length_c	10.268362
_cell_angle_alpha	89.993769
_cell_angle_beta	90.001032
_cell_angle_gamma	83.680145
loop_
_atom_site_label
_atom_site_type_symbol
_atom_site_fract_x
_atom_site_fract_y
_atom_site_fract_z
O1	O	1.223868	0.120892	-0.108133
O2	O	0.955391	0.135128	-0.108174
O3	O	1.096747	-0.006228	-0.108141
O4	O	1.082511	0.262249	-0.108166
O5	O	1.096735	-0.006234	0.108460
O6	O	0.955378	0.135123	0.108427
O7	O	1.223855	0.120886	0.108467
Cu8	Cu	1.089616	0.128004	0.128224
Cu9	Cu	1.089630	0.128011	-0.127931
O10	O	1.082498	0.262243	0.108434
C11	C	0.921025	0.134462	0.000122
C12	C	0.818643	0.132474	0.000107
C13	C	0.443748	0.125154	0.000167
C14	C	0.548056	0.127187	0.000150
C15	C	0.631192	0.128814	0.000135
C16	C	0.735507	0.130847	0.000121
C17	C	1.096078	-0.040591	0.000160
C18	C	1.094090	-0.142972	0.000160
C19	C	1.086770	-0.517868	0.000125
C20	C	1.088803	-0.413560	0.000135
C21	C	1.090430	-0.330423	0.000144
C22	C	1.092463	-0.226109	0.000152
C23	C	1.258221	0.121553	0.000169
C24	C	1.360602	0.123541	0.000175
C25	C	1.083168	0.296605	0.000131
C26	C	1.085156	0.398987	0.000122
N27	N	1.089612	0.127998	0.308390
N28	N	1.089641	0.128009	-0.308097
C29	C	1.089626	0.128009	0.574061
C30	C	1.089615	0.128006	0.426223
