data_functionalizedCrystal
_audit_creation_method	'MofGen! by Chris Wilmer'
_symmetry_space_group_name_H-M	'P1'
_symmetry_Int_Tables_number	1
_symmetry_cell_setting	triclinic
loop_
_symmetry_equiv_pos_as_xyz
  x,y,z
_cell_length_a	19.121063
_cell_length_b	19.121246
_cell_length_c	19.121175
_cell_angle_alpha	95.001691
_cell_angle_beta	94.951770
_cell_angle_gamma	84.997708
loop_
_atom_site_label
_atom_site_type_symbol
_atom_site_fract_x
_atom_site_fract_y
_atom_site_fract_z
Zn1	Zn	-0.252942	-1.082297	-0.454168
Zn2	Zn	0.247058	-0.582297	0.045832
Zn3	Zn	-0.365987	-1.072567	-0.341119
Zn4	Zn	0.134013	-0.572567	0.158881
Zn5	Zn	-0.252950	-0.959617	-0.331488
Zn6	Zn	0.247050	-0.459617	0.168512
Zn7	Zn	-0.375577	-0.959570	-0.454106
Zn8	Zn	0.124423	-0.459570	0.045894
O9	O	-0.311864	-1.018513	-0.395220
O10	O	0.188136	-0.518513	0.104780
O11	O	-0.263920	-1.179638	-0.443229
O12	O	0.236080	-0.679638	0.056771
O13	O	-0.346982	-1.053531	-0.241214
O14	O	0.153018	-0.553531	0.258786
O15	O	-0.154319	-0.979983	-0.343757
O16	O	0.345681	-0.479983	0.156243
O17	O	-0.346974	-1.172489	-0.360172
O18	O	0.153026	-0.672489	0.139828
O19	O	-0.154313	-1.070115	-0.433890
O20	O	0.345687	-0.570115	0.066110
O21	O	-0.263934	-0.970548	-0.234138
O22	O	0.236066	-0.470548	0.265862
O23	O	-0.273233	-0.860980	-0.343697
O24	O	0.226767	-0.360980	0.156303
O25	O	-0.363319	-0.979902	-0.552742
O26	O	0.136681	-0.479902	-0.052742
O27	O	-0.363327	-0.860945	-0.433783
O28	O	0.136673	-0.360945	0.066217
O29	O	-0.273219	-1.070069	-0.552788
O30	O	0.226781	-0.570069	-0.052788
O31	O	-0.465889	-1.053485	-0.360111
O32	O	0.034111	-0.553485	0.139889
O33	O	-0.472934	-0.970467	-0.443122
O34	O	0.027066	-0.470467	0.056878
C35	C	-0.319322	-0.835388	-0.387689
C36	C	0.180678	-0.335388	0.112311
C37	C	-0.322530	-0.757047	-0.384484
C38	C	0.177470	-0.257047	0.115516
C39	C	-0.280870	-0.723964	-0.426293
C40	C	0.219130	-0.223964	0.073707
C41	C	-0.283881	-0.650354	-0.423276
C42	C	0.216119	-0.150354	0.076724
C43	C	-0.328556	-0.609827	-0.378452
C44	C	0.171444	-0.109827	0.121548
C45	C	-0.370218	-0.642915	-0.336638
C46	C	0.129782	-0.142915	0.163362
C47	C	-0.367203	-0.716524	-0.339652
C48	C	0.132797	-0.216524	0.160348
C49	C	-0.339816	-0.387390	-0.367181
C50	C	0.160184	0.112610	0.132819
C51	C	-0.342830	-0.313776	-0.364172
C52	C	0.157170	0.186224	0.135828
C53	C	-0.256492	-0.321220	-0.450809
C54	C	0.243508	0.178780	0.049191
C55	C	-0.253484	-0.394830	-0.453822
C56	C	0.246516	0.105170	0.046178
C57	C	-0.295143	-0.427911	-0.412005
C58	C	0.204857	0.072089	0.087995
C59	C	-0.331637	-0.534586	-0.375369
C60	C	0.168363	-0.034586	0.124631
C61	C	-0.292058	-0.503151	-0.415086
C62	C	0.207942	-0.003151	0.084914
C63	C	-0.494985	-1.010935	-0.402671
C64	C	0.005015	-0.510935	0.097329
C65	C	-0.573323	-1.007759	-0.405885
C66	C	-0.073323	-0.507759	0.094115
C67	C	-0.606435	-1.049526	-0.364214
C68	C	-0.106435	-0.549526	0.135786
C69	C	-0.680043	-1.046543	-0.367241
C70	C	-0.180043	-0.546543	0.132759
C71	C	-0.720537	-1.001788	-0.411935
C72	C	-0.220537	-0.501788	0.088065
C73	C	-0.687420	-0.960019	-0.453610
C74	C	-0.187420	-0.460019	0.046390
C75	C	-0.613814	-0.963006	-0.450587
C76	C	-0.113814	-0.463006	0.049413
C77	C	-0.942964	-0.990608	-0.423228
C78	C	-0.442964	-0.490608	0.076772
C79	C	-1.016575	-0.987623	-0.426247
C80	C	-0.516575	-0.487623	0.073753
C81	C	-1.009193	-1.074148	-0.339878
C82	C	-0.509193	-0.574148	0.160122
C83	C	-0.935586	-1.077128	-0.336855
C84	C	-0.435586	-0.577128	0.163145
C85	C	-0.902475	-1.035361	-0.378533
C86	C	-0.402475	-0.535361	0.121467
C87	C	-0.795775	-0.998737	-0.415028
C88	C	-0.295775	-0.498737	0.084972
C89	C	-0.827238	-1.038417	-0.375443
C90	C	-0.327238	-0.538417	0.124557
C91	C	-0.128027	-1.026140	-0.387757
C92	C	0.371973	-0.526140	0.112243
C93	C	-0.049687	-1.029390	-0.384576
C94	C	0.450313	-0.529390	0.115424
C95	C	-0.319338	-1.026066	-0.579053
C96	C	0.180662	-0.526066	-0.079053
C97	C	-0.322523	-1.029284	-0.657391
C98	C	0.177477	-0.529284	-0.157391
C99	C	-0.304373	-0.202352	-0.402776
C100	C	0.195627	0.297648	0.097224
C101	C	-0.301170	-0.280693	-0.405981
C102	C	0.198830	0.219307	0.094019
C103	C	-0.280781	-0.987594	-0.690510
C104	C	0.219219	-0.487594	-0.190510
C105	C	-0.283780	-0.990615	-0.764118
C106	C	0.216220	-0.490615	-0.264118
C107	C	-0.328517	-1.035331	-0.804605
C108	C	0.171483	-0.535331	-0.304605
C109	C	-0.370263	-1.077024	-0.771481
C110	C	0.129737	-0.577024	-0.271481
C111	C	-0.367268	-1.073998	-0.697874
C112	C	0.132732	-0.573998	-0.197874
C113	C	-0.339728	-1.046625	-1.027032
C114	C	0.160272	-0.546625	-0.527032
C115	C	-0.342718	-1.049648	-1.100643
C116	C	0.157282	-0.549648	-0.600643
C117	C	-0.256236	-0.963238	-1.093275
C118	C	0.243764	-0.463238	-0.593275
C119	C	-0.253241	-0.960220	-1.019668
C120	C	0.246759	-0.460220	-0.519668
C121	C	-0.294990	-1.001909	-0.986550
C122	C	0.205010	-0.501909	-0.486550
C123	C	-0.331581	-1.038422	-0.879843
C124	C	0.168419	-0.538422	-0.379843
C125	C	-0.291929	-0.998814	-0.911313
C126	C	0.208071	-0.498814	-0.411313
C127	C	-0.304366	-1.011032	-0.212103
C128	C	0.195634	-0.511032	0.287897
C129	C	-0.300977	-1.007958	-0.133762
C130	C	0.199023	-0.507958	0.366238
H131	H	-0.379213	-0.280781	-0.327671
H132	H	0.120787	0.219219	0.172329
H133	H	-0.244348	-0.951185	-0.657551
H134	H	0.255652	-0.451185	-0.157551
O135	O	-0.248458	-0.955316	-0.872093
O136	O	0.251542	-0.455316	-0.372093
C137	C	-0.162961	-0.869962	-0.872543
C138	C	0.337039	-0.369962	-0.372543
C139	C	-0.212174	-0.919178	-0.917052
C140	C	0.287826	-0.419178	-0.417052
H141	H	-0.133600	-0.840742	-0.908874
H142	H	0.366400	-0.340742	-0.408874
H143	H	-0.195388	-0.830304	-0.837897
H144	H	0.304612	-0.330304	-0.337897
H145	H	-0.123421	-0.902448	-0.837899
H146	H	0.376579	-0.402448	-0.337899
H147	H	-0.251722	-0.886750	-0.951737
H148	H	0.248278	-0.386750	-0.451737
H149	H	-0.179700	-0.958838	-0.951652
H150	H	0.320300	-0.458838	-0.451652
H151	H	-0.368007	-1.074830	-0.912816
H152	H	0.131993	-0.574830	-0.412816
H153	H	-0.249792	-0.956663	-0.791080
H154	H	0.250208	-0.456663	-0.291080
H155	H	-0.406590	-0.609912	-0.300138
H156	H	0.093410	-0.109912	0.199862
O157	O	-0.581534	-0.922502	-0.491040
O158	O	-0.081534	-0.422502	0.008960
C159	C	-0.471409	-0.888728	-0.524630
C160	C	0.028591	-0.388728	-0.024630
C161	C	-0.507874	-0.934647	-0.478788
C162	C	-0.007874	-0.434647	0.021212
H163	H	-0.411849	-0.898520	-0.514730
H164	H	0.088151	-0.398520	-0.014730
H165	H	-0.487603	-0.902813	-0.582585
H166	H	0.012397	-0.402813	-0.082585
H167	H	-0.487787	-0.830810	-0.510478
H168	H	0.012213	-0.330810	-0.010478
H169	H	-0.491514	-0.992578	-0.492878
H170	H	0.008486	-0.492578	0.007122
H171	H	-0.491679	-0.920502	-0.420845
H172	H	0.008321	-0.420502	0.079155
O173	O	-0.407892	-1.114392	-0.665666
O174	O	0.092108	-0.614392	-0.165666
C175	C	-0.499252	-1.116503	-0.586778
C176	C	0.000748	-0.616503	-0.086778
C177	C	-0.453299	-1.070676	-0.623221
C178	C	0.046701	-0.570676	-0.123221
H179	H	-0.535965	-1.081178	-0.552441
H180	H	-0.035965	-0.581178	-0.052441
H181	H	-0.531793	-1.148969	-0.628326
H182	H	-0.031793	-0.648969	-0.128326
H183	H	-0.463978	-1.153298	-0.552550
H184	H	0.036022	-0.653298	-0.052550
H185	H	-0.488521	-1.033840	-0.657446
H186	H	0.011479	-0.533840	-0.157446
H187	H	-0.420752	-1.038258	-0.581637
H188	H	0.079248	-0.538258	-0.081637
H189	H	-0.217107	-0.427822	-0.490325
H190	H	0.282893	0.072178	0.009675
O191	O	-0.567028	-1.093043	-0.320892
O192	O	-0.067028	-0.593043	0.179108
C193	C	-0.479620	-1.191229	-0.311987
C194	C	0.020380	-0.691229	0.188013
C195	C	-0.524190	-1.141982	-0.361126
C196	C	-0.024190	-0.641982	0.138874
H197	H	-0.444986	-1.230818	-0.344498
H198	H	0.055014	-0.730818	0.155502
H199	H	-0.444974	-1.158822	-0.272374
H200	H	0.055026	-0.658822	0.227626
H201	H	-0.515948	-1.220535	-0.282710
H202	H	-0.015948	-0.720535	0.217290
H203	H	-0.487916	-1.112665	-0.390452
H204	H	0.012084	-0.612665	0.109548
H205	H	-0.558844	-1.174426	-0.400695
H206	H	-0.058844	-0.674426	0.099305
H207	H	-0.368012	-0.501581	-0.338873
H208	H	0.131988	-0.001581	0.161127
O209	O	-1.041470	-1.114702	-0.299473
O210	O	-0.541470	-0.614702	0.200527
C211	C	-1.151592	-1.148433	-0.265833
C212	C	-0.651592	-0.648433	0.234167
C213	C	-1.115130	-1.102472	-0.311637
C214	C	-0.615130	-0.602472	0.188363
H215	H	-1.211152	-1.138551	-0.275640
H216	H	-0.711152	-0.638551	0.224360
H217	H	-1.135302	-1.206367	-0.280009
H218	H	-0.635302	-0.706367	0.219991
H219	H	-1.135307	-1.134370	-0.207896
H220	H	-0.635307	-0.634370	0.292104
H221	H	-1.131397	-1.116473	-0.369587
H222	H	-0.631397	-0.616473	0.130413
H223	H	-1.131421	-1.044550	-0.297402
H224	H	-0.631421	-0.544550	0.202598
H225	H	-0.244493	-0.756956	-0.462796
H226	H	0.255507	-0.256956	0.037204
O227	O	-0.380182	-0.419554	-0.326492
O228	O	0.119818	0.080446	0.173508
C229	C	-0.382253	-0.498380	-0.235132
C230	C	0.117747	0.001620	0.264868
C231	C	-0.336451	-0.461982	-0.281155
C232	C	0.163549	0.038018	0.218845
H233	H	-0.346916	-0.532703	-0.198477
H234	H	0.153084	-0.032703	0.301523
H235	H	-0.414689	-0.456802	-0.202530
H236	H	0.085311	0.043198	0.297470
H237	H	-0.419071	-0.532621	-0.270360
H238	H	0.080929	-0.032621	0.229640
H239	H	-0.299592	-0.427744	-0.245981
H240	H	0.200408	0.072256	0.254019
H241	H	-0.304063	-0.503597	-0.313763
H242	H	0.195937	-0.003597	0.186237
H243	H	-0.794265	-1.074859	-0.339056
H244	H	-0.294265	-0.574859	0.160944
H245	H	-0.249959	-0.623422	-0.457323
H246	H	0.250041	-0.123422	0.042677
H247	H	-0.706999	-1.080554	-0.333307
H248	H	-0.206999	-0.580554	0.166693
O249	O	-0.407779	-0.748631	-0.299120
O250	O	0.092221	-0.248631	0.200880
C251	C	-0.525291	-0.764759	-0.270480
C252	C	-0.025291	-0.264759	0.229520
C253	C	-0.479425	-0.728367	-0.316443
C254	C	0.020575	-0.228367	0.183557
H255	H	-0.583225	-0.748378	-0.284459
H256	H	-0.083225	-0.248378	0.215541
H257	H	-0.515522	-0.824336	-0.280338
H258	H	-0.015522	-0.324336	0.219662
H259	H	-0.511073	-0.748467	-0.212572
H260	H	-0.011073	-0.248467	0.287428
H261	H	-0.493615	-0.744602	-0.374366
H262	H	0.006385	-0.244602	0.125634
H263	H	-0.489200	-0.668797	-0.306525
H264	H	0.010800	-0.168797	0.193475
O265	O	-0.216125	-0.289004	-0.491458
O266	O	0.283875	0.210996	0.008542
C267	C	-0.214061	-0.210245	-0.582878
C268	C	0.285939	0.289755	-0.082878
C269	C	-0.259863	-0.246670	-0.536878
C270	C	0.240137	0.253330	-0.036878
H271	H	-0.249405	-0.176021	-0.619621
H272	H	0.250595	0.323979	-0.119621
H273	H	-0.177271	-0.175927	-0.547703
H274	H	0.322729	0.324073	-0.047703
H275	H	-0.181594	-0.251867	-0.615398
H276	H	0.318406	0.248133	-0.115398
H277	H	-0.292373	-0.205097	-0.504350
H278	H	0.207627	0.294903	-0.004350
H279	H	-0.296608	-0.281002	-0.572091
H280	H	0.203392	0.218998	-0.072091
O281	O	-0.248766	-0.542546	-0.458707
O282	O	0.251234	-0.042546	0.041293
C283	C	-0.239909	-0.630005	-0.556869
C284	C	0.260091	-0.130005	-0.056869
C285	C	-0.289015	-0.585413	-0.507525
C286	C	0.210985	-0.085413	-0.007525
H287	H	-0.272429	-0.664685	-0.596341
H288	H	0.227571	-0.164685	-0.096341
H289	H	-0.210663	-0.593754	-0.586294
H290	H	0.289337	-0.093754	-0.086294
H291	H	-0.200268	-0.664626	-0.524464
H292	H	0.299732	-0.164626	-0.024464
H293	H	-0.328697	-0.550787	-0.539877
H294	H	0.171303	-0.050787	-0.039877
H295	H	-0.318210	-0.621704	-0.478097
H296	H	0.181790	-0.121704	0.021903
O297	O	-0.380296	-1.087200	-0.994980
O298	O	0.119704	-0.587200	-0.494980
C299	C	-0.466405	-1.173211	-1.010063
C300	C	0.033595	-0.673211	-0.510063
C301	C	-0.420490	-1.127303	-1.046455
C302	C	0.079510	-0.627303	-0.546455
H303	H	-0.498925	-1.205635	-1.051663
H304	H	0.001075	-0.705635	-0.551663
H305	H	-0.431171	-1.210036	-0.975830
H306	H	0.068829	-0.710036	-0.475830
H307	H	-0.503149	-1.137903	-0.975744
H308	H	-0.003149	-0.637903	-0.475744
H309	H	-0.383740	-1.162556	-1.080809
H310	H	0.116260	-0.662556	-0.580809
H311	H	-0.455766	-1.090472	-1.080645
H312	H	0.044234	-0.590472	-0.580645
H313	H	-0.902617	-1.113570	-0.300461
H314	H	-0.402617	-0.613570	0.199539
O315	O	-1.055807	-0.944135	-0.469732
O316	O	-0.555807	-0.444135	0.030268
C317	C	-1.055367	-0.858609	-0.555059
C318	C	-0.555367	-0.358609	-0.055059
C319	C	-1.010852	-0.907835	-0.505859
C320	C	-0.510852	-0.407835	-0.005859
H321	H	-1.019039	-0.829236	-0.584270
H322	H	-0.519039	-0.329236	-0.084270
H323	H	-1.089949	-0.891032	-0.594720
H324	H	-0.589949	-0.391032	-0.094720
H325	H	-1.090074	-0.819076	-0.522566
H326	H	-0.590074	-0.319076	-0.022566
H327	H	-0.976104	-0.947377	-0.538294
H328	H	-0.476104	-0.447377	-0.038294
H329	H	-0.976315	-0.875366	-0.466196
H330	H	-0.476315	-0.375366	0.033804
O331	O	-0.910778	-0.950136	-0.463786
O332	O	-0.410778	-0.450136	0.036214
C333	C	-0.831880	-0.947843	-0.555107
C334	C	-0.331880	-0.447843	-0.055107
C335	C	-0.868299	-0.993766	-0.509230
C336	C	-0.368299	-0.493766	-0.009230
H337	H	-0.797516	-0.983098	-0.591849
H338	H	-0.297516	-0.483098	-0.091849
H339	H	-0.873442	-0.915358	-0.587614
H340	H	-0.373442	-0.415358	-0.087614
H341	H	-0.797681	-0.911063	-0.519778
H342	H	-0.297681	-0.411063	-0.019778
H343	H	-0.902495	-1.030586	-0.544506
H344	H	-0.402495	-0.530586	-0.044506
H345	H	-0.826701	-1.026202	-0.476717
H346	H	-0.326701	-0.526202	0.023283
O347	O	-0.835036	-0.955163	-0.458399
O348	O	-0.335036	-0.455163	0.041601
C349	C	-0.863963	-0.835723	-0.488479
C350	C	-0.363963	-0.335723	0.011521
C351	C	-0.819445	-0.884989	-0.439322
C352	C	-0.319445	-0.384989	0.060678
H353	H	-0.851384	-0.778975	-0.473064
H354	H	-0.351384	-0.278975	0.026936
H355	H	-0.851253	-0.850918	-0.545241
H356	H	-0.351253	-0.350918	-0.045241
H357	H	-0.922253	-0.840804	-0.483495
H358	H	-0.422253	-0.340804	0.016505
H359	H	-0.761141	-0.879933	-0.444244
H360	H	-0.261141	-0.379933	0.055756
H361	H	-0.832214	-0.869780	-0.382580
H362	H	-0.332214	-0.369780	0.117420
H363	H	-0.720396	-0.923582	-0.490005
H364	H	-0.220396	-0.423582	0.009995
O365	O	-0.209767	-0.916722	-0.980446
O366	O	0.290233	-0.416722	-0.480446
C367	C	-0.124266	-0.831373	-0.980908
C368	C	0.375734	-0.331373	-0.480908
C369	C	-0.173487	-0.880586	-1.025411
C370	C	0.326513	-0.380586	-0.525411
H371	H	-0.094910	-0.802155	-1.017244
H372	H	0.405090	-0.302155	-0.517244
H373	H	-0.156688	-0.791713	-0.946258
H374	H	0.343312	-0.291713	-0.446258
H375	H	-0.084724	-0.863861	-0.946269
H376	H	0.415276	-0.363861	-0.446269
H377	H	-0.213038	-0.848156	-1.060091
H378	H	0.286962	-0.348156	-0.560091
H379	H	-0.141020	-0.920247	-1.060016
H380	H	0.358980	-0.420247	-0.560016
H381	H	-0.222247	-0.929296	-1.120247
H382	H	0.277753	-0.429296	-0.620247
H383	H	-0.406693	-1.113429	-0.804451
H384	H	0.093307	-0.613429	-0.304451
H385	H	-0.379149	-1.086065	-1.133606
H386	H	0.120851	-0.586065	-0.633606
