data_functionalizedCrystal
_audit_creation_method	'MofGen! by Chris Wilmer'
_symmetry_space_group_name_H-M	'P1'
_symmetry_Int_Tables_number	1
_symmetry_cell_setting	triclinic
loop_
_symmetry_equiv_pos_as_xyz
  x,y,z
_cell_length_a	15.995350
_cell_length_b	12.503572
_cell_length_c	14.044220
_cell_angle_alpha	86.156832
_cell_angle_beta	91.659374
_cell_angle_gamma	86.485305
loop_
_atom_site_label
_atom_site_type_symbol
_atom_site_fract_x
_atom_site_fract_y
_atom_site_fract_z
O1	O	1.124525	-0.089231	-0.116702
O2	O	1.624525	0.410769	0.383298
O3	O	0.881878	-0.089254	-0.131788
O4	O	1.381878	0.410746	0.368212
O5	O	0.999559	-0.089232	0.013739
O6	O	1.499559	0.410768	0.513739
O7	O	1.006844	-0.089253	-0.262229
O8	O	1.506844	0.410747	0.237771
O9	O	0.990710	0.089408	0.002777
O10	O	1.490710	0.589408	0.502777
O11	O	0.873029	0.089386	-0.142751
O12	O	1.373029	0.589386	0.357249
O13	O	1.115676	0.089409	-0.127664
O14	O	1.615676	0.589409	0.372336
Cu15	Cu	0.993545	0.105709	-0.136208
Cu16	Cu	1.493545	0.605709	0.363792
Cu17	Cu	1.004010	-0.105554	-0.123244
Cu18	Cu	1.504010	0.394446	0.376756
O19	O	0.997995	0.089387	-0.273191
O20	O	1.497995	0.589387	0.226809
C21	C	0.846212	0.000064	-0.136645
C22	C	1.346212	0.500064	0.363355
C23	C	0.753123	0.000055	-0.134775
C24	C	1.253123	0.500055	0.365225
N25	N	0.986190	0.254300	-0.145326
N26	N	1.486190	0.754300	0.354674
N27	N	1.011370	-0.254145	-0.114118
N28	N	1.511370	0.245855	0.385882
C29	C	0.414873	0.000078	-0.128061
C30	C	0.914873	0.500078	0.371939
C31	C	0.454546	0.000484	-0.024443
C32	C	0.954546	0.500484	0.475557
C33	C	0.551396	0.000074	-0.026288
C34	C	1.051396	0.500074	0.473712
C35	C	0.582682	0.000067	-0.131391
C36	C	1.082682	0.500067	0.368609
C37	C	0.550467	-0.101944	-0.176251
C38	C	1.050467	0.398056	0.323749
C39	C	0.453640	-0.102022	-0.173643
C40	C	0.953640	0.397978	0.326357
C41	C	0.443398	0.101125	-0.188250
C42	C	0.943398	0.601125	0.311750
C43	C	0.540276	0.102466	-0.188308
C44	C	1.040276	0.602466	0.311692
C45	C	0.677521	0.000058	-0.133279
C46	C	1.177521	0.500058	0.366721
C47	C	0.320034	0.000081	-0.126176
C48	C	0.820034	0.500081	0.373824
C49	C	1.151342	0.000089	-0.122807
C50	C	1.651342	0.500089	0.377193
C51	C	1.244432	0.000090	-0.124677
C52	C	1.744432	0.500090	0.375323
C53	C	0.991946	0.000088	0.043572
C54	C	1.491946	0.500088	0.543572
C55	C	0.982435	0.000088	0.148798
C56	C	1.482435	0.500088	0.648798
C57	C	0.975372	0.473413	-0.158747
C58	C	1.475372	0.973413	0.341253
C59	C	1.022186	0.526749	-0.100701
C60	C	1.522186	1.026749	0.399299
C61	C	1.016166	0.648671	-0.108168
C62	C	1.516166	1.148671	0.391832
C63	C	0.981391	0.351480	-0.151281
C64	C	1.481391	0.851480	0.348719
C65	C	1.005609	0.000065	-0.303024
C66	C	1.505609	0.500065	0.196976
C67	C	1.015120	0.000057	-0.408250
C68	C	1.515120	0.500057	0.091750
C69	C	0.965048	0.000071	0.341460
C70	C	1.465048	0.500071	0.841460
C71	C	1.032504	0.000074	0.399093
C72	C	1.532504	0.500074	0.899093
C73	C	1.022829	0.000065	0.506297
C74	C	1.522829	0.500065	1.006297
C75	C	0.974721	0.000081	0.234246
C76	C	1.474721	0.500081	0.734246
H77	H	0.573201	0.073201	0.009407
H78	H	1.073201	0.573201	0.509407
H79	H	0.930777	0.519312	-0.214048
H80	H	1.430777	1.019312	0.285952
H81	H	1.097524	0.000008	0.367926
H82	H	1.597524	0.500008	0.867926
H83	H	0.429305	0.073642	0.012496
H84	H	0.929305	0.573642	0.512496
H85	H	0.435475	-0.072263	0.021259
H86	H	0.935475	0.427737	0.521259
H87	H	1.066785	0.480844	-0.045397
H88	H	1.566785	0.980844	0.454603
H89	H	0.436325	-0.178274	-0.131684
H90	H	0.936325	0.321726	0.368316
H91	H	0.579860	-0.073174	0.018662
H92	H	1.079860	0.426826	0.518662
H93	H	0.427305	-0.106656	-0.249451
H94	H	0.927305	0.393344	0.250549
H95	H	0.900036	0.000063	0.372630
H96	H	1.400036	0.500063	0.872630
H97	H	0.570547	-0.105743	-0.253235
H98	H	1.070547	0.394257	0.246765
H99	H	0.416502	0.178448	-0.159112
H100	H	0.916502	0.678448	0.340888
H101	H	0.579949	-0.177859	-0.136087
H102	H	1.079949	0.322141	0.363913
H103	H	0.561067	0.177934	-0.155622
H104	H	1.061067	0.677934	0.344378
H105	H	0.561060	0.108623	-0.265331
H106	H	1.061060	0.608623	0.234669
H107	H	0.417310	0.101810	-0.264707
H108	H	0.917310	0.601810	0.235293
