data_functionalizedCrystal
_audit_creation_method	'MofGen! by Chris Wilmer'
_symmetry_space_group_name_H-M	'P1'
_symmetry_Int_Tables_number	1
_symmetry_cell_setting	triclinic
loop_
_symmetry_equiv_pos_as_xyz
  x,y,z
_cell_length_a	12.759400
_cell_length_b	19.121274
_cell_length_c	12.759393
_cell_angle_alpha	87.582925
_cell_angle_beta	89.968436
_cell_angle_gamma	92.425962
loop_
_atom_site_label
_atom_site_type_symbol
_atom_site_fract_x
_atom_site_fract_y
_atom_site_fract_z
Zn1	Zn	-0.486766	-1.073755	-0.525562
Zn2	Zn	-0.662480	-1.073684	-0.349887
Zn3	Zn	-0.479321	-0.956304	-0.357386
Zn4	Zn	-0.654903	-0.956296	-0.533008
O5	O	-0.570867	-1.015010	-0.441461
O6	O	-0.516361	-1.172027	-0.496004
O7	O	-0.638239	-1.058087	-0.203862
O8	O	-0.333289	-0.971917	-0.379717
O9	O	-0.645458	-1.171975	-0.366936
O10	O	-0.338759	-1.058207	-0.503275
O11	O	-0.503672	-0.971848	-0.209372
O12	O	-0.496325	-0.858022	-0.386937
O13	O	-0.632544	-0.971904	-0.679040
O14	O	-0.625325	-0.858016	-0.515966
O15	O	-0.509014	-1.058200	-0.673570
O16	O	-0.808494	-1.058080	-0.374156
O17	O	-0.802927	-0.971835	-0.508695
C18	C	-0.559196	-0.832536	-0.453074
C19	C	-0.554228	-0.754472	-0.458067
C20	C	-0.618999	-0.717768	-0.393114
C21	C	-0.614331	-0.644420	-0.397819
C22	C	-0.544887	-0.607776	-0.467473
C23	C	-0.480114	-0.644486	-0.532433
C24	C	-0.484787	-0.717833	-0.527732
C25	C	-0.527424	-0.386316	-0.485038
C26	C	-0.522753	-0.312964	-0.489731
C27	C	-0.656972	-0.312903	-0.355118
C28	C	-0.661635	-0.386251	-0.350419
C29	C	-0.596866	-0.422954	-0.415383
C30	C	-0.540112	-0.532802	-0.472282
C31	C	-0.601647	-0.497927	-0.410579
C32	C	-0.843832	-1.014968	-0.441442
C33	C	-0.960612	-1.015014	-0.441464
C34	C	-1.018341	-1.059972	-0.371481
C35	C	-1.128067	-1.060015	-0.371511
C36	C	-1.122326	-0.970137	-0.511510
C37	C	-1.012602	-0.970098	-0.511485
C38	C	-1.021656	-1.111860	-0.290651
C39	C	-1.131383	-1.111903	-0.290680
C40	C	-0.296838	-1.015071	-0.441502
C41	C	-0.180063	-1.015097	-0.441520
C42	C	-0.570765	-1.015059	-0.715491
C43	C	-0.570721	-1.015080	-0.832267
C44	C	-0.582571	-0.198196	-0.429789
C45	C	-0.587523	-0.276260	-0.424778
C46	C	-0.506393	-1.060021	-0.884281
C47	C	-0.506356	-1.060037	-0.994005
C48	C	-0.634984	-0.970171	-0.999688
C49	C	-0.635014	-0.970151	-0.889968
C50	C	-0.432133	-1.111907	-0.881001
C51	C	-0.432097	-1.111923	-0.990724
C52	C	-0.570897	-1.015001	-0.168494
C53	C	-0.570653	-1.015116	-0.051711
H54	H	-0.718183	-0.416081	-0.293698
H55	H	-0.687393	-0.933553	-0.847622
H56	H	-0.986465	-1.092390	-0.214565
O57	O	-1.180733	-1.180348	-0.325015
H58	H	-1.118162	-1.216604	-0.343188
H59	H	-1.164670	-0.933569	-0.568519
H60	H	-0.464600	-1.163562	-0.843673
H61	H	-0.432044	-0.747717	-0.580623
H62	H	-0.675544	-0.747598	-0.336390
O63	O	-0.986689	-1.183884	-0.315004
H64	H	-1.016527	-1.198020	-0.393356
O65	O	-0.323130	-1.092630	-0.842807
H66	H	-0.323223	-1.092636	-0.755817
H67	H	-0.353545	-1.092461	-1.026012
H68	H	-0.457362	-1.166318	-1.017036
H69	H	-0.687327	-0.933589	-1.046682
O70	O	-0.684177	-0.604829	-0.327750
H71	H	-0.733237	-0.642631	-0.278513
H72	H	-0.709705	-0.283011	-0.302230
O73	O	-0.447858	-0.273437	-0.564869
H74	H	-0.403613	-0.311280	-0.609262
H75	H	-0.483569	-0.502959	-0.528992
O76	O	-0.457550	-0.425900	-0.555082
H77	H	-0.408465	-0.388095	-0.604291
O78	O	-0.405205	-0.604964	-0.607551
H79	H	-0.450155	-0.571553	-0.663058
O80	O	-0.676537	-0.537449	-0.335449
H81	H	-0.758124	-0.523379	-0.354220
O82	O	-0.950331	-0.921602	-0.586954
H83	H	-1.004919	-0.890368	-0.635632
H84	H	-1.160317	-1.097372	-0.210226
