data_functionalizedCrystal
_audit_creation_method	'MofGen! by Chris Wilmer'
_symmetry_space_group_name_H-M	'P1'
_symmetry_Int_Tables_number	1
_symmetry_cell_setting	triclinic
loop_
_symmetry_equiv_pos_as_xyz
  x,y,z
_cell_length_a	16.625547
_cell_length_b	21.295417
_cell_length_c	16.625527
_cell_angle_alpha	89.910215
_cell_angle_beta	89.935872
_cell_angle_gamma	90.029639
loop_
_atom_site_label
_atom_site_type_symbol
_atom_site_fract_x
_atom_site_fract_y
_atom_site_fract_z
Zn1	Zn	1.232953	-0.250252	-0.455979
Zn2	Zn	1.232747	-0.355631	-0.321137
Zn3	Zn	1.098022	-0.250379	-0.321150
Zn4	Zn	1.098068	-0.355487	-0.455917
O5	O	1.165448	-0.302937	-0.388546
O6	O	1.345758	-0.264238	-0.438113
O7	O	1.214770	-0.341783	-0.208306
O8	O	1.115988	-0.162273	-0.339066
O9	O	1.345606	-0.341659	-0.339045
O10	O	1.215121	-0.162179	-0.438125
O11	O	1.115788	-0.264455	-0.208315
O12	O	0.985196	-0.264315	-0.339006
O13	O	1.116067	-0.341414	-0.568758
O14	O	0.985230	-0.341538	-0.438019
O15	O	1.215166	-0.264098	-0.568804
O16	O	1.214814	-0.443701	-0.338984
O17	O	1.115866	-0.443596	-0.438007
C18	C	0.955957	-0.302925	-0.388508
C19	C	0.866336	-0.302935	-0.388510
C20	C	0.793553	-0.302936	-0.388520
C21	C	0.702245	-0.302940	-0.388541
C22	C	0.629468	-0.302945	-0.388561
C23	C	0.538154	-0.302950	-0.388580
C24	C	1.165345	-0.466489	-0.388505
C25	C	1.165375	-0.536457	-0.388514
C26	C	1.216964	-0.569218	-0.440131
C27	C	1.216992	-0.634960	-0.440151
C28	C	1.165440	-0.667940	-0.388540
C29	C	1.113841	-0.635171	-0.336919
C30	C	1.113808	-0.569430	-0.336907
N31	N	1.159300	-0.771258	-0.317974
N32	N	1.159336	-0.833710	-0.317988
C33	C	1.165534	-0.866014	-0.388576
N34	N	1.171711	-0.833508	-0.459151
N35	N	1.171679	-0.771051	-0.459136
C36	C	1.165469	-0.739225	-0.388548
C37	C	1.217157	-0.970060	-0.440219
C38	C	1.217180	-1.035804	-0.440240
C39	C	1.114033	-1.036014	-0.337001
C40	C	1.114006	-0.970271	-0.336987
C41	C	1.165572	-0.937299	-0.388595
C42	C	1.375756	-0.302950	-0.388584
C43	C	1.465378	-0.302955	-0.388601
C44	C	1.165644	-0.302726	-0.598855
C45	C	1.165728	-0.302636	-0.688477
C46	C	1.165573	-0.138747	-0.388604
C47	C	1.165626	-0.068779	-0.388629
C48	C	1.165298	-0.303103	-0.179054
C49	C	1.165370	-0.303016	-0.089434
C50	C	1.165670	-0.302707	0.238741
C51	C	1.165589	-0.302795	0.147433
C52	C	1.165520	-0.302862	0.074657
C53	C	1.165439	-0.302949	-0.016657
H54	H	1.258950	-0.542373	-0.482155
H55	H	1.071865	-0.662027	-0.294899
H56	H	1.259143	-0.943213	-0.482244
H57	H	1.071797	-0.542755	-0.294873
H58	H	1.259189	-1.062477	-0.482276
H59	H	1.258995	-0.661639	-0.482193
H60	H	1.072053	-1.062865	-0.294983
H61	H	1.072000	-0.943596	-0.294952
