data_functionalizedCrystal
_audit_creation_method	'MofGen! by Chris Wilmer'
_symmetry_space_group_name_H-M	'P1'
_symmetry_Int_Tables_number	1
_symmetry_cell_setting	triclinic
loop_
_symmetry_equiv_pos_as_xyz
  x,y,z
_cell_length_a	18.426585
_cell_length_b	14.560438
_cell_length_c	14.560438
_cell_angle_alpha	59.997876
_cell_angle_beta	90.001817
_cell_angle_gamma	59.999703
loop_
_atom_site_label
_atom_site_type_symbol
_atom_site_fract_x
_atom_site_fract_y
_atom_site_fract_z
Zr1	Zr	-0.095259	1.005345	0.884685
O2	O	-0.211142	1.196959	0.738020
O3	O	-0.059733	0.813734	0.929654
O4	O	-0.211141	1.005352	0.929633
O5	O	0.059696	1.005334	0.738049
O6	O	-0.211142	1.005355	1.080771
O7	O	-0.059734	1.005341	0.738041
O8	O	0.059699	0.662584	1.080809
O9	O	-0.211145	1.348105	0.738011
O10	O	-0.044584	0.892547	1.061616
O11	O	0.044546	0.892540	0.948829
O12	O	-0.133717	1.118146	0.948803
O13	O	-0.044586	1.118140	0.836017
Zr14	Zr	0.095218	1.005339	1.125746
Zr15	Zr	-0.095261	1.005349	1.125733
Zr16	Zr	0.095219	1.005335	0.884698
Zr17	Zr	-0.095263	1.246405	0.884671
Zr18	Zr	0.095222	0.764279	1.125760
O19	O	0.059692	1.196950	1.080777
O20	O	-0.211144	1.196965	1.080759
O21	O	0.059694	1.196945	0.738038
O22	O	0.211101	0.813725	1.272411
O23	O	-0.059735	0.813739	1.272393
O24	O	0.211103	0.813719	0.929672
O25	O	-0.059738	1.005350	1.272382
O26	O	0.211100	1.005332	1.080798
O27	O	0.211100	1.005329	0.929660
O28	O	0.059693	1.005343	1.272390
O29	O	-0.211146	1.348108	0.929612
O30	O	0.211105	0.662576	1.080819
O31	O	0.211103	0.662579	1.272420
O32	O	0.059698	0.662588	1.272411
O33	O	-0.059739	1.348097	0.738021
O34	O	-0.059741	1.348100	0.929622
O35	O	0.133676	0.892538	1.061628
O36	O	0.044545	0.892544	1.174414
O37	O	-0.044588	1.118144	1.061602
O38	O	0.044543	1.118137	0.948815
C39	C	-0.000016	0.703813	1.005234
C40	C	-0.000015	0.601477	1.005240
C41	C	0.065774	0.373983	1.088477
C42	C	0.065779	0.470118	1.088505
C43	C	-0.065822	0.636701	0.921949
C44	C	-0.065829	0.540566	0.921927
C45	C	-0.238280	1.005355	1.005200
C46	C	-0.319143	1.005359	1.005195
C47	C	-0.615227	1.005320	1.005237
C48	C	-0.532846	1.005325	1.005228
C49	C	-0.467188	1.005339	1.005215
C50	C	-0.384801	1.005345	1.005207
C51	C	0.238239	1.005329	1.005231
C52	C	0.319102	1.005325	1.005236
C53	C	-0.000019	1.005337	0.703701
C54	C	-0.000018	1.005335	0.601370
C55	C	-0.000025	1.306871	1.005197
C56	C	-0.000026	1.409207	1.005191
C57	C	0.046505	0.887577	0.612178
C58	C	0.046505	0.887583	0.516023
C59	C	-0.046547	1.123116	0.398255
C60	C	-0.046542	1.123109	0.494409
C61	C	-0.000022	1.005347	1.306730
C62	C	-0.000023	1.005349	1.409061
C63	C	-0.000018	0.703818	1.306748
C64	C	-0.000017	0.601484	1.409086
C65	C	0.238244	0.703800	1.005250
C66	C	0.319108	0.601460	1.005261
C67	C	0.238242	0.703805	1.306764
C68	C	0.319106	0.601467	1.409107
C69	C	-0.238283	1.306879	0.703667
C70	C	-0.319147	1.409217	0.601324
C71	C	-0.000023	1.306866	0.703683
C72	C	-0.000024	1.409200	0.601345
C73	C	-0.238285	1.306884	1.005182
C74	C	-0.319149	1.409224	1.005170
C75	C	0.403616	0.553398	1.064146
C76	C	0.479604	0.457252	1.064153
C77	C	0.471083	0.409163	1.005280
C78	C	0.386566	0.457234	0.946388
C79	C	0.310580	0.553385	0.946375
C80	C	0.310555	0.553411	1.516052
C81	C	0.386528	0.457266	1.612223
C82	C	0.471051	0.409172	1.601446
C83	C	0.479600	0.457238	1.494490
C84	C	0.403628	0.553387	1.398322
C85	C	-0.310596	1.457285	0.494379
C86	C	-0.386569	1.553460	0.398208
C87	C	-0.471092	1.601558	0.408985
C88	C	-0.479641	1.553487	0.515941
C89	C	-0.403669	1.457320	0.612110
C90	C	-0.310600	1.457283	1.064054
C91	C	-0.386573	1.553430	1.064065
C92	C	-0.471096	1.601523	1.005185
C93	C	-0.479644	1.553455	0.946299
C94	C	-0.403671	1.457303	0.946295
C95	C	-0.046539	0.553406	1.398287
C96	C	-0.046541	0.457260	1.494448
C97	C	0.046508	0.457274	1.612202
C98	C	0.046504	0.553425	1.516043
H99	H	0.119355	0.267028	1.156277
H100	H	-0.084425	1.219008	0.485599
F101	F	0.377411	0.406125	1.726042
F102	F	0.096022	0.762232	0.726012
H103	H	-0.379596	1.592557	1.112015
F104	F	0.096025	0.762248	0.527535
F105	F	0.551963	0.306828	1.005304
H106	H	0.241773	0.592504	0.898428
F107	F	0.220607	0.604584	1.527546
F108	F	0.135812	0.432620	1.177151
F109	F	-0.096060	1.248452	0.284415
H110	H	-0.548472	1.592627	0.898360
F111	F	-0.377452	1.604600	0.284389
H112	H	-0.119396	0.743662	0.854158
F113	F	-0.551942	1.703907	0.306622
F114	F	0.412705	0.604558	1.126815
F115	F	-0.096058	0.406098	1.482948
F116	F	-0.569604	1.604688	0.527392
H117	H	-0.410642	1.418185	0.699186
F118	F	-0.135870	0.578062	0.833281
H119	H	0.084385	0.418131	1.699296
F120	F	0.377511	0.406039	0.883736
F121	F	0.551901	0.306839	1.703809
F122	F	0.569544	0.406105	1.126840
H123	H	0.548429	0.418066	1.485733
H124	H	-0.532950	1.679816	1.005197
H125	H	0.410602	0.592502	1.311246
F126	F	-0.220648	1.406110	0.482885
H127	H	-0.241784	1.418141	1.112001
F128	F	0.096018	0.604601	1.527539
H129	H	-0.410645	1.418184	0.898340
H130	H	-0.084429	0.592544	1.311202
