data_functionalizedCrystal
_audit_creation_method	'MofGen! by Chris Wilmer'
_symmetry_space_group_name_H-M	'P1'
_symmetry_Int_Tables_number	1
_symmetry_cell_setting	triclinic
loop_
_symmetry_equiv_pos_as_xyz
  x,y,z
_cell_length_a	18.215407
_cell_length_b	19.805399
_cell_length_c	18.215405
_cell_angle_alpha	90.030649
_cell_angle_beta	89.977671
_cell_angle_gamma	89.986379
loop_
_atom_site_label
_atom_site_type_symbol
_atom_site_fract_x
_atom_site_fract_y
_atom_site_fract_z
Zn1	Zn	1.125045	-0.382653	0.293041
Zn2	Zn	1.458378	-0.049319	0.626375
Zn3	Zn	1.791711	0.284014	0.959708
Zn4	Zn	1.124961	-0.269461	0.416113
Zn5	Zn	1.458294	0.063872	0.749446
Zn6	Zn	1.791628	0.397205	1.082779
Zn7	Zn	1.001985	-0.269484	0.293059
Zn8	Zn	1.335319	0.063849	0.626393
Zn9	Zn	1.668652	0.397183	0.959726
Zn10	Zn	1.001943	-0.382615	0.416065
Zn11	Zn	1.335276	-0.049281	0.749399
Zn12	Zn	1.668610	0.284052	1.082732
O13	O	1.063484	-0.326053	0.354570
O14	O	1.396817	0.007280	0.687903
O15	O	1.730150	0.340614	1.021236
O16	O	1.228018	-0.367644	0.309380
O17	O	1.561351	-0.034311	0.642713
O18	O	1.894685	0.299022	0.976046
O19	O	1.108631	-0.174748	0.399817
O20	O	1.441964	0.158586	0.733150
O21	O	1.775297	0.491919	1.066484
O22	O	1.018362	-0.284521	0.190073
O23	O	1.351695	0.048812	0.523406
O24	O	1.685029	0.382145	0.856739
O25	O	1.227956	-0.284483	0.399800
O26	O	1.561290	0.048850	0.733133
O27	O	1.894623	0.382184	1.066466
O28	O	1.108773	-0.367666	0.190059
O29	O	1.442107	-0.034333	0.523393
O30	O	1.775440	0.299000	0.856726
O31	O	1.018281	-0.174764	0.309410
O32	O	1.351614	0.158569	0.642743
O33	O	1.684948	0.491902	0.976077
O34	O	0.898995	-0.284484	0.309364
O35	O	1.232329	0.048849	0.642697
O36	O	1.565662	0.382182	0.976030
O37	O	1.018290	-0.477336	0.399718
O38	O	1.351623	-0.144003	0.733052
O39	O	1.684957	0.189330	1.066385
O40	O	0.898964	-0.367601	0.399736
O41	O	1.232298	-0.034268	0.733069
O42	O	1.565631	0.299066	1.066402
O43	O	1.108732	-0.477364	0.309333
O44	O	1.442066	-0.144031	0.642667
O45	O	1.775399	0.189302	0.976000
O46	O	1.108590	-0.284446	0.519091
O47	O	1.441923	0.048887	0.852424
O48	O	1.775257	0.382221	1.185757
O49	O	1.018209	-0.367579	0.519056
O50	O	1.351542	-0.034246	0.852389
O51	O	1.684876	0.299088	1.185722
C52	C	0.872277	-0.326041	0.354547
C53	C	1.205611	0.007292	0.687880
C54	C	1.538944	0.340625	1.021214
C55	C	0.790478	-0.326052	0.354555
C56	C	1.123812	0.007281	0.687888
C57	C	1.457145	0.340614	1.021222
C58	C	1.063516	-0.502596	0.354519
C59	C	1.396849	-0.169263	0.687852
C60	C	1.730183	0.164071	1.021185
C61	C	1.063530	-0.577828	0.354497
C62	C	1.396863	-0.244495	0.687830
C63	C	1.730196	0.088839	1.021163
C64	C	0.602315	-0.369423	0.307570
C65	C	0.935649	-0.036089	0.640904
C66	C	1.268982	0.297244	0.974237
C67	C	0.525457	-0.369425	0.307577
C68	C	0.858790	-0.036092	0.640910
C69	C	1.192123	0.297242	0.974243
C70	C	0.525404	-0.282695	0.401590
C71	C	0.858737	0.050638	0.734923
C72	C	1.192070	0.383971	1.068256
C73	C	0.602261	-0.282690	0.401579
C74	C	0.935594	0.050643	0.734912
C75	C	1.268928	0.383976	1.068246
C76	C	0.640715	-0.326058	0.354570
C77	C	0.974048	0.007276	0.687904
C78	C	1.307382	0.340609	1.021237
C79	C	0.486999	-0.326065	0.354587
C80	C	0.820332	0.007268	0.687921
C81	C	1.153666	0.340601	1.021254
C82	C	0.403665	-0.326067	0.354595
C83	C	0.736999	0.007266	0.687928
C84	C	1.070332	0.340599	1.021261
C85	C	0.724054	-0.326055	0.354562
C86	C	1.057387	0.007278	0.687895
C87	C	1.390721	0.340612	1.021229
C88	C	1.016498	-0.613180	0.307417
C89	C	1.349831	-0.279847	0.640751
C90	C	1.683165	0.053486	0.974084
C91	C	1.016508	-0.683869	0.307403
C92	C	1.349841	-0.350535	0.640736
C93	C	1.683175	-0.017202	0.974070
C94	C	1.063554	-0.719204	0.354465
C95	C	1.396887	-0.385870	0.687798
C96	C	1.730221	-0.052537	1.021132
C97	C	1.110588	-0.683846	0.401550
C98	C	1.443921	-0.350513	0.734883
C99	C	1.777255	-0.017180	1.068216
C100	C	1.110574	-0.613159	0.401567
C101	C	1.443907	-0.279826	0.734900
C102	C	1.777240	0.053507	1.068234
C103	C	1.110646	-0.968920	0.401481
C104	C	1.443980	-0.635587	0.734814
C105	C	1.777313	-0.302253	1.068147
C106	C	1.110659	-1.039612	0.401458
C107	C	1.443992	-0.706279	0.734791
C108	C	1.777325	-0.372945	1.068125
C109	C	1.016581	-1.039629	0.307317
C110	C	1.349914	-0.706296	0.640650
C111	C	1.683247	-0.372963	0.973983
C112	C	1.016566	-0.968942	0.307334
C113	C	1.349900	-0.635609	0.640668
C114	C	1.683233	-0.302275	0.974001
C115	C	1.063597	-0.933591	0.354421
C116	C	1.396930	-0.600258	0.687755
C117	C	1.730264	-0.266924	1.021088
C118	C	1.063585	-0.856943	0.354437
C119	C	1.396918	-0.523609	0.687771
C120	C	1.730251	-0.190276	1.021104
C121	C	1.063571	-0.795851	0.354446
C122	C	1.396904	-0.462517	0.687779
C123	C	1.730238	-0.129184	1.021113
C124	C	1.255436	-0.326065	0.354593
C125	C	1.588770	0.007268	0.687926
C126	C	1.922103	0.340601	1.021260
C127	C	1.337235	-0.326071	0.354603
C128	C	1.670569	0.007263	0.687936
C129	C	2.003902	0.340596	1.021269
C130	C	1.063406	-0.326021	0.545776
C131	C	1.396739	0.007313	0.879109
C132	C	1.730073	0.340646	1.212443
C133	C	1.063440	-0.326029	0.627575
C134	C	1.396773	0.007304	0.960908
C135	C	1.730107	0.340637	1.294241
C136	C	1.063494	-0.150197	0.354567
C137	C	1.396827	0.183136	0.687901
C138	C	1.730160	0.516470	1.021234
C139	C	1.063623	-0.074966	0.354382
C140	C	1.396956	0.258368	0.687715
C141	C	1.730289	0.591701	1.021049
C142	C	1.063582	-0.326101	0.162617
C143	C	1.396915	0.007233	0.495950
C144	C	1.730248	0.340566	0.829283
C145	C	1.063623	-0.326121	0.080818
C146	C	1.396957	0.007212	0.414151
C147	C	1.730290	0.340546	0.747484
C148	C	1.110612	-0.282822	0.815762
C149	C	1.443945	0.050512	1.149096
C150	C	1.777278	0.383845	1.482429
C151	C	1.110645	-0.282838	0.892621
C152	C	1.443978	0.050495	1.225955
C153	C	1.777311	0.383829	1.559288
C154	C	1.016450	-0.369333	0.892625
C155	C	1.349783	-0.036000	1.225958
C156	C	1.683116	0.297333	1.559291
C157	C	1.016421	-0.369320	0.815767
C158	C	1.349754	-0.035987	1.149101
C159	C	1.683088	0.297347	1.482434
C160	C	1.063501	-0.326060	0.777338
C161	C	1.396834	0.007273	1.110672
C162	C	1.730168	0.340607	1.444005
C163	C	1.063562	-0.326090	0.931054
C164	C	1.396896	0.007243	1.264388
C165	C	1.730229	0.340577	1.597721
C166	C	1.063598	-0.326108	1.014388
C167	C	1.396931	0.007225	1.347721
C168	C	1.730264	0.340559	1.681055
C169	C	1.063467	-0.326043	0.693999
C170	C	1.396800	0.007291	1.027333
C171	C	1.730133	0.340624	1.360666
H172	H	0.633622	-0.404733	0.269290
H173	H	0.966956	-0.071400	0.602624
H174	H	1.300289	0.261933	0.935957
F175	F	0.966423	-0.721490	0.257322
F176	F	1.299756	-0.388157	0.590655
F177	F	1.633090	-0.054823	0.923989
F178	F	0.484592	-0.415579	0.257551
F179	F	0.817926	-0.082246	0.590885
F180	F	1.151259	0.251087	0.924218
H181	H	0.978259	-0.940176	0.269009
H182	H	1.311592	-0.606843	0.602342
H183	H	1.644926	-0.273509	0.935676
F184	F	0.643131	-0.236527	0.451600
F185	F	0.976464	0.096806	0.784933
F186	F	1.309798	0.430140	1.118266
F187	F	0.966428	-0.575580	0.257323
F188	F	1.299761	-0.242247	0.590657
F189	F	1.633094	0.091086	0.923990
F190	F	1.160733	-1.077217	0.451551
F191	F	1.494067	-0.743883	0.784885
F192	F	1.827400	-0.410550	1.118218
F193	F	1.160788	-0.236819	0.933512
F194	F	1.494122	0.096514	1.266845
F195	F	1.827455	0.429848	1.600178
F196	F	0.966280	-0.415346	0.774871
F197	F	1.299613	-0.082013	1.108204
F198	F	1.632946	0.251321	1.441538
F199	F	1.160654	-0.721454	0.451641
F200	F	1.493987	-0.388121	0.784974
F201	F	1.827320	-0.054788	1.118308
F202	F	1.160629	-0.575535	0.451678
F203	F	1.493962	-0.242202	0.785011
F204	F	1.827295	0.091132	1.118345
H205	H	0.494085	-0.247388	0.439863
H206	H	0.827419	0.085946	0.773196
H207	H	1.160752	0.419279	1.106530
H208	H	0.978284	-1.068421	0.268978
H209	H	1.311617	-0.735087	0.602312
H210	H	1.644950	-0.401754	0.935645
H211	H	1.148934	-0.940146	0.439830
H212	H	1.482267	-0.606812	0.773163
H213	H	1.815600	-0.273479	1.106496
F214	F	0.966345	-0.415370	0.933530
F215	F	1.299679	-0.082036	1.266863
F216	F	1.633012	0.251297	1.600197
H217	H	1.148948	-0.247598	0.784475
H218	H	1.482281	0.085736	1.117809
H219	H	1.815615	0.419069	1.451142
