data_functionalizedCrystal
_audit_creation_method	'MofGen! by Chris Wilmer'
_symmetry_space_group_name_H-M	'P1'
_symmetry_Int_Tables_number	1
_symmetry_cell_setting	triclinic
loop_
_symmetry_equiv_pos_as_xyz
  x,y,z
_cell_length_a	19.188929
_cell_length_b	9.065215
_cell_length_c	8.140239
_cell_angle_alpha	89.997810
_cell_angle_beta	90.025294
_cell_angle_gamma	95.920260
loop_
_atom_site_label
_atom_site_type_symbol
_atom_site_fract_x
_atom_site_fract_y
_atom_site_fract_z
O1	O	-0.102360	1.956849	-0.136686
O2	O	-0.110759	1.527272	-0.136701
O3	O	-0.005000	1.754457	-0.136592
O4	O	-0.208119	1.729664	-0.136796
O5	O	-0.004999	1.754445	0.136635
O6	O	-0.110758	1.527260	0.136526
O7	O	-0.102359	1.956837	0.136541
Zn8	Zn	-0.106558	1.742046	0.179914
Zn9	Zn	-0.106560	1.742063	-0.180074
O10	O	-0.208117	1.729652	0.136431
C11	C	-0.109951	1.472308	-0.000088
C12	C	-0.107539	1.308548	-0.000088
C13	C	-0.234135	1.730461	-0.000208
C14	C	-0.311659	1.732871	-0.000286
C15	C	-0.355547	1.599566	-0.000258
C16	C	-0.428389	1.601831	-0.000221
C17	C	-0.457338	1.737407	-0.000179
C18	C	-0.413439	1.870729	-0.000217
C19	C	-0.340600	1.868461	-0.000271
N20	N	-0.566111	1.841034	0.092913
N21	N	-0.635306	1.843180	0.092968
C22	C	-0.676800	1.744249	-0.000021
N23	N	-0.646486	1.643070	-0.093046
N24	N	-0.577284	1.640920	-0.093093
C25	C	-0.536320	1.739882	-0.000122
C26	C	-0.799672	1.613390	0.000046
C27	C	-0.872515	1.615660	0.000073
C28	C	-0.857564	1.884563	0.000093
C29	C	-0.784723	1.882289	0.000049
C30	C	-0.755782	1.746699	0.000034
C31	C	0.021018	1.753648	0.000044
C32	C	0.098541	1.751238	0.000112
C33	C	-0.103166	2.011802	-0.000076
C34	C	-0.105578	2.175561	-0.000087
N35	N	-0.106556	1.742046	0.425597
N36	N	-0.106556	1.742075	-0.425757
H37	H	-0.464130	1.493274	-0.000194
C38	C	-0.377648	1.333998	-0.000269
C39	C	-0.323736	1.450527	-0.000296
H40	H	-0.358006	1.241990	-0.000305
H41	H	-0.405714	1.340473	0.095029
H42	H	-0.405779	1.340493	-0.095533
H43	H	-0.295608	1.444039	0.094974
H44	H	-0.295659	1.444049	-0.095604
C45	C	-0.518461	1.993600	-0.000099
C46	C	-0.445258	2.019759	-0.000164
H47	H	-0.538101	2.085610	-0.000062
H48	H	-0.533496	1.938746	-0.095367
H49	H	-0.533429	1.938724	0.095194
H50	H	-0.430288	2.074626	-0.095464
H51	H	-0.430216	2.074637	0.095114
C52	C	-0.333139	2.134485	-0.000244
C53	C	-0.292352	2.015001	-0.000285
H54	H	-0.303351	2.224951	-0.000240
H55	H	-0.361886	2.129785	-0.095503
H56	H	-0.361835	2.129762	0.095059
H57	H	-0.263659	2.019718	-0.095594
H58	H	-0.263594	2.019703	0.094984
C59	C	-0.821764	1.347822	-0.000003
C60	C	-0.767854	1.464354	-0.000007
H61	H	-0.802121	1.255815	-0.000050
H62	H	-0.849832	1.354283	0.095293
H63	H	-0.849893	1.354326	-0.095269
H64	H	-0.739728	1.457857	0.095265
H65	H	-0.739774	1.457890	-0.095313
H66	H	-0.908249	1.507103	0.000085
H67	H	-0.881133	1.994952	0.000007
C68	C	-0.777264	2.148306	0.000098
C69	C	-0.736475	2.028824	0.000047
H70	H	-0.747476	2.238773	0.000104
H71	H	-0.806011	2.143609	-0.095158
H72	H	-0.805958	2.143578	0.095403
H73	H	-0.707784	2.033546	-0.095265
H74	H	-0.707715	2.033524	0.095313
