data_functionalizedCrystal
_audit_creation_method	'MofGen! by Chris Wilmer'
_symmetry_space_group_name_H-M	'P1'
_symmetry_Int_Tables_number	1
_symmetry_cell_setting	triclinic
loop_
_symmetry_equiv_pos_as_xyz
  x,y,z
_cell_length_a	23.532407
_cell_length_b	15.995350
_cell_length_c	14.472310
_cell_angle_alpha	89.998838
_cell_angle_beta	90.007660
_cell_angle_gamma	83.170526
loop_
_atom_site_label
_atom_site_type_symbol
_atom_site_fract_x
_atom_site_fract_y
_atom_site_fract_z
O1	O	-0.755658	-0.101635	-0.076721
O2	O	-0.589851	-0.116342	-0.076748
O3	O	-0.677287	0.012937	-0.076733
O4	O	-0.668222	-0.230914	-0.076736
O5	O	-0.677265	0.012929	0.076949
O6	O	-0.589829	-0.116350	0.076934
O7	O	-0.755636	-0.101643	0.076961
Cu8	Cu	-0.672730	-0.108997	0.090980
Cu9	Cu	-0.672757	-0.108988	-0.090767
O10	O	-0.668200	-0.230922	0.076946
C11	C	-0.568623	-0.115971	0.000090
C12	C	-0.505401	-0.114846	0.000079
C13	C	-0.676901	0.044124	0.000106
C14	C	-0.675778	0.137065	0.000101
C15	C	-0.776864	-0.102014	0.000121
C16	C	-0.840086	-0.103140	0.000125
C17	C	-0.106565	-0.184288	0.000120
C18	C	-0.047161	-0.183242	0.000126
O19	O	-0.010664	-0.247615	0.000159
N20	N	-0.024239	-0.106386	0.000125
C21	C	-0.060725	-0.030570	0.000129
O22	O	-0.035773	0.034898	0.000130
C23	C	-0.120128	-0.031617	0.000130
C24	C	-0.143047	-0.108478	0.000121
C25	C	-0.129484	-0.261143	0.000113
C26	C	-0.188885	-0.262188	0.000105
C27	C	-0.225366	-0.186379	0.000106
C28	C	-0.202447	-0.109524	0.000113
C29	C	-0.156613	0.044197	0.000139
C30	C	-0.216019	0.043143	0.000141
C31	C	-0.238938	-0.033718	0.000132
C32	C	-0.298328	-0.034760	0.000106
N33	N	-0.321250	-0.111617	0.000107
C34	C	-0.284769	-0.187426	0.000107
C35	C	0.064026	-0.028378	0.000128
C36	C	0.123428	-0.027330	0.000121
C37	C	0.136988	-0.180002	0.000120
C38	C	0.077585	-0.181049	0.000121
C39	C	0.041104	-0.105234	0.000129
C40	C	-0.409514	-0.189616	0.000090
C41	C	-0.468920	-0.190655	0.000079
C42	C	-0.482475	-0.037984	0.000085
C43	C	-0.423074	-0.036944	0.000091
C44	C	-0.386594	-0.112767	0.000097
O45	O	-0.334860	0.029579	0.000077
O46	O	-0.309729	-0.252883	0.000118
C47	C	-0.668586	-0.262110	0.000105
C48	C	-0.669709	-0.355051	0.000104
N49	N	-0.672716	-0.109003	0.218811
C50	C	-0.671743	0.474779	0.000103
C51	C	-0.609473	0.426827	-0.000251
C52	C	-0.610596	0.330146	0.000095
C53	C	-0.673744	0.307235	0.000101
C54	C	-0.704445	0.348564	0.087865
C55	C	-0.702881	0.445187	0.087938
C56	C	-0.704193	0.445564	-0.086827
C57	C	-0.704178	0.348619	-0.087987
C58	C	-0.674879	0.212547	0.000104
C59	C	-0.670610	0.569468	0.000107
N60	N	-0.672776	-0.108976	-0.218598
C61	C	-0.672756	-0.108985	0.592902
C62	C	-0.625814	-0.177930	0.553728
C63	C	-0.625922	-0.178179	0.446640
C64	C	-0.672735	-0.108994	0.407311
C65	C	-0.732158	-0.127581	0.446157
C66	C	-0.731894	-0.128071	0.553279
C67	C	-0.660806	-0.021245	0.553430
C68	C	-0.659443	-0.021842	0.446302
C69	C	-0.672728	-0.108997	0.302423
C70	C	-0.672768	-0.108983	0.697790
H71	H	-0.379819	-0.251358	0.000098
H72	H	-0.581753	-0.167177	0.420377
C73	C	-0.600352	-0.000015	0.315327
C74	C	-0.600434	-0.002780	0.412031
H75	H	-0.563922	0.011754	0.294169
H76	H	-0.608149	-0.052805	0.291526
H77	H	-0.628924	0.042893	0.294705
H78	H	-0.571864	-0.045693	0.432653
H79	H	-0.592630	0.050016	0.435842
C80	C	-0.797806	-0.200882	0.359477
C81	C	-0.746715	-0.212956	0.409938
H82	H	-0.806787	-0.253591	0.337115
H83	H	-0.827843	-0.176440	0.398275
H84	H	-0.793432	-0.164436	0.308810
H85	H	-0.751090	-0.249397	0.460609
H86	H	-0.716670	-0.237410	0.371138
H87	H	-0.137964	0.106785	0.000147
C88	C	-0.223451	0.194160	0.000144
C89	C	-0.256118	0.126484	0.000140
H90	H	-0.248207	0.245609	0.000135
H91	H	-0.200000	0.191388	0.053737
H92	H	-0.199999	0.191386	-0.053448
H93	H	-0.279567	0.129254	0.053736
H94	H	-0.279579	0.129257	-0.053458
C95	C	-0.765839	0.576387	-0.090958
C96	C	-0.766171	0.488958	-0.087631
H97	H	-0.804100	0.603177	-0.091455
H98	H	-0.746452	0.594278	-0.038282
H99	H	-0.746747	0.591000	-0.145403
H100	H	-0.785258	0.474345	-0.033182
H101	H	-0.785566	0.471061	-0.140312
C102	C	0.182364	0.062422	0.079120
C103	C	0.148618	0.057156	0.000117
H104	H	0.197916	0.114580	0.079115
H105	H	0.159475	0.058840	0.132700
H106	H	0.212595	0.017421	0.079112
H107	H	0.118385	0.102153	0.000127
H108	H	0.171509	0.060746	-0.053477
H109	H	-0.584685	0.446212	0.062327
C110	C	-0.578277	-0.060558	0.648387
C111	C	-0.603568	0.003034	0.589921
H112	H	-0.542938	-0.045577	0.670909
H113	H	-0.603108	-0.067294	0.698881
H114	H	-0.571626	-0.111929	0.615014
H115	H	-0.610223	0.054404	0.623296
H116	H	-0.578732	0.009780	0.539419
C117	C	0.211663	-0.267386	-0.078871
C118	C	0.177096	-0.263335	0.000126
H119	H	0.236426	-0.318828	-0.078863
H120	H	0.188204	-0.264629	-0.132455
H121	H	0.233808	-0.221455	-0.078860
H122	H	0.154948	-0.309263	0.000112
H123	H	0.200558	-0.266100	0.053724
H124	H	-0.767916	-0.079808	0.579191
H125	H	-0.207539	-0.324776	0.000098
H126	H	-0.581501	-0.167116	0.579509
H127	H	-0.586282	0.302076	0.063107
C128	C	-0.633206	-0.265754	0.686697
C129	C	-0.635975	-0.265349	0.590047
H130	H	-0.639485	-0.319721	0.709117
H131	H	-0.596516	-0.253362	0.705840
H132	H	-0.661748	-0.224462	0.710680
H133	H	-0.607430	-0.306637	0.566063
H134	H	-0.672670	-0.277751	0.570895
C135	C	0.056599	0.122638	0.000111
C136	C	0.023928	0.054966	0.000117
H137	H	0.031845	0.174089	0.000098
H138	H	0.080051	0.119868	0.053702
H139	H	0.080050	0.119857	-0.053483
H140	H	0.000481	0.057743	0.053715
H141	H	0.000466	0.057737	-0.053479
C142	C	-0.442447	0.113860	0.000085
C143	C	-0.397878	0.047541	0.000091
H144	H	-0.426894	0.166017	0.000096
H145	H	-0.465333	0.110277	-0.053509
H146	H	-0.465335	0.110267	0.053676
H147	H	-0.374993	0.051130	-0.053504
H148	H	-0.374983	0.051125	0.053691
H149	H	-0.680475	0.463299	0.153538
C150	C	-0.742138	0.018143	0.351931
C151	C	-0.702604	0.050617	0.410180
H152	H	-0.768789	0.062876	0.329639
H153	H	-0.722546	-0.009898	0.301273
H154	H	-0.761896	-0.020561	0.385386
H155	H	-0.682843	0.089317	0.376723
H156	H	-0.722198	0.078672	0.460846
C157	C	0.018658	-0.270807	0.079115
C158	C	0.052393	-0.265533	0.000115
H159	H	0.003106	-0.322965	0.079107
H160	H	0.041556	-0.267233	0.132697
H161	H	-0.011571	-0.225806	0.079110
H162	H	0.082625	-0.310531	0.000124
H163	H	0.029494	-0.269116	-0.053481
H164	H	-0.099787	-0.322879	0.000116
C165	C	-0.657680	0.401859	-0.229435
C166	C	-0.676725	0.473061	-0.176631
H167	H	-0.640722	0.418836	-0.284874
H168	H	-0.630198	0.366165	-0.195175
H169	H	-0.689209	0.372297	-0.244079
H170	H	-0.645195	0.502620	-0.161981
H171	H	-0.704209	0.508770	-0.210898
C172	C	-0.557297	0.355435	-0.136475
C173	C	-0.578009	0.291503	-0.084825
H174	H	-0.537173	0.331577	-0.188897
H175	H	-0.588465	0.394567	-0.156220
H176	H	-0.532197	0.383508	-0.099337
H177	H	-0.603113	0.263433	-0.121961
H178	H	-0.546837	0.252356	-0.065081
H179	H	-0.681732	0.321187	-0.152912
H180	H	-0.695039	0.030056	0.578762
C181	C	-0.778525	0.278150	-0.020158
C182	C	-0.766348	0.328408	-0.095136
H183	H	-0.816909	0.265680	-0.024565
H184	H	-0.753241	0.227234	-0.020907
H185	H	-0.773692	0.307461	0.035849
H186	H	-0.771177	0.299095	-0.151143
H187	H	-0.791639	0.379332	-0.094396
H188	H	-0.767923	-0.078680	0.420680
C189	C	-0.449540	-0.341463	0.000084
C190	C	-0.494110	-0.275146	0.000076
H191	H	-0.465092	-0.393621	0.000089
H192	H	-0.426657	-0.337876	-0.053503
H193	H	-0.426650	-0.337871	0.053682
H194	H	-0.516998	-0.278734	-0.053526
H195	H	-0.517003	-0.278734	0.053668
C196	C	-0.589598	-0.299996	0.358333
C197	C	-0.636224	-0.266089	0.412031
H198	H	-0.595960	-0.354272	0.336975
H199	H	-0.585464	-0.264276	0.306948
H200	H	-0.555752	-0.304445	0.394669
H201	H	-0.670070	-0.261634	0.375693
H202	H	-0.640365	-0.301817	0.463424
H203	H	-0.512188	0.023738	0.000082
H204	H	-0.742424	-0.192044	0.578256
C205	C	-0.802812	0.428558	0.096494
C206	C	-0.764594	0.489240	0.093336
H207	H	-0.840909	0.455754	0.099836
H208	H	-0.798506	0.394797	0.042383
H209	H	-0.794944	0.393978	0.149415
H210	H	-0.772460	0.523817	0.040412
H211	H	-0.768903	0.523015	0.147453
H212	H	-0.750838	0.334824	0.091133
C213	C	-0.703470	0.347489	0.253762
C214	C	-0.675635	0.310017	0.176031
H215	H	-0.685682	0.323687	0.308189
H216	H	-0.701077	0.406343	0.252849
H217	H	-0.742525	0.337836	0.252971
H218	H	-0.636581	0.319675	0.176818
H219	H	-0.678022	0.251149	0.176945
H220	H	-0.584593	0.445155	-0.063188
