data_functionalizedCrystal
_audit_creation_method	'MofGen! by Chris Wilmer'
_symmetry_space_group_name_H-M	'P1'
_symmetry_Int_Tables_number	1
_symmetry_cell_setting	triclinic
loop_
_symmetry_equiv_pos_as_xyz
  x,y,z
_cell_length_a	16.974769
_cell_length_b	27.732048
_cell_length_c	16.053948
_cell_angle_alpha	87.102713
_cell_angle_beta	89.227827
_cell_angle_gamma	96.985238
loop_
_atom_site_label
_atom_site_type_symbol
_atom_site_fract_x
_atom_site_fract_y
_atom_site_fract_z
O1	O	-0.090876	0.639320	0.075465
O2	O	0.409124	1.139320	0.575465
O3	O	-0.105139	0.498556	0.076455
O4	O	0.394861	0.998556	0.576455
O5	O	0.016815	0.573071	0.068190
O6	O	0.516815	1.073071	0.568190
O7	O	-0.212831	0.564806	0.083730
O8	O	0.287169	1.064806	0.583730
O9	O	0.010931	0.576676	-0.070268
O10	O	0.510931	1.076676	0.429732
O11	O	-0.111024	0.502161	-0.062004
O12	O	0.388976	1.002161	0.437996
O13	O	-0.096760	0.642926	-0.062993
O14	O	0.403240	1.142926	0.437007
Zn15	Zn	-0.104826	0.573116	-0.084482
Zn16	Zn	0.395174	1.073116	0.415518
Zn17	Zn	-0.097073	0.568366	0.097943
Zn18	Zn	0.402927	1.068366	0.597943
O19	O	-0.218715	0.568411	-0.054729
O20	O	0.281285	1.068411	0.445271
C21	C	0.043244	0.574629	-0.003024
C22	C	0.543244	1.074629	0.496976
C23	C	0.130760	0.573893	-0.008940
C24	C	0.630760	1.073893	0.491060
C25	C	-0.107782	0.482351	0.007209
C26	C	0.392218	0.982351	0.507209
C27	C	-0.106880	0.428694	0.007157
C28	C	0.393120	0.928694	0.507157
C29	C	0.623031	0.569916	-0.050308
C30	C	1.123031	1.069916	0.449692
C31	C	0.540801	0.570613	-0.044754
C32	C	1.040801	1.070613	0.455246
C33	C	0.502886	0.568999	0.033499
C34	C	1.002886	1.068999	0.533499
C35	C	0.547204	0.566684	0.106202
C36	C	1.047204	1.066684	0.606202
C37	C	0.629431	0.565985	0.100647
C38	C	1.129431	1.065985	0.600647
C39	C	0.257305	0.570878	0.058207
C40	C	0.757305	1.070878	0.558207
C41	C	0.175072	0.571579	0.063757
C42	C	0.675072	1.071579	0.563757
C43	C	0.168675	0.575507	-0.087199
C44	C	0.668675	1.075507	0.412801
C45	C	0.250905	0.574810	-0.092748
C46	C	0.750905	1.074810	0.407252
C47	C	0.295215	0.572492	-0.020045
C48	C	0.795215	1.072492	0.479955
N49	N	0.418834	0.569712	0.039179
N50	N	0.918834	1.069712	0.539179
N51	N	0.379264	0.571776	-0.025725
N52	N	0.879264	1.071776	0.474275
C53	C	-0.173273	0.090019	0.011613
C54	C	0.326727	0.590019	0.511613
C55	C	-0.169928	-0.111648	0.011380
C56	C	0.330072	0.388352	0.511380
O57	O	-0.230640	-0.142775	0.015452
O58	O	0.269360	0.357225	0.515452
N59	N	-0.097613	-0.130923	0.006488
N60	N	0.402387	0.369077	0.506488
C61	C	-0.026130	-0.099777	0.001649
C62	C	0.473870	0.400223	0.501649
O63	O	0.035454	-0.120799	-0.002526
O64	O	0.535454	0.379201	0.497474
C65	C	-0.029476	0.101888	0.001877
C66	C	0.470524	0.601888	0.501877
C67	C	-0.101795	0.121160	0.006777
C68	C	0.398205	0.621160	0.506777
C69	C	-0.245586	0.109291	0.016513
C70	C	0.254414	0.609291	0.516513
C71	C	-0.246421	0.159705	0.016576
C72	C	0.253579	0.659705	0.516576
C73	C	-0.174943	0.190846	0.011739
C74	C	0.325057	0.690846	0.511739
C75	C	-0.102630	0.171574	0.006840
C76	C	0.397370	0.671574	0.506840
C77	C	0.042006	0.133033	-0.002968
C78	C	0.542006	0.633033	0.497032
C79	C	0.041163	0.183452	-0.002913
C80	C	0.541163	0.683452	0.497087
C81	C	-0.031156	0.202724	0.001987
C82	C	0.468844	0.702724	0.501987
C83	C	-0.031988	0.253128	0.002067
C84	C	0.468012	0.753128	0.502067
N85	N	-0.104302	0.272403	0.006959
N86	N	0.395698	0.772403	0.506959
C87	C	-0.175780	0.241262	0.011795
C88	C	0.324220	0.741262	0.511795
C89	C	-0.024378	-0.205655	0.001531
C90	C	0.475622	0.294345	0.501531
C91	C	-0.023542	-0.256071	0.001476
C92	C	0.476458	0.243929	0.501476
C93	C	-0.167340	-0.267938	0.011205
C94	C	0.332660	0.232062	0.511205
C95	C	-0.168175	-0.217521	0.011266
C96	C	0.331825	0.282479	0.511266
C97	C	-0.096693	-0.186380	0.006423
C98	C	0.403307	0.313620	0.506423
C99	C	-0.177529	0.347134	0.011927
C100	C	0.322471	0.847134	0.511927
C101	C	-0.178358	0.397553	0.011993
C102	C	0.321642	0.897553	0.511993
C103	C	-0.034560	0.409415	0.002260
C104	C	0.465440	0.909415	0.502260
C105	C	-0.033731	0.359001	0.002198
C106	C	0.466269	0.859001	0.502198
C107	C	-0.105222	0.327862	0.007029
C108	C	0.394778	0.827862	0.507029
O109	O	0.028691	0.284285	-0.002012
O110	O	0.528691	0.784285	0.497988
O111	O	-0.237356	0.262294	0.015951
O112	O	0.262644	0.762294	0.515951
C113	C	-0.172438	0.039605	0.011551
C114	C	0.327562	0.539605	0.511551
C115	C	-0.100125	0.020333	0.006651
C116	C	0.399875	0.520333	0.506651
C117	C	-0.028647	0.051474	0.001815
C118	C	0.471353	0.551474	0.501815
C119	C	-0.099288	-0.030083	0.006596
C120	C	0.400712	0.469917	0.506596
C121	C	-0.170765	-0.061224	0.011432
C122	C	0.329235	0.438776	0.511432
C123	C	-0.243080	-0.041949	0.016324
C124	C	0.256920	0.458051	0.516324
C125	C	-0.243915	0.008464	0.016387
C126	C	0.256085	0.508464	0.516387
C127	C	0.043668	0.032199	-0.003077
C128	C	0.543668	0.532199	0.496923
C129	C	0.044497	-0.018215	-0.003138
C130	C	0.544497	0.481785	0.496862
C131	C	-0.026980	-0.049356	0.001698
C132	C	0.473020	0.450644	0.501698
C133	C	0.754857	0.566857	0.016483
C134	C	1.254857	1.066857	0.516483
C135	C	0.667343	0.567603	0.022389
C136	C	1.167343	1.067603	0.522389
C137	C	-0.094118	0.659131	0.006255
C138	C	0.405882	1.159131	0.506255
C139	C	-0.095019	0.712787	0.006312
C140	C	0.404981	1.212787	0.506312
N141	N	-0.110117	0.576361	-0.208982
N142	N	0.389883	1.076361	0.291018
C143	C	-0.064478	0.548310	-0.255783
C144	C	0.435522	1.048310	0.244217
C145	C	-0.068188	0.550593	-0.342937
C146	C	0.431812	1.050593	0.157063
C147	C	-0.117533	0.580929	-0.383289
C148	C	0.382467	1.080929	0.116711
C149	C	-0.163177	0.608981	-0.336481
C150	C	0.336823	1.108981	0.163519
C151	C	-0.159471	0.606695	-0.249328
C152	C	0.340529	1.106695	0.250672
C153	C	-0.133714	0.590891	-0.643597
C154	C	0.366286	1.090891	-0.143597
C155	C	-0.137415	0.593175	-0.730756
C156	C	0.362585	1.093175	-0.230756
C157	C	-0.042427	0.534786	-0.737206
C158	C	0.457573	1.034786	-0.237206
C159	C	-0.038721	0.532506	-0.650051
C160	C	0.461279	1.032506	-0.150051
C161	C	-0.084368	0.560556	-0.603251
C162	C	0.415632	1.060556	-0.103251
N163	N	-0.121325	0.583263	-0.472374
N164	N	0.378675	1.083263	0.027626
N165	N	-0.080581	0.558218	-0.514167
N166	N	0.419419	1.058218	-0.014167
N167	N	-0.091776	0.565124	0.222443
N168	N	0.408224	1.065124	0.722443
H169	H	0.653895	0.571232	-0.114030
H170	H	1.153895	1.071232	0.385970
H171	H	0.504727	0.572503	-0.103952
H172	H	1.004727	1.072503	0.396048
H173	H	-0.024293	0.523609	-0.222935
H174	H	0.475707	1.023609	0.277065
H175	H	-0.196638	0.629536	-0.211224
H176	H	0.303362	1.129536	0.288776
F177	F	0.013774	0.500203	-0.607111
F178	F	0.513774	1.000203	-0.107111
F179	F	0.043238	0.338490	-0.003018
F180	F	0.543238	0.838490	0.496982
H181	H	0.281770	0.576126	-0.156470
H182	H	0.781770	1.076126	0.343530
F183	F	-0.245146	-0.197015	0.016481
F184	F	0.254854	0.302985	0.516481
H185	H	-0.301280	-0.067314	0.020265
H186	H	0.198720	0.432686	0.520265
H187	H	0.132589	0.577393	-0.146390
H188	H	0.632589	1.077393	0.353610
F189	F	-0.323394	0.180208	0.021788
F190	F	0.176606	0.680208	0.521788
H191	H	0.099374	0.208805	-0.006858
H192	H	0.599374	0.708805	0.493142
H193	H	-0.031024	0.527751	-0.381039
H194	H	0.468976	1.027751	0.118961
H195	H	0.516326	0.565368	0.169917
H196	H	1.016326	1.065368	0.669917
F197	F	0.134723	0.569863	0.147048
F198	F	0.634723	1.069863	0.647048
H199	H	-0.177601	0.617879	-0.763607
H200	H	0.322399	1.117879	-0.263607
H201	H	0.100896	0.117351	-0.006960
H202	H	0.600896	0.617351	0.493040
H203	H	-0.005265	0.511949	-0.775320
H204	H	0.494735	1.011949	-0.275320
F205	F	-0.243412	-0.301089	0.016351
F206	F	0.256588	0.198911	0.516351
F207	F	0.676591	0.563521	0.178021
F208	F	1.176591	1.063521	0.678021
F209	F	0.304454	0.568415	0.135585
F210	F	0.804454	1.068415	0.635585
F211	F	-0.321669	0.076155	0.021661
F212	F	0.178331	0.576155	0.521661
F213	F	-0.182316	0.620733	-0.593798
F214	F	0.317684	1.120733	-0.093798
H215	H	-0.203359	0.633679	-0.369342
H216	H	0.296641	1.133679	0.130658
H217	H	-0.237251	0.413241	0.015985
H218	H	0.262749	0.913241	0.515985
F219	F	0.053431	-0.276577	-0.003722
F220	F	0.553431	0.223423	0.496278
H221	H	-0.235744	0.321786	0.015859
H222	H	0.264256	0.821786	0.515859
H223	H	0.023635	0.434779	-0.001675
H224	H	0.523635	0.934779	0.498325
H225	H	0.033835	-0.180304	-0.002413
H226	H	0.533835	0.319696	0.497587
F227	F	-0.320888	0.028968	0.021603
F228	F	0.179112	0.528968	0.521603
F229	F	0.119749	0.065336	-0.008226
F230	F	0.619749	0.565336	0.491774
F231	F	0.121475	-0.038719	-0.008344
F232	F	0.621475	0.461281	0.491656
