data_functionalizedCrystal
_audit_creation_method	'MofGen! by Chris Wilmer'
_symmetry_space_group_name_H-M	'P1'
_symmetry_Int_Tables_number	1
_symmetry_cell_setting	triclinic
loop_
_symmetry_equiv_pos_as_xyz
  x,y,z
_cell_length_a	12.837942
_cell_length_b	15.944545
_cell_length_c	11.892113
_cell_angle_alpha	94.364702
_cell_angle_beta	93.960375
_cell_angle_gamma	89.162556
loop_
_atom_site_label
_atom_site_type_symbol
_atom_site_fract_x
_atom_site_fract_y
_atom_site_fract_z
O1	O	0.139572	1.130480	0.093929
O2	O	0.639572	1.630480	0.593929
O3	O	0.156064	0.887250	0.093947
O4	O	0.656064	1.387250	0.593947
O5	O	-0.003085	1.003471	0.093932
O6	O	0.496915	1.503471	0.593932
O7	O	0.298721	1.014259	0.093945
O8	O	0.798721	1.514259	0.593945
O9	O	-0.014915	0.992931	-0.094075
O10	O	0.485085	1.492931	0.405925
O11	O	0.144234	0.876710	-0.094060
O12	O	0.644234	1.376710	0.405940
O13	O	0.127743	1.119940	-0.094078
O14	O	0.627743	1.619940	0.405922
Zn15	Zn	0.134110	0.996652	-0.123919
Zn16	Zn	0.634110	1.496652	0.376081
Zn17	Zn	0.149696	1.010538	0.123788
Zn18	Zn	0.649696	1.510538	0.623788
O19	O	0.286892	1.003719	-0.094062
O20	O	0.786892	1.503719	0.405938
C21	C	0.149465	0.850631	-0.000054
C22	C	0.649465	1.350631	0.499946
C23	C	0.147417	0.757221	-0.000047
C24	C	0.647417	1.257221	0.499953
C25	C	-0.047621	0.994557	-0.000071
C26	C	0.452379	1.494557	0.499929
C27	C	-0.162698	0.983689	-0.000068
C28	C	0.337302	1.483689	0.499932
C29	C	0.042646	0.478207	-0.000064
C30	C	0.542646	0.978207	0.499936
C31	C	0.087325	0.527632	-0.092762
C32	C	0.587325	1.027632	0.407238
C33	C	0.140109	0.420992	-0.000067
C34	C	0.640109	0.920992	0.499933
C35	C	0.099014	0.538006	0.092599
C36	C	0.599014	1.038006	0.592599
C37	C	0.143694	0.586193	-0.000055
C38	C	0.643694	1.086193	0.499945
C39	C	0.184757	0.469183	-0.092841
C40	C	0.684757	0.969183	0.407159
C41	C	0.196437	0.479557	0.092602
C42	C	0.696437	0.979557	0.592602
C43	C	0.241186	0.528954	-0.000118
C44	C	0.741186	1.028954	0.499882
C45	C	0.138041	0.325824	-0.000074
C46	C	0.638041	0.825824	0.499926
C47	C	0.145770	0.681358	-0.000056
C48	C	0.645770	1.181358	0.499944
C49	C	-0.403650	1.114343	-0.000055
C50	C	0.096350	1.614343	0.499945
C51	C	-0.511777	1.104136	-0.000052
C52	C	-0.011777	1.604136	0.499948
C53	C	-0.487078	0.953069	-0.000052
C54	C	0.012922	1.453069	0.499948
C55	C	-0.378952	0.963276	-0.000055
C56	C	0.121048	1.463276	0.499945
C57	C	-0.337243	1.043916	-0.000058
C58	C	0.162757	1.543916	0.499942
C59	C	-0.229115	1.054122	-0.000069
C60	C	0.270885	1.554122	0.499931
C61	C	-0.204418	0.903056	-0.000061
C62	C	0.295582	1.403056	0.499939
C63	C	-0.312544	0.892849	-0.000058
C64	C	0.187456	1.392849	0.499942
C65	C	0.331427	1.012633	-0.000057
C66	C	0.831427	1.512633	0.499943
C67	C	0.446505	1.023501	-0.000052
C68	C	0.946505	1.523501	0.499948
C69	C	0.134341	1.156559	-0.000074
C70	C	0.634341	1.656559	0.499926
C71	C	0.136390	1.249969	-0.000074
C72	C	0.636390	1.749969	0.499926
N73	N	0.123472	0.987180	-0.292973
N74	N	0.623472	1.487180	0.207027
C75	C	0.234400	1.085916	-0.529624
C76	C	0.734400	1.585916	-0.029624
C77	C	0.226955	1.079302	-0.647965
C78	C	0.726955	1.579302	-0.147965
C79	C	0.101134	0.967342	-0.648000
C80	C	0.601134	1.467342	-0.148000
C81	C	0.108578	0.973956	-0.529658
C82	C	0.608578	1.473956	-0.029658
C83	C	0.175215	1.033244	-0.470474
C84	C	0.675215	1.533244	0.029526
C85	C	0.182664	1.039854	-0.352131
C86	C	0.682664	1.539854	0.147869
C87	C	0.056838	0.927899	-0.352167
C88	C	0.556838	1.427899	0.147833
C89	C	0.049393	0.921284	-0.470509
C90	C	0.549393	1.421284	0.029491
N91	N	0.160326	1.020016	0.292842
N92	N	0.660326	1.520016	0.792842
H93	H	-0.041295	0.455834	-0.000157
H94	H	0.458705	0.955834	0.499843
H95	H	-0.150337	0.845708	-0.000072
H96	H	0.349663	1.345708	0.499928
C97	C	0.027838	0.902131	-0.713123
C98	C	0.527838	1.402131	-0.213123
N99	N	-0.027366	0.853011	-0.762175
N100	N	0.472634	1.353011	-0.262175
H101	H	-0.369691	1.180002	-0.000068
H102	H	0.130309	1.680002	0.499932
C103	C	0.354660	0.558965	-0.000188
C104	C	0.854660	1.058965	0.499812
N105	N	0.440126	0.581572	-0.000247
N106	N	0.940126	1.081572	0.499753
C107	C	-0.023898	0.856067	-0.535625
C108	C	0.476102	1.356067	-0.035625
N109	N	-0.079099	0.806941	-0.584669
N110	N	0.420901	1.306941	-0.084669
H111	H	0.220951	0.439266	-0.171294
H112	H	0.720951	0.939266	0.328706
H113	H	0.041233	0.548877	-0.171134
H114	H	0.541233	1.048877	0.328866
C115	C	0.258653	0.450824	0.198485
C116	C	0.758653	0.950824	0.698485
N117	N	0.305506	0.429181	0.278245
N118	N	0.805506	0.929181	0.778245
C119	C	0.292076	1.137236	-0.713026
C120	C	0.792076	1.637236	-0.213026
N121	N	0.341131	1.180873	-0.762029
N122	N	0.841131	1.680873	-0.262029
C123	C	0.050049	0.578554	0.198468
C124	C	0.550049	1.078554	0.698468
N125	N	0.013162	0.609091	0.278205
N126	N	0.513162	1.109091	0.778205
H127	H	0.236927	1.088126	-0.303945
H128	H	0.736927	1.588126	0.196055
C129	C	-0.532979	0.864371	-0.000060
C130	C	-0.032979	1.364371	0.499940
N131	N	-0.567554	0.797563	-0.000074
N132	N	-0.067554	1.297563	0.499926
H133	H	0.008650	0.885006	-0.303995
H134	H	0.508650	1.385006	0.196005
H135	H	0.288668	1.134183	-0.481435
H136	H	0.788668	1.634183	0.018565
H137	H	-0.195158	1.119782	-0.000075
H138	H	0.304842	1.619782	0.499925
H139	H	-0.565843	1.161485	-0.000046
H140	H	-0.065843	1.661485	0.499954
H141	H	-0.346519	0.827194	-0.000052
H142	H	0.153481	1.327194	0.499948
