data_functionalizedCrystal
_audit_creation_method	'MofGen! by Chris Wilmer'
_symmetry_space_group_name_H-M	'P1'
_symmetry_Int_Tables_number	1
_symmetry_cell_setting	triclinic
loop_
_symmetry_equiv_pos_as_xyz
  x,y,z
_cell_length_a	18.215407
_cell_length_b	18.215399
_cell_length_c	11.169416
_cell_angle_alpha	90.024035
_cell_angle_beta	89.992201
_cell_angle_gamma	89.986109
loop_
_atom_site_label
_atom_site_type_symbol
_atom_site_fract_x
_atom_site_fract_y
_atom_site_fract_z
Zn1	Zn	1.125124	-0.416091	0.477872
Zn2	Zn	1.625124	0.083909	0.977872
Zn3	Zn	1.125071	-0.293038	0.678589
Zn4	Zn	1.625071	0.206962	1.178589
Zn5	Zn	1.002063	-0.293044	0.477910
Zn6	Zn	1.502063	0.206956	0.977910
Zn7	Zn	1.002054	-0.416069	0.678503
Zn8	Zn	1.502054	0.083931	1.178503
O9	O	1.063578	-0.354560	0.578218
O10	O	1.563578	0.145440	1.078218
O11	O	1.228102	-0.399774	0.504518
O12	O	1.728102	0.100226	1.004518
O13	O	1.108735	-0.190054	0.652020
O14	O	1.608735	0.309946	1.152020
O15	O	1.018414	-0.309378	0.309955
O16	O	1.518414	0.190622	0.809955
O17	O	1.228062	-0.309367	0.651984
O18	O	1.728062	0.190633	1.151984
O19	O	1.108827	-0.399780	0.309928
O20	O	1.608827	0.100220	0.809928
O21	O	1.018362	-0.190059	0.504582
O22	O	1.518362	0.309941	1.004582
O23	O	0.899078	-0.309357	0.504498
O24	O	1.399078	0.190643	1.004498
O25	O	1.018398	-0.519056	0.651838
O26	O	1.518398	-0.019056	1.151838
O27	O	0.899071	-0.399743	0.651874
O28	O	1.399071	0.100257	1.151874
O29	O	1.108818	-0.519072	0.504435
O30	O	1.608818	-0.019072	1.004435
O31	O	1.108726	-0.309347	0.846527
O32	O	1.608726	0.190653	1.346527
O33	O	1.018346	-0.399737	0.846464
O34	O	1.518346	0.100263	1.346464
C35	C	0.872372	-0.354549	0.578182
C36	C	1.372372	0.145451	1.078182
C37	C	0.790573	-0.354562	0.578195
C38	C	1.290573	0.145438	1.078195
C39	C	0.525531	-0.401560	0.655083
C40	C	1.025531	0.098440	1.155083
C41	C	0.602390	-0.401556	0.655073
C42	C	1.102390	0.098444	1.155073
C43	C	0.602366	-0.307574	0.501381
C44	C	1.102366	0.192426	1.001381
C45	C	0.525509	-0.307574	0.501398
C46	C	1.025509	0.192426	1.001398
C47	C	0.487093	-0.354572	0.578247
C48	C	0.987093	0.145428	1.078247
C49	C	0.640810	-0.354568	0.578220
C50	C	1.140810	0.145432	1.078220
C51	C	0.724143	-0.354563	0.578208
C52	C	1.224143	0.145437	1.078208
C53	C	0.403754	-0.354575	0.578261
C54	C	0.903754	0.145425	1.078261
C55	C	1.063613	-0.546513	0.578123
C56	C	1.563613	-0.046513	1.078123
C57	C	1.063628	-0.628312	0.578082
C58	C	1.563628	-0.128312	1.078082
C59	C	1.016610	-0.816510	0.501259
C60	C	1.516610	-0.316510	1.001259
C61	C	1.016623	-0.893369	0.501235
C62	C	1.516623	-0.393369	1.001235
C63	C	1.110733	-0.893353	0.654762
C64	C	1.610733	-0.393353	1.154762
C65	C	1.110716	-0.816496	0.654791
C66	C	1.610716	-0.316496	1.154791
C67	C	1.063656	-0.778076	0.578033
C68	C	1.563656	-0.278076	1.078033
C69	C	1.063686	-0.931792	0.577979
C70	C	1.563686	-0.431792	1.077979
C71	C	1.063700	-1.015126	0.577954
C72	C	1.563700	-0.515126	1.077954
C73	C	1.063640	-0.694737	0.578060
C74	C	1.563640	-0.194737	1.078060
C75	C	1.255531	-0.354572	0.578256
C76	C	1.755531	0.145428	1.078256
C77	C	1.337330	-0.354577	0.578272
C78	C	1.837330	0.145423	1.078272
C79	C	1.063549	-0.354555	0.890043
C80	C	1.563549	0.145445	1.390043
C81	C	1.063604	-0.354577	1.023443
C82	C	1.563604	0.145423	1.523443
C83	C	1.063586	-0.163354	0.578227
C84	C	1.563586	0.336646	1.078227
C85	C	1.063714	-0.081556	0.577930
C86	C	1.563714	0.418444	1.077930
C87	C	1.063628	-0.354582	0.265176
C88	C	1.563628	0.145418	0.765176
C89	C	1.063649	-0.354591	0.131776
C90	C	1.563649	0.145409	0.631776
H91	H	0.633654	-0.269312	0.438812
H92	H	1.133654	0.230688	0.938812
H93	H	1.149048	-0.924644	0.717254
H94	H	1.649048	-0.424644	1.217254
H95	H	0.494255	-0.439828	0.717659
H96	H	0.994255	0.060172	1.217659
H97	H	1.149028	-0.785202	0.717314
H98	H	1.649028	-0.285202	1.217314
H99	H	0.494212	-0.269307	0.438828
H100	H	0.994212	0.230693	0.938828
H101	H	0.633682	-0.439818	0.717641
H102	H	1.133682	0.060182	1.217641
H103	H	0.978313	-0.924658	0.438719
H104	H	1.478313	-0.424658	0.938719
H105	H	0.978291	-0.785231	0.438758
H106	H	1.478291	-0.285231	0.938758
