data_functionalizedCrystal
_audit_creation_method	'MofGen! by Chris Wilmer'
_symmetry_space_group_name_H-M	'P1'
_symmetry_Int_Tables_number	1
_symmetry_cell_setting	triclinic
loop_
_symmetry_equiv_pos_as_xyz
  x,y,z
_cell_length_a	14.044220
_cell_length_b	14.044220
_cell_length_c	13.101039
_cell_angle_alpha	93.667477
_cell_angle_beta	86.340132
_cell_angle_gamma	93.188878
loop_
_atom_site_label
_atom_site_type_symbol
_atom_site_fract_x
_atom_site_fract_y
_atom_site_fract_z
O1	O	-1.281968	-0.225348	0.085109
O2	O	-0.781968	0.274652	0.585109
O3	O	-1.005298	-0.217041	0.085135
O4	O	-0.505298	0.282959	0.585135
O5	O	-1.139480	-0.082860	0.085112
O6	O	-0.639480	0.417140	0.585112
O7	O	-1.147787	-0.359530	0.085132
O8	O	-0.647787	0.140470	0.585132
O9	O	-1.129854	-0.092504	-0.085316
O10	O	-0.629854	0.407496	0.414684
O11	O	-0.995673	-0.226686	-0.085293
O12	O	-0.495673	0.273314	0.414707
O13	O	-1.272343	-0.234993	-0.085319
O14	O	-0.772343	0.265007	0.414681
Zn15	Zn	-1.132479	-0.232371	-0.112365
Zn16	Zn	-0.632479	0.267629	0.387635
Zn17	Zn	-1.145162	-0.219663	0.112181
Zn18	Zn	-0.645162	0.280337	0.612181
O19	O	-1.138161	-0.369175	-0.085296
O20	O	-0.638161	0.130825	0.414704
C21	C	-0.964864	-0.218228	-0.000076
C22	C	-0.464864	0.281772	0.499924
C23	C	-0.858722	-0.207383	-0.000066
C24	C	-0.358722	0.292617	0.499934
C25	C	-1.312777	-0.233806	-0.000106
C26	C	-0.812777	0.266194	0.499894
C27	C	-1.418920	-0.244651	-0.000109
C28	C	-0.918920	0.255349	0.499891
C29	C	-1.131031	-0.052060	-0.000102
C30	C	-0.631031	0.447940	0.499898
C31	C	-1.120187	0.054083	-0.000102
C32	C	-0.620187	0.554083	0.499898
C33	C	-0.664383	-0.187558	-0.000088
C34	C	-0.164383	0.312442	0.499912
C35	C	-0.613253	-0.264472	-0.000087
C36	C	-0.113253	0.235528	0.499913
C37	C	-0.505116	-0.253441	-0.000099
C38	C	-0.005116	0.246559	0.499901
C39	C	-0.772529	-0.198587	-0.000076
C40	C	-0.272529	0.301413	0.499924
C41	C	-1.146610	-0.399974	-0.000080
C42	C	-0.646610	0.100026	0.499920
C43	C	-1.157455	-0.506116	-0.000073
C44	C	-0.657455	-0.006116	0.499927
N45	N	-1.123831	-0.241043	-0.265612
N46	N	-0.623831	0.258957	0.234388
C47	C	-1.100362	0.248421	-0.000086
C48	C	-0.600362	0.748421	0.499914
C49	C	-1.177276	0.299551	-0.000090
C50	C	-0.677276	0.799551	0.499910
C51	C	-1.166245	0.407688	-0.000080
C52	C	-0.666245	0.907688	0.499920
C53	C	-1.111391	0.140275	-0.000095
C54	C	-0.611391	0.640275	0.499905
C55	C	-1.112065	-0.252851	-0.474653
C56	C	-0.612065	0.247149	0.025347
C57	C	-1.165580	-0.199179	-0.525538
C58	C	-0.665580	0.300821	-0.025538
C59	C	-1.159034	-0.205749	-0.641855
C60	C	-0.659034	0.294251	-0.141855
C61	C	-1.118610	-0.246282	-0.358325
C62	C	-0.618610	0.253718	0.141675
N63	N	-1.153817	-0.210984	0.265428
N64	N	-0.653817	0.289016	0.765428
H65	H	-0.650693	-0.338605	-0.000077
H66	H	-0.150693	0.161395	0.499923
O67	O	-0.619578	-0.099188	-0.000047
O68	O	-0.119578	0.400812	0.499953
C69	C	-0.520019	-0.107712	-0.000080
C70	C	-0.020019	0.392288	0.499920
H71	H	-0.504877	-0.178451	0.032181
H72	H	-0.004877	0.321549	0.532181
H73	H	-0.487380	-0.046166	0.049400
H74	H	0.012620	0.453834	0.549400
H75	H	-0.487292	-0.105409	-0.081845
H76	H	0.012708	0.394591	0.418155
H77	H	-1.216314	-0.148295	-0.481744
H78	H	-0.716314	0.351705	0.018256
O79	O	-1.265645	0.254739	-0.000153
O80	O	-0.765645	0.754739	0.499847
C81	C	-1.257134	0.155182	-0.000135
C82	C	-0.757134	0.655182	0.499865
H83	H	-1.182749	0.136395	-0.032388
H84	H	-0.682749	0.636395	0.467612
H85	H	-1.313087	0.116967	-0.049631
H86	H	-0.813087	0.616967	0.450369
H87	H	-1.268686	0.131677	0.081624
H88	H	-0.768686	0.631677	0.581624
H89	H	-1.026235	0.285859	-0.000076
H90	H	-0.526235	0.785859	0.499924
O91	O	-1.051629	-0.313540	-0.527047
O92	O	-0.551629	0.186460	-0.027047
C93	C	-1.058460	-0.306661	-0.633201
C94	C	-0.558460	0.193339	-0.133201
H95	H	-1.130483	-0.278109	-0.647720
H96	H	-0.630483	0.221891	-0.147720
H97	H	-1.051820	-0.380343	-0.674064
H98	H	-0.551820	0.119657	-0.174064
H99	H	-0.998602	-0.255970	-0.663659
H100	H	-0.498602	0.244030	-0.163659
