data_functionalizedCrystal
_audit_creation_method	'MofGen! by Chris Wilmer'
_symmetry_space_group_name_H-M	'P1'
_symmetry_Int_Tables_number	1
_symmetry_cell_setting	triclinic
loop_
_symmetry_equiv_pos_as_xyz
  x,y,z
_cell_length_a	12.594516
_cell_length_b	18.101398
_cell_length_c	18.101390
_cell_angle_alpha	90.010099
_cell_angle_beta	90.027015
_cell_angle_gamma	90.011609
loop_
_atom_site_label
_atom_site_type_symbol
_atom_site_fract_x
_atom_site_fract_y
_atom_site_fract_z
Zn1	Zn	-0.423828	1.132201	0.418581
Zn2	Zn	0.076172	1.632201	0.918581
Zn3	Zn	-0.601841	1.132129	0.294752
Zn4	Zn	-0.101841	1.632129	0.794752
Zn5	Zn	-0.423863	1.008359	0.294774
Zn6	Zn	0.076137	1.508359	0.794774
Zn7	Zn	-0.601751	1.008343	0.418572
Zn8	Zn	-0.101751	1.508343	0.918572
O9	O	-0.512820	1.070258	0.356670
O10	O	-0.012820	1.570258	0.856670
O11	O	-0.447465	1.235824	0.402149
O12	O	0.052535	1.735824	0.902149
O13	O	-0.578284	1.115687	0.191122
O14	O	-0.078284	1.615687	0.691122
O15	O	-0.274912	1.024824	0.311210
O16	O	0.225088	1.524824	0.811210
O17	O	-0.578250	1.235771	0.311173
O18	O	-0.078250	1.735771	0.811173
O19	O	-0.274887	1.115810	0.402170
O20	O	0.225113	1.615810	0.902170
O21	O	-0.447524	1.024754	0.191138
O22	O	0.052476	1.524754	0.691138
O23	O	-0.447437	0.904724	0.311201
O24	O	0.052563	1.404724	0.811201
O25	O	-0.578097	1.024797	0.522206
O26	O	-0.078097	1.524797	1.022206
O27	O	-0.578131	0.904712	0.402155
O28	O	-0.078131	1.404712	0.902155
O29	O	-0.447378	1.115795	0.522213
O30	O	0.052622	1.615795	1.022213
O31	O	-0.750774	1.115671	0.311165
O32	O	-0.250774	1.615671	0.811165
O33	O	-0.750709	1.024727	0.402135
O34	O	-0.250709	1.524727	0.902135
C35	C	-0.512779	0.877847	0.356680
C36	C	-0.012779	1.377847	0.856680
C37	C	-0.512786	0.795533	0.356702
C38	C	-0.012786	1.295533	0.856702
C39	C	-0.512849	0.496442	0.356671
C40	C	-0.012849	0.996442	0.856671
C41	C	-0.595476	0.527785	0.413615
C42	C	-0.095476	1.027785	0.913615
C43	C	-0.595217	0.613403	0.413849
C44	C	-0.095217	1.113403	0.913849
C45	C	-0.512819	0.644825	0.356687
C46	C	-0.012819	1.144825	0.856687
C47	C	-0.400708	0.613750	0.378006
C48	C	0.099292	1.113750	0.878006
C49	C	-0.401204	0.528105	0.378411
C50	C	0.098796	1.028105	0.878411
C51	C	-0.541345	0.527995	0.278270
C52	C	-0.041345	1.027995	0.778270
C53	C	-0.543805	0.613645	0.278690
C54	C	-0.043805	1.113645	0.778690
C55	C	-0.512795	0.728684	0.356694
C56	C	-0.012795	1.228684	0.856694
C57	C	-0.512865	0.412583	0.356666
C58	C	-0.012865	0.912583	0.856666
C59	C	-0.789361	1.070209	0.356663
C60	C	-0.289361	1.570209	0.856663
C61	C	-0.907667	1.070256	0.356684
C62	C	-0.407667	1.570256	0.856684
C63	C	-0.976923	1.020787	0.406128
C64	C	-0.476923	1.520787	0.906128
C65	C	-1.047788	1.002745	0.338555
C66	C	-0.547788	1.502745	0.838555
C67	C	-1.047601	1.088366	0.424269
C68	C	-0.547601	1.588366	0.924269
C69	C	-0.976973	1.052179	0.289075
C70	C	-0.476973	1.552179	0.789075
C71	C	-0.976781	1.137831	0.374835
C72	C	-0.476781	1.637831	0.874835
C73	C	-1.047613	1.119815	0.307215
C74	C	-0.547613	1.619815	0.807215
C75	C	-0.235200	1.070327	0.356693
C76	C	0.264800	1.570327	0.856693
C77	C	-0.116894	1.070356	0.356703
C78	C	0.383106	1.570356	0.856703
C79	C	-0.512723	1.070302	0.549832
C80	C	-0.012723	1.570302	1.049832
C81	C	-0.512682	1.070321	0.632146
C82	C	-0.012682	1.570321	1.132146
C83	C	-0.512863	1.263420	0.356660
C84	C	-0.012863	1.763420	0.856660
C85	C	-0.512881	1.345734	0.356656
C86	C	-0.012881	1.845734	0.856656
C87	C	-0.512840	1.070257	0.164259
C88	C	-0.012840	1.570257	0.664259
C89	C	-0.512582	1.070382	0.081946
C90	C	-0.012582	1.570382	0.581946
C91	C	-0.512616	1.070361	0.931237
C92	C	-0.012616	1.570361	1.431237
C93	C	-0.430660	1.127803	0.899916
C94	C	0.069340	1.627803	1.399916
C95	C	-0.430356	1.127623	0.814298
C96	C	0.069644	1.627623	1.314298
C97	C	-0.512648	1.070342	0.782854
C98	C	-0.012648	1.570342	1.282854
C99	C	-0.482165	0.992319	0.813939
C100	C	0.017835	1.492319	1.313939
C101	C	-0.481551	0.992663	0.899584
C102	C	0.018449	1.492663	1.399584
C103	C	-0.625265	1.090254	0.899654
C104	C	-0.125265	1.590254	1.399654
C105	C	-0.624690	1.091966	0.814004
C106	C	-0.124690	1.591966	1.314004
C107	C	-0.512669	1.070326	0.698995
C108	C	-0.012669	1.570326	1.198995
C109	C	-0.512592	1.070371	1.015097
C110	C	-0.012592	1.570371	1.515097
H111	H	-0.337435	0.507371	0.338837
H112	H	0.162565	1.007371	0.838837
Br113	Br	-0.733794	0.648426	0.391613
Br114	Br	-0.233794	1.148426	0.891613
H115	H	-0.487994	0.635035	0.233984
H116	H	0.012006	1.135035	0.733984
H117	H	-0.946077	1.036836	0.231912
H118	H	-0.446077	1.536836	0.731912
Br119	Br	-0.295310	0.647671	0.311039
Br120	Br	0.204690	1.147671	0.811039
H121	H	-0.481160	0.507725	0.235842
H122	H	0.018840	1.007725	0.735842
H123	H	-1.078625	1.103642	0.481416
H124	H	-0.578625	1.603642	0.981416
Br125	Br	-1.099022	1.189618	0.237462
Br126	Br	-0.599022	1.689618	0.737462
Br127	Br	-0.924757	1.232982	0.400449
Br128	Br	-0.424757	1.732982	0.900449
Br129	Br	-0.578599	0.919045	0.780005
Br130	Br	-0.078599	1.419045	1.280005
Br131	Br	-1.099768	0.907570	0.312970
Br132	Br	-0.599768	1.407570	0.812970
Br133	Br	-0.462158	1.224054	0.779265
Br134	Br	0.037842	1.724054	1.279265
Br135	Br	-0.462076	1.224550	0.934242
Br136	Br	0.037924	1.724550	1.434242
H137	H	-0.347673	1.114800	0.921450
H138	H	0.152327	1.614800	1.421450
H139	H	-0.576361	0.633903	0.471939
H140	H	-0.076361	1.133903	0.971939
Br141	Br	-0.675261	0.491982	0.245966
Br142	Br	-0.175261	0.991982	0.745966
Br143	Br	-0.291262	1.105674	0.780162
Br144	Br	0.208738	1.605674	1.280162
Br145	Br	-0.344320	0.964519	0.932903
Br146	Br	0.155680	1.464519	1.432903
Br147	Br	-0.576694	0.918893	0.934122
Br148	Br	-0.076694	1.418893	1.434122
H149	H	-0.400734	0.975151	0.792497
H150	H	0.099266	1.475151	1.292497
H151	H	-0.653020	1.146151	0.921291
H152	H	-0.153020	1.646151	1.421291
H153	H	-0.647676	1.149384	0.793686
H154	H	-0.147676	1.649384	1.293686
Br155	Br	-0.925184	0.950940	0.475721
Br156	Br	-0.425184	1.450940	0.975721
H157	H	-0.376103	0.635211	0.434697
H158	H	0.123897	1.135211	0.934697
H159	H	-0.689035	1.053172	0.792597
H160	H	-0.189035	1.553172	1.292597
H161	H	-0.686331	1.048420	0.919915
H162	H	-0.186331	1.548420	1.419915
H163	H	-0.678883	0.507185	0.400403
H164	H	-0.178883	1.007185	0.900403
H165	H	-0.576860	0.506272	0.471369
H166	H	-0.076860	1.006272	0.971369
H167	H	-0.377036	0.508140	0.435725
H168	H	0.122964	1.008140	0.935725
H169	H	-0.626302	0.633964	0.262610
H170	H	-0.126302	1.133964	0.762610
