data_functionalizedCrystal
_audit_creation_method	'MofGen! by Chris Wilmer'
_symmetry_space_group_name_H-M	'P1'
_symmetry_Int_Tables_number	1
_symmetry_cell_setting	triclinic
loop_
_symmetry_equiv_pos_as_xyz
  x,y,z
_cell_length_a	14.971482
_cell_length_b	8.559649
_cell_length_c	13.448316
_cell_angle_alpha	89.994831
_cell_angle_beta	89.993798
_cell_angle_gamma	76.695636
loop_
_atom_site_label
_atom_site_type_symbol
_atom_site_fract_x
_atom_site_fract_y
_atom_site_fract_z
O1	O	1.172525	0.208175	-0.082674
O2	O	0.910396	0.233114	-0.082679
O3	O	1.064554	-0.011914	-0.082675
O4	O	1.018367	0.453203	-0.082678
O5	O	1.064538	-0.011929	0.082709
O6	O	0.910380	0.233099	0.082705
O7	O	1.172508	0.208160	0.082710
Cu8	Cu	1.041443	0.220628	0.097808
Cu9	Cu	1.041462	0.220646	-0.097777
O10	O	1.018350	0.453188	0.082706
C11	C	0.877140	0.231992	0.000013
C12	C	0.778074	0.228653	0.000011
C13	C	0.731530	0.227072	0.090163
C14	C	0.638451	0.223909	0.090164
C15	C	0.591916	0.222339	0.000012
C16	C	0.638468	0.223915	-0.090147
C17	C	0.731547	0.227066	-0.090147
C18	C	0.444461	0.217350	-0.090140
C19	C	0.351374	0.214202	-0.090141
C20	C	0.351364	0.214193	0.090170
C21	C	0.444444	0.217345	0.090170
C22	C	0.490988	0.218924	0.000011
C23	C	1.068046	-0.071445	0.000015
C24	C	1.078465	-0.248805	0.000010
C25	C	1.205764	0.209282	0.000016
C26	C	1.304830	0.212621	0.000011
C27	C	1.014858	0.512719	0.000014
C28	C	1.004439	0.690079	0.000013
N29	N	1.041436	0.220614	0.235373
N30	N	1.041477	0.220647	-0.235342
C31	C	1.109713	0.112161	0.287414
C32	C	1.109718	0.112159	0.391518
C33	C	1.041450	0.220621	0.443577
C34	C	0.973166	0.329080	0.391528
C35	C	0.973158	0.329072	0.287427
C36	C	0.973190	0.329090	0.608508
C37	C	0.973200	0.329100	0.712617
C38	C	1.109751	0.112178	0.712599
C39	C	1.109743	0.112170	0.608498
C40	C	1.041459	0.220632	0.556456
H41	H	0.600562	0.222595	0.163575
H42	H	1.149817	-0.332176	0.000019
H43	H	0.482328	0.218633	0.163580
C44	C	0.782750	0.228811	-0.189314
C45	C	0.789642	0.089759	-0.263689
C46	C	0.840846	0.091495	-0.362859
C47	C	0.885158	0.232283	-0.387655
C48	C	0.878267	0.371345	-0.313279
C49	C	0.827063	0.369609	-0.214109
H50	H	0.756839	-0.014469	-0.245335
H51	H	0.845947	-0.011448	-0.417918
H52	H	0.923062	0.233568	-0.461067
H53	H	0.911070	0.475573	-0.331633
H54	H	0.821962	0.472552	-0.159050
H55	H	0.313463	0.212908	0.163581
H56	H	0.482354	0.218637	-0.163557
C57	C	0.898053	0.448377	0.230177
C58	C	0.822986	0.567739	0.287437
C59	C	0.747875	0.687042	0.230189
C60	C	0.747832	0.686982	0.115682
C61	C	0.822902	0.567616	0.058416
C62	C	0.898012	0.448313	0.115663
H63	H	0.823015	0.567787	0.372208
H64	H	0.692304	0.775405	0.272582
H65	H	0.692231	0.775297	0.073304
H66	H	0.822873	0.567568	-0.026355
H67	H	0.953584	0.359950	0.073271
C68	C	0.908049	-0.197315	0.000006
C69	C	0.841066	-0.204486	0.085886
C70	C	0.744674	-0.091868	0.085879
C71	C	0.715265	0.027921	-0.000006
C72	C	0.782250	0.035097	-0.085892
C73	C	0.878642	-0.077521	-0.085886
H74	H	0.862835	-0.293166	0.149469
H75	H	0.695087	-0.097181	0.149458
H76	H	0.643910	0.111288	-0.000011
H77	H	0.760481	0.123777	-0.149476
H78	H	0.928228	-0.072208	-0.149465
H79	H	1.165308	0.023846	0.245035
C80	C	1.184837	-0.007133	0.551227
C81	C	1.195843	-0.189073	0.565545
C82	C	1.270935	-0.308379	0.508273
C83	C	1.335022	-0.245746	0.436682
C84	C	1.324017	-0.063797	0.422361
C85	C	1.248925	0.055510	0.479633
H86	H	1.148400	-0.235446	0.618544
H87	H	1.279081	-0.443070	0.518875
H88	H	1.390610	-0.334063	0.394286
H89	H	1.371460	-0.017423	0.369362
H90	H	1.240779	0.190201	0.469031
H91	H	0.313488	0.212924	-0.163550
H92	H	0.917577	0.417386	0.433921
C93	C	1.184860	-0.007136	0.769844
C94	C	1.184868	-0.007139	0.884351
C95	C	1.259976	-0.126441	0.941602
C96	C	1.335077	-0.245740	0.884345
C97	C	1.335072	-0.245742	0.769831
C98	C	1.259963	-0.126440	0.712581
H99	H	1.129271	0.081177	0.926741
H100	H	1.259979	-0.126439	1.026373
H101	H	1.390676	-0.334054	0.926726
H102	H	1.390668	-0.334058	0.727441
H103	H	1.259960	-0.126442	0.627810
H104	H	1.165314	0.023847	0.433890
H105	H	0.917584	0.417406	0.566139
C106	C	0.782715	0.228808	0.189332
C107	C	0.750222	0.366994	0.263705
C108	C	0.801406	0.368728	0.362876
C109	C	0.885082	0.232277	0.387674
C110	C	0.917580	0.094080	0.313299
C111	C	0.866396	0.092346	0.214128
H112	H	0.688276	0.468014	0.245350
H113	H	0.777349	0.471031	0.417933
H114	H	0.922972	0.233560	0.461086
H115	H	0.979526	-0.006939	0.331654
H116	H	0.890453	-0.009957	0.159071
C117	C	0.587281	0.222183	-0.189315
C118	C	0.619766	0.083993	-0.263687
C119	C	0.568581	0.082265	-0.362857
C120	C	0.484910	0.218728	-0.387656
C121	C	0.452420	0.356928	-0.313282
C122	C	0.503606	0.358656	-0.214111
H123	H	0.681708	-0.017034	-0.245331
H124	H	0.592632	-0.020041	-0.417913
H125	H	0.447019	0.217449	-0.461067
H126	H	0.390478	0.457955	-0.331637
H127	H	0.479555	0.460962	-0.159055
H128	H	0.917608	0.417419	0.754998
