data_functionalizedCrystal
_audit_creation_method	'MofGen! by Chris Wilmer'
_symmetry_space_group_name_H-M	'P1'
_symmetry_Int_Tables_number	1
_symmetry_cell_setting	triclinic
loop_
_symmetry_equiv_pos_as_xyz
  x,y,z
_cell_length_a	19.805407
_cell_length_b	19.805405
_cell_length_c	19.805399
_cell_angle_alpha	89.970699
_cell_angle_beta	89.978936
_cell_angle_gamma	90.025395
loop_
_atom_site_label
_atom_site_type_symbol
_atom_site_fract_x
_atom_site_fract_y
_atom_site_fract_z
Zn1	Zn	-1.034736	0.269497	0.382738
Zn2	Zn	-0.534736	0.769497	0.882738
Zn3	Zn	-1.034651	0.382686	0.269547
Zn4	Zn	-0.534651	0.882686	0.769547
Zn5	Zn	-0.921550	0.269514	0.269560
Zn6	Zn	-0.421550	0.769514	0.769560
Zn7	Zn	-0.921514	0.382648	0.382691
Zn8	Zn	-0.421514	0.882648	0.882691
O9	O	-0.978113	0.326086	0.326134
O10	O	-0.478113	0.826086	0.826134
O11	O	-1.129441	0.284521	0.367738
O12	O	-0.629441	0.784521	0.867738
O13	O	-1.019627	0.367696	0.174832
O14	O	-0.519627	0.867696	0.674832
O15	O	-0.936616	0.174795	0.284599
O16	O	-0.436616	0.674795	0.784599
O17	O	-1.129378	0.367680	0.284576
O18	O	-0.629378	0.867680	0.784576
O19	O	-1.019772	0.174783	0.367751
O20	O	-0.519772	0.674783	0.867751
O21	O	-0.936533	0.284549	0.174842
O22	O	-0.436533	0.784549	0.674842
O23	O	-0.826829	0.284512	0.284553
O24	O	-0.326829	0.784512	0.784553
O25	O	-0.936553	0.367615	0.477414
O26	O	-0.436553	0.867615	0.977414
O27	O	-0.826802	0.367631	0.367669
O28	O	-0.326802	0.867631	0.867669
O29	O	-1.019737	0.284484	0.477449
O30	O	-0.519737	0.784484	0.977449
O31	O	-1.019592	0.477397	0.284530
O32	O	-0.519592	0.977397	0.784530
O33	O	-0.936471	0.477369	0.367656
O34	O	-0.436471	0.977369	0.867656
C35	C	-0.802257	0.326070	0.326108
C36	C	-0.302257	0.826070	0.826108
C37	C	-0.727025	0.326079	0.326112
C38	C	-0.227025	0.826079	0.826112
C39	C	-0.978036	0.501942	0.326101
C40	C	-0.478036	1.001942	0.826101
C41	C	-0.978066	0.577174	0.326110
C42	C	-0.478066	1.077174	0.826110
C43	C	-0.691684	0.369424	0.369320
C44	C	-0.191684	0.869424	0.869320
C45	C	-0.620996	0.369424	0.369328
C46	C	-0.120996	0.869424	0.869328
C47	C	-0.585649	0.326082	0.326124
C48	C	-0.085649	0.826082	0.826124
C49	C	-0.620994	0.282733	0.282914
C50	C	-0.120994	0.782733	0.782914
C51	C	-0.691681	0.282730	0.282910
C52	C	-0.191681	0.782730	0.782910
C53	C	-0.335921	0.282743	0.282929
C54	C	0.164079	0.782743	0.782929
C55	C	-0.265229	0.282750	0.282935
C56	C	0.234771	0.782750	0.782935
C57	C	-0.265235	0.369437	0.369346
C58	C	0.234765	0.869437	0.869346
C59	C	-0.335922	0.369434	0.369343
C60	C	0.164078	0.869434	0.869343
C61	C	-0.371262	0.326082	0.326136
C62	C	0.128738	0.826082	0.826136
C63	C	-0.447910	0.326082	0.326129
C64	C	0.052090	0.826082	0.826129
C65	C	-0.509002	0.326085	0.326127
C66	C	-0.009002	0.826085	0.826127
C67	C	-0.154655	0.326098	0.326154
C68	C	0.345345	0.826098	0.826154
C69	C	-0.229887	0.326092	0.326146
C70	C	0.270113	0.826092	0.826146
C71	C	-0.978151	0.326043	0.502677
C72	C	-0.478151	0.826043	1.002677
C73	C	-0.978167	0.326025	0.577909
C74	C	-0.478167	0.826025	1.077909
C75	C	-0.978207	0.149543	0.326182
C76	C	-0.478207	0.649543	0.826182
C77	C	-0.978248	0.074311	0.326202
C78	C	-0.478248	0.574311	0.826202
C79	C	-1.021389	0.612510	0.282871
C80	C	-0.521389	1.112510	0.782871
C81	C	-1.021418	0.683199	0.282886
C82	C	-0.521418	1.183199	0.782886
C83	C	-0.978119	0.718550	0.326137
C84	C	-0.478119	1.218550	0.826137
C85	C	-0.934794	0.683208	0.369380
C86	C	-0.434794	1.183208	0.869380
C87	C	-0.934769	0.612521	0.369368
C88	C	-0.434769	1.112521	0.869368
C89	C	-0.934894	0.968282	0.369430
C90	C	-0.434894	1.468282	0.869430
C91	C	-0.934921	1.038974	0.369438
C92	C	-0.434921	1.538974	0.869438
C93	C	-1.021542	1.038959	0.282949
C94	C	-0.521542	1.538959	0.782949
C95	C	-1.021517	0.968272	0.282936
C96	C	-0.521517	1.468272	0.782936
C97	C	-0.978195	0.932937	0.326182
C98	C	-0.478195	1.432937	0.826182
C99	C	-0.978166	0.856289	0.326166
C100	C	-0.478166	1.356289	0.826166
C101	C	-0.978145	0.795197	0.326150
C102	C	-0.478145	1.295197	0.826150
C103	C	-0.978114	0.326080	0.150278
C104	C	-0.478114	0.826080	0.650278
C105	C	-0.978229	0.325907	0.075046
C106	C	-0.478229	0.825907	0.575046
C107	C	-1.021481	0.282737	0.613272
C108	C	-0.521481	0.782737	1.113272
C109	C	-1.021488	0.282717	0.683961
C110	C	-0.521488	0.782717	1.183961
C111	C	-0.978184	0.325990	0.719285
C112	C	-0.478184	0.825990	1.219285
C113	C	-0.934864	0.369280	0.683916
C114	C	-0.434864	0.869280	1.183916
C115	C	-0.934854	0.369296	0.613229
C116	C	-0.434854	0.869296	1.113229
C117	C	-0.934902	0.369217	0.968989
C118	C	-0.434902	0.869217	1.468989
C119	C	-0.934917	0.369200	1.039682
C120	C	-0.434917	0.869200	1.539682
C121	C	-1.021536	0.282638	1.039722
C122	C	-0.521536	0.782638	1.539722
C123	C	-1.021527	0.282654	0.969034
C124	C	-0.521527	0.782654	1.469034
C125	C	-0.978205	0.325942	0.933672
C126	C	-0.478205	0.825942	1.433672
C127	C	-0.978197	0.325961	0.857024
C128	C	-0.478197	0.825961	1.357024
C129	C	-0.978194	0.325974	0.795932
C130	C	-0.478194	0.825974	1.295932
H131	H	-0.592225	0.404720	0.404511
H132	H	-0.092225	0.904720	0.904511
O133	O	-0.370153	0.411557	0.411375
O134	O	0.129847	0.911557	0.911375
C135	C	-0.362697	0.497566	0.497063
C136	C	0.137303	0.997566	0.997063
C137	C	-0.323849	0.449887	0.449504
C138	C	0.176151	0.949887	0.949504
H139	H	-0.325277	0.528578	0.527893
H140	H	0.174723	1.028578	1.027893
H141	H	-0.395799	0.466567	0.532554
H142	H	0.104201	0.966567	1.032554
H143	H	-0.395783	0.532886	0.465912
H144	H	0.104217	1.032886	0.965912
H145	H	-0.290726	0.414557	0.480601
H146	H	0.209274	0.914557	0.980601
H147	H	-0.290789	0.480928	0.414012
H148	H	0.209211	0.980928	0.914012
H149	H	-1.056773	0.939491	0.247716
H150	H	-0.556773	1.439491	0.747716
O151	O	-0.586733	0.240663	0.240853
O152	O	-0.086733	0.740663	0.740853
C153	C	-0.565035	0.207683	0.125780
C154	C	-0.065035	0.707683	0.625780
C155	C	-0.603888	0.255357	0.173340
C156	C	-0.103888	0.755357	0.673340
H157	H	-0.578880	0.219555	0.071185
H158	H	-0.078880	0.719555	0.571185
H159	H	-0.578971	0.153109	0.137710
H160	H	-0.078971	0.653109	0.637710
H161	H	-0.508446	0.215121	0.133239
H162	H	-0.008446	0.715121	0.633239
H163	H	-0.660486	0.247979	0.165907
H164	H	-0.160486	0.747979	0.665907
H165	H	-0.589896	0.309914	0.161398
H166	H	-0.089896	0.809914	0.661398
H167	H	-0.899576	0.404539	0.584437
H168	H	-0.399576	0.904539	1.084437
O169	O	-0.230801	0.411481	0.411303
O170	O	0.269199	0.911481	0.911303
C171	C	-0.121908	0.449937	0.449584
C172	C	0.378092	0.949937	0.949584
C173	C	-0.160817	0.402277	0.402050
C174	C	0.339183	0.902277	0.902050
H175	H	-0.065319	0.442523	0.442110
H176	H	0.434681	0.942523	0.942110
H177	H	-0.135786	0.438124	0.504197
H178	H	0.364214	0.938124	1.004197
H179	H	-0.135820	0.504490	0.437602
H180	H	0.364180	1.004490	0.937602
H181	H	-0.146926	0.347708	0.413971
H182	H	0.353074	0.847708	0.913971
H183	H	-0.146935	0.414149	0.347451
H184	H	0.353065	0.914149	0.847451
O185	O	-0.726089	0.240722	0.240903
O186	O	-0.226089	0.740722	0.740903
C187	C	-0.805835	0.231496	0.149509
C188	C	-0.305835	0.731496	0.649509
C189	C	-0.766923	0.279149	0.197048
C190	C	-0.266923	0.779149	0.697048
H191	H	-0.838847	0.262545	0.114031
H192	H	-0.338847	0.762545	0.614031
H193	H	-0.839001	0.196155	0.180611
H194	H	-0.339001	0.696155	0.680611
H195	H	-0.768420	0.200503	0.118659
H196	H	-0.268420	0.700503	0.618659
H197	H	-0.804289	0.310185	0.227908
H198	H	-0.304289	0.810185	0.727908
H199	H	-0.733746	0.314445	0.165907
H200	H	-0.233746	0.814445	0.665907
O201	O	-0.230997	0.240578	0.240946
O202	O	0.269003	0.740578	0.740946
C203	C	-0.238446	0.154615	0.155212
C204	C	0.261554	0.654615	0.655212
C205	C	-0.277298	0.202324	0.202738
C206	C	0.222702	0.702324	0.702738
H207	H	-0.275863	0.123683	0.124298
H208	H	0.224137	0.623683	0.624298
H209	H	-0.205395	0.119226	0.186326
H210	H	0.294605	0.619226	0.686326
H211	H	-0.205307	0.185655	0.119793
H212	H	0.294693	0.685655	0.619793
H213	H	-0.310473	0.171338	0.238166
H214	H	0.189527	0.671338	0.738166
H215	H	-0.310305	0.237714	0.171582
H216	H	0.189695	0.737714	0.671582
H217	H	-1.056820	1.067737	0.247739
H218	H	-0.556820	1.567737	0.747739
O219	O	-0.892641	0.717471	0.411363
O220	O	-0.392641	1.217471	0.911363
C221	C	-0.777494	0.739195	0.444087
C222	C	-0.277494	1.239195	0.944087
C223	C	-0.825159	0.700343	0.396511
C224	C	-0.325159	1.200343	0.896511
H225	H	-0.722924	0.725372	0.432088
H226	H	-0.222924	1.225372	0.932088
H227	H	-0.789288	0.725237	0.498685
H228	H	-0.289288	1.225237	0.998685
H229	H	-0.784985	0.795784	0.436681
H230	H	-0.284985	1.295784	0.936681
H231	H	-0.817694	0.643745	0.403857
H232	H	-0.317694	1.143745	0.903857
H233	H	-0.813352	0.714357	0.341931
H234	H	-0.313352	1.214357	0.841931
O235	O	-0.892776	0.933886	0.411336
O236	O	-0.392776	1.433886	0.911336
C237	C	-0.801333	0.854174	0.420334
C238	C	-0.301333	1.354174	0.920334
C239	C	-0.849003	0.893079	0.372799
C240	C	-0.349003	1.393079	0.872799
H241	H	-0.765921	0.821184	0.389195
H242	H	-0.265921	1.321184	0.889195
H243	H	-0.832336	0.820986	0.455741
H244	H	-0.332336	1.320986	0.955741
H245	H	-0.770418	0.891594	0.451261
H246	H	-0.270418	1.391594	0.951261
H247	H	-0.879927	0.855709	0.341828
H248	H	-0.379927	1.355709	0.841828
H249	H	-0.817960	0.926277	0.337437
H250	H	-0.317960	1.426277	0.837437
H251	H	-0.899602	0.404511	0.712682
H252	H	-0.399602	0.904511	1.212682
H253	H	-0.899637	0.404475	0.940206
H254	H	-0.399637	0.904475	1.440206
H255	H	-0.899492	0.583751	0.404578
H256	H	-0.399492	1.083751	0.904578
H257	H	-1.056809	0.247389	1.068522
H258	H	-0.556809	0.747389	1.568522
O259	O	-0.892841	1.073210	0.411522
O260	O	-0.392841	1.573210	0.911522
C261	C	-0.806898	1.065770	0.497290
C262	C	-0.306898	1.565770	0.997290
C263	C	-0.854527	1.026913	0.449680
C264	C	-0.354527	1.526913	0.949680
H265	H	-0.775898	1.028355	0.528143
H266	H	-0.275898	1.528355	1.028143
H267	H	-0.837936	1.098798	0.532756
H268	H	-0.337936	1.598798	1.032756
H269	H	-0.771563	1.098930	0.466176
H270	H	-0.271563	1.598930	0.966176
H271	H	-0.889871	0.993716	0.480738
H272	H	-0.389871	1.493716	0.980738
H273	H	-0.823446	0.993927	0.414212
H274	H	-0.323446	1.493927	0.914212
O275	O	-0.892781	0.411256	1.073892
O276	O	-0.392781	0.911256	1.573892
C277	C	-0.806883	0.497139	1.066397
C278	C	-0.306883	0.997139	1.566397
C279	C	-0.854551	0.449537	1.027570
C280	C	-0.354551	0.949537	1.527570
H281	H	-0.775972	0.528113	1.028963
H282	H	-0.275972	1.028113	1.528963
H283	H	-0.771473	0.466081	1.099475
H284	H	-0.271473	0.966081	1.599475
H285	H	-0.837954	0.532499	1.099504
H286	H	-0.337954	1.032499	1.599504
H287	H	-0.823535	0.414168	0.994426
H288	H	-0.323535	0.914168	1.494426
H289	H	-0.889962	0.480638	0.994534
H290	H	-0.389962	0.980638	1.494534
H291	H	-0.364686	0.247448	0.247742
H292	H	0.135314	0.747448	0.747742
O293	O	-1.063570	0.240637	0.579067
O294	O	-0.563570	0.740637	1.079067
C295	C	-1.149515	0.154801	0.586575
C296	C	-0.649515	0.654801	1.086575
C297	C	-1.101873	0.202436	0.625394
C298	C	-0.601873	0.702436	1.125394
H299	H	-1.180505	0.123913	0.624014
H300	H	-0.680505	0.623913	1.124014
H301	H	-1.118487	0.119368	0.553503
H302	H	-0.618487	0.619368	1.053503
H303	H	-1.184857	0.185897	0.553462
H304	H	-0.684857	0.685897	1.053462
H305	H	-1.066522	0.171395	0.658544
H306	H	-0.566522	0.671395	1.158544
H307	H	-1.132943	0.237870	0.658424
H308	H	-0.632943	0.737870	1.158424
O309	O	-1.063466	0.240589	0.718338
O310	O	-0.563466	0.740589	1.218338
C311	C	-1.072627	0.149199	0.798186
C312	C	-0.572627	0.649199	1.298186
C313	C	-1.025012	0.196864	0.759288
C314	C	-0.525012	0.696864	1.259288
H315	H	-1.041556	0.113845	0.831314
H316	H	-0.541556	0.613845	1.331314
H317	H	-1.103561	0.118228	0.760822
H318	H	-0.603561	0.618228	1.260822
H319	H	-1.108023	0.180274	0.831255
H320	H	-0.608023	0.680274	1.331255
H321	H	-0.989575	0.165841	0.726218
H322	H	-0.489575	0.665841	1.226218
H323	H	-0.994125	0.227837	0.796689
H324	H	-0.494125	0.727837	1.296689
H325	H	-1.056792	0.247419	0.940277
H326	H	-0.556792	0.747419	1.440277
H327	H	-1.056644	0.583732	0.247649
H328	H	-0.556644	1.083732	0.747649
H329	H	-1.056695	0.711966	0.247677
H330	H	-0.556695	1.211966	0.747677
O331	O	-0.725912	0.411548	0.411353
O332	O	-0.225912	0.911548	0.911353
C333	C	-0.718450	0.497557	0.497041
C334	C	-0.218450	0.997557	0.997041
C335	C	-0.679605	0.449876	0.449481
C336	C	-0.179605	0.949876	0.949481
H337	H	-0.681027	0.528567	0.527870
H338	H	-0.181027	1.028567	1.027870
H339	H	-0.751552	0.466558	0.532533
H340	H	-0.251552	0.966558	1.032533
H341	H	-0.751535	0.532878	0.465891
H342	H	-0.251535	1.032878	0.965891
H343	H	-0.646483	0.414544	0.480577
H344	H	-0.146483	0.914544	0.980577
H345	H	-0.646545	0.480916	0.413988
H346	H	-0.146545	0.980916	0.913988
