data_functionalizedCrystal
_audit_creation_method	'MofGen! by Chris Wilmer'
_symmetry_space_group_name_H-M	'P1'
_symmetry_Int_Tables_number	1
_symmetry_cell_setting	triclinic
loop_
_symmetry_equiv_pos_as_xyz
  x,y,z
_cell_length_a	12.759401
_cell_length_b	19.805405
_cell_length_c	12.759393
_cell_angle_alpha	89.965008
_cell_angle_beta	89.980163
_cell_angle_gamma	90.028251
loop_
_atom_site_label
_atom_site_type_symbol
_atom_site_fract_x
_atom_site_fract_y
_atom_site_fract_z
Zn1	Zn	1.606167	-0.269395	-0.593995
Zn2	Zn	2.106167	0.230605	-0.093995
Zn3	Zn	1.606025	-0.382600	-0.418305
Zn4	Zn	2.106025	0.117400	0.081695
Zn5	Zn	1.430469	-0.269434	-0.418331
Zn6	Zn	1.930469	0.230566	0.081669
Zn7	Zn	1.430421	-0.382551	-0.593942
Zn8	Zn	1.930421	0.117449	-0.093942
O9	O	1.518271	-0.325995	-0.506143
O10	O	2.018271	0.174005	-0.006143
O11	O	1.753169	-0.284417	-0.570701
O12	O	2.253169	0.215583	-0.070701
O13	O	1.582698	-0.367625	-0.271287
O14	O	2.082698	0.132375	0.228713
O15	O	1.453856	-0.174712	-0.441666
O16	O	1.953856	0.325288	0.058334
O17	O	1.753065	-0.367588	-0.441623
O18	O	2.253065	0.132412	0.058377
O19	O	1.582940	-0.174684	-0.570726
O20	O	2.082940	0.325316	-0.070726
O21	O	1.453718	-0.284482	-0.271306
O22	O	1.953718	0.215518	0.228694
O23	O	1.283442	-0.284434	-0.441614
O24	O	1.783442	0.215566	0.058386
O25	O	1.453773	-0.367504	-0.740971
O26	O	1.953773	0.132496	-0.240971
O27	O	1.283406	-0.367541	-0.570636
O28	O	1.783406	0.132459	-0.070636
O29	O	1.582893	-0.284369	-0.741010
O30	O	2.082893	0.215631	-0.241010
O31	O	1.582651	-0.477310	-0.441571
O32	O	2.082651	0.022690	0.058429
O33	O	1.453635	-0.477274	-0.570611
O34	O	1.953635	0.022726	-0.070611
C35	C	1.245303	-0.325987	-0.506123
C36	C	1.745303	0.174013	-0.006123
C37	C	1.128527	-0.326000	-0.506139
C38	C	1.628527	0.174000	-0.006139
C39	C	1.073674	-0.369339	-0.573214
C40	C	1.573674	0.130661	-0.073214
C41	C	0.963950	-0.369342	-0.573235
C42	C	1.463950	0.130658	-0.073235
C43	C	0.963941	-0.282663	-0.439096
C44	C	1.463941	0.217337	0.060904
C45	C	1.073663	-0.282658	-0.439081
C46	C	1.573663	0.217342	0.060919
C47	C	1.518151	-0.501851	-0.506105
C48	C	2.018151	-0.001851	-0.006105
C49	C	1.518196	-0.577083	-0.506124
C50	C	2.018196	-0.077083	-0.006124
C51	C	1.585370	-0.612354	-0.573379
C52	C	2.085370	-0.112354	-0.073379
C53	C	1.585408	-0.683043	-0.573398
C54	C	2.085408	-0.183043	-0.073398
C55	C	1.518276	-0.718459	-0.506157
C56	C	2.018276	-0.218459	-0.006157
C57	C	1.451094	-0.683182	-0.438900
C58	C	1.951094	-0.183182	0.061100
C59	C	1.451052	-0.612495	-0.438887
C60	C	1.951052	-0.112495	0.061113
C61	C	1.451263	-0.968256	-0.438954
C62	C	1.951263	-0.468256	0.061046
C63	C	1.451313	-1.038948	-0.438970
C64	C	1.951313	-0.538948	0.061030
C65	C	1.585619	-1.038803	-0.573465
C66	C	2.085619	-0.538803	-0.073465
C67	C	1.585577	-0.968116	-0.573452
C68	C	2.085577	-0.468116	-0.073452
C69	C	1.518392	-0.932846	-0.506199
C70	C	2.018392	-0.432846	-0.006199
C71	C	1.518350	-0.856198	-0.506180
C72	C	2.018350	-0.356198	-0.006180
C73	C	1.518322	-0.795106	-0.506170
C74	C	2.018322	-0.295106	-0.006170
C75	C	1.792304	-0.326004	-0.506165
C76	C	2.292304	0.173996	-0.006165
C77	C	1.909080	-0.326008	-0.506174
C78	C	2.409080	0.173992	-0.006174
C79	C	1.518344	-0.325927	-0.780177
C80	C	2.018344	0.174073	-0.280177
C81	C	1.518375	-0.325897	-0.896954
C82	C	2.018375	0.174103	-0.396954
C83	C	1.518419	-0.149452	-0.506205
C84	C	2.018419	0.350548	-0.006205
C85	C	1.518483	-0.074220	-0.506231
C86	C	2.018483	0.425780	-0.006231
C87	C	1.451240	-0.282597	-0.951825
C88	C	1.951240	0.217403	-0.451825
C89	C	1.451264	-0.282576	-1.061549
C90	C	1.951264	0.217424	-0.561549
C91	C	1.585569	-0.369158	-1.061521
C92	C	2.085569	0.130842	-0.561521
C93	C	1.585538	-0.369182	-0.951799
C94	C	2.085538	0.130818	-0.451799
C95	C	1.518258	-0.326014	-0.233176
C96	C	2.018258	0.173986	0.266824
C97	C	1.518430	-0.325853	-0.116400
C98	C	2.018430	0.174147	0.383600
H99	H	1.640041	-0.583523	-0.628129
H100	H	2.140041	-0.083523	-0.128129
H101	H	1.396551	-0.247352	-0.907173
H102	H	1.896551	0.252648	-0.407173
F103	F	1.656993	-0.415273	-0.893397
F104	F	2.156993	0.084727	-0.393397
H105	H	1.640251	-0.404398	-1.106189
H106	H	2.140251	0.095602	-0.606189
F107	F	1.132060	-0.415465	-0.644586
F108	F	1.632060	0.084535	-0.144586
F109	F	0.905576	-0.415468	-0.644628
F110	F	1.405576	0.084532	-0.144628
H111	H	1.396430	-0.712024	-0.384156
H112	H	1.896430	-0.212024	0.115844
H113	H	1.396594	-0.247317	-1.106220
H114	H	1.896594	0.252683	-0.606220
H115	H	1.640117	-0.711758	-0.628155
H116	H	2.140117	-0.211758	-0.128155
H117	H	1.396350	-0.583778	-0.384123
H118	H	1.896350	-0.083778	0.115877
H119	H	1.118326	-0.247361	-0.384460
H120	H	1.618326	0.252639	0.115540
F121	F	1.657031	-0.930428	-0.645015
F122	F	2.157031	-0.430428	-0.145015
F123	F	0.905542	-0.236539	-0.367731
F124	F	1.405542	0.263461	0.132269
H125	H	1.396641	-1.067781	-0.384213
H126	H	1.896641	-0.567781	0.115787
F127	F	1.657121	-1.076346	-0.645047
F128	F	2.157121	-0.576346	-0.145047
H129	H	1.396560	-0.939544	-0.384192
H130	H	1.896560	-0.439544	0.115808
