data_functionalizedCrystal
_audit_creation_method	'MofGen! by Chris Wilmer'
_symmetry_space_group_name_H-M	'P1'
_symmetry_Int_Tables_number	1
_symmetry_cell_setting	triclinic
loop_
_symmetry_equiv_pos_as_xyz
  x,y,z
_cell_length_a	18.101398
_cell_length_b	18.101389
_cell_length_c	18.215405
_cell_angle_alpha	90.020965
_cell_angle_beta	89.976963
_cell_angle_gamma	89.985654
loop_
_atom_site_label
_atom_site_type_symbol
_atom_site_fract_x
_atom_site_fract_y
_atom_site_fract_z
Zn1	Zn	1.132153	-0.418628	0.293098
Zn2	Zn	1.465486	-0.085295	0.626431
Zn3	Zn	1.798820	0.248038	0.959764
Zn4	Zn	1.132062	-0.294781	0.416148
Zn5	Zn	1.465396	0.038552	0.749482
Zn6	Zn	1.798729	0.371885	1.082815
Zn7	Zn	1.008312	-0.294811	0.293096
Zn8	Zn	1.341645	0.038522	0.626430
Zn9	Zn	1.674979	0.371856	0.959763
Zn10	Zn	1.008276	-0.418592	0.416123
Zn11	Zn	1.341609	-0.085258	0.749456
Zn12	Zn	1.674943	0.248075	1.082790
O13	O	1.070201	-0.356703	0.354616
O14	O	1.403534	-0.023370	0.687950
O15	O	1.736867	0.309964	1.021283
O16	O	1.235774	-0.402203	0.309432
O17	O	1.569107	-0.068870	0.642765
O18	O	1.902440	0.264464	0.976099
O19	O	1.115624	-0.191152	0.399835
O20	O	1.448957	0.142181	0.733169
O21	O	1.782290	0.475514	1.066502
O22	O	1.024793	-0.311264	0.190112
O23	O	1.358126	0.022070	0.523446
O24	O	1.691459	0.355403	0.856779
O25	O	1.235707	-0.311213	0.399837
O26	O	1.569040	0.022120	0.733170
O27	O	1.902374	0.355454	1.066503
O28	O	1.115778	-0.402232	0.190113
O29	O	1.449111	-0.068898	0.523447
O30	O	1.782445	0.264435	0.856780
O31	O	1.024705	-0.191174	0.309429
O32	O	1.358038	0.142159	0.642763
O33	O	1.691371	0.475492	0.976096
O34	O	0.904674	-0.311228	0.309405
O35	O	1.238008	0.022105	0.642738
O36	O	1.571341	0.355439	0.976072
O37	O	1.024732	-0.522229	0.399794
O38	O	1.358065	-0.188896	0.733127
O39	O	1.691398	0.144437	1.066460
O40	O	0.904648	-0.402169	0.399792
O41	O	1.237981	-0.068835	0.733125
O42	O	1.571315	0.264498	1.066459
O43	O	1.115743	-0.522256	0.309407
O44	O	1.449077	-0.188923	0.642741
O45	O	1.782410	0.144410	0.976074
O46	O	1.115589	-0.311177	0.519129
O47	O	1.448922	0.022156	0.852463
O48	O	1.782255	0.355489	1.185796
O49	O	1.024644	-0.402140	0.519111
O50	O	1.357977	-0.068807	0.852444
O51	O	1.691310	0.264527	1.185777
C52	C	0.877790	-0.356698	0.354596
C53	C	1.211124	-0.023365	0.687929
C54	C	1.544457	0.309969	1.021263
C55	C	0.795476	-0.356713	0.354605
C56	C	1.128809	-0.023380	0.687939
C57	C	1.462143	0.309953	1.021272
C58	C	0.644768	-0.356712	0.354619
C59	C	0.978101	-0.023379	0.687952
C60	C	1.311434	0.309954	1.021286
C61	C	0.613422	-0.413841	0.411576
C62	C	0.946756	-0.080508	0.744909
C63	C	1.280089	0.252826	1.078242
C64	C	0.527804	-0.413672	0.411806
C65	C	0.861137	-0.080339	0.745139
C66	C	1.194471	0.252995	1.078473
C67	C	0.496385	-0.356712	0.354632
C68	C	0.829718	-0.023379	0.687966
C69	C	1.163052	0.309954	1.021299
C70	C	0.527440	-0.278569	0.375315
C71	C	0.860774	0.054764	0.708649
C72	C	1.194107	0.388097	1.041982
C73	C	0.613085	-0.278900	0.375721
C74	C	0.946418	0.054433	0.709054
C75	C	1.279752	0.387767	1.042388
C76	C	0.613238	-0.377044	0.276838
C77	C	0.946571	-0.043710	0.610171
C78	C	1.279905	0.289623	0.943505
C79	C	0.527588	-0.378765	0.277265
C80	C	0.860921	-0.045431	0.610598
C81	C	1.194254	0.287902	0.943931
C82	C	0.412526	-0.356708	0.354639
C83	C	0.745859	-0.023374	0.687972
C84	C	1.079192	0.309959	1.021306
C85	C	0.728627	-0.356712	0.354614
C86	C	1.061961	-0.023378	0.687948
C87	C	1.395294	0.309955	1.021281
C88	C	1.070244	-0.549865	0.354598
C89	C	1.403577	-0.216532	0.687931
C90	C	1.736910	0.116802	1.021264
C91	C	1.070262	-0.632179	0.354590
C92	C	1.403595	-0.298846	0.687923
C93	C	1.736928	0.034487	1.021257
C94	C	1.070305	-0.931270	0.354452
C95	C	1.403638	-0.597937	0.687785
C96	C	1.736972	-0.264604	1.021119
C97	C	1.012846	-0.899928	0.411140
C98	C	1.346179	-0.566595	0.744473
C99	C	1.679512	-0.233261	1.077806
C100	C	1.013001	-0.814310	0.411403
C101	C	1.346334	-0.480976	0.744736
C102	C	1.679668	-0.147643	1.078069
C103	C	1.070283	-0.782888	0.354520
C104	C	1.403616	-0.449554	0.687854
C105	C	1.736950	-0.116221	1.021187
C106	C	1.148311	-0.813979	0.375574
C107	C	1.481644	-0.480646	0.708908
C108	C	1.814977	-0.147312	1.042241
C109	C	1.147990	-0.899624	0.375947
C110	C	1.481324	-0.566291	0.709280
C111	C	1.814657	-0.232957	1.042613
C112	C	1.050415	-0.899702	0.276584
C113	C	1.383748	-0.566368	0.609917
C114	C	1.717082	-0.233035	0.943251
C115	C	1.048679	-0.814051	0.277034
C116	C	1.382012	-0.480718	0.610367
C117	C	1.715346	-0.147384	0.943701
C118	C	1.070275	-0.699028	0.354558
C119	C	1.403609	-0.365695	0.687891
C120	C	1.736942	-0.032362	1.021224
C121	C	1.070318	-1.015130	0.354416
C122	C	1.403651	-0.681797	0.687750
C123	C	1.736984	-0.348463	1.021083
C124	C	1.263363	-0.356709	0.354637
C125	C	1.596696	-0.023375	0.687971
C126	C	1.930029	0.309958	1.021304
C127	C	1.345677	-0.356711	0.354646
C128	C	1.679010	-0.023378	0.687980
C129	C	2.012343	0.309956	1.021313
C130	C	1.070123	-0.356668	0.545823
C131	C	1.403456	-0.023334	0.879156
C132	C	1.736789	0.309999	1.212489
C133	C	1.070157	-0.356677	0.627622
C134	C	1.403490	-0.023344	0.960955
C135	C	1.736824	0.309990	1.294288
C136	C	1.070201	-0.164293	0.354582
C137	C	1.403534	0.169041	0.687915
C138	C	1.736867	0.502374	1.021249
C139	C	1.070326	-0.081979	0.354382
C140	C	1.403659	0.251354	0.687716
C141	C	1.736993	0.584688	1.021049
C142	C	1.070299	-0.356755	0.162663
C143	C	1.403633	-0.023422	0.495997
C144	C	1.736966	0.309912	0.829330
C145	C	1.070342	-0.356777	0.080865
C146	C	1.403675	-0.023444	0.414198
C147	C	1.737008	0.309889	0.747531
C148	C	1.117623	-0.309400	0.815801
C149	C	1.450957	0.023933	1.149134
C150	C	1.784290	0.357267	1.482467
C151	C	1.117656	-0.309418	0.892659
C152	C	1.450990	0.023916	1.225993
C153	C	1.784323	0.357249	1.559326
C154	C	1.022873	-0.404060	0.892680
C155	C	1.356206	-0.070726	1.226013
C156	C	1.689540	0.262607	1.559347
C157	C	1.022844	-0.404045	0.815823
C158	C	1.356178	-0.070712	1.149156
C159	C	1.689511	0.262622	1.482489
C160	C	1.070218	-0.356711	0.777385
C161	C	1.403552	-0.023377	1.110718
C162	C	1.736885	0.309956	1.444052
C163	C	1.070280	-0.356743	0.931101
C164	C	1.403614	-0.023410	1.264434
C165	C	1.736947	0.309923	1.597768
C166	C	1.070316	-0.356763	1.014435
C167	C	1.403649	-0.023430	1.347768
C168	C	1.736982	0.309903	1.681101
C169	C	1.070184	-0.356692	0.694046
C170	C	1.403517	-0.023358	1.027379
C171	C	1.736851	0.309975	1.360713
H172	H	0.634916	-0.400515	0.468885
H173	H	0.968250	-0.067182	0.802218
H174	H	1.301583	0.266152	1.135551
O175	O	0.640095	-0.321944	0.220624
O176	O	0.973428	0.011390	0.553957
O177	O	1.306762	0.344723	0.887291
H178	H	0.675726	-0.280277	0.247903
H179	H	1.009060	0.053056	0.581236
H180	H	1.342393	0.386390	0.914569
H181	H	0.507288	-0.400183	0.469446
H182	H	0.840622	-0.066849	0.802779
H183	H	1.173955	0.266484	1.136113
O184	O	1.100083	-0.785740	0.218119
O185	O	1.433416	-0.452406	0.551452
O186	O	1.766749	-0.119073	0.884786
H187	H	1.083286	-0.808787	0.164176
H188	H	1.416619	-0.475454	0.497509
H189	H	1.749953	-0.142120	0.830843
O190	O	0.500493	-0.220631	0.322051
O191	O	0.833826	0.112703	0.655384
O192	O	1.167160	0.446036	0.988717
H193	H	0.464590	-0.246979	0.280174
H194	H	0.797923	0.086354	0.613508
H195	H	1.131257	0.419688	0.946841
H196	H	0.984302	-0.442596	0.923985
H197	H	1.317635	-0.109263	1.257319
H198	H	1.650968	0.224070	1.590652
O199	O	1.168784	-0.258393	0.934101
O200	O	1.502118	0.074940	1.267434
O201	O	1.835451	0.408274	1.600768
H202	H	1.156110	-0.200254	0.919402
H203	H	1.489443	0.133079	1.252736
H204	H	1.822776	0.466412	1.586069
H205	H	1.192254	-0.920358	0.336450
H206	H	1.525587	-0.587025	0.669783
H207	H	1.858920	-0.253692	1.003117
H208	H	0.633820	-0.234874	0.336008
H209	H	0.967154	0.098460	0.669342
H210	H	1.300487	0.431793	1.002675
H211	H	1.026133	-0.793823	0.469121
H212	H	1.359466	-0.460489	0.802454
H213	H	1.692800	-0.127156	1.135787
H214	H	1.164851	-0.919602	0.432869
H215	H	1.498184	-0.586268	0.766202
H216	H	1.831518	-0.252935	1.099535
H217	H	1.156199	-0.270859	0.784507
H218	H	1.489532	0.062475	1.117840
H219	H	1.822866	0.395808	1.451173
H220	H	0.984241	-0.442575	0.784543
H221	H	1.317575	-0.109241	1.117876
H222	H	1.650908	0.224092	1.451209
H223	H	0.506808	-0.471604	0.398906
H224	H	0.840141	-0.138270	0.732239
H225	H	1.173474	0.195063	1.065572
O226	O	0.500705	-0.454941	0.256593
O227	O	0.834039	-0.121608	0.589926
O228	O	1.167372	0.211726	0.923259
H229	H	0.523000	-0.470120	0.201853
H230	H	0.856333	-0.136786	0.535187
H231	H	1.189666	0.196547	0.868520
H232	H	0.634041	-0.471953	0.398825
H233	H	0.967375	-0.138620	0.732159
H234	H	1.300708	0.194713	1.065492
O235	O	0.498999	-0.255410	0.449791
O236	O	0.832332	0.077924	0.783125
O237	O	1.165665	0.411257	1.116458
H238	H	0.462755	-0.299424	0.472194
H239	H	0.796088	0.033910	0.805528
H240	H	1.129422	0.367243	1.138861
H241	H	0.634862	-0.433065	0.257939
H242	H	0.968195	-0.099732	0.591272
H243	H	1.301529	0.233601	0.924606
O244	O	0.639519	-0.256145	0.451019
O245	O	0.972852	0.077188	0.784352
O246	O	1.306186	0.410521	1.117686
H247	H	0.591131	-0.245013	0.486801
H248	H	0.924464	0.088320	0.820135
H249	H	1.257798	0.421654	1.153468
H250	H	1.192272	-0.793627	0.335583
H251	H	1.525606	-0.460294	0.668916
H252	H	1.858939	-0.126960	1.002250
O253	O	0.499276	-0.327699	0.218088
O254	O	0.832609	0.005634	0.551421
O255	O	1.165943	0.338968	0.884755
H256	H	0.438058	-0.330598	0.216163
H257	H	0.771392	0.002735	0.549496
H258	H	1.104725	0.336068	0.882829
O259	O	0.936366	-0.786454	0.393928
O260	O	1.269700	-0.453121	0.727261
O261	O	1.603033	-0.119787	1.060594
H262	H	0.898859	-0.834156	0.385218
H263	H	1.232193	-0.500822	0.718552
H264	H	1.565526	-0.167489	1.051885
H265	H	0.954811	-0.920525	0.398099
H266	H	1.288144	-0.587191	0.731433
H267	H	1.621478	-0.253858	1.064766
O268	O	1.030034	-0.928462	0.487124
O269	O	1.363368	-0.595129	0.820458
O270	O	1.696701	-0.261795	1.153791
H271	H	1.079329	-0.964863	0.484692
H272	H	1.412662	-0.631530	0.818026
H273	H	1.745995	-0.298197	1.151359
O274	O	1.171041	-0.785572	0.450171
O275	O	1.504374	-0.452238	0.783504
O276	O	1.837707	-0.118905	1.116838
H277	H	1.179786	-0.832943	0.487855
H278	H	1.513119	-0.499610	0.821188
H279	H	1.846452	-0.166277	1.154521
O280	O	0.976349	-0.928294	0.251183
O281	O	1.309682	-0.594960	0.584516
O282	O	1.643016	-0.261627	0.917850
H283	H	0.978132	-0.989502	0.247976
H284	H	1.311465	-0.656169	0.581309
H285	H	1.644798	-0.322836	0.914642
O286	O	0.972625	-0.787124	0.255986
O287	O	1.305959	-0.453791	0.589320
O288	O	1.639292	-0.120458	0.922653
H289	H	0.950299	-0.751691	0.300520
H290	H	1.283633	-0.418358	0.633853
H291	H	1.616966	-0.085024	0.967187
O292	O	1.105843	-0.926552	0.220632
O293	O	1.439176	-0.593219	0.553965
O294	O	1.772509	-0.259885	0.887298
H295	H	1.147358	-0.962208	0.248101
H296	H	1.480692	-0.628875	0.581434
H297	H	1.814025	-0.295542	0.914768
