data_functionalizedCrystal
_audit_creation_method	'MofGen! by Chris Wilmer'
_symmetry_space_group_name_H-M	'P1'
_symmetry_Int_Tables_number	1
_symmetry_cell_setting	triclinic
loop_
_symmetry_equiv_pos_as_xyz
  x,y,z
_cell_length_a	10.654545
_cell_length_b	16.109304
_cell_length_c	9.130313
_cell_angle_alpha	89.998292
_cell_angle_beta	89.996934
_cell_angle_gamma	83.972858
loop_
_atom_site_label
_atom_site_type_symbol
_atom_site_fract_x
_atom_site_fract_y
_atom_site_fract_z
O1	O	1.666261	0.116756	-0.121775
O2	O	2.166261	0.616756	0.378225
O3	O	1.300631	0.127885	-0.121780
O4	O	1.800631	0.627885	0.378220
O5	O	1.493488	0.001349	-0.121778
O6	O	1.993488	0.501349	0.378222
O7	O	1.473403	0.243292	-0.121777
O8	O	1.973403	0.743292	0.378223
O9	O	1.493475	0.001346	0.121821
O10	O	1.993475	0.501346	0.621821
O11	O	1.300617	0.127882	0.121819
O12	O	1.800617	0.627882	0.621819
O13	O	1.666247	0.116752	0.121824
O14	O	2.166247	0.616752	0.621824
Cu15	Cu	1.483431	0.122317	0.144064
Cu16	Cu	1.983431	0.622317	0.644064
Cu17	Cu	1.483447	0.122321	-0.144020
Cu18	Cu	1.983447	0.622321	0.355980
O19	O	1.473390	0.243288	0.121822
O20	O	1.973390	0.743288	0.621822
C21	C	1.253837	0.127067	0.000019
C22	C	1.753837	0.627067	0.500019
C23	C	1.114427	0.124624	0.000016
C24	C	1.614427	0.624624	0.500016
C25	C	1.048930	0.123473	0.132803
C26	C	1.548930	0.623473	0.632803
C27	C	0.917942	0.121164	0.132803
C28	C	1.417942	0.621164	0.632803
C29	C	0.917957	0.121162	-0.132782
C30	C	1.417957	0.621162	0.367218
C31	C	1.048944	0.123465	-0.132780
C32	C	1.548944	0.623465	0.367220
C33	C	1.492667	-0.029632	0.000018
C34	C	1.992667	0.470368	0.500018
C35	C	1.490226	-0.121942	0.000008
C36	C	1.990226	0.378058	0.500008
C37	C	1.484594	-0.334311	-0.132772
C38	C	1.984594	0.165689	0.367228
C39	C	1.482289	-0.421044	-0.132771
C40	C	1.982289	0.078956	0.367229
C41	C	1.482281	-0.421046	0.132814
C42	C	1.982281	0.078954	0.632814
C43	C	1.484577	-0.334313	0.132811
C44	C	1.984577	0.165687	0.632811
C45	C	1.485740	-0.290948	0.000014
C46	C	1.985740	0.209052	0.500014
C47	C	1.481138	-0.464415	0.000018
C48	C	1.981138	0.035585	0.500018
C49	C	1.478639	-0.558455	0.000020
C50	C	1.978639	-0.058455	0.500020
C51	C	1.488237	-0.196901	0.000011
C52	C	1.988237	0.303099	0.500011
C53	C	1.713041	0.117570	0.000022
C54	C	2.213041	0.617570	0.500022
C55	C	1.852451	0.120013	0.000015
C56	C	2.352451	0.620013	0.500015
C57	C	1.474211	0.274270	0.000023
C58	C	1.974211	0.774270	0.500023
C59	C	1.476652	0.366579	0.000023
C60	C	1.976652	0.866579	0.500023
N61	N	1.483429	0.122313	0.346687
N62	N	1.983429	0.622313	0.846687
N63	N	1.483459	0.122318	-0.346642
N64	N	1.983459	0.622318	0.153358
C65	C	1.568855	0.066307	0.423339
C66	C	2.068855	0.566307	0.923339
C67	C	1.568867	0.066307	0.576676
C68	C	2.068867	0.566307	1.076676
C69	C	1.398024	0.178327	0.576694
C70	C	1.898024	0.678327	1.076694
C71	C	1.398007	0.178322	0.423360
C72	C	1.898007	0.678322	0.923360
H73	H	0.864625	0.120219	-0.240900
H74	H	1.364625	0.620219	0.259100
H75	H	1.485503	-0.299005	0.240948
H76	H	1.985503	0.200995	0.740948
H77	H	1.481336	-0.456364	0.240933
H78	H	1.981336	0.043636	0.740933
C79	C	1.120995	0.124727	-0.278864
C80	C	1.620995	0.624727	0.221136
N81	N	1.175265	0.125675	-0.388889
N82	N	1.675265	0.625675	0.111111
H83	H	1.485537	-0.299005	-0.240905
H84	H	1.985537	0.200995	0.259095
H85	H	1.638410	0.020699	0.360915
H86	H	2.138410	0.520699	0.860915
H87	H	1.638427	0.020700	0.639083
H88	H	2.138427	0.520700	1.139083
C89	C	1.481077	-0.468744	-0.278846
C90	C	1.981077	0.031256	0.221154
N91	N	1.480182	-0.504671	-0.388877
N92	N	1.980182	-0.004671	0.111123
H93	H	1.328476	0.223930	0.639137
H94	H	1.828476	0.723930	1.139137
H95	H	1.102242	0.124417	0.240935
H96	H	1.602242	0.624417	0.740935
C97	C	0.845901	0.119907	0.278879
C98	C	1.345901	0.619907	0.778879
N99	N	0.791639	0.118962	0.388910
N100	N	1.291639	0.618962	0.888910
H101	H	1.328437	0.223929	0.360945
H102	H	1.828437	0.723929	0.860945
