data_functionalizedCrystal
_audit_creation_method	'MofGen! by Chris Wilmer'
_symmetry_space_group_name_H-M	'P1'
_symmetry_Int_Tables_number	1
_symmetry_cell_setting	triclinic
loop_
_symmetry_equiv_pos_as_xyz
  x,y,z
_cell_length_a	19.077105
_cell_length_b	13.032721
_cell_length_c	19.076919
_cell_angle_alpha	99.138159
_cell_angle_beta	90.076224
_cell_angle_gamma	95.201395
loop_
_atom_site_label
_atom_site_type_symbol
_atom_site_fract_x
_atom_site_fract_y
_atom_site_fract_z
Zn1	Zn	1.013397	-0.505360	-0.481832
Zn2	Zn	1.003124	-0.673317	-0.378090
Zn3	Zn	0.901858	-0.491366	-0.358479
Zn4	Zn	0.881001	-0.672687	-0.490791
O5	O	0.949845	-0.585683	-0.427298
O6	O	1.109823	-0.533760	-0.472529
O7	O	0.994119	-0.643588	-0.276699
O8	O	0.929682	-0.347048	-0.362886
O9	O	1.102275	-0.657157	-0.396309
O10	O	1.011630	-0.357329	-0.453513
O11	O	0.919720	-0.509909	-0.262291
O12	O	0.801303	-0.509299	-0.371572
O13	O	0.894135	-0.656084	-0.588392
O14	O	0.785980	-0.642515	-0.468781
O15	O	0.991406	-0.533149	-0.581810
O16	O	0.973896	-0.819408	-0.404996
O17	O	0.884173	-0.818945	-0.487797
C18	C	0.768286	-0.574321	-0.419021
C19	C	0.690611	-0.569486	-0.415499
C20	C	0.646154	-0.636670	-0.464393
C21	C	0.573171	-0.632114	-0.461086
C22	C	0.544646	-0.560378	-0.408881
C23	C	0.589109	-0.493187	-0.359985
C24	C	0.662091	-0.497739	-0.363296
C25	C	0.327230	-0.539312	-0.393562
C26	C	0.254242	-0.534767	-0.390254
C27	C	0.238309	-0.673693	-0.491357
C28	C	0.311292	-0.678243	-0.494660
C29	C	0.355749	-0.611048	-0.445766
N30	N	0.470046	-0.555721	-0.405499
N31	N	0.430348	-0.615700	-0.449153
C32	C	0.925675	-0.857080	-0.449513
C33	C	0.915397	-0.973191	-0.459043
C34	C	0.955245	-1.025155	-0.422357
C35	C	0.944623	-1.145161	-0.432206
C36	C	1.132113	-0.597090	-0.435607
C37	C	1.209785	-0.601951	-0.439148
C38	C	0.941590	-0.596107	-0.611432
C39	C	0.938072	-0.600549	-0.689899
C40	C	0.974128	-0.313227	-0.405012
C41	C	0.984476	-0.197123	-0.395516
C42	C	0.987061	-0.538633	-0.723338
C43	C	0.983747	-0.542803	-0.797065
C44	C	0.931448	-0.608894	-0.837354
C45	C	0.882454	-0.670812	-0.803910
C46	C	0.885765	-0.666637	-0.730183
C47	C	0.916112	-0.628240	-1.058220
C48	C	0.912806	-0.632414	-1.131952
C49	C	1.014098	-0.504402	-1.125102
C50	C	1.017407	-0.500237	-1.051375
C51	C	0.968412	-0.562151	-1.017937
N52	N	0.928061	-0.613160	-0.912715
N53	N	0.971796	-0.557879	-0.942576
C54	C	0.958115	-0.575226	-0.243875
C55	C	0.961794	-0.570498	-0.165391
H56	H	0.698288	-0.443025	-0.323484
H57	H	0.202105	-0.728397	-0.531164
C58	C	1.074931	-0.427531	-1.007059
H59	H	1.069890	-0.433918	-0.958361
H60	H	1.070417	-0.357392	-1.012935
H61	H	1.119981	-0.446446	-1.022535
C62	C	0.824927	-0.743512	-0.848225
H63	H	0.829975	-0.737141	-0.896924
H64	H	0.779879	-0.724605	-0.832750
H65	H	0.829446	-0.813655	-0.842348
H66	H	0.902645	-1.189513	-0.470911
H67	H	1.026460	-1.152773	-0.356816
H68	H	0.873422	-1.017547	-0.497745
C69	C	0.831880	-0.734742	-0.693397
H70	H	0.841337	-0.722782	-0.643718
H71	H	0.835305	-0.806252	-0.711685
H72	H	0.785747	-0.717190	-0.702086
H73	H	1.023640	-0.492387	-0.824288
H74	H	1.053987	-0.453994	-1.152335
H75	H	0.536976	-0.686823	-0.500901
H76	H	1.029650	-0.484818	-0.690541
H77	H	0.876225	-0.678671	-1.031006
H78	H	0.870215	-0.686236	-1.164753
H79	H	0.669372	-0.695088	-0.506902
H80	H	0.334511	-0.736660	-0.537169
H81	H	0.231022	-0.476339	-0.347746
H82	H	0.363418	-0.484604	-0.353745
H83	H	0.997225	-0.980802	-0.383660
C84	C	0.557734	-0.414283	-0.302559
H85	H	0.507901	-0.421201	-0.307584
H86	H	0.575475	-0.345455	-0.307764
H87	H	0.570463	-0.427531	-0.256893
