data_functionalizedCrystal
_audit_creation_method	'MofGen! by Chris Wilmer'
_symmetry_space_group_name_H-M	'P1'
_symmetry_Int_Tables_number	1
_symmetry_cell_setting	triclinic
loop_
_symmetry_equiv_pos_as_xyz
  x,y,z
_cell_length_a	9.065218
_cell_length_b	8.140239
_cell_length_c	14.971486
_cell_angle_alpha	90.003728
_cell_angle_beta	84.315007
_cell_angle_gamma	90.002802
loop_
_atom_site_label
_atom_site_type_symbol
_atom_site_fract_x
_atom_site_fract_y
_atom_site_fract_z
O1	O	1.957738	0.136619	0.131152
O2	O	2.457738	0.636619	0.631152
O3	O	1.528235	0.136621	0.141910
O4	O	2.028235	0.636621	0.641910
O5	O	1.754499	0.136608	0.006417
O6	O	2.254499	0.636608	0.506417
O7	O	1.731475	0.136632	0.266645
O8	O	2.231475	0.636632	0.766645
O9	O	1.754486	-0.136619	0.006415
O10	O	2.254486	0.363381	0.506415
O11	O	1.528223	-0.136606	0.141908
O12	O	2.028223	0.363394	0.641908
O13	O	1.957726	-0.136608	0.131151
O14	O	2.457726	0.363392	0.631151
Zn15	Zn	1.742972	-0.179988	0.136529
Zn16	Zn	2.242972	0.320012	0.636529
Zn17	Zn	1.742989	0.180001	0.136531
Zn18	Zn	2.242989	0.680001	0.636531
O19	O	1.731463	-0.136595	0.266644
O20	O	2.231463	0.363405	0.766644
C21	C	1.473263	0.000008	0.140875
C22	C	1.973263	0.500008	0.640875
C23	C	1.309483	0.000009	0.137784
C24	C	1.809483	0.500009	0.637784
N25	N	1.742972	-0.425670	0.136527
N26	N	2.242972	0.074330	0.636527
C27	C	2.012698	0.000009	0.132185
C28	C	2.512698	0.500009	0.632185
C29	C	2.176478	0.000019	0.135277
C30	C	2.676478	0.500019	0.635277
C31	C	1.753463	-0.000005	-0.026916
C32	C	2.253463	0.499995	0.473084
C33	C	1.750377	-0.000003	-0.126237
C34	C	2.250377	0.499997	0.373763
N35	N	1.743001	0.425683	0.136526
N36	N	2.243001	0.925683	0.636526
C37	C	1.883301	-0.000005	-0.182471
C38	C	2.383301	0.499995	0.317529
C39	C	1.880393	0.000011	-0.275792
C40	C	2.380393	0.500011	0.224208
C41	C	1.744560	0.000018	-0.312877
C42	C	2.244560	0.500018	0.187123
C43	C	1.611626	0.000025	-0.256635
C44	C	2.111626	0.500025	0.243365
C45	C	1.614535	0.000020	-0.163316
C46	C	2.114535	0.500020	0.336684
C47	C	1.605571	0.000031	-0.451143
C48	C	2.105571	0.500031	0.048857
C49	C	1.602660	0.000033	-0.544468
C50	C	2.102660	0.500033	-0.044468
C51	C	1.871428	0.000022	-0.563619
C52	C	2.371428	0.500022	-0.063619
C53	C	1.874338	0.000017	-0.470300
C54	C	2.374338	0.500017	0.029700
C55	C	1.741403	0.000021	-0.414064
C56	C	2.241403	0.500021	0.085936
C57	C	1.732498	0.000021	0.299977
C58	C	2.232498	0.500021	0.799977
C59	C	1.735584	0.000031	0.399297
C60	C	2.235584	0.500031	0.899297
H61	H	1.993912	-0.000021	-0.152285
H62	H	2.493912	0.499979	0.347715
H63	H	1.506295	0.000022	-0.117530
H64	H	2.006295	0.500022	0.382470
H65	H	1.492053	0.000012	-0.574659
H66	H	1.992053	0.500012	-0.074659
Cl67	Cl	2.047505	0.000004	-0.346484
Cl68	Cl	2.547505	0.500004	0.153516
H69	H	1.984945	-0.000000	-0.440109
H70	H	2.484945	0.500000	0.059891
Cl71	Cl	2.038546	0.000026	-0.634315
Cl72	Cl	2.538546	0.500026	-0.134315
H73	H	1.497321	0.000038	-0.405358
H74	H	1.997321	0.500038	0.094642
H75	H	1.501028	0.000041	-0.286837
H76	H	2.001028	0.500041	0.213163
