data_functionalizedCrystal
_audit_creation_method	'MofGen! by Chris Wilmer'
_symmetry_space_group_name_H-M	'P1'
_symmetry_Int_Tables_number	1
_symmetry_cell_setting	triclinic
loop_
_symmetry_equiv_pos_as_xyz
  x,y,z
_cell_length_a	6.817900
_cell_length_b	12.908943
_cell_length_c	15.300992
_cell_angle_alpha	95.514044
_cell_angle_beta	104.175078
_cell_angle_gamma	100.860631
loop_
_atom_site_label
_atom_site_type_symbol
_atom_site_fract_x
_atom_site_fract_y
_atom_site_fract_z
V1	V	-3.999614	-0.328997	-0.123632
O2	O	-3.984114	-0.322407	0.007099
O3	O	-3.954711	-0.327061	-0.246254
O4	O	-3.937825	-0.472340	-0.121222
O5	O	-4.001118	-0.176122	-0.118799
V6	V	-4.484524	-0.310673	-0.108055
O7	O	-4.257831	-0.369190	-0.157801
O8	O	-4.676505	-0.270480	-0.073886
O9	O	-4.306220	-0.312609	0.014568
O10	O	-4.617420	-0.317263	-0.238785
O11	O	-4.600416	-0.463548	-0.112887
O12	O	-4.323107	-0.167330	-0.110465
C13	C	-3.800996	-0.321952	-0.276163
C14	C	-3.845481	-0.321324	-0.376406
C15	C	-3.834759	-0.224460	-0.410953
C16	C	-3.876576	-0.223874	-0.505142
C17	C	-3.929101	-0.320153	-0.564782
C18	C	-3.939828	-0.417025	-0.530229
C19	C	-3.898025	-0.417610	-0.436042
C20	C	-4.026951	-0.415799	-0.726545
C21	C	-4.068752	-0.415214	-0.820739
C22	C	-4.005501	-0.222063	-0.795645
C23	C	-3.963699	-0.222648	-0.701458
C24	C	-3.974425	-0.319520	-0.666911
C25	C	-3.779455	-0.507268	-0.116670
C26	C	-3.810242	-0.624455	-0.115511
C27	C	-4.231600	-0.855418	-0.122282
C28	C	-4.260536	-0.965525	-0.121193
C29	C	-3.897051	-0.954777	-0.112239
C30	C	-3.868114	-0.844669	-0.113328
C31	C	-4.035397	-0.794995	-0.118350
C32	C	-4.006461	-0.684887	-0.119445
C33	C	-3.642975	-0.674139	-0.110485
C34	C	-3.671912	-0.784246	-0.109397
C35	C	-4.123277	-0.317715	0.044472
C36	C	-4.058031	-0.318350	0.144714
C37	C	-4.144819	-0.132396	-0.115019
C38	C	-4.093271	-0.015209	-0.116173
H39	H	-4.111517	-0.493612	-0.869296
H40	H	-3.535721	-0.824706	-0.105304
H41	H	-3.996761	-0.143186	-0.823777
Br42	Br	-3.376689	-0.592131	-0.105160
H43	H	-4.367814	-0.814974	-0.126381
Br44	Br	-4.526817	-1.047526	-0.126522
Br45	Br	-3.670055	-1.022211	-0.105426
Br46	Br	-3.862053	-0.092411	-0.552025
Br47	Br	-3.763455	-0.093788	-0.330021
H48	H	-3.920920	-0.144249	-0.652900
H49	H	-4.035722	-0.494683	-0.698422
H50	H	-3.982611	-0.495417	-0.578796
H51	H	-3.906779	-0.496487	-0.407916
H52	H	-4.142676	-0.644444	-0.123539
