data_functionalizedCrystal
_audit_creation_method	'MofGen! by Chris Wilmer'
_symmetry_space_group_name_H-M	'P1'
_symmetry_Int_Tables_number	1
_symmetry_cell_setting	triclinic
loop_
_symmetry_equiv_pos_as_xyz
  x,y,z
_cell_length_a	18.101395
_cell_length_b	18.101398
_cell_length_c	18.101389
_cell_angle_alpha	89.975198
_cell_angle_beta	89.980315
_cell_angle_gamma	90.029682
loop_
_atom_site_label
_atom_site_type_symbol
_atom_site_fract_x
_atom_site_fract_y
_atom_site_fract_z
Zn1	Zn	-0.294952	1.132117	-0.418842
Zn2	Zn	0.038381	1.465450	-0.085508
Zn3	Zn	0.371715	1.798783	0.247825
Zn4	Zn	-0.418778	1.132011	-0.294997
Zn5	Zn	-0.085444	1.465344	0.038336
Zn6	Zn	0.247889	1.798677	0.371669
Zn7	Zn	-0.294950	1.008276	-0.295002
Zn8	Zn	0.038384	1.341609	0.038332
Zn9	Zn	0.371717	1.674942	0.371665
Zn10	Zn	-0.418751	1.008224	-0.418785
Zn11	Zn	-0.085418	1.341558	-0.085452
Zn12	Zn	0.247915	1.674891	0.247882
O13	O	-0.356858	1.070157	-0.356906
O14	O	-0.023524	1.403490	-0.023573
O15	O	0.309809	1.736824	0.309760
O16	O	-0.311390	1.235735	-0.402435
O17	O	0.021943	1.569069	-0.069102
O18	O	0.355277	1.902402	0.264231
O19	O	-0.402362	1.115574	-0.191365
O20	O	-0.069028	1.448907	0.141968
O21	O	0.264305	1.782241	0.475302
O22	O	-0.191317	1.024769	-0.311455
O23	O	0.142016	1.358102	0.021878
O24	O	0.475350	1.691436	0.355212
O25	O	-0.402364	1.235658	-0.311447
O26	O	-0.069031	1.568991	0.021886
O27	O	0.264303	1.902324	0.355219
O28	O	-0.191319	1.115755	-0.402440
O29	O	0.142014	1.449088	-0.069106
O30	O	0.475348	1.782421	0.264227
O31	O	-0.311386	1.024666	-0.191368
O32	O	0.021947	1.358000	0.141965
O33	O	0.355281	1.691333	0.475298
O34	O	-0.311360	0.904636	-0.311400
O35	O	0.021973	1.237969	0.021933
O36	O	0.355306	1.571303	0.355267
O37	O	-0.402319	1.024682	-0.522425
O38	O	-0.068986	1.358015	-0.189092
O39	O	0.264348	1.691349	0.144241
O40	O	-0.402317	0.904598	-0.402343
O41	O	-0.068983	1.237932	-0.069010
O42	O	0.264350	1.571265	0.264324
O43	O	-0.311364	1.115705	-0.522467
O44	O	0.021969	1.449038	-0.189134
O45	O	0.355302	1.782372	0.144200
O46	O	-0.522407	1.115524	-0.311392
O47	O	-0.189074	1.448858	0.021941
O48	O	0.144259	1.782191	0.355274
O49	O	-0.522388	1.024579	-0.402339
O50	O	-0.189054	1.357913	-0.069005
O51	O	0.144279	1.691246	0.264328
C52	C	-0.356836	0.877746	-0.356866
C53	C	-0.023503	1.211080	-0.023533
C54	C	0.309831	1.544413	0.309801
C55	C	-0.356844	0.795432	-0.356866
C56	C	-0.023511	1.128766	-0.023533
C57	C	0.309822	1.462099	0.309800
C58	C	-0.356860	0.644724	-0.356900
C59	C	-0.023526	0.978057	-0.023566
C60	C	0.309807	1.311390	0.309767
C61	C	-0.299550	0.613369	-0.299776
C62	C	0.033783	0.946702	0.033557
C63	C	0.367116	1.280036	0.366890
C64	C	-0.299335	0.527751	-0.299964
C65	C	0.033999	0.861084	0.033370
C66	C	0.367332	1.194417	0.366703
C67	C	-0.356875	0.496341	-0.356931
C68	C	-0.023541	0.829675	-0.023598
C69	C	0.309792	1.163008	0.309735
C70	C	-0.336055	0.527481	-0.435067
C71	C	-0.002722	0.860815	-0.101734
C72	C	0.330611	1.194148	0.231600
C73	C	-0.335631	0.613126	-0.434718
C74	C	-0.002298	0.946460	-0.101385
C75	C	0.331036	1.279793	0.231948
C76	C	-0.435137	0.613119	-0.336577
C77	C	-0.101803	0.946452	-0.003243
C78	C	0.231530	1.279786	0.330090
C79	C	-0.434724	0.527467	-0.334874
C80	C	-0.101390	0.860801	-0.001541
C81	C	0.231943	1.194134	0.331793
C82	C	-0.356884	0.412482	-0.356954
C83	C	-0.023551	0.745815	-0.023621
C84	C	0.309782	1.079148	0.309713
C85	C	-0.356848	0.728583	-0.356882
C86	C	-0.023515	1.061917	-0.023549
C87	C	0.309819	1.395250	0.309784
C88	C	-0.549268	1.070055	-0.356875
C89	C	-0.215935	1.403388	-0.023542
C90	C	0.117398	1.736722	0.309792
C91	C	-0.631582	1.070079	-0.356886
C92	C	-0.298249	1.403412	-0.023553
C93	C	0.035084	1.736746	0.309780
C94	C	-0.782291	1.070164	-0.356916
C95	C	-0.448957	1.403497	-0.023583
C96	C	-0.115624	1.736831	0.309751
C97	C	-0.813663	1.012914	-0.414093
C98	C	-0.480330	1.346248	-0.080759
C99	C	-0.146997	1.679581	0.252574
C100	C	-0.899281	1.013131	-0.414334
C101	C	-0.565948	1.346464	-0.081001
C102	C	-0.232615	1.679797	0.252333
C103	C	-0.930673	1.070247	-0.356945
C104	C	-0.597340	1.403580	-0.023612
C105	C	-0.264007	1.736913	0.309722
C106	C	-0.899497	1.148322	-0.377949
C107	C	-0.566164	1.481655	-0.044615
C108	C	-0.232830	1.814988	0.288718
C109	C	-0.813852	1.147943	-0.378347
C110	C	-0.480519	1.481276	-0.045014
C111	C	-0.147186	1.814609	0.288320
C112	C	-0.813914	1.050039	-0.278598
C113	C	-0.480580	1.383372	0.054735
C114	C	-0.147247	1.716706	0.388069
C115	C	-0.899566	1.048365	-0.279032
C116	C	-0.566233	1.381698	0.054301
C117	C	-0.232899	1.715031	0.387635
C118	C	-1.014533	1.070298	-0.356960
C119	C	-0.681199	1.403631	-0.023627
C120	C	-0.347866	1.736965	0.309707
C121	C	-0.698431	1.070118	-0.356903
C122	C	-0.365098	1.403451	-0.023569
C123	C	-0.031765	1.736785	0.309764
C124	C	-0.163696	1.070279	-0.356954
C125	C	0.169638	1.403613	-0.023621
C126	C	0.502971	1.736946	0.309713
C127	C	-0.081382	1.070332	-0.356974
C128	C	0.251952	1.403665	-0.023641
C129	C	0.585285	1.736998	0.309692
C130	C	-0.356839	1.070200	-0.550068
C131	C	-0.023506	1.403533	-0.216735
C132	C	0.309828	1.736866	0.116598
C133	C	-0.356831	1.070218	-0.632382
C134	C	-0.023498	1.403551	-0.299049
C135	C	0.309836	1.736885	0.034284
C136	C	-0.356880	1.263319	-0.356947
C137	C	-0.023547	1.596652	-0.023614
C138	C	0.309787	1.929985	0.309719
C139	C	-0.356890	1.345633	-0.356965
C140	C	-0.023556	1.678966	-0.023631
C141	C	0.309777	2.012299	0.309702
C142	C	-0.356692	1.070261	-0.931474
C143	C	-0.023359	1.403594	-0.598140
C144	C	0.309974	1.736928	-0.264807
C145	C	-0.413737	1.012795	-0.900122
C146	C	-0.080403	1.346128	-0.566789
C147	C	0.252930	1.679461	-0.233456
C148	C	-0.414001	1.012950	-0.814504
C149	C	-0.080668	1.346283	-0.481171
C150	C	0.252666	1.679617	-0.147837
C151	C	-0.356761	1.070239	-0.783091
C152	C	-0.023428	1.403572	-0.449758
C153	C	0.309906	1.736906	-0.116424
C154	C	-0.377948	1.148264	-0.814197
C155	C	-0.044615	1.481597	-0.480864
C156	C	0.288718	1.814931	-0.147530
C157	C	-0.378323	1.147944	-0.899842
C158	C	-0.044989	1.481277	-0.566509
C159	C	0.288344	1.814611	-0.233175
C160	C	-0.278334	1.050381	-0.899899
C161	C	0.054999	1.383714	-0.566566
C162	C	0.388333	1.717047	-0.233233
C163	C	-0.278787	1.048645	-0.814248
C164	C	0.054547	1.381978	-0.480915
C165	C	0.387880	1.715311	-0.147582
C166	C	-0.356799	1.070231	-0.699231
C167	C	-0.023465	1.403565	-0.365898
C168	C	0.309868	1.736898	-0.032565
C169	C	-0.356656	1.070274	-1.015333
C170	C	-0.023323	1.403607	-0.682000
C171	C	0.310010	1.736941	-0.348667
C172	C	-0.356823	1.070157	-0.164496
C173	C	-0.023490	1.403490	0.168837
C174	C	0.309844	1.736824	0.502171
C175	C	-0.356622	1.070282	-0.082182
C176	C	-0.023289	1.403615	0.251151
C177	C	0.310044	1.736949	0.584484
H178	H	-0.241876	0.634917	-0.313096
H179	H	0.091457	0.968251	0.020237
H180	H	0.424790	1.301584	0.353571
H181	H	-0.312322	0.506693	-0.242037
H182	H	0.021011	0.840027	0.091296
H183	H	0.354345	1.173360	0.424630
F184	F	-0.786825	0.936982	-0.397135
F185	F	-0.453492	1.270315	-0.063802
F186	F	-0.120158	1.603648	0.269531
H187	H	-0.477831	0.633392	-0.378183
H188	H	-0.144497	0.966726	-0.044849
H189	H	0.188836	1.300059	0.288484
F190	F	-0.453193	1.169971	-0.925962
F191	F	-0.119859	1.503305	-0.592629
F192	F	0.213474	1.836638	-0.259296
F193	F	-0.785770	0.976858	-0.253556
F194	F	-0.452436	1.310192	0.079778
F195	F	-0.119103	1.643525	0.413111
H196	H	-0.793615	1.091731	-0.235999
H197	H	-0.460282	1.425065	0.097335
H198	H	-0.126949	1.758398	0.430668
F199	F	-0.926208	0.973261	-0.258324
F200	F	-0.592874	1.306594	0.075010
F201	F	-0.259541	1.639927	0.408343
F202	F	-0.253104	0.977305	-0.928111
F203	F	0.080229	1.310639	-0.594778
F204	F	0.413562	1.643972	-0.261444
H205	H	-0.338578	1.192212	-0.920583
H206	H	-0.005245	1.525545	-0.587250
H207	H	0.328089	1.858879	-0.253917
F208	F	-0.257905	0.973589	-0.787682
F209	F	0.075429	1.306923	-0.454348
F210	F	0.408762	1.640256	-0.121015
F211	F	-0.325349	1.205734	-0.787607
F212	F	0.007984	1.539067	-0.454274
F213	F	0.341318	1.872400	-0.120941
F214	F	-0.455254	0.500859	-0.259712
F215	F	-0.121921	0.834193	0.073621
F216	F	0.211412	1.167526	0.406955
F217	F	-0.387841	0.640245	-0.492274
F218	F	-0.054508	0.973578	-0.158941
F219	F	0.278826	1.306911	0.174393
F220	F	-0.222782	1.105089	-0.926402
F221	F	0.110552	1.438422	-0.593069
F222	F	0.443885	1.771756	-0.259735
F223	F	-0.396581	0.936938	-0.927022
F224	F	-0.063248	1.270271	-0.593689
F225	F	0.270085	1.603605	-0.260355
F226	F	-0.223526	0.501003	-0.317602
F227	F	0.109807	0.834336	0.015732
F228	F	0.443140	1.167669	0.349065
F229	F	-0.489182	1.029744	-0.928299
F230	F	-0.155849	1.363078	-0.594965
F231	F	0.177484	1.696411	-0.261632
F232	F	-0.785489	1.030137	-0.489514
F233	F	-0.452156	1.363470	-0.156180
F234	F	-0.118823	1.696804	0.177153
F235	F	-0.489910	1.030140	-0.787727
F236	F	-0.156577	1.363473	-0.454394
F237	F	0.176756	1.696807	-0.121060
H238	H	-0.920903	1.165675	-0.434573
H239	H	-0.587569	1.499008	-0.101239
H240	H	-0.254236	1.832341	0.232094
F241	F	-0.316313	0.640240	-0.223812
F242	F	0.017021	0.973573	0.109521
F243	F	0.350354	1.306907	0.442855
F244	F	-0.927495	1.098904	-0.220397
F245	F	-0.594162	1.432237	0.112936
F246	F	-0.260828	1.765570	0.446270
F247	F	-0.926013	1.030566	-0.490201
F248	F	-0.592679	1.363900	-0.156867
F249	F	-0.259346	1.697233	0.176466
H250	H	-0.434621	1.165409	-0.792754
H251	H	-0.101287	1.498742	-0.459420
H252	H	0.232046	1.832076	-0.126087
F253	F	-0.220284	1.099367	-0.786309
F254	F	0.113049	1.432700	-0.452975
F255	F	0.446382	1.766034	-0.119642
H256	H	-0.278423	0.633132	-0.451896
H257	H	0.054911	0.966465	-0.118563
H258	H	0.388244	1.299799	0.214771
H259	H	-0.400742	0.955091	-0.793471
H260	H	-0.067409	1.288424	-0.460138
H261	H	0.265924	1.621758	-0.126804
H262	H	-0.793093	1.192065	-0.338504
H263	H	-0.459759	1.525398	-0.005170
H264	H	-0.126426	1.858731	0.328163
F265	F	-0.388952	0.500896	-0.492241
F266	F	-0.055619	0.834229	-0.158907
F267	F	0.277714	1.167563	0.174426
H268	H	-0.793833	1.164977	-0.435591
H269	H	-0.460499	1.498311	-0.102258
H270	H	-0.127166	1.831644	0.231075
F271	F	-0.926842	0.937466	-0.397183
F272	F	-0.593509	1.270799	-0.063849
F273	F	-0.260175	1.604132	0.269484
F274	F	-0.262108	0.499485	-0.457918
F275	F	0.071225	0.832819	-0.124585
F276	F	0.404558	1.166152	0.208748
H277	H	-0.454151	0.634680	-0.280551
H278	H	-0.120818	0.968013	0.052782
H279	H	0.212516	1.301346	0.386115
H280	H	-0.919824	1.192165	-0.337593
H281	H	-0.586491	1.525499	-0.004259
H282	H	-0.253158	1.858832	0.329074
F283	F	-0.493489	0.499543	-0.385278
F284	F	-0.160155	0.832877	-0.051945
F285	F	0.173178	1.166210	0.281389
