data_functionalizedCrystal
_audit_creation_method	'MofGen! by Chris Wilmer'
_symmetry_space_group_name_H-M	'P1'
_symmetry_Int_Tables_number	1
_symmetry_cell_setting	triclinic
loop_
_symmetry_equiv_pos_as_xyz
  x,y,z
_cell_length_a	23.532355
_cell_length_b	23.532407
_cell_length_c	14.184680
_cell_angle_alpha	76.938487
_cell_angle_beta	103.078329
_cell_angle_gamma	82.838088
loop_
_atom_site_label
_atom_site_type_symbol
_atom_site_fract_x
_atom_site_fract_y
_atom_site_fract_z
O1	O	0.768259	0.056021	0.083298
O2	O	1.268259	0.556021	0.583298
O3	O	0.602396	0.066050	0.083331
O4	O	1.102396	0.566050	0.583331
O5	O	0.690326	-0.021894	0.083295
O6	O	1.190326	0.478106	0.583295
O7	O	0.680329	0.143965	0.083334
O8	O	1.180329	0.643965	0.583334
O9	O	0.664319	0.004089	-0.083554
O10	O	1.164319	0.504089	0.416446
O11	O	0.576389	0.092033	-0.083517
O12	O	1.076389	0.592033	0.416483
O13	O	0.742252	0.082004	-0.083551
O14	O	1.242252	0.582004	0.416449
Cu15	Cu	0.656946	0.089391	-0.098769
Cu16	Cu	1.156946	0.589391	0.401231
Cu17	Cu	0.687702	0.058663	0.098549
Cu18	Cu	1.187702	0.558663	0.598549
O19	O	0.654322	0.169948	-0.083515
O20	O	1.154322	0.669948	0.416485
C21	C	0.568177	0.078790	-0.000089
C22	C	1.068177	0.578790	0.499911
C23	C	0.504960	0.078034	-0.000077
C24	C	1.004960	0.578034	0.499923
C25	C	0.098763	0.087466	-0.091070
C26	C	0.598763	0.587466	0.408930
C27	C	0.039363	0.086749	-0.091074
C28	C	0.539363	0.586749	0.408926
O29	O	-0.003412	0.098404	-0.168422
O30	O	0.496588	0.598404	0.331578
N31	N	0.023831	0.072230	-0.000125
N32	N	0.523831	0.572230	0.499875
C33	C	0.067704	0.058421	0.090834
C34	C	0.567704	0.558421	0.590834
O35	O	0.049038	0.046005	0.168193
O36	O	0.549038	0.546005	0.668193
C37	C	0.127103	0.059134	0.090837
C38	C	0.627103	0.559134	0.590837
C39	C	0.142630	0.073660	-0.000118
C40	C	0.642630	0.573660	0.499882
C41	C	0.114292	0.101990	-0.182017
C42	C	0.614292	0.601990	0.317983
C43	C	0.173687	0.102708	-0.182013
C44	C	0.673687	0.602708	0.317987
C45	C	0.217555	0.088902	-0.091061
C46	C	0.717555	0.588902	0.408939
C47	C	0.202026	0.074378	-0.000113
C48	C	0.702026	0.574378	0.499887
C49	C	0.170975	0.045321	0.181795
C50	C	0.670975	0.545321	0.681795
C51	C	0.230378	0.046035	0.181790
C52	C	0.730378	0.546035	0.681790
C53	C	0.245905	0.060561	0.090835
C54	C	0.745905	0.560561	0.590835
C55	C	0.305289	0.061289	0.090843
C56	C	0.805289	0.561289	0.590843
N57	N	0.320821	0.075808	-0.000106
N58	N	0.820821	0.575808	0.499894
C59	C	0.276954	0.089615	-0.091058
C60	C	0.776954	0.589615	0.408942
C61	C	-0.057040	0.056924	0.090821
C62	C	0.442960	0.556924	0.590821
C63	C	-0.116438	0.056215	0.090819
C64	C	0.383562	0.556215	0.590819
C65	C	-0.144775	0.084542	-0.091089
C66	C	0.355225	0.584542	0.408911
C67	C	-0.085376	0.085255	-0.091086
C68	C	0.414624	0.585255	0.408914
C69	C	-0.041508	0.071443	-0.000128
C70	C	0.458492	0.571443	0.499872
C71	C	0.401691	0.091121	-0.091042
C72	C	0.901691	0.591121	0.408958
C73	C	0.461093	0.091840	-0.091029
C74	C	0.961093	0.591840	0.408971
C75	C	0.489425	0.063510	0.090878
C76	C	0.989425	0.563510	0.590878
C77	C	0.430027	0.062794	0.090867
C78	C	0.930027	0.562794	0.590867
C79	C	0.386161	0.076599	-0.000102
C80	C	0.886161	0.576599	0.499898
O81	O	0.348096	0.049638	0.168152
O82	O	0.848096	0.549638	0.668152
O83	O	0.295630	0.102021	-0.168403
O84	O	0.795630	0.602021	0.331597
C85	C	0.677068	-0.030118	-0.000132
C86	C	1.177068	0.469882	0.499868
C87	C	0.676301	-0.093334	-0.000139
C88	C	1.176301	0.406666	0.499861
C89	C	0.723542	-0.492453	-0.000094
C90	C	1.223542	0.007547	0.499906
C91	C	0.722832	-0.551854	-0.000086
C92	C	1.222832	-0.051854	0.499914
O93	O	0.766623	-0.588611	-0.000058
O94	O	1.266623	-0.088611	0.499942
N95	N	0.670556	-0.574472	-0.000076
N96	N	1.170556	-0.074472	0.499924
C97	C	0.618988	-0.537687	-0.000064
C98	C	1.118988	-0.037687	0.499936
O99	O	0.574458	-0.562380	-0.000054
O100	O	1.074458	-0.062380	0.499946
C101	C	0.619700	-0.478288	-0.000064
C102	C	1.119700	0.021712	0.499936
C103	C	0.671978	-0.455672	-0.000084
C104	C	1.171978	0.044328	0.499916
C105	C	0.775816	-0.469837	-0.000113
C106	C	1.275816	0.030163	0.499887
C107	C	0.776526	-0.410439	-0.000122
C108	C	1.276526	0.089561	0.499878
C109	C	0.724962	-0.373658	-0.000113
C110	C	1.224962	0.126342	0.499887
C111	C	0.672688	-0.396274	-0.000094
C112	C	1.172688	0.103726	0.499906
C113	C	0.568134	-0.441505	-0.000045
C114	C	1.068134	0.058495	0.499955
C115	C	0.568851	-0.382103	-0.000045
C116	C	1.068851	0.117897	0.499955
C117	C	0.621129	-0.359487	-0.000065
C118	C	1.121129	0.140513	0.499935
C119	C	0.621834	-0.300096	-0.000095
C120	C	1.121834	0.199904	0.499905
N121	N	0.674110	-0.277478	-0.000104
N122	N	1.174110	0.222522	0.499896
C123	C	0.725674	-0.314259	-0.000114
C124	C	1.225674	0.185741	0.499886
C125	C	0.617497	-0.662430	-0.000061
C126	C	1.117497	-0.162430	0.499939
C127	C	0.616784	-0.721826	-0.000068
C128	C	1.116784	-0.221826	0.499932
C129	C	0.720628	-0.735990	-0.000088
C130	C	1.220628	-0.235990	0.499912
C131	C	0.721340	-0.676591	-0.000088
C132	C	1.221340	-0.176591	0.499912
C133	C	0.669773	-0.639812	-0.000071
C134	C	1.169773	-0.139812	0.499929
C135	C	0.727160	-0.189519	-0.000135
C136	C	1.227160	0.310481	0.499865
C137	C	0.727865	-0.130115	-0.000148
C138	C	1.227865	0.369885	0.499852
C139	C	0.624022	-0.115958	-0.000123
C140	C	1.124022	0.384042	0.499877
C141	C	0.623316	-0.175356	-0.000114
C142	C	1.123316	0.324644	0.499886
C143	C	0.674890	-0.212136	-0.000117
C144	C	1.174890	0.287864	0.499883
O145	O	0.578066	-0.263305	-0.000119
O146	O	1.078066	0.236695	0.499881
O147	O	0.770198	-0.289560	-0.000110
O148	O	1.270198	0.210440	0.499890
C149	C	0.776472	0.069264	-0.000128
C150	C	1.276472	0.569264	0.499872
C151	C	0.839689	0.070018	-0.000134
C152	C	1.339689	0.570018	0.499866
C153	C	0.667581	0.178172	-0.000086
C154	C	1.167581	0.678172	0.499914
C155	C	0.668349	0.241386	-0.000071
C156	C	1.168349	0.741386	0.499929
N157	N	0.635317	0.111003	-0.237552
N158	N	1.135317	0.611003	0.262448
C159	C	0.571836	0.174463	-0.395093
C160	C	1.071836	0.674463	0.104907
C161	C	0.588200	0.158103	-0.290063
C162	C	1.088200	0.658103	0.209937
C163	C	0.666091	0.080247	-0.290059
C164	C	1.166091	0.580247	0.209941
C165	C	0.649735	0.096602	-0.395092
C166	C	1.149735	0.596602	0.104908
C167	C	0.602607	0.143710	-0.447601
C168	C	1.102607	0.643710	0.052399
C169	C	0.680506	0.065850	-0.447599
C170	C	1.180506	0.565850	0.052401
C171	C	0.664149	0.082202	-0.552622
C172	C	1.164149	0.582202	-0.052622
C173	C	0.617022	0.129307	-0.605139
C174	C	1.117022	0.629307	-0.105139
C175	C	0.586250	0.160062	-0.552624
C176	C	1.086250	0.660062	-0.052624
C177	C	0.727631	0.018739	-0.395088
C178	C	1.227631	0.518739	0.104912
C179	C	0.758402	-0.012013	-0.447595
C180	C	1.258402	0.487987	0.052405
C181	C	0.742048	0.004342	-0.552621
C182	C	1.242048	0.504342	-0.052621
C183	C	0.694921	0.051446	-0.605137
C184	C	1.194921	0.551446	-0.105137
C185	C	0.772820	-0.026414	-0.605135
C186	C	1.272820	0.473586	-0.105135
C187	C	0.756463	-0.010062	-0.710159
C188	C	1.256463	0.489938	-0.210159
C189	C	0.678564	0.067799	-0.710161
C190	C	1.178564	0.567799	-0.210161
N191	N	0.709335	0.037046	0.237332
N192	N	1.209335	0.537046	0.737332
H193	H	-0.180503	0.095783	-0.165147
H194	H	0.319497	0.595783	0.334853
H195	H	-0.021324	0.045681	0.164895
H196	H	0.478676	0.545681	0.664895
H197	H	0.769158	-0.219460	-0.000133
H198	H	1.269158	0.280540	0.499867
H199	H	-0.129076	0.044396	0.164884
H200	H	0.370924	0.544396	0.664884
H201	H	0.704462	0.041890	-0.247294
H202	H	1.204462	0.541890	0.252706
H203	H	0.819097	-0.392032	-0.000134
H204	H	1.319097	0.107968	0.499866
H205	H	0.781520	-0.035105	-0.752911
H206	H	1.281520	0.464895	-0.252911
H207	H	0.580743	-0.193766	-0.000126
H208	H	1.080743	0.306234	0.499874
H209	H	0.811189	-0.064773	-0.562369
H210	H	1.311189	0.435227	-0.062369
H211	H	0.640192	0.106163	-0.752915
H212	H	1.140192	0.606163	-0.252915
H213	H	0.763909	-0.658182	-0.000104
H214	H	1.263909	-0.158182	0.499896
H215	H	0.473730	0.103671	-0.165099
H216	H	0.973730	0.603671	0.334901
H217	H	0.603703	0.142619	-0.690656
H218	H	1.103703	0.642619	-0.190656
H219	H	0.365980	0.102368	-0.165116
H220	H	0.865980	0.602368	0.334884
H221	H	0.547878	0.198426	-0.595379
H222	H	1.047878	0.698426	-0.095379
H223	H	0.158345	0.033492	0.255860
H224	H	0.658345	0.533492	0.755860
H225	H	0.563138	0.183149	-0.247317
H226	H	1.063138	0.683149	0.252683
H227	H	0.762615	-0.765949	-0.000091
H228	H	1.262615	-0.265949	0.499909
H229	H	0.266094	0.034787	0.255861
H230	H	0.766094	0.534787	0.755861
H231	H	0.796773	-0.050370	-0.404831
H232	H	1.296773	0.449630	0.095169
H233	H	0.817809	-0.499779	-0.000116
H234	H	1.317809	0.000221	0.499884
H235	H	0.533464	0.212827	-0.437848
H236	H	1.033464	0.712827	0.062152
H237	H	0.574211	-0.740232	-0.000069
H238	H	1.074211	-0.240232	0.499931
H239	H	0.525565	-0.459909	-0.000023
H240	H	1.025565	0.040091	0.499977
H241	H	0.417384	0.050975	0.164929
H242	H	0.917384	0.550975	0.664929
H243	H	0.740945	0.005425	-0.309571
H244	H	1.240945	0.505425	0.190429
H245	H	0.770437	-0.111704	-0.000167
H246	H	1.270437	0.388296	0.499833
H247	H	0.186323	0.114533	-0.256077
H248	H	0.686323	0.614533	0.243923
H249	H	0.525151	0.052272	0.164929
H250	H	1.025151	0.552272	0.664929
H251	H	0.575502	-0.632485	-0.000055
H252	H	1.075502	-0.132485	0.499945
H253	H	0.526858	-0.352159	-0.000029
H254	H	1.026858	0.147841	0.499971
H255	H	0.582039	-0.085999	-0.000119
H256	H	1.082039	0.414001	0.499881
H257	H	-0.072739	0.097084	-0.165150
H258	H	0.427261	0.597084	0.334850
H259	H	0.078579	0.113232	-0.256085
H260	H	0.578579	0.613232	0.243915
