data_functionalizedCrystal
_audit_creation_method	'MofGen! by Chris Wilmer'
_symmetry_space_group_name_H-M	'P1'
_symmetry_Int_Tables_number	1
_symmetry_cell_setting	triclinic
loop_
_symmetry_equiv_pos_as_xyz
  x,y,z
_cell_length_a	16.109318
_cell_length_b	14.044220
_cell_length_c	15.186229
_cell_angle_alpha	90.001077
_cell_angle_beta	90.002030
_cell_angle_gamma	88.328720
loop_
_atom_site_label
_atom_site_type_symbol
_atom_site_fract_x
_atom_site_fract_y
_atom_site_fract_z
O1	O	1.112195	0.121908	0.073157
O2	O	1.612195	0.621908	0.573157
O3	O	0.871262	0.137053	0.073175
O4	O	1.371262	0.637053	0.573175
O5	O	0.988112	-0.008503	0.073158
O6	O	1.488112	0.491497	0.573158
O7	O	0.995345	0.267464	0.073175
O8	O	1.495345	0.767464	0.573175
O9	O	0.988097	-0.008495	-0.073299
O10	O	1.488097	0.491505	0.426701
O11	O	0.871247	0.137062	-0.073282
O12	O	1.371247	0.637062	0.426718
O13	O	1.112180	0.121917	-0.073300
O14	O	1.612180	0.621917	0.426700
Zn15	Zn	0.991712	0.129490	-0.096544
Zn16	Zn	1.491712	0.629490	0.403456
Zn17	Zn	0.991731	0.129479	0.096419
Zn18	Zn	1.491731	0.629479	0.596419
O19	O	0.995330	0.267473	-0.073283
O20	O	1.495330	0.767473	0.426717
C21	C	0.840234	0.136441	-0.000051
C22	C	1.340234	0.636441	0.499949
C23	C	0.747802	0.134593	-0.000044
C24	C	1.247802	0.634593	0.499956
C25	C	0.984939	-0.043813	-0.000071
C26	C	1.484939	0.456187	0.499929
C27	C	0.975495	-0.149036	-0.000071
C28	C	1.475495	0.350964	0.499929
C29	C	0.448292	0.128620	0.079774
C30	C	0.948292	0.628620	0.579774
C31	C	0.535142	0.130350	0.079779
C32	C	1.035142	0.630350	0.579779
C33	C	0.535144	0.130346	-0.079897
C34	C	1.035144	0.630346	0.420103
C35	C	0.448296	0.128610	-0.079901
C36	C	0.948296	0.628610	0.420099
C37	C	0.404872	0.127752	-0.000064
C38	C	0.904872	0.627752	0.499936
C39	C	0.578570	0.131218	-0.000053
C40	C	1.078570	0.631218	0.499947
C41	C	0.672737	0.133094	-0.000048
C42	C	1.172737	0.633094	0.499952
C43	C	0.310699	0.125874	-0.000069
C44	C	0.810699	0.625874	0.499931
C45	C	0.958230	-0.341693	-0.000057
C46	C	1.458230	0.158307	0.499943
C47	C	1.025209	-0.399342	-0.000060
C48	C	1.525209	0.100658	0.499940
C49	C	1.015602	-0.506544	-0.000052
C50	C	1.515602	-0.006544	0.499948
C51	C	0.967835	-0.234482	-0.000065
C52	C	1.467835	0.265518	0.499935
C53	C	1.143208	0.122529	-0.000072
C54	C	1.643208	0.622529	0.499928
C55	C	1.235640	0.124377	-0.000073
C56	C	1.735640	0.624377	0.499927
C57	C	0.998503	0.302782	-0.000052
C58	C	1.498503	0.802782	0.499948
C59	C	1.007947	0.408006	-0.000046
C60	C	1.507947	0.908006	0.499954
N61	N	0.991705	0.129497	-0.228237
N62	N	1.491705	0.629497	0.271763
C63	C	1.046406	0.186993	-0.453960
C64	C	1.546406	0.686993	0.046040
C65	C	1.046414	0.186986	-0.546150
C66	C	1.546414	0.686986	-0.046150
C67	C	0.937040	0.071963	-0.546158
C68	C	1.437040	0.571963	-0.046158
C69	C	0.937036	0.071966	-0.453970
C70	C	1.437036	0.571966	0.046030
C71	C	0.991718	0.129486	-0.407874
C72	C	1.491718	0.629486	0.092126
C73	C	0.991730	0.129477	-0.592251
C74	C	1.491730	0.629477	-0.092251
C75	C	0.991739	0.129469	-0.692207
C76	C	1.491739	0.629469	-0.192207
C77	C	0.991710	0.129492	-0.307911
C78	C	1.491710	0.629492	0.192089
N79	N	0.991743	0.129465	0.228112
N80	N	1.491743	0.629465	0.728112
H81	H	0.570491	0.131057	0.144790
H82	H	1.070491	0.631057	0.644790
H83	H	0.570510	0.131047	-0.144898
H84	H	1.070510	0.631047	0.355102
C85	C	0.315159	0.125967	0.150669
C86	C	0.815159	0.625967	0.650669
C87	C	0.400559	0.127669	0.167529
C88	C	0.900559	0.627669	0.667529
H89	H	0.285694	0.125383	0.204849
H90	H	0.785694	0.625383	0.704849
H91	H	0.303172	0.070445	0.117871
H92	H	0.803172	0.570445	0.617871
H93	H	0.298692	0.180928	0.117866
H94	H	0.798692	0.680928	0.617866
H95	H	0.417027	0.072704	0.200327
H96	H	0.917027	0.572704	0.700327
H97	H	0.412550	0.183197	0.200342
H98	H	0.912550	0.683197	0.700342
C99	C	0.888426	0.020944	-0.687479
C100	C	1.388426	0.520944	-0.187479
C101	C	0.876926	0.008748	-0.596828
C102	C	1.376926	0.508748	-0.096828
H103	H	0.851308	-0.018079	-0.718756
H104	H	1.351308	0.481921	-0.218756
H105	H	0.943996	0.003382	-0.702615
H106	H	1.443996	0.503382	-0.202615
H107	H	0.877760	0.085800	-0.702544
H108	H	1.377760	0.585800	-0.202544
H109	H	0.887598	-0.056107	-0.581762
H110	H	1.387598	0.443893	-0.081762
H111	H	0.821344	0.026304	-0.581686
H112	H	1.321344	0.526304	-0.081686
C113	C	1.188445	0.224270	-0.574507
C114	C	1.688445	0.724270	-0.074507
C115	C	1.106528	0.250203	-0.596805
C116	C	1.606528	0.750203	-0.096805
H117	H	1.225557	0.263304	-0.605775
H118	H	1.725557	0.763304	-0.105775
H119	H	1.199082	0.159430	-0.589618
H120	H	1.699082	0.659430	-0.089618
H121	H	1.196253	0.232505	-0.513003
H122	H	1.696253	0.732505	-0.013003
H123	H	1.098718	0.241962	-0.658308
H124	H	1.598718	0.741962	-0.158308
H125	H	1.095888	0.315059	-0.581699
H126	H	1.595888	0.815059	-0.081699
C127	C	0.878317	-0.483344	-0.000059
C128	C	1.378317	0.016656	0.499941
C129	C	0.871083	-0.383745	-0.000059
C130	C	1.371083	0.116255	0.499941
H131	H	0.824516	-0.509311	-0.000068
H132	H	1.324516	-0.009311	0.499932
H133	H	0.907659	-0.504132	0.051014
H134	H	1.407659	-0.004132	0.551014
H135	H	0.907670	-0.504134	-0.051132
H136	H	1.407670	-0.004134	0.448868
H137	H	0.841735	-0.362955	0.051019
H138	H	1.341735	0.137045	0.551019
H139	H	0.841728	-0.362948	-0.051136
H140	H	1.341728	0.137052	0.448864
C141	C	1.155626	-0.387953	0.075204
C142	C	1.655626	0.112047	0.575204
C143	C	1.112362	-0.357292	-0.000078
C144	C	1.612362	0.142708	0.499922
H145	H	1.209426	-0.361984	0.075191
H146	H	1.709426	0.138016	0.575191
H147	H	1.160516	-0.455514	0.075203
H148	H	1.660516	0.044486	0.575203
H149	H	1.126281	-0.367139	0.126276
H150	H	1.626281	0.132861	0.626276
H151	H	1.141703	-0.378112	-0.051150
H152	H	1.641703	0.121888	0.448850
H153	H	1.107475	-0.289716	-0.000085
H154	H	1.607475	0.210284	0.499915
H155	H	1.090931	0.233829	-0.416431
H156	H	1.590931	0.733829	0.083569
H157	H	0.892502	0.025132	-0.416446
H158	H	1.392502	0.525132	0.083554
H159	H	0.412943	0.127901	-0.144918
H160	H	0.912943	0.627901	0.355082
