data_functionalizedCrystal
_audit_creation_method	'MofGen! by Chris Wilmer'
_symmetry_space_group_name_H-M	'P1'
_symmetry_Int_Tables_number	1
_symmetry_cell_setting	triclinic
loop_
_symmetry_equiv_pos_as_xyz
  x,y,z
_cell_length_a	9.130313
_cell_length_b	10.654550
_cell_length_c	10.654550
_cell_angle_alpha	84.484931
_cell_angle_beta	89.998874
_cell_angle_gamma	90.002987
loop_
_atom_site_label
_atom_site_type_symbol
_atom_site_fract_x
_atom_site_fract_y
_atom_site_fract_z
O1	O	0.121690	-1.667834	-0.176393
O2	O	0.121716	-1.302356	-0.193199
O3	O	0.121693	-1.493498	-0.002057
O4	O	0.121713	-1.476692	-0.367536
O5	O	-0.121906	-1.493495	-0.002062
O6	O	-0.121882	-1.302353	-0.193205
O7	O	-0.121909	-1.667832	-0.176399
Cu8	Cu	-0.144138	-1.485092	-0.184802
Cu9	Cu	0.143946	-1.485095	-0.184796
O10	O	-0.121886	-1.476689	-0.367541
C11	C	-0.000080	-1.255556	-0.191968
C12	C	-0.000070	-1.116113	-0.188276
C13	C	-0.000105	-1.492263	0.044738
C14	C	-0.000103	-1.488571	0.184181
N15	N	-0.346761	-1.485099	-0.184806
C16	C	-0.423423	-1.569759	-0.100197
C17	C	-0.576760	-1.569756	-0.100182
C18	C	-0.576759	-1.400429	-0.269395
C19	C	-0.423425	-1.400427	-0.269403
C20	C	-0.423425	-1.667522	-0.002506
C21	C	-0.576762	-1.667519	-0.002491
N22	N	0.346568	-1.485098	-0.184783
C23	C	-0.000110	-1.714631	-0.177630
C24	C	-0.000110	-1.854074	-0.181322
C25	C	-0.000068	-1.036628	-0.300818
C26	C	-0.000093	-0.905607	-0.297341
C27	C	-0.000117	-0.933570	-0.068772
C28	C	-0.000101	-1.064588	-0.072250
C29	C	-0.000084	-1.477925	-0.414336
C30	C	-0.000077	-1.481617	-0.553779
C31	C	-0.000111	-1.601112	0.263667
C32	C	-0.000092	-1.597636	0.394688
C33	C	-0.000065	-1.369066	0.366725
C34	C	-0.000073	-1.372544	0.235706
H35	H	-0.361008	-1.331480	-0.338287
Cl36	Cl	-0.641035	-1.816522	-0.035703
H37	H	-0.000053	-1.078574	-0.395294
H38	H	-0.000107	-1.129309	0.019401
H39	H	-0.000132	-1.695588	0.221720
H40	H	-0.375872	-1.758706	-0.033095
H41	H	-0.000095	-0.840894	-0.388984
H42	H	-0.000151	-0.891602	0.025693
H43	H	-0.000043	-1.274601	0.408693
H44	H	-0.000096	-1.689279	0.459401
Cl45	Cl	-0.000050	-1.231051	0.135774
H46	H	-0.639195	-1.331490	-0.338272
Cl47	Cl	-0.359160	-1.634416	0.146527
H48	H	-0.624311	-1.637006	0.088731
