data_functionalizedCrystal
_audit_creation_method	'MofGen! by Chris Wilmer'
_symmetry_space_group_name_H-M	'P1'
_symmetry_Int_Tables_number	1
_symmetry_cell_setting	triclinic
loop_
_symmetry_equiv_pos_as_xyz
  x,y,z
_cell_length_a	19.188900
_cell_length_b	19.188930
_cell_length_c	13.101018
_cell_angle_alpha	93.366121
_cell_angle_beta	93.334242
_cell_angle_gamma	96.861366
loop_
_atom_site_label
_atom_site_type_symbol
_atom_site_fract_x
_atom_site_fract_y
_atom_site_fract_z
O1	O	-0.922290	0.090944	0.085425
O2	O	-0.588957	0.424278	0.418759
O3	O	-0.255623	0.757611	0.752092
O4	O	-0.718977	0.102699	0.085385
O5	O	-0.385644	0.436032	0.418719
O6	O	-0.052311	0.769365	0.752052
O7	O	-0.826502	-0.004836	0.085386
O8	O	-0.493168	0.328498	0.418720
O9	O	-0.159835	0.661831	0.752053
O10	O	-0.814766	0.198479	0.085424
O11	O	-0.481432	0.531812	0.418757
O12	O	-0.148099	0.865145	0.752091
O13	O	-0.834210	-0.012573	-0.085044
O14	O	-0.500877	0.320760	0.248289
O15	O	-0.167543	0.654093	0.581623
O16	O	-0.726686	0.094961	-0.085045
O17	O	-0.393352	0.428294	0.248288
O18	O	-0.060019	0.761628	0.581622
O19	O	-0.929998	0.083207	-0.085005
O20	O	-0.596665	0.416540	0.248328
O21	O	-0.263332	0.749873	0.581662
Zn22	Zn	-0.829566	0.087855	-0.112085
Zn23	Zn	-0.496233	0.421189	0.221249
Zn24	Zn	-0.162899	0.754522	0.554582
Zn25	Zn	-0.819410	0.098050	0.112465
Zn26	Zn	-0.486076	0.431383	0.445798
Zn27	Zn	-0.152743	0.764717	0.779131
O28	O	-0.822474	0.190741	-0.085006
O29	O	-0.489141	0.524074	0.248327
O30	O	-0.155807	0.857408	0.581660
C31	C	-0.696820	0.098452	0.000165
C32	C	-0.363487	0.431786	0.333498
C33	C	-0.030154	0.765119	0.666831
C34	C	-0.619316	0.097319	0.000149
C35	C	-0.285982	0.430653	0.333482
C36	C	0.047351	0.763986	0.666815
C37	C	-0.578722	0.100993	0.093051
C38	C	-0.245388	0.434327	0.426385
C39	C	0.087945	0.767660	0.759718
C40	C	-0.505898	0.099922	0.093062
C41	C	-0.172564	0.433255	0.426395
C42	C	0.160769	0.766589	0.759728
C43	C	-0.473672	0.095163	0.000164
C44	C	-0.140339	0.428496	0.333497
C45	C	0.192995	0.761829	0.666830
C46	C	-0.514275	0.091492	-0.092752
C47	C	-0.180941	0.424826	0.240582
C48	C	0.152392	0.758159	0.573915
C49	C	-0.587096	0.092571	-0.092759
C50	C	-0.253763	0.425904	0.240574
C51	C	0.079570	0.759237	0.573907
N52	N	-0.367779	0.050597	-0.068982
N53	N	-0.034445	0.383930	0.264352
N54	N	0.298888	0.717263	0.597685
N55	N	-0.298601	0.049571	-0.068968
N56	N	0.034732	0.382905	0.264365
N57	N	0.368066	0.716238	0.597698
C58	C	-0.254264	0.091915	0.000181
C59	C	0.079069	0.425248	0.333514
C60	C	0.412403	0.758581	0.666847
N61	N	-0.281719	0.135315	0.069331
N62	N	0.051615	0.468648	0.402665
N63	N	0.384948	0.801981	0.735998
N64	N	-0.350903	0.136337	0.069321
N65	N	-0.017570	0.469671	0.402654
N66	N	0.315764	0.803004	0.735987
C67	C	-0.394709	0.093993	0.000161
C68	C	-0.061376	0.427327	0.333495
C69	C	0.271957	0.760660	0.666828
C70	C	-0.134705	0.094428	0.093101
C71	C	0.198628	0.427762	0.426434
C72	C	0.531961	0.761095	0.759768
C73	C	-0.061879	0.093361	0.093107
C74	C	0.271454	0.426695	0.426441
C75	C	0.604787	0.760028	0.759774
C76	C	-0.070259	0.084924	-0.092709
C77	C	0.263074	0.418258	0.240625
C78	C	0.596408	0.751591	0.573958
C79	C	-0.143082	0.085999	-0.092712
C80	C	0.190251	0.419332	0.240621
C81	C	0.523584	0.752665	0.573954
C82	C	-0.175302	0.090747	0.000195
C83	C	0.158032	0.424081	0.333529
C84	C	0.491365	0.757414	0.666862
C85	C	-0.829976	-0.034716	0.000168
C86	C	-0.496643	0.298618	0.333502
C87	C	-0.163309	0.631951	0.666835
C88	C	-0.828836	-0.112220	0.000159
C89	C	-0.495502	0.221113	0.333493
C90	C	-0.162169	0.554446	0.666826
C91	C	-0.891927	-0.157151	0.000167
C92	C	-0.558594	0.176183	0.333500
C93	C	-0.225260	0.509516	0.666833
C94	C	-0.890855	-0.229974	0.000183
C95	C	-0.557521	0.103360	0.333516
C96	C	-0.224188	0.436693	0.666850
C97	C	-0.826688	-0.257864	0.000171
C98	C	-0.493355	0.075469	0.333504
C99	C	-0.160022	0.408803	0.666838
C100	C	-0.763588	-0.212923	0.000169
C101	C	-0.430255	0.120410	0.333503
C102	C	-0.096922	0.453743	0.666836
C103	C	-0.764662	-0.140102	0.000163
C104	C	-0.431329	0.193232	0.333497
C105	C	-0.097995	0.526565	0.666830
N106	N	-0.780264	-0.368497	-0.057839
N107	N	-0.446931	-0.035164	0.275494
N108	N	-0.113597	0.298169	0.608827
N109	N	-0.779248	-0.437676	-0.057836
N110	N	-0.445915	-0.104342	0.275497
N111	N	-0.112582	0.228991	0.608831
C112	C	-0.823449	-0.477271	0.000191
C113	C	-0.490116	-0.143938	0.333524
C114	C	-0.156782	0.189395	0.666858
N115	N	-0.868715	-0.445077	0.058202
N116	N	-0.535382	-0.111744	0.391535
N117	N	-0.202049	0.221589	0.724868
N118	N	-0.869733	-0.375893	0.058194
N119	N	-0.536400	-0.042560	0.391527
N120	N	-0.203066	0.290774	0.724860
C121	C	-0.825517	-0.336826	0.000178
C122	C	-0.492183	-0.003493	0.333511
C123	C	-0.158850	0.329841	0.666845
C124	C	-0.885382	-0.601165	0.000218
C125	C	-0.552049	-0.267832	0.333551
C126	C	-0.218715	0.065501	0.666884
C127	C	-0.884307	-0.673989	0.000240
C128	C	-0.550973	-0.340656	0.333574
C129	C	-0.217640	-0.007322	0.666907
C130	C	-0.757039	-0.656937	0.000216
C131	C	-0.423706	-0.323604	0.333550
C132	C	-0.090372	0.009729	0.666883
C133	C	-0.758116	-0.584115	0.000204
C134	C	-0.424782	-0.250782	0.333537
C135	C	-0.091449	0.082552	0.666871
C136	C	-0.822289	-0.556234	0.000200
C137	C	-0.488956	-0.222900	0.333533
C138	C	-0.155623	0.110433	0.666867
C139	C	0.047845	0.087457	0.000210
C140	C	0.381178	0.420791	0.333543
C141	C	0.714512	0.754124	0.666876
C142	C	-0.029659	0.088603	0.000208
C143	C	0.303675	0.421936	0.333542
C144	C	0.637008	0.755270	0.666875
C145	C	-0.819000	0.220621	0.000214
C146	C	-0.485666	0.553954	0.333548
C147	C	-0.152333	0.887288	0.666881
C148	C	-0.820140	0.298126	0.000230
C149	C	-0.486806	0.631459	0.333563
C150	C	-0.153473	0.964793	0.666897
N151	N	-0.812479	0.105002	0.265714
N152	N	-0.479146	0.438336	0.599047
N153	N	-0.145812	0.771669	0.932380
N154	N	-0.836502	0.080898	-0.265333
N155	N	-0.503169	0.414231	0.068000
N156	N	-0.169836	0.747564	0.401333
C157	C	-0.845935	0.071442	0.525623
C158	C	-0.512601	0.404775	0.858957
C159	C	-0.179268	0.738109	1.192290
C160	C	-0.803049	0.114455	0.474750
C161	C	-0.469716	0.447789	0.808084
C162	C	-0.136382	0.781122	1.141417
C163	C	-0.808297	0.109194	0.358431
C164	C	-0.474964	0.442528	0.691765
C165	C	-0.141631	0.775861	1.025098
C166	C	-0.840687	0.076702	0.641953
C167	C	-0.507354	0.410036	0.975286
C168	C	-0.174021	0.743369	1.308619
H169	H	-0.044021	0.081053	-0.168348
H170	H	0.289312	0.414387	0.164985
H171	H	0.622646	0.747720	0.498319
Br172	Br	-0.642192	0.087586	-0.218852
Br173	Br	-0.308858	0.420919	0.114481
Br174	Br	0.024475	0.754252	0.447815
Br175	Br	-0.672487	-0.523134	0.000193
Br176	Br	-0.339153	-0.189800	0.333526
Br177	Br	-0.005820	0.143533	0.666859
H178	H	-0.160939	0.098302	0.168752
H179	H	0.172395	0.431636	0.502085
H180	H	0.505728	0.764969	0.835419
Br181	Br	-0.913695	0.003482	0.452620
Br182	Br	-0.580362	0.336815	0.785953
Br183	Br	-0.247028	0.670148	1.119286
H184	H	-0.604950	0.104860	0.168704
H185	H	-0.271617	0.438193	0.502038
H186	H	0.061717	0.771527	0.835371
Br187	Br	-0.450794	0.104910	0.219153
Br188	Br	-0.117461	0.438243	0.552487
Br189	Br	0.215872	0.771577	0.885820
H190	H	-0.713284	-0.103518	0.000157
H191	H	-0.379950	0.229815	0.333490
H192	H	-0.046617	0.563148	0.666824
Br193	Br	-0.470541	0.085041	-0.218829
Br194	Br	-0.137208	0.418374	0.114504
Br195	Br	0.196126	0.751707	0.447838
Br196	Br	-0.735283	0.182417	0.547758
Br197	Br	-0.401950	0.515750	0.881091
Br198	Br	-0.068617	0.849084	1.214424
H199	H	-0.028828	0.096357	0.168763
H200	H	0.304505	0.429691	0.502097
H201	H	0.637839	0.763024	0.835430
H202	H	-0.937636	-0.578463	0.000219
H203	H	-0.604303	-0.245130	0.333552
H204	H	-0.270969	0.088204	0.666886
Br205	Br	-0.969938	-0.734968	0.000261
Br206	Br	-0.636605	-0.401635	0.333595
Br207	Br	-0.303272	-0.068302	0.666928
H208	H	-0.711343	-0.235636	0.000162
H209	H	-0.378010	0.097697	0.333495
H210	H	-0.044677	0.431031	0.666829
H211	H	-0.944182	-0.134455	0.000167
H212	H	-0.610849	0.198878	0.333500
H213	H	-0.277516	0.532212	0.666834
Br214	Br	-0.198178	0.081010	-0.218802
Br215	Br	0.135155	0.414344	0.114531
Br216	Br	0.468488	0.747677	0.447864
H217	H	-0.942233	-0.266563	0.000193
H218	H	-0.608899	0.066770	0.333526
H219	H	-0.275566	0.400104	0.666860
H220	H	-0.704793	-0.679644	0.000212
H221	H	-0.371460	-0.346311	0.333545
H222	H	-0.038126	-0.012978	0.666878
