data_functionalizedCrystal
_audit_creation_method	'MofGen! by Chris Wilmer'
_symmetry_space_group_name_H-M	'P1'
_symmetry_Int_Tables_number	1
_symmetry_cell_setting	triclinic
loop_
_symmetry_equiv_pos_as_xyz
  x,y,z
_cell_length_a	15.072220
_cell_length_b	15.995350
_cell_length_c	13.262508
_cell_angle_alpha	83.981171
_cell_angle_beta	74.092822
_cell_angle_gamma	89.990384
loop_
_atom_site_label
_atom_site_type_symbol
_atom_site_fract_x
_atom_site_fract_y
_atom_site_fract_z
O1	O	0.041056	1.111447	0.135294
O2	O	0.541056	1.611447	0.635294
O3	O	0.037043	0.867731	0.151999
O4	O	0.537043	1.367731	0.651999
O5	O	0.075915	0.995716	-0.009135
O6	O	0.575915	1.495716	0.490865
O7	O	0.002184	0.983462	0.296429
O8	O	0.502184	1.483462	0.796429
O9	O	-0.071643	0.995732	-0.009164
O10	O	0.428357	1.495732	0.490836
O11	O	-0.110516	0.867747	0.151971
O12	O	0.389484	1.367747	0.651971
O13	O	-0.106502	1.111464	0.135266
O14	O	0.393498	1.611464	0.635266
Zn15	Zn	-0.131937	0.989608	0.143614
Zn16	Zn	0.368063	1.489608	0.643614
Zn17	Zn	0.062477	0.989587	0.143651
Zn18	Zn	0.562477	1.489587	0.643651
O19	O	-0.145374	0.983479	0.296401
O20	O	0.354626	1.483479	0.796401
C21	C	-0.036567	0.836542	0.151295
C22	C	0.463433	1.336542	0.651295
C23	C	-0.036061	0.743584	0.149224
C24	C	0.463939	1.243584	0.649224
N25	N	-0.264620	0.989629	0.143588
N26	N	0.235380	1.489629	0.643588
N27	N	0.195162	0.989572	0.143669
N28	N	0.695162	1.489572	0.643669
C29	C	0.554377	0.989610	0.143614
C30	C	1.054377	1.489610	0.643614
C31	C	0.495947	0.921201	0.229928
C32	C	0.995947	1.421201	0.729928
C33	C	0.393171	0.920945	0.229722
C34	C	0.893171	1.420945	0.729722
C35	C	0.376166	0.989591	0.143642
C36	C	0.876166	1.489591	0.643642
C37	C	0.439920	0.970354	0.034044
C38	C	0.939920	1.470354	0.534044
C39	C	0.542659	0.969873	0.034534
C40	C	1.042659	1.469873	0.534534
C41	C	0.511073	1.077456	0.165920
C42	C	1.011073	1.577456	0.665920
C43	C	0.407605	1.076868	0.168425
C44	C	0.907605	1.576868	0.668425
C45	C	0.275450	0.989582	0.143651
C46	C	0.775450	1.489582	0.643651
C47	C	0.655094	0.989617	0.143598
C48	C	1.155094	1.489617	0.643598
C49	C	-0.034285	0.405811	0.141788
C50	C	0.465715	0.905811	0.641788
C51	C	-0.006924	0.452841	0.027031
C52	C	0.493076	0.952841	0.527031
C53	C	-0.007085	0.549539	0.029102
C54	C	0.492915	1.049539	0.529102
C55	C	-0.035167	0.573384	0.145477
C56	C	0.464833	1.073384	0.645477
C57	C	0.035435	0.532487	0.202095
C58	C	0.535435	1.032487	0.702095
C59	C	0.036195	0.435841	0.199212
C60	C	0.536195	0.935841	0.699212
C61	C	-0.132178	0.435529	0.201551
C62	C	0.367822	0.935529	0.701551
C63	C	-0.133279	0.532474	0.201524
C64	C	0.366721	1.032474	0.701524
C65	C	-0.035663	0.668089	0.147567
C66	C	0.464337	1.168089	0.647567
C67	C	-0.033783	0.311105	0.139701
C68	C	0.466217	0.811105	0.639701
C69	C	0.011573	0.995036	-0.048251
C70	C	0.511573	1.495036	0.451749
C71	C	0.039692	0.992974	-0.164761
C72	C	0.539692	1.492974	0.335239
C73	C	-0.032890	1.142653	0.135970
C74	C	0.467110	1.642653	0.635970
C75	C	-0.033391	1.235610	0.138041
C76	C	0.466609	1.735610	0.638041
C77	C	-0.202790	0.987195	-0.493259
C78	C	0.297210	1.487195	0.006741
C79	C	-0.229211	0.989125	-0.383790
C80	C	0.270789	1.489125	0.116210
C81	C	-0.161988	0.990088	-0.329028
C82	C	0.338012	1.490088	0.170972
C83	C	-0.068339	0.989119	-0.383744
C84	C	0.431661	1.489119	0.116256
C85	C	-0.041916	0.987182	-0.493222
C86	C	0.458084	1.487182	0.006778
C87	C	-0.001113	0.990075	-0.328991
C88	C	0.498887	1.490075	0.171009
C89	C	0.092536	0.989107	-0.383707
C90	C	0.592536	1.489107	0.116293
C91	C	0.118954	0.987171	-0.493174
C92	C	0.618954	1.487171	0.006826
C93	C	0.051731	0.986208	-0.547937
C94	C	0.551731	1.486208	-0.047937
C95	C	-0.027536	0.992012	-0.219513
C96	C	0.472464	1.492012	0.280487
C97	C	0.133339	0.992000	-0.219476
C98	C	0.633339	1.492000	0.280524
C99	C	0.159759	0.990070	-0.328944
C100	C	0.659759	1.490070	0.171056
C101	C	-0.081030	0.984159	0.335516
C102	C	0.418970	1.484159	0.835516
C103	C	-0.109144	0.986220	0.452026
C104	C	0.390856	1.486220	0.952026
H105	H	0.348293	0.932427	0.311181
H106	H	0.848293	1.432427	0.811181
H107	H	0.109142	0.417380	0.157947
H108	H	0.609142	0.917380	0.657947
H109	H	0.363780	1.091455	0.249059
H110	H	0.863780	1.591455	0.749059
H111	H	-0.186993	0.414868	0.164022
H112	H	0.313007	0.914868	0.664022
F113	F	-0.071438	0.428426	-0.032941
F114	F	0.428562	0.928426	0.467059
H115	H	0.419006	0.907014	0.013960
H116	H	0.919006	1.407014	0.513960
F117	F	-0.159610	0.394404	0.312142
F118	F	0.340390	0.894404	0.812142
H119	H	-0.183505	0.991658	-0.239894
H120	H	0.316495	1.491658	0.260106
H121	H	0.188078	0.992778	-0.174888
H122	H	0.688078	1.492778	0.325112
F123	F	0.129800	0.569381	0.150727
F124	F	0.629800	1.069381	0.650727
H125	H	-0.305459	0.989922	-0.339250
H126	H	0.194541	1.489922	0.160750
H127	H	-0.257514	0.986405	-0.537855
H128	H	0.242486	1.486405	-0.037855
F129	F	0.580213	0.886127	0.008904
F130	F	1.080213	1.386127	0.508904
F131	F	0.502526	0.935967	0.336749
F132	F	1.002526	1.435967	0.836749
F133	F	0.218623	0.986129	-0.551403
F134	F	0.718623	1.486129	-0.051403
H135	H	0.525199	0.856383	0.215851
H136	H	1.025199	1.356383	0.715851
F137	F	0.392525	1.146540	0.091620
F138	F	0.892525	1.646540	0.591620
H139	H	0.073238	0.984641	-0.637076
H140	H	0.573238	1.484641	-0.137076
F141	F	0.562708	1.143999	0.083657
F142	F	1.062708	1.643999	0.583657
H143	H	0.431320	1.018844	-0.031734
H144	H	0.931320	1.518844	0.468266
F145	F	0.520331	1.101572	0.268155
F146	F	1.020331	1.601572	0.768155
F147	F	0.596042	1.032508	-0.051956
F148	F	1.096042	1.532508	0.448044
H149	H	0.372017	0.855757	0.215449
H150	H	0.872017	1.355757	0.715449
F151	F	-0.072000	0.586504	-0.029069
F152	F	0.428000	1.086504	0.470931
F153	F	0.086018	0.427008	-0.032641
F154	F	0.586018	0.927008	0.467359
F155	F	0.012584	0.551360	0.313839
F156	F	0.512584	1.051360	0.813839
H157	H	0.064229	0.577232	-0.015679
H158	H	0.564229	1.077232	0.484321
F159	F	0.014621	0.394074	0.309335
F160	F	0.514621	0.894074	0.809335
F161	F	-0.201703	0.567914	0.147416
F162	F	0.298297	1.067914	0.647416
F163	F	-0.166698	0.552943	0.312450
F164	F	0.333302	1.052943	0.812450
H165	H	-0.103786	0.992793	-0.174973
H166	H	0.396214	1.492793	0.325027
H167	H	0.236010	0.989280	-0.373510
H168	H	0.736010	1.489280	0.126490
