data_functionalizedCrystal
_audit_creation_method	'MofGen! by Chris Wilmer'
_symmetry_space_group_name_H-M	'P1'
_symmetry_Int_Tables_number	1
_symmetry_cell_setting	triclinic
loop_
_symmetry_equiv_pos_as_xyz
  x,y,z
_cell_length_a	14.519709
_cell_length_b	15.944551
_cell_length_c	13.596369
_cell_angle_alpha	89.993059
_cell_angle_beta	90.000291
_cell_angle_gamma	83.589442
loop_
_atom_site_label
_atom_site_type_symbol
_atom_site_fract_x
_atom_site_fract_y
_atom_site_fract_z
O1	O	1.223676	0.110109	-0.081665
O2	O	0.955176	0.123076	-0.081696
O3	O	1.096758	-0.005672	-0.081671
O4	O	1.082094	0.238856	-0.081690
O5	O	1.096744	-0.005679	0.081912
O6	O	0.955162	0.123069	0.081887
O7	O	1.223662	0.110102	0.081917
Zn8	Zn	1.089410	0.116584	0.107875
Zn9	Zn	1.089428	0.116593	-0.107653
O10	O	1.082080	0.238850	0.081893
C11	C	0.920810	0.122468	0.000092
C12	C	0.818432	0.120657	0.000081
C13	C	1.096142	-0.036970	0.000121
C14	C	1.094317	-0.130219	0.000121
C15	C	0.443548	0.113990	0.000126
C16	C	0.547853	0.115842	0.000113
C17	C	0.630987	0.117323	0.000102
C18	C	0.735298	0.119175	0.000091
C19	C	1.002196	-0.345209	0.000097
C20	C	1.044967	-0.406168	0.080758
C21	C	1.091015	-0.300950	0.000113
C22	C	1.045002	-0.406144	-0.080522
C23	C	1.087820	-0.465867	0.000101
C24	C	1.133811	-0.360680	0.080841
C25	C	1.133833	-0.360650	-0.080512
C26	C	1.176669	-0.421591	0.000169
C27	C	1.092854	-0.205945	0.000121
C28	C	1.085988	-0.560871	0.000100
C29	C	1.258028	0.110710	0.000128
C30	C	1.360406	0.112521	0.000132
C31	C	1.082696	0.270148	0.000099
C32	C	1.084521	0.363397	0.000092
N33	N	1.089404	0.116578	0.254966
N34	N	1.089442	0.116593	-0.254745
C35	C	1.089427	0.116594	0.656257
C36	C	1.089418	0.116592	0.544606
C37	C	1.089416	0.116587	0.455615
C38	C	1.089406	0.116584	0.343957
H39	H	0.928471	-0.312009	0.000169
C40	C	0.994699	-0.432997	0.171589
C41	C	0.903396	-0.393978	0.171199
C42	C	0.857053	-0.418677	0.254846
H43	H	1.025539	-0.416677	0.228939
H44	H	0.994343	-0.492544	0.171235
H45	H	0.903757	-0.334444	0.171562
H46	H	0.872531	-0.410293	0.113868
H47	H	0.856697	-0.478224	0.254492
H48	H	0.887900	-0.402357	0.312189
H49	H	0.795097	-0.392213	0.254587
H50	H	1.250458	-0.454643	0.000223
C51	C	1.184025	-0.334032	0.171789
C52	C	1.275061	-0.373687	0.171886
C53	C	1.321345	-0.349149	0.255644
H54	H	1.152795	-0.349970	0.229063
H55	H	1.184912	-0.274545	0.171254
H56	H	1.274170	-0.433162	0.172430
H57	H	1.306316	-0.357754	0.114631
H58	H	1.322232	-0.289661	0.255110
H59	H	1.290108	-0.365088	0.312912
H60	H	1.383120	-0.376044	0.255717
C61	C	1.184047	-0.333693	-0.171310
C62	C	1.261362	-0.294524	-0.142497
C63	C	1.307639	-0.269687	-0.226122
H64	H	1.143377	-0.295224	-0.208690
H65	H	1.203680	-0.381894	-0.210196
H66	H	1.241729	-0.246329	-0.103628
H67	H	1.302054	-0.332978	-0.105129
H68	H	1.327272	-0.317887	-0.265007
H69	H	1.266962	-0.231220	-0.263497
H70	H	1.360107	-0.243114	-0.206584
C71	C	0.994758	-0.432864	-0.171416
C72	C	0.903473	-0.393804	-0.171046
C73	C	0.857159	-0.418384	-0.254763
H74	H	0.994350	-0.492396	-0.171165
H75	H	1.025667	-0.416486	-0.228713
H76	H	0.872572	-0.410187	-0.113764
H77	H	0.903854	-0.334273	-0.171311
H78	H	0.888067	-0.402007	-0.312060
H79	H	0.856757	-0.477916	-0.254505
H80	H	0.795220	-0.391880	-0.254527
