data_functionalizedCrystal
_audit_creation_method	'MofGen! by Chris Wilmer'
_symmetry_space_group_name_H-M	'P1'
_symmetry_Int_Tables_number	1
_symmetry_cell_setting	triclinic
loop_
_symmetry_equiv_pos_as_xyz
  x,y,z
_cell_length_a	16.974885
_cell_length_b	15.538191
_cell_length_c	14.185292
_cell_angle_alpha	82.127500
_cell_angle_beta	106.664724
_cell_angle_gamma	65.372169
loop_
_atom_site_label
_atom_site_type_symbol
_atom_site_fract_x
_atom_site_fract_y
_atom_site_fract_z
O1	O	1.014345	0.120366	-0.001139
O2	O	0.774124	0.140668	-0.020623
O3	O	0.940994	-0.007645	-0.007093
O4	O	0.847474	0.268678	-0.014669
O5	O	0.990301	-0.051459	0.163747
O6	O	0.823431	0.096854	0.150217
O7	O	1.063652	0.076552	0.169702
Cu8	Cu	0.948044	0.082702	0.175558
Cu9	Cu	0.889732	0.134518	-0.026480
O10	O	0.896782	0.224864	0.156171
C11	C	0.768784	0.118804	0.062364
C12	C	0.679415	0.118921	0.055115
C13	C	0.173474	0.122128	0.004243
C14	C	0.257449	0.122015	0.011068
C15	C	0.326304	0.098082	0.107606
C16	C	0.311184	0.074251	0.197326
C17	C	0.227213	0.074357	0.190499
C18	C	0.580325	0.095196	0.138008
C19	C	0.664299	0.095094	0.144827
C20	C	0.610558	0.142857	-0.041432
C21	C	0.526586	0.142967	-0.048249
C22	C	0.511476	0.119131	0.041470
N23	N	0.412139	0.097969	0.114585
N24	N	0.425645	0.119237	0.034490
C25	C	0.975431	-0.064863	0.079118
C26	C	1.004574	-0.170078	0.081471
C27	C	0.715024	-0.451475	0.058007
C28	C	0.742432	-0.550347	0.060232
C29	C	0.896592	-0.576197	0.072736
C30	C	0.869196	-0.477324	0.070507
C31	C	0.778410	-0.414970	0.063143
C32	C	0.932582	-0.440819	0.075643
C33	C	0.905189	-0.341956	0.073419
C34	C	0.814409	-0.279597	0.066059
C35	C	0.751017	-0.316107	0.060919
C36	C	1.023369	-0.503176	0.083014
C37	C	1.086756	-0.466671	0.088150
C38	C	1.059361	-0.367804	0.085919
C39	C	0.968581	-0.305446	0.078559
C40	C	1.122753	-0.331294	0.091059
C41	C	1.095359	-0.232431	0.088835
C42	C	0.941188	-0.206582	0.076335
C43	C	1.068991	0.098416	0.086712
C44	C	1.158358	0.098301	0.093955
C45	C	0.862344	0.282083	0.069959
C46	C	0.833199	0.387300	0.067598
N47	N	0.989063	0.046257	0.317662
N48	N	0.848721	0.170955	-0.168583
C49	C	1.109531	-0.060758	0.484956
C50	C	1.078467	-0.033167	0.377410
C51	C	0.930687	0.098120	0.365444
C52	C	0.961737	0.070537	0.472990
C53	C	1.051160	-0.008902	0.532738
C54	C	0.903366	0.122393	0.520772
C55	C	0.934416	0.094815	0.628309
C56	C	1.023837	0.015381	0.688064
C57	C	1.082210	-0.036480	0.640275
C58	C	0.813945	0.201836	0.461022
C59	C	0.755574	0.253692	0.508804
C60	C	0.786621	0.226110	0.616343
C61	C	0.876042	0.146676	0.676098
C62	C	0.728248	0.277971	0.664132
C63	C	0.759298	0.250393	0.771669
C64	C	0.907092	0.119099	0.783635
H65	H	0.720360	0.075611	0.223444
H66	H	1.155024	-0.101173	0.688924
C67	C	0.097740	0.148455	-0.101958
N68	N	0.040700	0.168280	-0.181952
H69	H	0.970511	-0.626979	0.078736
C70	C	1.053499	-0.611928	0.085457
N71	N	1.076191	-0.693839	0.087294
H72	H	0.788670	0.224289	0.373459
H73	H	0.269753	0.141411	-0.061985
C74	C	0.450856	0.169279	-0.154449
N75	N	0.393817	0.189096	-0.234440
C76	C	0.784275	-0.170844	0.063611
N77	N	0.761578	-0.088930	0.061765
C78	C	0.627193	0.169063	-0.140116
N79	N	0.639723	0.188796	-0.214448
C80	C	1.207905	-0.148141	0.550685
N81	N	1.281999	-0.213951	0.600192
H82	H	1.196673	-0.382079	0.097064
H83	H	0.214905	0.054965	0.263553
H84	H	0.568040	0.075773	0.211064
C85	C	0.386912	0.047964	0.303518
N86	N	0.443942	0.028183	0.383504
H87	H	0.867259	-0.155808	0.070331
C88	C	1.186617	-0.535269	0.096249
N89	N	1.261832	-0.586936	0.102345
C90	C	1.005466	0.031715	0.849364
N91	N	1.079560	-0.034094	0.898872
H92	H	0.677089	-0.265333	0.054916
H93	H	0.641095	-0.400701	0.052003
C94	C	0.672692	-0.590496	0.054575
N95	N	0.620164	-0.620735	0.050315
H96	H	1.146976	-0.202709	0.093019
C97	C	1.142686	-0.090223	0.324855
N98	N	1.191055	-0.133196	0.285270
H99	H	1.049118	-0.007069	0.775627
C100	C	0.832321	0.185498	0.299709
N101	N	0.758229	0.251310	0.250199
C102	C	0.657209	0.341071	0.443070
N103	N	0.583117	0.406883	0.393559
C104	C	0.629887	0.365356	0.598396
N105	N	0.555799	0.431174	0.548883
H106	H	0.711766	0.292622	0.810573
