data_functionalizedCrystal
_audit_creation_method	'MofGen! by Chris Wilmer'
_symmetry_space_group_name_H-M	'P1'
_symmetry_Int_Tables_number	1
_symmetry_cell_setting	triclinic
loop_
_symmetry_equiv_pos_as_xyz
  x,y,z
_cell_length_a	16.974897
_cell_length_b	16.992696
_cell_length_c	15.455283
_cell_angle_alpha	92.849652
_cell_angle_beta	83.361580
_cell_angle_gamma	92.973182
loop_
_atom_site_label
_atom_site_type_symbol
_atom_site_fract_x
_atom_site_fract_y
_atom_site_fract_z
O1	O	1.062095	-0.106243	-0.146627
O2	O	1.395429	0.227091	0.186707
O3	O	1.728762	0.560424	0.520040
O4	O	0.831964	-0.118270	-0.130493
O5	O	1.165298	0.215063	0.202841
O6	O	1.498631	0.548396	0.536174
O7	O	0.946106	0.001889	-0.138471
O8	O	1.279439	0.335222	0.194863
O9	O	1.612773	0.668556	0.528196
O10	O	0.947954	-0.226402	-0.138648
O11	O	1.281287	0.106931	0.194685
O12	O	1.614620	0.440265	0.528018
O13	O	0.939538	0.008068	0.006254
O14	O	1.272871	0.341401	0.339587
O15	O	1.606205	0.674734	0.672921
O16	O	0.825396	-0.112092	0.014232
O17	O	1.158730	0.221242	0.347566
O18	O	1.492063	0.554575	0.680899
O19	O	1.055527	-0.100064	-0.001902
O20	O	1.388861	0.233269	0.331432
O21	O	1.722194	0.566603	0.664765
Cu22	Cu	0.939862	-0.105514	0.019380
Cu23	Cu	1.273196	0.227820	0.352713
Cu24	Cu	1.606529	0.561153	0.686046
Cu25	Cu	0.947630	-0.112821	-0.151774
Cu26	Cu	1.280963	0.220513	0.181559
Cu27	Cu	1.614296	0.553846	0.514893
O28	O	0.941386	-0.220223	0.006076
O29	O	1.274719	0.113110	0.339410
O30	O	1.608052	0.446443	0.672743
C31	C	0.799098	-0.114607	-0.056056
C32	C	1.132431	0.218727	0.277277
C33	C	1.465764	0.552060	0.610611
C34	C	0.710950	-0.112886	-0.049875
C35	C	1.044283	0.220447	0.283458
C36	C	1.377617	0.553781	0.616792
C37	C	0.673111	-0.115448	-0.125854
C38	C	1.006444	0.217886	0.207479
C39	C	1.339777	0.551219	0.540813
C40	C	0.590285	-0.113843	-0.120034
C41	C	0.923618	0.219490	0.213300
C42	C	1.256952	0.552824	0.546633
C43	C	0.545301	-0.109671	-0.038233
C44	C	0.878634	0.223662	0.295100
C45	C	1.211967	0.556995	0.628434
C46	C	0.583145	-0.107112	0.037752
C47	C	0.916479	0.226221	0.371085
C48	C	1.249812	0.559555	0.704419
C49	C	0.665969	-0.108722	0.031931
C50	C	0.999302	0.224611	0.365264
C51	C	1.332636	0.557944	0.698597
C52	C	0.297211	-0.104500	-0.012363
C53	C	0.630544	0.228834	0.320970
C54	C	0.963877	0.562167	0.654303
C55	C	0.214382	-0.102887	-0.006548
C56	C	0.547715	0.230446	0.326785
C57	C	0.881048	0.563780	0.660119
C58	C	0.221527	-0.109620	-0.164334
C59	C	0.554860	0.223714	0.168999
C60	C	0.888193	0.557047	0.502333
C61	C	0.304352	-0.111225	-0.170148
C62	C	0.637685	0.222109	0.163185
C63	C	0.971019	0.555442	0.496518
C64	C	0.342189	-0.108670	-0.094163
C65	C	0.675523	0.224664	0.239170
C66	C	1.008856	0.557997	0.572503
N67	N	0.460640	-0.108029	-0.032282
N68	N	0.793973	0.225305	0.301052
N69	N	1.127306	0.558638	0.634385
N70	N	0.426848	-0.110318	-0.100116
N71	N	0.760182	0.223015	0.233218
N72	N	1.093515	0.556349	0.566551
C73	C	0.940448	0.034196	-0.065938
C74	C	1.273781	0.367529	0.267396
C75	C	1.607115	0.700862	0.600729
C76	C	0.933365	0.121254	-0.065428
C77	C	1.266699	0.454588	0.267905
C78	C	1.600032	0.787921	0.601238
C79	C	1.001697	0.171361	-0.070211
C80	C	1.335030	0.504694	0.263122
C81	C	1.668364	0.838027	0.596456
C82	C	0.995037	0.253160	-0.069740
C83	C	1.328371	0.586494	0.263594
C84	C	1.661704	0.919827	0.596927
C85	C	0.920046	0.284853	-0.064480
C86	C	1.253379	0.618186	0.268853
C87	C	1.586712	0.951519	0.602187
C88	C	0.851709	0.234740	-0.059699
C89	C	1.185042	0.568073	0.273634
C90	C	1.518376	0.901407	0.606967
C91	C	0.858369	0.152941	-0.060177
C92	C	1.191703	0.486275	0.273157
C93	C	1.525036	0.819608	0.606490
C94	C	0.892442	0.528506	-0.062520
C95	C	1.225775	0.861839	0.270814
C96	C	1.559108	1.195173	0.604147
C97	C	0.885786	0.610311	-0.062040
C98	C	1.219120	0.943644	0.271293
C99	C	1.552453	1.276978	0.604626
C100	C	1.029116	0.628726	-0.072082
C101	C	1.362449	0.962059	0.261251
C102	C	1.695782	1.295392	0.594584
C103	C	1.035769	0.546925	-0.072554
C104	C	1.369103	0.880258	0.260780
C105	C	1.702436	1.213592	0.594113
C106	C	0.967433	0.496819	-0.067778
C107	C	1.300766	0.830153	0.265555
C108	C	1.634100	1.163486	0.598889
N109	N	0.913237	0.368465	-0.063996
N110	N	1.246570	0.701799	0.269338
N111	N	1.579903	1.035132	0.602671
N112	N	0.974243	0.413208	-0.068269
N113	N	1.307576	0.746541	0.265065
N114	N	1.640909	1.079875	0.598398
C115	C	1.088394	-0.103728	-0.076340
C116	C	1.421728	0.229606	0.256993
C117	C	1.755061	0.562939	0.590326
C118	C	1.176542	-0.105449	-0.082527
C119	C	1.509876	0.227885	0.250806
C120	C	1.843209	0.561218	0.584140
C121	C	0.947041	0.747471	-0.066421
C122	C	1.280375	1.080805	0.266913
C123	C	1.613708	1.414138	0.600246
C124	C	0.954118	0.660417	-0.066823
C125	C	1.287451	0.993751	0.266510
C126	C	1.620785	1.327084	0.599844
N127	N	0.953093	-0.117954	-0.272155
N128	N	1.286426	0.215379	0.061179
N129	N	1.619759	0.548712	0.394512
C130	C	0.904139	-0.072102	-0.314100
C131	C	1.237472	0.261231	0.019234
C132	C	1.570806	0.594565	0.352567
C133	C	0.908281	-0.075963	-0.405199
C134	C	1.241614	0.257370	-0.071866
C135	C	1.574948	0.590704	0.261467
C136	C	0.961373	-0.125681	-0.454352
C137	C	1.294707	0.207652	-0.121019
C138	C	1.628040	0.540986	0.212315
C139	C	1.010332	-0.171535	-0.412401
C140	C	1.343665	0.161799	-0.079068
C141	C	1.676999	0.495132	0.254266
C142	C	1.006194	-0.167669	-0.321303
C143	C	1.339527	0.165664	0.012030
C144	C	1.672860	0.498997	0.345364
C145	C	0.979225	-0.142362	-0.727191
C146	C	1.312559	0.190971	-0.393858
C147	C	1.645892	0.524305	-0.060525
C148	C	0.983359	-0.146226	-0.818295
C149	C	1.316692	0.187107	-0.484962
C150	C	1.650025	0.520441	-0.151628
C151	C	0.881308	-0.050653	-0.811087
C152	C	1.214641	0.282681	-0.477754
C153	C	1.547975	0.616014	-0.144421
C154	C	0.877171	-0.046795	-0.719988
C155	C	1.210504	0.286538	-0.386655
C156	C	1.543838	0.619872	-0.053321
C157	C	0.926133	-0.092646	-0.678045
C158	C	1.259466	0.240688	-0.344712
C159	C	1.592799	0.574021	-0.011378
N160	N	0.965606	-0.129630	-0.547471
N161	N	1.298940	0.203703	-0.214137
N162	N	1.632273	0.537036	0.119196
N163	N	0.921903	-0.088692	-0.584928
N164	N	1.255236	0.244642	-0.251595
N165	N	1.588570	0.577975	0.081738
N166	N	0.934405	-0.100374	0.139760
N167	N	1.267738	0.232960	0.473093
N168	N	1.601072	0.566293	0.806426
H169	H	0.709731	-0.118842	-0.192465
H170	H	1.043065	0.214491	0.140868
H171	H	1.376398	0.547825	0.474202
H172	H	1.084751	0.669530	-0.075972
H173	H	1.418084	1.002863	0.257361
H174	H	1.751418	1.336197	0.590695
N175	N	0.338005	-0.101743	0.069595
N176	N	0.671338	0.231591	0.402928
N177	N	1.004672	0.564924	0.736261
H178	H	0.325374	-0.051420	0.104872
H179	H	0.658708	0.281913	0.438205
H180	H	0.992041	0.615247	0.771538
H181	H	0.397287	-0.103432	0.053437
H182	H	0.730620	0.229901	0.386771
H183	H	1.063954	0.563234	0.720104
H184	H	1.046057	-0.205007	-0.287153
H185	H	1.379391	0.128327	0.046180
H186	H	1.712724	0.461660	0.379514
N187	N	0.818738	0.474472	-0.057367
N188	N	1.152071	0.807805	0.275967
N189	N	1.485405	1.141139	0.609300
H190	H	0.815868	0.442412	-0.003695
H191	H	1.149202	0.775745	0.329638
H192	H	1.482535	1.109078	0.662971
H193	H	0.820789	0.437884	-0.111033
H194	H	1.154122	0.771217	0.222300
H195	H	1.487456	1.104550	0.555633
N196	N	1.116649	0.512733	-0.078249
N197	N	1.449983	0.846066	0.255084
N198	N	1.783316	1.179399	0.588417
H199	H	1.120176	0.481495	-0.025026
H200	H	1.453509	0.814828	0.308308
H201	H	1.786842	1.148161	0.641641
H202	H	1.158888	0.556923	-0.081244
H203	H	1.492221	0.890256	0.252090
H204	H	1.825555	1.223589	0.585423
N205	N	0.534631	-0.102620	0.125981
N206	N	0.867964	0.230713	0.459315
N207	N	1.201297	0.564047	0.792648
H208	H	0.476355	-0.103054	0.118152
H209	H	0.809688	0.230280	0.451485
H210	H	1.143022	0.563613	0.784818
H211	H	0.550147	-0.052341	0.158733
H212	H	0.883480	0.280992	0.492066
H213	H	1.216813	0.614325	0.825399
H214	H	0.790649	0.260550	-0.055422
H215	H	1.123982	0.593883	0.277911
H216	H	1.457316	0.927217	0.611244
H217	H	0.559480	-0.115929	-0.181904
H218	H	0.892814	0.217405	0.151429
H219	H	1.226147	0.550738	0.484763
H220	H	0.841447	-0.013323	-0.845247
H221	H	1.174780	0.320010	-0.511914
H222	H	1.508114	0.653344	-0.178581
H223	H	0.696776	-0.106640	0.093801
H224	H	1.030110	0.226693	0.427134
H225	H	1.363443	0.560027	0.760468
H226	H	0.802726	0.112145	-0.056282
H227	H	1.136060	0.445478	0.277051
H228	H	1.469393	0.778812	0.610384
N229	N	0.846875	-0.018478	-0.261088
N230	N	1.180208	0.314855	0.072245
N231	N	1.513541	0.648189	0.405579
H232	H	0.816494	0.009986	-0.301488
H233	H	1.149828	0.343319	0.031846
H234	H	1.483161	0.676652	0.365179
H235	H	0.877384	0.021317	-0.225531
H236	H	1.210717	0.354651	0.107802
H237	H	1.544051	0.687984	0.441135
N238	N	1.082583	0.137184	-0.075876
N239	N	1.415916	0.470518	0.257458
N240	N	1.749249	0.803851	0.590791
H241	H	1.115190	0.153149	-0.131638
H242	H	1.448524	0.486483	0.201695
H243	H	1.781857	0.819816	0.535028
H244	H	1.076367	0.077769	-0.075411
H245	H	1.409700	0.411102	0.257922
H246	H	1.743033	0.744436	0.591255
H247	H	0.868420	-0.038623	-0.439347
H248	H	1.201753	0.294710	-0.106014
H249	H	1.535087	0.628044	0.227320
N250	N	0.352870	-0.115713	-0.258376
N251	N	0.686204	0.217621	0.074957
N252	N	1.019537	0.550954	0.408291
H253	H	0.316331	-0.117089	-0.305627
H254	H	0.649664	0.216244	0.027706
H255	H	0.982997	0.549577	0.361040
H256	H	0.384050	-0.165095	-0.264011
H257	H	0.717383	0.168238	0.069322
H258	H	1.050716	0.501571	0.402655
N259	N	0.819914	0.006838	-0.666979
N260	N	1.153247	0.340172	-0.333645
N261	N	1.486581	0.673505	-0.000312
H262	H	0.824720	0.002328	-0.602904
H263	H	1.158054	0.335662	-0.269570
H264	H	1.491387	0.668995	0.063763
H265	H	0.763910	-0.009079	-0.678934
H266	H	1.097244	0.324254	-0.345600
H267	H	1.430577	0.657588	-0.012267
H268	H	1.026591	-0.186718	-0.858313
H269	H	1.359925	0.146616	-0.524980
H270	H	1.693258	0.479949	-0.191646
N271	N	1.068737	0.307205	-0.074893
N272	N	1.402071	0.640538	0.258440
N273	N	1.735404	0.973871	0.591773
H274	H	1.117254	0.274716	-0.078290
H275	H	1.450587	0.608049	0.255043
H276	H	1.783921	0.941383	0.588377
H277	H	1.066653	0.343838	-0.021261
H278	H	1.399987	0.677171	0.312072
H279	H	1.733320	1.010504	0.645405
N280	N	0.804899	0.644496	-0.056368
N281	N	1.138232	0.977829	0.276965
N282	N	1.471565	1.311163	0.610299
H283	H	0.762618	0.600343	-0.053418
H284	H	1.095951	0.933676	0.279916
H285	H	1.429285	1.267009	0.613249
H286	H	0.801457	0.675743	-0.109602
H287	H	1.134790	1.009076	0.223732
H288	H	1.468123	1.342409	0.557065
H289	H	1.019093	-0.179698	-0.693052
H290	H	1.352427	0.153636	-0.359719
H291	H	1.685760	0.486969	-0.026386
H292	H	1.053565	-0.212012	-0.452429
H293	H	1.386898	0.121321	-0.119095
H294	H	1.720231	0.454654	0.214238
H295	H	0.190711	-0.111701	-0.226197
H296	H	0.524044	0.221632	0.107137
H297	H	0.857377	0.554965	0.440470
H298	H	0.177755	-0.099512	0.060067
H299	H	0.511089	0.233821	0.393401
H300	H	0.844422	0.567154	0.726734
