data_functionalizedCrystal
_audit_creation_method	'MofGen! by Chris Wilmer'
_symmetry_space_group_name_H-M	'P1'
_symmetry_Int_Tables_number	1
_symmetry_cell_setting	triclinic
loop_
_symmetry_equiv_pos_as_xyz
  x,y,z
_cell_length_a	14.519709
_cell_length_b	10.540539
_cell_length_c	13.596369
_cell_angle_alpha	89.996161
_cell_angle_beta	90.000291
_cell_angle_gamma	84.102818
loop_
_atom_site_label
_atom_site_type_symbol
_atom_site_fract_x
_atom_site_fract_y
_atom_site_fract_z
O1	O	1.224765	0.166400	-0.081658
O2	O	1.724765	0.666400	0.418342
O3	O	0.956394	0.185995	-0.081688
O4	O	1.456394	0.685995	0.418312
O5	O	1.096702	-0.008572	-0.081671
O6	O	1.596702	0.491428	0.418329
O7	O	1.084457	0.360966	-0.081675
O8	O	1.584457	0.860966	0.418325
O9	O	1.096688	-0.008582	0.081912
O10	O	1.596688	0.491418	0.581912
O11	O	0.956380	0.185985	0.081895
O12	O	1.456380	0.685985	0.581895
O13	O	1.224751	0.166389	0.081924
O14	O	1.724751	0.666389	0.581924
Zn15	Zn	1.090563	0.176185	0.107882
Zn16	Zn	1.590563	0.676185	0.607882
Zn17	Zn	1.090582	0.176199	-0.107646
Zn18	Zn	1.590582	0.676199	0.392354
O19	O	1.084442	0.360956	0.081908
O20	O	1.584442	0.860956	0.581908
C21	C	0.922022	0.185077	0.000100
C22	C	1.422022	0.685077	0.500100
C23	C	0.819626	0.182340	0.000088
C24	C	1.319626	0.682340	0.500088
C25	C	0.444676	0.172265	0.000133
C26	C	0.944676	0.672265	0.500133
C27	C	0.548999	0.175063	0.000120
C28	C	1.048999	0.675063	0.500120
C29	C	0.632148	0.177303	0.000110
C30	C	1.132148	0.677303	0.500110
C31	C	0.736477	0.180101	0.000099
C32	C	1.236477	0.680101	0.500099
C33	C	1.095777	-0.055870	0.000118
C34	C	1.595777	0.444130	0.500118
C35	C	1.093029	-0.196790	0.000113
C36	C	1.593029	0.303210	0.500113
C37	C	0.987750	-0.379142	-0.000266
C38	C	1.487750	0.120858	0.499734
C39	C	0.990535	-0.232553	0.000102
C40	C	1.490535	0.267447	0.500102
C41	C	1.142346	-0.258957	0.093532
C42	C	1.642346	0.241043	0.593532
C43	C	1.138848	-0.405466	0.093610
C44	C	1.638848	0.094534	0.593610
C45	C	1.140949	-0.405994	-0.092414
C46	C	1.640949	0.094006	0.407586
C47	C	1.141893	-0.259022	-0.093649
C48	C	1.641893	0.240978	0.406351
C49	C	1.259123	0.167308	0.000135
C50	C	1.759123	0.667308	0.500135
C51	C	1.361519	0.170044	0.000140
C52	C	1.861519	0.670044	0.500140
C53	C	1.085368	0.408255	0.000116
C54	C	1.585368	0.908255	0.500116
C55	C	1.088115	0.549175	0.000115
C56	C	1.588115	1.049175	0.500115
N57	N	1.090557	0.176175	0.254974
N58	N	1.590557	0.676175	0.754974
N59	N	1.090595	0.176199	-0.254737
N60	N	1.590595	0.676199	0.245263
C61	C	1.090580	0.176200	0.656265
C62	C	1.590580	0.676200	1.156265
C63	C	1.090571	0.176198	0.544613
C64	C	1.590571	0.676198	1.044613
C65	C	1.090569	0.176189	0.455623
C66	C	1.590569	0.676189	0.955623
C67	C	1.090559	0.176184	0.343964
C68	C	1.590559	0.676184	0.843964
H69	H	0.951729	-0.189549	-0.066865
H70	H	1.451729	0.310451	0.433135
H71	H	1.216619	-0.235563	-0.099282
H72	H	1.716619	0.264437	0.400718
H73	H	1.107782	-0.437204	-0.163219
H74	H	1.607782	0.062796	0.336781
H75	H	0.951446	-0.190402	0.067172
H76	H	1.451446	0.309598	0.567172
H77	H	1.214980	-0.453976	-0.093034
H78	H	1.714980	0.046024	0.406966
N79	N	0.936975	-0.414493	-0.084317
N80	N	1.436975	0.085507	0.415683
N81	N	0.974160	-0.492935	-0.144919
N82	N	1.474160	0.007065	0.355081
H83	H	0.938301	-0.517907	-0.204286
H84	H	1.438301	-0.017907	0.295714
N85	N	0.937163	-0.416535	0.083294
N86	N	1.437163	0.083465	0.583294
N87	N	0.974707	-0.495748	0.143126
N88	N	1.474707	0.004252	0.643126
H89	H	0.938983	-0.522160	0.202142
H90	H	1.438983	-0.022160	0.702142
H91	H	1.108076	-0.216013	0.163044
H92	H	1.608076	0.283987	0.663044
N93	N	1.093109	-0.440370	0.181207
N94	N	1.593109	0.059630	0.681207
N95	N	1.063987	-0.356566	0.241856
N96	N	1.563987	0.143434	0.741856
H97	H	1.031681	-0.381209	0.303724
H98	H	1.531681	0.118791	0.803724
N99	N	1.231320	-0.466576	0.098950
N100	N	1.731320	0.033424	0.598950
N101	N	1.298231	-0.400981	0.102614
N102	N	1.798231	0.099019	0.602614
H103	H	1.363539	-0.444134	0.106393
H104	H	1.863539	0.055866	0.606393
H105	H	1.105808	-0.217791	-0.162758
H106	H	1.605808	0.282209	0.337242
N107	N	1.236770	-0.231879	0.097890
N108	N	1.736770	0.268121	0.597890
N109	N	1.268846	-0.166302	0.032037
N110	N	1.768846	0.333698	0.532037
H111	H	1.335533	-0.147176	0.035112
H112	H	1.835533	0.352824	0.535112
