data_functionalizedCrystal
_audit_creation_method	'MofGen! by Chris Wilmer'
_symmetry_space_group_name_H-M	'P1'
_symmetry_Int_Tables_number	1
_symmetry_cell_setting	triclinic
loop_
_symmetry_equiv_pos_as_xyz
  x,y,z
_cell_length_a	22.863218
_cell_length_b	22.862586
_cell_length_c	22.858745
_cell_angle_alpha	60.006856
_cell_angle_beta	60.013818
_cell_angle_gamma	59.991795
loop_
_atom_site_label
_atom_site_type_symbol
_atom_site_fract_x
_atom_site_fract_y
_atom_site_fract_z
O1	O	0.081006	-0.854581	0.714630
O2	O	0.581006	-0.354581	1.214630
O3	O	0.030492	-0.665350	0.575795
O4	O	0.530492	-0.165350	1.075795
O5	O	0.150314	-0.785089	0.575706
O6	O	0.650314	-0.285089	1.075706
O7	O	-0.038816	-0.734841	0.714718
O8	O	0.461184	-0.234841	1.214718
O9	O	0.190066	-0.745348	0.615369
O10	O	0.690066	-0.245348	1.115369
O11	O	0.070244	-0.625609	0.615458
O12	O	0.570244	-0.125609	1.115458
O13	O	0.120758	-0.814840	0.754293
O14	O	0.620758	-0.314840	1.254293
Zn15	Zn	0.101812	-0.713914	0.691173
Zn16	Zn	0.601812	-0.213914	1.191173
Zn17	Zn	0.049438	-0.766275	0.638915
Zn18	Zn	0.549438	-0.266275	1.138915
O19	O	0.000936	-0.695100	0.754381
O20	O	0.500936	-0.195100	1.254381
N21	N	0.137558	-0.678184	0.726840
N22	N	0.637558	-0.178184	1.226840
N23	N	0.013698	-0.802011	0.603247
N24	N	0.513698	-0.302011	1.103247
C25	C	0.187224	-0.518558	0.776483
C26	C	0.687224	-0.018558	1.276483
C27	C	0.187235	-0.628552	0.776467
C28	C	0.687235	-0.128552	1.276467
C29	C	0.214753	-0.601061	0.803961
C30	C	0.714753	-0.101061	1.303961
C31	C	0.334724	-0.580392	0.740801
C32	C	0.834724	-0.080392	1.240801
C33	C	0.409718	-0.605392	0.715784
C34	C	0.909718	-0.105392	1.215784
C35	C	0.409746	-0.726732	0.762051
C36	C	0.909746	-0.226732	1.262051
C37	C	0.334754	-0.701730	0.787070
C38	C	0.834754	-0.201730	1.287070
C39	C	0.205297	-0.481049	0.702756
C40	C	0.705297	0.018951	1.202756
C41	C	0.180267	-0.406048	0.677779
C42	C	0.680267	0.093952	1.177779
C43	C	0.119099	-0.406071	0.800259
C44	C	0.619099	0.093929	1.300259
C45	C	0.144128	-0.481071	0.825236
C46	C	0.644128	0.018929	1.325236
C47	C	0.113501	-0.610437	0.794610
C48	C	0.613501	-0.110437	1.294610
C49	C	0.088492	-0.635428	0.769607
C50	C	0.588492	-0.135428	1.269607
C51	C	0.210943	-0.696652	0.708337
C52	C	0.710943	-0.196652	1.208337
C53	C	0.235956	-0.671660	0.733331
C54	C	0.735956	-0.171660	1.233331
C55	C	0.113585	-0.610461	0.923980
C56	C	0.613585	-0.110461	1.423980
C57	C	0.088635	-0.635476	0.998978
C58	C	0.588635	-0.135476	1.498978
C59	C	0.211128	-0.696714	0.998930
C60	C	0.711128	-0.196714	1.498930
C61	C	0.236077	-0.671700	0.923930
C62	C	0.736077	-0.171700	1.423930
C63	C	0.187303	-0.628571	0.886457
C64	C	0.687303	-0.128571	1.386457
C65	C	0.297246	-0.628559	0.776441
C66	C	0.797246	-0.128559	1.276441
C67	C	-0.117796	-0.823430	0.581283
C68	C	0.382204	-0.323430	1.081283
C69	C	-0.007671	-0.823587	0.471446
C70	C	0.492329	-0.323587	0.971446
C71	C	-0.007879	-0.933535	0.581483
C72	C	0.492121	-0.433535	1.081483
C73	C	-0.007861	-0.823583	0.581554
C74	C	0.492139	-0.323583	1.081554
C75	C	-0.035301	-0.851035	0.553942
C76	C	0.464699	-0.351035	1.053942
N77	N	0.446162	-0.678198	0.726752
N78	N	0.946162	-0.178198	1.226752
O79	O	0.691234	-0.690164	0.550341
O80	O	1.191234	-0.190164	1.050341
O81	O	0.691462	-0.829422	0.739388
O82	O	1.191462	-0.329422	1.239388
O83	O	0.691373	-0.829102	0.619485
O84	O	1.191373	-0.329102	1.119485
O85	O	0.691323	-0.690484	0.670244
O86	O	1.191323	-0.190484	1.170244
O87	O	0.572233	-0.789455	0.659278
O88	O	1.072233	-0.289455	1.159278
O89	O	0.572322	-0.789775	0.779181
O90	O	1.072322	-0.289775	1.279181
O91	O	0.572094	-0.650517	0.590134
O92	O	1.072094	-0.150517	1.090134
Zn93	Zn	0.553292	-0.713851	0.690976
Zn94	Zn	1.053292	-0.213851	1.190976
Zn95	Zn	0.710264	-0.766088	0.638547
Zn96	Zn	1.210264	-0.266088	1.138547
O97	O	0.572183	-0.650837	0.710037
O98	O	1.072183	-0.150837	1.210037
N99	N	0.817394	-0.801741	0.602763
N100	N	1.317394	-0.301741	1.102763
N101	N	0.137538	-0.369628	0.726874
N102	N	0.637538	0.130372	1.226874
O103	O	-0.038795	-0.124419	0.714761
O104	O	0.461205	0.375581	1.214761
O105	O	0.150256	-0.124417	0.575522
O106	O	0.650256	0.375583	1.075522
O107	O	0.030331	-0.124432	0.575860
O108	O	0.530331	0.375568	1.075860
O109	O	0.081131	-0.124404	0.714423
O110	O	0.581131	0.375596	1.214423
O111	O	0.070086	-0.243584	0.615573
O112	O	0.570086	0.256416	1.115573
O113	O	0.190011	-0.243569	0.615236
O114	O	0.690011	0.256431	1.115236
O115	O	0.000960	-0.243571	0.754474
O116	O	0.500960	0.256429	1.254474
Zn117	Zn	0.101797	-0.262488	0.691160
Zn118	Zn	0.601797	0.237512	1.191160
Zn119	Zn	0.049419	-0.105500	0.638836
Zn120	Zn	0.549419	0.394500	1.138836
O121	O	0.120885	-0.243556	0.754137
O122	O	0.620885	0.256444	1.254137
N123	N	0.013669	0.001640	0.603123
N124	N	0.513669	0.501640	1.103123
N125	N	0.137749	-0.678230	1.035381
N126	N	0.637749	-0.178230	1.535381
O127	O	0.125655	-0.854547	1.280566
O128	O	0.625655	-0.354547	1.780566
O129	O	-0.013567	-0.665426	1.280590
O130	O	0.486433	-0.165426	1.780590
O131	O	-0.013245	-0.785328	1.280537
O132	O	0.486755	-0.285328	1.780537
O133	O	0.125333	-0.734644	1.280618
O134	O	0.625333	-0.234644	1.780618
O135	O	0.026456	-0.745599	1.161392
O136	O	0.526456	-0.245599	1.661392
O137	O	0.026134	-0.625697	1.161444
O138	O	0.526134	-0.125697	1.661444
O139	O	0.165355	-0.814817	1.161420
O140	O	0.665355	-0.314817	1.661420
Zn141	Zn	0.102048	-0.713949	1.142516
Zn142	Zn	0.602048	-0.213949	1.642516
Zn143	Zn	0.049740	-0.766294	1.299495
Zn144	Zn	0.549740	-0.266294	1.799495
O145	O	0.165033	-0.694915	1.161473
O146	O	0.665033	-0.194915	1.661473
N147	N	0.014038	-0.802020	1.406629
N148	N	0.514038	-0.302020	1.906629
C149	C	0.045634	-0.621635	0.576499
C150	C	0.545634	-0.121635	1.076499
C151	C	0.194019	-0.769918	0.576389
C152	C	0.694019	-0.269918	1.076389
C153	C	0.105616	-0.858555	0.753588
C154	C	0.605616	-0.358555	1.253588
C155	C	-0.042769	-0.710272	0.753698
C156	C	0.457231	-0.210272	1.253698
C157	C	0.631920	-0.828776	0.783102
C158	C	1.131920	-0.328776	1.283102
C159	C	0.631811	-0.828380	0.634616
C160	C	1.131811	-0.328380	1.134616
C161	C	0.631633	-0.651162	0.546422
C162	C	1.131633	-0.151162	1.046422
C163	C	0.631745	-0.651559	0.694907
C164	C	1.131745	-0.151559	1.194907
C165	C	0.193900	-0.183846	0.576155
C166	C	0.693900	0.316154	1.076155
C167	C	0.045437	-0.184012	0.576622
C168	C	0.545437	0.315988	1.076622
C169	C	-0.042734	-0.183994	0.753792
C170	C	0.457266	0.316006	1.253792
C171	C	0.105780	-0.183977	0.753375
C172	C	0.605780	0.316023	1.253375
C173	C	-0.012889	-0.621735	1.221020
C174	C	0.487111	-0.121735	1.721020
C175	C	-0.012483	-0.770211	1.220931
C176	C	0.487517	-0.270211	1.720931
C177	C	0.164678	-0.858508	1.220991
C178	C	0.664678	-0.358508	1.720991
C179	C	0.164280	-0.710023	1.221052
C180	C	0.664280	-0.210023	1.721052
H181	H	0.028603	-0.620718	1.029520
H182	H	0.528603	-0.120718	1.529520
C183	C	0.105479	-0.321723	0.843197
C184	C	0.605479	0.178277	1.343197
C185	C	0.071727	-0.364855	0.853842
C186	C	0.571727	0.135145	1.353842
H187	H	0.076231	-0.296282	0.876280
H188	H	0.576231	0.203718	1.376280
H189	H	0.112651	-0.288657	0.795716
H190	H	0.612651	0.211343	1.295716
H191	H	0.150441	-0.350982	0.850390
H192	H	0.650441	0.149018	1.350390
H193	H	0.026767	-0.335595	0.846645
H194	H	0.526767	0.164405	1.346645
H195	H	0.064546	-0.397925	0.901335
H196	H	0.564546	0.102075	1.401335
C197	C	-0.116272	-0.756954	0.873988
C198	C	0.383728	-0.256954	1.373988
C199	C	-0.116101	-0.695821	0.812632
C200	C	0.383899	-0.195821	1.312632
H201	H	-0.161547	-0.748032	0.910368
H202	H	0.338453	-0.248032	1.410368
H203	H	-0.079841	-0.768283	0.890437
H204	H	0.420159	-0.268283	1.390437
H205	H	-0.107558	-0.796003	0.862770
H206	H	0.392442	-0.296003	1.362770
H207	H	-0.124810	-0.656773	0.823849
H208	H	0.375190	-0.156773	1.323849
H209	H	-0.152543	-0.684483	0.796180
H210	H	0.347457	-0.184483	1.296180
C211	C	0.632021	-0.862287	0.900761
C212	C	1.132021	-0.362287	1.400761
C213	C	0.632006	-0.887799	0.856396
C214	C	1.132006	-0.387799	1.356396
H215	H	0.632079	-0.898728	0.946008
H216	H	1.132079	-0.398728	1.446008
H217	H	0.590455	-0.821596	0.907061
H218	H	1.090455	-0.321596	1.407061
H219	H	0.673549	-0.849246	0.879307
H220	H	1.173549	-0.349246	1.379307
H221	H	0.590475	-0.900835	0.877847
H222	H	1.090475	-0.400835	1.377847
H223	H	0.673576	-0.928502	0.850098
H224	H	1.173576	-0.428502	1.350098
C225	C	-0.045414	-0.854730	1.220785
C226	C	0.454586	-0.354730	1.720785
C227	C	-0.071232	-0.784815	1.220827
C228	C	0.428768	-0.284815	1.720827
H229	H	-0.081683	-0.863743	1.220716
H230	H	0.418317	-0.363743	1.720716
H231	H	-0.032401	-0.887790	1.262349
H232	H	0.467599	-0.387790	1.762349
H233	H	-0.004654	-0.860069	1.179252
H234	H	0.495346	-0.360069	1.679252
H235	H	-0.111989	-0.779478	1.262364
H236	H	0.388011	-0.279478	1.762364
H237	H	-0.084255	-0.751746	1.179259
H238	H	0.415745	-0.251746	1.679259
H239	H	0.034845	-0.567275	0.532897
H240	H	0.534845	-0.067275	1.032897
C241	C	0.631762	-0.861351	0.550049
C242	C	1.131762	-0.361351	1.050049
C243	C	0.631833	-0.887169	0.619958
C244	C	1.131833	-0.387169	1.119958
H245	H	0.631770	-0.897644	0.541003
H246	H	1.131770	-0.397644	1.041003
H247	H	0.673277	-0.848284	0.516992
H248	H	1.173277	-0.348284	1.016992
H249	H	0.590183	-0.820622	0.544746
H250	H	1.090183	-0.320622	1.044746
H251	H	0.673415	-0.927895	0.625259
H252	H	1.173415	-0.427895	1.125259
H253	H	0.590314	-0.900246	0.653024
H254	H	1.090314	-0.400246	1.153024
C255	C	0.631517	-0.617646	0.428767
C256	C	1.131517	-0.117646	0.928767
C257	C	0.631535	-0.592135	0.473132
C258	C	1.131535	-0.092135	0.973132
H259	H	0.631461	-0.581206	0.383521
H260	H	1.131461	-0.081206	0.883521
H261	H	0.589997	-0.630688	0.450220
H262	H	1.089997	-0.130688	0.950220
H263	H	0.673091	-0.658341	0.422465
H264	H	1.173091	-0.158341	0.922465
H265	H	0.589959	-0.551444	0.479439
H266	H	1.089959	-0.051444	0.979439
H267	H	0.673060	-0.579083	0.451675
H268	H	1.173060	-0.079083	0.951675
C269	C	0.631789	-0.618587	0.779475
C270	C	1.131789	-0.118587	1.279475
C271	C	0.631721	-0.592770	0.709566
C272	C	1.131721	-0.092770	1.209566
H273	H	0.631770	-0.582290	0.788525
H274	H	1.131770	-0.082290	1.288525
H275	H	0.673365	-0.659307	0.784779
H276	H	1.173365	-0.159307	1.284779
H277	H	0.590271	-0.631660	0.812534
H278	H	1.090271	-0.131660	1.312534
H279	H	0.673242	-0.579701	0.676507
H280	H	1.173242	-0.079701	1.176507
H281	H	0.590141	-0.552036	0.704255
H282	H	1.090141	-0.052036	1.204255
C283	C	0.311372	-0.183245	0.542440
C284	C	0.811372	0.316755	1.042440
C285	C	0.267040	-0.183393	0.516990
C286	C	0.767040	0.316607	1.016990
H287	H	0.356523	-0.182960	0.505911
H288	H	0.856523	0.317040	1.005911
H289	H	0.317901	-0.224883	0.583011
H290	H	0.817901	0.275117	1.083011
H291	H	0.289762	-0.141782	0.555647
H292	H	0.789762	0.358218	1.055647
H293	H	0.288647	-0.224858	0.503787
H294	H	0.788647	0.275142	1.003787
H295	H	0.260513	-0.141750	0.476406
H296	H	0.760513	0.358250	0.976406
C297	C	0.311646	-0.854268	0.543073
C298	C	0.811646	-0.354268	1.043073
C299	C	0.267349	-0.784372	0.517454
C300	C	0.767349	-0.284372	1.017454
H301	H	0.356917	-0.863188	0.506690
H302	H	0.856917	-0.363188	1.006690
H303	H	0.290173	-0.887364	0.556117
H304	H	0.790173	-0.387364	1.056117
H305	H	0.317896	-0.859648	0.583783
H306	H	0.817896	-0.359648	1.083783
H307	H	0.261094	-0.778992	0.476748
H308	H	0.761094	-0.278992	0.976748
H309	H	0.288826	-0.751266	0.504401
H310	H	0.788826	-0.251266	1.004401
H311	H	0.034558	-0.184014	0.533090
H312	H	0.534558	0.315986	1.033090
C313	C	0.178070	-0.245235	0.828564
C314	C	0.678070	0.254765	1.328564
C315	C	0.120454	-0.183981	0.812152
C316	C	0.620454	0.316019	1.312152
H317	H	0.187124	-0.245241	0.864856
H318	H	0.687124	0.254759	1.364856
H319	H	0.219455	-0.245226	0.786873
H320	H	0.719455	0.254774	1.286873
H321	H	0.166699	-0.286780	0.845107
H322	H	0.666699	0.213220	1.345107
H323	H	0.131827	-0.142436	0.795605
H324	H	0.631827	0.357564	1.295605
H325	H	0.079060	-0.183984	0.853852
H326	H	0.579060	0.316016	1.353852
H327	H	0.116407	-0.912913	0.797192
H328	H	0.616407	-0.412913	1.297192
C329	C	-0.160414	-0.183977	0.787302
C330	C	0.339586	0.316023	1.287302
C331	C	-0.116032	-0.183976	0.812801
C332	C	0.383968	0.316024	1.312801
H333	H	-0.205667	-0.183957	0.823730
H334	H	0.294333	0.316043	1.323730
H335	H	-0.138992	-0.225535	0.774305
H336	H	0.361008	0.274465	1.274305
H337	H	-0.166691	-0.142432	0.746583
H338	H	0.333309	0.357568	1.246583
H339	H	-0.109750	-0.225523	0.853517
H340	H	0.390250	0.274477	1.353517
H341	H	-0.137459	-0.142414	0.825808
H342	H	0.362541	0.357586	1.325808
H343	H	-0.056598	-0.567419	1.221026
H344	H	0.443402	-0.067419	1.721026
C345	C	0.198185	-0.976181	1.220950
C346	C	0.698185	-0.476181	1.720950
C347	C	0.223688	-0.931830	1.220981
C348	C	0.723688	-0.431830	1.720981
H349	H	0.234615	-1.021448	1.220947
H350	H	0.734615	-0.521448	1.720947
H351	H	0.185170	-0.954738	1.179396
H352	H	0.685170	-0.454738	1.679396
H353	H	0.157478	-0.982446	1.262494
H354	H	0.657478	-0.482446	1.762494
H355	H	0.264391	-0.925561	1.179434
H356	H	0.764391	-0.425561	1.679434
H357	H	0.236712	-0.953279	1.262539
H358	H	0.736712	-0.453279	1.762539
H359	H	0.207816	-0.699179	1.221068
H360	H	0.707816	-0.199179	1.721068
H361	H	0.073862	-0.575336	0.893474
H362	H	0.573862	-0.075336	1.393474
H363	H	0.250848	-0.731818	1.029432
H364	H	0.750848	-0.231818	1.529432
H365	H	0.073825	-0.575337	0.829731
H366	H	0.573825	-0.075337	1.329731
C367	C	0.348172	-0.766205	0.900797
C368	C	0.848172	-0.266205	1.400797
C369	C	0.317115	-0.691612	0.882687
C370	C	0.817115	-0.191612	1.382687
H371	H	0.398201	-0.778497	0.875340
H372	H	0.898201	-0.278497	1.375340
H373	H	0.327100	-0.783442	0.888508
H374	H	0.827100	-0.283442	1.388508
H375	H	0.340285	-0.787264	0.950827
H376	H	0.840285	-0.287264	1.450827
H377	H	0.324998	-0.670554	0.832658
H378	H	0.824998	-0.170554	1.332658
H379	H	0.338193	-0.674368	0.894972
H380	H	0.838193	-0.174368	1.394972
C381	C	-0.023544	-0.640981	0.864139
C382	C	0.476456	-0.140981	1.364139
C383	C	0.007443	-0.615529	0.789548
C384	C	0.507443	-0.115529	1.289548
H385	H	-0.073578	-0.628701	0.876447
H386	H	0.426422	-0.128701	1.376447
H387	H	-0.015629	-0.619922	0.885195
H388	H	0.484371	-0.119922	1.385195
H389	H	-0.002447	-0.691585	0.881358
H390	H	0.497553	-0.191585	1.381358
H391	H	-0.013651	-0.564925	0.772329
H392	H	0.486349	-0.064925	1.272329
H393	H	-0.000478	-0.636586	0.768483
H394	H	0.499522	-0.136586	1.268483
C395	C	0.334499	-0.754657	0.650289
C396	C	0.834499	-0.254657	1.150289
C397	C	0.264502	-0.744037	0.660926
C398	C	0.764502	-0.244037	1.160926
H399	H	0.367564	-0.783907	0.621014
H400	H	0.867564	-0.283907	1.121014
H401	H	0.341729	-0.777564	0.695229
H402	H	0.841729	-0.277564	1.195229
H403	H	0.341679	-0.709700	0.627398
H404	H	0.841679	-0.209700	1.127398
H405	H	0.257320	-0.788995	0.683822
H406	H	0.757320	-0.288995	1.183822
H407	H	0.257269	-0.721131	0.615977
H408	H	0.757269	-0.221131	1.115977
H409	H	0.295996	-0.686402	0.718551
H410	H	0.795996	-0.186402	1.218551
H411	H	0.440287	-0.786313	0.770693
H412	H	0.940287	-0.286313	1.270693
C413	C	0.402158	-0.482940	0.672554
C414	C	0.902158	0.017060	1.172554
C415	C	0.450918	-0.552445	0.676603
C416	C	0.950918	-0.052445	1.176603
H417	H	0.427595	-0.450253	0.648360
H418	H	0.927595	0.049747	1.148360
H419	H	0.372931	-0.481027	0.719535
H420	H	0.872931	0.018973	1.219535
H421	H	0.372885	-0.470398	0.647008
H422	H	0.872885	0.029602	1.147008
H423	H	0.480186	-0.564989	0.702153
H424	H	0.980186	-0.064989	1.202153
H425	H	0.480156	-0.554360	0.629613
H426	H	0.980156	-0.054360	1.129613
C427	C	0.342318	-0.824182	0.830278
C428	C	0.842318	-0.324182	1.330278
C429	C	0.293555	-0.754680	0.826242
C430	C	0.793555	-0.254680	1.326242
H431	H	0.316882	-0.856869	0.854459
H432	H	0.816882	-0.356869	1.354459
H433	H	0.371587	-0.836731	0.855823
H434	H	0.871587	-0.336731	1.355823
H435	H	0.371546	-0.826083	0.783287
H436	H	0.871546	-0.326083	1.283287
H437	H	0.264329	-0.752777	0.873234
H438	H	0.764329	-0.252777	1.373234
H439	H	0.264273	-0.742127	0.800699
H440	H	0.764273	-0.242127	1.300699
C441	C	0.250406	-0.489719	0.795549
C442	C	0.750406	0.010281	1.295549
C443	C	0.293496	-0.499961	0.729119
C444	C	0.793496	0.000039	1.229119
H445	H	0.224950	-0.440064	0.788335
H446	H	0.724950	0.059936	1.288335
H447	H	0.279685	-0.507310	0.823009
H448	H	0.779685	-0.007310	1.323009
H449	H	0.217352	-0.514829	0.820351
H450	H	0.717352	-0.014829	1.320351
H451	H	0.326554	-0.474856	0.704320
H452	H	0.826554	0.025144	1.204320
H453	H	0.264215	-0.482362	0.701649
H454	H	0.764215	0.017638	1.201649
H455	H	0.240384	-0.511568	0.663058
H456	H	0.740384	-0.011568	1.163058
H457	H	0.194981	-0.375507	0.617742
H458	H	0.694981	0.124493	1.117742
H459	H	0.129402	-0.511613	0.885274
H460	H	0.629402	-0.011613	1.385274
