data_functionalizedCrystal
_audit_creation_method	'MofGen! by Chris Wilmer'
_symmetry_space_group_name_H-M	'P1'
_symmetry_Int_Tables_number	1
_symmetry_cell_setting	triclinic
loop_
_symmetry_equiv_pos_as_xyz
  x,y,z
_cell_length_a	14.908782
_cell_length_b	14.908579
_cell_length_c	14.908308
_cell_angle_alpha	83.636704
_cell_angle_beta	96.759680
_cell_angle_gamma	90.160963
loop_
_atom_site_label
_atom_site_type_symbol
_atom_site_fract_x
_atom_site_fract_y
_atom_site_fract_z
Zn1	Zn	1.325891	0.462150	-0.460102
Zn2	Zn	1.325784	0.604790	-0.317485
Zn3	Zn	1.184272	0.445733	-0.316501
Zn4	Zn	1.165761	0.604740	-0.477542
O5	O	1.250427	0.529353	-0.392907
O6	O	1.452115	0.487963	-0.434296
O7	O	1.314715	0.576841	-0.190272
O8	O	1.210850	0.321670	-0.327840
O9	O	1.452037	0.592760	-0.329516
O10	O	1.314896	0.333732	-0.433343
O11	O	1.210747	0.459982	-0.189550
O12	O	1.055579	0.459934	-0.344751
O13	O	1.179300	0.592675	-0.602311
O14	O	1.041978	0.576756	-0.463067
O15	O	1.296946	0.487915	-0.589497
O16	O	1.296765	0.731024	-0.346427
O17	O	1.179197	0.730987	-0.464021
C18	C	1.016046	0.516558	-0.405695
C19	C	0.915774	0.511108	-0.411189
C20	C	0.727291	0.609822	-0.312217
C21	C	0.633076	0.604704	-0.317376
C22	C	0.633129	0.495757	-0.426670
C23	C	0.727343	0.500876	-0.421511
C24	C	0.774421	0.557909	-0.364282
C25	C	0.868638	0.563023	-0.359118
C26	C	0.868688	0.454081	-0.468417
C27	C	0.774474	0.448963	-0.473576
C28	C	1.235984	0.763740	-0.407241
C29	C	1.229886	0.864018	-0.413399
C30	C	1.340964	1.052440	-0.302608
C31	C	1.335237	1.146660	-0.308391
C32	C	1.212711	1.146681	-0.430752
C33	C	1.218438	1.052461	-0.424969
C34	C	1.282565	1.005343	-0.360894
C35	C	1.288287	0.911121	-0.355107
C36	C	1.165766	0.911144	-0.477472
C37	C	1.160039	1.005364	-0.483255
C38	C	1.485723	0.542198	-0.380070
C39	C	1.585992	0.547672	-0.374600
C40	C	1.236070	0.542120	-0.629776
C41	C	1.229952	0.547561	-0.730716
C42	C	1.264943	1.294053	-0.378548
C43	C	1.271112	1.193783	-0.372460
C44	C	1.340959	0.448677	-0.907050
C45	C	1.335214	0.453786	-1.001891
C46	C	1.212711	0.562883	-1.015241
C47	C	1.218457	0.557774	-0.920400
C48	C	1.282584	0.500670	-0.866307
C49	C	1.288333	0.495566	-0.771464
C50	C	1.165827	0.604658	-0.784816
C51	C	1.160082	0.609767	-0.879657
C52	C	1.264784	0.516573	-0.156953
C53	C	1.271093	0.510888	-0.055989
H54	H	0.594706	0.646978	-0.274981
H55	H	1.382747	0.411445	-1.035059
Cl56	Cl	0.786477	0.681517	-0.240272
H57	H	0.906967	0.609460	-0.312517
Cl58	Cl	1.368951	0.423782	-0.703463
Cl59	Cl	1.132112	1.205930	-0.511307
Cl60	Cl	0.573929	0.424081	-0.498626
Cl61	Cl	1.132096	0.634657	-1.083257
H62	H	1.382793	1.185002	-0.260930
H63	H	1.107870	0.656257	-0.923712
Cl64	Cl	1.368900	0.851889	-0.274554
H65	H	0.736130	0.402531	-0.520173
H66	H	0.907072	0.411806	-0.510807
H67	H	1.393173	1.014076	-0.250430
Cl68	Cl	1.079429	1.064606	-0.563804
H69	H	1.118211	0.872787	-0.524930
H70	H	1.393178	0.402185	-0.863006
Cl71	Cl	1.092446	0.670035	-0.733592
