data_functionalizedCrystal
_audit_creation_method	'MofGen! by Chris Wilmer'
_symmetry_space_group_name_H-M	'P1'
_symmetry_Int_Tables_number	1
_symmetry_cell_setting	triclinic
loop_
_symmetry_equiv_pos_as_xyz
  x,y,z
_cell_length_a	16.120490
_cell_length_b	13.031981
_cell_length_c	16.120256
_cell_angle_alpha	94.686373
_cell_angle_beta	89.870193
_cell_angle_gamma	93.935019
loop_
_atom_site_label
_atom_site_type_symbol
_atom_site_fract_x
_atom_site_fract_y
_atom_site_fract_z
Zn1	Zn	1.197361	-0.522910	0.478982
Zn2	Zn	1.188577	-0.687181	0.322471
Zn3	Zn	1.067022	-0.505458	0.334756
Zn4	Zn	1.042624	-0.686226	0.454545
O5	O	1.123896	-0.600444	0.397688
O6	O	1.311825	-0.552404	0.463305
O7	O	1.178987	-0.656171	0.208468
O8	O	1.098198	-0.363372	0.369256
O9	O	1.305371	-0.673094	0.348317
O10	O	1.193957	-0.376194	0.475218
O11	O	1.089681	-0.522660	0.217494
O12	O	0.948157	-0.521733	0.345562
O13	O	1.056616	-0.671466	0.573419
O14	O	0.930232	-0.654543	0.433570
O15	O	1.170300	-0.551478	0.591373
O16	O	1.155330	-0.831455	0.324622
O17	O	1.048099	-0.830753	0.421657
C18	C	1.098135	-0.868548	0.369174
C19	C	1.087188	-0.983251	0.357006
C20	C	0.909213	-0.586142	0.388248
C21	C	0.817367	-0.580049	0.384226
C22	C	1.129652	-1.040651	0.404057
C23	C	1.118339	-1.159202	0.391483
C24	C	0.599425	-0.632038	0.418552
C25	C	0.649206	-0.568935	0.376881
C26	C	0.742779	-0.575121	0.380969
C27	C	0.505843	-0.625854	0.414465
C28	C	1.339417	-0.614802	0.407166
C29	C	1.431260	-0.620921	0.411205
C30	C	1.111716	-0.613312	0.613217
C31	C	1.106526	-0.618796	0.705062
C32	C	1.149779	-0.331295	0.426333
C33	C	1.160809	-0.216600	0.438540
C34	C	1.136083	-0.587554	0.183009
C35	C	1.141462	-0.581790	0.091202
C36	C	1.150964	-0.571820	0.923036
C37	C	1.097026	-0.628763	0.873223
C38	C	1.102313	-0.623216	0.779650
C39	C	1.145678	-0.577366	1.016618
H40	H	1.174379	-1.002028	0.453652
Br41	Br	1.043772	-1.223564	0.308826
H42	H	1.046873	-0.681674	0.900854
H43	H	1.205539	-1.177980	0.488138
Br44	Br	1.234533	-0.483608	0.876987
H45	H	1.042454	-1.021876	0.307419
Br46	Br	0.603116	-0.471151	0.312298
H47	H	0.627080	-0.690704	0.457295
