data_functionalizedCrystal
_audit_creation_method	'MofGen! by Chris Wilmer'
_symmetry_space_group_name_H-M	'P1'
_symmetry_Int_Tables_number	1
_symmetry_cell_setting	triclinic
loop_
_symmetry_equiv_pos_as_xyz
  x,y,z
_cell_length_a	19.805407
_cell_length_b	18.050589
_cell_length_c	19.805399
_cell_angle_alpha	89.976299
_cell_angle_beta	89.983114
_cell_angle_gamma	90.028221
loop_
_atom_site_label
_atom_site_type_symbol
_atom_site_fract_x
_atom_site_fract_y
_atom_site_fract_z
Zn1	Zn	1.034709	-0.295666	-0.382745
Zn2	Zn	1.284709	-0.045666	-0.132745
Zn3	Zn	1.534709	0.204334	0.117255
Zn4	Zn	1.784709	0.454334	0.367255
Zn5	Zn	1.034626	-0.419862	-0.269567
Zn6	Zn	1.284626	-0.169862	-0.019567
Zn7	Zn	1.534626	0.080138	0.230433
Zn8	Zn	1.784626	0.330138	0.480433
Zn9	Zn	0.921529	-0.295690	-0.269569
Zn10	Zn	1.171529	-0.045690	-0.019569
Zn11	Zn	1.421529	0.204310	0.230431
Zn12	Zn	1.671529	0.454310	0.480431
Zn13	Zn	0.921484	-0.419819	-0.382713
Zn14	Zn	1.171484	-0.169819	-0.132713
Zn15	Zn	1.421484	0.080181	0.117287
Zn16	Zn	1.671484	0.330181	0.367287
O17	O	0.978087	-0.357759	-0.326148
O18	O	1.228087	-0.107759	-0.076148
O19	O	1.478087	0.142241	0.173852
O20	O	1.728087	0.392241	0.423852
O21	O	1.129415	-0.312149	-0.367743
O22	O	1.379415	-0.062149	-0.117743
O23	O	1.629415	0.187851	0.132257
O24	O	1.879415	0.437851	0.382257
O25	O	1.019607	-0.403418	-0.174850
O26	O	1.269607	-0.153418	0.075150
O27	O	1.519607	0.096582	0.325150
O28	O	1.769607	0.346582	0.575150
O29	O	0.936597	-0.191762	-0.284596
O30	O	1.186597	0.058238	-0.034596
O31	O	1.436597	0.308238	0.215404
O32	O	1.686597	0.558238	0.465404
O33	O	1.129353	-0.403395	-0.284592
O34	O	1.379353	-0.153395	-0.034592
O35	O	1.629353	0.096605	0.215408
O36	O	1.879353	0.346605	0.465408
O37	O	1.019750	-0.191745	-0.367746
O38	O	1.269750	0.058255	-0.117746
O39	O	1.519750	0.308255	0.132254
O40	O	1.769750	0.558255	0.382254
O41	O	0.936516	-0.312189	-0.174852
O42	O	1.186516	-0.062189	0.075148
O43	O	1.436516	0.187811	0.325148
O44	O	1.686516	0.437811	0.575148
O45	O	0.826807	-0.312148	-0.284566
O46	O	1.076807	-0.062148	-0.034566
O47	O	1.326807	0.187852	0.215434
O48	O	1.576807	0.437852	0.465434
O49	O	0.936519	-0.403322	-0.477434
O50	O	1.186519	-0.153322	-0.227434
O51	O	1.436519	0.096678	0.022566
O52	O	1.686519	0.346678	0.272566
O53	O	0.826773	-0.403345	-0.367693
O54	O	1.076773	-0.153345	-0.117693
O55	O	1.326773	0.096655	0.132307
O56	O	1.576773	0.346655	0.382307
O57	O	1.019706	-0.312108	-0.477457
O58	O	1.269706	-0.062108	-0.227457
O59	O	1.519706	0.187892	0.022543
O60	O	1.769706	0.437892	0.272543
O61	O	1.019563	-0.523781	-0.284562
O62	O	1.269563	-0.273781	-0.034562
O63	O	1.519563	-0.023781	0.215438
O64	O	1.769563	0.226219	0.465438
O65	O	0.936438	-0.523749	-0.367690
O66	O	1.186438	-0.273749	-0.117690
O67	O	1.436438	-0.023749	0.132310
O68	O	1.686438	0.226251	0.382310
C69	C	0.802231	-0.357745	-0.326127
C70	C	1.052231	-0.107745	-0.076127
C71	C	1.302231	0.142255	0.173873
C72	C	1.552231	0.392255	0.423873
C73	C	0.726999	-0.357757	-0.326133
C74	C	0.976999	-0.107757	-0.076133
C75	C	1.226999	0.142243	0.173867
C76	C	1.476999	0.392243	0.423867
C77	C	0.691655	-0.405315	-0.369347
C78	C	0.941655	-0.155315	-0.119347
C79	C	1.191655	0.094685	0.130653
C80	C	1.441655	0.344685	0.380653
C81	C	0.620967	-0.405316	-0.369357
C82	C	0.870967	-0.155316	-0.119357
C83	C	1.120967	0.094684	0.130643
C84	C	1.370967	0.344684	0.380643
C85	C	0.585623	-0.357763	-0.326148
C86	C	0.835623	-0.107763	-0.076148
C87	C	1.085623	0.142237	0.173852
C88	C	1.335623	0.392237	0.423852
C89	C	0.620972	-0.310200	-0.282933
C90	C	0.870972	-0.060200	-0.032933
C91	C	1.120972	0.189800	0.217067
C92	C	1.370972	0.439800	0.467067
C93	C	0.691659	-0.310195	-0.282927
C94	C	0.941659	-0.060195	-0.032927
C95	C	1.191659	0.189805	0.217073
C96	C	1.441659	0.439805	0.467073
C97	C	0.335899	-0.310216	-0.282955
C98	C	0.585899	-0.060216	-0.032955
C99	C	0.835899	0.189784	0.217045
C100	C	1.085899	0.439784	0.467045
C101	C	0.265207	-0.310226	-0.282962
C102	C	0.515207	-0.060226	-0.032962
C103	C	0.765207	0.189774	0.217038
C104	C	1.015207	0.439774	0.467038
C105	C	0.265206	-0.405337	-0.369385
C106	C	0.515206	-0.155337	-0.119385
C107	C	0.765206	0.094663	0.130615
C108	C	1.015206	0.344663	0.380615
C109	C	0.335893	-0.405332	-0.369379
C110	C	0.585893	-0.155332	-0.119379
C111	C	0.835893	0.094668	0.130621
C112	C	1.085893	0.344668	0.380621
C113	C	0.371236	-0.357767	-0.326166
C114	C	0.621236	-0.107767	-0.076166
C115	C	0.871236	0.142233	0.173834
C116	C	1.121236	0.392233	0.423834
C117	C	0.447884	-0.357765	-0.326157
C118	C	0.697884	-0.107765	-0.076157
C119	C	0.947884	0.142235	0.173843
C120	C	1.197884	0.392235	0.423843
C121	C	0.508976	-0.357768	-0.326153
C122	C	0.758976	-0.107768	-0.076153
C123	C	1.008976	0.142232	0.173847
C124	C	1.258976	0.392232	0.423847
C125	C	0.978005	-0.550711	-0.326137
C126	C	1.228005	-0.300711	-0.076137
C127	C	1.478005	-0.050711	0.173863
C128	C	1.728005	0.199289	0.423863
C129	C	0.978032	-0.633257	-0.326155
C130	C	1.228032	-0.383257	-0.076155
C131	C	1.478032	-0.133257	0.173845
C132	C	1.728032	0.116743	0.423845
C133	C	0.932873	-0.832718	-0.371344
C134	C	1.182873	-0.582718	-0.121344
C135	C	1.432873	-0.332718	0.128656
C136	C	1.682873	-0.082718	0.378656
C137	C	0.916378	-0.882158	-0.309581
C138	C	1.166378	-0.632158	-0.059581
C139	C	1.416378	-0.382158	0.190419
C140	C	1.666378	-0.132158	0.440419
C141	C	0.978099	-0.784387	-0.326164
C142	C	1.228099	-0.534387	-0.076164
C143	C	1.478099	-0.284387	0.173836
C144	C	1.728099	-0.034387	0.423836
C145	C	0.994627	-0.882029	-0.387934
C146	C	1.244627	-0.632029	-0.137934
C147	C	1.494627	-0.382029	0.112066
C148	C	1.744627	-0.132029	0.362066
C149	C	0.978162	-0.930373	-0.326178
C150	C	1.228162	-0.680373	-0.076178
C151	C	1.478162	-0.430373	0.173822
C152	C	1.728162	-0.180373	0.423822
C153	C	0.961571	-0.832741	-0.264368
C154	C	1.211571	-0.582741	-0.014368
C155	C	1.461571	-0.332741	0.235632
C156	C	1.711571	-0.082741	0.485632
C157	C	1.039849	-0.832607	-0.342762
C158	C	1.289849	-0.582607	-0.092762
C159	C	1.539849	-0.332607	0.157238
C160	C	1.789849	-0.082607	0.407238
C161	C	1.023377	-0.882025	-0.280957
C162	C	1.273377	-0.632025	-0.030957
C163	C	1.523377	-0.382025	0.219043
C164	C	1.773377	-0.132025	0.469043
C165	C	0.978061	-0.700289	-0.326157
C166	C	1.228061	-0.450289	-0.076157
C167	C	1.478061	-0.200289	0.173843
C168	C	1.728061	0.049711	0.423843
C169	C	0.978200	-1.014469	-0.326178
C170	C	1.228200	-0.764469	-0.076178
C171	C	1.478200	-0.514469	0.173822
C172	C	1.728200	-0.264469	0.423822
C173	C	1.154630	-0.357774	-0.326171
C174	C	1.404630	-0.107774	-0.076171
C175	C	1.654630	0.142226	0.173829
C176	C	1.904630	0.392226	0.423829
C177	C	1.229862	-0.357780	-0.326180
C178	C	1.479862	-0.107780	-0.076180
C179	C	1.729862	0.142220	0.173820
C180	C	1.979862	0.392220	0.423820
C181	C	0.978117	-0.357708	-0.502691
C182	C	1.228117	-0.107708	-0.252691
C183	C	1.478117	0.142292	-0.002691
C184	C	1.728117	0.392292	0.247309
C185	C	0.978129	-0.357686	-0.577923
C186	C	1.228129	-0.107686	-0.327923
C187	C	1.478129	0.142314	-0.077923
C188	C	1.728129	0.392314	0.172077
C189	C	0.978187	-0.164054	-0.326175
C190	C	1.228187	0.085946	-0.076175
C191	C	1.478187	0.335946	0.173825
C192	C	1.728187	0.585946	0.423825
C193	C	0.978230	-0.081508	-0.326186
C194	C	1.228230	0.168492	-0.076186
C195	C	1.478230	0.418492	0.173814
C196	C	1.728230	0.668492	0.423814
C197	C	0.934876	-0.310179	-0.613268
C198	C	1.184876	-0.060179	-0.363268
C199	C	1.434876	0.189821	-0.113268
C200	C	1.684876	0.439821	0.136732
C201	C	0.934885	-0.310164	-0.683956
C202	C	1.184885	-0.060164	-0.433956
C203	C	1.434885	0.189836	-0.183956
C204	C	1.684885	0.439836	0.066044
C205	C	0.978152	-0.357654	-0.719299
C206	C	1.228152	-0.107654	-0.469299
C207	C	1.478152	0.142346	-0.219299
C208	C	1.728152	0.392346	0.030701
C209	C	1.021407	-0.405166	-0.683949
C210	C	1.271407	-0.155166	-0.433949
C211	C	1.521407	0.094834	-0.183949
C212	C	1.771407	0.344834	0.066051
C213	C	1.021394	-0.405184	-0.613262
C214	C	1.271394	-0.155184	-0.363262
C215	C	1.521394	0.094816	-0.113262
C216	C	1.771394	0.344816	0.136738
C217	C	1.021461	-0.405096	-0.969023
C218	C	1.271461	-0.155096	-0.719023
C219	C	1.521461	0.094904	-0.469023
C220	C	1.771461	0.344904	-0.219023
C221	C	1.021472	-0.405074	-1.039715
C222	C	1.271472	-0.155074	-0.789715
C223	C	1.521472	0.094926	-0.539715
C224	C	1.771472	0.344926	-0.289715
C225	C	0.934952	-0.310077	-1.039717
C226	C	1.184952	-0.060077	-0.789717
C227	C	1.434952	0.189923	-0.539717
C228	C	1.684952	0.439923	-0.289717
C229	C	0.934939	-0.310095	-0.969030
C230	C	1.184939	-0.060095	-0.719030
C231	C	1.434939	0.189905	-0.469030
C232	C	1.684939	0.439905	-0.219030
C233	C	0.978191	-0.357609	-0.933686
C234	C	1.228191	-0.107609	-0.683686
C235	C	1.478191	0.142391	-0.433686
C236	C	1.728191	0.392391	-0.183686
C237	C	0.978180	-0.357626	-0.857038
C238	C	1.228180	-0.107626	-0.607038
C239	C	1.478180	0.142374	-0.357038
C240	C	1.728180	0.392374	-0.107038
C241	C	0.978167	-0.357634	-0.795946
C242	C	1.228167	-0.107634	-0.545946
C243	C	1.478167	0.142366	-0.295946
C244	C	1.728167	0.392366	-0.045946
C245	C	0.978096	-0.357757	-0.150292
C246	C	1.228096	-0.107757	0.099708
C247	C	1.478096	0.142243	0.349708
C248	C	1.728096	0.392243	0.599708
C249	C	0.978215	-0.357570	-0.075061
C250	C	1.228215	-0.107570	0.174939
C251	C	1.478215	0.142430	0.424939
C252	C	1.728215	0.392430	0.674939
H253	H	0.720427	-0.444041	-0.404530
H254	H	0.970427	-0.194041	-0.154530
H255	H	1.220427	0.055959	0.095470
H256	H	1.470427	0.305959	0.345470
H257	H	1.008582	-0.903679	-0.440167
H258	H	1.258582	-0.653679	-0.190167
H259	H	1.508582	-0.403679	0.059833
H260	H	1.758582	-0.153679	0.309833
H261	H	1.056672	-0.443794	-0.940255
H262	H	1.306672	-0.193794	-0.690255
H263	H	1.556672	0.056206	-0.440255
H264	H	1.806672	0.306206	-0.190255
H265	H	1.056632	-0.443836	-0.712731
H266	H	1.306632	-0.193836	-0.462731
H267	H	1.556632	0.056164	-0.212731
H268	H	1.806632	0.306164	0.037269
H269	H	1.056621	-0.443863	-0.584486
H270	H	1.306621	-0.193863	-0.334486
H271	H	1.556621	0.056137	-0.084486
H272	H	1.806621	0.306137	0.165514
H273	H	0.592193	-0.444043	-0.404545
H274	H	0.842193	-0.194043	-0.154545
H275	H	1.092193	0.055957	0.095455
H276	H	1.342193	0.305957	0.345455
H277	H	0.236422	-0.444064	-0.404574
H278	H	0.486422	-0.194064	-0.154574
H279	H	0.736422	0.055936	0.095426
H280	H	0.986422	0.305936	0.345426
H281	H	0.720435	-0.271465	-0.247741
H282	H	0.970435	-0.021465	0.002259
H283	H	1.220435	0.228535	0.252259
H284	H	1.470435	0.478535	0.502259
H285	H	1.061650	-0.903539	-0.242711
H286	H	1.311650	-0.653539	0.007289
H287	H	1.561650	-0.403539	0.257289
H288	H	1.811650	-0.153539	0.507289
H289	H	0.364667	-0.444058	-0.404562
H290	H	0.614667	-0.194058	-0.154562
H291	H	0.864667	0.055942	0.095438
H292	H	1.114667	0.305942	0.345438
H293	H	1.092028	-0.810827	-0.356819
H294	H	1.342028	-0.560827	-0.106819
H295	H	1.592028	-0.310827	0.143181
H296	H	1.842028	-0.060827	0.393181
H297	H	0.899661	-0.271482	-0.712731
H298	H	1.149661	-0.021482	-0.462731
H299	H	1.399661	0.228518	-0.212731
H300	H	1.649661	0.478518	0.037269
H301	H	0.236432	-0.271497	-0.247777
H302	H	0.486432	-0.021497	0.002223
H303	H	0.736432	0.228503	0.252223
H304	H	0.986432	0.478503	0.502223
H305	H	0.899647	-0.271503	-0.584497
H306	H	1.149647	-0.021503	-0.334497
H307	H	1.399647	0.228497	-0.084497
H308	H	1.649647	0.478497	0.165503
H309	H	0.864187	-0.903940	-0.295555
H310	H	1.114187	-0.653940	-0.045555
H311	H	1.364187	-0.403940	0.204445
H312	H	1.614187	-0.153940	0.454445
H313	H	0.364666	-0.271491	-0.247763
H314	H	0.614666	-0.021491	0.002237
H315	H	0.864666	0.228509	0.252237
H316	H	1.114666	0.478509	0.502237
H317	H	0.592190	-0.271478	-0.247754
H318	H	0.842190	-0.021478	0.002246
H319	H	1.092190	0.228522	0.252246
H320	H	1.342190	0.478522	0.502246
H321	H	0.894571	-0.811067	-0.409498
H322	H	1.144571	-0.561067	-0.159498
H323	H	1.394571	-0.311067	0.090502
H324	H	1.644571	-0.061067	0.340502
H325	H	0.947556	-0.811180	-0.212121
H326	H	1.197556	-0.561180	0.037879
H327	H	1.447556	-0.311180	0.287879
H328	H	1.697556	-0.061180	0.537879
H329	H	0.899709	-0.271421	-0.940257
H330	H	1.149709	-0.021421	-0.690257
H331	H	1.399709	0.228579	-0.440257
H332	H	1.649709	0.478579	-0.190257
H333	H	0.899732	-0.271390	-1.068502
H334	H	1.149732	-0.021390	-0.818502
H335	H	1.399732	0.228610	-0.568502
H336	H	1.649732	0.478610	-0.318502
H337	H	1.056707	-0.443748	-1.068489
H338	H	1.306707	-0.193748	-0.818489
H339	H	1.556707	0.056252	-0.568489
H340	H	1.806707	0.306252	-0.318489
