data_functionalizedCrystal
_audit_creation_method	'MofGen! by Chris Wilmer'
_symmetry_space_group_name_H-M	'P1'
_symmetry_Int_Tables_number	1
_symmetry_cell_setting	triclinic
loop_
_symmetry_equiv_pos_as_xyz
  x,y,z
_cell_length_a	18.101398
_cell_length_b	18.101395
_cell_length_c	18.101398
_cell_angle_alpha	89.998392
_cell_angle_beta	90.012704
_cell_angle_gamma	90.026371
loop_
_atom_site_label
_atom_site_type_symbol
_atom_site_fract_x
_atom_site_fract_y
_atom_site_fract_z
Zn1	Zn	1.132036	-0.295136	0.418847
Zn2	Zn	1.382036	-0.045136	0.668847
Zn3	Zn	1.632036	0.204864	0.918847
Zn4	Zn	1.882036	0.454864	1.168847
Zn5	Zn	1.131957	-0.418921	0.295009
Zn6	Zn	1.381957	-0.168921	0.545009
Zn7	Zn	1.631957	0.081079	0.795009
Zn8	Zn	1.881957	0.331079	1.045009
Zn9	Zn	1.008220	-0.295088	0.295008
Zn10	Zn	1.258220	-0.045088	0.545008
Zn11	Zn	1.508220	0.204912	0.795008
Zn12	Zn	1.758220	0.454912	1.045008
Zn13	Zn	1.008146	-0.418930	0.418797
Zn14	Zn	1.258146	-0.168930	0.668797
Zn15	Zn	1.508146	0.081070	0.918797
Zn16	Zn	1.758146	0.331070	1.168797
O17	O	1.070090	-0.357019	0.356915
O18	O	1.320090	-0.107019	0.606915
O19	O	1.570090	0.142981	0.856915
O20	O	1.820090	0.392981	1.106915
O21	O	1.235658	-0.311573	0.402440
O22	O	1.485658	-0.061573	0.652440
O23	O	1.735658	0.188427	0.902440
O24	O	1.985658	0.438427	1.152440
O25	O	1.115541	-0.402471	0.191376
O26	O	1.365541	-0.152471	0.441376
O27	O	1.615541	0.097529	0.691376
O28	O	1.865541	0.347529	0.941376
O29	O	1.024709	-0.191462	0.311456
O30	O	1.274709	0.058538	0.561456
O31	O	1.524709	0.308538	0.811456
O32	O	1.774709	0.558538	1.061456
O33	O	1.235600	-0.402518	0.311457
O34	O	1.485600	-0.152518	0.561457
O35	O	1.735600	0.097482	0.811457
O36	O	1.985600	0.347482	1.061457
O37	O	1.115676	-0.191496	0.402440
O38	O	1.365676	0.058504	0.652440
O39	O	1.615676	0.308504	0.902440
O40	O	1.865676	0.558504	1.152440
O41	O	1.024632	-0.311492	0.191375
O42	O	1.274632	-0.061492	0.441375
O43	O	1.524632	0.188508	0.691375
O44	O	1.774632	0.438508	0.941375
O45	O	0.904577	-0.311499	0.311408
O46	O	1.154577	-0.061499	0.561408
O47	O	1.404577	0.188501	0.811408
O48	O	1.654577	0.438501	1.061408
O49	O	1.024582	-0.402531	0.522436
O50	O	1.274582	-0.152531	0.772436
O51	O	1.524582	0.097469	1.022436
O52	O	1.774582	0.347469	1.272436
O53	O	0.904523	-0.402485	0.402355
O54	O	1.154523	-0.152485	0.652355
O55	O	1.404523	0.097515	0.902355
O56	O	1.654523	0.347515	1.152355
O57	O	1.115604	-0.311581	0.522473
O58	O	1.365604	-0.061581	0.772473
O59	O	1.615604	0.188419	1.022473
O60	O	1.865604	0.438419	1.272473
O61	O	1.115469	-0.522555	0.311409
O62	O	1.365469	-0.272555	0.561409
O63	O	1.615469	-0.022555	0.811409
O64	O	1.865469	0.227445	1.061409
O65	O	1.024505	-0.522561	0.402356
O66	O	1.274505	-0.272561	0.652356
O67	O	1.524505	-0.022561	0.902356
O68	O	1.774505	0.227439	1.152356
C69	C	0.877679	-0.356989	0.356876
C70	C	1.127679	-0.106989	0.606876
C71	C	1.377679	0.143011	0.856876
C72	C	1.627679	0.393011	1.106876
C73	C	0.795365	-0.356994	0.356877
C74	C	1.045365	-0.106994	0.606877
C75	C	1.295365	0.143006	0.856877
C76	C	1.545365	0.393006	1.106877
C77	C	1.069991	-0.549429	0.356893
C78	C	1.319991	-0.299429	0.606893
C79	C	1.569991	-0.049429	0.856893
C80	C	1.819991	0.200571	1.106893
C81	C	1.070016	-0.631743	0.356909
C82	C	1.320016	-0.381743	0.606909
C83	C	1.570016	-0.131743	0.856909
C84	C	1.820016	0.118257	1.106909
C85	C	0.496274	-0.357040	0.356940
C86	C	0.746274	-0.107040	0.606940
C87	C	0.996274	0.142960	0.856940
C88	C	1.246274	0.392960	1.106940
C89	C	0.527609	-0.299508	0.299997
C90	C	0.777609	-0.049508	0.549997
C91	C	1.027609	0.200492	0.799997
C92	C	1.277609	0.450492	1.049997
C93	C	0.613227	-0.299662	0.299754
C94	C	0.863227	-0.049662	0.549754
C95	C	1.113227	0.200338	0.799754
C96	C	1.363227	0.450338	1.049754
C97	C	0.644657	-0.357016	0.356909
C98	C	0.894657	-0.107016	0.606909
C99	C	1.144657	0.142984	0.856909
C100	C	1.394657	0.392984	1.106909
C101	C	0.613543	-0.435017	0.335586
C102	C	0.863543	-0.185017	0.585586
C103	C	1.113543	0.064983	0.835586
C104	C	1.363543	0.314983	1.085586
C105	C	0.527898	-0.434698	0.335190
C106	C	0.777898	-0.184698	0.585190
C107	C	1.027898	0.065302	0.835190
C108	C	1.277898	0.315302	1.085190
C109	C	0.527873	-0.337249	0.435338
C110	C	0.777873	-0.087249	0.685338
C111	C	1.027873	0.162751	0.935338
C112	C	1.277873	0.412751	1.185338
C113	C	0.613524	-0.335511	0.434911
C114	C	0.863524	-0.085511	0.684911
C115	C	1.113524	0.164489	0.934911
C116	C	1.363524	0.414489	1.184911
C117	C	0.728516	-0.357008	0.356893
C118	C	0.978516	-0.107008	0.606893
C119	C	1.228516	0.142992	0.856893
C120	C	1.478516	0.392992	1.106893
C121	C	0.412415	-0.357054	0.356954
C122	C	0.662415	-0.107054	0.606954
C123	C	0.912415	0.142946	0.856954
C124	C	1.162415	0.392946	1.106954
C125	C	1.070178	-0.930834	0.356949
C126	C	1.320178	-0.680834	0.606949
C127	C	1.570178	-0.430834	0.856949
C128	C	1.820178	-0.180834	1.106949
C129	C	1.013079	-0.899544	0.414312
C130	C	1.263079	-0.649544	0.664312
C131	C	1.513079	-0.399544	0.914312
C132	C	1.763079	-0.149544	1.164312
C133	C	1.012808	-0.813926	0.414132
C134	C	1.262808	-0.563926	0.664132
C135	C	1.512808	-0.313926	0.914132
C136	C	1.762808	-0.063926	1.164132
C137	C	1.070098	-0.782452	0.356929
C138	C	1.320098	-0.532452	0.606929
C139	C	1.570098	-0.282452	0.856929
C140	C	1.820098	-0.032452	1.106929
C141	C	1.048984	-0.813562	0.278878
C142	C	1.298984	-0.563562	0.528878
C143	C	1.548984	-0.313562	0.778878
C144	C	1.798984	-0.063562	1.028878
C145	C	1.048616	-0.899207	0.279221
C146	C	1.298616	-0.649207	0.529221
C147	C	1.548616	-0.399207	0.779221
C148	C	1.798616	-0.149207	1.029221
C149	C	1.148516	-0.899195	0.376950
C150	C	1.398516	-0.649195	0.626950
C151	C	1.648516	-0.399195	0.876950
C152	C	1.898516	-0.149195	1.126950
C153	C	1.148055	-0.813544	0.378661
C154	C	1.398055	-0.563544	0.628661
C155	C	1.648055	-0.313544	0.878661
C156	C	1.898055	-0.063544	1.128661
C157	C	1.070053	-0.698592	0.356914
C158	C	1.320053	-0.448592	0.606914
C159	C	1.570053	-0.198592	0.856914
C160	C	1.820053	0.051408	1.106914
C161	C	1.070221	-1.014694	0.356959
C162	C	1.320221	-0.764694	0.606959
C163	C	1.570221	-0.514694	0.856959
C164	C	1.820221	-0.264694	1.106959
C165	C	1.263252	-0.357049	0.356954
C166	C	1.513252	-0.107049	0.606954
C167	C	1.763252	0.142951	0.856954
C168	C	2.013252	0.392951	1.106954
C169	C	1.345566	-0.357063	0.356971
C170	C	1.595566	-0.107063	0.606971
C171	C	1.845566	0.142937	0.856971
C172	C	2.095566	0.392937	1.106971
C173	C	1.070093	-0.357062	0.550077
C174	C	1.320093	-0.107062	0.800077
C175	C	1.570093	0.142938	1.050077
C176	C	1.820093	0.392938	1.300077
C177	C	1.070095	-0.357081	0.632391
C178	C	1.320095	-0.107081	0.882391
C179	C	1.570095	0.142919	1.132391
C180	C	1.820095	0.392919	1.382391
C181	C	1.070209	-0.163857	0.356953
C182	C	1.320209	0.086143	0.606953
C183	C	1.570209	0.336143	0.856953
C184	C	1.820209	0.586143	1.106953
C185	C	1.070260	-0.081543	0.356969
C186	C	1.320260	0.168457	0.606969
C187	C	1.570260	0.418457	0.856969
C188	C	1.820260	0.668457	1.106969
C189	C	1.070077	-0.357038	0.931482
C190	C	1.320077	-0.107038	1.181482
C191	C	1.570077	0.142962	1.431482
C192	C	1.820077	0.392962	1.681482
C193	C	1.012618	-0.414070	0.900134
C194	C	1.262618	-0.164070	1.150134
C195	C	1.512618	0.085930	1.400134
C196	C	1.762618	0.335930	1.650134
C197	C	1.012791	-0.414307	0.814516
C198	C	1.262791	-0.164307	1.064516
C199	C	1.512791	0.085693	1.314516
C200	C	1.762791	0.335693	1.564516
C201	C	1.070085	-0.357059	0.783099
C202	C	1.320085	-0.107059	1.033099
C203	C	1.570085	0.142941	1.283099
C204	C	1.820085	0.392941	1.533099
C205	C	1.148104	-0.378260	0.814206
C206	C	1.398104	-0.128260	1.064206
C207	C	1.648104	0.121740	1.314206
C208	C	1.898104	0.371740	1.564206
C209	C	1.147767	-0.378662	0.899851
C210	C	1.397767	-0.128662	1.149851
C211	C	1.647767	0.121338	1.399851
C212	C	1.897767	0.371338	1.649851
C213	C	1.050202	-0.278669	0.899904
C214	C	1.300202	-0.028669	1.149904
C215	C	1.550202	0.221331	1.399904
C216	C	1.800202	0.471331	1.649904
C217	C	1.048484	-0.279094	0.814253
C218	C	1.298484	-0.029094	1.064253
C219	C	1.548484	0.220906	1.314253
C220	C	1.798484	0.470906	1.564253
C221	C	1.070095	-0.357070	0.699240
C222	C	1.320095	-0.107070	0.949240
C223	C	1.570095	0.142930	1.199240
C224	C	1.820095	0.392930	1.449240
C225	C	1.070073	-0.357029	1.015341
C226	C	1.320073	-0.107029	1.265341
C227	C	1.570073	0.142971	1.515341
C228	C	1.820073	0.392971	1.765341
C229	C	1.070078	-0.357003	1.164504
C230	C	1.320078	-0.107003	1.414504
C231	C	1.570078	0.142997	1.664504
C232	C	1.820078	0.392997	1.914504
C233	C	1.070068	-0.357017	1.082190
C234	C	1.320068	-0.107017	1.332190
C235	C	1.570068	0.142983	1.582190
C236	C	1.820068	0.392983	1.832190
H237	H	0.634265	-0.241820	0.313119
H238	H	0.884265	0.008180	0.563119
H239	H	1.134265	0.258180	0.813119
H240	H	1.384265	0.508180	1.063119
F241	F	1.173681	-0.927397	0.450075
F242	F	1.423681	-0.677397	0.700075
F243	F	1.673681	-0.427397	0.950075
F244	F	1.923681	-0.177397	1.200075
H245	H	1.191057	-0.919427	0.335170
H246	H	1.441057	-0.669427	0.585170
H247	H	1.691057	-0.419427	0.835170
H248	H	1.941057	-0.169427	1.085170
H249	H	1.192030	-0.338926	0.920590
H250	H	1.442030	-0.088926	1.170590
H251	H	1.692030	0.161074	1.420590
H252	H	1.942030	0.411074	1.670590
F253	F	1.169790	-0.453541	0.925975
F254	F	1.419790	-0.203541	1.175975
F255	F	1.669790	0.046459	1.425975
F256	F	1.919790	0.296459	1.675975
H257	H	1.192074	-0.338012	0.793859
H258	H	1.442074	-0.088012	1.043859
H259	H	1.692074	0.161988	1.293859
H260	H	1.942074	0.411988	1.543859
F261	F	1.170523	-0.452327	0.786183
F262	F	1.420523	-0.202327	1.036183
F263	F	1.670523	0.047673	1.286183
F264	F	1.920523	0.297673	1.536183
F265	F	0.501754	-0.456639	0.260278
F266	F	0.751754	-0.206639	0.510278
F267	F	1.001754	0.043361	0.760278
F268	F	1.251754	0.293361	1.010278
H269	H	1.025609	-0.471805	0.921661
H270	H	1.275609	-0.221805	1.171661
H271	H	1.525609	0.028195	1.421661
H272	H	1.775609	0.278195	1.671661
F273	F	1.168868	-0.786969	0.453742
F274	F	1.418868	-0.536969	0.703742
F275	F	1.668868	-0.286969	0.953742
F276	F	1.918868	-0.036969	1.203742
F277	F	0.977121	-0.253445	0.928115
F278	F	1.227121	-0.003445	1.178115
F279	F	1.477121	0.246555	1.428115
F280	F	1.727121	0.496555	1.678115
H281	H	0.991068	-0.263107	0.793921
H282	H	1.241068	-0.013107	1.043921
H283	H	1.491068	0.236893	1.293921
H284	H	1.741068	0.486893	1.543921
H285	H	0.633899	-0.479030	0.375763
H286	H	0.883899	-0.229030	0.625763
H287	H	1.133899	0.020970	0.875763
H288	H	1.383899	0.270970	1.125763
H289	H	0.507608	-0.379153	0.477766
H290	H	0.757608	-0.129153	0.727766
H291	H	1.007608	0.120847	0.977766
H292	H	1.257608	0.370847	1.227766
F293	F	0.499674	-0.264200	0.460678
F294	F	0.749674	-0.014200	0.710678
F295	F	0.999674	0.235800	0.960678
F296	F	1.249674	0.485800	1.210678
H297	H	1.025921	-0.472383	0.794035
H298	H	1.275921	-0.222383	1.044035
H299	H	1.525921	0.027617	1.294035
H300	H	1.775921	0.277617	1.544035
F301	F	1.101633	-0.786914	0.221488
F302	F	1.351633	-0.536914	0.471488
F303	F	1.601633	-0.286914	0.721488
F304	F	1.851633	-0.036914	0.971488
F305	F	0.936911	-0.787213	0.396818
F306	F	1.186911	-0.537213	0.646818
F307	F	1.436911	-0.287213	0.896818
F308	F	1.686911	-0.037213	1.146818
F309	F	1.104904	-0.223128	0.926403
F310	F	1.354904	0.026872	1.176403
F311	F	1.604904	0.276872	1.426403
F312	F	1.854904	0.526872	1.676403
F313	F	1.099211	-0.220585	0.786310
F314	F	1.349211	0.029415	1.036310
F315	F	1.599211	0.279415	1.286310
F316	F	1.849211	0.529415	1.536310
F317	F	0.499446	-0.316399	0.224509
F318	F	0.749446	-0.066399	0.474509
F319	F	0.999446	0.183601	0.724509
F320	F	1.249446	0.433601	0.974509
H321	H	0.992327	-0.792164	0.261632
H322	H	1.242327	-0.542164	0.511632
H323	H	1.492327	-0.292164	0.761632
H324	H	1.742327	-0.042164	1.011632
F325	F	0.936756	-0.396920	0.927033
F326	F	1.186756	-0.146920	1.177033
F327	F	1.436756	0.103080	1.427033
F328	F	1.686756	0.353080	1.677033
H329	H	0.634969	-0.452098	0.278892
H330	H	0.884969	-0.202098	0.528892
H331	H	1.134969	0.047902	0.778892
H332	H	1.384969	0.297902	1.028892
F333	F	0.640120	-0.260490	0.455933
F334	F	0.890120	-0.010490	0.705933
F335	F	1.140120	0.239510	0.955933
F336	F	1.390120	0.489510	1.205933
H337	H	0.634920	-0.374364	0.479610
H338	H	0.884920	-0.124364	0.729610
H339	H	1.134920	0.125636	0.979610
H340	H	1.384920	0.375636	1.229610
H341	H	0.507036	-0.241489	0.313215
H342	H	0.757036	0.008511	0.563215
H343	H	1.007036	0.258511	0.813215
H344	H	1.257036	0.508511	1.063215
F345	F	0.639980	-0.316756	0.223822
F346	F	0.889980	-0.066756	0.473822
F347	F	1.139980	0.183244	0.723822
F348	F	1.389980	0.433244	0.973822
H349	H	0.954936	-0.401039	0.793483
H350	H	1.204936	-0.151039	1.043483
H351	H	1.454936	0.098961	1.293483
H352	H	1.704936	0.348961	1.543483
F353	F	1.030069	-0.786431	0.489778
F354	F	1.280069	-0.536431	0.739778
F355	F	1.530069	-0.286431	0.989778
F356	F	1.780069	-0.036431	1.239778
F357	F	0.500800	-0.492622	0.387032
F358	F	0.750800	-0.242622	0.637032
F359	F	1.000800	0.007378	0.887032
F360	F	1.250800	0.257378	1.137032
F361	F	1.030167	-0.926442	0.490204
F362	F	1.280167	-0.676442	0.740204
F363	F	1.530167	-0.426442	0.990204
F364	F	1.780167	-0.176442	1.240204
H365	H	0.955366	-0.921119	0.401229
H366	H	1.205366	-0.671119	0.651229
H367	H	1.455366	-0.421119	0.901229
H368	H	1.705366	-0.171119	1.151229
H369	H	0.991352	-0.919237	0.262279
H370	H	1.241352	-0.669237	0.512279
H371	H	1.491352	-0.419237	0.762279
H372	H	1.741352	-0.169237	1.012279
F373	F	1.206604	-0.785532	0.328037
F374	F	1.456604	-0.535532	0.578037
F375	F	1.706604	-0.285532	0.828037
F376	F	1.956604	-0.035532	1.078037
F377	F	1.100612	-0.926264	0.221447
F378	F	1.350612	-0.676264	0.471447
F379	F	1.600612	-0.426264	0.721447
F380	F	1.850612	-0.176264	0.971447
