data_functionalizedCrystal
_audit_creation_method	'MofGen! by Chris Wilmer'
_symmetry_space_group_name_H-M	'P1'
_symmetry_Int_Tables_number	1
_symmetry_cell_setting	triclinic
loop_
_symmetry_equiv_pos_as_xyz
  x,y,z
_cell_length_a	15.944551
_cell_length_b	15.944551
_cell_length_c	14.421503
_cell_angle_alpha	90.003141
_cell_angle_beta	90.003340
_cell_angle_gamma	96.501262
loop_
_atom_site_label
_atom_site_type_symbol
_atom_site_fract_x
_atom_site_fract_y
_atom_site_fract_z
O1	O	0.108320	-1.114529	-0.077017
O2	O	0.441654	-0.781196	0.256316
O3	O	0.774987	-0.447863	0.589650
O4	O	0.121677	-0.869980	-0.077040
O5	O	0.455010	-0.536646	0.256293
O6	O	0.788343	-0.203313	0.589626
O7	O	-0.007276	-0.998933	-0.077020
O8	O	0.326057	-0.665599	0.256314
O9	O	0.659390	-0.332266	0.589647
O10	O	0.237273	-0.985576	-0.077038
O11	O	0.570607	-0.652243	0.256296
O12	O	0.903940	-0.318910	0.589629
O13	O	-0.007257	-0.998911	0.077204
O14	O	0.326076	-0.665578	0.410537
O15	O	0.659410	-0.332245	0.743870
O16	O	0.121696	-0.869958	0.077183
O17	O	0.455029	-0.536625	0.410516
O18	O	0.788363	-0.203292	0.743850
O19	O	0.108340	-1.114508	0.077206
O20	O	0.441673	-0.781175	0.410540
O21	O	0.775006	-0.447841	0.743873
Cu22	Cu	0.115020	-0.992231	0.091277
Cu23	Cu	0.448353	-0.658898	0.424610
Cu24	Cu	0.781686	-0.325564	0.757943
Cu25	Cu	0.114997	-0.992256	-0.091110
Cu26	Cu	0.448330	-0.658923	0.242223
Cu27	Cu	0.781663	-0.325590	0.575556
O28	O	0.237293	-0.985555	0.077186
O29	O	0.570626	-0.652222	0.410519
O30	O	0.903959	-0.318888	0.743852
C31	C	-0.038561	-0.998367	0.000092
C32	C	0.294773	-0.665034	0.333426
C33	C	0.628106	-0.331701	0.666759
C34	C	-0.131807	-0.996705	0.000093
C35	C	0.201527	-0.663372	0.333426
C36	C	0.534860	-0.330038	0.666759
C37	C	0.121132	-0.838675	0.000069
C38	C	0.454465	-0.505342	0.333402
C39	C	0.787798	-0.172008	0.666735
C40	C	0.119470	-0.745429	0.000060
C41	C	0.452803	-0.412096	0.333393
C42	C	0.786136	-0.078762	0.666727
C43	C	0.108885	-1.145813	0.000096
C44	C	0.442218	-0.812479	0.333429
C45	C	0.775551	-0.479146	0.666762
C46	C	0.110547	-1.239059	0.000098
C47	C	0.443880	-0.905725	0.333431
C48	C	0.777214	-0.572392	0.666765
C49	C	-0.346663	-0.912801	0.000072
C50	C	-0.013330	-0.579467	0.333405
C51	C	0.320003	-0.246134	0.666738
C52	C	-0.407671	-0.951753	0.076117
C53	C	-0.074338	-0.618419	0.409450
C54	C	0.258996	-0.285086	0.742784
C55	C	-0.302533	-0.993698	0.000085
C56	C	0.030801	-0.660365	0.333418
C57	C	0.364134	-0.327031	0.666752
C58	C	-0.407674	-0.951793	-0.075935
C59	C	-0.074340	-0.618459	0.257398
C60	C	0.258993	-0.285126	0.590731
C61	C	-0.467445	-0.990787	0.000074
C62	C	-0.134112	-0.657454	0.333407
C63	C	0.199221	-0.324120	0.666741
C64	C	-0.362312	-1.032672	0.076193
C65	C	-0.028979	-0.699339	0.409526
C66	C	0.304355	-0.366005	0.742860
C67	C	-0.362308	-1.032701	-0.075927
C68	C	-0.028975	-0.699367	0.257406
C69	C	0.304359	-0.366034	0.590739
C70	C	-0.423298	-1.071711	0.000136
C71	C	-0.089965	-0.738378	0.333470
C72	C	0.243368	-0.405045	0.666803
C73	C	-0.207530	-0.995372	0.000092
C74	C	0.125803	-0.662039	0.333426
C75	C	0.459136	-0.328706	0.666759
C76	C	-0.562446	-0.989119	0.000073
C77	C	-0.229113	-0.655785	0.333407
C78	C	0.104220	-0.322452	0.666740
C79	C	0.268577	-0.986120	0.000072
C80	C	0.601910	-0.652787	0.333405
C81	C	0.935244	-0.319453	0.666739
C82	C	0.361823	-0.987782	0.000066
C83	C	0.695156	-0.654449	0.333399
C84	C	1.028490	-0.321116	0.666732
N85	N	0.115035	-0.992219	0.219558
N86	N	0.448368	-0.658886	0.552891
N87	N	0.781702	-0.325553	0.886225
C88	C	0.035565	-0.530572	0.000084
C89	C	0.368898	-0.197239	0.333417
C90	C	0.702232	0.136094	0.666751
C91	C	0.074518	-0.469563	-0.075959
C92	C	0.407851	-0.136229	0.257374
C93	C	0.741185	0.197104	0.590708
C94	C	0.116462	-0.574703	0.000071
C95	C	0.449796	-0.241370	0.333404
C96	C	0.783129	0.091964	0.666738
C97	C	0.074556	-0.469564	0.076093
C98	C	0.407889	-0.136230	0.409426
C99	C	0.741223	0.197103	0.742760
C100	C	0.113551	-0.409790	0.000086
C101	C	0.446885	-0.076457	0.333419
C102	C	0.780218	0.256876	0.666753
C103	C	0.155437	-0.514922	-0.076035
C104	C	0.488771	-0.181588	0.257298
C105	C	0.822104	0.151745	0.590632
C106	C	0.155464	-0.514929	0.076086
C107	C	0.488797	-0.181596	0.409419
C108	C	0.822131	0.151737	0.742752
C109	C	0.194476	-0.453937	0.000024
C110	C	0.527809	-0.120604	0.333357
C111	C	0.861143	0.212729	0.666691
C112	C	0.118137	-0.669705	0.000062
C113	C	0.451470	-0.336372	0.333395
C114	C	0.784803	-0.003039	0.666728
C115	C	0.111883	-0.314789	0.000089
C116	C	0.445217	0.018544	0.333422
C117	C	0.778550	0.351877	0.666755
N118	N	0.114975	-0.992275	-0.219392
N119	N	0.448308	-0.658941	0.113942
N120	N	0.781641	-0.325608	0.447275
C121	C	0.174636	-0.932581	0.469202
C122	C	0.507969	-0.599248	0.802535
C123	C	0.841303	-0.265914	1.135869
C124	C	0.190943	-1.008481	0.531011
C125	C	0.524277	-0.675148	0.864344
C126	C	0.857610	-0.341814	1.197677
C127	C	0.115015	-0.992240	0.408719
C128	C	0.448348	-0.658907	0.742053
C129	C	0.781682	-0.325573	1.075386
C130	C	0.098727	-0.916359	0.531005
C131	C	0.432061	-0.583026	0.864338
C132	C	0.765394	-0.249693	1.197671
C133	C	0.114997	-0.992253	0.591441
C134	C	0.448331	-0.658920	0.924774
C135	C	0.781664	-0.325586	1.258107
C136	C	0.131360	-1.068178	0.469167
C137	C	0.464693	-0.734845	0.802500
C138	C	0.798027	-0.401512	1.135834
C139	C	0.039111	-0.976007	0.469156
C140	C	0.372444	-0.642673	0.802489
C141	C	0.705778	-0.309340	1.135822
C142	C	0.055386	-1.051961	0.530936
C143	C	0.388719	-0.718628	0.864270
C144	C	0.722053	-0.385295	1.197603
C145	C	0.115027	-0.992231	0.303458
C146	C	0.448360	-0.658898	0.636792
C147	C	0.781694	-0.325565	0.970125
C148	C	0.114985	-0.992270	0.696700
C149	C	0.448318	-0.658937	1.030033
C150	C	0.781651	-0.325604	1.363366
H151	H	-0.313356	-0.845652	0.000141
H152	H	0.019978	-0.512319	0.333475
H153	H	0.353311	-0.178986	0.666808
H154	H	-0.456457	-1.138919	0.000186
H155	H	-0.123124	-0.805585	0.333519
H156	H	0.210210	-0.472252	0.666852
H157	H	0.145205	-1.132368	0.442119
H158	H	0.478539	-0.799035	0.775452
H159	H	0.811872	-0.465702	1.108785
H160	H	0.189620	-0.534918	-0.140394
H161	H	0.522953	-0.201585	0.192940
H162	H	0.856287	0.131748	0.526273
H163	H	0.004956	-1.102474	0.557872
H164	H	0.338289	-0.769140	0.891206
H165	H	0.671623	-0.435807	1.224539
H166	H	-0.427758	-0.917575	-0.140230
H167	H	-0.094425	-0.584242	0.193103
H168	H	0.238908	-0.250908	0.526437
H169	H	-0.342186	-1.066897	-0.140214
H170	H	-0.008852	-0.733563	0.193119
H171	H	0.324481	-0.400230	0.526452
H172	H	0.225096	-0.882181	0.442096
H173	H	0.558429	-0.548848	0.775429
H174	H	0.891763	-0.215514	1.108763
H175	H	0.040333	-0.449469	0.140379
H176	H	0.373666	-0.116135	0.473713
H177	H	0.707000	0.217198	0.807046
H178	H	-0.031573	-0.563905	-0.000005
H179	H	0.301760	-0.230572	0.333328
H180	H	0.635094	0.102762	0.666662
H181	H	0.261683	-0.420779	-0.000023
H182	H	0.595016	-0.087445	0.333310
H183	H	0.928350	0.245888	0.666643
H184	H	0.040294	-0.449461	-0.140243
H185	H	0.373627	-0.116128	0.193090
H186	H	0.706961	0.217205	0.526423
H187	H	-0.025051	-0.962240	0.441965
H188	H	0.308282	-0.628907	0.775298
H189	H	0.641616	-0.295574	1.108632
H190	H	0.189660	-0.535052	0.140373
H191	H	0.522993	-0.201718	0.473706
H192	H	0.856327	0.131615	0.807040
H193	H	0.084959	-0.852183	0.558170
H194	H	0.418292	-0.518850	0.891503
H195	H	0.751626	-0.185517	1.224836
H196	H	0.255126	-1.022224	0.558180
H197	H	0.588459	-0.688890	0.891513
H198	H	0.921793	-0.355557	1.224846
H199	H	-0.342314	-1.066850	0.140554
H200	H	-0.008980	-0.733517	0.473887
H201	H	0.324353	-0.400184	0.807221
H202	H	-0.427771	-0.917527	0.140401
H203	H	-0.094438	-0.584194	0.473734
H204	H	0.238895	-0.250861	0.807067
