data_functionalizedCrystal
_audit_creation_method	'MofGen! by Chris Wilmer'
_symmetry_space_group_name_H-M	'P1'
_symmetry_Int_Tables_number	1
_symmetry_cell_setting	triclinic
loop_
_symmetry_equiv_pos_as_xyz
  x,y,z
_cell_length_a	19.077105
_cell_length_b	19.121063
_cell_length_c	19.076919
_cell_angle_alpha	85.393653
_cell_angle_beta	89.923776
_cell_angle_gamma	90.263052
loop_
_atom_site_label
_atom_site_type_symbol
_atom_site_fract_x
_atom_site_fract_y
_atom_site_fract_z
Zn1	Zn	1.043169	-0.339734	0.454309
Zn2	Zn	1.042790	-0.452646	0.341419
Zn3	Zn	0.930805	-0.330327	0.331718
Zn4	Zn	0.920631	-0.452222	0.454155
O5	O	0.984349	-0.393732	0.395400
O6	O	1.141268	-0.358826	0.443459
O7	O	1.032035	-0.432660	0.241647
O8	O	0.950127	-0.233307	0.343985
O9	O	1.140989	-0.441782	0.360519
O10	O	1.032681	-0.240219	0.434052
O11	O	0.949760	-0.342793	0.234520
O12	O	0.831307	-0.342382	0.343835
O13	O	0.932786	-0.441060	0.552660
O14	O	0.823831	-0.431938	0.433788
O15	O	1.022815	-0.358416	0.552774
O16	O	1.022169	-0.550857	0.360369
O17	O	0.932419	-0.550546	0.443195
C18	C	0.802120	-0.386094	0.387742
C19	C	0.724160	-0.382844	0.384484
C20	C	0.683661	-0.428009	0.429719
C21	C	0.610410	-0.424946	0.426660
C22	C	0.577659	-0.376721	0.378362
C23	C	0.618164	-0.331551	0.333125
C24	C	0.691414	-0.334611	0.336188
C25	C	0.359002	-0.362559	0.364190
C26	C	0.285746	-0.359503	0.361130
C27	C	0.277998	-0.452898	0.454666
C28	C	0.351249	-0.455957	0.457722
C29	C	0.391747	-0.410784	0.412487
N30	N	0.502785	-0.373590	0.375233
N31	N	0.466620	-0.413912	0.415620
C32	C	0.976167	-0.576182	0.402834
C33	C	0.972730	-0.654239	0.406041
C34	C	1.017877	-0.691052	0.364463
C35	C	1.014648	-0.764395	0.367483
C36	C	0.966269	-0.800923	0.412078
C37	C	0.921120	-0.764105	0.453660
C38	C	0.924353	-0.690764	0.450644
C39	C	0.954173	-1.022359	0.423346
C40	C	0.950942	-1.095705	0.426358
C41	C	1.044471	-1.095990	0.340181
C42	C	1.047697	-1.022647	0.337165
C43	C	1.002551	-0.985836	0.378750
C44	C	0.962966	-0.875891	0.415164
C45	C	1.005857	-0.910869	0.375667
C46	C	1.167289	-0.401401	0.403088
C47	C	1.245247	-0.404669	0.406365
C48	C	0.976708	-0.400740	0.578967
C49	C	0.973452	-0.403726	0.657192
C50	C	0.992581	-0.210571	0.387953
C51	C	0.996089	-0.132518	0.384780
C52	C	0.992003	-0.386702	0.212547
C53	C	0.995403	-0.383524	0.134320
C54	C	1.018793	-0.362103	0.694003
C55	C	1.015725	-0.364906	0.767503
C56	C	0.967319	-0.409336	0.804192
C57	C	0.921973	-0.450962	0.767376
C58	C	0.925038	-0.448154	0.693877
C59	C	0.953123	-0.422342	1.024005
C60	C	0.950063	-0.425148	1.097510
C61	C	1.043814	-0.339090	1.097632
C62	C	1.046877	-0.336290	1.024131
C63	C	1.001529	-0.377913	0.987321
N64	N	0.964183	-0.412204	0.879321
N65	N	1.004662	-0.375041	0.912193
H66	H	0.377909	-0.495228	0.497049
H67	H	1.051411	-0.794364	0.333625
H68	H	1.087091	-0.992907	0.300852
C69	C	0.248977	-0.490887	0.574241
C70	C	0.233480	-0.502541	0.504394
H71	H	0.221496	-0.521537	0.604943
H72	H	0.238656	-0.443619	0.582184
H73	H	0.297290	-0.499614	0.582967
H74	H	0.185168	-0.493809	0.495666
H75	H	0.243797	-0.549819	0.496447
C76	C	1.081060	-1.208544	0.306553
C77	C	1.094106	-1.136455	0.294485
H78	H	1.111710	-1.233524	0.278347
H79	H	1.033850	-1.218240	0.294721
H80	H	1.088783	-1.222757	0.354774
H81	H	1.086377	-1.122241	0.246265
H82	H	1.141326	-1.126754	0.306312
H83	H	0.923575	-0.905641	0.451472
H84	H	1.086296	-0.300112	0.994264
H85	H	0.577438	-0.461725	0.463495
H86	H	0.391967	-0.325781	0.327352
C87	C	0.888107	-0.482059	0.581150
C88	C	0.875199	-0.493908	0.653411
H89	H	0.857332	-0.510302	0.556170
H90	H	0.935266	-0.493855	0.571509
H91	H	0.880466	-0.433984	0.566764
H92	H	0.882845	-0.541982	0.667798
H93	H	0.828029	-0.482117	0.663056
C94	C	0.863054	-0.936377	0.425688
C95	C	0.904546	-0.981896	0.469047
H96	H	0.832419	-0.911391	0.453904
H97	H	0.836267	-0.962731	0.395061
H98	H	0.892340	-0.904132	0.398703
H99	H	0.875260	-1.014145	0.496029
H100	H	0.931335	-0.955540	0.499686
H101	H	1.057269	-0.661315	0.328146
C102	C	0.602353	-0.210342	0.293253
C103	C	0.582168	-0.278538	0.280036
H104	H	0.580128	-0.177615	0.260478
H105	H	0.651768	-0.205706	0.288602
H106	H	0.588840	-0.201453	0.339640
H107	H	0.595686	-0.287429	0.233650
H108	H	0.532742	-0.283176	0.284680
H109	H	0.916207	-0.456245	0.994044
H110	H	0.724388	-0.297829	0.299356
C111	C	1.080740	-0.305175	1.210354
C112	C	1.093651	-0.293333	1.138094
H113	H	1.111505	-0.276919	1.235332
H114	H	1.088387	-0.353240	1.224747
H115	H	1.033572	-0.293383	1.219990
H116	H	1.140818	-0.305130	1.128457
H117	H	1.086010	-0.245257	1.123696
C118	C	0.857689	-0.509925	1.090010
C119	C	0.896848	-0.473987	1.137839
H120	H	0.824837	-0.540072	1.114909
H121	H	0.888230	-0.536974	1.063719
H122	H	0.833432	-0.477101	1.058970
H123	H	0.921109	-0.506811	1.168876
H124	H	0.866302	-0.446936	1.164141
H125	H	0.259084	-0.320225	0.321804
H126	H	1.058212	-0.325924	0.664136
H127	H	0.911554	-1.125446	0.462685
H128	H	0.881732	-0.793853	0.489974
C129	C	0.831580	-0.697845	0.536128
C130	C	0.874727	-0.650297	0.496349
H131	H	0.800943	-0.672861	0.564344
H132	H	0.859737	-0.728721	0.565526
H133	H	0.804788	-0.724191	0.505488
H134	H	0.901523	-0.623954	0.526989
H135	H	0.846567	-0.619408	0.466948
H136	H	0.710321	-0.467281	0.469046
C137	C	1.023238	-0.825224	0.278034
C138	C	1.059033	-0.870720	0.326646
H139	H	1.056066	-0.800436	0.247767
H140	H	0.996819	-0.792810	0.302371
H141	H	0.992562	-0.851574	0.250987
H142	H	1.089705	-0.844369	0.353696
H143	H	1.085463	-0.903138	0.302307
C144	C	1.108710	-0.279572	0.760242
C145	C	1.065570	-0.319156	0.807966
H146	H	1.139486	-0.251331	0.785224
H147	H	1.080557	-0.250334	0.729198
H148	H	1.135353	-0.310209	0.733947
H149	H	1.038923	-0.288519	0.834258
H150	H	1.093726	-0.348397	0.839022
C151	C	0.875650	-0.493480	0.879990
C152	C	0.868764	-0.499801	0.807703
H153	H	0.842803	-0.523636	0.904884
H154	H	0.867003	-0.446333	0.889683
H155	H	0.921813	-0.506194	0.894429
H156	H	0.822602	-0.487081	0.793263
H157	H	0.877406	-0.546958	0.798005
