data_functionalizedCrystal
_audit_creation_method	'MofGen! by Chris Wilmer'
_symmetry_space_group_name_H-M	'P1'
_symmetry_Int_Tables_number	1
_symmetry_cell_setting	triclinic
loop_
_symmetry_equiv_pos_as_xyz
  x,y,z
_cell_length_a	14.446369
_cell_length_b	14.560438
_cell_length_c	14.560438
_cell_angle_alpha	60.000905
_cell_angle_beta	90.001510
_cell_angle_gamma	59.998281
loop_
_atom_site_label
_atom_site_type_symbol
_atom_site_fract_x
_atom_site_fract_y
_atom_site_fract_z
Zr1	Zr	0.891770	1.005228	-0.120475
O2	O	0.743957	1.196839	-0.267125
O3	O	0.937082	0.813624	-0.075521
O4	O	0.937077	1.005228	-0.267122
O5	O	0.743965	1.005233	0.075616
O6	O	1.089414	1.005220	-0.267116
O7	O	0.743961	1.005236	-0.075524
O8	O	1.089423	0.662476	0.075623
O9	O	0.743957	1.347977	-0.267122
O10	O	1.070095	0.892425	-0.056342
O11	O	0.956410	0.892429	0.056449
O12	O	0.956405	1.118018	-0.169136
O13	O	0.842720	1.118022	-0.056346
Zr14	Zr	1.134736	1.005211	0.120586
Zr15	Zr	1.134730	1.005215	-0.120466
Zr16	Zr	0.891776	1.005224	0.120577
Zr17	Zr	0.891770	1.246276	-0.120470
Zr18	Zr	1.134735	0.764163	0.120582
O19	O	1.089424	1.196815	0.075633
O20	O	1.089415	1.196821	-0.267112
O21	O	0.743966	1.196834	0.075620
O22	O	1.282549	0.813600	0.267237
O23	O	1.282540	0.813606	-0.075508
O24	O	0.937091	0.813619	0.267224
O25	O	1.282540	1.005206	-0.075505
O26	O	1.089428	1.005211	0.267233
O27	O	0.937091	1.005219	0.267228
O28	O	1.282544	1.005204	0.075636
O29	O	0.937078	1.347967	-0.267115
O30	O	1.089428	0.662472	0.267227
O31	O	1.282548	0.662462	0.267234
O32	O	1.282543	0.662465	0.075630
O33	O	0.743962	1.347974	-0.075518
O34	O	0.937083	1.347964	-0.075511
O35	O	1.070101	0.892421	0.169248
O36	O	1.183785	0.892417	0.056457
O37	O	1.070095	1.118010	-0.056337
O38	O	0.956411	1.118014	0.056453
C39	C	1.013252	0.703706	0.000050
C40	C	1.013252	0.601375	0.000048
C41	C	0.709347	1.005236	0.000045
C42	C	0.606204	1.005242	0.000041
C43	C	1.072592	0.553296	-0.058827
C44	C	1.072596	0.457137	-0.058817
C45	C	0.953912	0.457147	0.058946
C46	C	0.953915	0.553298	0.058942
C47	C	0.387833	1.147508	-0.070740
C48	C	0.495065	1.147605	-0.071138
C49	C	0.602879	0.934571	-0.051851
C50	C	0.495110	0.935474	-0.052370
C51	C	0.496478	0.932541	0.122804
C52	C	0.602447	0.935222	0.122611
C53	C	1.317159	1.005203	0.000067
C54	C	1.420302	1.005197	0.000071
C55	C	1.013245	1.005225	-0.301464
C56	C	1.013242	1.005226	-0.403797
C57	C	1.013253	1.306733	0.000062
C58	C	1.013254	1.409064	0.000063
C59	C	0.953899	1.122982	-0.510750
C60	C	0.953912	1.122975	-0.606899
C61	C	1.072614	0.887449	-0.489127
C62	C	1.072607	0.887456	-0.392980
C63	C	1.013261	1.005215	0.301575
C64	C	1.013263	1.005213	0.403908
C65	C	1.317158	0.703689	0.000061
C66	C	1.420301	0.601353	0.000063
C67	C	1.013260	0.703701	0.301570
C68	C	1.013262	0.601368	0.403901
C69	C	1.317166	0.703684	0.301581
C70	C	1.420311	0.601346	0.403916
C71	C	0.709340	1.306755	-0.301469
C72	C	0.606194	1.409093	-0.403804
C73	C	0.709347	1.306750	0.000050
C74	C	0.606205	1.409087	0.000049
C75	C	1.013246	1.306739	-0.301458
C76	C	1.013243	1.409071	-0.403789
C77	C	1.409415	0.553276	-0.058813
C78	C	1.506333	0.457128	-0.058815
C79	C	1.625018	0.457137	0.058944
C80	C	1.528102	0.553290	0.058939
C81	C	1.072608	0.553286	0.510856
C82	C	1.072597	0.457142	0.607003
C83	C	0.953894	0.457168	0.489226
C84	C	0.953899	0.553316	0.393081
C85	C	1.528111	0.553263	0.393120
C86	C	1.625024	0.457113	0.489278
C87	C	1.506322	0.457135	0.607024
C88	C	1.409412	0.553289	0.510867
H89	H	1.120918	0.417993	-0.106757
H90	H	0.905567	0.592469	0.305987
N91	N	0.889906	0.605172	0.122439
H92	H	0.944343	0.588435	0.181686
H93	H	0.852309	0.560115	0.159671
H94	H	1.712799	0.417991	0.106881
N95	N	1.136633	0.605114	0.522520
H96	H	1.174225	0.560062	0.604868
H97	H	1.082148	0.701638	0.485192
H98	H	0.905600	0.417992	0.106894
N99	N	1.293149	0.605116	-0.122317
H100	H	1.250283	0.701638	-0.181568
H101	H	1.250394	0.588286	-0.068237
N102	N	0.889878	1.249998	-0.522411
H103	H	0.852289	1.324594	-0.604759
H104	H	0.944365	1.255128	-0.485079
N105	N	1.293127	0.605165	0.522496
H106	H	1.284041	0.645063	0.564966
H107	H	1.284109	0.531758	0.564933
H108	H	1.536992	0.592390	0.306039
H109	H	0.905590	1.218864	-0.693983
N110	N	1.136640	0.760430	-0.477463
H111	H	1.127638	0.778291	-0.554600
H112	H	1.105482	0.709007	-0.434945
N113	N	1.136597	0.605144	-0.122335
H114	H	1.082167	0.701664	-0.181590
H115	H	1.174188	0.559998	-0.159557
H116	H	1.536974	0.592438	0.106883
H117	H	1.497460	0.417990	-0.106761
N118	N	0.889889	0.405319	0.477564
H119	H	0.852294	0.450372	0.395216
H120	H	0.830227	0.422052	0.514889
H121	H	0.493306	1.203334	-0.036601
N122	N	0.316363	1.221503	-0.024876
H123	H	0.304330	1.163499	0.042246
H124	H	0.240588	1.300085	-0.085048
N125	N	1.741294	0.405255	0.477636
H126	H	1.733488	0.450293	0.395292
H127	H	1.784092	0.308731	0.514972
N128	N	1.136625	0.760438	-0.277615
H129	H	1.105504	0.708949	-0.268600
H130	H	1.127599	0.778420	-0.218419
H131	H	0.332846	1.203091	-0.160730
H132	H	0.605012	0.983659	-0.141309
H133	H	1.120920	0.418000	0.694087
N134	N	1.494569	0.405300	0.722377
H135	H	1.572317	0.337087	0.781655
H136	H	1.451710	0.365486	0.731276
N137	N	0.430211	0.992858	0.180219
H138	H	0.402301	1.086969	0.136046
H139	H	0.480738	0.944677	0.258832
N140	N	0.491824	1.221521	-0.191061
H141	H	0.420654	1.254162	-0.243871
H142	H	0.560447	1.162152	-0.201056
N143	N	0.428401	1.002008	-0.171996
H144	H	0.476510	0.953287	-0.203121
H145	H	0.406143	1.094054	-0.219406
N146	N	0.530403	0.797177	0.011529
H147	H	0.615835	0.735898	0.039904
H148	H	0.497336	0.785882	-0.039996
H149	H	0.681148	0.829896	-0.002759
H150	H	0.681607	0.831360	0.179809
N151	N	0.601768	1.003463	0.173974
H152	H	0.603886	1.079417	0.118090
H153	H	0.670361	0.940715	0.244044
H154	H	0.523918	0.827708	0.175813
