data_functionalizedCrystal
_audit_creation_method	'MofGen! by Chris Wilmer'
_symmetry_space_group_name_H-M	'P1'
_symmetry_Int_Tables_number	1
_symmetry_cell_setting	triclinic
loop_
_symmetry_equiv_pos_as_xyz
  x,y,z
_cell_length_a	16.625546
_cell_length_b	19.805407
_cell_length_c	19.805407
_cell_angle_alpha	90.007450
_cell_angle_beta	90.013603
_cell_angle_gamma	90.019784
loop_
_atom_site_label
_atom_site_type_symbol
_atom_site_fract_x
_atom_site_fract_y
_atom_site_fract_z
Zn1	Zn	-0.321192	1.034685	0.382686
Zn2	Zn	-0.071192	1.284685	0.632686
Zn3	Zn	0.178808	1.534685	0.882686
Zn4	Zn	0.428808	1.784685	1.132686
Zn5	Zn	-0.455995	1.034628	0.269497
Zn6	Zn	-0.205995	1.284628	0.519497
Zn7	Zn	0.044005	1.534628	0.769497
Zn8	Zn	0.294005	1.784628	1.019497
Zn9	Zn	-0.321174	0.921520	0.269514
Zn10	Zn	-0.071174	1.171520	0.519514
Zn11	Zn	0.178826	1.421520	0.769514
Zn12	Zn	0.428826	1.671520	1.019514
Zn13	Zn	-0.455980	0.921471	0.382648
Zn14	Zn	-0.205980	1.171471	0.632648
Zn15	Zn	0.044020	1.421471	0.882648
Zn16	Zn	0.294020	1.671471	1.132648
O17	O	-0.388585	0.978076	0.326086
O18	O	-0.138585	1.228076	0.576086
O19	O	0.111415	1.478076	0.826086
O20	O	0.361415	1.728076	1.076086
O21	O	-0.339087	1.129394	0.367680
O22	O	-0.089087	1.379394	0.617680
O23	O	0.160913	1.629394	0.867680
O24	O	0.410913	1.879394	1.117680
O25	O	-0.438110	1.019621	0.174783
O26	O	-0.188110	1.269621	0.424783
O27	O	0.061890	1.519621	0.674783
O28	O	0.311890	1.769621	0.924783
O29	O	-0.208344	0.936576	0.284550
O30	O	0.041656	1.186576	0.534550
O31	O	0.291656	1.436576	0.784550
O32	O	0.541656	1.686576	1.034550
O33	O	-0.438127	1.129352	0.284521
O34	O	-0.188127	1.379352	0.534521
O35	O	0.061873	1.629352	0.784521
O36	O	0.311873	1.879352	1.034521
O37	O	-0.208357	1.019718	0.367697
O38	O	0.041643	1.269718	0.617697
O39	O	0.291643	1.519718	0.867697
O40	O	0.541643	1.769718	1.117697
O41	O	-0.339057	0.936521	0.174795
O42	O	-0.089057	1.186521	0.424795
O43	O	0.160943	1.436521	0.674795
O44	O	0.410943	1.686521	0.924795
O45	O	-0.339042	0.826797	0.284513
O46	O	-0.089042	1.076797	0.534513
O47	O	0.160958	1.326797	0.784513
O48	O	0.410958	1.576797	1.034513
O49	O	-0.438101	0.936492	0.477369
O50	O	-0.188101	1.186492	0.727369
O51	O	0.061899	1.436492	0.977369
O52	O	0.311899	1.686492	1.227369
O53	O	-0.438083	0.826761	0.367631
O54	O	-0.188083	1.076761	0.617631
O55	O	0.061917	1.326761	0.867631
O56	O	0.311917	1.576761	1.117631
O57	O	-0.339072	1.019670	0.477398
O58	O	-0.089072	1.269670	0.727398
O59	O	0.160928	1.519670	0.977398
O60	O	0.410928	1.769670	1.227398
O61	O	-0.568825	1.019573	0.284484
O62	O	-0.318825	1.269573	0.534484
O63	O	-0.068825	1.519573	0.784484
O64	O	0.181175	1.769573	1.034484
O65	O	-0.568814	0.936437	0.367615
O66	O	-0.318814	1.186437	0.617615
O67	O	-0.068814	1.436437	0.867615
O68	O	0.181186	1.686437	1.117615
C69	C	-0.388560	0.802220	0.326070
C70	C	-0.138560	1.052220	0.576070
C71	C	0.111440	1.302220	0.826070
C72	C	0.361440	1.552220	1.076070
C73	C	-0.388568	0.726988	0.326079
C74	C	-0.138568	0.976988	0.576079
C75	C	0.111432	1.226988	0.826079
C76	C	0.361432	1.476988	1.076079
C77	C	-0.337090	0.691666	0.369446
C78	C	-0.087090	0.941666	0.619446
C79	C	0.162910	1.191666	0.869446
C80	C	0.412910	1.441666	1.119446
C81	C	-0.337094	0.620978	0.369448
C82	C	-0.087094	0.870978	0.619448
C83	C	0.162906	1.120978	0.869448
C84	C	0.412906	1.370978	1.119448
C85	C	-0.388582	0.585612	0.326087
C86	C	-0.138582	0.835612	0.576087
C87	C	0.111418	1.085612	0.826087
C88	C	0.361418	1.335612	1.076087
C89	C	-0.440063	0.620939	0.282715
C90	C	-0.190063	0.870939	0.532715
C91	C	0.059937	1.120939	0.782715
C92	C	0.309937	1.370939	1.032715
C93	C	-0.440054	0.691626	0.282710
C94	C	-0.190054	0.941626	0.532710
C95	C	0.059946	1.191626	0.782710
C96	C	0.309946	1.441626	1.032710
C97	C	-0.440099	0.335866	0.282736
C98	C	-0.190099	0.585866	0.532736
C99	C	0.059901	0.835866	0.782736
C100	C	0.309901	1.085866	1.032736
C101	C	-0.440105	0.265174	0.282746
C102	C	-0.190105	0.515174	0.532746
C103	C	0.059895	0.765174	0.782746
C104	C	0.309895	1.015174	1.032746
C105	C	-0.337139	0.265217	0.369475
C106	C	-0.087139	0.515217	0.619475
C107	C	0.162861	0.765217	0.869475
C108	C	0.412861	1.015217	1.119475
C109	C	-0.337130	0.335905	0.369469
C110	C	-0.087130	0.585905	0.619469
C111	C	0.162870	0.835905	0.869469
C112	C	0.412870	1.085905	1.119469
C113	C	-0.388608	0.371225	0.326095
C114	C	-0.138608	0.621225	0.576095
C115	C	0.111392	0.871225	0.826095
C116	C	0.361392	1.121225	1.076095
C117	C	-0.388602	0.447874	0.326092
C118	C	-0.138602	0.697874	0.576092
C119	C	0.111398	0.947874	0.826092
C120	C	0.361398	1.197874	1.076092
C121	C	-0.388593	0.508965	0.326093
C122	C	-0.138593	0.758965	0.576093
C123	C	0.111407	1.008965	0.826093
C124	C	0.361407	1.258965	1.076093
C125	C	-0.598076	0.978012	0.326058
C126	C	-0.348076	1.228012	0.576058
C127	C	-0.098076	1.478012	0.826058
C128	C	0.151924	1.728012	1.076058
C129	C	-0.687697	0.978047	0.326068
C130	C	-0.437697	1.228047	0.576068
C131	C	-0.187697	1.478047	0.826068
C132	C	0.062303	1.728047	1.076068
C133	C	-1.015873	0.978165	0.326139
C134	C	-0.765873	1.228165	0.576139
C135	C	-0.515873	1.478165	0.826139
C136	C	-0.265873	1.728165	1.076139
C137	C	-0.924564	0.978130	0.326121
C138	C	-0.674564	1.228130	0.576121
C139	C	-0.424564	1.478130	0.826121
C140	C	-0.174564	1.728130	1.076121
C141	C	-0.851788	0.978105	0.326103
C142	C	-0.601788	1.228105	0.576103
C143	C	-0.351788	1.478105	0.826103
C144	C	-0.101788	1.728105	1.076103
C145	C	-0.760473	0.978071	0.326086
C146	C	-0.510473	1.228071	0.576086
C147	C	-0.260473	1.478071	0.826086
C148	C	-0.010473	1.728071	1.076086
C149	C	-0.178276	0.978159	0.326130
C150	C	0.071724	1.228159	0.576130
C151	C	0.321724	1.478159	0.826130
C152	C	0.571724	1.728159	1.076130
C153	C	-0.088655	0.978194	0.326148
C154	C	0.161345	1.228194	0.576148
C155	C	0.411345	1.478194	0.826148
C156	C	0.661345	1.728194	1.076148
C157	C	-0.388587	0.978082	0.502629
C158	C	-0.138587	1.228082	0.752629
C159	C	0.111413	1.478082	1.002629
C160	C	0.361413	1.728082	1.252629
C161	C	-0.388587	0.978085	0.577861
C162	C	-0.138587	1.228085	0.827861
C163	C	0.111413	1.478085	1.077861
C164	C	0.361413	1.728085	1.327861
C165	C	-0.388611	1.154619	0.326103
C166	C	-0.138611	1.404619	0.576103
C167	C	0.111389	1.654619	0.826103
C168	C	0.361389	1.904619	1.076103
C169	C	-0.388622	1.229851	0.326110
C170	C	-0.138622	1.479851	0.576110
C171	C	0.111378	1.729851	0.826110
C172	C	0.361378	1.979851	1.076110
C173	C	-0.337031	1.021390	0.613221
C174	C	-0.087031	1.271390	0.863221
C175	C	0.162969	1.521390	1.113221
C176	C	0.412969	1.771390	1.363221
C177	C	-0.337029	1.021384	0.683909
C178	C	-0.087029	1.271384	0.933909
C179	C	0.162971	1.521384	1.183909
C180	C	0.412971	1.771384	1.433909
C181	C	-0.388587	0.978076	0.719237
C182	C	-0.138587	1.228076	0.969237
C183	C	0.111413	1.478076	1.219237
C184	C	0.361413	1.728076	1.469237
C185	C	-0.440145	0.934766	0.683872
C186	C	-0.190145	1.184766	0.933872
C187	C	0.059855	1.434766	1.183872
C188	C	0.309855	1.684766	1.433872
C189	C	-0.440143	0.934769	0.613184
C190	C	-0.190143	1.184769	0.863184
C191	C	0.059857	1.434769	1.113184
C192	C	0.309857	1.684769	1.363184
C193	C	-0.440155	0.934753	0.968945
C194	C	-0.190155	1.184753	1.218945
C195	C	0.059845	1.434753	1.468945
C196	C	0.309845	1.684753	1.718945
C197	C	-0.440155	0.934754	1.039637
C198	C	-0.190155	1.184754	1.289637
C199	C	0.059845	1.434754	1.539637
C200	C	0.309845	1.684754	1.789637
C201	C	-0.337041	1.021368	1.039670
C202	C	-0.087041	1.271368	1.289670
C203	C	0.162959	1.521368	1.539670
C204	C	0.412959	1.771368	1.789670
C205	C	-0.337038	1.021371	0.968983
C206	C	-0.087038	1.271371	1.218983
C207	C	0.162962	1.521371	1.468983
C208	C	0.412962	1.771371	1.718983
C209	C	-0.388593	0.978059	0.933624
C210	C	-0.138593	1.228059	1.183624
C211	C	0.111407	1.478059	1.433624
C212	C	0.361407	1.728059	1.683624
C213	C	-0.388594	0.978064	0.856976
C214	C	-0.138594	1.228064	1.106976
C215	C	0.111406	1.478064	1.356976
C216	C	0.361406	1.728064	1.606976
C217	C	-0.388591	0.978073	0.795884
C218	C	-0.138591	1.228073	1.045884
C219	C	0.111409	1.478073	1.295884
C220	C	0.361409	1.728073	1.545884
C221	C	-0.388600	0.978064	1.150230
C222	C	-0.138600	1.228064	1.400230
C223	C	0.111400	1.478064	1.650230
C224	C	0.361400	1.728064	1.900230
C225	C	-0.388594	0.978057	1.074998
C226	C	-0.138594	1.228057	1.324998
C227	C	0.111406	1.478057	1.574998
C228	C	0.361406	1.728057	1.824998
H229	H	-0.295206	0.364696	0.404781
H230	H	-0.045206	0.614696	0.654781
H231	H	0.204794	0.864696	0.904781
H232	H	0.454794	1.114696	1.154781
Br233	Br	-0.510114	0.875985	0.731815
Br234	Br	-0.260114	1.125985	0.981815
Br235	Br	-0.010114	1.375985	1.231815
Br236	Br	0.239886	1.625985	1.481815
Br237	Br	-0.267228	0.573043	0.428307
Br238	Br	-0.017228	0.823043	0.678307
Br239	Br	0.232772	1.073043	0.928307
Br240	Br	0.482772	1.323043	1.178307
H241	H	-0.295221	0.236451	0.404789
H242	H	-0.045221	0.486451	0.654789
H243	H	0.204779	0.736451	0.904789
H244	H	0.454779	0.986451	1.154789
H245	H	-0.482035	0.236381	0.247434
H246	H	-0.232035	0.486381	0.497434
H247	H	0.017965	0.736381	0.747434
H248	H	0.267965	0.986381	0.997434
Br249	Br	-0.510133	0.875976	1.087581
Br250	Br	-0.260133	1.125976	1.337581
Br251	Br	-0.010133	1.375976	1.587581
Br252	Br	0.239867	1.625976	1.837581
H253	H	-0.481972	0.720384	0.247396
H254	H	-0.231972	0.970384	0.497396
H255	H	0.018028	1.220384	0.747396
H256	H	0.268028	1.470384	0.997396
Br257	Br	-0.510110	0.875991	0.565195
Br258	Br	-0.260110	1.125991	0.815195
Br259	Br	-0.010110	1.375991	1.065195
Br260	Br	0.239890	1.625991	1.315195
H261	H	-0.295049	1.056659	0.584463
H262	H	-0.045049	1.306659	0.834463
H263	H	0.204951	1.556659	1.084463
H264	H	0.454951	1.806659	1.334463
Br265	Br	-0.509933	0.572944	0.223861
Br266	Br	-0.259933	0.822944	0.473861
Br267	Br	-0.009933	1.072944	0.723861
Br268	Br	0.240067	1.322944	0.973861
Br269	Br	-0.267070	1.080149	1.087660
Br270	Br	-0.017070	1.330149	1.337660
Br271	Br	0.232930	1.580149	1.587660
Br272	Br	0.482930	1.830149	1.837660
Br273	Br	-0.267094	1.080190	0.731896
Br274	Br	-0.017094	1.330190	0.981896
Br275	Br	0.232906	1.580190	1.231896
Br276	Br	0.482906	1.830190	1.481896
Br277	Br	-0.267215	0.739655	0.428301
Br278	Br	-0.017215	0.989655	0.678301
Br279	Br	0.232785	1.239655	0.928301
Br280	Br	0.482785	1.489655	1.178301
Br281	Br	-0.509940	0.383792	0.223854
Br282	Br	-0.259940	0.633792	0.473854
Br283	Br	-0.009940	0.883792	0.723854
Br284	Br	0.240060	1.133792	0.973854
H285	H	-0.295057	1.056639	0.940223
H286	H	-0.045057	1.306639	1.190223
H287	H	0.204943	1.556639	1.440223
H288	H	0.454943	1.806639	1.690223
H289	H	-0.482146	0.899495	0.940164
H290	H	-0.232146	1.149495	1.190164
H291	H	0.017854	1.399495	1.440164
H292	H	0.267854	1.649495	1.690164
