data_functionalizedCrystal
_audit_creation_method	'MofGen! by Chris Wilmer'
_symmetry_space_group_name_H-M	'P1'
_symmetry_Int_Tables_number	1
_symmetry_cell_setting	triclinic
loop_
_symmetry_equiv_pos_as_xyz
  x,y,z
_cell_length_a	17.077404
_cell_length_b	18.050589
_cell_length_c	17.077396
_cell_angle_alpha	89.975358
_cell_angle_beta	89.980499
_cell_angle_gamma	90.028446
loop_
_atom_site_label
_atom_site_type_symbol
_atom_site_fract_x
_atom_site_fract_y
_atom_site_fract_z
Zn1	Zn	1.200026	-0.295655	-0.443864
Zn2	Zn	1.199920	-0.419852	-0.312606
Zn3	Zn	1.068757	-0.295681	-0.312612
Zn4	Zn	1.068713	-0.419808	-0.443830
O5	O	1.134354	-0.357749	-0.378228
O6	O	1.309858	-0.312138	-0.426464
O7	O	1.182496	-0.403410	-0.202760
O8	O	1.086233	-0.191753	-0.330039
O9	O	1.309781	-0.403385	-0.330030
O10	O	1.182675	-0.191734	-0.426469
O11	O	1.086131	-0.312182	-0.202764
O12	O	0.958905	-0.312139	-0.330006
O13	O	1.086157	-0.403310	-0.553681
O14	O	0.958872	-0.403335	-0.426412
O15	O	1.182632	-0.312095	-0.553706
O16	O	1.182453	-0.523771	-0.329997
O17	O	1.086056	-0.523739	-0.426407
C18	C	0.930406	-0.357736	-0.378206
C19	C	0.843156	-0.357748	-0.378216
C20	C	0.802170	-0.405305	-0.428333
C21	C	0.720189	-0.405307	-0.428346
C22	C	0.679197	-0.357754	-0.378236
C23	C	0.720189	-0.310192	-0.328116
C24	C	0.802168	-0.310187	-0.328108
C25	C	0.549319	-0.310206	-0.328135
C26	C	0.467335	-0.310212	-0.328142
C27	C	0.467340	-0.405326	-0.428373
C28	C	0.549319	-0.405321	-0.428365
C29	C	0.590306	-0.357760	-0.378244
C30	C	1.134259	-0.550701	-0.378215
C31	C	1.134291	-0.633247	-0.378236
C32	C	1.081921	-0.832707	-0.430645
C33	C	1.062786	-0.882149	-0.359016
C34	C	1.134368	-0.784377	-0.378246
C35	C	1.153541	-0.882017	-0.449883
C36	C	1.134441	-0.930362	-0.378262
C37	C	1.115195	-0.832732	-0.306579
C38	C	1.205984	-0.832596	-0.397495
C39	C	1.186876	-0.882016	-0.325816
C40	C	1.134324	-0.700279	-0.378238
C41	C	1.134485	-1.014459	-0.378262
C42	C	1.339098	-0.357763	-0.378250
C43	C	1.426348	-0.357769	-0.378260
C44	C	1.134402	-0.357694	-0.582972
C45	C	1.134422	-0.357671	-0.670222
C46	C	1.134471	-0.164043	-0.378258
C47	C	1.134520	-0.081498	-0.378271
C48	C	1.184658	-0.310172	-0.711226
C49	C	1.184667	-0.310147	-0.793207
C50	C	1.134444	-0.357626	-0.834182
C51	C	1.084202	-0.405128	-0.793172
C52	C	1.084190	-0.405148	-0.711193
C53	C	1.084234	-0.405083	-0.964042
C54	C	1.084248	-0.405064	-1.046026
C55	C	1.184712	-0.310082	-1.046056
C56	C	1.184699	-0.310102	-0.964077
C57	C	1.134458	-0.357605	-0.923073
C58	C	1.134352	-0.357750	-0.174280
C59	C	1.134484	-0.357564	-0.087031
H60	H	0.433961	-0.271482	-0.287347
C61	C	1.175444	-0.911227	-0.531720
H62	H	1.221787	-0.940134	-0.528217
H63	H	1.184099	-0.870612	-0.566044
H64	H	1.133964	-0.940957	-0.551384
C65	C	0.981018	-0.911558	-0.337021
H66	H	0.984623	-0.940527	-0.290704
H67	H	0.961338	-0.941253	-0.378501
H68	H	0.946648	-0.871027	-0.328277
H69	H	0.433965	-0.444050	-0.469186
C70	C	1.028996	-0.457359	-0.918938
H71	H	0.999100	-0.485646	-0.955081
H72	H	0.994797	-0.428981	-0.886943
H73	H	1.059030	-0.489722	-0.886973
H74	H	1.225558	-0.271511	-0.677871
C75	C	0.847258	-0.457617	-0.483449
H76	H	0.901953	-0.450811	-0.476261
H77	H	0.833853	-0.446817	-0.536213
H78	H	0.833791	-0.507503	-0.471862
C79	C	1.028995	-0.457279	-1.091101
H80	H	1.036205	-0.450466	-1.145797
H81	H	0.976260	-0.446401	-1.077660
H82	H	1.040445	-0.507187	-1.077663
C83	C	1.093224	-0.803613	-0.224725
H84	H	1.093303	-0.750983	-0.225226
H85	H	1.130268	-0.820889	-0.187477
H86	H	1.042530	-0.820992	-0.210981
H87	H	1.225600	-0.271445	-0.930718
H88	H	1.043274	-0.443819	-0.677808
C89	C	0.675107	-0.457665	-0.483428
H90	H	0.711262	-0.486004	-0.513249
H91	H	0.643132	-0.429343	-0.517703
H92	H	0.643123	-0.489975	-0.453296
C93	C	0.594403	-0.257887	-0.273006
H94	H	0.558250	-0.229571	-0.243158
H95	H	0.626411	-0.225564	-0.303089
H96	H	0.626355	-0.286256	-0.238746
H97	H	1.231259	-0.903530	-0.281460
C98	C	1.239985	-0.257838	-1.091157
H99	H	1.232798	-0.264622	-1.145849
H100	H	1.292713	-0.268727	-1.077725
H101	H	1.228534	-0.207936	-1.077732
C102	C	0.847254	-0.257873	-0.272980
H103	H	0.811100	-0.229556	-0.243133
H104	H	0.879260	-0.225551	-0.303066
H105	H	0.879207	-0.286240	-0.238719
H106	H	1.266499	-0.810816	-0.413795
H107	H	1.225577	-0.271470	-0.826589
C108	C	1.021926	-0.803452	-0.490424
H109	H	1.048087	-0.774451	-0.528807
H110	H	0.984148	-0.773817	-0.464259
H111	H	0.996537	-0.844046	-0.515095
H112	H	0.582693	-0.444047	-0.469164
H113	H	0.686807	-0.271471	-0.287319
H114	H	1.043307	-0.443783	-0.826540
