data_functionalizedCrystal
_audit_creation_method	'MofGen! by Chris Wilmer'
_symmetry_space_group_name_H-M	'P1'
_symmetry_Int_Tables_number	1
_symmetry_cell_setting	triclinic
loop_
_symmetry_equiv_pos_as_xyz
  x,y,z
_cell_length_a	6.394989
_cell_length_b	10.723024
_cell_length_c	9.198806
_cell_angle_alpha	90.003648
_cell_angle_beta	90.000201
_cell_angle_gamma	85.482790
loop_
_atom_site_label
_atom_site_type_symbol
_atom_site_fract_x
_atom_site_fract_y
_atom_site_fract_z
O1	O	-0.293022	-1.660298	-0.120873
O2	O	-0.321070	-1.297443	-0.120877
O3	O	-0.003055	-1.484021	-0.120876
O4	O	-0.611036	-1.473720	-0.120874
O5	O	-0.003054	-1.484006	0.120909
O6	O	-0.321069	-1.297428	0.120908
O7	O	-0.293021	-1.660282	0.120912
Cu8	Cu	-0.307045	-1.478854	0.142987
Cu9	Cu	-0.307046	-1.478872	-0.142952
O10	O	-0.611035	-1.473705	0.120911
C11	C	-0.319028	-1.250914	0.000015
C12	C	-0.312921	-1.112295	0.000013
C13	C	-0.295062	-1.706811	0.000017
C14	C	-0.301169	-1.845430	0.000010
N15	N	-0.307043	-1.478850	0.344101
C16	C	0.074796	-1.481977	0.000011
C17	C	0.311120	-1.475752	0.000010
N18	N	-0.307031	-1.478885	-0.344066
C19	C	-0.490865	-1.039201	0.000013
C20	C	-0.484558	-0.895931	0.000011
C21	C	-0.172929	-1.557183	0.416299
C22	C	-0.172922	-1.557202	0.583711
H23	H	-0.647879	-1.082689	0.000022
H24	H	-0.636892	-0.833115	0.000005
O25	O	-0.119556	-0.920480	-0.000185
C26	C	-0.111635	-0.996512	-0.125428
H27	H	-0.277595	-1.005581	-0.167176
H28	H	-0.015501	-0.952262	-0.213113
C29	C	0.195174	-1.115951	-0.036116
C30	C	-0.008662	-1.127098	-0.087385
H31	H	0.258701	-1.196501	-0.012653
H32	H	0.189844	-1.064724	0.048260
H33	H	0.275259	-1.079071	-0.109195
H34	H	-0.088750	-1.163963	-0.014299
H35	H	-0.003343	-1.178334	-0.171748
O36	O	-0.035699	-1.637049	0.342226
C37	C	0.171357	-1.613253	0.379300
H38	H	0.173556	-1.513336	0.421281
H39	H	0.232116	-1.681485	0.467490
C40	C	0.309788	-1.752779	0.192396
C41	C	0.312491	-1.630056	0.243946
H42	H	0.396850	-1.763149	0.108906
H43	H	0.170291	-1.768815	0.167421
H44	H	0.360415	-1.809625	0.265900
H45	H	0.261840	-1.573213	0.170449
H46	H	0.451983	-1.614010	0.268905
O47	O	-0.444116	-1.399044	0.581727
C48	C	-0.573602	-1.468201	0.493700
H49	H	-0.491422	-1.564456	0.471024
H50	H	-0.728132	-1.479323	0.552274
C51	C	-0.718247	-1.280471	0.376904
C52	C	-0.617304	-1.398690	0.349043
H53	H	-0.745214	-1.237592	0.287675
H54	H	-0.631016	-1.233878	0.436213
H55	H	-0.847010	-1.289757	0.425720
H56	H	-0.488531	-1.389403	0.300245
H57	H	-0.704514	-1.445280	0.289722
H58	H	-0.058109	-1.624270	0.645797
H59	H	-0.421850	-1.411796	0.406229
H60	H	-0.155907	-1.068806	-0.000025
