data_functionalizedCrystal
_audit_creation_method	'MofGen! by Chris Wilmer'
_symmetry_space_group_name_H-M	'P1'
_symmetry_Int_Tables_number	1
_symmetry_cell_setting	triclinic
loop_
_symmetry_equiv_pos_as_xyz
  x,y,z
_cell_length_a	18.050590
_cell_length_b	21.295417
_cell_length_c	18.050582
_cell_angle_alpha	89.974292
_cell_angle_beta	90.000767
_cell_angle_gamma	90.018869
loop_
_atom_site_label
_atom_site_type_symbol
_atom_site_fract_x
_atom_site_fract_y
_atom_site_fract_z
Zn1	Zn	1.135285	-0.250831	-0.419585
Zn2	Zn	1.135192	-0.356092	-0.295389
Zn3	Zn	1.011104	-0.250821	-0.295444
Zn4	Zn	1.011049	-0.356047	-0.419571
O5	O	1.073157	-0.303448	-0.357497
O6	O	1.239197	-0.264818	-0.403093
O7	O	1.118716	-0.342143	-0.191471
O8	O	1.027639	-0.162733	-0.311940
O9	O	1.239129	-0.342153	-0.311847
O10	O	1.118874	-0.162741	-0.403147
O11	O	1.027549	-0.264801	-0.191512
O12	O	0.907172	-0.264756	-0.311926
O13	O	1.027545	-0.342075	-0.523498
O14	O	0.907132	-0.342065	-0.403122
O15	O	1.118820	-0.264773	-0.523508
O16	O	1.118663	-0.444176	-0.311833
O17	O	1.027455	-0.444142	-0.403069
C18	C	0.880205	-0.303405	-0.357529
C19	C	0.797660	-0.303402	-0.357560
C20	C	0.598208	-0.345562	-0.407035
C21	C	0.548817	-0.288165	-0.425314
C22	C	0.646529	-0.303437	-0.357524
C23	C	0.548839	-0.360867	-0.339245
C24	C	0.500544	-0.303476	-0.357491
C25	C	0.598225	-0.246009	-0.375838
C26	C	0.598251	-0.318749	-0.289738
C27	C	0.548882	-0.261313	-0.307991
C28	C	0.730627	-0.303415	-0.357545
C29	C	0.416448	-0.303491	-0.357469
C30	C	1.073063	-0.467000	-0.357460
C31	C	1.073090	-0.536968	-0.357468
C32	C	1.120569	-0.569781	-0.404994
C33	C	1.120595	-0.635523	-0.405012
C34	C	1.073150	-0.668450	-0.357492
C35	C	1.025662	-0.635629	-0.309963
C36	C	1.025632	-0.569888	-0.309952
N37	N	1.067546	-0.771706	-0.292499
N38	N	1.067579	-0.834158	-0.292512
C39	C	1.073237	-0.866525	-0.357525
N40	N	1.078875	-0.834081	-0.422526
N41	N	1.078846	-0.771624	-0.422512
C42	C	1.073178	-0.739735	-0.357499
C43	C	1.120747	-0.970624	-0.405074
C44	C	1.120768	-1.036367	-0.405094
C45	C	1.025839	-1.036472	-0.310039
C46	C	1.025814	-0.970729	-0.310026
C47	C	1.073272	-0.937809	-0.357542
C48	C	1.266863	-0.303492	-0.357465
C49	C	1.349409	-0.303510	-0.357452
C50	C	1.073187	-0.303420	-0.551203
C51	C	1.073199	-0.303408	-0.633749
C52	C	1.073273	-0.139258	-0.357551
C53	C	1.073322	-0.069290	-0.357574
C54	C	1.023601	-0.345387	-0.833194
C55	C	1.091356	-0.360785	-0.882566
C56	C	1.073236	-0.303360	-0.784879
C57	C	1.005518	-0.287944	-0.882589
C58	C	1.073265	-0.303315	-0.930864
C59	C	1.141026	-0.318788	-0.833164
C60	C	1.055142	-0.245921	-0.833183
C61	C	1.122944	-0.261297	-0.882532
C62	C	1.073218	-0.303388	-0.700781
C63	C	1.073291	-0.303287	-1.014961
C64	C	1.073171	-0.303430	-0.164545
C65	C	1.073303	-0.303265	-0.082000
H66	H	0.527142	-0.409418	-0.323800
C67	C	0.973406	-0.533789	-0.257667
C68	C	0.921213	-0.570001	-0.205396
C69	C	0.868987	-0.533901	-0.153110
C70	C	0.868956	-0.461588	-0.153093
C71	C	0.921152	-0.425372	-0.205365
C72	C	0.973377	-0.461472	-0.257652
H73	H	0.921234	-0.623535	-0.205407
H74	H	0.830349	-0.560711	-0.114414
H75	H	0.830296	-0.434865	-0.114387
H76	H	0.921130	-0.371838	-0.205355
H77	H	1.012015	-0.434662	-0.296347
C78	C	0.627398	-0.180398	-0.396796
C79	C	0.676737	-0.143782	-0.342233
C80	C	0.705909	-0.078172	-0.363190
C81	C	0.685742	-0.049177	-0.438710
C82	C	0.636400	-0.085793	-0.493277
C83	C	0.607228	-0.151403	-0.472320
H84	H	0.691668	-0.165245	-0.286325
H85	H	0.742435	-0.051066	-0.322795
H86	H	0.707337	-0.000608	-0.454224
H87	H	0.621469	-0.064329	-0.549186
H88	H	0.570702	-0.178508	-0.512715
H89	H	0.527360	-0.225664	-0.266107
H90	H	1.039801	-0.197379	-0.811475
C91	C	1.172945	-0.934406	-0.457344
C92	C	1.225168	-0.970504	-0.509629
C93	C	1.277367	-0.934289	-0.561897
C94	C	1.277344	-0.861976	-0.561880
C95	C	1.225119	-0.825874	-0.509592
C96	C	1.172920	-0.862090	-0.457324
H97	H	1.225186	-1.024038	-0.509644
H98	H	1.316027	-0.961014	-0.600604
H99	H	1.315985	-0.835167	-0.600572
H100	H	1.225101	-0.772340	-0.509577
H101	H	1.134260	-0.835364	-0.418617
H102	H	1.106677	-0.409341	-0.904257
C103	C	1.172999	-1.072463	-0.457376
C104	C	1.257425	-1.063378	-0.451358
C105	C	1.309658	-1.099473	-0.503642
C106	C	1.277466	-1.144654	-0.561943
C107	C	1.193036	-1.153742	-0.567963
C108	C	1.140803	-1.117646	-0.515680
H109	H	1.281259	-1.029930	-0.408198
H110	H	1.372158	-1.092746	-0.499184
H111	H	1.316132	-1.171374	-0.600646
H112	H	1.169202	-1.187189	-0.611123
H113	H	1.078303	-1.124373	-0.520137
C114	C	0.519475	-0.270685	-0.502734
C115	C	0.470680	-0.211998	-0.512833
C116	C	0.441341	-0.194523	-0.590254
C117	C	0.460796	-0.235733	-0.657576
C118	C	0.509594	-0.294424	-0.647479
C119	C	0.538933	-0.311899	-0.570058
H120	H	0.456276	-0.181488	-0.462996
H121	H	0.405218	-0.151076	-0.597728
H122	H	0.439078	-0.222797	-0.714888
H123	H	0.523998	-0.324934	-0.697316
H124	H	0.575056	-0.355346	-0.562584
C125	C	0.973644	-1.072681	-0.257767
C126	C	0.979750	-1.063682	-0.173344
C127	C	0.927550	-1.099894	-0.121074
C128	C	0.869242	-1.145105	-0.153228
C129	C	0.863133	-1.154107	-0.237656
C130	C	0.915334	-1.117895	-0.289926
H131	H	1.022915	-1.030211	-0.149537
H132	H	0.932072	-1.093230	-0.058574
H133	H	0.830600	-1.171912	-0.114535
H134	H	0.819968	-1.187577	-0.261463
H135	H	0.910811	-1.124558	-0.352425
C136	C	0.928139	-0.270348	-0.911918
C137	C	0.893486	-0.206631	-0.891341
C138	C	0.816106	-0.189040	-0.920667
C139	C	0.773379	-0.235167	-0.970569
C140	C	0.808032	-0.298889	-0.991149
C141	C	0.885412	-0.316479	-0.961823
H142	H	0.925115	-0.172481	-0.854397
H143	H	0.790454	-0.141869	-0.905432
H144	H	0.716098	-0.222146	-0.992278
H145	H	0.776403	-0.333039	-1.028092
H146	H	0.911064	-0.363651	-0.977058
H147	H	1.198323	-0.331863	-0.811545
H148	H	0.987155	-0.944011	-0.271323
H149	H	0.981666	-0.380974	-0.811530
H150	H	1.159210	-0.542979	-0.443686
C151	C	1.172828	-0.671630	-0.457288
C152	C	1.257253	-0.662547	-0.451270
C153	C	1.309486	-0.698652	-0.503544
C154	C	1.277293	-0.743841	-0.561837
C155	C	1.192863	-0.752926	-0.567857
C156	C	1.140631	-0.716821	-0.515583
H157	H	1.281088	-0.629094	-0.408116
H158	H	1.371986	-0.691927	-0.499087
H159	H	1.315958	-0.770569	-0.600533
H160	H	1.169028	-0.786380	-0.611011
H161	H	1.078130	-0.723547	-0.520040
H162	H	1.164979	-0.225737	-0.904059
C163	C	0.627615	-0.336251	-0.212337
C164	C	0.572934	-0.351146	-0.149243
C165	C	0.602300	-0.368656	-0.071843
C166	C	0.686346	-0.371271	-0.057537
C167	C	0.741033	-0.356376	-0.120633
C168	C	0.711667	-0.338866	-0.198033
H169	H	0.510713	-0.349210	-0.159832
H170	H	0.561817	-0.379683	-0.025136
H171	H	0.708085	-0.384233	-0.000241
H172	H	0.803254	-0.358311	-0.110044
H173	H	0.752150	-0.327839	-0.244741
C174	C	0.627476	-0.393606	-0.463656
C175	C	0.606884	-0.463489	-0.456012
C176	C	0.636153	-0.511529	-0.512634
C177	C	0.686013	-0.489684	-0.576901
C178	C	0.706607	-0.419797	-0.584548
C179	C	0.677338	-0.371758	-0.527926
H180	H	0.569973	-0.479663	-0.408435
H181	H	0.620907	-0.563264	-0.506972
H182	H	0.707679	-0.525246	-0.618816
H183	H	0.743518	-0.403624	-0.632125
H184	H	0.692584	-0.320023	-0.533587
C185	C	0.973474	-0.671846	-0.257689
C186	C	1.005714	-0.717048	-0.199410
C187	C	0.953521	-0.753264	-0.147137
C188	C	0.869087	-0.744278	-0.153143
C189	C	0.836842	-0.699073	-0.211425
C190	C	0.889035	-0.662857	-0.263698
H191	H	1.068222	-0.723702	-0.194962
H192	H	0.977391	-0.786728	-0.103993
H193	H	0.830450	-0.771087	-0.114447
H194	H	0.774334	-0.692419	-0.215873
H195	H	0.865164	-0.629394	-0.306842
