data_functionalizedCrystal
_audit_creation_method	'MofGen! by Chris Wilmer'
_symmetry_space_group_name_H-M	'P1'
_symmetry_Int_Tables_number	1
_symmetry_cell_setting	triclinic
loop_
_symmetry_equiv_pos_as_xyz
  x,y,z
_cell_length_a	13.635800
_cell_length_b	23.752963
_cell_length_c	11.102300
_cell_angle_alpha	84.885332
_cell_angle_beta	108.605850
_cell_angle_gamma	79.933268
loop_
_atom_site_label
_atom_site_type_symbol
_atom_site_fract_x
_atom_site_fract_y
_atom_site_fract_z
V1	V	2.034384	-0.079162	0.397002
O2	O	2.036309	0.003804	0.388677
O3	O	2.001759	-0.156965	0.395025
O4	O	2.023104	-0.077944	0.569812
O5	O	2.014816	-0.075764	0.212681
V6	V	2.275616	-0.069238	0.374866
O7	O	2.166176	-0.100931	0.445559
O8	O	2.368923	-0.047470	0.326309
O9	O	2.196638	0.008565	0.376843
O10	O	2.332390	-0.152205	0.383191
O11	O	2.353882	-0.072637	0.559188
O12	O	2.175293	-0.070456	0.202057
V13	V	2.534384	-0.079162	0.397002
O14	O	2.536309	0.003804	0.388677
O15	O	2.501759	-0.156965	0.395025
O16	O	2.523104	-0.077944	0.569812
O17	O	2.514816	-0.075764	0.212681
V18	V	2.775616	-0.069238	0.374866
O19	O	2.666176	-0.100931	0.445559
O20	O	2.868923	-0.047470	0.326309
O21	O	2.696638	0.008565	0.376843
O22	O	2.832390	-0.152205	0.383191
O23	O	2.853882	-0.072637	0.559188
O24	O	2.675293	-0.070456	0.202057
C25	C	1.921792	-0.175932	0.388953
C26	C	1.935846	-0.239537	0.388488
C27	C	1.995190	-0.625779	0.269007
C28	C	2.008406	-0.685542	0.268553
O29	O	1.991567	-0.709504	0.169277
N30	N	2.042889	-0.723602	0.384790
C31	C	2.064167	-0.701897	0.501490
O32	O	2.094713	-0.739757	0.600317
C33	C	2.050958	-0.642135	0.501943
C34	C	2.016464	-0.604077	0.385697
C35	C	1.960699	-0.587722	0.152771
C36	C	1.947482	-0.527963	0.153225
C37	C	1.968756	-0.506261	0.269916
C38	C	2.003247	-0.544318	0.386152
C39	C	2.072244	-0.620431	0.618642
C40	C	2.059032	-0.560665	0.619086
C41	C	2.024538	-0.522607	0.502840
C42	C	2.011304	-0.462858	0.503297
N43	N	1.976821	-0.424798	0.387060
C44	C	1.955547	-0.446499	0.270369
C45	C	2.091907	-0.827400	0.500529
C46	C	2.105109	-0.887160	0.500076
C47	C	2.049348	-0.870801	0.267139
C48	C	2.036139	-0.811039	0.267592
C49	C	2.057424	-0.789339	0.384292
C50	C	1.927792	-0.321002	0.271333
C51	C	1.914572	-0.261239	0.271797
C52	C	1.970339	-0.277603	0.504734
C53	C	1.983552	-0.337361	0.504270
C54	C	1.962279	-0.359059	0.387559
O55	O	2.028127	-0.438854	0.602523
O56	O	1.925018	-0.408633	0.171560
C57	C	1.949018	-0.075132	0.611909
C58	C	1.980381	-0.074651	0.753186
C59	C	2.108276	0.027529	0.382912
C60	C	2.083841	0.091133	0.383385
C61	C	2.081049	-0.073270	0.159953
C62	C	2.039305	-0.073748	0.018674
C63	C	2.421792	-0.175932	0.388953
C64	C	2.435846	-0.239537	0.388488
C65	C	2.449018	-0.075132	0.611909
C66	C	2.480381	-0.074651	0.753186
C67	C	2.086349	-0.077283	0.826060
C68	C	2.115812	-0.076829	0.958804
C69	C	1.933328	-0.071114	0.945790
C70	C	1.903866	-0.071564	0.813047
C71	C	2.608276	0.027529	0.382912
C72	C	2.583841	0.091133	0.383385
C73	C	2.581049	-0.073270	0.159953
C74	C	2.539305	-0.073748	0.018674
C75	C	2.533676	-0.272324	0.394647
C76	C	2.546900	-0.332090	0.394230
C77	C	2.462291	-0.359066	0.387645
C78	C	2.364455	-0.326275	0.381489
C79	C	2.351234	-0.266511	0.381915
C80	C	2.658505	0.123920	0.377229
C81	C	2.635553	0.183685	0.377653
C82	C	2.537939	0.210661	0.384241
C83	C	2.463268	0.177871	0.390393
C84	C	2.486218	0.118107	0.389961
C85	C	2.586349	-0.077283	0.826060
C86	C	2.615812	-0.076829	0.958804
C87	C	2.433328	-0.071114	0.945790
C88	C	2.403866	-0.071564	0.813047
H89	H	1.910467	-0.338660	0.176295
C90	C	2.476846	-0.424805	0.387172
H91	H	2.547229	-0.440464	0.391773
H92	H	2.463983	-0.442481	0.459226
H93	H	2.428316	-0.432026	0.310205
H94	H	2.702098	-0.078972	1.018133
C95	C	2.232377	-0.079729	1.038962
H96	H	2.273723	-0.081636	0.984297
H97	H	2.237479	-0.046153	1.079091
H98	H	2.257850	-0.113197	1.102940
H99	H	2.383789	0.199844	0.395756
H100	H	2.100332	-0.651408	0.713302
C101	C	2.670507	-0.080674	0.760210
H102	H	2.637788	-0.080571	0.670717
H103	H	2.702633	-0.048254	0.772712
H104	H	2.723015	-0.115299	0.796567
H105	H	2.032027	-0.888481	0.172123
C106	C	1.909549	-0.486107	0.025354
H107	H	1.898784	-0.507599	-0.044197
H108	H	1.844878	-0.460592	0.016601
H109	H	1.961600	-0.464316	0.024760
H110	H	2.371036	-0.068602	0.994545
C111	C	2.717699	0.219746	0.370896
H112	H	2.690055	0.259204	0.372081
H113	H	2.780906	0.205917	0.442720
H114	H	2.732798	0.216368	0.293698
C115	C	2.654519	-0.368152	0.400999
H116	H	2.650290	-0.407611	0.399821
H117	H	2.671994	-0.354326	0.329177
H118	H	2.707666	-0.364771	0.478198
H119	H	2.737994	0.101963	0.371866
H120	H	2.148655	-0.079796	0.777326
C121	C	2.287295	-0.068671	0.732881
H122	H	2.245947	-0.066777	0.787544
H123	H	2.261819	-0.035208	0.668901
H124	H	2.282207	-0.102253	0.692757
H125	H	1.817569	-0.069417	0.753709
C126	C	1.876638	-0.219378	0.143923
H127	H	1.865875	-0.240866	0.074365
H128	H	1.811967	-0.193864	0.135172
H129	H	1.928690	-0.197587	0.143338
H130	H	2.295571	-0.348249	0.376127
H131	H	1.943375	-0.605383	0.057742
C132	C	1.998217	-0.769182	0.139725
H133	H	1.987450	-0.790672	0.070170
H134	H	1.933550	-0.743662	0.130969
H135	H	2.050277	-0.747396	0.139141
H136	H	2.271567	-0.239820	0.376893
H137	H	2.519265	0.259325	0.384592
H138	H	2.133180	-0.918142	0.594734
C139	C	1.849172	-0.067726	1.011644
H140	H	1.881896	-0.067842	1.101140
H141	H	1.796661	-0.033107	0.975294
H142	H	1.817053	-0.100152	0.999139
H143	H	2.425415	0.091416	0.394985
H144	H	2.602578	-0.250367	0.400002
H145	H	2.109238	-0.809736	0.595565
H146	H	2.076378	-0.543001	0.714119
C147	C	2.021487	-0.379226	0.632135
H148	H	2.032266	-0.357739	0.701696
H149	H	1.969453	-0.401024	0.632730
H150	H	2.086168	-0.404733	0.640875
H151	H	1.987653	-0.259922	0.599741
