data_functionalizedCrystal
_audit_creation_method	'MofGen! by Chris Wilmer'
_symmetry_space_group_name_H-M	'P1'
_symmetry_Int_Tables_number	1
_symmetry_cell_setting	triclinic
loop_
_symmetry_equiv_pos_as_xyz
  x,y,z
_cell_length_a	19.188930
_cell_length_b	14.519709
_cell_length_c	13.596369
_cell_angle_alpha	89.993066
_cell_angle_beta	89.980792
_cell_angle_gamma	83.412462
loop_
_atom_site_label
_atom_site_type_symbol
_atom_site_fract_x
_atom_site_fract_y
_atom_site_fract_z
O1	O	0.926555	0.115137	-0.082110
O2	O	0.723299	0.130636	-0.082043
O3	O	0.830316	-0.011385	-0.082069
O4	O	0.819538	0.257158	-0.082083
O5	O	0.830306	-0.011393	0.081514
O6	O	0.723289	0.130629	0.081540
O7	O	0.926545	0.115130	0.081473
Zn8	Zn	0.824915	0.122878	0.107479
Zn9	Zn	0.824929	0.122888	-0.108049
O10	O	0.819528	0.257151	0.081500
C11	C	0.829809	-0.045746	-0.000277
C12	C	0.828304	-0.148118	-0.000276
C13	C	0.697281	0.130131	-0.000242
C14	C	0.619771	0.128624	-0.000217
C15	C	0.822762	-0.522979	-0.000300
C16	C	0.824301	-0.418681	-0.000293
C17	C	0.825533	-0.335552	-0.000287
C18	C	0.827072	-0.231247	-0.000282
C19	C	0.575144	0.211957	-0.000236
C20	C	0.502315	0.210542	-0.000247
C21	C	0.474117	0.125788	-0.000258
C22	C	0.518754	0.042444	-0.000232
C23	C	0.591581	0.043861	-0.000212
N24	N	0.365910	0.061007	-0.055968
N25	N	0.296726	0.059666	-0.055990
C26	C	0.254693	0.121511	-0.000318
N27	N	0.284455	0.184762	0.055365
N28	N	0.353645	0.186106	0.055382
C29	C	0.395149	0.124241	-0.000280
C30	C	0.131096	0.203315	-0.000348
C31	C	0.058266	0.201896	-0.000352
C32	C	0.074706	0.033796	-0.000348
C33	C	0.147535	0.035217	-0.000333
C34	C	0.175725	0.119980	-0.000338
C35	C	0.952563	0.115635	-0.000329
C36	C	1.030073	0.117142	-0.000361
C37	C	0.820035	0.291511	-0.000294
C38	C	0.821541	0.393883	-0.000302
N39	N	0.824911	0.122871	0.254571
N40	N	0.824939	0.122888	-0.255140
C41	C	0.824928	0.122889	0.655862
C42	C	0.824921	0.122887	0.544210
C43	C	0.824920	0.122880	0.455220
C44	C	0.824912	0.122877	0.343561
H45	H	0.598091	0.280978	-0.000242
H46	H	0.465973	0.278404	-0.000261
H47	H	0.051748	-0.035213	-0.000417
O48	O	0.491448	-0.039944	-0.000378
C49	C	0.514264	-0.090714	-0.085103
H50	H	0.564816	-0.065786	-0.113331
H51	H	0.472161	-0.079858	-0.144442
C52	C	0.465685	-0.225130	-0.024692
C53	C	0.527777	-0.194518	-0.059357
H54	H	0.474018	-0.289162	-0.008814
H55	H	0.450311	-0.190925	0.032387
H56	H	0.430605	-0.216075	-0.074148
H57	H	0.562853	-0.203563	-0.009898
H58	H	0.543158	-0.228728	-0.116428
H59	H	0.627917	-0.024001	-0.000196
H60	H	0.154049	0.272334	-0.000337
O61	O	0.015012	0.282937	-0.000413
C62	C	0.055515	0.358048	-0.000389
H63	H	0.109849	0.334418	-0.031346
H64	H	0.060707	0.384044	0.078089
C65	C	-0.047385	0.465921	-0.026533
C66	C	0.019347	0.436901	-0.064563
H67	H	-0.069696	0.514564	-0.066115
H68	H	-0.074673	0.415318	-0.026546
H69	H	-0.043049	0.487578	0.038864
H70	H	0.015009	0.415234	-0.129954
H71	H	0.046633	0.487502	-0.064563
H72	H	0.183871	-0.032642	-0.000322
