data_functionalizedCrystal
_audit_creation_method	'MofGen! by Chris Wilmer'
_symmetry_space_group_name_H-M	'P1'
_symmetry_Int_Tables_number	1
_symmetry_cell_setting	triclinic
loop_
_symmetry_equiv_pos_as_xyz
  x,y,z
_cell_length_a	10.540539
_cell_length_b	10.540539
_cell_length_c	8.140239
_cell_angle_alpha	89.998610
_cell_angle_beta	89.999332
_cell_angle_gamma	84.525492
loop_
_atom_site_label
_atom_site_type_symbol
_atom_site_fract_x
_atom_site_fract_y
_atom_site_fract_z
O1	O	1.685884	0.178898	-0.136528
O2	O	1.316471	0.195754	-0.136547
O3	O	1.509606	0.002620	-0.136535
O4	O	1.492750	0.372033	-0.136540
O5	O	1.509595	0.002618	0.136692
O6	O	1.316460	0.195752	0.136680
O7	O	1.685873	0.178896	0.136700
Zn8	Zn	1.501165	0.187324	0.180070
Zn9	Zn	1.501179	0.187327	-0.179918
O10	O	1.492739	0.372031	0.136687
C11	C	1.269163	0.194489	0.000064
C12	C	1.128215	0.190707	0.000056
C13	C	0.944788	0.045790	0.000696
C14	C	1.091406	0.049624	0.000063
C15	C	1.066548	0.258604	-0.155965
C16	C	0.920004	0.253789	-0.156078
C17	C	0.919503	0.256656	0.154632
C18	C	1.066485	0.257956	0.156677
C19	C	1.508336	-0.044684	0.000076
C20	C	1.504554	-0.185632	0.000067
C21	C	1.359637	-0.369059	-0.000554
C22	C	1.363471	-0.222441	0.000061
C23	C	1.572444	-0.247291	0.156096
C24	C	1.567629	-0.393836	0.156228
C25	C	1.570510	-0.394351	-0.154483
C26	C	1.571810	-0.247369	-0.156545
C27	C	1.733182	0.180161	0.000085
C28	C	1.874130	0.183943	0.000082
C29	C	1.494008	0.419335	0.000073
C30	C	1.497790	0.560283	0.000071
N31	N	1.501165	0.187321	0.425753
N32	N	1.501190	0.187320	-0.425601
H33	H	1.109141	0.211440	-0.272078
N34	N	1.504650	-0.429198	0.302526
N35	N	1.392356	-0.385155	0.330206
H36	H	1.347872	-0.410122	0.433531
H37	H	1.669094	-0.441804	0.163311
N38	N	1.289741	-0.404932	-0.140936
N39	N	1.340923	-0.482998	-0.242162
H40	H	1.291561	-0.508338	-0.341316
N41	N	1.513255	-0.193888	0.301760
N42	N	1.464139	-0.264220	0.402437
H43	H	1.422329	-0.226508	0.505311
N44	N	1.700857	-0.217009	-0.168339
N45	N	1.789998	-0.304184	-0.168735
H46	H	1.881144	-0.282743	-0.177048
N47	N	1.698351	-0.453584	-0.155763
N48	N	1.735889	-0.528898	-0.043464
H49	H	1.826175	-0.570731	-0.044350
H50	H	0.914585	-0.009709	-0.110571
H51	H	1.134016	-0.003800	0.111906
H52	H	1.676051	-0.224937	0.161903
N53	N	1.513260	-0.433949	-0.302847
N54	N	1.506933	-0.549840	-0.330380
H55	H	1.466492	-0.577808	-0.435157
N56	N	1.509566	-0.196013	-0.301342
N57	N	1.416020	-0.114244	-0.289368
H58	H	1.372056	-0.077965	-0.391628
H59	H	1.309668	-0.180686	0.112090
H60	H	0.891798	0.203609	-0.272704
H61	H	0.916198	-0.009947	0.112588
H62	H	0.872035	0.355254	-0.163161
N63	N	1.143772	-0.017866	-0.140489
N64	N	1.072017	-0.067941	-0.238428
H65	H	1.108998	-0.115608	-0.337702
N66	N	1.096879	0.386986	0.168581
N67	N	1.009735	0.476158	0.169067
H68	H	1.031212	0.567285	0.177500
H69	H	1.304128	-0.399267	0.110705
H70	H	0.887952	0.210997	0.272895
H71	H	1.107443	0.208355	0.272101
N72	N	1.094591	0.388578	-0.163235
N73	N	1.160498	0.432722	-0.053246
H74	H	1.180305	0.524518	-0.058375
N75	N	0.860237	0.384483	0.155988
N76	N	0.790935	0.422855	0.273921
H77	H	0.749071	0.513128	0.274871
H78	H	1.310052	-0.179837	-0.111787
