data_functionalizedCrystal
_audit_creation_method	'MofGen! by Chris Wilmer'
_symmetry_space_group_name_H-M	'P1'
_symmetry_Int_Tables_number	1
_symmetry_cell_setting	triclinic
loop_
_symmetry_equiv_pos_as_xyz
  x,y,z
_cell_length_a	8.559648
_cell_length_b	8.559649
_cell_length_c	7.681208
_cell_angle_alpha	94.914834
_cell_angle_beta	85.077397
_cell_angle_gamma	69.778664
loop_
_atom_site_label
_atom_site_type_symbol
_atom_site_fract_x
_atom_site_fract_y
_atom_site_fract_z
O1	O	0.037790	-2.109654	0.146415
O2	O	-0.045990	-1.634171	0.146406
O3	O	0.233638	-1.913798	0.146455
O4	O	-0.241837	-1.830027	0.146366
O5	O	0.268136	-1.948235	-0.146410
O6	O	-0.011491	-1.668608	-0.146459
O7	O	0.072289	-2.144092	-0.146449
Zn8	Zn	0.035876	-1.911818	-0.192952
Zn9	Zn	-0.009577	-1.866445	0.192909
O10	O	-0.207339	-1.864465	-0.146498
C11	C	-0.035090	-1.591080	-0.000027
C12	C	-0.053989	-1.411381	-0.000028
C13	C	0.311194	-1.937364	0.000037
C14	C	0.490888	-1.956258	0.000082
C15	C	0.061388	-2.187182	-0.000013
C16	C	0.080286	-2.366879	-0.000000
C17	C	0.715099	-1.840892	-0.000028
C18	C	0.535386	-1.821980	0.000086
N19	N	-0.040585	-1.835482	0.456249
N20	N	0.066884	-1.942781	0.543707
H21	H	0.436011	-1.692563	0.000062
H22	H	-0.183415	-1.311995	-0.000042
H23	H	0.209702	-1.466254	0.000032
F24	F	0.620789	-2.125432	0.000084
F25	F	-0.183928	-1.692356	0.554562
H26	H	0.176546	-2.052297	0.468481
