data_functionalizedCrystal
_audit_creation_method	'MofGen! by Chris Wilmer'
_symmetry_space_group_name_H-M	'P1'
_symmetry_Int_Tables_number	1
_symmetry_cell_setting	triclinic
loop_
_symmetry_equiv_pos_as_xyz
  x,y,z
_cell_length_a	11.169417
_cell_length_b	12.827892
_cell_length_c	11.169409
_cell_angle_alpha	90.033086
_cell_angle_beta	90.019824
_cell_angle_gamma	90.016270
loop_
_atom_site_label
_atom_site_type_symbol
_atom_site_fract_x
_atom_site_fract_y
_atom_site_fract_z
Zn1	Zn	1.834920	-0.415924	0.678536
Zn2	Zn	1.834792	-0.590711	0.477851
Zn3	Zn	1.634206	-0.415988	0.477871
Zn4	Zn	1.634196	-0.590626	0.678496
O5	O	1.734528	-0.503312	0.578188
O6	O	2.002853	-0.439119	0.651924
O7	O	1.808134	-0.567596	0.309904
O8	O	1.660889	-0.269743	0.504515
O9	O	2.002759	-0.567534	0.504481
O10	O	1.808353	-0.269696	0.651943
O11	O	1.660765	-0.439227	0.309918
O12	O	1.466255	-0.439145	0.504475
O13	O	1.660872	-0.567389	0.846451
O14	O	1.466248	-0.567451	0.651874
O15	O	1.808343	-0.439036	0.846481
O16	O	1.808124	-0.736936	0.504441
O17	O	1.660747	-0.736874	0.651854
C18	C	1.422704	-0.503296	0.578173
C19	C	1.289304	-0.503315	0.578195
C20	C	1.734453	-0.774822	0.578167
C21	C	1.734531	-0.890975	0.578198
C22	C	1.807545	-0.942756	0.505335
C23	C	1.807626	-1.062807	0.505365
C24	C	2.047571	-0.503329	0.578205
C25	C	2.180971	-0.503336	0.578212
C26	C	1.734621	-0.503196	0.891231
C27	C	1.734660	-0.503147	1.024631
C28	C	1.734637	-0.230742	0.578236
C29	C	1.734683	-0.114589	0.578256
C30	C	1.734506	-0.503352	0.266364
C31	C	1.734699	-0.503108	0.132964
H32	H	1.869999	-0.898214	0.442935
H33	H	1.870133	-1.107337	0.442981
H34	H	1.672165	-1.070066	0.640637
C35	C	1.717988	-1.013754	0.739523
C36	C	1.650224	-0.951100	0.662447
H37	H	1.665936	-1.050874	0.791530
H38	H	1.770168	-0.971099	0.785507
H39	H	1.763803	-1.061791	0.693800
H40	H	1.604415	-0.903057	0.708170
H41	H	1.598023	-0.993759	0.616458
