data_functionalizedCrystal
_audit_creation_method	'MofGen! by Chris Wilmer'
_symmetry_space_group_name_H-M	'P1'
_symmetry_Int_Tables_number	1
_symmetry_cell_setting	triclinic
loop_
_symmetry_equiv_pos_as_xyz
  x,y,z
_cell_length_a	17.699077
_cell_length_b	17.699083
_cell_length_c	17.766277
_cell_angle_alpha	90.007260
_cell_angle_beta	90.008804
_cell_angle_gamma	83.281795
loop_
_atom_site_label
_atom_site_type_symbol
_atom_site_fract_x
_atom_site_fract_y
_atom_site_fract_z
O1	O	1.004084	0.095691	0.062586
O2	O	0.783705	0.108148	0.062590
O3	O	0.900121	-0.008270	0.062581
O4	O	0.887668	0.212109	0.062594
O5	O	0.900100	-0.008276	-0.062608
O6	O	0.783684	0.108142	-0.062599
O7	O	1.004063	0.095685	-0.062603
Cu8	Cu	0.893872	0.101913	-0.074032
Cu9	Cu	0.893896	0.101920	0.074018
O10	O	0.887648	0.212103	-0.062594
C11	C	0.755498	0.107700	-0.000004
C12	C	0.671479	0.106363	-0.000003
C13	C	0.632001	0.105730	-0.068244
C14	C	0.553058	0.104461	-0.068245
C15	C	0.513595	0.103832	-0.000004
C16	C	0.553079	0.104463	0.068242
C17	C	0.632021	0.105725	0.068243
C18	C	0.234716	0.099369	0.068244
C19	C	0.155768	0.098109	0.068238
C20	C	0.155753	0.098105	-0.068244
C21	C	0.234695	0.099368	-0.068244
C22	C	0.274173	0.099995	0.000002
C23	C	0.359772	0.101369	0.000002
C24	C	0.427997	0.102464	-0.000003
C25	C	0.899664	-0.036470	-0.000013
C26	C	0.898326	-0.120488	-0.000014
C27	C	0.966659	-0.169110	-0.000016
C28	C	0.965397	-0.248054	-0.000009
C29	C	0.895800	-0.278373	-0.000006
C30	C	0.827461	-0.229744	-0.000001
C31	C	0.828724	-0.150803	-0.000003
C32	C	0.822366	-0.548107	0.000005
C33	C	0.821108	-0.627055	0.000004
C34	C	0.959039	-0.645358	-0.000002
C35	C	0.960302	-0.566417	-0.000003
C36	C	0.891963	-0.517795	0.000005
C37	C	0.893333	-0.432196	-0.000000
C38	C	0.894430	-0.363971	-0.000005
C39	C	1.032271	0.096133	-0.000007
C40	C	1.116289	0.097470	-0.000004
C41	C	0.888104	0.240303	0.000002
C42	C	0.889443	0.324321	0.000007
N43	N	0.893861	0.101908	-0.178162
C44	C	0.945426	0.050383	-0.217553
C45	C	0.945431	0.050379	-0.296354
C46	C	0.893877	0.101914	-0.335762
C47	C	0.842301	0.153442	-0.296362
C48	C	0.842293	0.153439	-0.217562
C49	C	0.883833	0.170863	-0.460596
C50	C	0.883846	0.170867	-0.539395
C51	C	0.893897	0.101923	-0.578809
C52	C	0.903950	0.032972	-0.539414
C53	C	0.903942	0.032969	-0.460614
C54	C	0.893879	0.101922	-0.421208
C55	C	0.945470	0.050390	-0.703646
C56	C	0.945469	0.050386	-0.782449
C57	C	0.842343	0.153455	-0.782455
C58	C	0.842341	0.153453	-0.703653
C59	C	0.893908	0.101921	-0.664253
N60	N	0.893914	0.101919	0.178149
H61	H	0.664163	0.106242	0.123812
H62	H	0.520920	0.103933	-0.123814
H63	H	1.016974	-0.541735	-0.000010
H64	H	1.023333	-0.144431	-0.000024
O65	O	0.762275	-0.103676	-0.000034
C66	C	0.700576	-0.147362	-0.000011
H67	H	0.719888	-0.206320	-0.023716
H68	H	0.652697	-0.118153	-0.036351
H69	H	0.679250	-0.152939	0.060050
O70	O	0.117364	0.097390	0.134484
C71	C	0.080410	0.031128	0.138562
H72	H	0.071478	0.009097	0.079307
H73	H	0.022945	0.044978	0.167442
H74	H	0.116925	-0.014271	0.172234
O75	O	0.792230	0.203412	-0.820808
C76	C	0.745607	0.162937	-0.866392
H77	H	0.775864	0.103673	-0.878200
H78	H	0.733577	0.194545	-0.921802
H79	H	0.689681	0.157864	-0.836035
O80	O	1.025355	-0.692699	0.000032
C81	C	1.009323	-0.768877	0.000018
H82	H	0.949885	-0.771791	0.023724
H83	H	1.052897	-0.804718	0.036363
H84	H	1.012222	-0.791723	-0.060040
H85	H	0.770794	-0.254436	0.000006
O86	O	0.995593	0.000294	-0.334513
C87	C	1.041087	-0.045206	-0.282840
H88	H	1.041884	-0.014179	-0.226662
H89	H	1.101550	-0.056830	-0.305599
H90	H	1.016618	-0.101400	-0.274474
H91	H	0.123601	0.097591	-0.123813
H92	H	0.764431	-0.651737	0.000005
O93	O	0.913579	-0.033994	-0.577719
C94	C	0.849360	-0.040018	-0.623328
H95	H	0.798338	-0.002219	-0.599591
H96	H	0.836490	-0.101635	-0.624226
H97	H	0.861321	-0.021071	-0.683046
H98	H	0.266822	0.099884	-0.123813
H99	H	0.912126	-0.023173	-0.428542
O100	O	0.995582	0.000256	-0.665484
C101	C	1.041105	-0.045216	-0.717153
H102	H	1.010081	-0.046031	-0.773332
H103	H	1.052763	-0.105676	-0.694391
H104	H	1.097282	-0.020714	-0.725518
O105	O	0.792227	0.203584	-0.665501
C106	C	0.746710	0.249057	-0.717178
H107	H	0.777743	0.249874	-0.773342
H108	H	0.735048	0.309516	-0.694403
H109	H	0.690536	0.224553	-0.725577
O110	O	0.272937	0.100011	0.134602
C111	C	0.221177	0.099167	0.194830
H112	H	0.161725	0.122224	0.174822
H113	H	0.239117	0.136260	0.242565
H114	H	0.220834	0.038336	0.215804
H115	H	0.664125	0.106248	-0.123814
O116	O	1.031725	-0.295365	-0.000111
C117	C	1.035117	-0.341576	-0.064952
H118	H	0.975044	-0.345455	-0.086566
H119	H	1.063417	-0.400960	-0.050366
H120	H	1.069631	-0.315681	-0.110357
O121	O	0.755915	-0.500991	-0.000030
C122	C	0.694220	-0.544683	-0.000014
H123	H	0.713541	-0.603642	-0.023712
H124	H	0.646345	-0.515480	-0.036363
H125	H	0.672885	-0.550257	0.060044
O126	O	0.995304	0.000088	-0.179312
C127	C	0.954667	-0.046548	-0.133931
H128	H	0.895488	-0.016144	-0.122024
H129	H	0.986265	-0.058892	-0.078557
H130	H	0.949389	-0.102319	-0.164512
O131	O	0.514626	0.103882	0.134465
C132	C	0.436486	0.102615	0.119834
H133	H	0.422516	0.126393	0.061187
H134	H	0.401616	0.138869	0.163420
H135	H	0.422139	0.041561	0.123064
O136	O	0.874040	0.237909	-0.577543
C137	C	0.865175	0.298760	-0.525860
H138	H	0.844415	0.277849	-0.469699
H139	H	0.821801	0.345914	-0.548633
H140	H	0.922137	0.321723	-0.517458
O141	O	0.874180	0.237793	-0.422227
C142	C	0.938417	0.243815	-0.376644
H143	H	0.968753	0.184583	-0.364847
H144	H	0.919581	0.272562	-0.321228
H145	H	0.978861	0.279169	-0.406994
O146	O	0.792192	0.203399	-0.334723
C147	C	0.745573	0.162924	-0.380312
H148	H	0.775832	0.103661	-0.392119
H149	H	0.733548	0.194533	-0.435722
H150	H	0.689644	0.157850	-0.349960
O151	O	0.792175	0.203569	-0.179411
C152	C	0.746655	0.249041	-0.231086
H153	H	0.777684	0.249857	-0.287252
H154	H	0.734993	0.309500	-0.208312
H155	H	0.690480	0.224536	-0.239481
H156	H	0.987458	0.008424	-0.814521
