data_functionalizedCrystal
_audit_creation_method	'MofGen! by Chris Wilmer'
_symmetry_space_group_name_H-M	'P1'
_symmetry_Int_Tables_number	1
_symmetry_cell_setting	triclinic
loop_
_symmetry_equiv_pos_as_xyz
  x,y,z
_cell_length_a	6.817900
_cell_length_b	9.514063
_cell_length_c	14.858572
_cell_angle_alpha	90.778508
_cell_angle_beta	104.524003
_cell_angle_gamma	118.843314
loop_
_atom_site_label
_atom_site_type_symbol
_atom_site_fract_x
_atom_site_fract_y
_atom_site_fract_z
V1	V	-4.123447	-0.223219	-0.290698
O2	O	-4.021918	0.009687	-0.284409
O3	O	-4.158170	-0.441606	-0.289436
O4	O	-4.078952	-0.220242	-0.417150
O5	O	-4.101685	-0.213210	-0.155811
V6	V	-4.595798	-0.195307	-0.274476
O7	O	-4.409212	-0.284447	-0.326282
O8	O	-4.760231	-0.134079	-0.238892
O9	O	-4.337869	0.023080	-0.275737
O10	O	-4.814724	-0.428213	-0.280765
O11	O	-4.734957	-0.205316	-0.409363
O12	O	-4.417087	-0.198284	-0.148024
C13	C	-4.023266	-0.494829	-0.285038
C14	C	-4.132968	-0.673366	-0.284850
C15	C	-3.922213	-0.212456	-0.447948
C16	C	-3.967667	-0.211467	-0.551328
C17	C	-4.134030	-0.207852	-0.929884
C18	C	-4.087734	-0.208858	-0.824558
C19	C	-4.050851	-0.209661	-0.740609
C20	C	-4.004551	-0.210664	-0.635276
C21	C	-4.136118	0.076295	-0.280133
C22	C	-4.005654	0.254830	-0.280328
C23	C	-4.237169	-0.206076	-0.117221
C24	C	-4.170951	-0.207057	-0.013840
H25	H	-4.325886	-0.748475	-0.288565
H26	H	-3.812714	-0.670049	-0.276599
