data_functionalizedCrystal
_audit_creation_method	'MofGen! by Chris Wilmer'
_symmetry_space_group_name_H-M	'P1'
_symmetry_Int_Tables_number	1
_symmetry_cell_setting	triclinic
loop_
_symmetry_equiv_pos_as_xyz
  x,y,z
_cell_length_a	13.033293
_cell_length_b	18.050590
_cell_length_c	13.032268
_cell_angle_alpha	82.854456
_cell_angle_beta	90.920818
_cell_angle_gamma	97.187921
loop_
_atom_site_label
_atom_site_type_symbol
_atom_site_fract_x
_atom_site_fract_y
_atom_site_fract_z
Zn1	Zn	1.498459	-0.231049	0.781466
Zn2	Zn	1.831792	0.102284	1.114800
Zn3	Zn	2.165126	0.435618	1.448133
Zn4	Zn	1.520200	-0.337772	0.609486
Zn5	Zn	1.853534	-0.004439	0.942819
Zn6	Zn	2.186867	0.328894	1.276152
Zn7	Zn	1.348319	-0.227127	0.587642
Zn8	Zn	1.681653	0.106206	0.920975
Zn9	Zn	2.014986	0.439539	1.254309
Zn10	Zn	1.326451	-0.368731	0.759524
Zn11	Zn	1.659784	-0.035398	1.092857
Zn12	Zn	1.993117	0.297936	1.426190
O13	O	1.423357	-0.291170	0.684529
O14	O	1.756691	0.042163	1.017863
O15	O	2.090024	0.375497	1.351196
O16	O	1.645262	-0.233891	0.776977
O17	O	1.978595	0.099442	1.110311
O18	O	2.311929	0.432776	1.443644
O19	O	1.515651	-0.308497	0.462681
O20	O	1.848984	0.024836	0.796014
O21	O	2.182317	0.358169	1.129347
O22	O	1.368289	-0.123722	0.613395
O23	O	1.701622	0.209611	0.946728
O24	O	2.034956	0.542945	1.280061
O25	O	1.661235	-0.312300	0.650624
O26	O	1.994568	0.021033	0.983957
O27	O	2.327902	0.354366	1.317291
O28	O	1.478596	-0.126603	0.755796
O29	O	1.811929	0.206730	1.089130
O30	O	2.145263	0.540064	1.422463
O31	O	1.389371	-0.227207	0.446632
O32	O	1.722704	0.106126	0.779966
O33	O	2.056037	0.439460	1.113299
O34	O	1.201499	-0.257226	0.592118
O35	O	1.534833	0.076107	0.925451
O36	O	1.868166	0.409440	1.258785
O37	O	1.331017	-0.365065	0.906342
O38	O	1.664350	-0.031731	1.239675
O39	O	1.997684	0.301602	1.573008
O40	O	1.185433	-0.361262	0.718398
O41	O	1.518766	-0.027929	1.051732
O42	O	1.852099	0.305405	1.385065
O43	O	1.457391	-0.263910	0.922463
O44	O	1.790724	0.069423	1.255796
O45	O	2.124057	0.402756	1.589130
O46	O	1.494446	-0.445805	0.629347
O47	O	1.827779	-0.112471	0.962680
O48	O	2.161112	0.220862	1.296014
O49	O	1.352099	-0.468550	0.739579
O50	O	1.685432	-0.135217	1.072913
O51	O	2.018765	0.198117	1.406246
C52	C	1.156149	-0.312179	0.650507
C53	C	1.489483	0.021155	0.983841
C54	C	1.822816	0.354488	1.317174
C55	C	1.041834	-0.321187	0.635977
C56	C	1.375167	0.012147	0.969310
C57	C	1.708500	0.345480	1.302644
C58	C	0.982952	-0.286487	0.692113
C59	C	1.316286	0.046846	1.025446
C60	C	1.649619	0.380179	1.358779
C61	C	0.864801	-0.295797	0.677096
C62	C	1.198134	0.037537	1.010430
C63	C	1.531467	0.370870	1.343763
C64	C	1.423283	-0.484124	0.684478
C65	C	1.756617	-0.150791	1.017812
C66	C	2.089950	0.182543	1.351145
C67	C	1.423342	-0.566667	0.684503
C68	C	1.756675	-0.233333	1.017836
C69	C	2.090008	0.100000	1.351169
C70	C	1.500881	-0.753720	0.624673
C71	C	1.834214	-0.420387	0.958006
C72	C	2.167547	-0.087053	1.291339
C73	C	1.514078	-0.810616	0.721723
C74	C	1.847412	-0.477282	1.055056
C75	C	2.180745	-0.143949	1.388390
C76	C	1.423395	-0.717797	0.684551
C77	C	1.756728	-0.384463	1.017885
C78	C	2.090061	-0.051130	1.351218
C79	C	1.410296	-0.807979	0.587556
C80	C	1.743630	-0.474645	0.920890
C81	C	2.076963	-0.141312	1.254223
C82	C	1.423449	-0.863780	0.684590
C83	C	1.756782	-0.530447	1.017923
C84	C	2.090116	-0.197114	1.351257
C85	C	1.436634	-0.773606	0.781657
C86	C	1.769968	-0.440273	1.114990
C87	C	2.103301	-0.106940	1.448324
C88	C	1.332817	-0.770962	0.647422
C89	C	1.666150	-0.437629	0.980755
C90	C	1.999484	-0.104295	1.314088
C91	C	1.345971	-0.827845	0.744532
C92	C	1.679304	-0.494511	1.077866
C93	C	2.012637	-0.161178	1.411199
C94	C	1.423366	-0.633699	0.684528
C95	C	1.756700	-0.300366	1.017861
C96	C	2.090033	0.032968	1.351195
C97	C	1.423476	-0.947878	0.684624
C98	C	1.756809	-0.614544	1.017957
C99	C	2.090143	-0.281211	1.351291
C100	C	1.691608	-0.270080	0.718685
C101	C	2.024942	0.063254	1.052018
C102	C	2.358275	0.396587	1.385352
C103	C	1.805921	-0.261092	0.733240
C104	C	2.139254	0.072241	1.066573
C105	C	2.472588	0.405574	1.399907
C106	C	1.389339	-0.318378	0.952759
C107	C	1.722673	0.014955	1.286093
C108	C	2.056006	0.348288	1.619426
C109	C	1.374843	-0.329973	1.067063
C110	C	1.708176	0.003360	1.400396
C111	C	2.041509	0.336694	1.733729
C112	C	1.423457	-0.097462	0.684607
C113	C	1.756790	0.235871	1.017940
C114	C	2.090123	0.569204	1.351273
C115	C	1.423499	-0.014916	0.684640
C116	C	1.756832	0.318418	1.017973
C117	C	2.090166	0.651751	1.351306
C118	C	1.457302	-0.264009	0.417351
C119	C	1.790635	0.069324	0.750684
C120	C	2.123969	0.402658	1.084017
C121	C	1.471998	-0.252190	0.303073
C122	C	1.805331	0.081144	0.636406
C123	C	2.138664	0.414477	0.969740
C124	C	1.430907	-0.285093	1.125999
C125	C	1.764240	0.048240	1.459333
C126	C	2.097574	0.381574	1.792666
C127	C	1.415926	-0.297076	1.244138
C128	C	1.749259	0.036258	1.577472
C129	C	2.082592	0.369591	1.910805
H130	H	1.566420	-0.721581	0.574098
H131	H	1.899753	-0.388248	0.907431
H132	H	2.233086	-0.054915	1.240764
H133	H	1.256221	-0.753360	0.615970
H134	H	1.589555	-0.420027	0.949304
H135	H	1.922888	-0.086693	1.282637
C136	C	1.395293	-0.828706	0.476718
C137	C	1.728626	-0.495373	0.810051
C138	C	2.061959	-0.162039	1.143385
N139	N	1.383999	-0.844313	0.393233
N140	N	1.717332	-0.510980	0.726566
N141	N	2.050665	-0.177647	1.059899
C142	C	0.814744	-0.345244	0.597144
C143	C	1.148077	-0.011911	0.930477
C144	C	1.481410	0.321422	1.263811
N145	N	0.777038	-0.382488	0.536926
N146	N	1.110372	-0.049155	0.870259
N147	N	1.443705	0.284178	1.203593
C148	C	1.336088	-0.360971	1.294118
C149	C	1.669421	-0.027637	1.627452
C150	C	2.002754	0.305696	1.960785
N151	N	1.275955	-0.409096	1.331765
N152	N	1.609288	-0.075762	1.665099
N153	N	1.942622	0.257571	1.998432
H154	H	1.020013	-0.249885	0.751286
H155	H	1.353347	0.083449	1.084619
H156	H	1.686680	0.416782	1.417953
C157	C	1.510734	-0.221197	1.076014
C158	C	1.844067	0.112136	1.409347
C159	C	2.177401	0.445470	1.742680
N160	N	1.570862	-0.173069	1.038366
N161	N	1.904195	0.160265	1.371699
N162	N	2.237528	0.493598	1.705033
H163	H	1.447649	-0.758366	0.863759
H164	H	1.780983	-0.425033	1.197092
H165	H	2.114316	-0.091699	1.530426
C166	C	1.257464	-0.871092	0.813051
C167	C	1.590797	-0.537759	1.146384
C168	C	1.924131	-0.204425	1.479718
N169	N	1.190803	-0.903666	0.864662
N170	N	1.524137	-0.570333	1.197996
N171	N	1.857470	-0.237000	1.531329
H172	H	1.531086	-0.204888	1.266074
H173	H	1.864420	0.128445	1.599408
H174	H	2.197753	0.461779	1.932741
C175	C	0.855976	-0.211645	0.813194
C176	C	1.189309	0.121688	1.146527
C177	C	1.522643	0.455022	1.479860
N178	N	0.893678	-0.174403	0.873416
N179	N	1.227011	0.158930	1.206749
N180	N	1.560345	0.492264	1.540082
C181	C	1.295009	-0.393865	1.117048
C182	C	1.628342	-0.060532	1.450381
C183	C	1.961676	0.272802	1.783714
N184	N	1.234876	-0.441990	1.154694
N185	N	1.568210	-0.108656	1.488028
N186	N	1.901543	0.224677	1.821361
H187	H	1.590700	-0.828197	0.753149
H188	H	1.924033	-0.494864	1.086483
H189	H	2.257367	-0.161530	1.419816
C190	C	0.991772	-0.370632	0.556029
C191	C	1.325105	-0.037298	0.889362
C192	C	1.658439	0.296035	1.222695
N193	N	0.954067	-0.407876	0.495811
N194	N	1.287400	-0.074543	0.829144
N195	N	1.620733	0.258791	1.162478
