data_functionalizedCrystal
_audit_creation_method	'MofGen! by Chris Wilmer'
_symmetry_space_group_name_H-M	'P1'
_symmetry_Int_Tables_number	1
_symmetry_cell_setting	triclinic
loop_
_symmetry_equiv_pos_as_xyz
  x,y,z
_cell_length_a	18.426585
_cell_length_b	12.970454
_cell_length_c	12.970454
_cell_angle_alpha	59.999776
_cell_angle_beta	89.999509
_cell_angle_gamma	60.001354
loop_
_atom_site_label
_atom_site_type_symbol
_atom_site_fract_x
_atom_site_fract_y
_atom_site_fract_z
Zr1	Zr	0.699112	1.128562	-0.135330
O2	O	0.583236	1.343645	-0.299951
O3	O	0.734634	0.913474	-0.084864
O4	O	0.734635	1.128564	-0.299955
O5	O	0.583234	1.128556	0.084806
O6	O	0.854061	1.128571	-0.299960
O7	O	0.583235	1.128556	-0.084860
O8	O	0.854059	0.743815	0.084799
O9	O	0.583236	1.513313	-0.299952
O10	O	0.838909	1.001950	-0.063346
O11	O	0.749783	1.001946	0.063278
O12	O	0.749784	1.255186	-0.189964
O13	O	0.660657	1.255181	-0.063340
Zr14	Zr	0.889581	1.128575	0.135261
Zr15	Zr	0.889582	1.128574	-0.135337
Zr16	Zr	0.699110	1.128564	0.135268
Zr17	Zr	0.699112	1.399162	-0.135332
Zr18	Zr	0.889581	0.857975	0.135263
O19	O	0.854059	1.343664	0.084796
O20	O	0.854061	1.343662	-0.299961
O21	O	0.583234	1.343647	0.084805
O22	O	1.005456	0.913492	0.299882
O23	O	1.005458	0.913490	-0.084874
O24	O	0.734632	0.913476	0.299892
O25	O	1.005458	1.128581	-0.084875
O26	O	0.854058	1.128574	0.299886
O27	O	0.734632	1.128567	0.299891
O28	O	1.005457	1.128582	0.084791
O29	O	0.734635	1.513322	-0.299957
O30	O	0.854058	0.743816	0.299888
O31	O	1.005456	0.743825	0.299883
O32	O	1.005457	0.743824	0.084793
O33	O	0.583235	1.513314	-0.084862
O34	O	0.734634	1.513323	-0.084868
O35	O	0.838908	1.001952	0.189895
O36	O	0.928035	1.001956	0.063271
O37	O	0.838910	1.255192	-0.063347
O38	O	0.749783	1.255187	0.063277
C39	C	0.794346	0.790089	-0.000033
C40	C	0.794346	0.675213	-0.000032
C41	C	0.556097	1.128554	-0.000026
C42	C	0.475237	1.128550	-0.000023
C43	C	0.179122	1.128593	-0.000045
C44	C	0.261508	1.128587	-0.000042
C45	C	0.327177	1.128572	-0.000035
C46	C	0.409568	1.128565	-0.000030
C47	C	1.032596	1.128583	-0.000043
C48	C	1.113455	1.128588	-0.000046
C49	C	0.794348	1.128567	-0.338512
C50	C	0.794348	1.128566	-0.453388
C51	C	0.794346	1.467048	-0.000036
C52	C	0.794346	1.581925	-0.000037
C53	C	0.794344	1.128571	0.338443
C54	C	0.794344	1.128571	0.453319
C55	C	1.032596	0.790104	-0.000041
C56	C	1.113455	0.675232	-0.000044
C57	C	0.794344	0.790091	0.338445
C58	C	0.794344	0.675215	0.453322
C59	C	1.032594	0.790106	0.338436
C60	C	1.113453	0.675234	0.453310
C61	C	0.556098	1.467032	-0.338505
C62	C	0.475239	1.581903	-0.453379
C63	C	0.556097	1.467034	-0.000028
C64	C	0.475237	1.581906	-0.000025
C65	C	0.794348	1.467046	-0.338514
C66	C	0.794348	1.581922	-0.453390
C67	C	1.104905	0.621284	-0.066149
C68	C	1.180874	0.513364	-0.066176
C69	C	1.265392	0.459388	-0.000090
C70	C	1.273941	0.513347	0.066017
C71	C	1.197973	0.621271	0.066036
C72	C	1.197957	0.621292	0.441160
C73	C	1.273940	0.513373	0.549086
C74	C	1.265417	0.459391	0.669160
C75	C	1.180905	0.513344	0.681308
C76	C	1.104924	0.621269	0.573384
C77	C	0.390736	1.635859	-0.441229
C78	C	0.314753	1.743811	-0.549155
C79	C	0.323275	1.797798	-0.669229
C80	C	0.407787	1.743838	-0.681377
C81	C	0.483769	1.635895	-0.573452
C82	C	0.483787	1.635865	0.066069
C83	C	0.407818	1.743814	0.066066
C84	C	0.323300	1.797795	-0.000023
C85	C	0.314751	1.743831	-0.066125
C86	C	0.390720	1.635891	-0.066130
H87	H	1.036093	0.665230	-0.119979
O88	O	1.022886	0.673673	0.585357
C89	C	1.013141	0.736131	0.651922
H90	H	1.081533	0.687401	0.711469
H91	H	0.976809	0.859071	0.582017
C92	C	0.875185	0.763964	0.665489
C93	C	0.959186	0.704104	0.738634
H94	H	0.841900	0.744215	0.718974
H95	H	0.881748	0.721890	0.620639
H96	H	0.844921	0.866410	0.607239
H97	H	0.989453	0.601659	0.796871
H98	H	0.952627	0.746160	0.783496
H99	H	0.552573	1.591966	-0.583360
O100	O	0.382286	1.583647	-0.324691
C101	C	0.291401	1.654420	-0.337136
H102	H	0.250889	1.763815	-0.433460
H103	H	0.269004	1.583640	-0.328279
C104	C	0.326857	1.545206	-0.114271
C105	C	0.277101	1.679573	-0.232574
H106	H	0.318035	1.560716	-0.049770
H107	H	0.388088	1.497520	-0.105885
H108	H	0.308188	1.486236	-0.106908
H109	H	0.295777	1.738532	-0.239941
H110	H	0.215872	1.727270	-0.240959
O111	O	1.206090	0.673837	0.324433
C112	C	1.120914	0.780693	0.231762
H113	H	1.070553	0.762959	0.273820
H114	H	1.101552	0.893590	0.198005
C115	C	1.183908	0.790648	0.067666
C116	C	1.122056	0.768859	0.119319
H117	H	1.184612	0.783354	-0.001697
H118	H	1.241293	0.718661	0.130099
H119	H	1.167766	0.884728	0.039545
H120	H	1.138205	0.674773	0.147453
H121	H	1.064673	0.840830	0.056888
H122	H	1.173897	0.469444	-0.120008
O123	O	0.232646	1.796433	-0.537402
C124	C	0.185901	1.947675	-0.595874
H125	H	0.235194	1.977233	-0.600863
H126	H	0.140805	2.009420	-0.695429
C127	C	0.068629	1.953246	-0.512397
C128	C	0.129172	1.989548	-0.518515
H129	H	0.033633	1.979078	-0.464683
H130	H	0.100120	1.851353	-0.473007
H131	H	0.031058	2.004703	-0.595365
H132	H	0.166749	1.938077	-0.435550
H133	H	0.097686	2.091434	-0.557890
O134	O	0.416217	1.796015	-0.797927
C135	C	0.507094	1.725144	-0.785528
H136	H	0.547639	1.680843	-0.689305
H137	H	0.529453	1.631267	-0.794167
C138	C	0.471595	1.888794	-1.008479
C139	C	0.521391	1.834394	-0.890300
H140	H	0.480414	1.956181	-1.073109
H141	H	0.410369	1.936539	-1.016834
H142	H	0.490232	1.810552	-1.015660
H143	H	0.502745	1.912633	-0.883114
H144	H	0.582615	1.786665	-0.881946
H145	H	1.327243	0.371507	-0.000115
H146	H	0.261399	1.885692	-0.757098
H147	H	0.552599	1.591922	0.119895
H148	H	1.342747	0.469456	0.539172
O149	O	0.232581	1.796382	-0.130204
C150	C	0.167374	1.903240	-0.116036
H151	H	0.197002	1.885507	-0.026772
H152	H	0.143607	2.016136	-0.201435
C153	C	0.051836	1.913198	-0.215412
C154	C	0.088225	1.891410	-0.105772
H155	H	0.003011	1.905907	-0.209087
H156	H	0.095767	1.841210	-0.224963
H157	H	0.032037	2.007278	-0.286567
H158	H	0.108033	1.797326	-0.034621
H159	H	0.044295	1.963382	-0.096209
H160	H	1.342766	0.469383	0.119821
H161	H	1.204947	0.665182	0.119874
H162	H	1.327293	0.371513	0.757029
H163	H	1.173979	0.469377	0.779087
H164	H	0.414796	1.787733	0.119899
H165	H	0.261449	1.885686	-0.000009
H166	H	0.383746	1.591960	-0.119948
