data_functionalizedCrystal
_audit_creation_method	'MofGen! by Chris Wilmer'
_symmetry_space_group_name_H-M	'P1'
_symmetry_Int_Tables_number	1
_symmetry_cell_setting	triclinic
loop_
_symmetry_equiv_pos_as_xyz
  x,y,z
_cell_length_a	21.395362
_cell_length_b	19.077068
_cell_length_c	19.076919
_cell_angle_alpha	94.470751
_cell_angle_beta	92.260951
_cell_angle_gamma	92.343691
loop_
_atom_site_label
_atom_site_type_symbol
_atom_site_fract_x
_atom_site_fract_y
_atom_site_fract_z
Zn1	Zn	0.932554	-0.296406	-0.410194
Zn2	Zn	1.432554	0.203594	0.089806
Zn3	Zn	0.932476	-0.409560	-0.297039
Zn4	Zn	1.432476	0.090440	0.202961
Zn5	Zn	0.832167	-0.291720	-0.292287
Zn6	Zn	1.332167	0.208280	0.207713
Zn7	Zn	0.823361	-0.414289	-0.414842
Zn8	Zn	1.323361	0.085711	0.085158
O9	O	0.880139	-0.352994	-0.353590
O10	O	1.380139	0.147006	0.146410
O11	O	1.020220	-0.311398	-0.395227
O12	O	1.520220	0.188602	0.104773
O13	O	0.922823	-0.389988	-0.197763
O14	O	1.422823	0.110012	0.302237
O15	O	0.849202	-0.193691	-0.303994
O16	O	1.349202	0.306309	0.196006
O17	O	1.020163	-0.394532	-0.312092
O18	O	1.520163	0.105468	0.187908
O19	O	0.922955	-0.197134	-0.390620
O20	O	1.422955	0.302866	0.109380
O21	O	0.849126	-0.303412	-0.194272
O22	O	1.349126	0.196588	0.305728
O23	O	0.743322	-0.307997	-0.308501
O24	O	1.243322	0.192003	0.191499
O25	O	0.834193	-0.402592	-0.512871
O26	O	1.334193	0.097408	-0.012871
O27	O	0.736852	-0.398048	-0.398541
O28	O	1.236852	0.101952	0.101459
O29	O	0.914416	-0.315984	-0.509456
O30	O	1.414416	0.184016	-0.009456
O31	O	0.914284	-0.508837	-0.316599
O32	O	1.414284	-0.008837	0.183401
O33	O	0.834118	-0.512312	-0.403149
O34	O	1.334118	-0.012312	0.096851
C35	C	0.717353	-0.353028	-0.353510
C36	C	1.217353	0.146972	0.146490
C37	C	0.647712	-0.353060	-0.353493
C38	C	1.147712	0.146940	0.146507
C39	C	0.611646	-0.400006	-0.400312
C40	C	1.111646	0.099994	0.099688
C41	C	0.546210	-0.399990	-0.400343
C42	C	1.046210	0.100010	0.099657
C43	C	0.516842	-0.353035	-0.353542
C44	C	1.016842	0.146965	0.146458
C45	C	0.552916	-0.306080	-0.306720
C46	C	1.052916	0.193920	0.193280
C47	C	0.618351	-0.306092	-0.306695
C48	C	1.118351	0.193908	0.193305
C49	C	0.415697	-0.344816	-0.289853
C50	C	0.915697	0.155184	0.210147
C51	C	0.350263	-0.344808	-0.289877
C52	C	0.850263	0.155192	0.210123
C53	C	0.315021	-0.352992	-0.353618
C54	C	0.815021	0.147008	0.146382
C55	C	0.345219	-0.361198	-0.417339
C56	C	0.845219	0.138802	0.082661
C57	C	0.410653	-0.361211	-0.417314
C58	C	0.910653	0.138789	0.082686
C59	C	0.445890	-0.353016	-0.353564
C60	C	0.945890	0.146984	0.146436
C61	C	0.208002	-0.399923	-0.400475
C62	C	0.708002	0.100077	0.099525
C63	C	0.142565	-0.399902	-0.400506
C64	C	0.642565	0.100098	0.099494
C65	C	0.149272	-0.305995	-0.306877
C66	C	0.649272	0.194005	0.193123
C67	C	0.214708	-0.306013	-0.306851
C68	C	0.714708	0.193987	0.193149
C69	C	0.244069	-0.352981	-0.353649
C70	C	0.744069	0.147019	0.146351
C71	C	0.873253	-0.536154	-0.360909
C72	C	1.373253	-0.036154	0.139091
C73	C	0.870364	-0.614512	-0.364064
C74	C	1.370364	-0.114512	0.135936
C75	C	0.910774	-0.649494	-0.320522
C76	C	1.410774	-0.149494	0.179478
C77	C	0.908060	-0.723119	-0.323493
C78	C	1.408060	-0.223119	0.176507
C79	C	0.864932	-0.761762	-0.370004
C80	C	1.364932	-0.261762	0.129996
C81	C	0.824519	-0.726775	-0.413551
C82	C	1.324519	-0.226775	0.086449
C83	C	0.827237	-0.653151	-0.410582
C84	C	1.327237	-0.153151	0.089418
C85	C	0.852328	-0.982151	-0.383712
C86	C	1.352328	-0.482151	0.116288
C87	C	0.849612	-1.055780	-0.386676
C88	C	1.349612	-0.555780	0.113324
C89	C	0.933153	-1.052120	-0.296619
C90	C	1.433153	-0.552120	0.203381
C91	C	0.935865	-0.978494	-0.293652
C92	C	1.435865	-0.478494	0.206348
C93	C	0.895455	-0.943514	-0.337201
C94	C	1.395455	-0.443514	0.162799
N95	N	0.862155	-0.837019	-0.373040
N96	N	1.362155	-0.337019	0.126960
N97	N	0.898235	-0.868258	-0.334168
N98	N	1.398235	-0.368258	0.165832
C99	C	1.043561	-0.352960	-0.353671
C100	C	1.543561	0.147040	0.146329
C101	C	1.113202	-0.352946	-0.353706
C102	C	1.613202	0.147054	0.146294
C103	C	0.873331	-0.360338	-0.537457
C104	C	1.373331	0.139662	-0.037457
C105	C	0.870429	-0.363468	-0.615809
C106	C	1.370429	0.136532	-0.115809
C107	C	0.887069	-0.169119	-0.346258
C108	C	1.387069	0.330881	0.153742
C109	C	0.890022	-0.090762	-0.343134
C110	C	1.390022	0.409238	0.156866
C111	C	0.910832	-0.319848	-0.650843
C112	C	1.410832	0.180152	-0.150843
C113	C	0.908098	-0.322786	-0.724464
C114	C	1.408098	0.177214	-0.224464
C115	C	0.864964	-0.369348	-0.763050
C116	C	1.364964	0.130652	-0.263050
C117	C	0.824557	-0.412969	-0.728011
C118	C	1.324557	0.087031	-0.228011
C119	C	0.827288	-0.410027	-0.654391
C120	C	1.327288	0.089973	-0.154391
C121	C	0.852314	-0.382978	-0.983419
C122	C	1.352314	0.117022	-0.483419
C123	C	0.849587	-0.385918	-1.057044
C124	C	1.349587	0.114082	-0.557044
C125	C	0.933128	-0.295734	-1.053491
C126	C	1.433128	0.204266	-0.553491
C127	C	0.935858	-0.292799	-0.979871
C128	C	1.435858	0.207201	-0.479871
C129	C	0.895449	-0.336418	-0.944838
C130	C	1.395449	0.163582	-0.444838
N131	N	0.862170	-0.372353	-0.838302
N132	N	1.362170	0.127647	-0.338302
N133	N	0.898240	-0.333408	-0.869587
N134	N	1.398240	0.166592	-0.369587
C135	C	0.886960	-0.345627	-0.170437
C136	C	1.386960	0.154373	0.329563
C137	C	0.889990	-0.342299	-0.092077
C138	C	1.389990	0.157701	0.407923
H139	H	0.325681	-0.338130	-0.237992
H140	H	0.825681	0.161870	0.262008
H141	H	0.945958	-0.281935	-0.619432
H142	H	1.445958	0.218065	-0.119432
C143	C	0.782860	-0.458026	-0.615855
C144	C	1.282860	0.041974	-0.115855
H145	H	0.756788	-0.486187	-0.649378
H146	H	1.256788	0.013813	-0.149378
H147	H	0.757639	-0.429931	-0.586038
H148	H	1.257639	0.070069	-0.086038
H149	H	0.806752	-0.487587	-0.588383
H150	H	1.306752	0.012413	-0.088383
C151	C	0.977571	-0.247753	-1.092025
C152	C	1.477571	0.252247	-0.592025
H153	H	1.003654	-0.219605	-1.058500
H154	H	1.503654	0.280395	-0.558500
H155	H	0.953698	-0.218189	-1.119507
H156	H	1.453698	0.281811	-0.619507
H157	H	1.002793	-0.275866	-1.121833
H158	H	1.502793	0.224134	-0.621833
C159	C	0.958216	-0.606993	-0.269361
C160	C	1.458216	-0.106993	0.230639
H161	H	0.981898	-0.638375	-0.243860
H162	H	1.481898	-0.138375	0.256140
H163	H	0.936471	-0.577086	-0.237455
H164	H	1.436471	-0.077086	0.262545
H165	H	0.985560	-0.579308	-0.295211
H166	H	1.485560	-0.079308	0.204789
H167	H	0.941000	-0.287268	-0.752985
H168	H	1.441000	0.212732	-0.252985
H169	H	0.444387	-0.338148	-0.237944
H170	H	0.944387	0.161852	0.262056
C171	C	0.782787	-0.614671	-0.458480
C172	C	1.282787	-0.114671	0.041520
H173	H	0.756709	-0.648228	-0.486602
H174	H	1.256709	-0.148228	0.013398
H175	H	0.806658	-0.587137	-0.488067
H176	H	1.306658	-0.087137	0.011933
H177	H	0.757562	-0.584916	-0.430319
H178	H	1.257562	-0.084916	0.069681
C179	C	0.306461	-0.370198	-0.487458
C180	C	0.806461	0.129802	0.012542
H181	H	0.263166	-0.369007	-0.478350
H182	H	0.763166	0.130993	0.021650
H183	H	0.314732	-0.414049	-0.511642
H184	H	0.814732	0.085951	-0.011642
H185	H	0.317566	-0.333079	-0.515636
H186	H	0.817566	0.166921	-0.015636
H187	H	0.529001	-0.267847	-0.268616
H188	H	1.029001	0.232153	0.231384
C189	C	0.777078	-0.769279	-0.464710
C190	C	1.277078	-0.269279	0.035290
H191	H	0.781242	-0.818138	-0.460236
H192	H	1.281242	-0.318138	0.039764
H193	H	0.784903	-0.759076	-0.511599
H194	H	1.284903	-0.259076	-0.011599
H195	H	0.735814	-0.756853	-0.453842
H196	H	1.235814	-0.256853	0.046158
H197	H	0.789435	-0.450878	-0.759433
H198	H	1.289435	0.049122	-0.259433
C199	C	0.983281	-0.935988	-0.242464
C200	C	1.483281	-0.435988	0.257536
H201	H	0.979100	-0.887130	-0.246919
H202	H	1.479100	-0.387130	0.253081
H203	H	1.024555	-0.948394	-0.253294
H204	H	1.524555	-0.448394	0.246706
H205	H	0.975423	-0.946209	-0.195583
H206	H	1.475423	-0.446209	0.304417
C207	C	0.658024	-0.254453	-0.255188
C208	C	1.158024	0.245547	0.244812
H209	H	0.631164	-0.226486	-0.227317
H210	H	1.131164	0.273514	0.272683
H211	H	0.683738	-0.224865	-0.280967
H212	H	1.183738	0.275135	0.219033
H213	H	0.683640	-0.280155	-0.225492
H214	H	1.183640	0.219845	0.274508
C215	C	0.102893	-0.451556	-0.452001
C216	C	0.602893	0.048444	0.047999
H217	H	0.129753	-0.479535	-0.479858
H218	H	0.629753	0.020465	0.020142
H219	H	0.077269	-0.425873	-0.481701
H220	H	0.577269	0.074127	0.018299
H221	H	0.077186	-0.481141	-0.426203
H222	H	0.577186	0.018859	0.073797
H223	H	0.970983	-0.254886	-0.948459
H224	H	1.470983	0.245114	-0.448459
H225	H	0.814499	-1.087242	-0.424563
H226	H	1.314499	-0.587242	0.075437
C227	C	0.952509	-0.761596	-0.275593
C228	C	1.452509	-0.261596	0.224407
H229	H	0.978577	-0.728037	-0.247462
H230	H	1.478577	-0.228037	0.252538
H231	H	0.977733	-0.791350	-0.303750
H232	H	1.477733	-0.291350	0.196250
H233	H	0.928634	-0.789131	-0.246004
H234	H	1.428634	-0.289131	0.253996
C235	C	0.977604	-1.090599	-0.248724
C236	C	1.477604	-0.590599	0.251276
H237	H	0.969814	-1.139982	-0.257155
H238	H	1.469814	-0.639982	0.242845
H239	H	0.970670	-1.076673	-0.200862
H240	H	1.470670	-0.576673	0.299138
H241	H	1.019759	-1.078891	-0.258619
H242	H	1.519759	-0.578891	0.241381
H243	H	0.814460	-0.423836	-1.088458
H244	H	1.314460	0.076164	-0.588458
C245	C	0.807854	-0.430943	-0.944892
C246	C	1.307854	0.069057	-0.444892
H247	H	0.781775	-0.459093	-0.978418
H248	H	1.281775	0.040907	-0.478418
H249	H	0.782640	-0.402818	-0.915092
H250	H	1.282640	0.097182	-0.415092
H251	H	0.831715	-0.460516	-0.917402
H252	H	1.331715	0.039484	-0.417402
C253	C	0.807868	-0.943681	-0.431603
C254	C	1.307868	-0.443681	0.068397
H255	H	0.781788	-0.977242	-0.459718
H256	H	1.281788	-0.477242	0.040282
H257	H	0.831728	-0.916143	-0.461196
H258	H	1.331728	-0.416143	0.038804
H259	H	0.782646	-0.913931	-0.403432
H260	H	1.282646	-0.413931	0.096568
H261	H	0.635548	-0.438250	-0.438420
H262	H	1.135548	0.061750	0.061580
H263	H	0.516840	-0.438219	-0.438471
H264	H	1.016840	0.061781	0.061529
C265	C	0.443873	-0.370234	-0.487398
C266	C	0.943873	0.129766	0.012602
H267	H	0.487889	-0.369075	-0.478251
H268	H	0.987889	0.130925	0.021749
H269	H	0.433529	-0.333118	-0.515590
H270	H	0.933529	0.166882	-0.015590
H271	H	0.430700	-0.414087	-0.511586
H272	H	0.930700	0.085913	-0.011586
C273	C	0.240305	-0.451575	-0.451956
C274	C	0.740305	0.048425	0.048044
H275	H	0.284441	-0.444865	-0.445231
H276	H	0.784441	0.055135	0.054769
H277	H	0.228251	-0.443218	-0.498930
H278	H	0.728251	0.056782	0.001070
H279	H	0.228157	-0.498511	-0.443458
H280	H	0.728157	0.001489	0.056542
C281	C	0.116978	-0.254342	-0.255398
C282	C	0.616978	0.245658	0.244602
H283	H	0.147832	-0.226381	-0.227511
H284	H	0.647832	0.273619	0.272489
H285	H	0.091543	-0.280024	-0.225724
H286	H	0.591543	0.219976	0.274276
H287	H	0.091640	-0.224739	-0.281204
H288	H	0.591640	0.275261	0.218796
C289	C	0.254381	-0.254380	-0.255341
C290	C	0.754381	0.245620	0.244659
H291	H	0.227521	-0.226416	-0.227468
H292	H	0.727521	0.273584	0.272532
H293	H	0.280095	-0.224789	-0.281118
H294	H	0.780095	0.275211	0.218882
H295	H	0.279998	-0.280083	-0.225647
H296	H	0.779998	0.219917	0.274353
