data_functionalizedCrystal
_audit_creation_method	'MofGen! by Chris Wilmer'
_symmetry_space_group_name_H-M	'P1'
_symmetry_Int_Tables_number	1
_symmetry_cell_setting	triclinic
loop_
_symmetry_equiv_pos_as_xyz
  x,y,z
_cell_length_a	21.295419
_cell_length_b	21.295417
_cell_length_c	13.897441
_cell_angle_alpha	90.035375
_cell_angle_beta	90.021883
_cell_angle_gamma	90.044503
loop_
_atom_site_label
_atom_site_type_symbol
_atom_site_fract_x
_atom_site_fract_y
_atom_site_fract_z
Zn1	Zn	0.962343	-0.250341	0.545379
Zn2	Zn	1.462343	0.249659	1.045379
Zn3	Zn	0.962251	-0.355620	0.384067
Zn4	Zn	1.462251	0.144380	0.884067
Zn5	Zn	0.857071	-0.250395	0.384094
Zn6	Zn	1.357071	0.249605	0.884094
Zn7	Zn	0.857037	-0.355603	0.545316
Zn8	Zn	1.357037	0.144397	1.045316
O9	O	0.909675	-0.302990	0.464714
O10	O	1.409675	0.197010	0.964714
O11	O	1.050420	-0.264290	0.523995
O12	O	1.550420	0.235710	1.023995
O13	O	0.948275	-0.341691	0.249089
O14	O	1.448275	0.158309	0.749089
O15	O	0.871088	-0.162299	0.405526
O16	O	1.371088	0.337701	0.905526
O17	O	1.050353	-0.341638	0.405480
O18	O	1.550353	0.158362	0.905480
O19	O	0.948430	-0.162258	0.524022
O20	O	1.448430	0.337742	1.024022
O21	O	0.870999	-0.264383	0.249109
O22	O	1.370999	0.235617	0.749109
O23	O	0.768977	-0.264367	0.405466
O24	O	1.268977	0.235633	0.905466
O25	O	0.871030	-0.341610	0.680306
O26	O	1.371030	0.158390	1.180306
O27	O	0.768952	-0.341663	0.523915
O28	O	1.268952	0.158337	1.023915
O29	O	0.948398	-0.264274	0.680352
O30	O	1.448398	0.235726	1.180352
O31	O	0.948242	-0.443707	0.405419
O32	O	1.448242	0.056293	0.905419
O33	O	0.870941	-0.443695	0.523889
O34	O	1.370941	0.056305	1.023889
C35	C	0.746124	-0.303020	0.464687
C36	C	1.246124	0.196980	0.964687
C37	C	0.676156	-0.303048	0.464698
C38	C	1.176156	0.196952	0.964698
C39	C	0.643346	-0.262839	0.526505
C40	C	1.143346	0.237161	1.026505
C41	C	0.577604	-0.262822	0.526508
C42	C	1.077604	0.237178	1.026508
C43	C	0.544673	-0.303025	0.464716
C44	C	1.044673	0.196975	0.964716
C45	C	0.577490	-0.343237	0.402898
C46	C	1.077490	0.156763	0.902898
C47	C	0.643232	-0.343249	0.402889
C48	C	1.143232	0.156751	0.902889
N49	N	0.441399	-0.358104	0.457179
N50	N	0.941399	0.141896	0.957179
N51	N	0.378947	-0.358091	0.457193
N52	N	0.878947	0.141909	0.957193
C53	C	0.346598	-0.302993	0.464737
C54	C	0.846598	0.197007	0.964737
N55	N	0.379060	-0.247906	0.472286
N56	N	0.879060	0.252094	0.972286
N57	N	0.441517	-0.247919	0.472277
N58	N	0.941517	0.252081	0.972277
C59	C	0.473388	-0.303017	0.464718
C60	C	0.973388	0.196983	0.964718
C61	C	0.242504	-0.262762	0.526551
C62	C	0.742504	0.237238	1.026551
C63	C	0.176760	-0.262744	0.526548
C64	C	0.676760	0.237256	1.026548
C65	C	0.176648	-0.343165	0.402942
C66	C	0.676648	0.156835	0.902942
C67	C	0.242390	-0.343177	0.402940
C68	C	0.742390	0.156823	0.902940
C69	C	0.275314	-0.302977	0.464750
C70	C	0.775314	0.197023	0.964750
C71	C	0.909595	-0.466541	0.464665
C72	C	1.409595	0.033459	0.964665
C73	C	0.909618	-0.536509	0.464677
C74	C	1.409618	-0.036509	0.964677
C75	C	0.949868	-0.569298	0.526421
C76	C	1.449868	-0.069298	1.026421
C77	C	0.949890	-0.635040	0.526445
C78	C	1.449890	-0.135040	1.026445
C79	C	0.909669	-0.667992	0.464707
C80	C	1.409669	-0.167992	0.964707
C81	C	0.869412	-0.635195	0.402958
C82	C	1.369412	-0.135195	0.902958
C83	C	0.869387	-0.569454	0.402943
C84	C	1.369387	-0.069454	0.902943
N85	N	0.904912	-0.771260	0.380290
N86	N	1.404912	-0.271260	0.880290
N87	N	0.904940	-0.833711	0.380307
N88	N	1.404940	-0.333711	0.880307
C89	C	0.909743	-0.866066	0.464751
C90	C	1.409743	-0.366066	0.964751
N91	N	0.914529	-0.833611	0.549178
N92	N	1.414529	-0.333611	1.049178
N93	N	0.914504	-0.771154	0.549160
N94	N	1.414504	-0.271154	1.049160
C95	C	0.909692	-0.739277	0.464717
C96	C	1.409692	-0.239277	0.964717
C97	C	0.950019	-0.970141	0.526526
C98	C	1.450019	-0.470141	1.026526
C99	C	0.950036	-1.035884	0.526552
C100	C	1.450036	-0.535884	1.026552
C101	C	0.869562	-1.036038	0.403056
C102	C	1.369562	-0.536038	0.903056
C103	C	0.869541	-0.970296	0.403039
C104	C	1.369541	-0.470296	0.903039
C105	C	0.909772	-0.937351	0.464773
C106	C	1.409772	-0.437351	0.964773
C107	C	1.073866	-0.302960	0.464742
C108	C	1.573866	0.197040	0.964742
C109	C	1.143834	-0.302947	0.464754
C110	C	1.643834	0.197053	0.964754
C111	C	0.909720	-0.302934	0.716307
C112	C	1.409720	0.197066	1.216307
C113	C	0.909739	-0.302910	0.823521
C114	C	1.409739	0.197090	1.323521
C115	C	0.909773	-0.138799	0.464784
C116	C	1.409773	0.361201	0.964784
C117	C	0.909815	-0.068831	0.464814
C118	C	1.409815	0.431169	0.964814
C119	C	0.909667	-0.303000	0.214100
C120	C	1.409667	0.197000	0.714100
C121	C	0.909770	-0.302846	0.106886
C122	C	1.409770	0.197154	0.606886
C123	C	0.909756	-0.302868	1.019816
C124	C	1.409756	0.197132	1.519816
C125	C	0.909745	-0.302893	0.910584
C126	C	1.409745	0.197107	1.410584
H127	H	0.550674	-0.375971	0.352585
H128	H	1.050674	0.124029	0.852585
H129	H	0.550885	-0.230075	0.576837
H130	H	1.050885	0.269925	1.076837
C131	C	0.993516	-0.533417	0.593350
C132	C	1.493516	-0.033417	1.093350
C133	C	0.984891	-0.468824	0.580110
C134	C	1.484891	0.031176	1.080110
C135	C	1.025092	-0.435750	0.641741
C136	C	1.525092	0.064250	1.141741
H137	H	0.984324	-0.544096	0.658187
H138	H	1.484324	-0.044096	1.158187
H139	H	1.035834	-0.544111	0.579287
H140	H	1.535834	-0.044111	1.079287
H141	H	0.942582	-0.458134	0.594180
H142	H	1.442582	0.041866	1.094180
H143	H	0.994088	-0.458126	0.515285
H144	H	1.494088	0.041874	1.015285
H145	H	1.067411	-0.446444	0.627678
H146	H	1.567411	0.053556	1.127678
H147	H	1.015897	-0.446434	0.706575
H148	H	1.515897	0.053566	1.206575
H149	H	1.019250	-0.391920	0.632760
H150	H	1.519250	0.108080	1.132760
C151	C	0.678824	-0.387016	0.335906
C152	C	1.178824	0.112984	0.835906
C153	C	0.662789	-0.449313	0.356753
C154	C	1.162789	0.050687	0.856753
C155	C	0.695571	-0.489651	0.295078
C156	C	1.195571	0.010349	0.795078
H157	H	0.668069	-0.377834	0.271087
H158	H	1.168069	0.122166	0.771087
H159	H	0.722698	-0.381309	0.344762
H160	H	1.222698	0.118691	0.844762
H161	H	0.618924	-0.455017	0.347888
H162	H	1.118924	0.044983	0.847888
H163	H	0.673545	-0.458515	0.421560
H164	H	1.173545	0.041485	0.921560
H165	H	0.739446	-0.483944	0.303935
H166	H	1.239446	0.016056	0.803935
H167	H	0.684814	-0.480463	0.230263
H168	H	1.184814	0.019537	0.730263
H169	H	0.684701	-0.531924	0.309220
H170	H	1.184701	-0.031924	0.809220
H171	H	0.836663	-0.662029	0.352693
H172	H	1.336663	-0.162029	0.852693
H173	H	0.269312	-0.230024	0.576874
H174	H	0.769312	0.269976	1.076874
H175	H	0.150048	-0.229997	0.576876
H176	H	0.650048	0.270003	1.076876
H177	H	0.149836	-0.375900	0.352629
H178	H	0.649836	0.124100	0.852629
H179	H	0.269104	-0.375923	0.352615
H180	H	0.769104	0.124077	0.852615
C181	C	0.993653	-0.670536	0.593533
C182	C	1.493653	-0.170536	1.093533
C183	C	1.028886	-0.627613	0.647584
C184	C	1.528886	-0.127613	1.147584
C185	C	1.069209	-0.660286	0.709391
C186	C	1.569209	-0.160286	1.209391
H187	H	0.969632	-0.696187	0.635615
H188	H	1.469632	-0.196187	1.135615
H189	H	1.021138	-0.696158	0.556706
H190	H	1.521138	-0.196158	1.056706
H191	H	1.001405	-0.602002	0.684408
H192	H	1.501405	-0.102002	1.184408
H193	H	1.052920	-0.601960	0.605527
H194	H	1.552920	-0.101960	1.105527
H195	H	1.096693	-0.685908	0.672564
H196	H	1.596693	-0.185908	1.172564
H197	H	1.045183	-0.685937	0.751466
H198	H	1.545183	-0.185937	1.251466
H199	H	1.093123	-0.631168	0.746065
H200	H	1.593123	-0.131168	1.246065
H201	H	0.836769	-0.943597	0.352757
H202	H	1.336769	-0.443597	0.852757
H203	H	0.836610	-0.542757	0.352662
H204	H	1.336610	-0.042757	0.852662
C205	C	0.993710	-0.934480	0.593669
C206	C	1.493710	-0.434480	1.093669
C207	C	1.028947	-0.977270	0.647778
C208	C	1.528947	-0.477270	1.147778
C209	C	1.069193	-0.944445	0.709653
C210	C	1.569193	-0.444445	1.209653
H211	H	1.021200	-0.908818	0.556918
H212	H	1.521200	-0.408818	1.056918
H213	H	0.969614	-0.908855	0.635704
H214	H	1.469614	-0.408855	1.135704
H215	H	1.053041	-1.002884	0.605749
H216	H	1.553041	-0.502884	1.105749
H217	H	1.001473	-1.002933	0.684549
H218	H	1.501473	-0.502933	1.184549
H219	H	1.045097	-0.918820	0.751688
H220	H	1.545097	-0.418820	1.251688
H221	H	1.096679	-0.918784	0.672894
H222	H	1.596679	-0.418784	1.172894
H223	H	1.093102	-0.973473	0.746379
H224	H	1.593102	-0.473473	1.246379
C225	C	0.993635	-1.071517	0.593714
C226	C	1.493635	-0.571517	1.093714
C227	C	0.957988	-1.109255	0.655524
C228	C	1.457988	-0.609255	1.155524
C229	C	0.998130	-1.142082	0.717415
C230	C	1.498130	-0.642082	1.217415
H231	H	1.021095	-1.097203	0.556970
H232	H	1.521095	-0.597203	1.056970
H233	H	1.017578	-1.042497	0.630529
H234	H	1.517578	-0.542497	1.130529
H235	H	0.934055	-1.138272	0.618713
H236	H	1.434055	-0.638272	1.118713
H237	H	0.930530	-1.083585	0.692288
H238	H	1.430530	-0.583585	1.192288
H239	H	1.022074	-1.113062	0.754230
H240	H	1.522074	-0.613062	1.254230
H241	H	1.025588	-1.167764	0.680664
H242	H	1.525588	-0.667764	1.180664
H243	H	0.973950	-1.167686	0.759366
H244	H	1.473950	-0.667686	1.259366
H245	H	0.836810	-1.062866	0.352794
H246	H	1.336810	-0.562866	0.852794
H247	H	0.670149	-0.230103	0.576834
H248	H	1.170149	0.269897	1.076834
