data_functionalizedCrystal
_audit_creation_method	'MofGen! by Chris Wilmer'
_symmetry_space_group_name_H-M	'P1'
_symmetry_Int_Tables_number	1
_symmetry_cell_setting	triclinic
loop_
_symmetry_equiv_pos_as_xyz
  x,y,z
_cell_length_a	17.699083
_cell_length_b	14.750779
_cell_length_c	17.699083
_cell_angle_alpha	102.617135
_cell_angle_beta	83.283015
_cell_angle_gamma	77.378405
loop_
_atom_site_label
_atom_site_type_symbol
_atom_site_fract_x
_atom_site_fract_y
_atom_site_fract_z
O1	O	0.987643	0.079696	0.112136
O2	O	0.767258	0.079728	0.124595
O3	O	0.883679	0.079702	0.008174
O4	O	0.871222	0.079721	0.228556
O5	O	0.916589	-0.079955	-0.024733
O6	O	0.800169	-0.079930	0.091687
O7	O	1.020553	-0.079961	0.079228
Zn8	Zn	0.915586	-0.105295	0.080233
Zn9	Zn	0.872225	0.105061	0.123590
O10	O	0.904133	-0.079936	0.195649
C11	C	0.755515	-0.000097	0.107696
C12	C	0.671495	-0.000085	0.106360
C13	C	0.622873	-0.000080	0.174694
C14	C	0.543932	-0.000092	0.173429
C15	C	0.513614	-0.000103	0.103830
C16	C	0.562242	-0.000112	0.035490
C17	C	0.641183	-0.000106	0.036754
C18	C	0.243884	-0.000136	0.030390
C19	C	0.164937	-0.000139	0.029131
C20	C	0.146633	-0.000122	0.167065
C21	C	0.225574	-0.000116	0.168329
C22	C	0.274197	-0.000130	0.099988
C23	C	0.359794	-0.000118	0.101360
C24	C	0.428017	-0.000108	0.102459
N25	N	0.945185	-0.248857	0.050643
C26	C	0.759968	-0.600635	0.235782
C27	C	0.780715	-0.701138	0.215052
C28	C	0.883826	-0.701123	0.111999
C29	C	0.863086	-0.600618	0.132718
C30	C	0.801157	-0.550381	0.194610
C31	C	0.904275	-0.550364	0.091547
C32	C	0.883539	-0.449868	0.112267
C33	C	0.821614	-0.399624	0.174158
C34	C	0.780421	-0.449885	0.215330
C35	C	0.966207	-0.600603	0.029658
C36	C	1.007396	-0.550349	-0.011513
C37	C	0.986657	-0.449851	0.009203
C38	C	0.924732	-0.399607	0.071094
C39	C	1.027850	-0.399590	-0.031969
C40	C	1.007114	-0.299093	-0.011249
C41	C	0.903996	-0.299110	0.091814
C42	C	1.032296	-0.000135	0.096128
C43	C	1.116315	-0.000140	0.097465
C44	C	0.899688	-0.000126	-0.036477
C45	C	0.898349	-0.000127	-0.120495
N46	N	0.842633	0.248623	0.153174
C47	C	0.966685	-0.000138	-0.169118
C48	C	0.965421	-0.000129	-0.248059
C49	C	0.895822	-0.000116	-0.278378
C50	C	0.827480	-0.000102	-0.229748
C51	C	0.828744	-0.000104	-0.150806
C52	C	0.822383	-0.000093	-0.548109
C53	C	0.821125	-0.000095	-0.627057
C54	C	0.959060	-0.000119	-0.645362
C55	C	0.960324	-0.000120	-0.566421
C56	C	0.891982	-0.000101	-0.517797
C57	C	0.893353	-0.000109	-0.432199
C58	C	0.894451	-0.000115	-0.363975
C59	C	0.888123	-0.000105	0.240300
C60	C	0.889461	-0.000099	0.324320
H61	H	0.140256	-0.000149	-0.027548
O62	O	0.699891	-0.551867	0.295997
C63	C	0.648921	-0.521151	0.433988
C64	C	0.717016	-0.576424	0.365874
H65	H	0.662735	-0.541000	0.490496
H66	H	0.641179	-0.440681	0.441789
H67	H	0.592404	-0.540904	0.420087
H68	H	0.773572	-0.556752	0.379724
H69	H	0.724689	-0.656881	0.358089
H70	H	1.016999	-0.000136	-0.541742
H71	H	0.764447	-0.000086	-0.651739
O72	O	0.801388	-0.302001	0.194412
C73	C	0.715013	-0.157798	0.280667
C74	C	0.737850	-0.268354	0.257823
H75	H	0.663631	-0.130560	0.331926
H76	H	0.767368	-0.130447	0.298708
H77	H	0.697103	-0.130540	0.228230
H78	H	0.755747	-0.295694	0.310227
H79	H	0.685478	-0.295640	0.239753
O80	O	1.047180	-0.250419	-0.051346
C81	C	1.151675	-0.260999	-0.155726
C82	C	1.106351	-0.316242	-0.110397
H83	H	1.199536	-0.314192	-0.203467
H84	H	1.109407	-0.213980	-0.183852
H85	H	1.179672	-0.213917	-0.113373
H86	H	1.078350	-0.363376	-0.152699
H87	H	1.148654	-0.363200	-0.082259
H88	H	0.853562	-0.258206	0.142208
H89	H	0.766734	-0.000078	-0.508528
H90	H	0.934251	-0.742037	0.061607
O91	O	1.087910	-0.448442	-0.092170
C92	C	1.127637	-0.561965	-0.218922
C93	C	1.059544	-0.506683	-0.150807
H94	H	1.104731	-0.609081	-0.266339
H95	H	1.153516	-0.508831	-0.244858
H96	H	1.175093	-0.608961	-0.195961
H97	H	1.012038	-0.459686	-0.173706
H98	H	1.033729	-0.559868	-0.124882
H99	H	0.773097	-0.000094	-0.111217
H100	H	0.747169	-0.742050	0.248585
H101	H	0.680771	-0.000110	-0.018891
H102	H	0.729987	-0.408980	0.265724
H103	H	0.770810	-0.000085	-0.254437
O104	O	1.034352	-0.000105	-0.139787
C105	C	1.171045	-0.000174	-0.166294
C106	C	1.094461	-0.000194	-0.199606
H107	H	1.219667	-0.000265	-0.214646
H108	H	1.161358	0.066658	-0.116043
H109	H	1.188817	-0.066975	-0.143539
H110	H	1.076646	0.066562	-0.222404
H111	H	1.104189	-0.067070	-0.249823
H112	H	0.983090	-0.682434	0.012793
H113	H	0.647551	-0.000070	0.231370
H114	H	1.021067	-0.000140	-0.287646
O115	O	1.067453	-0.599200	-0.071719
C116	C	1.107164	-0.712713	-0.198475
C117	C	1.039078	-0.657434	-0.130353
H118	H	1.084252	-0.759824	-0.245891
H119	H	1.133041	-0.659578	-0.224412
H120	H	1.154624	-0.759714	-0.175523
H121	H	0.991569	-0.610432	-0.153243
H122	H	1.013266	-0.710621	-0.104428
O123	O	0.496800	-0.000043	0.239888
C124	C	0.486986	-0.000080	0.376827
C125	C	0.540444	-0.000110	0.301620
H126	H	0.522255	-0.000154	0.426752
H127	H	0.435797	0.066747	0.393509
H128	H	0.463337	-0.066886	0.365875
H129	H	0.564150	0.066651	0.312512
H130	H	0.591591	-0.066981	0.284960
O131	O	1.025527	-0.000167	-0.692496
C132	C	1.162465	-0.000134	-0.702306
C133	C	1.087257	-0.000099	-0.648849
H134	H	1.212389	-0.000059	-0.667035
H135	H	1.179152	-0.066964	-0.753489
H136	H	1.151513	0.066669	-0.725962
H137	H	1.098149	-0.066857	-0.625136
H138	H	1.070592	0.066775	-0.597708
O139	O	0.255020	0.000073	0.235957
C140	C	0.316490	0.082789	0.334463
C141	C	0.283157	0.082703	0.257880
H142	H	0.339262	0.149578	0.352202
H143	H	0.268190	0.082854	0.383128
H144	H	0.366747	0.015948	0.324723
H145	H	0.232911	0.149532	0.267543
H146	H	0.331503	0.082588	0.209241
H147	H	0.283465	-0.000148	-0.025258
O148	O	0.532721	0.000047	-0.032064
C149	C	0.437129	0.082721	-0.096481
C150	C	0.470497	0.082668	-0.019930
H151	H	0.386804	0.149502	-0.086692
H152	H	0.485400	0.082778	-0.145124
H153	H	0.414446	0.015872	-0.114287
H154	H	0.493173	0.149504	-0.002052
H155	H	0.422201	0.082561	0.028666
H156	H	0.107036	-0.000116	0.222710
