data_functionalizedCrystal
_audit_creation_method	'MofGen! by Chris Wilmer'
_symmetry_space_group_name_H-M	'P1'
_symmetry_Int_Tables_number	1
_symmetry_cell_setting	triclinic
loop_
_symmetry_equiv_pos_as_xyz
  x,y,z
_cell_length_a	16.109301
_cell_length_b	11.026607
_cell_length_c	15.186229
_cell_angle_alpha	89.998222
_cell_angle_beta	89.999362
_cell_angle_gamma	96.023749
loop_
_atom_site_label
_atom_site_type_symbol
_atom_site_fract_x
_atom_site_fract_y
_atom_site_fract_z
O1	O	1.126503	0.155971	-0.073169
O2	O	0.887350	0.175382	-0.073183
O3	O	0.987106	-0.010969	-0.073174
O4	O	1.026747	0.342322	-0.073178
O5	O	0.987097	-0.010971	0.073283
O6	O	0.887341	0.175379	0.073274
O7	O	1.126494	0.155969	0.073288
Zn8	Zn	1.006916	0.165674	0.096534
Zn9	Zn	1.006928	0.165677	-0.096429
O10	O	1.026738	0.342319	0.073279
C11	C	0.856253	0.174594	0.000044
C12	C	0.763604	0.172237	0.000039
C13	C	0.979788	-0.056178	0.000053
C14	C	0.957987	-0.190883	0.000049
C15	C	0.557080	0.277333	0.000048
C16	C	0.470027	0.275108	0.000053
C17	C	0.456769	0.054010	0.000052
C18	C	0.543821	0.056235	0.000053
C19	C	0.593975	0.167900	0.000046
C20	C	0.419869	0.163450	0.000051
C21	C	0.325481	0.161038	0.000057
C22	C	0.688369	0.170314	0.000042
C23	C	1.018183	-0.264713	0.000051
C24	C	0.995652	-0.403938	0.000046
C25	C	1.157591	0.156756	0.000059
C26	C	1.250240	0.159114	0.000059
C27	C	1.034056	0.387529	0.000050
C28	C	1.055857	0.522234	0.000049
N29	N	1.006914	0.165670	0.228227
N30	N	1.006935	0.165671	-0.228122
C31	C	1.051109	0.083182	0.453954
C32	C	1.051112	0.083179	0.546144
C33	C	0.962734	0.248163	0.546145
C34	C	0.962728	0.248159	0.453957
C35	C	1.006920	0.165670	0.407864
C36	C	1.006929	0.165671	0.592241
C37	C	1.006931	0.165669	0.692198
C38	C	1.006917	0.165671	0.307901
H39	H	0.597913	0.368257	0.000049
O40	O	0.430230	0.393137	0.000052
H41	H	0.479732	0.471153	0.000042
H42	H	1.086399	-0.224848	0.000060
H43	H	0.927432	-0.443797	0.000037
H44	H	1.124077	-0.437909	-0.000014
H45	H	0.415924	-0.036904	0.000063
H46	H	0.889771	-0.230748	0.000039
H47	H	1.087092	0.016013	0.416427
H48	H	0.573861	-0.032883	0.000054
H49	H	1.087093	0.016009	0.583668
H50	H	0.926755	0.315325	0.583683
O51	O	0.915063	0.337125	0.404230
H52	H	0.939816	0.431731	0.421903
