data_functionalizedCrystal
_audit_creation_method	'MofGen! by Chris Wilmer'
_symmetry_space_group_name_H-M	'P1'
_symmetry_Int_Tables_number	1
_symmetry_cell_setting	triclinic
loop_
_symmetry_equiv_pos_as_xyz
  x,y,z
_cell_length_a	12.811424
_cell_length_b	12.837943
_cell_length_c	11.892113
_cell_angle_alpha	86.040150
_cell_angle_beta	80.231028
_cell_angle_gamma	89.412067
loop_
_atom_site_label
_atom_site_type_symbol
_atom_site_fract_x
_atom_site_fract_y
_atom_site_fract_z
O1	O	-0.281577	-1.384397	0.122847
O2	O	-0.267996	-1.082445	0.121461
O3	O	-0.121654	-1.240022	0.106450
O4	O	-0.427919	-1.226820	0.137858
O5	O	-0.108392	-1.228040	-0.082917
O6	O	-0.254733	-1.070464	-0.067906
O7	O	-0.268315	-1.372415	-0.066520
Zn8	Zn	-0.259418	-1.219537	-0.097279
Zn9	Zn	-0.276892	-1.235323	0.152220
O10	O	-0.414657	-1.214838	-0.051509
C11	C	-0.256776	-1.037785	0.026308
C12	C	-0.243092	-0.922560	0.024908
C13	C	-0.075550	-1.232924	0.007721
C14	C	0.042067	-1.229613	-0.004334
C15	C	0.248612	-1.236436	0.179486
C16	C	0.359123	-1.233325	0.168165
C17	C	0.373603	-1.220273	-0.038296
C18	C	0.263091	-1.223384	-0.026975
C19	C	0.200600	-1.231467	0.081919
C20	C	0.090087	-1.234585	0.093239
C21	C	0.104568	-1.221525	-0.113220
C22	C	0.215079	-1.218415	-0.124541
C23	C	-0.279534	-1.417076	0.028635
C24	C	-0.293219	-1.532301	0.030043
C25	C	0.539240	-1.221936	0.047221
C26	C	0.421622	-1.225245	0.059278
N27	N	-0.247493	-1.208771	-0.267556
C28	C	-0.407602	-0.683373	0.041763
C29	C	-0.394750	-0.575109	0.040447
C30	C	-0.204535	-0.597765	0.020951
C31	C	-0.217387	-0.706029	0.022268
C32	C	-0.318924	-0.748829	0.032675
C33	C	-0.331777	-0.857096	0.033999
C34	C	-0.141562	-0.879750	0.014496
C35	C	-0.128709	-0.771486	0.013180
C36	C	-0.371843	-1.321004	-0.491455
C37	C	-0.363499	-1.313487	-0.610653
C38	C	-0.222457	-1.186224	-0.625151
C39	C	-0.230801	-1.193742	-0.505953
C40	C	-0.305498	-1.261133	-0.439109
C41	C	-0.313846	-1.268644	-0.319909
C42	C	-0.172799	-1.141388	-0.334410
C43	C	-0.164455	-1.133871	-0.453607
N44	N	-0.288810	-1.246098	0.322496
H45	H	0.039207	-1.241170	0.181907
N46	N	-0.517114	-0.729535	0.052994
H47	H	-0.521772	-0.769509	-0.016222
H48	H	-0.531535	-0.778340	0.124214
H49	H	0.065465	-1.217483	-0.192666
H50	H	-0.466961	-0.521817	0.047843
H51	H	-0.103637	-1.079006	-0.508048
H52	H	-0.414453	-0.891941	0.042472
H53	H	0.197730	-1.243027	0.268152
H54	H	-0.432673	-1.375867	-0.437029
N55	N	-0.095032	-0.551577	0.009703
H56	H	-0.090377	-0.511594	0.078913
H57	H	-0.040856	-0.609517	0.004103
N58	N	0.441013	-1.211575	-0.155737
H59	H	0.518306	-1.210365	-0.148099
H60	H	0.426952	-1.273481	-0.199028
H61	H	-0.046039	-0.736622	0.004693
H62	H	-0.417524	-1.362241	-0.653267
H63	H	-0.069354	-0.933057	0.007104
N64	N	-0.394409	-1.341324	-0.247809
H65	H	-0.435169	-1.378113	-0.299062
H66	H	-0.356888	-1.394673	-0.202547
H67	H	0.398210	-1.237367	0.247613
N68	N	-0.101228	-1.076816	-0.277950
H69	H	-0.052645	-1.032987	-0.338386
H70	H	-0.145671	-1.029701	-0.224303
N71	N	-0.141897	-1.113556	-0.697273
H72	H	-0.179347	-1.060150	-0.742547
H73	H	-0.101145	-1.076832	-0.645966
N74	N	0.282483	-1.209710	-0.241986
H75	H	0.359778	-1.208498	-0.234355
H76	H	0.268421	-1.271613	-0.285280
