data_functionalizedCrystal
_audit_creation_method	'MofGen! by Chris Wilmer'
_symmetry_space_group_name_H-M	'P1'
_symmetry_Int_Tables_number	1
_symmetry_cell_setting	triclinic
loop_
_symmetry_equiv_pos_as_xyz
  x,y,z
_cell_length_a	30.700820
_cell_length_b	30.711266
_cell_length_c	30.700862
_cell_angle_alpha	59.996487
_cell_angle_beta	89.996543
_cell_angle_gamma	59.999927
loop_
_atom_site_label
_atom_site_type_symbol
_atom_site_fract_x
_atom_site_fract_y
_atom_site_fract_z
O1	O	0.298798	0.384093	-0.012980
O2	O	0.235459	0.294925	0.012879
O3	O	0.235458	0.384089	-0.076318
O4	O	0.298800	0.294930	0.076216
O5	O	0.307903	0.311668	-0.076317
O6	O	0.307905	0.222504	0.012879
O7	O	0.371244	0.311672	-0.012980
Cu8	Cu	0.346189	0.260475	-0.000050
Cu9	Cu	0.260514	0.346122	-0.000051
O10	O	0.371245	0.222509	0.076217
C11	C	0.371910	0.390645	-0.018869
C12	C	0.345033	0.360075	-0.015165
C13	C	0.345574	0.443419	-0.019240
C14	C	0.450783	0.390649	-0.018876
C15	C	0.508239	0.360084	-0.015179
C16	C	0.424328	0.443423	-0.019246
C17	C	0.371907	0.469499	-0.018876
C18	C	0.345028	0.523239	-0.015179
C19	C	0.424330	0.364689	-0.019240
C20	C	0.031743	0.071081	0.039174
C21	C	0.058198	0.018309	0.039542
C22	C	0.110620	0.071079	0.039177
C23	C	0.136955	0.018308	0.039544
C24	C	0.110619	-0.007769	0.039174
C25	C	0.058198	0.097037	0.039545
C26	C	-0.158466	0.213078	0.024893
C27	C	-0.212331	0.242108	0.020855
C28	C	-0.239353	0.217192	0.018826
C29	C	-0.297760	0.248672	0.014438
C30	C	-0.212505	0.163242	0.020841
C31	C	-0.158642	0.134212	0.024886
C32	C	-0.131622	0.159133	0.026912
C33	C	0.158783	-0.183634	0.024889
C34	C	0.183609	-0.233444	0.020851
C35	C	0.235554	-0.258430	0.018822
C36	C	0.262474	-0.312431	0.014436
C37	C	0.262675	-0.233607	0.020839
C38	C	0.237853	-0.183806	0.024887
C39	C	0.185902	-0.158820	0.026909
C40	C	0.158787	0.213072	0.024902
C41	C	0.183612	0.242104	0.020859
C42	C	0.235559	0.217187	0.018833
C43	C	0.262478	0.248665	0.014447
C44	C	0.262677	0.163241	0.020845
C45	C	0.237850	0.134213	0.024886
C46	C	0.185905	0.159131	0.026919
C47	C	-0.073217	0.127653	0.031294
C48	C	-0.026662	0.102560	0.034788
C49	C	0.137536	0.102557	0.034793
C50	C	0.158991	0.127648	0.031300
C51	C	0.137534	-0.061769	0.034788
C52	C	0.158989	-0.104815	0.031293
C53	C	0.110282	0.535521	-0.503956
C54	C	0.057860	0.588293	-0.530291
C55	C	0.110282	0.535521	-0.425080
C56	C	0.057861	0.588293	-0.451534
C57	C	0.031406	0.614370	-0.503955
C58	C	0.136617	0.509564	-0.451535
C59	C	0.238045	0.393526	-0.552121
C60	C	0.263047	0.364496	-0.576948
C61	C	0.236094	0.389413	-0.628894
C62	C	0.263196	0.357934	-0.655812
C63	C	0.184141	0.443364	-0.656014
C64	C	0.159146	0.472393	-0.631190
C65	C	0.186101	0.447472	-0.579241
C66	C	-0.158802	0.790238	-0.631716
C67	C	-0.212667	0.840049	-0.656717
C68	C	-0.239691	0.865034	-0.629766
C69	C	-0.298095	0.919035	-0.656865
C70	C	-0.212842	0.840210	-0.577813
C71	C	-0.158977	0.790408	-0.552817
C72	C	-0.131961	0.765423	-0.579774
C73	C	0.238046	0.393525	-0.234872
C74	C	0.263045	0.364491	-0.181004
C75	C	0.236093	0.389408	-0.153982
C76	C	0.263195	0.357928	-0.095575
C77	C	0.184142	0.443354	-0.180828
C78	C	0.159145	0.472383	-0.234693
C79	C	0.186104	0.447466	-0.261713
C80	C	0.158992	0.478951	-0.552326
C81	C	0.137386	0.504042	-0.530872
C82	C	0.137386	0.504042	-0.366675
C83	C	0.158993	0.478950	-0.320120
C84	C	-0.026999	0.668371	-0.531059
C85	C	-0.073554	0.711417	-0.552664
O86	O	0.682981	0.222514	0.012866
O87	O	0.530447	0.311680	-0.012993
O88	O	0.619629	0.222522	0.076204
O89	O	0.593799	0.311673	-0.076331
O90	O	0.619627	0.294947	0.076197
O91	O	0.530445	0.384105	-0.012999
O92	O	0.682979	0.294940	0.012859
Cu93	Cu	0.606712	0.346136	-0.000071
Cu94	Cu	0.606715	0.260484	-0.000063
O95	O	0.593797	0.384098	-0.076337
O96	O	0.307899	0.669889	0.012863
O97	O	0.371239	0.543255	-0.012994
O98	O	0.371236	0.543243	0.076202
O99	O	0.307903	0.669901	-0.076333
O100	O	0.298788	0.543248	0.076196
O101	O	0.298791	0.543260	-0.013000
O102	O	0.235452	0.669894	0.012857
Cu103	Cu	0.260506	0.606577	-0.000072
Cu104	Cu	0.346184	0.606572	-0.000065
O105	O	0.235455	0.669906	-0.076338
O106	O	-0.469885	1.063353	-0.692461
O107	O	-0.317354	0.936712	-0.629124
O108	O	-0.406541	0.936707	-0.629115
O109	O	-0.380698	1.063358	-0.692470
O110	O	-0.406543	0.936709	-0.701561
O111	O	-0.317356	0.936714	-0.701570
O112	O	-0.469888	1.063355	-0.764907
Cu113	Cu	-0.393622	1.000035	-0.739854
Cu114	Cu	-0.393619	1.000033	-0.654177
O115	O	-0.380700	1.063360	-0.764916
O116	O	0.298803	0.294926	-0.764575
O117	O	0.235457	0.384089	-0.701236
O118	O	0.235460	0.294924	-0.701228
O119	O	0.298799	0.384092	-0.764583
O120	O	0.307904	0.222505	-0.628782
O121	O	0.307901	0.311670	-0.628790
O122	O	0.371247	0.222507	-0.692129
Cu123	Cu	0.346189	0.260476	-0.653845
Cu124	Cu	0.260515	0.346120	-0.739520
O125	O	0.371244	0.311672	-0.692138
C126	C	0.450790	0.137110	0.234755
C127	C	0.508246	0.083372	0.261632
C128	C	0.424336	0.163187	0.261091
C129	C	0.371914	0.215960	0.155880
C130	C	0.345035	0.246527	0.098424
C131	C	0.345580	0.241917	0.182336
C132	C	0.371915	0.215959	0.234757
C133	C	0.345037	0.246525	0.261636
C134	C	0.424335	0.163188	0.182334
C135	C	0.625476	0.216000	0.234731
C136	C	0.621771	0.246573	0.261605
C137	C	0.625838	0.163230	0.261069
C138	C	0.625493	0.215987	0.155862
C139	C	0.621807	0.246546	0.098407
C140	C	0.625855	0.163217	0.182319
C141	C	0.625475	0.137148	0.234738
C142	C	0.621769	0.083412	0.261618
C143	C	0.625856	0.241949	0.182312
C144	C	0.371894	0.390627	0.234737
C145	C	0.345013	0.360059	0.261613
C146	C	0.424315	0.364665	0.261074
C147	C	0.371899	0.469481	0.155863
C148	C	0.345023	0.523226	0.098407
C149	C	0.424320	0.443400	0.182320
C150	C	0.450772	0.390623	0.234741
C151	C	0.508227	0.360052	0.261621
C152	C	0.345562	0.443403	0.182316
C153	C	0.567582	0.613982	-0.503964
C154	C	0.567223	0.587897	-0.530294
C155	C	0.567568	0.535140	-0.425087
C156	C	0.567208	0.509175	-0.451537
C157	C	0.567589	0.535126	-0.503956
C158	C	0.567202	0.587912	-0.451545
C159	C	0.581862	0.789857	-0.552141
C160	C	0.585902	0.839668	-0.576970
C161	C	0.587941	0.864646	-0.628914
C162	C	0.592332	0.918647	-0.655834
C163	C	0.585935	0.839814	-0.656029
C164	C	0.581888	0.790013	-0.631203
C165	C	0.579851	0.765034	-0.579256
C166	C	0.581907	0.472672	-0.631699
C167	C	0.585954	0.443810	-0.656695
C168	C	0.587980	0.389855	-0.629742
C169	C	0.592375	0.358552	-0.656835
C170	C	0.585953	0.364766	-0.577790
C171	C	0.581897	0.393632	-0.552799
C172	C	0.579878	0.447587	-0.579760
C173	C	0.581803	0.472745	-0.234887
C174	C	0.585835	0.443894	-0.181021
C175	C	0.587859	0.389938	-0.153997
C176	C	0.592234	0.358651	-0.095591
C177	C	0.585855	0.364835	-0.180838
C178	C	0.581825	0.393686	-0.234702
C179	C	0.579794	0.447646	-0.261724
C180	C	0.575467	0.711029	-0.552338
C181	C	0.571971	0.667983	-0.530882
C182	C	0.571940	0.503858	-0.366684
C183	C	0.575424	0.478924	-0.320130
C184	C	0.571983	0.503827	-0.531054
C185	C	0.575485	0.478881	-0.552655
O186	O	0.593716	0.311734	0.371166
O187	O	0.619577	0.222560	0.307837
O188	O	0.530382	0.311734	0.307818
O189	O	0.682911	0.222560	0.371186
O190	O	0.530399	0.384146	0.235373
O191	O	0.619594	0.294973	0.235392
O192	O	0.593733	0.384146	0.298722
Cu193	Cu	0.606665	0.346171	0.260442
Cu194	Cu	0.606645	0.260535	0.346116
O195	O	0.682928	0.294972	0.298741
C196	C	0.031768	1.071141	-0.503978
C197	C	0.058226	1.097099	-0.530310
C198	C	0.110641	0.992283	-0.425100
C199	C	0.136978	1.018360	-0.451552
C200	C	0.110646	1.071137	-0.503973
C201	C	0.058220	1.018365	-0.451557
C202	C	-0.158442	1.133577	-0.552152
C203	C	-0.212307	1.162436	-0.576980
C204	C	-0.239325	1.216396	-0.628927
C205	C	-0.297732	1.247695	-0.655847
C206	C	-0.212474	1.241493	-0.656045
C207	C	-0.158611	1.212630	-0.631219
C208	C	-0.131595	1.158670	-0.579270
C209	C	0.158822	1.213138	-0.631729
C210	C	0.183651	1.242167	-0.656727
C211	C	0.235595	1.217250	-0.629775
C212	C	0.262518	1.248724	-0.656871
C213	C	0.262713	1.163294	-0.577821
C214	C	0.237888	1.134261	-0.552827
C215	C	0.185937	1.159192	-0.579787
C216	C	0.158794	0.816397	-0.234892
C217	C	0.183615	0.766586	-0.181024
C218	C	0.235562	0.741595	-0.154000
C219	C	0.262476	0.687588	-0.095593
C220	C	0.262682	0.766420	-0.180844
C221	C	0.237859	0.816232	-0.234710
C222	C	0.185915	0.841213	-0.261732
C223	C	-0.073191	1.127380	-0.552352
C224	C	-0.026636	1.102436	-0.530896
C225	C	0.137553	0.938276	-0.366694
C226	C	0.159005	0.895225	-0.320139
C227	C	0.137565	1.102616	-0.531074
C228	C	0.159021	1.127708	-0.552678
H229	H	0.180026	-0.003515	0.040137
C230	C	0.498668	0.430201	0.150970
C231	C	0.452988	0.472870	0.153647
H232	H	0.516362	0.448399	0.133265
H233	H	0.521936	0.394983	0.186040
H234	H	0.488685	0.418292	0.131781
H235	H	0.462972	0.484776	0.172839
H236	H	0.429716	0.508099	0.118571
H237	H	0.259971	1.090329	-0.510529
H238	H	0.445550	0.322197	0.304146
H239	H	0.161528	0.746379	-0.159171
H240	H	0.445569	0.322221	-0.019828
C241	C	0.635929	0.862157	-0.542302
C242	C	0.588113	0.866956	-0.547164
H243	H	0.637292	0.879007	-0.523903
H244	H	0.665204	0.820056	-0.522914
H245	H	0.637714	0.884164	-0.576794
H246	H	0.586330	0.844945	-0.512672
H247	H	0.558830	0.909065	-0.566551
H248	H	0.305342	0.320561	-0.159147
C249	C	0.149732	0.427685	-0.108116
C250	C	0.154488	0.470743	-0.151135
H251	H	0.131420	0.444592	-0.089786
H252	H	0.130301	0.417851	-0.120968
H253	H	0.184251	0.391414	-0.084412
H254	H	0.119968	0.507012	-0.174841
H255	H	0.173918	0.480585	-0.138282
C256	C	0.067481	0.519778	-0.674208
C257	C	0.102042	0.531688	-0.660998
H258	H	0.032226	0.556384	-0.692607
H259	H	0.078512	0.506061	-0.696426
H260	H	0.068260	0.488818	-0.642547
H261	H	0.101266	0.562645	-0.692659
H262	H	0.091008	0.545414	-0.638778
C263	C	0.581252	0.133457	0.322173
C264	C	0.626620	0.133766	0.319209
H265	H	0.581736	0.115262	0.358065
H266	H	0.550158	0.174529	0.300275
H267	H	0.581100	0.110362	0.310198
H268	H	0.626769	0.156865	0.331181
H269	H	0.657722	0.092688	0.341115
C270	C	0.239097	0.905575	-0.283125
C271	C	0.267672	0.843515	-0.264215
H272	H	0.257506	0.922416	-0.301336
H273	H	0.204614	0.927581	-0.306926
H274	H	0.235800	0.908813	-0.253933
H275	H	0.270966	0.840277	-0.293408
H276	H	0.302165	0.821502	-0.240413
C277	C	0.455685	0.176421	0.107985
C278	C	0.453018	0.133731	0.153662
H279	H	0.473399	0.158235	0.090288
H280	H	0.420614	0.211630	0.084717
H281	H	0.474860	0.188340	0.117975
H282	H	0.433840	0.121816	0.143671
H283	H	0.488096	0.098511	0.176934
C284	C	0.467707	0.490451	-0.065900
C285	C	0.452991	0.472896	-0.020051
H286	H	0.485396	0.508650	-0.066397
H287	H	0.490984	0.455225	-0.065726
H288	H	0.436717	0.519391	-0.096673
H289	H	0.483981	0.443952	0.010721
H290	H	0.429712	0.508126	-0.020221
H291	H	0.580196	0.373240	-0.256552
C292	C	0.321261	0.259576	-0.500478
C293	C	0.320146	0.305192	-0.547134
H294	H	0.356512	0.222962	-0.482073
H295	H	0.310234	0.273302	-0.478265
H296	H	0.297801	0.251520	-0.509457
H297	H	0.343604	0.313252	-0.538155
H298	H	0.331180	0.291464	-0.569352
C299	C	0.255146	0.490428	0.181932
C300	C	0.287416	0.472880	0.153637
H301	H	0.219251	0.508631	0.164224
H302	H	0.267106	0.455199	0.216994
H303	H	0.257191	0.519363	0.183758
H304	H	0.285374	0.443941	0.151815
H305	H	0.275453	0.508114	0.118565
C306	C	0.566144	0.434479	-0.371173
C307	C	0.566397	0.451856	-0.422866
H308	H	0.565639	0.399097	-0.353477
H309	H	0.597247	0.425268	-0.351984
H310	H	0.535370	0.467283	-0.373000
H311	H	0.597173	0.419053	-0.421038
H312	H	0.535292	0.461063	-0.442060
H313	H	0.445574	0.141353	0.304165
H314	H	0.587470	0.464335	-0.159169
C315	C	0.255160	0.533421	-0.065900
C316	C	0.287429	0.472882	-0.020043
H317	H	0.219265	0.551607	-0.066397
H318	H	0.267124	0.556517	-0.065737
H319	H	0.257202	0.533191	-0.096667
H320	H	0.285390	0.473112	0.010724
H321	H	0.275462	0.449780	-0.020202
C322	C	0.239079	-0.094457	-0.016070
C323	C	0.267661	-0.156519	0.027100
H324	H	0.257480	-0.077610	-0.014702
H325	H	0.235784	-0.091212	-0.048500
H326	H	0.204591	-0.072456	-0.014278
H327	H	0.302148	-0.178521	0.025306
H328	H	0.270962	-0.159768	0.059539
H329	H	-0.137120	0.770202	-0.510519
C330	C	0.632695	0.821845	-0.714332
C331	C	0.588174	0.867270	-0.713124
H332	H	0.634074	0.838794	-0.749582
H333	H	0.664205	0.807305	-0.690816
H334	H	0.629992	0.788633	-0.703423
H335	H	0.590878	0.900480	-0.724029
H336	H	0.556655	0.881819	-0.736648
H337	H	0.580252	0.769801	-0.653284
C338	C	0.354466	1.076245	-0.534990
C339	C	0.319812	1.135896	-0.548193
H340	H	0.389716	1.059334	-0.516701
H341	H	0.343559	1.051241	-0.512671
H342	H	0.353629	1.077707	-0.566646
H343	H	0.320646	1.134433	-0.516536
H344	H	0.330722	1.160907	-0.570512
H345	H	0.259936	0.090285	0.026531
C346	C	0.566194	0.669272	-0.606072
C347	C	0.566431	0.617352	-0.588437
H348	H	0.565707	0.687452	-0.641965
H349	H	0.535421	0.698217	-0.604044
H350	H	0.597298	0.657353	-0.584170
H351	H	0.535325	0.629271	-0.610337
H352	H	0.597207	0.588401	-0.590469
C353	C	0.067071	1.300192	-0.674576
C354	C	0.101724	1.240536	-0.661365
H355	H	0.031822	1.317106	-0.692874
H356	H	0.067900	1.298737	-0.642928
H357	H	0.077985	1.325193	-0.696895
H358	H	0.090812	1.215534	-0.639043
H359	H	0.100892	1.241988	-0.693018
C360	C	0.581299	0.176418	0.107976
C361	C	0.626660	0.133746	0.153655
H362	H	0.581798	0.158224	0.090281
H363	H	0.550201	0.188327	0.117960
H364	H	0.581142	0.211639	0.084703
H365	H	0.626815	0.098527	0.176930
H366	H	0.657766	0.121829	0.143672
H367	H	0.580246	0.373202	-0.510502
C368	C	0.014506	0.678297	-0.620704
C369	C	0.029201	0.617761	-0.588440
H370	H	-0.003180	0.696488	-0.656603
H371	H	-0.008768	0.701394	-0.608743
H372	H	0.045505	0.678063	-0.618652
H373	H	-0.001798	0.617996	-0.590490
H374	H	0.052477	0.594659	-0.600405
C375	C	0.581308	0.347601	0.107946
C376	C	0.626663	0.299272	0.153633
H377	H	0.581806	0.382988	0.090243
H378	H	0.581158	0.335791	0.084688
H379	H	0.550202	0.356807	0.117926
H380	H	0.657769	0.290062	0.143653
H381	H	0.626819	0.311084	0.176896
C382	C	0.284468	0.347580	0.150982
C383	C	0.287441	0.299252	0.153653
H384	H	0.248578	0.382978	0.133269
H385	H	0.296422	0.335780	0.186053
H386	H	0.306381	0.356761	0.131803
H387	H	0.265531	0.290067	0.172835
H388	H	0.275480	0.311054	0.118576
H389	H	0.036957	-0.003516	0.040138
H390	H	0.036958	0.139499	0.040141
C391	C	0.566156	0.669298	-0.457185
C392	C	0.566389	0.617382	-0.422878
H393	H	0.565650	0.687492	-0.439487
H394	H	0.597264	0.657377	-0.467152
H395	H	0.535388	0.698240	-0.488180
H396	H	0.597159	0.588438	-0.391884
H397	H	0.535277	0.629302	-0.412903
H398	H	0.161567	1.286099	-0.699025
H399	H	0.580146	0.516684	-0.256888
H400	H	-0.136471	0.233374	0.026544
C401	C	0.582232	0.794719	-0.476489
C402	C	0.579621	0.762406	-0.495044
H403	H	0.580847	0.777770	-0.441241
H404	H	0.614667	0.791472	-0.476471
H405	H	0.552947	0.836828	-0.499169
H406	H	0.608908	0.720297	-0.472366
H407	H	0.547182	0.765646	-0.495058
H408	H	0.580260	0.516605	-0.653655
C409	C	0.083126	0.811568	-0.229655
C410	C	0.101693	0.843867	-0.264592
H411	H	0.047872	0.828533	-0.247991
H412	H	0.105787	0.769464	-0.216821
H413	H	0.083117	0.814810	-0.200462
H414	H	0.101704	0.840621	-0.293783
H415	H	0.079025	0.885981	-0.277434
C416	C	0.083660	0.547414	-0.229108
C417	C	0.102039	0.531675	-0.264199
H418	H	0.048405	0.584019	-0.247325
H419	H	0.083716	0.514937	-0.199923
H420	H	0.106391	0.553971	-0.216285
H421	H	0.079310	0.525114	-0.277020
H422	H	0.101979	0.564161	-0.293394
C423	C	0.102972	0.317133	0.021292
C424	C	0.153806	0.301397	0.018652
H425	H	0.084574	0.353735	0.019936
H426	H	0.083589	0.323690	-0.007993
H427	H	0.106280	0.284649	0.053730
H428	H	0.150497	0.333880	-0.013787
H429	H	0.173193	0.294844	0.047939
C430	C	0.585562	0.524832	-0.732174
C431	C	0.588189	0.471383	-0.713793
H432	H	0.586945	0.541851	-0.767422
H433	H	0.553123	0.553961	-0.732138
H434	H	0.614841	0.514929	-0.709430
H435	H	0.558907	0.481287	-0.736534
H436	H	0.620631	0.442248	-0.713832
C437	C	0.592163	0.285420	-0.581063
C438	C	0.588176	0.305461	-0.548160
H439	H	0.593540	0.248803	-0.562768
H440	H	0.561970	0.316437	-0.612711
H441	H	0.623688	0.277417	-0.590017
H442	H	0.556648	0.313468	-0.539209
H443	H	0.618372	0.274437	-0.516502
H444	H	0.304983	0.746067	-0.158839
C445	C	0.592030	0.285506	-0.098192
C446	C	0.588073	0.305529	-0.151137
H447	H	0.593395	0.248898	-0.079859
H448	H	0.623546	0.277501	-0.081222
H449	H	0.561825	0.316539	-0.097590
H450	H	0.618280	0.274498	-0.151739
H451	H	0.556554	0.313532	-0.168112
C452	C	0.212751	0.936971	-0.371184
C453	C	0.195123	0.988894	-0.422881
H454	H	0.248647	0.918780	-0.353487
H455	H	0.190856	0.948886	-0.351999
H456	H	0.210713	0.908030	-0.373006
H457	H	0.197158	1.017837	-0.421058
H458	H	0.217024	0.976980	-0.442070
H459	H	0.116491	0.233365	0.026556
C460	C	-0.022144	1.171831	-0.606083
C461	C	0.029556	1.154436	-0.588451
H462	H	-0.039843	1.207231	-0.641973
H463	H	-0.020331	1.139048	-0.604063
H464	H	-0.041323	1.181022	-0.584175
H465	H	0.048736	1.145241	-0.610358
H466	H	0.027746	1.187227	-0.590476
C467	C	-0.022151	1.022963	-0.457190
C468	C	0.029547	0.988902	-0.422884
H469	H	-0.039849	1.004772	-0.439489
H470	H	-0.041330	1.064028	-0.467164
H471	H	-0.020332	1.023182	-0.488181
H472	H	0.027728	0.988687	-0.391895
H473	H	0.048731	0.947827	-0.412903
H474	H	-0.136450	1.089641	-0.509854
C475	C	-0.216720	0.289512	0.065104
C476	C	-0.241840	0.301410	0.018634
H477	H	-0.234937	0.326125	0.063730
H478	H	-0.217415	0.258564	0.095295
H479	H	-0.180774	0.275788	0.067798
H480	H	-0.277786	0.315129	0.015943
H481	H	-0.241151	0.332368	-0.011565
C482	C	-0.295153	0.172727	0.014639
C483	C	-0.242205	0.135855	0.018614
H484	H	-0.313488	0.155817	0.013262
H485	H	-0.295768	0.174172	0.044837
H486	H	-0.312115	0.213196	-0.016884
H487	H	-0.225242	0.095386	0.050140
H488	H	-0.241588	0.134403	-0.011587
H489	H	-0.234523	0.860255	-0.699015
H490	H	-0.136785	0.090286	0.026529
C491	C	-0.285195	1.348571	-0.713106
C492	C	-0.242170	1.300803	-0.713141
H493	H	-0.303525	1.385189	-0.748356
H494	H	-0.308890	1.337756	-0.700514
H495	H	-0.272346	1.355170	-0.690431
H496	H	-0.255020	1.294202	-0.735814
H497	H	-0.218471	1.311621	-0.725740
H498	H	-0.234164	1.141998	-0.554898
C499	C	-0.154219	1.299881	-0.674230
C500	C	-0.129097	1.240215	-0.661020
H501	H	-0.135996	1.316910	-0.692624
H502	H	-0.190158	1.324788	-0.696453
H503	H	-0.153533	1.298409	-0.642569
H504	H	-0.129788	1.241688	-0.692682
H505	H	-0.093149	1.215302	-0.638796
C506	C	0.083125	-0.188484	0.024503
C507	C	0.101684	-0.156177	0.027121
H508	H	0.047877	-0.171533	0.025883
H509	H	0.083110	-0.185235	-0.007933
H510	H	0.105799	-0.230594	0.053788
H511	H	0.079012	-0.114067	-0.002167
H512	H	0.101696	-0.159420	0.059561
C513	C	0.318549	0.312647	-0.229632
C514	C	0.267675	0.366132	-0.264570
H515	H	0.336836	0.295736	-0.247968
H516	H	0.338001	0.322474	-0.216797
H517	H	0.315310	0.283456	-0.200440
H518	H	0.270914	0.395325	-0.293760
H519	H	0.248218	0.356307	-0.277413
H520	H	0.161524	-0.253650	0.019208
C521	C	0.335837	-0.310024	0.014635
C522	C	0.319774	-0.261070	0.018613
H523	H	0.371086	-0.326974	0.013255
H524	H	0.335005	-0.340828	0.044833
H525	H	0.312317	-0.295466	-0.016888
H526	H	0.343292	-0.275629	0.050138
H527	H	0.320610	-0.230260	-0.011588
H528	H	0.304977	0.142953	0.019195
C529	C	-0.164037	0.795099	-0.712231
C530	C	-0.129102	0.762788	-0.661352
H531	H	-0.145697	0.778153	-0.730525
H532	H	-0.193221	0.791845	-0.708998
H533	H	-0.176879	0.837210	-0.731676
H534	H	-0.116263	0.720677	-0.641905
H535	H	-0.099908	0.766035	-0.664582
C536	C	0.026489	0.575070	-0.377198
C537	C	0.029170	0.617753	-0.422867
H538	H	0.008774	0.593257	-0.359502
H539	H	0.007316	0.563158	-0.387195
H540	H	0.061562	0.539852	-0.353923
H541	H	-0.005904	0.652969	-0.446145
H542	H	0.048342	0.629674	-0.412872
C543	C	0.212369	0.434807	-0.457144
C544	C	0.194746	0.452208	-0.422846
H545	H	0.248251	0.399392	-0.439427
H546	H	0.190446	0.425642	-0.467136
H547	H	0.210371	0.467583	-0.488124
H548	H	0.196740	0.419434	-0.391867
H549	H	0.216675	0.461370	-0.412846
C550	C	0.149763	0.427696	-0.713068
C551	C	0.154518	0.470746	-0.713109
H552	H	0.131470	0.444604	-0.748317
H553	H	0.184277	0.391421	-0.700471
H554	H	0.130308	0.417876	-0.690394
H555	H	0.173976	0.480563	-0.735781
H556	H	0.119998	0.507033	-0.725713
C557	C	0.314323	0.364011	-0.493812
C558	C	0.267677	0.366135	-0.495023
H559	H	0.332611	0.347105	-0.458562
H560	H	0.336640	0.339004	-0.504714
H561	H	0.305349	0.404487	-0.517333
H562	H	0.276651	0.325658	-0.471505
H563	H	0.245355	0.391142	-0.484114
C564	C	-0.295489	0.916627	-0.581094
C565	C	-0.242541	0.867672	-0.548186
H566	H	-0.313825	0.933577	-0.562800
H567	H	-0.296104	0.947431	-0.612739
H568	H	-0.312450	0.902070	-0.590051
H569	H	-0.225579	0.882230	-0.539231
H570	H	-0.241923	0.836863	-0.516530
