data_functionalizedCrystal
_audit_creation_method	'MofGen! by Chris Wilmer'
_symmetry_space_group_name_H-M	'P1'
_symmetry_Int_Tables_number	1
_symmetry_cell_setting	triclinic
loop_
_symmetry_equiv_pos_as_xyz
  x,y,z
_cell_length_a	13.032721
_cell_length_b	12.759401
_cell_length_c	12.759393
_cell_angle_alpha	89.979434
_cell_angle_beta	82.850774
_cell_angle_gamma	82.797506
loop_
_atom_site_label
_atom_site_type_symbol
_atom_site_fract_x
_atom_site_fract_y
_atom_site_fract_z
Zn1	Zn	-0.416035	-1.553101	0.647100
Zn2	Zn	0.083965	-1.053101	1.147100
Zn3	Zn	-0.590813	-1.530658	0.493723
Zn4	Zn	-0.090813	-1.030658	0.993723
Zn5	Zn	-0.416080	-1.377394	0.471442
Zn6	Zn	0.083920	-0.877394	0.971442
Zn7	Zn	-0.590730	-1.355068	0.669351
Zn8	Zn	-0.090730	-0.855068	1.169351
O9	O	-0.503414	-1.454055	0.570404
O10	O	-0.003414	-0.954055	1.070404
O11	O	-0.439235	-1.697143	0.626766
O12	O	0.060765	-1.197143	1.126766
O13	O	-0.567688	-1.510278	0.343753
O14	O	-0.067688	-1.010278	0.843753
O15	O	-0.269837	-1.419439	0.476106
O16	O	0.230163	-0.919439	0.976106
O17	O	-0.567644	-1.680654	0.514081
O18	O	-0.067644	-1.180654	1.014081
O19	O	-0.269804	-1.548530	0.605161
O20	O	0.230196	-1.048530	1.105161
O21	O	-0.439313	-1.397676	0.327383
O22	O	0.060687	-0.897676	0.827383
O23	O	-0.439232	-1.227414	0.497682
O24	O	0.060768	-0.727414	0.997682
O25	O	-0.567502	-1.381386	0.813413
O26	O	-0.067502	-0.881386	1.313413
O27	O	-0.567546	-1.211010	0.643085
O28	O	-0.067546	-0.711010	1.143085
O29	O	-0.439155	-1.526881	0.797065
O30	O	0.060845	-1.026881	1.297065
O31	O	-0.737039	-1.488629	0.535657
O32	O	-0.237039	-0.988629	1.035657
O33	O	-0.736978	-1.359624	0.664690
O34	O	-0.236978	-0.859624	1.164690
C35	C	-0.503386	-1.181091	0.570381
C36	C	-0.003386	-0.681091	1.070381
C37	C	-0.503399	-1.064313	0.570399
C38	C	-0.003399	-0.564313	1.070399
C39	C	-0.436655	-1.018023	0.629192
C40	C	0.063345	-0.518023	1.129192
C41	C	-0.436662	-0.908298	0.629199
C42	C	0.063338	-0.408298	1.129199
C43	C	-0.570165	-0.891162	0.511617
C44	C	-0.070165	-0.391162	1.011617
C45	C	-0.570152	-1.000886	0.511605
C46	C	-0.070152	-0.500886	1.011605
C47	C	-0.774926	-1.419296	0.605029
C48	C	-0.274926	-0.919296	1.105029
C49	C	-0.891080	-1.404523	0.619877
C50	C	-0.391080	-0.904523	1.119877
C51	C	-0.942860	-1.461822	0.562702
C52	C	-0.442860	-0.961822	1.062702
C53	C	-1.062911	-1.446554	0.578046
C54	C	-0.562911	-0.946554	1.078046
C55	C	-0.230843	-1.488978	0.535666
C56	C	0.269157	-0.988978	1.035666
C57	C	-0.114689	-1.503861	0.520863
C58	C	0.385311	-1.003861	1.020863
C59	C	-0.503314	-1.454147	0.844424
C60	C	-0.003314	-0.954147	1.344424
C61	C	-0.503271	-1.454186	0.961196
C62	C	-0.003271	-0.954186	1.461196
C63	C	-0.503434	-0.728086	0.570422
C64	C	-0.003434	-0.228086	1.070422
C65	C	-0.503418	-0.844865	0.570417
C66	C	-0.003418	-0.344865	1.070417
C67	C	-0.503439	-1.454034	0.297439
C68	C	-0.003439	-0.954034	0.797439
C69	C	-0.503187	-1.454236	0.180631
C70	C	-0.003187	-0.954236	0.680631
C71	C	-0.436430	-1.529951	1.007546
C72	C	0.063570	-1.029951	1.507546
C73	C	-0.436385	-1.529974	1.117264
C74	C	0.063615	-1.029974	1.617264
C75	C	-0.570032	-1.378463	1.134274
C76	C	-0.070032	-0.878463	1.634274
C77	C	-0.570071	-1.378436	1.024557
C78	C	-0.070071	-0.878436	1.524557
H79	H	-0.624504	-1.038576	0.463723
H80	H	-0.124504	-0.538576	0.963723
H81	H	-1.070148	-1.564228	0.460552
H82	H	-0.570148	-1.064228	0.960552
H83	H	-0.898317	-1.522185	0.502395
H84	H	-0.398317	-1.022185	1.002395
Br85	Br	-0.965314	-1.303924	0.720411
Br86	Br	-0.465314	-0.803924	1.220411
Br87	Br	-1.137142	-1.345951	0.678585
Br88	Br	-0.637142	-0.845951	1.178585
Br89	Br	-0.345772	-1.632751	0.921558
Br90	Br	0.154228	-1.132751	1.421558
Br91	Br	-0.660755	-0.805077	0.431831
Br92	Br	-0.160755	-0.305077	0.931831
H93	H	-0.381954	-1.591669	1.154996
H94	H	0.118046	-1.091669	1.654996
H95	H	-0.382297	-1.069663	0.677063
H96	H	0.117703	-0.569663	1.177063
Br97	Br	-0.660687	-1.275669	1.220270
Br98	Br	-0.160687	-0.775669	1.720270
Br99	Br	-0.346073	-0.845480	0.708988
Br100	Br	0.153927	-0.345480	1.208988
Br101	Br	-0.660781	-1.275596	0.961646
Br102	Br	-0.160781	-0.775596	1.461646
