data_functionalizedCrystal
_audit_creation_method	'MofGen! by Chris Wilmer'
_symmetry_space_group_name_H-M	'P1'
_symmetry_Int_Tables_number	1
_symmetry_cell_setting	triclinic
loop_
_symmetry_equiv_pos_as_xyz
  x,y,z
_cell_length_a	16.120530
_cell_length_b	16.120484
_cell_length_c	16.120256
_cell_angle_alpha	84.383827
_cell_angle_beta	89.871735
_cell_angle_gamma	90.167327
loop_
_atom_site_label
_atom_site_type_symbol
_atom_site_fract_x
_atom_site_fract_y
_atom_site_fract_z
Zn1	Zn	1.224986	-0.422281	0.554816
Zn2	Zn	1.224882	-0.554961	0.422121
Zn3	Zn	1.093725	-0.408193	0.408058
Zn4	Zn	1.078879	-0.554198	0.554054
O5	O	1.155618	-0.484908	0.484762
O6	O	1.341008	-0.446097	0.543418
O7	O	1.213653	-0.529915	0.303622
O8	O	1.117394	-0.293431	0.421960
O9	O	1.340931	-0.543577	0.445927
O10	O	1.213831	-0.303782	0.529783
O11	O	1.117293	-0.422085	0.293290
O12	O	0.975720	-0.421345	0.421221
O13	O	1.092090	-0.542275	0.670788
O14	O	0.964812	-0.528614	0.528483
O15	O	1.199435	-0.445357	0.671349
O16	O	1.199257	-0.671491	0.445188
O17	O	1.091989	-0.670930	0.542119
C18	C	0.940179	-0.473368	0.473243
C19	C	0.848012	-0.468453	0.468336
C20	C	1.144022	-0.701453	0.495116
C21	C	1.139136	-0.794098	0.499577
C22	C	1.130219	-0.963721	0.507739
C23	C	1.181165	-1.005263	0.461807
C24	C	1.176203	-1.099648	0.466348
C25	C	1.135179	-0.869328	0.503199
C26	C	0.679260	-0.459459	0.459384
C27	C	0.632809	-0.510422	0.510204
C28	C	0.538910	-0.505418	0.505223
C29	C	0.773168	-0.464462	0.464364
C30	C	1.371898	-0.496494	0.496326
C31	C	1.464063	-0.501431	0.501254
C32	C	1.144118	-0.495303	0.702156
C33	C	1.139217	-0.499732	0.794796
C34	C	1.167280	-0.267520	0.474388
C35	C	1.172250	-0.174881	0.469967
C36	C	1.167124	-0.474497	0.268214
C37	C	1.172198	-0.469841	0.175572
C38	C	1.181174	-0.461788	1.005960
C39	C	1.130244	-0.507783	0.964402
C40	C	1.135238	-0.503302	0.870024
C41	C	1.176181	-0.466268	1.100346
H42	H	1.082879	-0.999038	0.550470
C43	C	1.244191	-0.404744	0.958782
C44	C	1.202708	-0.346495	0.903705
C45	C	1.260735	-0.293945	0.860212
H46	H	1.275524	-0.376391	0.997166
H47	H	1.280355	-0.436966	0.928240
H48	H	1.166559	-0.314277	0.934245
H49	H	1.171380	-0.374824	0.865305
H50	H	1.296898	-0.326167	0.829671
H51	H	1.292064	-0.265599	0.898603
H52	H	1.232597	-0.254423	0.822833
H53	H	1.228507	-0.969944	0.419071
C54	C	1.066981	-0.564673	1.011414
C55	C	0.987000	-0.541148	0.985069
C56	C	0.928708	-0.593529	1.028372
H57	H	1.076743	-0.620685	1.000565
H58	H	1.071923	-0.560137	1.069515
H59	H	0.982061	-0.545691	0.926982
H60	H	0.977212	-0.485144	0.995920
H61	H	0.933650	-0.588993	1.086473
H62	H	0.938478	-0.649539	1.017520
H63	H	0.874435	-0.577570	1.010509
H64	H	0.663562	-0.557811	0.557456
C65	C	0.638107	-0.396360	0.396408
C66	C	0.551804	-0.403905	0.403909
C67	C	0.513856	-0.345803	0.345902
H68	H	0.654503	-0.341661	0.406691
H69	H	0.654502	-0.406539	0.341682
H70	H	0.535416	-0.393720	0.458623
H71	H	0.535385	-0.458591	0.393619
H72	H	0.530251	-0.355982	0.291176
H73	H	0.530258	-0.291108	0.356190
H74	H	0.455296	-0.350920	0.350979
