data_functionalizedCrystal
_audit_creation_method	'MofGen! by Chris Wilmer'
_symmetry_space_group_name_H-M	'P1'
_symmetry_Int_Tables_number	1
_symmetry_cell_setting	triclinic
loop_
_symmetry_equiv_pos_as_xyz
  x,y,z
_cell_length_a	6.817900
_cell_length_b	9.582860
_cell_length_c	10.943624
_cell_angle_alpha	90.879795
_cell_angle_beta	108.838799
_cell_angle_gamma	111.206767
loop_
_atom_site_label
_atom_site_type_symbol
_atom_site_fract_x
_atom_site_fract_y
_atom_site_fract_z
V1	V	-4.128075	-0.207016	-0.402315
O2	O	-4.072597	0.009988	-0.394900
O3	O	-4.118391	-0.410518	-0.399329
O4	O	-4.105843	-0.203814	-0.577885
O5	O	-4.085232	-0.198146	-0.215108
V6	V	-4.603295	-0.181062	-0.379952
O7	O	-4.407545	-0.263949	-0.451370
O8	O	-4.774022	-0.124130	-0.330897
O9	O	-4.389772	0.022439	-0.382937
O10	O	-4.776169	-0.398067	-0.387367
O11	O	-4.763534	-0.189933	-0.567158
O12	O	-4.402320	-0.184264	-0.204381
C13	C	-3.971963	-0.460127	-0.392922
C14	C	-4.045507	-0.626492	-0.391651
C15	C	-3.955955	-0.196455	-0.620686
C16	C	-4.019318	-0.195183	-0.764214
C17	C	-3.863628	-0.186621	-0.841371
C18	C	-4.060709	-0.313713	-0.947216
C19	C	-3.935165	-0.065840	-0.914112
C20	C	-4.215617	-0.322395	-0.868182
C21	C	-4.089986	-0.074410	-0.835055
C22	C	-4.287206	-0.201538	-0.940870
C23	C	-4.199543	0.072041	-0.389341
C24	C	-4.105239	0.238404	-0.390620
C25	C	-4.215550	-0.191629	-0.161574
C26	C	-4.131424	-0.192892	-0.018044
H27	H	-3.684054	-0.180484	-0.797930
C28	C	-4.105671	0.062257	-0.769006
H29	H	-4.212439	0.027426	-0.726680
H30	H	-3.962787	0.122815	-0.706472
H31	H	-4.151486	0.120842	-0.833122
C32	C	-4.529951	-0.210083	-0.999288
H33	H	-4.530027	-0.122445	-1.038693
H34	H	-4.618597	-0.297760	-1.063236
H35	H	-4.590973	-0.215293	-0.931962
H36	H	-4.048994	-0.414882	-0.996049
C37	C	-3.775838	0.080648	-0.942253
H38	H	-3.625988	0.085764	-0.908018
H39	H	-3.818369	0.080877	-1.033883
H40	H	-3.784827	0.165681	-0.902188
H41	H	-4.333595	-0.430941	-0.847513
