data_functionalizedCrystal
_audit_creation_method	'MofGen! by Chris Wilmer'
_symmetry_space_group_name_H-M	'P1'
_symmetry_Int_Tables_number	1
_symmetry_cell_setting	triclinic
loop_
_symmetry_equiv_pos_as_xyz
  x,y,z
_cell_length_a	16.120530
_cell_length_b	12.759400
_cell_length_c	12.759393
_cell_angle_alpha	90.031564
_cell_angle_beta	92.919000
_cell_angle_gamma	87.110362
loop_
_atom_site_label
_atom_site_type_symbol
_atom_site_fract_x
_atom_site_fract_y
_atom_site_fract_z
Zn1	Zn	1.274626	-0.499755	0.675426
Zn2	Zn	1.274542	-0.675468	0.499741
Zn3	Zn	1.135203	-0.490889	0.490856
Zn4	Zn	1.135194	-0.666471	0.666478
O5	O	1.204891	-0.583146	0.583125
O6	O	1.391282	-0.530539	0.659583
O7	O	1.256027	-0.651038	0.351539
O8	O	1.153736	-0.345047	0.515367
O9	O	1.391220	-0.659635	0.530508
O10	O	1.256170	-0.351560	0.650969
O11	O	1.153655	-0.515429	0.345012
O12	O	1.018535	-0.506705	0.506690
O13	O	1.153721	-0.644301	0.814688
O14	O	1.018528	-0.635704	0.635719
O15	O	1.256161	-0.521815	0.821262
O16	O	1.256019	-0.821293	0.521832
O17	O	1.153640	-0.814683	0.644333
C18	C	0.988281	-0.569267	0.569270
C19	C	0.895614	-0.563355	0.563368
C20	C	1.204842	-0.856110	0.583100
C21	C	1.204897	-0.972890	0.583129
C22	C	1.258265	-1.031163	0.519421
C23	C	1.258316	-1.140890	0.519457
C24	C	1.151624	-1.134062	0.646912
C25	C	1.151578	-1.024337	0.646881
C26	C	1.319860	-1.035106	0.445832
C27	C	1.319911	-1.144833	0.445868
C28	C	0.725951	-0.552536	0.552601
C29	C	0.684672	-0.613833	0.613726
C30	C	0.590265	-0.607813	0.607735
C31	C	0.820366	-0.558555	0.558590
C32	C	1.422347	-0.597080	0.597035
C33	C	1.515014	-0.603017	0.602962
C34	C	1.204950	-0.583044	0.857162
C35	C	1.204974	-0.583000	0.973941
C36	C	1.204964	-0.309117	0.583175
C37	C	1.204994	-0.192343	0.583196
C38	C	1.204881	-0.583175	0.310157
C39	C	1.205018	-0.582933	0.193390
C40	C	1.258322	-0.519216	1.032228
C41	C	1.258342	-0.519179	1.141953
C42	C	1.151664	-0.646720	1.135095
C43	C	1.151640	-0.646750	1.025371
C44	C	1.319915	-0.445584	1.036189
C45	C	1.319935	-0.445547	1.145914
H46	H	1.108130	-0.976893	0.698767
C47	C	1.217303	-1.142128	0.302599
C48	C	1.296619	-1.183672	0.334529
H49	H	1.202924	-1.166113	0.233870
H50	H	1.217273	-1.067685	0.302572
H51	H	1.177920	-1.164427	0.349696
H52	H	1.336004	-1.161367	0.287436
H53	H	1.296656	-1.258131	0.334548
C54	C	1.459939	-0.501831	1.109713
C55	C	1.407096	-0.480555	1.191694
H56	H	1.513744	-0.523450	1.137977
H57	H	1.463465	-0.440331	1.068599
H58	H	1.438451	-0.556156	1.066972
H59	H	1.428581	-0.426225	1.234430
H60	H	1.403573	-0.542063	1.232825
C61	C	1.268270	-0.269369	1.106872
C62	C	1.288763	-0.339187	1.189897
H63	H	1.249031	-0.203709	1.134029
H64	H	1.225801	-0.297062	1.062253
H65	H	1.316088	-0.259976	1.068036
H66	H	1.240943	-0.348586	1.228728
H67	H	1.331237	-0.311488	1.234534
C68	C	0.782785	-0.634747	0.761128
C69	C	0.732672	-0.690786	0.690442
H70	H	0.812423	-0.682257	0.808481
H71	H	0.748839	-0.586910	0.799285
H72	H	0.821089	-0.597081	0.723556
H73	H	0.694364	-0.728446	0.728014
H74	H	0.766620	-0.738641	0.652281
C75	C	1.104323	-1.299232	0.703555
C76	C	1.093013	-1.190616	0.716978
H77	H	1.068134	-1.334142	0.746807
H78	H	1.160335	-1.320720	0.722577
H79	H	1.092158	-1.316496	0.632176
H80	H	1.105185	-1.173351	0.788356
H81	H	1.036989	-1.169120	0.697963
H82	H	1.381233	-0.478676	1.006071
C83	C	1.104333	-0.703307	1.300249
C84	C	1.093048	-0.716801	1.191631
H85	H	1.068149	-0.746581	1.335148
H86	H	1.092151	-0.631939	1.317462
H87	H	1.160352	-0.722268	1.321800
H88	H	1.037031	-0.697833	1.170079
H89	H	1.105224	-0.788185	1.174410
H90	H	1.384409	-1.009378	0.471808
C91	C	1.351243	-0.929474	0.298703
C92	C	1.288664	-0.987265	0.339457
H93	H	1.331979	-0.899933	0.233035
H94	H	1.399071	-0.974404	0.289331
H95	H	1.365109	-0.874879	0.346099
H96	H	1.274803	-1.041866	0.292064
H97	H	1.240822	-0.942332	0.348823
H98	H	1.381254	-1.182703	0.479000
H99	H	0.690392	-0.495544	0.495775
C100	C	1.046180	-0.772791	1.029616
C101	C	1.092986	-0.716846	0.961300
H102	H	1.009968	-0.816067	0.990059
H103	H	1.014325	-0.724953	1.070389
H104	H	1.082505	-0.815307	1.074721
H105	H	1.056660	-0.674324	0.916200
H106	H	1.124843	-0.764690	0.920509
H107	H	1.302641	-0.363115	1.005329
