data_functionalizedCrystal
_audit_creation_method	'MofGen! by Chris Wilmer'
_symmetry_space_group_name_H-M	'P1'
_symmetry_Int_Tables_number	1
_symmetry_cell_setting	triclinic
loop_
_symmetry_equiv_pos_as_xyz
  x,y,z
_cell_length_a	12.759401
_cell_length_b	12.759393
_cell_length_c	12.759400
_cell_angle_alpha	89.969553
_cell_angle_beta	90.012280
_cell_angle_gamma	89.980316
loop_
_atom_site_label
_atom_site_type_symbol
_atom_site_fract_x
_atom_site_fract_y
_atom_site_fract_z
Zn1	Zn	1.606267	-0.594023	-0.418229
Zn2	Zn	2.106267	-0.094023	0.081771
Zn3	Zn	1.606166	-0.418346	-0.593948
Zn4	Zn	2.106166	0.081654	-0.093948
Zn5	Zn	1.430569	-0.418359	-0.418281
Zn6	Zn	1.930569	0.081641	0.081719
Zn7	Zn	1.430562	-0.593984	-0.593864
Zn8	Zn	1.930562	-0.093984	-0.093864
O9	O	1.518391	-0.506178	-0.506080
O10	O	2.018391	-0.006178	-0.006080
O11	O	1.753274	-0.570730	-0.441552
O12	O	2.253274	-0.070730	0.058448
O13	O	1.582833	-0.271327	-0.570702
O14	O	2.082833	0.228673	-0.070702
O15	O	1.453920	-0.441682	-0.271253
O16	O	1.953920	0.058318	0.228747
O17	O	1.753200	-0.441661	-0.570652
O18	O	2.253200	0.058339	-0.070652
O19	O	1.583005	-0.570742	-0.271215
O20	O	2.083005	-0.070742	0.228785
O21	O	1.453822	-0.271336	-0.441640
O22	O	1.953822	0.228664	0.058360
O23	O	1.283547	-0.441645	-0.441559
O24	O	1.783547	0.058355	0.058441
O25	O	1.453909	-0.741010	-0.570509
O26	O	1.953909	-0.241010	-0.070509
O27	O	1.283542	-0.570676	-0.570559
O28	O	1.783542	-0.070676	-0.070559
O29	O	1.582998	-0.741039	-0.441471
O30	O	2.082998	-0.241039	0.058529
O31	O	1.582826	-0.441624	-0.740958
O32	O	2.082826	0.058376	-0.240958
O33	O	1.453811	-0.570664	-0.740896
O34	O	1.953811	-0.070664	-0.240896
C35	C	1.245423	-0.506158	-0.506056
C36	C	1.745423	-0.006158	-0.006056
C37	C	1.128647	-0.506174	-0.506071
C38	C	1.628647	-0.006174	-0.006071
C39	C	1.073756	-0.439111	-0.438812
C40	C	1.573756	0.060889	0.061188
C41	C	0.964032	-0.439125	-0.438837
C42	C	1.464032	0.060875	0.061163
C43	C	0.964099	-0.573273	-0.573383
C44	C	1.464099	-0.073273	-0.073383
C45	C	1.073821	-0.573254	-0.573362
C46	C	1.573821	-0.073254	-0.073362
C47	C	1.128582	-0.372032	-0.371521
C48	C	1.628582	0.127968	0.128479
C49	C	1.073692	-0.304964	-0.304256
C50	C	1.573692	0.195036	0.195744
C51	C	0.963968	-0.304978	-0.304281
C52	C	1.463968	0.195022	0.195719
C53	C	0.909134	-0.372059	-0.371571
C54	C	1.409134	0.127941	0.128429
C55	C	1.518464	-0.780211	-0.505974
C56	C	2.018464	-0.280211	-0.005974
C57	C	1.518496	-0.896988	-0.505929
C58	C	2.018496	-0.396988	-0.005929
C59	C	1.585722	-0.951867	-0.438733
C60	C	2.085722	-0.451867	0.061267
C61	C	1.585747	-1.061591	-0.438695
C62	C	2.085747	-0.561591	0.061305
C63	C	1.451316	-1.061548	-0.573059
C64	C	1.951316	-0.561548	-0.073059
C65	C	1.451287	-0.951826	-0.573091
C66	C	1.951287	-0.451826	-0.073091
C67	C	1.652930	-0.897029	-0.371571
C68	C	2.152930	-0.397029	0.128429
C69	C	1.720163	-0.951907	-0.304370
C70	C	2.220163	-0.451907	0.195630
C71	C	1.720188	-1.061631	-0.304332
C72	C	2.220188	-0.561631	0.195668
C73	C	1.652980	-1.116477	-0.371495
C74	C	2.152980	-0.616477	0.128505
C75	C	1.792424	-0.506199	-0.506106
C76	C	2.292424	-0.006199	-0.006106
C77	C	1.909201	-0.506207	-0.506116
C78	C	2.409201	-0.006207	-0.006116
C79	C	1.518336	-0.506161	-0.779048
C80	C	2.018336	-0.006161	-0.279048
C81	C	1.518408	-0.506189	-0.895824
C82	C	2.018408	-0.006189	-0.395824
C83	C	1.518378	-0.233211	-0.506110
C84	C	2.018378	0.266789	-0.006110
C85	C	1.518550	-0.116434	-0.505859
C86	C	2.018550	0.383566	-0.005859
C87	C	1.585589	-0.573446	-0.950587
C88	C	2.085589	-0.073446	-0.450587
C89	C	1.585638	-0.573471	-1.060311
C90	C	2.085638	-0.073471	-0.560311
C91	C	1.451322	-0.438975	-1.060500
C92	C	1.951322	0.061025	-0.560500
C93	C	1.451269	-0.438956	-0.950778
C94	C	1.951269	0.061044	-0.450778
C95	C	1.663138	-0.651093	-0.950479
C96	C	2.163138	-0.151093	-0.450479
C97	C	1.663187	-0.651119	-1.060203
C98	C	2.163187	-0.151119	-0.560203
C99	C	1.518475	-0.506218	-0.232047
C100	C	2.018475	-0.006218	0.267953
C101	C	1.518510	-0.506235	-0.115271
C102	C	2.018510	-0.006235	0.384729
H103	H	0.919279	-0.250361	-0.249517
H104	H	1.419279	0.249639	0.250483
H105	H	1.396659	-0.384237	-1.105257
H106	H	1.896659	0.115763	-0.605257
O107	O	1.133027	-0.645619	-0.645875
O108	O	1.633027	-0.145619	-0.145875
H109	H	1.218534	-0.634336	-0.634552
H110	H	1.718534	-0.134336	-0.134552
H111	H	1.744584	-0.629406	-1.089940
H112	H	2.244584	-0.129406	-0.589940
H113	H	1.652994	-1.205822	-0.371447
H114	H	2.152994	-0.705822	0.128553
O115	O	1.652915	-0.778684	-0.371606
O116	O	2.152915	-0.278684	0.128394
H117	H	1.674121	-0.749746	-0.450862
H118	H	2.174121	-0.249746	0.049138
H119	H	1.396529	-0.907143	-0.627792
H120	H	1.896529	-0.407143	-0.127792
H121	H	1.774924	-1.106311	-0.249606
H122	H	2.274924	-0.606311	0.250394
H123	H	1.396599	-1.106212	-0.627740
H124	H	1.896599	-0.606212	-0.127740
O125	O	1.246927	-0.372005	-0.371498
O126	O	1.746927	0.127995	0.128502
H127	H	1.275900	-0.451279	-0.350353
H128	H	1.775900	0.048721	0.149647
H129	H	1.641291	-0.732440	-0.920660
H130	H	2.141291	-0.232440	-0.420660
H131	H	1.118345	-0.250343	-0.249477
H132	H	1.618345	0.249657	0.250523
H133	H	1.396556	-0.384200	-0.906192
H134	H	1.896556	0.115800	-0.406192
H135	H	0.819789	-0.372059	-0.371591
H136	H	1.319789	0.127941	0.128409
O137	O	0.904964	-0.645634	-0.645946
O138	O	1.404964	-0.145634	-0.145946
H139	H	0.819446	-0.634389	-0.634651
H140	H	1.319446	-0.134389	-0.134651
O141	O	1.624552	-0.753479	-1.105244
O142	O	2.124552	-0.253479	-0.605244
H143	H	1.687108	-0.789007	-1.154133
H144	H	2.187108	-0.289007	-0.654133
H145	H	1.774874	-0.907245	-0.249682
H146	H	2.274874	-0.407245	0.250318
O147	O	1.765517	-0.612576	-0.905338
O148	O	2.265517	-0.112576	-0.405338
H149	H	1.819840	-0.592176	-0.970140
H150	H	2.319840	-0.092176	-0.470140
