data_functionalizedCrystal
_audit_creation_method	'MofGen! by Chris Wilmer'
_symmetry_space_group_name_H-M	'P1'
_symmetry_Int_Tables_number	1
_symmetry_cell_setting	triclinic
loop_
_symmetry_equiv_pos_as_xyz
  x,y,z
_cell_length_a	12.759401
_cell_length_b	16.959453
_cell_length_c	12.759393
_cell_angle_alpha	90.032868
_cell_angle_beta	90.019814
_cell_angle_gamma	90.021513
loop_
_atom_site_label
_atom_site_type_symbol
_atom_site_fract_x
_atom_site_fract_y
_atom_site_fract_z
Zn1	Zn	1.606216	-0.314620	0.593995
Zn2	Zn	1.606094	-0.446816	0.418304
Zn3	Zn	1.430518	-0.314659	0.418330
Zn4	Zn	1.430491	-0.446764	0.593941
O5	O	1.518330	-0.380715	0.506143
O6	O	1.753221	-0.332161	0.570701
O7	O	1.582765	-0.429324	0.271287
O8	O	1.453888	-0.204043	0.441665
O9	O	1.753132	-0.429286	0.441622
O10	O	1.582972	-0.204014	0.570726
O11	O	1.453770	-0.332229	0.271305
O12	O	1.283494	-0.332178	0.441614
O13	O	1.453840	-0.429196	0.740970
O14	O	1.283473	-0.429234	0.570635
O15	O	1.582945	-0.332110	0.741009
O16	O	1.582738	-0.557420	0.441570
O17	O	1.453722	-0.557382	0.570610
C18	C	1.245362	-0.380705	0.506122
C19	C	1.128586	-0.380720	0.506138
C20	C	1.518242	-0.586081	0.506104
C21	C	1.518301	-0.673938	0.506123
C22	C	1.073741	-0.431334	0.573213
C23	C	0.964017	-0.431337	0.573234
C24	C	0.963992	-0.330110	0.439095
C25	C	1.073715	-0.330103	0.439080
C26	C	0.814115	-0.459701	0.697092
C27	C	0.759266	-0.510328	0.764159
C28	C	0.794854	-0.587467	0.780100
C29	C	0.885289	-0.613995	0.728960
C30	C	0.940132	-0.563373	0.661886
C31	C	0.904546	-0.486223	0.645964
C32	C	1.223618	-0.301747	0.315220
C33	C	1.278464	-0.251128	0.248140
C34	C	1.242878	-0.173988	0.232188
C35	C	1.152439	-0.147462	0.283309
C36	C	1.097594	-0.198081	0.350390
C37	C	1.133187	-0.275221	0.366344
C38	C	1.585630	-1.045340	0.573471
C39	C	1.451323	-1.045487	0.438970
C40	C	1.451284	-0.962941	0.438946
C41	C	1.518418	-0.921591	0.506187
C42	C	1.585591	-0.962786	0.573451
C43	C	1.384105	-0.921739	0.371690
C44	C	1.384062	-0.839188	0.371664
C45	C	1.451202	-0.797836	0.438900
C46	C	1.518379	-0.839037	0.506167
C47	C	1.585513	-0.797687	0.573407
C48	C	1.652696	-0.838886	0.640669
C49	C	1.652731	-0.921434	0.640687
C50	C	1.451167	-0.715288	0.438882
C51	C	1.585474	-0.715133	0.573387
C52	C	1.792363	-0.380725	0.506164
C53	C	1.909140	-0.380729	0.506173
C54	C	1.518403	-0.380643	0.780176
C55	C	1.518434	-0.380612	0.896953
C56	C	1.518446	-0.174547	0.506204
C57	C	1.518496	-0.086690	0.506231
C58	C	1.518317	-0.380729	0.233175
C59	C	1.518490	-0.380537	0.116399
C60	C	1.585605	-0.431147	0.951809
C61	C	1.585636	-0.431108	1.061533
C62	C	1.451316	-0.329997	1.061535
C63	C	1.451291	-0.330032	0.951813
C64	C	1.709559	-0.459307	1.211493
C65	C	1.776721	-0.509855	1.266353
C66	C	1.792797	-0.586993	1.230729
C67	C	1.741697	-0.613601	1.140248
C68	C	1.674527	-0.563057	1.085394
C69	C	1.658470	-0.485908	1.121016
C70	C	1.327367	-0.301841	0.801851
C71	C	1.260191	-0.251302	0.746995
C72	C	1.244104	-0.174161	0.782616
C73	C	1.295186	-0.147557	0.873101
C74	C	1.362361	-0.198097	0.927957
C75	C	1.378451	-0.275236	0.892329
H76	H	1.118414	-0.472548	0.627819
F77	F	1.379866	-1.089497	0.367425
H78	H	1.329360	-0.805649	0.316895
F79	F	1.312644	-0.965751	0.300151
H80	H	1.396463	-0.681747	0.384123
H81	H	1.640331	-1.078887	0.628231
F82	F	1.758800	-0.695707	1.102349
F83	F	1.692467	-0.377203	1.249404
F84	F	0.905585	-0.276244	0.367730
H85	H	0.785137	-0.396886	0.684129
H86	H	1.632918	-0.584722	1.011729
H87	H	1.352103	-0.272732	0.206514
F88	F	1.657068	-0.484977	0.893426
H89	H	1.218588	-0.272973	0.673324
H90	H	1.847476	-0.628152	1.275409
H91	H	1.818328	-0.488183	1.340022
H92	H	1.396648	-0.288818	1.106216
H93	H	1.403968	-0.176425	1.001626
F94	F	1.278063	-0.065456	0.911017
F95	F	1.344489	-0.383944	0.763931
F96	F	1.036372	-0.591602	0.607459
F97	F	0.923149	-0.696103	0.745918
F98	F	1.172604	-0.120375	0.724231
F99	F	0.736480	-0.641345	0.851483
H100	H	1.023959	-0.176476	0.392023
H101	H	1.640147	-0.681471	0.628139
H102	H	1.252608	-0.364559	0.328213
H103	H	0.685634	-0.488721	0.805798
H104	H	1.287538	-0.132777	0.177556
F105	F	1.724134	-0.794868	0.712238
F106	F	1.114557	-0.065363	0.266326
H107	H	1.707427	-0.954986	0.695449
