data_functionalizedCrystal
_audit_creation_method	'MofGen! by Chris Wilmer'
_symmetry_space_group_name_H-M	'P1'
_symmetry_Int_Tables_number	1
_symmetry_cell_setting	triclinic
loop_
_symmetry_equiv_pos_as_xyz
  x,y,z
_cell_length_a	16.974800
_cell_length_b	15.995350
_cell_length_c	16.053802
_cell_angle_alpha	92.567808
_cell_angle_beta	91.074188
_cell_angle_gamma	83.440933
loop_
_atom_site_label
_atom_site_type_symbol
_atom_site_fract_x
_atom_site_fract_y
_atom_site_fract_z
O1	O	1.049077	0.106733	0.001485
O2	O	1.382410	0.440067	0.334819
O3	O	1.715744	0.773400	0.668152
O4	O	0.819616	0.119551	-0.014026
O5	O	1.152949	0.452884	0.319308
O6	O	1.486282	0.786217	0.652641
O7	O	0.940619	-0.008732	-0.005845
O8	O	1.273952	0.324602	0.327488
O9	O	1.607285	0.657935	0.660821
O10	O	0.928074	0.235016	-0.006695
O11	O	1.261407	0.568349	0.326638
O12	O	1.594741	0.901682	0.659972
O13	O	0.933958	-0.001700	0.132563
O14	O	1.267292	0.331633	0.465897
O15	O	1.600625	0.664967	0.799230
O16	O	0.812955	0.126582	0.124383
O17	O	1.146288	0.459916	0.457716
O18	O	1.479622	0.793249	0.791049
O19	O	1.042417	0.113765	0.139894
O20	O	1.375750	0.447098	0.473227
O21	O	1.709083	0.780432	0.806561
Zn22	Zn	0.926628	0.121290	0.154114
Zn23	Zn	1.259962	0.454624	0.487447
Zn24	Zn	1.593295	0.787957	0.820780
Zn25	Zn	0.935404	0.112025	-0.028246
Zn26	Zn	1.268737	0.445359	0.305088
Zn27	Zn	1.602070	0.778692	0.638421
O28	O	0.921414	0.242047	0.131714
O29	O	1.254747	0.575381	0.465047
O30	O	1.588080	0.908714	0.798380
C31	C	0.786922	0.122450	0.053194
C32	C	1.120256	0.455784	0.386527
C33	C	1.453589	0.789117	0.719860
C34	C	0.699430	0.120604	0.047279
C35	C	1.032763	0.453937	0.380612
C36	C	1.366096	0.787271	0.713946
C37	C	0.654700	0.123568	0.119949
C38	C	0.988033	0.456901	0.453282
C39	C	1.321366	0.790234	0.786616
C40	C	0.572492	0.121820	0.114394
C41	C	0.905826	0.455153	0.447727
C42	C	1.239159	0.788486	0.781061
C43	C	0.535016	0.117114	0.036168
C44	C	0.868350	0.450447	0.369502
C45	C	1.201683	0.783781	0.702835
C46	C	0.579753	0.114147	-0.036507
C47	C	0.913086	0.447481	0.296827
C48	C	1.246419	0.780814	0.630160
C49	C	0.661959	0.115890	-0.030951
C50	C	0.995292	0.449223	0.302382
C51	C	1.328626	0.782556	0.635716
C52	C	0.289546	0.111487	0.011462
C53	C	0.622879	0.444820	0.344796
C54	C	0.956212	0.778154	0.678129
C55	C	0.207333	0.109748	0.005912
C56	C	0.540666	0.443081	0.339245
C57	C	0.874000	0.776414	0.672579
C58	C	0.200079	0.117418	0.156814
C59	C	0.533412	0.450752	0.490147
C60	C	0.866745	0.784085	0.823480
C61	C	0.282286	0.119165	0.162362
C62	C	0.615620	0.452498	0.495696
C63	C	0.948953	0.785832	0.829029
C64	C	0.327016	0.116194	0.089687
C65	C	0.660349	0.449528	0.423021
C66	C	0.993683	0.782861	0.756354
N67	N	0.450987	0.115330	0.030489
N68	N	0.784320	0.448663	0.363822
N69	N	1.117654	0.781996	0.697155
N70	N	0.411044	0.117972	0.095368
N71	N	0.744378	0.451306	0.428701
N72	N	1.077711	0.784639	0.762035
C73	C	0.936770	-0.036412	0.063322
C74	C	1.270103	0.296922	0.396656
C75	C	1.603437	0.630255	0.729989
C76	C	0.935215	-0.129366	0.063212
C77	C	1.268549	0.203967	0.396546
C78	C	1.601882	0.537301	0.729879
C79	C	0.929631	-0.467126	0.062838
C80	C	1.262965	-0.133792	0.396171
C81	C	1.596298	0.199541	0.729504
C82	C	0.843470	-0.419899	0.056702
C83	C	1.176803	-0.086566	0.390035
C84	C	1.510137	0.246768	0.723369
C85	C	0.845010	-0.323189	0.057119
C86	C	1.178344	0.010144	0.390452
C87	C	1.511677	0.343477	0.723786
C88	C	0.932401	-0.299559	0.063023
C89	C	1.265735	0.033774	0.396356
C90	C	1.599068	0.367108	0.729690
C91	C	0.971103	-0.336527	0.144933
C92	C	1.304436	-0.003193	0.478266
C93	C	1.637770	0.330140	0.811600
C94	C	0.968935	-0.433164	0.144853
C95	C	1.302268	-0.099830	0.478186
C96	C	1.635602	0.233503	0.811520
C97	C	0.978289	-0.441514	-0.012423
C98	C	1.311623	-0.108181	0.320910
C99	C	1.644956	0.225152	0.654243
C100	C	0.978319	-0.344622	-0.013469
C101	C	1.311653	-0.011289	0.319864
C102	C	1.644986	0.322044	0.653197
C103	C	0.933971	-0.204858	0.063131
C104	C	1.267304	0.128475	0.396464
C105	C	1.600638	0.461809	0.729798
C106	C	0.928064	-0.561827	0.062736
C107	C	1.261397	-0.228493	0.396069
C108	C	1.594731	0.104840	0.729402
C109	C	1.075110	0.110865	0.072673
C110	C	1.408443	0.444199	0.406006
C111	C	1.741777	0.777532	0.739340
C112	C	1.162603	0.112711	0.078582
C113	C	1.495936	0.446045	0.411915
C114	C	1.829270	0.779378	0.745249
C115	C	0.925262	0.269727	0.062544
C116	C	1.258596	0.603061	0.395877
C117	C	1.591929	0.936394	0.729211
C118	C	0.926817	0.362681	0.062648
C119	C	1.260151	0.696015	0.395982
C120	C	1.593484	1.029348	0.729315
N121	N	0.920645	0.127613	0.278570
N122	N	1.253979	0.460946	0.611903
N123	N	1.587312	0.794279	0.945236
N124	N	0.941393	0.105696	-0.152701
N125	N	1.274727	0.439030	0.180632
N126	N	1.608060	0.772363	0.513966
C127	C	0.972151	0.073048	0.325746
C128	C	1.305485	0.406381	0.659079
C129	C	1.638818	0.739714	0.992412
C130	C	0.967973	0.077478	0.412870
C131	C	1.301307	0.410812	0.746203
C132	C	1.634640	0.744145	1.079537
C133	C	0.912293	0.136479	0.452817
C134	C	1.245626	0.469812	0.786150
C135	C	1.578959	0.803145	1.119484
C136	C	0.860781	0.191046	0.405634
C137	C	1.194115	0.524379	0.738968
C138	C	1.527448	0.857712	1.072301
C139	C	0.864956	0.186611	0.318511
C140	C	1.198289	0.519944	0.651845
C141	C	1.531623	0.853277	0.985178
C142	C	0.894057	0.155828	0.712994
C143	C	1.227390	0.489162	1.046327
C144	C	1.560723	0.822495	1.379660
C145	C	0.889887	0.160261	0.800123
C146	C	1.223221	0.493595	1.133456
C147	C	1.556554	0.826928	1.466790
C148	C	0.997079	0.046692	0.807353
C149	C	1.330412	0.380026	1.140686
C150	C	1.663745	0.713359	1.474019
C151	C	1.001252	0.042266	0.720228
C152	C	1.334585	0.375599	1.053561
C153	C	1.667918	0.708932	1.386894
C154	C	0.949738	0.096830	0.673053
C155	C	1.283071	0.430163	1.006386
C156	C	1.616404	0.763497	1.339719
N157	N	0.908022	0.141010	0.541872
N158	N	1.241356	0.474344	0.875205
N159	N	1.574689	0.807677	1.208539
N160	N	0.954005	0.092293	0.583999
N161	N	1.287338	0.425627	0.917332
N162	N	1.620671	0.758960	1.250666
H163	H	0.163651	0.119836	0.215981
H164	H	0.496985	0.453169	0.549315
H165	H	0.830318	0.786502	0.882648
F166	F	0.928817	-0.295613	0.219207
F167	F	1.262150	0.037721	0.552540
F168	F	1.595484	0.371054	0.885873
F169	F	1.022790	0.019404	0.463078
F170	F	1.356124	0.352737	0.796412
F171	F	1.689457	0.686070	1.129745
H172	H	1.017495	0.025007	0.293227
H173	H	1.350829	0.358341	0.626560
H174	H	1.684162	0.691674	0.959894
H175	H	0.685205	0.127406	0.183649
H176	H	1.018539	0.460740	0.516982
H177	H	1.351872	0.794073	0.850315
H178	H	0.536078	0.124219	0.173570
H179	H	0.869412	0.457552	0.506903
H180	H	1.202745	0.790886	0.840236
H181	H	0.952997	-0.465160	-0.074233
H182	H	1.286330	-0.131827	0.259100
H183	H	1.619664	0.201506	0.592434
F184	F	1.060514	-0.020528	0.677715
F185	F	1.393847	0.312806	1.011048
F186	F	1.727180	0.646139	1.344381
F187	F	0.830622	0.223063	0.842632
F188	F	1.163955	0.556396	1.175965
F189	F	1.497288	0.889729	1.509298
H190	H	0.312794	0.122993	0.226062
H191	H	0.646127	0.456326	0.559395
H192	H	0.979461	0.789660	0.892729
H193	H	0.811754	-0.441387	-0.002305
H194	H	1.145087	-0.108053	0.331028
H195	H	1.478420	0.225280	0.664362
F196	F	0.794998	-0.442158	0.127132
F197	F	1.128331	-0.108825	0.460466
F198	F	1.461665	0.224508	0.793799
F199	F	0.167450	0.104741	-0.077350
F200	F	0.500783	0.438075	0.255983
F201	F	0.834116	0.771408	0.589317
F202	F	1.051898	-0.011377	0.857564
F203	F	1.385232	0.321956	1.190898
F204	F	1.718565	0.655290	1.524231
F205	F	0.839234	0.213901	0.662793
F206	F	1.172568	0.547235	0.996127
F207	F	1.505901	0.880568	1.329460
H208	H	0.808643	-0.292516	0.111599
H209	H	1.141976	0.040817	0.444932
H210	H	1.475309	0.374151	0.778265
F211	F	0.801517	0.253835	0.448149
F212	F	1.134851	0.587168	0.781483
F213	F	1.468184	0.920502	1.114816
H214	H	0.823014	0.231042	0.280101
H215	H	1.156347	0.564375	0.613434
H216	H	1.489680	0.897709	0.946768
H217	H	0.325955	0.109065	-0.047715
H218	H	0.659289	0.442398	0.285618
H219	H	0.992622	0.775732	0.618952
H220	H	0.698377	0.113478	-0.090127
H221	H	1.031711	0.446811	0.243207
H222	H	1.365044	0.780144	0.576540
H223	H	0.549234	0.110310	-0.100200
H224	H	0.882567	0.443643	0.233134
H225	H	1.215900	0.776977	0.566467
H226	H	0.935097	-0.448532	0.201841
H227	H	1.268430	-0.115199	0.535175
H228	H	1.601764	0.218134	0.868508
F229	F	1.051405	-0.474895	0.155136
F230	F	1.384738	-0.141561	0.488469
F231	F	1.718071	0.191772	0.821803
F232	F	1.054838	-0.317683	0.154448
F233	F	1.388171	0.015650	0.487781
F234	F	1.721504	0.348983	0.821114
F235	F	0.804902	-0.289897	-0.019887
F236	F	1.138235	0.043437	0.313446
F237	F	1.471569	0.376770	0.646780
F238	F	0.941690	-0.312590	-0.092629
F239	F	1.275024	0.020743	0.240704
F240	F	1.608357	0.354076	0.574038
H241	H	1.042278	-0.329361	-0.013936
H242	H	1.375611	0.003972	0.319397
H243	H	1.708945	0.337305	0.652731
F244	F	1.061370	-0.482880	-0.007509
F245	F	1.394703	-0.149546	0.325824
F246	F	1.728037	0.183787	0.659158
