data_functionalizedCrystal
_audit_creation_method	'MofGen! by Chris Wilmer'
_symmetry_space_group_name_H-M	'P1'
_symmetry_Int_Tables_number	1
_symmetry_cell_setting	triclinic
loop_
_symmetry_equiv_pos_as_xyz
  x,y,z
_cell_length_a	13.032831
_cell_length_b	14.908520
_cell_length_c	13.032268
_cell_angle_alpha	80.014189
_cell_angle_beta	89.113023
_cell_angle_gamma	86.522975
loop_
_atom_site_label
_atom_site_type_symbol
_atom_site_fract_x
_atom_site_fract_y
_atom_site_fract_z
Zn1	Zn	1.453341	-0.608125	0.815711
Zn2	Zn	1.465124	-0.742288	0.651425
Zn3	Zn	1.305991	-0.570509	0.619794
Zn4	Zn	1.271734	-0.737420	0.801271
O5	O	1.374048	-0.664586	0.722050
O6	O	1.597505	-0.643703	0.813198
O7	O	1.463283	-0.705796	0.502526
O8	O	1.334942	-0.449498	0.638589
O9	O	1.606162	-0.742272	0.692498
O10	O	1.443199	-0.477135	0.782527
O11	O	1.346369	-0.579590	0.479287
O12	O	1.158846	-0.574869	0.624587
O13	O	1.276556	-0.733974	0.947889
O14	O	1.133677	-0.697498	0.757917
O15	O	1.409982	-0.638982	0.958498
O16	O	1.430066	-0.867643	0.678496
O17	O	1.287983	-0.864066	0.788588
C18	C	1.109287	-0.631574	0.686253
C19	C	0.996016	-0.617476	0.670965
C20	C	0.933097	-0.671944	0.730029
C21	C	0.816026	-0.657374	0.714229
C22	C	1.356610	-0.898531	0.735434
C23	C	1.349239	-0.998628	0.741207
C24	C	1.483459	-1.190413	0.637541
C25	C	1.476537	-1.284464	0.642962
C26	C	1.328478	-1.280784	0.757475
C27	C	1.335400	-1.186733	0.752054
C28	C	1.412892	-1.141551	0.692084
C29	C	1.419809	-1.047497	0.686657
C30	C	1.271756	-1.043820	0.801176
C31	C	1.264834	-1.137870	0.806597
C32	C	1.639842	-0.697726	0.757987
C33	C	1.753108	-0.711849	0.773302
C34	C	1.338133	-0.690131	0.991762
C35	C	1.322829	-0.701017	1.106698
C36	C	1.391578	-0.429732	0.708640
C37	C	1.399048	-0.329652	0.702926
C38	C	1.409886	-0.639082	0.453391
C39	C	1.425406	-0.627967	0.338469
C40	C	1.382022	-0.658870	1.163188
C41	C	1.366205	-0.670120	1.281980
H42	H	0.783226	-0.599948	0.651965
H43	H	1.487793	-0.583546	1.298892
C44	C	1.281916	-0.730124	1.335435
C45	C	1.168569	-0.706946	1.304604
C46	C	1.084282	-0.766948	1.358060
C47	C	1.113343	-0.850128	1.442348
C48	C	1.226696	-0.873310	1.473183
C49	C	1.310983	-0.813308	1.419727
H50	H	1.147052	-0.645367	1.242205
H51	H	1.000371	-0.749786	1.335233
H52	H	1.050949	-0.894546	1.481919
H53	H	1.248213	-0.934889	1.535582
H54	H	1.394894	-0.830470	1.442554
H55	H	1.260436	-0.745422	1.146277
C56	C	1.505050	-0.997795	0.620696
C57	C	1.583802	-0.947277	0.672658
C58	C	1.669048	-0.897579	0.606698
C59	C	1.675543	-0.898399	0.488777
C60	C	1.596788	-0.948920	0.436809
C61	C	1.511542	-0.998617	0.502768
H62	H	1.578996	-0.946667	0.759956
H63	H	1.727347	-0.860180	0.645170
H64	H	1.738647	-0.861610	0.439950
H65	H	1.601593	-0.949529	0.349510
H66	H	1.453243	-1.036016	0.464297
H67	H	0.965901	-0.729359	0.792296
H68	H	1.201744	-1.174671	0.855426
H69	H	1.265394	-1.317589	0.806308
C70	C	0.797403	-0.789427	0.857424
C71	C	0.871332	-0.864850	0.826334
C72	C	0.915626	-0.942428	0.910455
C73	C	0.885990	-0.944582	1.025665
C74	C	0.812057	-0.869156	1.056760
C75	C	0.767763	-0.791579	0.972640
H76	H	0.893273	-0.863258	0.741044
H77	H	0.970356	-0.998263	0.887435
H78	H	0.918779	-1.002010	1.087936
H79	H	0.790116	-0.870749	1.142051
H80	H	0.713033	-0.735744	0.995659
C81	C	0.951712	-0.539904	0.586847
C82	C	0.877780	-0.464483	0.617937
C83	C	0.833479	-0.386909	0.533817
C84	C	0.863111	-0.384756	0.418606
C85	C	0.937047	-0.460179	0.387510
C86	C	0.981348	-0.537753	0.471630
H87	H	0.855841	-0.466075	0.703228
H88	H	0.778747	-0.331076	0.556837
H89	H	0.830317	-0.327331	0.356335
H90	H	0.958986	-0.458587	0.302219
H91	H	1.036080	-0.593587	0.448610
H92	H	1.546550	-1.153623	0.588703
C93	C	1.194124	-0.990073	0.861180
C94	C	1.124883	-0.911280	0.801766
C95	C	1.047249	-0.857534	0.861765
C96	C	1.038857	-0.882581	0.981179
C97	C	1.108100	-0.961379	1.040599
C98	C	1.185734	-1.015125	0.980600
H99	H	1.131093	-0.892734	0.713363
H100	H	0.995991	-0.799203	0.817777
H101	H	0.981388	-0.842796	1.025593
H102	H	1.101890	-0.979924	1.129002
H103	H	1.236992	-1.073456	1.024588
H104	H	1.534001	-1.324244	0.598550
C105	C	1.466307	-0.598871	1.109727
C106	C	1.437248	-0.515692	1.025437
C107	C	1.521536	-0.455693	0.971978
C108	C	1.634883	-0.478874	1.002809
C109	C	1.663948	-0.562057	1.087103
C110	C	1.579660	-0.622056	1.140562
H111	H	1.353337	-0.498529	1.002611
H112	H	1.500020	-0.394115	0.909578
H113	H	1.697278	-0.434459	0.963235
H114	H	1.747859	-0.579220	1.109929
H115	H	1.601176	-0.683634	1.202962
