data_functionalizedCrystal
_audit_creation_method	'MofGen! by Chris Wilmer'
_symmetry_space_group_name_H-M	'P1'
_symmetry_Int_Tables_number	1
_symmetry_cell_setting	triclinic
loop_
_symmetry_equiv_pos_as_xyz
  x,y,z
_cell_length_a	25.639243
_cell_length_b	25.639239
_cell_length_c	25.639233
_cell_angle_alpha	90.018747
_cell_angle_beta	90.015962
_cell_angle_gamma	90.041410
loop_
_atom_site_label
_atom_site_type_symbol
_atom_site_fract_x
_atom_site_fract_y
_atom_site_fract_z
Zn1	Zn	0.799225	-0.208176	0.295656
Zn2	Zn	1.049225	0.041824	0.545656
Zn3	Zn	1.299225	0.291824	0.795656
Zn4	Zn	1.549225	0.541824	1.045656
Zn5	Zn	0.799149	-0.295595	0.208220
Zn6	Zn	1.049149	-0.045595	0.458220
Zn7	Zn	1.299149	0.204405	0.708220
Zn8	Zn	1.549149	0.454405	0.958220
Zn9	Zn	0.711801	-0.208180	0.208229
Zn10	Zn	0.961801	0.041820	0.458229
Zn11	Zn	1.211801	0.291820	0.708229
Zn12	Zn	1.461801	0.541820	0.958229
Zn13	Zn	0.711746	-0.295587	0.295619
Zn14	Zn	0.961746	-0.045587	0.545619
Zn15	Zn	1.211746	0.204413	0.795619
Zn16	Zn	1.461746	0.454413	1.045619
O17	O	0.755480	-0.251885	0.251931
O18	O	1.005480	-0.001885	0.501931
O19	O	1.255480	0.248115	0.751931
O20	O	1.505480	0.498115	1.001931
O21	O	0.872380	-0.219775	0.284069
O22	O	1.122380	0.030225	0.534069
O23	O	1.372380	0.280225	0.784069
O24	O	1.622380	0.530225	1.034069
O25	O	0.787553	-0.284004	0.135056
O26	O	1.037553	-0.034004	0.385056
O27	O	1.287553	0.215996	0.635056
O28	O	1.537553	0.465996	0.885056
O29	O	0.723453	-0.135014	0.219846
O30	O	0.973453	0.114986	0.469846
O31	O	1.223453	0.364986	0.719846
O32	O	1.473453	0.614986	0.969846
O33	O	0.872324	-0.284001	0.219830
O34	O	1.122324	-0.034001	0.469830
O35	O	1.372324	0.215999	0.719830
O36	O	1.622324	0.465999	0.969830
O37	O	0.787683	-0.135012	0.284077
O38	O	1.037683	0.114988	0.534077
O39	O	1.287683	0.364988	0.784077
O40	O	1.537683	0.614988	1.034077
O41	O	0.723379	-0.219781	0.135063
O42	O	0.973379	0.030219	0.385063
O43	O	1.223379	0.280219	0.635063
O44	O	1.473379	0.530219	0.885063
O45	O	0.638629	-0.219772	0.219810
O46	O	0.888629	0.030228	0.469810
O47	O	1.138629	0.280228	0.719810
O48	O	1.388629	0.530228	0.969810
O49	O	0.723360	-0.283987	0.368789
O50	O	0.973360	-0.033987	0.618789
O51	O	1.223360	0.216013	0.868789
O52	O	1.473360	0.466013	1.118789
O53	O	0.638589	-0.283990	0.284016
O54	O	0.888589	-0.033990	0.534016
O55	O	1.138589	0.216010	0.784016
O56	O	1.388589	0.466010	1.034016
O57	O	0.787630	-0.219767	0.368816
O58	O	1.037630	0.030233	0.618816
O59	O	1.287630	0.280233	0.868816
O60	O	1.537630	0.530233	1.118816
O61	O	0.787499	-0.368759	0.219795
O62	O	1.037499	-0.118759	0.469795
O63	O	1.287499	0.131241	0.719795
O64	O	1.537499	0.381241	0.969795
O65	O	0.723286	-0.368753	0.284007
O66	O	0.973286	-0.118753	0.534007
O67	O	1.223286	0.131247	0.784007
O68	O	1.473286	0.381247	1.034007
C69	C	0.619638	-0.251881	0.251910
C70	C	0.869638	-0.001881	0.501910
C71	C	1.119638	0.248119	0.751910
C72	C	1.369638	0.498119	1.001910
C73	C	0.561524	-0.251892	0.251914
C74	C	0.811524	-0.001892	0.501914
C75	C	1.061524	0.248108	0.751914
C76	C	1.311524	0.498108	1.001914
C77	C	0.201184	-0.218495	0.285436
C78	C	0.451184	0.031505	0.535436
C79	C	0.701184	0.281505	0.785436
C80	C	0.951184	0.531505	1.035436
C81	C	0.146580	-0.218494	0.285439
C82	C	0.396580	0.031506	0.535439
C83	C	0.646580	0.281506	0.785439
C84	C	0.896580	0.531506	1.035439
O85	O	0.118363	-0.190088	0.313915
O86	O	0.368363	0.059912	0.563915
O87	O	0.618363	0.309912	0.813915
O88	O	0.868363	0.559912	1.063915
N89	N	0.119241	-0.251883	0.251945
N90	N	0.369241	-0.001883	0.501945
N91	N	0.619241	0.248117	0.751945
N92	N	0.869241	0.498117	1.001945
C93	C	0.146510	-0.285271	0.218443
C94	C	0.396510	-0.035271	0.468443
C95	C	0.646510	0.214729	0.718443
C96	C	0.896510	0.464729	0.968443
O97	O	0.118242	-0.313670	0.189954
O98	O	0.368242	-0.063670	0.439954
O99	O	0.618242	0.186330	0.689954
O100	O	0.868242	0.436330	0.939954
C101	C	0.201113	-0.285268	0.218437
C102	C	0.451113	-0.035268	0.468437
C103	C	0.701113	0.214732	0.718437
C104	C	0.951113	0.464732	0.968437
C105	C	0.228449	-0.251881	0.251937
C106	C	0.478449	-0.001881	0.501937
C107	C	0.728449	0.248119	0.751937
C108	C	0.978449	0.498119	1.001937
C109	C	0.228520	-0.185109	0.318932
C110	C	0.478520	0.064891	0.568932
C111	C	0.728520	0.314891	0.818932
C112	C	0.978520	0.564891	1.068932
C113	C	0.283121	-0.185111	0.318930
C114	C	0.533121	0.064889	0.568930
C115	C	0.783121	0.314889	0.818930
C116	C	1.033121	0.564889	1.068930
C117	C	0.310385	-0.218497	0.285431
C118	C	0.560385	0.031503	0.535431
C119	C	0.810385	0.281503	0.785431
C120	C	1.060385	0.531503	1.035431
C121	C	0.283049	-0.251882	0.251934
C122	C	0.533049	-0.001882	0.501934
C123	C	0.783049	0.248118	0.751934
C124	C	1.033049	0.498118	1.001934
C125	C	0.228380	-0.318653	0.184932
C126	C	0.478380	-0.068653	0.434932
C127	C	0.728380	0.181347	0.684932
C128	C	0.978380	0.431347	0.934932
C129	C	0.282987	-0.318647	0.184929
C130	C	0.532987	-0.068647	0.434929
C131	C	0.782987	0.181353	0.684929
C132	C	1.032987	0.431353	0.934929
C133	C	0.310323	-0.285260	0.218429
C134	C	0.560323	-0.035260	0.468429
C135	C	0.810323	0.214740	0.718429
C136	C	1.060323	0.464740	0.968429
C137	C	0.364915	-0.285270	0.218432
C138	C	0.614915	-0.035270	0.468432
C139	C	0.864915	0.214730	0.718432
C140	C	1.114915	0.464730	0.968432
N141	N	0.392253	-0.251881	0.251926
N142	N	0.642253	-0.001881	0.501926
N143	N	0.892253	0.248119	0.751926
N144	N	1.142253	0.498119	1.001926
C145	C	0.364989	-0.218494	0.285425
C146	C	0.614989	0.031506	0.535425
C147	C	0.864989	0.281506	0.785425
C148	C	1.114989	0.531506	1.035425
C149	C	0.031839	-0.285273	0.218456
C150	C	0.281839	-0.035273	0.468456
C151	C	0.531839	0.214727	0.718456
C152	C	0.781839	0.464727	0.968456
C153	C	-0.022763	-0.285279	0.218464
C154	C	0.227237	-0.035279	0.468464
C155	C	0.477237	0.214721	0.718464
C156	C	0.727237	0.464721	0.968464
C157	C	-0.022689	-0.218501	0.285460
C158	C	0.227311	0.031499	0.535460
C159	C	0.477311	0.281499	0.785460
C160	C	0.727311	0.531499	1.035460
C161	C	0.031914	-0.218499	0.285454
C162	C	0.281914	0.031501	0.535454
C163	C	0.531914	0.281501	0.785454
C164	C	0.781914	0.531501	1.035454
C165	C	0.059178	-0.251884	0.251950
C166	C	0.309178	-0.001884	0.501950
C167	C	0.559178	0.248116	0.751950
C168	C	0.809178	0.498116	1.001950
C169	C	0.479654	-0.218500	0.285417
C170	C	0.729654	0.031500	0.535417
C171	C	0.979654	0.281500	0.785417
C172	C	1.229654	0.531500	1.035417
C173	C	0.534259	-0.218506	0.285413
C174	C	0.784259	0.031494	0.535413
C175	C	1.034259	0.281494	0.785413
C176	C	1.284259	0.531494	1.035413
C177	C	0.534180	-0.285281	0.218415
C178	C	0.784180	-0.035281	0.468415
C179	C	1.034180	0.214719	0.718415
C180	C	1.284180	0.464719	0.968415
C181	C	0.479580	-0.285278	0.218421
C182	C	0.729580	-0.035278	0.468421
C183	C	0.979580	0.214722	0.718421
C184	C	1.229580	0.464722	0.968421
C185	C	0.452318	-0.251883	0.251924
C186	C	0.702318	-0.001883	0.501924
C187	C	0.952318	0.248117	0.751924
C188	C	1.202318	0.498117	1.001924
O189	O	0.393166	-0.313659	0.189969
O190	O	0.643166	-0.063659	0.439969
O191	O	0.893166	0.186341	0.689969
O192	O	1.143166	0.436341	0.939969
O193	O	0.393263	-0.190095	0.313904
O194	O	0.643263	0.059905	0.563904
O195	O	0.893263	0.309905	0.813904
O196	O	1.143263	0.559905	1.063904
C197	C	0.755392	-0.387727	0.251907
C198	C	1.005392	-0.137727	0.501907
C199	C	1.255392	0.112273	0.751907
C200	C	1.505392	0.362273	1.001907
C201	C	0.755403	-0.445841	0.251914
C202	C	1.005403	-0.195841	0.501914
C203	C	1.255403	0.054159	0.751914
C204	C	1.505403	0.304159	1.001914
C205	C	0.789004	-0.806195	0.218553
C206	C	1.039004	-0.556195	0.468553
C207	C	1.289004	-0.306195	0.718553
C208	C	1.539004	-0.056195	0.968553
C209	C	0.789024	-0.860799	0.218560
C210	C	1.039024	-0.610799	0.468560
C211	C	1.289024	-0.360799	0.718560
C212	C	1.539024	-0.110799	0.968560
O213	O	0.817502	-0.889028	0.190169
O214	O	1.067502	-0.639028	0.440169
O215	O	1.317502	-0.389028	0.690169
O216	O	1.567502	-0.139028	0.940169
N217	N	0.755572	-0.888124	0.251966
N218	N	1.005572	-0.638124	0.501966
N219	N	1.255572	-0.388124	0.751966
N220	N	1.505572	-0.138124	1.001966
C221	C	0.722102	-0.860841	0.285371
C222	C	0.972102	-0.610841	0.535371
C223	C	1.222102	-0.360841	0.785371
C224	C	1.472102	-0.110841	1.035371
O225	O	0.693651	-0.889096	0.313786
O226	O	0.943651	-0.639096	0.563786
O227	O	1.193651	-0.389096	0.813786
O228	O	1.443651	-0.139096	1.063786
C229	C	0.722085	-0.806238	0.285366
C230	C	0.972085	-0.556238	0.535366
C231	C	1.222085	-0.306238	0.785366
C232	C	1.472085	-0.056238	1.035366
C233	C	0.755535	-0.778916	0.251954
C234	C	1.005535	-0.528916	0.501954
C235	C	1.255535	-0.278916	0.751954
C236	C	1.505535	-0.028916	1.001954
C237	C	0.822452	-0.778873	0.185144
C238	C	1.072452	-0.528873	0.435144
C239	C	1.322452	-0.278873	0.685144
C240	C	1.572452	-0.028873	0.935144
C241	C	0.822431	-0.724273	0.185137
C242	C	1.072431	-0.474273	0.435137
C243	C	1.322431	-0.224273	0.685137
C244	C	1.572431	0.025727	0.935137
C245	C	0.788962	-0.696994	0.218538
C246	C	1.038962	-0.446994	0.468538
C247	C	1.288962	-0.196994	0.718538
C248	C	1.538962	0.053006	0.968538
C249	C	0.755514	-0.724315	0.251946
C250	C	1.005514	-0.474315	0.501946
C251	C	1.255514	-0.224315	0.751946
C252	C	1.505514	0.025685	1.001946
C253	C	0.688617	-0.778956	0.318773
C254	C	0.938617	-0.528956	0.568773
C255	C	1.188617	-0.278956	0.818773
C256	C	1.438617	-0.028956	1.068773
C257	C	0.688603	-0.724349	0.318765
C258	C	0.938603	-0.474349	0.568765
C259	C	1.188603	-0.224349	0.818765
C260	C	1.438603	0.025651	1.068765
C261	C	0.722053	-0.697027	0.285354
C262	C	0.972053	-0.447027	0.535354
C263	C	1.222053	-0.197027	0.785354
C264	C	1.472053	0.052973	1.035354
C265	C	0.722024	-0.642436	0.285340
C266	C	0.972024	-0.392436	0.535340
C267	C	1.222024	-0.142436	0.785340
C268	C	1.472024	0.107564	1.035340
N269	N	0.755475	-0.615112	0.251934
N270	N	1.005475	-0.365112	0.501934
N271	N	1.255475	-0.115112	0.751934
N272	N	1.505475	0.134888	1.001934
C273	C	0.788944	-0.642390	0.218533
C274	C	1.038944	-0.392390	0.468533
C275	C	1.288944	-0.142390	0.718533
C276	C	1.538944	0.107610	0.968533
C277	C	0.722141	-0.975511	0.285379
C278	C	0.972141	-0.725511	0.535379
C279	C	1.222141	-0.475511	0.785379
C280	C	1.472141	-0.225511	1.035379
C281	C	0.722155	-1.030114	0.285381
C282	C	0.972155	-0.780114	0.535381
C283	C	1.222155	-0.530114	0.785381
C284	C	1.472155	-0.280114	1.035381
C285	C	0.789078	-1.030068	0.218571
C286	C	1.039078	-0.780068	0.468571
C287	C	1.289078	-0.530068	0.718571
C288	C	1.539078	-0.280068	0.968571
C289	C	0.789061	-0.975465	0.218566
C290	C	1.039061	-0.725465	0.468566
C291	C	1.289061	-0.475465	0.718566
C292	C	1.539061	-0.225465	0.968566
C293	C	0.755593	-0.948187	0.251973
C294	C	1.005593	-0.698187	0.501973
C295	C	1.255593	-0.448187	0.751973
C296	C	1.505593	-0.198187	1.001973
C297	C	0.788897	-0.527725	0.218519
C298	C	1.038897	-0.277725	0.468519
C299	C	1.288897	-0.027725	0.718519
C300	C	1.538897	0.222275	0.968519
C301	C	0.788872	-0.473120	0.218513
C302	C	1.038872	-0.223120	0.468513
C303	C	1.288872	0.026880	0.718513
C304	C	1.538872	0.276880	0.968513
C305	C	0.721951	-0.473170	0.285325
C306	C	0.971951	-0.223170	0.535325
C307	C	1.221951	0.026830	0.785325
C308	C	1.471951	0.276830	1.035325
C309	C	0.721974	-0.527771	0.285329
C310	C	0.971974	-0.277771	0.535329
C311	C	1.221974	-0.027771	0.785329
C312	C	1.471974	0.222229	1.035329
C313	C	0.755452	-0.555047	0.251925
C314	C	1.005452	-0.305047	0.501925
C315	C	1.255452	-0.055047	0.751925
C316	C	1.505452	0.194953	1.001925
O317	O	0.693562	-0.614173	0.313718
O318	O	0.943562	-0.364173	0.563718
O319	O	1.193562	-0.114173	0.813718
O320	O	1.443562	0.135827	1.063718
O321	O	0.817396	-0.614128	0.190127
O322	O	1.067396	-0.364128	0.440127
O323	O	1.317396	-0.114128	0.690127
O324	O	1.567396	0.135872	0.940127
C325	C	0.891853	-0.251888	0.251952
C326	C	1.141853	-0.001888	0.501952
C327	C	1.391853	0.248112	0.751952
C328	C	1.641853	0.498112	1.001952
C329	C	0.949967	-0.251890	0.251961
C330	C	1.199967	-0.001890	0.501961
C331	C	1.449967	0.248110	0.751961
C332	C	1.699967	0.498110	1.001961
C333	C	0.755497	-0.251875	0.388304
C334	C	1.005497	-0.001875	0.638304
C335	C	1.255497	0.248125	0.888304
C336	C	1.505497	0.498125	1.138304
C337	C	0.755504	-0.251871	0.446418
C338	C	1.005504	-0.001871	0.696418
C339	C	1.255504	0.248129	0.946418
C340	C	1.505504	0.498129	1.196418
C341	C	0.755583	-0.115512	0.251967
C342	C	1.005583	0.134488	0.501967
C343	C	1.255583	0.384488	0.751967
C344	C	1.505583	0.634488	1.001967
C345	C	0.755627	-0.057397	0.251982
C346	C	1.005627	0.192603	0.501982
C347	C	1.255627	0.442603	0.751982
C348	C	1.505627	0.692603	1.001982
C349	C	0.755494	-0.251856	0.116089
C350	C	1.005494	-0.001856	0.366089
C351	C	1.255494	0.248144	0.616089
C352	C	1.505494	0.498144	0.866089
C353	C	0.755588	-0.251713	0.057975
C354	C	1.005588	-0.001713	0.307975
C355	C	1.255588	0.248287	0.557975
C356	C	1.505588	0.498287	0.807975
C357	C	0.789012	-0.218333	0.806801
C358	C	1.039012	0.031667	1.056801
C359	C	1.289012	0.281667	1.306801
C360	C	1.539012	0.531667	1.556801
C361	C	0.789019	-0.218318	0.861405
C362	C	1.039019	0.031682	1.111405
C363	C	1.289019	0.281682	1.361405
C364	C	1.539019	0.531682	1.611405
O365	O	0.817466	-0.189864	0.889659
O366	O	1.067466	0.060136	1.139659
O367	O	1.317466	0.310136	1.389659
O368	O	1.567466	0.560136	1.639659
N369	N	0.755562	-0.251749	0.888701
N370	N	1.005562	-0.001749	1.138701
N371	N	1.255562	0.248251	1.388701
N372	N	1.505562	0.498251	1.638701
C373	C	0.722093	-0.285192	0.861389
C374	C	0.972093	-0.035192	1.111389
C375	C	1.222093	0.214808	1.361389
C376	C	1.472093	0.464808	1.611389
O377	O	0.693636	-0.313626	0.889620
O378	O	0.943636	-0.063626	1.139620
O379	O	1.193636	0.186374	1.389620
O380	O	1.443636	0.436374	1.639620
C381	C	0.722084	-0.285204	0.806786
C382	C	0.972084	-0.035204	1.056786
C383	C	1.222084	0.214796	1.306786
C384	C	1.472084	0.464796	1.556786
C385	C	0.755547	-0.251775	0.779493
C386	C	1.005547	-0.001775	1.029493
C387	C	1.255547	0.248225	1.279493
C388	C	1.505547	0.498225	1.529493
C389	C	0.822472	-0.184906	0.779508
C390	C	1.072472	0.065094	1.029508
C391	C	1.322472	0.315094	1.279508
C392	C	1.572472	0.565094	1.529508
C393	C	0.822466	-0.184921	0.724908
C394	C	1.072466	0.065079	0.974908
C395	C	1.322466	0.315079	1.224908
C396	C	1.572466	0.565079	1.474908
C397	C	0.789001	-0.218363	0.697600
C398	C	1.039001	0.031637	0.947600
C399	C	1.289001	0.281637	1.197600
C400	C	1.539001	0.531637	1.447600
C401	C	0.755541	-0.251790	0.724893
C402	C	1.005541	-0.001790	0.974893
C403	C	1.255541	0.248210	1.224893
C404	C	1.505541	0.498210	1.474893
C405	C	0.688613	-0.318644	0.779475
C406	C	0.938613	-0.068644	1.029475
C407	C	1.188613	0.181356	1.279475
C408	C	1.438613	0.431356	1.529475
C409	C	0.688607	-0.318653	0.724868
C410	C	0.938607	-0.068653	0.974868
C411	C	1.188607	0.181347	1.224868
C412	C	1.438607	0.431347	1.474868
C413	C	0.722069	-0.285223	0.697576
C414	C	0.972069	-0.035223	0.947576
C415	C	1.222069	0.214777	1.197576
C416	C	1.472069	0.464777	1.447576
C417	C	0.722070	-0.285247	0.642984
C418	C	0.972070	-0.035247	0.892984
C419	C	1.222070	0.214753	1.142984
C420	C	1.472070	0.464753	1.392984
N421	N	0.755526	-0.251817	0.615689
N422	N	1.005526	-0.001817	0.865689
N423	N	1.255526	0.248183	1.115689
N424	N	1.505526	0.498183	1.365689
C425	C	0.788992	-0.218375	0.642996
C426	C	1.038992	0.031625	0.892996
C427	C	1.288992	0.281625	1.142996
C428	C	1.538992	0.531625	1.392996
C429	C	0.722113	-0.285165	0.976060
C430	C	0.972113	-0.035165	1.226060
C431	C	1.222113	0.214835	1.476060
C432	C	1.472113	0.464835	1.726060
C433	C	0.722124	-0.285157	1.030662
C434	C	0.972124	-0.035157	1.280662
C435	C	1.222124	0.214843	1.530662
C436	C	1.472124	0.464843	1.780662
C437	C	0.789049	-0.218282	1.030675
C438	C	1.039049	0.031718	1.280675
C439	C	1.289049	0.281718	1.530675
C440	C	1.539049	0.531718	1.780675
C441	C	0.789041	-0.218293	0.976071
C442	C	1.039041	0.031707	1.226071
C443	C	1.289041	0.281707	1.476071
C444	C	1.539041	0.531707	1.726071
C445	C	0.755570	-0.251735	0.948764
C446	C	1.005570	-0.001735	1.198764
C447	C	1.255570	0.248265	1.448764
C448	C	1.505570	0.498265	1.698764
C449	C	0.788977	-0.218410	0.528331
C450	C	1.038977	0.031590	0.778331
C451	C	1.288977	0.281590	1.028331
C452	C	1.538977	0.531590	1.278331
C453	C	0.788970	-0.218429	0.473726
C454	C	1.038970	0.031571	0.723726
C455	C	1.288970	0.281571	0.973726
C456	C	1.538970	0.531571	1.223726
C457	C	0.722043	-0.285302	0.473719
C458	C	0.972043	-0.035302	0.723719
C459	C	1.222043	0.214698	0.973719
C460	C	1.472043	0.464698	1.223719
C461	C	0.722052	-0.285285	0.528319
C462	C	0.972052	-0.035285	0.778319
C463	C	1.222052	0.214715	1.028319
C464	C	1.472052	0.464715	1.278319
C465	C	0.755521	-0.251834	0.555624
C466	C	1.005521	-0.001834	0.805624
C467	C	1.255521	0.248166	1.055624
C468	C	1.505521	0.498166	1.305624
O469	O	0.693635	-0.313686	0.614696
O470	O	0.943635	-0.063686	0.864696
O471	O	1.193635	0.186314	1.114696
O472	O	1.443635	0.436314	1.364696
O473	O	0.817439	-0.189941	0.614759
O474	O	1.067439	0.060059	0.864759
O475	O	1.317439	0.310059	1.114759
O476	O	1.567439	0.560059	1.364759
H477	H	0.457322	-0.312470	0.191149
H478	H	0.707322	-0.062470	0.441149
H479	H	0.957322	0.187530	0.691149
H480	H	1.207322	0.437530	0.941149
Br481	Br	0.676719	-0.330536	1.067696
Br482	Br	0.926719	-0.080536	1.317696
Br483	Br	1.176719	0.169464	1.567696
Br484	Br	1.426719	0.419464	1.817696
Br485	Br	0.834499	-1.067100	0.173238
Br486	Br	1.084499	-0.817100	0.423238
Br487	Br	1.334499	-0.567100	0.673238
Br488	Br	1.584499	-0.317100	0.923238
Br489	Br	0.834270	-0.436044	0.173165
Br490	Br	1.084270	-0.186044	0.423165
Br491	Br	1.334270	0.063956	0.673165
Br492	Br	1.584270	0.313956	0.923165
Br493	Br	0.676712	-0.938497	0.330717
Br494	Br	0.926712	-0.688497	0.580717
Br495	Br	1.176712	-0.438497	0.830717
Br496	Br	1.426712	-0.188497	1.080717
H497	H	0.694912	-1.052354	0.312583
H498	H	0.944912	-0.802354	0.562583
H499	H	1.194912	-0.552354	0.812583
H500	H	1.444912	-0.302354	1.062583
Br501	Br	0.676533	-0.436139	0.330655
Br502	Br	0.926533	-0.186139	0.580655
Br503	Br	1.176533	0.063861	0.830655
Br504	Br	1.426533	0.313861	1.080655
H505	H	0.816159	-0.549927	0.191319
H506	H	1.066159	-0.299927	0.441319
H507	H	1.316159	-0.049927	0.691319
H508	H	1.566159	0.200073	0.941319
Br509	Br	0.643223	-0.816021	0.364126
Br510	Br	0.893223	-0.566021	0.614126
Br511	Br	1.143223	-0.316021	0.864126
Br512	Br	1.393223	-0.066021	1.114126
Br513	Br	0.867879	-0.139548	0.687876
Br514	Br	1.117879	0.110452	0.937876
Br515	Br	1.367879	0.360452	1.187876
Br516	Br	1.617879	0.610452	1.437876
Br517	Br	0.643181	-0.687332	0.364108
Br518	Br	0.893181	-0.437332	0.614108
Br519	Br	1.143181	-0.187332	0.864108
Br520	Br	1.393181	0.062668	1.114108
H521	H	0.849724	-0.157671	0.801736
H522	H	1.099724	0.092329	1.051736
H523	H	1.349724	0.342329	1.301736
H524	H	1.599724	0.592329	1.551736
H525	H	0.849709	-0.801078	0.157945
H526	H	1.099709	-0.551078	0.407945
H527	H	1.349709	-0.301078	0.657945
H528	H	1.599709	-0.051078	0.907945
H529	H	0.694738	-0.550017	0.312538
H530	H	0.944738	-0.300017	0.562538
H531	H	1.194738	-0.050017	0.812538
H532	H	1.444738	0.199983	1.062538
H533	H	0.694857	-0.312400	0.953830
H534	H	0.944857	-0.062400	1.203830
H535	H	1.194857	0.187600	1.453830
H536	H	1.444857	0.437600	1.703830
H537	H	0.816300	-0.953223	0.191360
H538	H	1.066300	-0.703223	0.441360
H539	H	1.316300	-0.453223	0.691360
H540	H	1.566300	-0.203223	0.941360
H541	H	0.816221	-0.191207	0.451507
H542	H	1.066221	0.058793	0.701507
H543	H	1.316221	0.308793	0.951507
H544	H	1.566221	0.558793	1.201507
H545	H	0.054034	-0.312464	0.191174
H546	H	0.304034	-0.062464	0.441174
H547	H	0.554034	0.187536	0.691174
H548	H	0.804034	0.437536	0.941174
H549	H	0.849670	-0.702031	0.157932
H550	H	1.099670	-0.452031	0.407932
H551	H	1.349670	-0.202031	0.657932
H552	H	1.599670	0.047969	0.907932
H553	H	0.816229	-0.191169	0.550557
H554	H	1.066229	0.058831	0.800557
H555	H	1.316229	0.308831	1.050557
H556	H	1.566229	0.558831	1.300557
Br557	Br	0.834456	-0.172924	0.939037
Br558	Br	1.084456	0.077076	1.189037
Br559	Br	1.334456	0.327076	1.439037
Br560	Br	1.584456	0.577076	1.689037
Br561	Br	0.191295	-0.363957	0.139455
Br562	Br	0.441295	-0.113957	0.389455
Br563	Br	0.691295	0.136043	0.639455
Br564	Br	0.941295	0.386043	0.889455
Br565	Br	0.834467	-0.172896	1.067746
Br566	Br	1.084467	0.077104	1.317746
Br567	Br	1.334467	0.327104	1.567746
Br568	Br	1.584467	0.577104	1.817746
H569	H	0.661364	-0.345866	0.801688
H570	H	0.911364	-0.095866	1.051688
H571	H	1.161364	0.154134	1.301688
H572	H	1.411364	0.404134	1.551688
Br573	Br	0.319985	-0.363959	0.139456
Br574	Br	0.569985	-0.113959	0.389456
Br575	Br	0.819985	0.136041	0.639456
Br576	Br	1.069985	0.386041	0.889456
Br577	Br	0.676627	-0.330685	0.436648
Br578	Br	0.926627	-0.080685	0.686648
Br579	Br	1.176627	0.169315	0.936648
Br580	Br	1.426627	0.419315	1.186648
Br581	Br	0.069007	-0.173185	0.330919
Br582	Br	0.319007	0.076815	0.580919
Br583	Br	0.569007	0.326815	0.830919
Br584	Br	0.819007	0.576815	1.080919
H585	H	0.661345	-0.345880	0.702638
H586	H	0.911345	-0.095880	0.952638
H587	H	1.161345	0.154120	1.202638
H588	H	1.411345	0.404120	1.452638
H589	H	0.694809	-0.312510	0.550542
H590	H	0.944809	-0.062510	0.800542
H591	H	1.194809	0.187490	1.050542
H592	H	1.444809	0.437490	1.300542
H593	H	0.556389	-0.312465	0.191142
H594	H	0.806389	-0.062465	0.441142
H595	H	1.056389	0.187535	0.691142
H596	H	1.306389	0.437535	0.941142
H597	H	0.556514	-0.191317	0.312694
H598	H	0.806514	0.058683	0.562694
H599	H	1.056514	0.308683	0.812694
H600	H	1.306514	0.558683	1.062694
H601	H	-0.045016	-0.312472	0.191191
H602	H	0.204984	-0.062472	0.441191
H603	H	0.454984	0.187528	0.691191
H604	H	0.704984	0.437528	0.941191
Br605	Br	0.191529	-0.139793	0.364402
Br606	Br	0.441529	0.110207	0.614402
Br607	Br	0.691529	0.360207	0.864402
Br608	Br	0.941529	0.610207	1.114402
H609	H	0.457464	-0.191305	0.312697
H610	H	0.707464	0.058695	0.562697
H611	H	0.957464	0.308695	0.812697
H612	H	1.207464	0.558695	1.062697
H613	H	-0.044898	-0.191315	0.312735
H614	H	0.205102	0.058685	0.562735
H615	H	0.455102	0.308685	0.812735
H616	H	0.705102	0.558685	1.062735
Br617	Br	0.320211	-0.139796	0.364395
Br618	Br	0.570211	0.110204	0.614395
Br619	Br	0.820211	0.360204	0.864395
Br620	Br	1.070211	0.610204	1.114395
