data_functionalizedCrystal
_audit_creation_method	'MofGen! by Chris Wilmer'
_symmetry_space_group_name_H-M	'P1'
_symmetry_Int_Tables_number	1
_symmetry_cell_setting	triclinic
loop_
_symmetry_equiv_pos_as_xyz
  x,y,z
_cell_length_a	12.837943
_cell_length_b	11.792241
_cell_length_c	11.295483
_cell_angle_alpha	94.123059
_cell_angle_beta	85.461227
_cell_angle_gamma	89.511178
loop_
_atom_site_label
_atom_site_type_symbol
_atom_site_fract_x
_atom_site_fract_y
_atom_site_fract_z
O1	O	1.384055	0.288341	-0.099005
O2	O	1.082168	0.273757	-0.099012
O3	O	1.240437	0.116622	-0.099000
O4	O	1.225787	0.445476	-0.099017
O5	O	1.226536	0.130400	0.099050
O6	O	1.068267	0.287535	0.099038
O7	O	1.370154	0.302119	0.099045
Cu8	Cu	1.217941	0.296085	0.117125
Cu9	Cu	1.234381	0.279791	-0.117092
O10	O	1.211885	0.459254	0.099033
C11	C	1.036570	0.275719	0.000012
C12	C	0.921410	0.261025	0.000010
C13	C	0.681444	0.437671	0.000018
C14	C	0.573241	0.423870	0.000016
C15	C	0.596797	0.219624	0.000014
C16	C	0.705001	0.233425	0.000016
C17	C	0.747320	0.342452	0.000016
C18	C	0.855526	0.356251	0.000008
C19	C	0.879080	0.152006	0.000015
C20	C	0.770877	0.138205	0.000013
C21	C	1.232566	0.081127	0.000025
C22	C	1.229812	-0.045167	0.000023
C23	C	1.224748	-0.276394	0.000003
C24	C	1.227561	-0.147723	0.000014
C25	C	1.415753	0.300157	0.000018
C26	C	1.530913	0.314850	0.000013
C27	C	1.219756	0.494749	0.000006
C28	C	1.222512	0.621042	-0.000001
N29	N	1.206386	0.307545	0.281860
N30	N	1.245945	0.268322	-0.281827
C31	C	1.329126	0.185760	0.531159
C32	C	1.320401	0.194430	0.655822
C33	C	1.180207	0.333547	0.655852
C34	C	1.188932	0.324878	0.531189
C35	C	1.263395	0.250983	0.468847
C36	C	1.272124	0.242320	0.344181
C37	C	1.131925	0.381431	0.344213
C38	C	1.123200	0.390100	0.468876
H39	H	0.715901	0.526445	0.000016
H40	H	1.389764	0.125601	0.480399
O41	O	0.943043	0.059451	-0.000197
C42	C	0.930939	-0.013189	-0.102754
H43	H	0.899333	0.037789	-0.174442
H44	H	0.873847	-0.083260	-0.079563
C45	C	1.076357	-0.129355	-0.061221
C46	C	1.037545	-0.066741	-0.149274
H47	H	1.142115	-0.162394	-0.089915
H48	H	1.084510	-0.080420	0.007876
H49	H	1.028770	-0.187740	-0.041903
H50	H	1.085125	-0.008349	-0.168580
H51	H	1.029403	-0.115668	-0.218376
O52	O	1.384364	0.131028	0.716168
C53	C	1.451933	0.063927	0.634406
H54	H	1.459590	0.104438	0.545541
H55	H	1.418703	-0.025019	0.621156
C56	C	1.550885	0.006302	0.792179
C57	C	1.560295	0.056063	0.683036
H58	H	1.617727	0.001446	0.822177
H59	H	1.505360	0.051505	0.847265
H60	H	1.523189	-0.067815	0.781122
H61	H	1.587978	0.130183	0.694097
H62	H	1.605827	0.010872	0.627953
H63	H	1.119573	0.393702	0.706627
O64	O	1.050820	0.461727	0.529574
C65	C	0.981423	0.398962	0.601676
H66	H	1.020923	0.315881	0.620340
H67	H	0.908083	0.379578	0.553651
C68	C	0.902817	0.570855	0.697177
C69	C	0.951334	0.468818	0.720109
H70	H	0.884252	0.613946	0.770230
H71	H	0.949568	0.613142	0.648598
H72	H	0.841706	0.554687	0.657153
H73	H	1.012451	0.484987	0.760118
H74	H	0.904593	0.426535	0.768698
O75	O	1.344343	0.170356	0.283699
C76	C	1.324697	0.058242	0.314231
H77	H	1.239244	0.051076	0.348502
H78	H	1.376912	0.036180	0.386606
C79	C	1.453091	-0.015941	0.161430
C80	C	1.348133	-0.024745	0.203512
H81	H	1.467551	-0.067133	0.093136
H82	H	1.466330	0.059592	0.140862
H83	H	1.496591	-0.034324	0.221753
H84	H	1.304635	-0.006348	0.143195
H85	H	1.334887	-0.100278	0.224067
O86	O	1.068168	0.444967	0.283739
C87	C	1.083515	0.561337	0.314229
H88	H	1.164163	0.573296	0.348480
H89	H	1.021149	0.593472	0.386607
C90	C	0.976530	0.614202	0.161430
C91	C	1.075588	0.628891	0.203488
H92	H	0.971636	0.655875	0.093122
H93	H	0.966187	0.535802	0.140891
H94	H	0.924569	0.640981	0.221755
H95	H	1.127546	0.602099	0.143169
H96	H	1.085940	0.707289	0.224015
O97	O	0.896814	0.462071	-0.000045
C98	C	1.006441	0.453841	-0.000018
H99	H	1.033975	0.365355	-0.037515
H100	H	1.029923	0.469203	0.094996
C101	C	1.023463	0.652308	-0.031631
C102	C	1.057281	0.543632	-0.077695
H103	H	1.054824	0.707699	-0.079540
H104	H	0.949604	0.657855	-0.031644
H105	H	1.043033	0.665094	0.047547
H106	H	1.037699	0.530843	-0.156865
H107	H	1.131137	0.538086	-0.077696
O108	O	0.729800	0.032293	0.000219
C109	C	0.756232	-0.019351	0.102768
H110	H	0.774053	0.049173	0.174468
H111	H	0.828013	-0.076624	0.079572
C112	C	0.642180	-0.175124	0.061207
C113	C	0.664060	-0.090961	0.149273
H114	H	0.585327	-0.219301	0.089892
H115	H	0.624375	-0.140334	-0.007885
H116	H	0.702005	-0.222840	0.041885
H117	H	0.604241	-0.043239	0.168583
H118	H	0.681853	-0.125745	0.218370
O119	O	0.509307	0.516386	-0.000198
C120	C	0.535800	0.574769	-0.102754
H121	H	0.577468	0.513826	-0.174445
H122	H	0.589636	0.648067	-0.079562
C123	C	0.384551	0.696705	-0.061215
C124	C	0.435721	0.621851	-0.149271
H125	H	0.322819	0.725753	-0.089907
H126	H	0.366703	0.657375	0.007881
H127	H	0.429425	0.757777	-0.041896
H128	H	0.390851	0.560774	-0.168577
H129	H	0.453558	0.661173	-0.218372
H130	H	0.562315	0.130866	0.000112
