data_functionalizedCrystal
_audit_creation_method	'MofGen! by Chris Wilmer'
_symmetry_space_group_name_H-M	'P1'
_symmetry_Int_Tables_number	1
_symmetry_cell_setting	triclinic
loop_
_symmetry_equiv_pos_as_xyz
  x,y,z
_cell_length_a	18.215407
_cell_length_b	16.625546
_cell_length_c	16.625525
_cell_angle_alpha	89.905447
_cell_angle_beta	89.938707
_cell_angle_gamma	90.022916
loop_
_atom_site_label
_atom_site_type_symbol
_atom_site_fract_x
_atom_site_fract_y
_atom_site_fract_z
Zn1	Zn	1.125386	-0.320480	-0.455902
Zn2	Zn	1.458719	0.012853	-0.122569
Zn3	Zn	1.792052	0.346187	0.210764
Zn4	Zn	1.125210	-0.455474	-0.321064
Zn5	Zn	1.458543	-0.122141	0.012269
Zn6	Zn	1.791877	0.211193	0.345602
Zn7	Zn	1.002229	-0.320660	-0.321082
Zn8	Zn	1.335562	0.012673	0.012251
Zn9	Zn	1.668896	0.346006	0.345585
Zn10	Zn	1.002289	-0.455275	-0.455854
Zn11	Zn	1.335623	-0.121942	-0.122521
Zn12	Zn	1.668956	0.211391	0.210813
O13	O	1.063778	-0.387972	-0.388476
O14	O	1.397112	-0.054639	-0.055142
O15	O	1.730445	0.278694	0.278191
O16	O	1.228347	-0.338395	-0.438028
O17	O	1.561680	-0.005062	-0.104695
O18	O	1.895013	0.328272	0.228638
O19	O	1.108798	-0.437749	-0.208234
O20	O	1.442131	-0.104416	0.125099
O21	O	1.775464	0.228917	0.458433
O22	O	1.018614	-0.207804	-0.338994
O23	O	1.351948	0.125530	-0.005661
O24	O	1.685281	0.458863	0.327673
O25	O	1.228218	-0.437575	-0.338964
O26	O	1.561551	-0.104241	-0.005630
O27	O	1.894884	0.229092	0.327703
O28	O	1.109097	-0.207671	-0.438046
O29	O	1.442430	0.125662	-0.104712
O30	O	1.775764	0.458995	0.228621
O31	O	1.018444	-0.338702	-0.208247
O32	O	1.351777	-0.005369	0.125086
O33	O	1.685111	0.327965	0.458420
O34	O	0.899253	-0.338509	-0.338947
O35	O	1.232586	-0.005176	-0.005614
O36	O	1.565919	0.328157	0.327719
O37	O	1.018717	-0.437236	-0.568693
O38	O	1.352050	-0.103903	-0.235360
O39	O	1.685383	0.229431	0.097973
O40	O	0.899297	-0.437411	-0.437964
O41	O	1.232630	-0.104077	-0.104630
O42	O	1.565964	0.229256	0.228703
O43	O	1.109155	-0.338202	-0.568729
O44	O	1.442489	-0.004869	-0.235395
O45	O	1.775822	0.328464	0.097938
O46	O	1.108856	-0.568280	-0.338917
O47	O	1.442189	-0.234947	-0.005583
O48	O	1.775523	0.098387	0.327750
O49	O	1.018547	-0.568134	-0.437946
O50	O	1.351880	-0.234801	-0.104613
O51	O	1.685213	0.098533	0.228720
C52	C	0.872572	-0.387959	-0.388453
C53	C	1.205906	-0.054625	-0.055119
C54	C	1.539239	0.278708	0.278214
C55	C	0.790773	-0.387972	-0.388462
C56	C	1.124107	-0.054639	-0.055128
C57	C	1.457440	0.278695	0.278205
C58	C	1.063709	-0.597463	-0.388442
C59	C	1.397042	-0.264130	-0.055109
C60	C	1.730375	0.069203	0.278225
C61	C	1.063746	-0.687084	-0.388454
C62	C	1.397080	-0.353751	-0.055121
C63	C	1.730413	-0.020418	0.278212
C64	C	0.602622	-0.439551	-0.439955
C65	C	0.935955	-0.106218	-0.106622
C66	C	1.269288	0.227116	0.226712
C67	C	0.525763	-0.439554	-0.439965
C68	C	0.859096	-0.106220	-0.106632
C69	C	1.192430	0.227113	0.226702
C70	C	0.525687	-0.336408	-0.337014
C71	C	0.859021	-0.003075	-0.003681
C72	C	1.192354	0.330258	0.329653
C73	C	0.602545	-0.336402	-0.337009
C74	C	0.935878	-0.003069	-0.003675
C75	C	1.269211	0.330264	0.329658
C76	C	0.641010	-0.387978	-0.388478
C77	C	0.974343	-0.054645	-0.055145
C78	C	1.307677	0.278688	0.278189
C79	C	0.487294	-0.387987	-0.388493
C80	C	0.820627	-0.054653	-0.055160
C81	C	1.153960	0.278680	0.278173
C82	C	0.403960	-0.387989	-0.388504
C83	C	0.737293	-0.054656	-0.055171
C84	C	1.070627	0.278678	0.278163
C85	C	0.724349	-0.387975	-0.388469
C86	C	1.057682	-0.054642	-0.055135
C87	C	1.391015	0.278692	0.278198
C88	C	1.063875	-1.015260	-0.388538
C89	C	1.397208	-0.681926	-0.055205
C90	C	1.730541	-0.348593	0.278128
C91	C	1.063837	-0.923951	-0.388517
C92	C	1.397170	-0.590618	-0.055184
C93	C	1.730503	-0.257285	0.278149
C94	C	1.063810	-0.851175	-0.388496
C95	C	1.397143	-0.517842	-0.055163
C96	C	1.730477	-0.184508	0.278171
C97	C	1.063773	-0.759861	-0.388476
C98	C	1.397106	-0.426527	-0.055142
C99	C	1.730440	-0.093194	0.278191
C100	C	1.255731	-0.387987	-0.388499
C101	C	1.589065	-0.054653	-0.055166
C102	C	1.922398	0.278680	0.278167
C103	C	1.337530	-0.387993	-0.388510
C104	C	1.670864	-0.054660	-0.055176
C105	C	2.004197	0.278674	0.278157
C106	C	1.063962	-0.387677	-0.598785
C107	C	1.397296	-0.054343	-0.265452
C108	C	1.730629	0.278990	0.067881
C109	C	1.064041	-0.387551	-0.688407
C110	C	1.397374	-0.054217	-0.355073
C111	C	1.730707	0.279116	-0.021740
C112	C	1.063868	-0.177663	-0.388527
C113	C	1.397202	0.155670	-0.055194
C114	C	1.730535	0.489003	0.278139
C115	C	1.063907	-0.088042	-0.388549
C116	C	1.397240	0.245291	-0.055216
C117	C	1.730574	0.578624	0.278117
C118	C	1.063638	-0.388209	-0.178984
C119	C	1.396971	-0.054875	0.154349
C120	C	1.730304	0.278458	0.487682
C121	C	1.063702	-0.388107	-0.089363
C122	C	1.397035	-0.054774	0.243970
C123	C	1.730369	0.278559	0.577303
C124	C	1.063766	-0.388013	-0.016581
C125	C	1.397100	-0.054680	0.316752
C126	C	1.730433	0.278654	0.650085
C127	C	1.063845	-0.387887	0.074727
C128	C	1.397178	-0.054553	0.408060
C129	C	1.730512	0.278780	0.741394
C130	C	1.063904	-0.387781	0.147503
C131	C	1.397237	-0.054448	0.480836
C132	C	1.730571	0.278885	0.814170
C133	C	1.063982	-0.387656	0.238817
C134	C	1.397315	-0.054323	0.572150
C135	C	1.730648	0.279011	0.905484
H136	H	0.494511	-0.481548	-0.481884
H137	H	0.827844	-0.148215	-0.148551
H138	H	1.161177	0.185118	0.184783
O139	O	0.488400	-0.286355	-0.286904
O140	O	0.821733	0.046978	0.046429
O141	O	1.155066	0.380312	0.379763
C142	C	0.507078	-0.303979	-0.206508
C143	C	0.840411	0.029355	0.126825
C144	C	1.173744	0.362688	0.460159
H145	H	0.562871	-0.334967	-0.204777
H146	H	0.896205	-0.001634	0.128556
H147	H	1.229538	0.331699	0.461889
H148	H	0.509684	-0.245783	-0.170455
H149	H	0.843017	0.087551	0.162878
H150	H	1.176351	0.420884	0.496211
H151	H	0.463782	-0.345436	-0.179282
H152	H	0.797115	-0.012103	0.154052
H153	H	1.130449	0.321231	0.487385
O154	O	0.639954	-0.286329	-0.287075
O155	O	0.973287	0.047005	0.046258
O156	O	1.306620	0.380338	0.379592
C157	C	0.716038	-0.297397	-0.298096
C158	C	1.049371	0.035936	0.035237
C159	C	1.382704	0.369270	0.368570
H160	H	0.726587	-0.323811	-0.360275
H161	H	1.059921	0.009523	-0.026942
H162	H	1.393254	0.342856	0.306392
H163	H	0.745262	-0.237000	-0.292733
H164	H	1.078596	0.096334	0.040600
H165	H	1.411929	0.429667	0.373934
H166	H	0.737786	-0.340329	-0.250194
H167	H	1.071120	-0.006996	0.083139
H168	H	1.404453	0.326337	0.416473
O169	O	0.639874	-0.489669	-0.490032
O170	O	0.973207	-0.156336	-0.156699
O171	O	1.306540	0.176997	0.176635
C172	C	0.589506	-0.535202	-0.535455
C173	C	0.922839	-0.201868	-0.202122
C174	C	1.256172	0.131465	0.131211
H175	H	0.534732	-0.502179	-0.538306
H176	H	0.868066	-0.168846	-0.204973
H177	H	1.201399	0.164487	0.128361
H178	H	0.611774	-0.543804	-0.598968
H179	H	0.945107	-0.210471	-0.265635
H180	H	1.278441	0.122862	0.067698
H181	H	0.581283	-0.596438	-0.505825
H182	H	0.914616	-0.263105	-0.172492
H183	H	1.247949	0.070228	0.160842
