data_functionalizedCrystal
_audit_creation_method	'MofGen! by Chris Wilmer'
_symmetry_space_group_name_H-M	'P1'
_symmetry_Int_Tables_number	1
_symmetry_cell_setting	triclinic
loop_
_symmetry_equiv_pos_as_xyz
  x,y,z
_cell_length_a	16.109301
_cell_length_b	16.109301
_cell_length_c	14.586319
_cell_angle_alpha	90.001321
_cell_angle_beta	90.002176
_cell_angle_gamma	96.538519
loop_
_atom_site_label
_atom_site_type_symbol
_atom_site_fract_x
_atom_site_fract_y
_atom_site_fract_z
O1	O	-1.103127	0.106869	0.076173
O2	O	-0.769794	0.440202	0.409506
O3	O	-0.436460	0.773536	0.742839
O4	O	-0.861065	0.120168	0.076186
O5	O	-0.527732	0.453502	0.409520
O6	O	-0.194398	0.786835	0.742853
O7	O	-0.988746	-0.007512	0.076184
O8	O	-0.655412	0.325821	0.409517
O9	O	-0.322079	0.659154	0.742851
O10	O	-0.975446	0.234550	0.076175
O11	O	-0.642113	0.567883	0.409508
O12	O	-0.308780	0.901216	0.742842
O13	O	-0.988745	-0.007520	-0.076297
O14	O	-0.655411	0.325813	0.257036
O15	O	-0.322078	0.659146	0.590370
O16	O	-0.861064	0.120160	-0.076295
O17	O	-0.527731	0.453494	0.257039
O18	O	-0.194397	0.786827	0.590372
O19	O	-1.103126	0.106861	-0.076308
O20	O	-0.769793	0.440194	0.257025
O21	O	-0.436459	0.773528	0.590359
Cu22	Cu	-0.982095	0.113510	-0.090224
Cu23	Cu	-0.648761	0.446843	0.243109
Cu24	Cu	-0.315428	0.780177	0.576443
Cu25	Cu	-0.982096	0.113520	0.090102
Cu26	Cu	-0.648763	0.446853	0.423436
Cu27	Cu	-0.315429	0.780186	0.756769
O28	O	-0.975445	0.234542	-0.076306
O29	O	-0.642112	0.567875	0.257028
O30	O	-0.308779	0.901208	0.590361
C31	C	-0.830090	0.119626	-0.000052
C32	C	-0.496756	0.452959	0.333281
C33	C	-0.163423	0.786292	0.666614
C34	C	-0.737794	0.118011	-0.000047
C35	C	-0.404461	0.451344	0.333287
C36	C	-0.071128	0.784677	0.666620
C37	C	-0.988206	-0.038491	-0.000053
C38	C	-0.654873	0.294842	0.333280
C39	C	-0.321540	0.628176	0.666613
C40	C	-0.986591	-0.130786	-0.000044
C41	C	-0.653258	0.202547	0.333290
C42	C	-0.319925	0.535880	0.666623
N43	N	-0.982097	0.113520	0.216934
N44	N	-0.648764	0.446853	0.550267
N45	N	-0.315431	0.780187	0.883601
C46	C	-1.134101	0.107404	-0.000067
C47	C	-0.800768	0.440737	0.333266
C48	C	-0.467435	0.774071	0.666599
C49	C	-1.226397	0.109019	-0.000067
C50	C	-0.893063	0.442352	0.333266
C51	C	-0.559730	0.775686	0.666600
C52	C	-0.515522	0.190018	-0.000060
C53	C	-0.182188	0.523352	0.333273
C54	C	0.151145	0.856685	0.666607
C55	C	-0.428801	0.188494	-0.000066
C56	C	-0.095468	0.521828	0.333268
C57	C	0.237865	0.855161	0.666601
C58	C	-0.448676	0.037006	-0.000057
C59	C	-0.115342	0.370339	0.333277
C60	C	0.217991	0.703672	0.666610
C61	C	-0.535394	0.038530	-0.000057
C62	C	-0.202061	0.371864	0.333276
C63	C	0.131272	0.705197	0.666609
C64	C	-0.568815	0.115039	-0.000054
C65	C	-0.235482	0.448373	0.333279
C66	C	0.097852	0.781706	0.666612
C67	C	-0.395376	0.111990	-0.000059
C68	C	-0.062042	0.445324	0.333274
C69	C	0.271291	0.778657	0.666607
C70	C	-0.301350	0.110337	-0.000066
C71	C	0.031984	0.443671	0.333268
C72	C	0.365317	0.777004	0.666601
C73	C	-0.662847	0.116693	-0.000050
C74	C	-0.329514	0.450026	0.333284
C75	C	0.003820	0.783359	0.666617
C76	C	-0.975984	0.265521	-0.000066
C77	C	-0.642651	0.598854	0.333267
C78	C	-0.309318	0.932187	0.666600
C79	C	-0.977600	0.357816	-0.000070
C80	C	-0.644266	0.691149	0.333263
C81	C	-0.310933	1.024483	0.666597
C82	C	-0.905592	0.580088	-0.000053
C83	C	-0.572259	0.913422	0.333281
C84	C	-0.238925	1.246755	0.666614
C85	C	-0.907116	0.666809	-0.000046
C86	C	-0.573783	1.000142	0.333287
C87	C	-0.240449	1.333475	0.666621
C88	C	-1.058605	0.646934	-0.000058
C89	C	-0.725271	0.980268	0.333275
C90	C	-0.391938	1.313601	0.666608
C91	C	-1.057080	0.560216	-0.000059
C92	C	-0.723746	0.893549	0.333275
C93	C	-0.390413	1.226882	0.666608
C94	C	-0.980571	0.526795	-0.000060
C95	C	-0.647238	0.860129	0.333273
C96	C	-0.313904	1.193462	0.666606
C97	C	-0.983620	0.700234	-0.000053
C98	C	-0.650287	1.033568	0.333280
C99	C	-0.316953	1.366901	0.666613
C100	C	-0.985273	0.794260	-0.000046
C101	C	-0.651940	1.127594	0.333287
C102	C	-0.318606	1.460927	0.666621
C103	C	-0.978917	0.432763	-0.000066
C104	C	-0.645584	0.766097	0.333267
C105	C	-0.312251	1.099430	0.666601
N106	N	-0.982100	0.113503	-0.217056
N107	N	-0.648767	0.446836	0.116278
N108	N	-0.315433	0.780170	0.449611
C109	C	-1.038743	0.057093	0.451939
C110	C	-0.705410	0.390426	0.785273
C111	C	-0.372077	0.723759	1.118606
C112	C	-1.038746	0.057091	0.547921
C113	C	-0.705413	0.390424	0.881254
C114	C	-0.372079	0.723757	1.214587
C115	C	-0.925451	0.169936	0.547932
C116	C	-0.592118	0.503270	0.881265
C117	C	-0.258784	0.836603	1.214599
C118	C	-0.925453	0.169942	0.451953
C119	C	-0.592120	0.503275	0.785286
C120	C	-0.258787	0.836608	1.118619
C121	C	-0.982099	0.113515	0.403959
C122	C	-0.648765	0.446848	0.737292
C123	C	-0.315432	0.780182	1.070625
C124	C	-0.982099	0.113508	0.595919
C125	C	-0.648765	0.446841	0.929253
C126	C	-0.315432	0.780175	1.262586
C127	C	-0.982101	0.113506	0.699987
C128	C	-0.648768	0.446839	1.033320
C129	C	-0.315434	0.780173	1.366653
C130	C	-0.982098	0.113518	0.299885
C131	C	-0.648764	0.446851	0.633218
C132	C	-0.315431	0.780184	0.966552
H133	H	-0.542730	0.252317	-0.000065
H134	H	-0.209396	0.585650	0.333269
H135	H	0.123937	0.918983	0.666602
F136	F	-1.099032	-0.002959	0.400864
F137	F	-0.765699	0.330374	0.734198
F138	F	-0.432366	0.663707	1.067531
H139	H	-0.843293	0.552881	-0.000057
H140	H	-0.509960	0.886214	0.333276
H141	H	-0.176627	1.219547	0.666609
F142	F	-1.099037	-0.002960	0.598981
F143	F	-0.765704	0.330373	0.932314
F144	F	-0.432370	0.663707	1.265648
H145	H	-0.385413	0.249550	-0.000072
H146	H	-0.052080	0.582883	0.333261
H147	H	0.281254	0.916217	0.666594
H148	H	-0.421454	-0.025285	-0.000064
H149	H	-0.088121	0.308048	0.333269
H150	H	0.245213	0.641381	0.666602
H151	H	-0.846060	0.710197	-0.000038
H152	H	-0.512727	1.043531	0.333295
H153	H	-0.179394	1.376864	0.666628
F154	F	-0.592117	-0.041277	-0.000057
F155	F	-0.258784	0.292056	0.333276
F156	F	0.074550	0.625390	0.666609
H157	H	-1.120896	0.674156	-0.000066
H158	H	-0.787562	1.007490	0.333267
H159	H	-0.454229	1.340823	0.666601
H160	H	-1.118140	0.516822	-0.000061
H161	H	-0.784807	0.850155	0.333272
H162	H	-0.451474	1.183488	0.666605
H163	H	-0.879331	0.215876	0.587018
H164	H	-0.545997	0.549210	0.920352
H165	H	-0.212664	0.882543	1.253685
H166	H	-0.879326	0.215891	0.412884
H167	H	-0.545993	0.549225	0.746217
H168	H	-0.212659	0.882558	1.079551
