data_functionalizedCrystal
_audit_creation_method	'MofGen! by Chris Wilmer'
_symmetry_space_group_name_H-M	'P1'
_symmetry_Int_Tables_number	1
_symmetry_cell_setting	triclinic
loop_
_symmetry_equiv_pos_as_xyz
  x,y,z
_cell_length_a	15.625950
_cell_length_b	17.038272
_cell_length_c	14.185292
_cell_angle_alpha	104.126249
_cell_angle_beta	59.450166
_cell_angle_gamma	87.507827
loop_
_atom_site_label
_atom_site_type_symbol
_atom_site_fract_x
_atom_site_fract_y
_atom_site_fract_z
O1	O	1.292390	0.020101	-0.386561
O2	O	1.007130	0.054267	-0.282822
O3	O	1.148067	-0.076504	-0.334084
O4	O	1.151454	0.150873	-0.335300
O5	O	1.189715	-0.115137	-0.516074
O6	O	1.048779	0.015634	-0.464813
O7	O	1.334039	-0.018532	-0.568552
Cu8	Cu	1.195212	-0.004976	-0.533300
Cu9	Cu	1.145957	0.040712	-0.318074
O10	O	1.193102	0.112240	-0.517290
C11	C	0.991275	0.037229	-0.360479
C12	C	0.881981	0.044009	-0.320733
C13	C	0.635918	-0.038916	-0.685896
C14	C	0.533207	-0.032519	-0.648498
C15	C	0.487854	0.009594	-0.450117
C16	C	0.590564	0.003204	-0.487499
C17	C	0.664589	-0.021052	-0.605389
C18	C	0.619234	0.021068	-0.406992
C19	C	0.721934	0.014675	-0.444372
C20	C	0.795965	-0.009582	-0.562257
C21	C	0.767289	-0.027445	-0.642769
C22	C	0.545208	0.045319	-0.289102
C23	C	0.573878	0.063183	-0.208596
C24	C	0.676579	0.056795	-0.245974
C25	C	0.750610	0.032538	-0.363860
C26	C	0.705255	0.074658	-0.165463
C27	C	0.807956	0.068265	-0.202842
C28	C	0.853311	0.026145	-0.401239
C29	C	1.165807	-0.124715	-0.423958
C30	C	1.156606	-0.210809	-0.420611
C31	C	1.241083	-0.267338	-0.451333
C32	C	1.232429	-0.348230	-0.448177
C33	C	1.139300	-0.372592	-0.414306
C34	C	1.054816	-0.316055	-0.383578
C35	C	1.063469	-0.235163	-0.386727
C36	C	1.108730	-0.616025	-0.403175
C37	C	1.100084	-0.696924	-0.400031
C38	C	1.277698	-0.729093	-0.464628
C39	C	1.286344	-0.648200	-0.467781
C40	C	1.201859	-0.591669	-0.437047
C41	C	1.130453	-0.455276	-0.411082
C42	C	1.210704	-0.508985	-0.440264
C43	C	1.349893	-0.001493	-0.490893
C44	C	1.459186	-0.008271	-0.530632
C45	C	1.175361	0.160451	-0.427414
C46	C	1.184561	0.246546	-0.430753
N47	N	1.229862	-0.037112	-0.684680
C48	C	1.331631	-0.131475	-0.879221
C49	C	1.305386	-0.107146	-0.764649
C50	C	1.180548	0.008618	-0.719259
C51	C	1.206779	-0.015703	-0.833828
C52	C	1.282322	-0.085750	-0.913801
C53	C	1.157469	0.030022	-0.868408
C54	C	1.183702	0.005704	-0.982969
C55	C	1.259244	-0.064339	-1.062949
C56	C	1.308554	-0.110068	-1.028362
C57	C	1.081932	0.100072	-0.788435
C58	C	1.032622	0.145796	-0.823015
C59	C	1.058849	0.121476	-0.937575
C60	C	1.134392	0.051433	-1.017556
C61	C	1.009539	0.167205	-0.972163
C62	C	1.035772	0.142887	-1.086723
C63	C	1.160624	0.027116	-1.132117
N64	N	1.111315	0.072840	-0.166697
H65	H	0.879589	-0.014788	-0.592689
H66	H	1.280605	-0.084135	-1.156232
H67	H	0.978987	-0.335895	-0.355993
Cl68	Cl	1.403417	-0.617573	-0.510328
Cl69	Cl	0.480812	0.093649	-0.060396
H70	H	1.370061	-0.167112	-1.093479
Cl71	Cl	1.085585	0.096676	-0.618715
H72	H	1.345548	-0.144386	-0.736504
Cl73	Cl	0.728986	-0.069400	-0.834104
Cl74	Cl	0.914585	0.255268	-0.871619
H75	H	0.971117	0.202831	-0.757889
H76	H	1.060579	0.119870	-0.695155
Cl77	Cl	1.383899	-0.800163	-0.503259
Cl78	Cl	0.612188	0.105118	-0.017265
H79	H	0.827565	-0.047185	-0.738767
Cl80	Cl	0.844003	0.090721	-0.101634
H81	H	0.509870	-0.047050	-0.714064
H82	H	1.039936	-0.570007	-0.378150
Cl83	Cl	0.957264	-0.164096	-0.348099
H84	H	0.461583	0.050527	-0.258672
Cl85	Cl	1.358168	-0.236723	-0.493927
H86	H	1.393138	-0.188519	-0.944338
Cl87	Cl	0.973783	0.200374	-1.130197
Cl88	Cl	0.983000	-0.727550	-0.357454
Cl89	Cl	0.394789	0.040060	-0.301918
Cl90	Cl	1.327776	-0.478355	-0.482837
Cl91	Cl	0.946378	-0.004339	-0.549448
Cl92	Cl	1.338634	-0.419293	-0.486804
H93	H	1.054627	-0.475121	-0.383506
Cl94	Cl	1.255584	-0.060953	-1.232656
