data_functionalizedCrystal
_audit_creation_method	'MofGen! by Chris Wilmer'
_symmetry_space_group_name_H-M	'P1'
_symmetry_Int_Tables_number	1
_symmetry_cell_setting	triclinic
loop_
_symmetry_equiv_pos_as_xyz
  x,y,z
_cell_length_a	12.837943
_cell_length_b	10.489741
_cell_length_c	11.295483
_cell_angle_alpha	94.137284
_cell_angle_beta	85.461227
_cell_angle_gamma	89.684057
loop_
_atom_site_label
_atom_site_type_symbol
_atom_site_fract_x
_atom_site_fract_y
_atom_site_fract_z
O1	O	1.384854	0.324137	-0.099003
O2	O	1.082927	0.307742	-0.099010
O3	O	1.240760	0.131100	-0.098999
O4	O	1.227021	0.500780	-0.099013
O5	O	1.226897	0.146588	0.099051
O6	O	1.069064	0.323231	0.099040
O7	O	1.370991	0.339626	0.099047
Cu8	Cu	1.218762	0.332842	0.117127
Cu9	Cu	1.235156	0.314526	-0.117090
O10	O	1.213158	0.516268	0.099036
C11	C	1.037334	0.309948	0.000014
C12	C	0.922133	0.293430	0.000012
C13	C	0.682657	0.492006	0.000021
C14	C	0.574415	0.476492	0.000020
C15	C	0.597406	0.246889	0.000016
C16	C	0.705648	0.262403	0.000017
C17	C	0.748269	0.384966	0.000018
C18	C	0.856513	0.400478	0.000011
C19	C	0.879501	0.170877	0.000016
C20	C	0.771260	0.155363	0.000014
C21	C	1.232791	0.091198	0.000025
C22	C	1.229686	-0.050774	0.000023
C23	C	1.129262	-0.129987	0.000012
C24	C	1.169867	-0.209242	0.097662
C25	C	1.183558	-0.224485	-0.097600
C26	C	1.270327	-0.128153	0.097754
C27	C	1.284011	-0.143394	-0.097596
C28	C	1.324687	-0.222613	0.000078
C29	C	1.416585	0.337420	0.000020
C30	C	1.531786	0.353937	0.000015
C31	C	1.221127	0.556170	0.000010
C32	C	1.224233	0.698141	0.000004
N33	N	1.207238	0.345726	0.281863
N34	N	1.246688	0.301633	-0.281825
C35	C	1.329641	0.208822	0.531161
C36	C	1.320940	0.218568	0.655824
C37	C	1.181131	0.374956	0.655854
C38	C	1.189832	0.365210	0.531191
C39	C	1.264090	0.282142	0.468849
C40	C	1.272796	0.272403	0.344183
C41	C	1.132982	0.428784	0.344216
C42	C	1.124281	0.438530	0.468879
H43	H	0.562677	0.147112	0.000113
H44	H	1.374316	0.158862	0.706555
H45	H	1.332246	-0.114126	-0.180154
H46	H	1.120664	0.442579	0.706630
H47	H	0.932936	0.083716	0.000006
C48	C	1.019122	-0.075950	0.000379
C49	C	0.959850	-0.108969	0.102861
C50	C	0.858392	-0.059196	0.103253
H51	H	0.987759	-0.110216	-0.068208
H52	H	1.021870	0.014488	-0.000265
H53	H	0.957097	-0.199389	0.103494
H54	H	0.991180	-0.074704	0.171465
H55	H	0.861140	0.031242	0.102610
H56	H	0.827039	-0.093466	0.034662
H57	H	0.818166	-0.081582	0.172791
C58	C	0.729144	0.624956	-0.000043
C59	C	0.837983	0.615629	-0.000070
C60	C	0.880841	0.738076	-0.000144
H61	H	0.701965	0.675096	0.069000
H62	H	0.711578	0.664199	-0.069137
H63	H	0.855540	0.576405	0.069018
H64	H	0.865190	0.565513	-0.069107
H65	H	0.863275	0.777319	-0.069239
H66	H	0.853654	0.788206	0.068900
H67	H	0.954692	0.731764	-0.000173
C68	C	1.043765	0.528692	0.536786
C69	C	1.050189	0.521558	0.659299
C70	C	0.976044	0.604614	0.721888
H71	H	0.975785	0.504867	0.516515
H72	H	1.057106	0.613708	0.516421
H73	H	1.036841	0.436560	0.679655
H74	H	1.118152	0.545394	0.679605
H75	H	0.989385	0.689631	0.701523
H76	H	0.908070	0.580782	0.701607
H77	H	0.980400	0.599794	0.805019
H78	H	1.079610	0.488490	0.293468
C79	C	0.503246	0.592736	-0.000229
C80	C	0.529757	0.657786	-0.102136
C81	C	0.464210	0.764871	-0.102412
H82	H	0.511374	0.647984	0.068755
H83	H	0.432666	0.565993	-0.000295
H84	H	0.600321	0.684531	-0.102059
H85	H	0.521624	0.602575	-0.171136
H86	H	0.393629	0.738129	-0.102478
H87	H	0.472343	0.820109	-0.033424
H88	H	0.482182	0.809014	-0.171560
C89	C	0.724784	0.022402	-0.000049
C90	C	0.615949	0.031719	-0.000077
C91	C	0.573105	-0.090741	-0.000155
H92	H	0.742301	-0.016946	0.068993
H93	H	0.752022	-0.027639	-0.069145
H94	H	0.588721	0.081740	0.069012
H95	H	0.598403	0.071045	-0.069114
H96	H	0.600343	-0.140782	-0.069251
H97	H	0.590629	-0.130079	0.068887
H98	H	0.499257	-0.084437	-0.000185
C99	C	1.105696	-0.248317	0.207837
C100	C	1.168713	-0.319075	0.275384
C101	C	1.109633	-0.355074	0.376887
H102	H	1.048708	-0.299036	0.184514
H103	H	1.079873	-0.174008	0.254209
H104	H	1.194521	-0.393373	0.229021
H105	H	1.225700	-0.268380	0.298738
H106	H	1.083810	-0.280765	0.423259
H107	H	1.052647	-0.405789	0.353552
H108	H	1.152384	-0.403077	0.422735
C109	C	1.410260	0.118799	0.463251
C110	C	1.403878	0.125997	0.340739
C111	C	1.478150	0.043114	0.278146
H112	H	1.397043	0.033742	0.483523
H113	H	1.478196	0.142771	0.483611
H114	H	1.335957	0.102018	0.320387
H115	H	1.417105	0.211034	0.320432
H116	H	1.546086	0.067086	0.298507
H117	H	1.464927	-0.041937	0.298428
H118	H	1.473836	0.047995	0.195016
H119	H	1.146833	-0.266591	-0.180163
H120	H	0.891213	0.500275	0.000014
H121	H	1.306997	-0.086177	0.180402
H122	H	1.333263	0.204769	0.293425
H123	H	1.407326	-0.262921	0.000134
