data_functionalizedCrystal
_audit_creation_method	'MofGen! by Chris Wilmer'
_symmetry_space_group_name_H-M	'P1'
_symmetry_Int_Tables_number	1
_symmetry_cell_setting	triclinic
loop_
_symmetry_equiv_pos_as_xyz
  x,y,z
_cell_length_a	16.120530
_cell_length_b	12.827892
_cell_length_c	12.827885
_cell_angle_alpha	90.029786
_cell_angle_beta	87.081295
_cell_angle_gamma	92.888896
loop_
_atom_site_label
_atom_site_type_symbol
_atom_site_fract_x
_atom_site_fract_y
_atom_site_fract_z
Zn1	Zn	1.274619	0.497099	-0.671825
Zn2	Zn	1.274534	0.671871	-0.497080
Zn3	Zn	1.135196	0.488277	-0.488241
Zn4	Zn	1.135185	0.662925	-0.662927
O5	O	1.204884	0.580043	-0.580018
O6	O	1.391274	0.527718	-0.656068
O7	O	1.256020	0.647568	-0.349669
O8	O	1.153731	0.343213	-0.512619
O9	O	1.391212	0.656122	-0.527683
O10	O	1.256164	0.349695	-0.647497
O11	O	1.153649	0.512683	-0.343176
O12	O	1.018528	0.504008	-0.503991
O13	O	1.153712	0.640876	-0.810346
O14	O	1.018520	0.632322	-0.632332
O15	O	1.256154	0.519044	-0.816883
O16	O	1.256009	0.816917	-0.519055
O17	O	1.153630	0.810345	-0.640902
C18	C	0.988274	0.566238	-0.566237
C19	C	0.895607	0.560357	-0.560366
C20	C	1.204831	0.851549	-0.579997
C21	C	1.204885	0.967706	-0.580027
C22	C	1.204959	0.307477	-0.580065
C23	C	1.204991	0.191326	-0.580084
C24	C	0.725944	0.549596	-0.549657
C25	C	0.684664	0.610566	-0.610456
C26	C	0.590258	0.604579	-0.604497
C27	C	0.820359	0.555582	-0.555614
C28	C	1.422339	0.593902	-0.593854
C29	C	1.515006	0.599808	-0.599750
C30	C	1.204941	0.579946	-0.852592
C31	C	1.204966	0.579905	-0.968747
C32	C	1.255606	1.022712	-0.519808
C33	C	1.255663	1.142766	-0.519838
C34	C	1.154325	0.513148	-1.017320
C35	C	1.154350	0.513104	-1.137372
C36	C	1.204874	0.580067	-0.308508
C37	C	1.205011	0.579824	-0.192364
H38	H	0.720225	0.667260	-0.666985
O39	O	1.313203	1.205396	-0.451559
H40	H	1.304229	1.289863	-0.462312
H41	H	1.161561	1.144042	-0.631639
O42	O	0.678833	0.474521	-0.474775
H43	H	0.695488	0.393551	-0.493854
H44	H	1.248337	0.637026	-1.016040
H45	H	1.298991	0.980928	-0.468233
H46	H	1.161507	1.009493	-0.631610
H47	H	1.110949	0.456031	-0.970026
O48	O	1.096930	0.437380	-1.192712
H49	H	1.054540	0.481466	-1.239739
O50	O	1.262452	0.655538	-1.137042
H51	H	1.225080	0.706306	-1.084933
