data_functionalizedCrystal
_audit_creation_method	'MofGen! by Chris Wilmer'
_symmetry_space_group_name_H-M	'P1'
_symmetry_Int_Tables_number	1
_symmetry_cell_setting	triclinic
loop_
_symmetry_equiv_pos_as_xyz
  x,y,z
_cell_length_a	12.759401
_cell_length_b	21.395361
_cell_length_c	21.395364
_cell_angle_alpha	90.006881
_cell_angle_beta	90.015198
_cell_angle_gamma	90.032233
loop_
_atom_site_label
_atom_site_type_symbol
_atom_site_fract_x
_atom_site_fract_y
_atom_site_fract_z
Zn1	Zn	1.606090	-0.249576	0.354218
Zn2	Zn	1.605949	-0.354309	0.249435
Zn3	Zn	1.430406	-0.249552	0.249458
Zn4	Zn	1.430331	-0.354323	0.354178
O5	O	1.518194	-0.301940	0.301822
O6	O	1.753092	-0.263474	0.340325
O7	O	1.582636	-0.340397	0.161760
O8	O	1.453801	-0.161878	0.263381
O9	O	1.752989	-0.340420	0.263342
O10	O	1.582875	-0.161895	0.340347
O11	O	1.453665	-0.263433	0.161777
O12	O	1.283375	-0.263446	0.263342
O13	O	1.453674	-0.340443	0.441862
O14	O	1.283320	-0.340420	0.340280
O15	O	1.582803	-0.263487	0.441891
O16	O	1.582563	-0.441989	0.263303
O17	O	1.453537	-0.441999	0.340258
C18	C	1.245227	-0.301932	0.301810
C19	C	1.128450	-0.301944	0.301819
C20	C	1.073587	-0.342086	0.341818
C21	C	0.963863	-0.342088	0.341830
C22	C	0.963875	-0.261806	0.261841
C23	C	1.073597	-0.261801	0.261832
C24	C	1.518056	-0.464728	0.301787
C25	C	1.518092	-0.534369	0.301794
C26	C	1.585336	-0.567056	0.261764
C27	C	1.585384	-0.632492	0.261778
C28	C	1.518171	-0.665237	0.301815
C29	C	1.450923	-0.632542	0.341852
C30	C	1.450884	-0.567108	0.341841
C31	C	1.423572	-0.768955	0.306727
C32	C	1.423610	-0.834388	0.306733
C33	C	1.518294	-0.867058	0.301852
C34	C	1.612942	-0.834287	0.296951
C35	C	1.612903	-0.768853	0.296940
C36	C	1.518207	-0.736190	0.301831
C37	C	1.585596	-0.970698	0.261836
C38	C	1.585646	-1.036134	0.261854
C39	C	1.451176	-1.036184	0.341924
C40	C	1.451134	-0.970748	0.341909
C41	C	1.518343	-0.938009	0.301861
C42	C	1.792227	-0.301948	0.301835
C43	C	1.909004	-0.301952	0.301841
C44	C	1.518245	-0.301969	0.465246
C45	C	1.518267	-0.301981	0.534887
C46	C	1.518362	-0.138517	0.301871
C47	C	1.518434	-0.068875	0.301892
C48	C	1.585494	-0.261917	0.567616
C49	C	1.585479	-0.261907	0.633051
C50	C	1.518246	-0.301972	0.665755
C51	C	1.451006	-0.342040	0.633018
C52	C	1.451016	-0.342044	0.567584
C53	C	1.509880	-0.358414	0.769418
C54	C	1.509877	-0.358411	0.834851
C55	C	1.518208	-0.301958	0.867576
C56	C	1.526565	-0.245506	0.834860
C57	C	1.526575	-0.245511	0.769426
C58	C	1.518227	-0.301971	0.736708
C59	C	1.585422	-0.261878	0.971258
C60	C	1.585399	-0.261867	1.036694
C61	C	1.450932	-0.342006	1.036660
C62	C	1.450949	-0.342012	0.971224
C63	C	1.518200	-0.301949	0.938527
C64	C	1.518148	-0.301930	1.139035
C65	C	1.518165	-0.301932	1.069393
H66	H	1.640063	-0.540402	0.229157
N67	N	1.657970	-0.218679	0.935988
H68	H	1.647791	-0.224771	0.889569
H69	H	1.732980	-0.228450	0.947454
N70	N	1.657915	-0.667758	0.218603
H71	H	1.700485	-0.637089	0.193233
H72	H	1.615187	-0.694938	0.189593
H73	H	1.640142	-0.229238	1.063341
N74	N	1.715073	-0.869515	0.291686
H75	H	1.775022	-0.838826	0.288579
H76	H	1.713615	-0.896676	0.253085
H77	H	1.346463	-0.742362	0.310704
N78	N	1.132745	-0.385379	0.384951
H79	H	1.178312	-0.359966	0.414029
H80	H	1.178165	-0.414361	0.359386
H81	H	0.919198	-0.374774	0.374402
H82	H	1.396212	-0.374640	0.944576
N83	N	1.714978	-0.733505	0.291657
H84	H	1.774971	-0.764126	0.288566
H85	H	1.724672	-0.706341	0.329834
N86	N	1.658084	-0.935376	0.218651
H87	H	1.641825	-0.946787	0.173877
H88	H	1.733120	-0.946728	0.228478
N89	N	1.500904	-0.419308	0.734127
H90	H	1.502176	-0.410747	0.687711
H91	H	1.432891	-0.440600	0.745548
H92	H	1.533377	-0.199547	0.742791
N93	N	0.904712	-0.218526	0.218696
H94	H	0.826878	-0.224626	0.224764
H95	H	0.923869	-0.228215	0.173935
N96	N	1.378592	-0.935486	0.385074
H97	H	1.421238	-0.908305	0.414128
H98	H	1.336031	-0.966197	0.410397
H99	H	1.118268	-0.229109	0.229260
H100	H	1.503079	-0.404377	0.861483
N101	N	1.658182	-1.071393	0.218681
H102	H	1.700747	-1.040722	0.193310
H103	H	1.615460	-1.098577	0.189671
H104	H	1.396200	-0.659208	0.374451
N105	N	1.378688	-1.071492	0.385113
H106	H	1.388917	-1.117905	0.379048
H107	H	1.303655	-1.060101	0.375321
N108	N	1.658001	-0.218694	0.668358
H109	H	1.706650	-0.244163	0.695514
H110	H	1.615263	-0.189661	0.695464
N111	N	1.378353	-0.531848	0.385016
H112	H	1.335780	-0.562518	0.410384
H113	H	1.329742	-0.504735	0.359479
N114	N	1.321530	-0.869732	0.312009
H115	H	1.261543	-0.839108	0.315106
H116	H	1.323017	-0.896872	0.350617
N117	N	1.658024	-0.218707	0.532350
H118	H	1.700609	-0.193324	0.563017
H119	H	1.615294	-0.189710	0.505194
H120	H	1.396262	-0.374660	0.659650
H121	H	1.533351	-0.199537	0.861503
N122	N	1.378406	-0.385216	1.071923
H123	H	1.388597	-0.379133	1.118342
H124	H	1.394711	-0.429965	1.060489
N125	N	1.378489	-0.385250	0.532278
H126	H	1.335886	-0.410627	0.562922
H127	H	1.421217	-0.414253	0.505134
