data_functionalizedCrystal
_audit_creation_method	'MofGen! by Chris Wilmer'
_symmetry_space_group_name_H-M	'P1'
_symmetry_Int_Tables_number	1
_symmetry_cell_setting	triclinic
loop_
_symmetry_equiv_pos_as_xyz
  x,y,z
_cell_length_a	23.532407
_cell_length_b	23.532407
_cell_length_c	8.140239
_cell_angle_alpha	89.988012
_cell_angle_beta	90.002624
_cell_angle_gamma	82.848713
loop_
_atom_site_label
_atom_site_type_symbol
_atom_site_fract_x
_atom_site_fract_y
_atom_site_fract_z
O1	O	0.755258	0.069134	-0.136438
O2	O	1.255258	0.569134	0.363562
O3	O	0.589395	0.079137	-0.136491
O4	O	1.089395	0.579137	0.363509
O5	O	0.677328	-0.008796	-0.136417
O6	O	1.177328	0.491204	0.363583
O7	O	0.667325	0.157067	-0.136512
O8	O	1.167325	0.657067	0.363488
O9	O	0.677323	-0.008797	0.136810
O10	O	1.177323	0.491203	0.636810
O11	O	0.589390	0.079136	0.136736
O12	O	1.089390	0.579136	0.636736
O13	O	0.755253	0.069133	0.136789
O14	O	1.255253	0.569133	0.636789
Zn15	Zn	0.672321	0.074134	0.180143
Zn16	Zn	1.172321	0.574134	0.680143
Zn17	Zn	0.672327	0.074136	-0.179845
Zn18	Zn	1.172327	0.574136	0.320155
O19	O	0.667320	0.157066	0.136715
O20	O	1.167320	0.657066	0.636715
C21	C	0.568176	0.078882	0.000117
C22	C	1.068176	0.578882	0.500117
C23	C	0.504959	0.078116	0.000099
C24	C	1.004959	0.578116	0.500099
C25	C	0.105856	0.125350	0.000146
C26	C	0.605856	0.625350	0.500146
C27	C	0.046456	0.124638	0.000157
C28	C	0.546456	0.624638	0.500157
O29	O	0.009711	0.168424	0.000191
O30	O	0.509711	0.668424	0.500191
N31	N	0.023830	0.072362	0.000184
N32	N	0.523830	0.572362	0.500184
C33	C	0.060607	0.020794	0.000217
C34	C	0.560607	0.520794	0.500217
O35	O	0.035908	-0.023737	0.000243
O36	O	0.535908	0.476263	0.500243
C37	C	0.120006	0.021506	0.000219
C38	C	0.620006	0.521506	0.500219
C39	C	0.142629	0.073785	0.000175
C40	C	0.642629	0.573785	0.500175
C41	C	0.128480	0.177625	0.000104
C42	C	0.628480	0.677625	0.500104
C43	C	0.187876	0.178336	0.000090
C44	C	0.687876	0.678336	0.500090
C45	C	0.224649	0.126772	0.000119
C46	C	0.724649	0.626772	0.500119
C47	C	0.202025	0.074496	0.000161
C48	C	0.702025	0.574496	0.500161
C49	C	0.156783	-0.030062	0.000264
C50	C	0.656783	0.469938	0.500264
C51	C	0.216185	-0.029345	0.000267
C52	C	0.716185	0.470655	0.500267
C53	C	0.238808	0.022934	0.000223
C54	C	0.738808	0.522934	0.500223
C55	C	0.298194	0.023643	0.000176
C56	C	0.798194	0.523643	0.500176
N57	N	0.320821	0.075920	0.000149
N58	N	0.820821	0.575920	0.500149
C59	C	0.284048	0.127484	0.000120
C60	C	0.784048	0.627484	0.500120
C61	C	-0.064135	0.019302	0.000218
C62	C	0.435865	0.519302	0.500218
C63	C	-0.123533	0.018589	0.000205
C64	C	0.376467	0.518589	0.500205
C65	C	-0.137680	0.122434	0.000147
C66	C	0.362320	0.622434	0.500147
C67	C	-0.078281	0.123146	0.000148
C68	C	0.421719	0.623146	0.500148
C69	C	-0.041509	0.071578	0.000190
C70	C	0.458491	0.571578	0.500190
C71	C	0.408784	0.128974	0.000091
C72	C	0.908784	0.628974	0.500091
C73	C	0.468186	0.129680	0.000070
C74	C	0.968186	0.629680	0.500070
C75	C	0.482329	0.025836	0.000137
C76	C	0.982329	0.525836	0.500137
C77	C	0.422932	0.025129	0.000148
C78	C	0.922932	0.525129	0.500148
C79	C	0.386160	0.076702	0.000131
C80	C	0.886160	0.576702	0.500131
O81	O	0.334974	-0.020119	0.000149
O82	O	0.834974	0.479881	0.500149
O83	O	0.308756	0.172007	0.000116
O84	O	0.808756	0.672007	0.500116
C85	C	0.677071	-0.030013	0.000205
C86	C	1.177071	0.469987	0.500205
C87	C	0.676305	-0.093230	0.000229
C88	C	1.176305	0.406770	0.500229
C89	C	0.621110	-0.359397	0.000110
C90	C	1.121110	0.140603	0.500110
C91	C	0.621821	-0.299997	0.000122
C92	C	1.121821	0.200003	0.500122
O93	O	0.578035	-0.263252	0.000057
O94	O	1.078035	0.236748	0.500057
N95	N	0.674097	-0.277371	0.000158
N96	N	1.174097	0.222629	0.500158
C97	C	0.725666	-0.314148	0.000164
C98	C	1.225666	0.185852	0.500164
O99	O	0.770196	-0.289449	0.000194
O100	O	1.270196	0.210551	0.500194
C101	C	0.724954	-0.373547	0.000139
C102	C	1.224954	0.126453	0.500139
C103	C	0.672674	-0.396170	0.000120
C104	C	1.172674	0.103830	0.500120
C105	C	0.568834	-0.382020	0.000089
C106	C	1.068834	0.117980	0.500089
C107	C	0.568123	-0.441417	0.000079
C108	C	1.068123	0.058583	0.500079
C109	C	0.619687	-0.478189	0.000090
C110	C	1.119687	0.021811	0.500090
C111	C	0.671963	-0.455566	0.000111
C112	C	1.171963	0.044434	0.500111
C113	C	0.776521	-0.410324	0.000133
C114	C	1.276521	0.089676	0.500133
C115	C	0.775805	-0.469726	0.000107
C116	C	1.275805	0.030274	0.500107
C117	C	0.723525	-0.492349	0.000089
C118	C	1.223525	0.007651	0.500089
C119	C	0.722816	-0.551735	0.000112
C120	C	1.222816	-0.051735	0.500112
N121	N	0.670539	-0.574361	0.000076
N122	N	1.170539	-0.074361	0.500076
C123	C	0.618975	-0.537589	0.000065
C124	C	1.118975	-0.037589	0.500065
C125	C	0.727157	-0.189406	0.000213
C126	C	1.227157	0.310594	0.500213
C127	C	0.727870	-0.130008	0.000249
C128	C	1.227870	0.369992	0.500249
C129	C	0.624025	-0.115861	0.000205
C130	C	1.124025	0.384139	0.500205
C131	C	0.623313	-0.175260	0.000180
C132	C	1.123313	0.324740	0.500180
C133	C	0.674881	-0.212032	0.000177
C134	C	1.174881	0.287968	0.500177
C135	C	0.617486	-0.662325	0.000046
C136	C	1.117486	-0.162325	0.500046
C137	C	0.616779	-0.721727	0.000043
C138	C	1.116779	-0.221727	0.500043
C139	C	0.720623	-0.735869	0.000079
C140	C	1.220623	-0.235869	0.500079
C141	C	0.721330	-0.676473	0.000091
C142	C	1.221330	-0.176473	0.500091
C143	C	0.669757	-0.639701	0.000069
C144	C	1.169757	-0.139701	0.500069
O145	O	0.766579	-0.588514	0.000171
O146	O	1.266579	-0.088514	0.500171
O147	O	0.574452	-0.562296	0.000014
O148	O	1.074452	-0.062296	0.500014
C149	C	0.776472	0.069388	0.000178
C150	C	1.276472	0.569388	0.500178
C151	C	0.839689	0.070154	0.000185
C152	C	1.339689	0.570154	0.500185
C153	C	0.667577	0.178283	0.000089
C154	C	1.167577	0.678283	0.500089
C155	C	0.668343	0.241500	0.000054
C156	C	1.168343	0.741500	0.500054
N157	N	0.672321	0.074133	0.425826
N158	N	1.172321	0.574133	0.925826
N159	N	0.672332	0.074132	-0.425528
N160	N	1.172332	0.574132	0.074472
H161	H	0.486602	0.172255	0.000033
H162	H	0.986602	0.672255	0.500033
C163	C	0.212756	0.235843	0.000054
C164	C	0.712756	0.735843	0.500054
H165	H	0.253399	0.228889	0.000042
H166	H	0.753399	0.728889	0.500042
H167	H	0.200113	0.257058	0.095322
H168	H	0.700113	0.757058	0.595322
H169	H	0.200109	0.257057	-0.095251
H170	H	0.700109	0.757057	0.404749
H171	H	-0.141947	-0.023982	0.000215
H172	H	0.358053	0.476018	0.500215
C173	C	0.088038	0.234351	0.000058
C174	C	0.588038	0.734351	0.500058
H175	H	0.110027	0.265581	0.000021
H176	H	0.610027	0.765581	0.500021
H177	H	0.064569	0.236242	0.095330
H178	H	0.564569	0.736242	0.595330
H179	H	0.064575	0.236232	-0.095243
H180	H	0.564575	0.736232	0.404757
H181	H	0.770441	-0.111594	0.000290
H182	H	1.270441	0.388406	0.500290
H183	H	-0.034198	-0.022693	0.000237
H184	H	0.465802	0.477307	0.500237
C185	C	0.777341	-0.776324	0.000082
C186	C	1.277341	-0.276324	0.500082
H187	H	0.808581	-0.754347	0.000106
H188	H	1.308581	-0.254347	0.500106
H189	H	0.779217	-0.799779	-0.095206
H190	H	1.279217	-0.299779	0.404794
H191	H	0.779220	-0.799800	0.095367
H192	H	1.279220	-0.299800	0.595367
C193	C	0.522786	-0.030880	0.000181
C194	C	1.022786	0.469120	0.500181
H195	H	0.561400	-0.022964	0.000188
H196	H	1.061400	0.477036	0.500188
H197	H	0.515961	-0.052338	-0.095076
H198	H	1.015961	0.447662	0.404924
H199	H	0.515961	-0.052325	0.095497
H200	H	1.015961	0.447675	0.595497
H201	H	0.769152	-0.219343	0.000222
H202	H	1.269152	0.280657	0.500222
H203	H	-0.167632	0.164421	0.000131
H204	H	0.332368	0.664421	0.500131
C205	C	0.565806	-0.200139	0.000135
C206	C	1.065806	0.299861	0.500135
H207	H	0.535201	-0.169727	0.000121
H208	H	1.035201	0.330273	0.500121
H209	H	0.563362	-0.223030	0.095398
H210	H	1.063362	0.276970	0.595398
H211	H	0.563372	-0.223001	-0.095175
H212	H	1.063372	0.276999	0.404825
C213	C	0.834030	-0.385452	0.000131
C214	C	1.334030	0.114548	0.500131
H215	H	0.864632	-0.415867	0.000109
H216	H	1.364632	0.084133	0.500109
H217	H	0.836477	-0.362583	0.095410
H218	H	1.336477	0.137417	0.595410
H219	H	0.836465	-0.362568	-0.095163
H220	H	1.336465	0.137432	0.404837
C221	C	0.832531	-0.510173	0.000112
C222	C	1.332531	-0.010173	0.500112
H223	H	0.863765	-0.488188	0.000139
H224	H	1.363765	0.011812	0.500139
H225	H	0.834415	-0.533630	-0.095170
H226	H	1.334415	-0.033630	0.404830
H227	H	0.834412	-0.533646	0.095402
H228	H	1.334412	-0.033646	0.595402
C229	C	0.559269	-0.746609	0.000009
C230	C	1.059269	-0.246609	0.500009
H231	H	0.528663	-0.716198	-0.000015
H232	H	1.028663	-0.216198	0.499985
H233	H	0.556827	-0.769496	0.095281
H234	H	1.056827	-0.269496	0.595281
H235	H	0.556836	-0.769476	-0.095292
H236	H	1.056836	-0.269476	0.404708
C237	C	0.778836	-0.651586	0.000131
C238	C	1.278836	-0.151586	0.500131
H239	H	0.809443	-0.681996	0.000132
H240	H	1.309443	-0.181996	0.500132
H241	H	0.781271	-0.628714	0.095410
H242	H	1.281271	-0.128714	0.595410
H243	H	0.781275	-0.628704	-0.095163
H244	H	1.281275	-0.128704	0.404837
C245	C	0.368345	0.185703	0.000050
C246	C	0.868345	0.685703	0.500050
H247	H	0.390333	0.216934	0.000005
H248	H	0.890333	0.716934	0.500005
H249	H	0.344879	0.187593	0.095326
H250	H	0.844879	0.687593	0.595326
H251	H	0.344879	0.187583	-0.095246
H252	H	0.844879	0.687583	0.404754
C253	C	0.131911	-0.087571	0.000335
C254	C	0.631911	0.412429	0.500335
H255	H	0.162326	-0.118173	0.000376
H256	H	0.662326	0.381827	0.500376
H257	H	0.109030	-0.090019	-0.094933
H258	H	0.609030	0.409981	0.405067
H259	H	0.109040	-0.090004	0.095639
H260	H	0.609040	0.409996	0.595639
C261	C	0.567303	-0.075405	0.000180
C262	C	1.067303	0.424595	0.500180
H263	H	0.536063	-0.097382	0.000171
H264	H	1.036063	0.402618	0.500171
H265	H	0.565428	-0.051930	-0.095094
H266	H	1.065428	0.448070	0.404906
H267	H	0.565422	-0.051950	0.095479
H268	H	1.065422	0.448050	0.595479
H269	H	-0.059866	0.165717	0.000122
H270	H	0.440134	0.665717	0.500122
C271	C	0.512108	-0.341579	0.000090
C272	C	1.012108	0.158421	0.500090
H273	H	0.480878	-0.363568	0.000087
H274	H	0.980878	0.136432	0.500087
H275	H	0.510219	-0.318098	-0.095174
H276	H	1.010219	0.181902	0.404826
H277	H	0.510225	-0.318128	0.095398
H278	H	1.010225	0.181872	0.595398
H279	H	0.246123	-0.071339	0.000302
H280	H	0.746123	0.428661	0.500302
H281	H	0.404512	-0.017441	0.000160
H282	H	0.904512	0.482559	0.500160
C283	C	0.560756	-0.621885	0.000035
C284	C	1.060756	-0.121885	0.500035
H285	H	0.529525	-0.643874	0.000036
H286	H	1.029525	-0.143874	0.500036
H287	H	0.558870	-0.598408	-0.095237
H288	H	1.058870	-0.098408	0.404763
H289	H	0.558872	-0.598431	0.095335
H290	H	1.058872	-0.098431	0.595335
C291	C	0.510615	-0.466294	0.000035
C292	C	1.010615	0.033706	0.500035
H293	H	0.480012	-0.435880	0.000013
H294	H	0.980012	0.064120	0.500013
H295	H	0.508169	-0.489182	0.095302
H296	H	1.008169	0.010818	0.595302
H297	H	0.508181	-0.489158	-0.095271
H298	H	1.008181	0.010842	0.404729
