data_functionalizedCrystal
_audit_creation_method	'MofGen! by Chris Wilmer'
_symmetry_space_group_name_H-M	'P1'
_symmetry_Int_Tables_number	1
_symmetry_cell_setting	triclinic
loop_
_symmetry_equiv_pos_as_xyz
  x,y,z
_cell_length_a	16.625546
_cell_length_b	10.685912
_cell_length_c	10.686551
_cell_angle_alpha	98.411230
_cell_angle_beta	85.590142
_cell_angle_gamma	85.613067
loop_
_atom_site_label
_atom_site_type_symbol
_atom_site_fract_x
_atom_site_fract_y
_atom_site_fract_z
Zn1	Zn	-0.180765	-1.995772	-0.866778
Zn2	Zn	0.152568	-1.662439	-0.533444
Zn3	Zn	0.485901	-1.329105	-0.200111
Zn4	Zn	-0.326838	-1.979317	-0.654493
Zn5	Zn	0.006495	-1.645984	-0.321159
Zn6	Zn	0.339829	-1.312651	0.012174
Zn7	Zn	-0.203203	-1.767191	-0.638228
Zn8	Zn	0.130130	-1.433858	-0.304894
Zn9	Zn	0.463464	-1.100525	0.028439
Zn10	Zn	-0.326756	-1.783439	-0.850393
Zn11	Zn	0.006578	-1.450106	-0.517060
Zn12	Zn	0.339911	-1.116772	-0.183727
O13	O	-0.259391	-1.881430	-0.752473
O14	O	0.073943	-1.548097	-0.419139
O15	O	0.407276	-1.214763	-0.085806
O16	O	-0.190786	-2.171227	-0.852281
O17	O	0.142547	-1.837893	-0.518948
O18	O	0.475880	-1.504560	-0.185615
O19	O	-0.319862	-1.937493	-0.474701
O20	O	0.013471	-1.604159	-0.141368
O21	O	0.346805	-1.270826	0.191966
O22	O	-0.087388	-1.797600	-0.668595
O23	O	0.245946	-1.464266	-0.335262
O24	O	0.579279	-1.130933	-0.001928
O25	O	-0.298105	-2.159138	-0.696317
O26	O	0.035228	-1.825804	-0.362983
O27	O	0.368561	-1.492471	-0.029650
O28	O	-0.070903	-1.965537	-0.836510
O29	O	0.262431	-1.632203	-0.503177
O30	O	0.595764	-1.298870	-0.169843
O31	O	-0.229028	-1.781645	-0.462751
O32	O	0.104305	-1.448311	-0.129418
O33	O	0.437639	-1.114978	0.203916
O34	O	-0.228948	-1.591709	-0.652708
O35	O	0.104385	-1.258376	-0.319374
O36	O	0.437718	-0.925042	0.013959
O37	O	-0.297965	-1.825291	-1.030201
O38	O	0.035368	-1.491958	-0.696867
O39	O	0.368701	-1.158625	-0.363534
O40	O	-0.319722	-1.603646	-0.808585
O41	O	0.013611	-1.270313	-0.475252
O42	O	0.346945	-0.936979	-0.141918
O43	O	-0.190707	-1.981291	-1.042238
O44	O	0.142626	-1.647958	-0.708905
O45	O	0.475960	-1.314625	-0.375572
O46	O	-0.439666	-1.953247	-0.680429
O47	O	-0.106333	-1.619914	-0.347096
O48	O	0.227001	-1.286580	-0.013763
O49	O	-0.439606	-1.809336	-0.824357
O50	O	-0.106272	-1.476003	-0.491023
O51	O	0.227061	-1.142669	-0.157690
C52	C	-0.276762	-1.551618	-0.727104
C53	C	0.056572	-1.218285	-0.393771
C54	C	0.389905	-0.884952	-0.060438
C55	C	-0.284211	-1.410526	-0.716282
C56	C	0.049122	-1.077192	-0.382948
C57	C	0.382456	-0.743859	-0.049615
C58	C	-0.468891	-1.881306	-0.752410
C59	C	-0.135557	-1.547972	-0.419077
C60	C	0.197776	-1.214639	-0.085744
C61	C	-0.558507	-1.881372	-0.752435
C62	C	-0.225174	-1.548039	-0.419102
C63	C	0.108159	-1.214705	-0.085768
C64	C	-0.886664	-1.881604	-0.752584
C65	C	-0.553331	-1.548270	-0.419251
C66	C	-0.219997	-1.214937	-0.085918
C67	C	-0.795361	-1.881535	-0.752546
C68	C	-0.462028	-1.548202	-0.419213
C69	C	-0.128694	-1.214869	-0.085879
C70	C	-0.722589	-1.881487	-0.752509
C71	C	-0.389255	-1.548153	-0.419176
C72	C	-0.055922	-1.214820	-0.085842
C73	C	-0.631279	-1.881421	-0.752472
C74	C	-0.297946	-1.548087	-0.419139
C75	C	0.035387	-1.214754	-0.085805
C76	C	-0.049069	-1.881591	-0.752566
C77	C	0.284264	-1.548258	-0.419232
C78	C	0.617598	-1.214925	-0.085899
C79	C	0.040557	-1.881660	-0.752605
C80	C	0.373891	-1.548327	-0.419272
C81	C	0.707224	-1.214993	-0.085939
C82	C	-0.241824	-1.906939	-1.083566
C83	C	0.091509	-1.573606	-0.750232
C84	C	0.424843	-1.240272	-0.416899
C85	C	-0.234338	-1.917810	-1.224658
C86	C	0.098995	-1.584476	-0.891325
C87	C	0.432328	-1.251143	-0.557991
C88	C	-0.241947	-1.212529	-0.777929
C89	C	0.091387	-0.879195	-0.444596
C90	C	0.424720	-0.545862	-0.111263
C91	C	-0.234500	-1.353621	-0.788748
C92	C	0.098834	-1.020288	-0.455415
C93	C	0.432167	-0.686954	-0.122081
C94	C	-0.276827	-1.856093	-0.422673
C95	C	0.056507	-1.522760	-0.089340
C96	C	0.389840	-1.189426	0.243993
C97	C	-0.284072	-1.845469	-0.281601
C98	C	0.049261	-1.512135	0.051733
C99	C	0.382594	-1.178802	0.385066
H100	H	-0.332466	-1.351304	-0.645960
H101	H	0.000867	-1.017971	-0.312626
H102	H	0.334200	-0.684637	0.020707
H103	H	-0.332381	-1.775222	-1.222413
H104	H	0.000953	-1.441888	-0.889079
H105	H	0.334286	-1.108555	-0.555746
C106	C	-0.169301	-1.433631	-0.883753
C107	C	0.164033	-1.100297	-0.550419
C108	C	0.497366	-0.766964	-0.217086
N109	N	-0.120194	-1.493895	-0.955310
N110	N	0.213139	-1.160562	-0.621976
N111	N	0.546473	-0.827228	-0.288643
H112	H	-0.186032	-1.988070	-1.283854
H113	H	0.147301	-1.654737	-0.950520
H114	H	0.480635	-1.321403	-0.617187
