data_functionalizedCrystal
_audit_creation_method	'MofGen! by Chris Wilmer'
_symmetry_space_group_name_H-M	'P1'
_symmetry_Int_Tables_number	1
_symmetry_cell_setting	triclinic
loop_
_symmetry_equiv_pos_as_xyz
  x,y,z
_cell_length_a	17.699077
_cell_length_b	10.654545
_cell_length_c	16.776229
_cell_angle_alpha	90.001708
_cell_angle_beta	89.993430
_cell_angle_gamma	83.883002
loop_
_atom_site_label
_atom_site_type_symbol
_atom_site_fract_x
_atom_site_fract_y
_atom_site_fract_z
O1	O	1.005092	0.158762	-0.066274
O2	O	0.784844	0.179431	-0.066277
O3	O	0.900032	-0.013732	-0.066275
O4	O	0.889905	0.351925	-0.066276
O5	O	0.900015	-0.013721	0.066302
O6	O	0.784827	0.179441	0.066300
O7	O	1.005075	0.158772	0.066303
Zn8	Zn	0.894949	0.169108	0.087351
Zn9	Zn	0.894971	0.169095	-0.087325
O10	O	0.889888	0.351935	0.066301
C11	C	0.756634	0.178697	0.000011
C12	C	0.672602	0.176479	0.000009
C13	C	0.633118	0.175439	0.072278
C14	C	0.554163	0.173335	0.072279
C15	C	0.514691	0.172280	0.000010
C16	C	0.554180	0.173315	-0.072264
C17	C	0.633135	0.175411	-0.072264
C18	C	0.235763	0.164865	-0.072265
C19	C	0.156802	0.162773	-0.072260
C20	C	0.156790	0.162789	0.072277
C21	C	0.235745	0.164884	0.072277
C22	C	0.275228	0.165913	0.000004
C23	C	0.360841	0.168192	0.000004
C24	C	0.429078	0.170009	0.000009
C25	C	0.899279	-0.060511	0.000012
C26	C	0.897054	-0.199916	0.000007
C27	C	0.897082	-0.199935	-0.144532
C28	C	0.896053	-0.265437	-0.216801
C29	C	0.893962	-0.396419	-0.216802
C30	C	0.892898	-0.461902	-0.144526
C31	C	0.893927	-0.396401	-0.072257
C32	C	0.896020	-0.265416	-0.072263
C33	C	0.893894	-0.396380	0.072281
C34	C	0.895990	-0.265399	0.072283
C35	C	0.892830	-0.461863	0.144557
C36	C	0.893864	-0.396362	0.216828
C37	C	0.895956	-0.265372	0.216826
C38	C	0.897019	-0.199897	0.144553
C39	C	1.033285	0.159506	0.000013
C40	C	1.117318	0.161724	0.000010
C41	C	0.890640	0.398715	0.000012
C42	C	0.892865	0.538119	0.000012
N43	N	0.894939	0.169117	0.206562
N44	N	0.894986	0.169077	-0.206536
C45	C	0.945998	0.083575	0.751728
C46	C	0.945994	0.083584	0.668275
C47	C	0.894975	0.169089	0.626561
C48	C	0.843961	0.254600	0.668304
C49	C	0.843969	0.254596	0.751754
C50	C	0.843929	0.254619	0.331756
C51	C	0.843923	0.254613	0.248300
C52	C	0.945954	0.083606	0.248278
C53	C	0.945962	0.083602	0.331728
C54	C	0.894951	0.169117	0.373463
C55	C	0.894957	0.169108	0.463952
C56	C	0.894965	0.169093	0.536074
H57	H	0.522020	0.172468	0.131127
H58	H	0.802393	0.324245	0.365731
H59	H	0.802376	0.324247	0.214338
H60	H	0.802423	0.324226	0.634335
C61	C	1.002079	-0.010473	0.377609
N62	N	1.044347	-0.081334	0.412166
C63	C	0.899403	-0.055856	-0.144537
N64	N	0.901156	0.052665	-0.144543
C65	C	0.890579	-0.605982	-0.144531
N66	N	0.888828	-0.714503	-0.144534
C67	C	1.002066	-0.010464	0.202362
N68	N	1.044326	-0.081321	0.167779
C69	C	0.890517	-0.605944	0.144553
N70	N	0.888773	-0.714467	0.144553
H71	H	0.802431	0.324222	0.785735
H72	H	0.893117	-0.449749	-0.275649
H73	H	0.665250	0.176309	0.131127
C74	C	0.510758	0.172151	-0.151760
N75	N	0.478053	0.171278	-0.211638
H76	H	0.892993	-0.449688	0.275669
C77	C	0.899298	-0.055809	0.144543
N78	N	0.901003	0.052723	0.144533
C79	C	0.279160	0.166042	0.151778
N80	N	0.311860	0.166907	0.211659
C81	C	0.113385	0.161598	-0.151764
N82	N	0.080684	0.160710	-0.211644
C83	C	0.113354	0.161642	0.151780
N84	N	0.080638	0.160780	0.211660
C85	C	0.676566	0.176557	-0.151764
N86	N	0.709277	0.177417	-0.211647
C87	C	0.279184	0.165986	-0.151768
N88	N	0.311892	0.166825	-0.211654
H89	H	0.896918	-0.212106	-0.275646
H90	H	0.896782	-0.212046	0.275676
H91	H	0.987540	0.013942	0.785686
C92	C	1.002107	-0.010481	0.622369
N93	N	1.044373	-0.081336	0.587793
