data_functionalizedCrystal
_audit_creation_method	'MofGen! by Chris Wilmer'
_symmetry_space_group_name_H-M	'P1'
_symmetry_Int_Tables_number	1
_symmetry_cell_setting	triclinic
loop_
_symmetry_equiv_pos_as_xyz
  x,y,z
_cell_length_a	18.215407
_cell_length_b	12.759400
_cell_length_c	18.215399
_cell_angle_alpha	89.975454
_cell_angle_beta	89.982632
_cell_angle_gamma	90.012128
loop_
_atom_site_label
_atom_site_type_symbol
_atom_site_fract_x
_atom_site_fract_y
_atom_site_fract_z
Zn1	Zn	1.125124	-0.418349	-0.416085
Zn2	Zn	1.125054	-0.594046	-0.293026
Zn3	Zn	1.002057	-0.418374	-0.293038
Zn4	Zn	1.002044	-0.593978	-0.416056
O5	O	1.063570	-0.506187	-0.354551
O6	O	1.228099	-0.441673	-0.399768
O7	O	1.108714	-0.570782	-0.190043
O8	O	1.018416	-0.271350	-0.309377
O9	O	1.228048	-0.570757	-0.309357
O10	O	1.108833	-0.271331	-0.399779
O11	O	1.018349	-0.441716	-0.190052
O12	O	0.899071	-0.441650	-0.309349
O13	O	1.018395	-0.570642	-0.519044
O14	O	0.899062	-0.570666	-0.399730
O15	O	1.108821	-0.441608	-0.519065
O16	O	1.108703	-0.741058	-0.309329
O17	O	1.018328	-0.741008	-0.399719
C18	C	0.872364	-0.506155	-0.354538
C19	C	0.790565	-0.506166	-0.354550
C20	C	0.602396	-0.439090	-0.401701
C21	C	0.525538	-0.439099	-0.401704
C22	C	0.525495	-0.573313	-0.307414
C23	C	0.602353	-0.573298	-0.307408
C24	C	0.640801	-0.506188	-0.354556
C25	C	0.487085	-0.506212	-0.354564
C26	C	0.403752	-0.506222	-0.354567
C27	C	0.724140	-0.506176	-0.354553
C28	C	1.063526	-0.779154	-0.354536
C29	C	1.063575	-0.895931	-0.354554
C30	C	1.110685	-0.950784	-0.307540
C31	C	1.110730	-1.060508	-0.307563
C32	C	1.016549	-1.060516	-0.401615
C33	C	1.016508	-0.950794	-0.401596
C34	C	1.157753	-0.895920	-0.260498
C35	C	1.204866	-0.950774	-0.213480
C36	C	1.204911	-1.060498	-0.213502
C37	C	1.157843	-1.115369	-0.260543
C38	C	1.255523	-0.506220	-0.354564
C39	C	1.337322	-0.506234	-0.354570
C40	C	1.063615	-0.506114	-0.546504
C41	C	1.063634	-0.506084	-0.628303
C42	C	1.063634	-0.232154	-0.354583
C43	C	1.063661	-0.115377	-0.354596
C44	C	1.110736	-0.438832	-0.816509
C45	C	1.110744	-0.438802	-0.893368
C46	C	1.016584	-0.573172	-0.893335
C47	C	1.016572	-0.573197	-0.816477
C48	C	1.063652	-0.506028	-0.778067
C49	C	1.063673	-0.505973	-0.931783
C50	C	1.063682	-0.505941	-1.015116
C51	C	1.063642	-0.506059	-0.694728
C52	C	1.063568	-0.506183	-0.163345
C53	C	1.063691	-0.505918	-0.081546
H54	H	0.633623	-0.627938	-0.269013
O55	O	0.488198	-0.373813	-0.447399
C56	C	0.401404	-0.232042	-0.457481
C57	C	0.443658	-0.305899	-0.405646
H58	H	0.365372	-0.177129	-0.423745
H59	H	0.442055	-0.184000	-0.491163
H60	H	0.365465	-0.280377	-0.495919
H61	H	0.479598	-0.257644	-0.367163
H62	H	0.402967	-0.353944	-0.372015
O63	O	0.970904	-1.113768	-0.447409
C64	C	0.935091	-1.147216	-0.572564
C65	C	0.986843	-1.086864	-0.520788
H66	H	0.947949	-1.125469	-0.631901
H67	H	0.943215	-1.235072	-0.564564
H68	H	0.875754	-1.125731	-0.559546
H69	H	1.046200	-1.108261	-0.533773
H70	H	0.978655	-0.999023	-0.528797
H71	H	1.149069	-0.384137	-0.785237
O72	O	0.970810	-0.638576	-0.779243
C73	C	0.877387	-0.771807	-0.787314
C74	C	0.929185	-0.697845	-0.829573
H75	H	0.843709	-0.819730	-0.827988
H76	H	0.911123	-0.826826	-0.751348
H77	H	0.838944	-0.723559	-0.751313
H78	H	0.967639	-0.746009	-0.865614
H79	H	0.895403	-0.642823	-0.865493
H80	H	0.978255	-0.627860	-0.924618
H81	H	1.157719	-0.806578	-0.260472
H82	H	0.494181	-0.627952	-0.269028
H83	H	1.243279	-1.105156	-0.175223
O84	O	0.639632	-0.373800	-0.447520
C85	C	0.631559	-0.240724	-0.541074
C86	C	0.589301	-0.314597	-0.489210
H87	H	0.590884	-0.192855	-0.574805
H88	H	0.667513	-0.185650	-0.507385
H89	H	0.667572	-0.289038	-0.579464
H90	H	0.553248	-0.266368	-0.450808
H91	H	0.553393	-0.369674	-0.522944
H92	H	1.243192	-0.906092	-0.175185
H93	H	1.149083	-0.384083	-0.924665
O94	O	1.157960	-1.221955	-0.260454
C95	C	1.209737	-1.379407	-0.208918
C96	C	1.209669	-1.258703	-0.208935
H97	H	1.251551	-1.409154	-0.167281
H98	H	1.152790	-1.409336	-0.193561
H99	H	1.224956	-1.409090	-0.265948
H100	H	1.194483	-1.228930	-0.151923
H101	H	1.266623	-1.228844	-0.224334
H102	H	0.978147	-0.906132	-0.439879
