data_functionalizedCrystal
_audit_creation_method	'MofGen! by Chris Wilmer'
_symmetry_space_group_name_H-M	'P1'
_symmetry_Int_Tables_number	1
_symmetry_cell_setting	triclinic
loop_
_symmetry_equiv_pos_as_xyz
  x,y,z
_cell_length_a	13.262390
_cell_length_b	15.538191
_cell_length_c	12.376897
_cell_angle_alpha	74.379175
_cell_angle_beta	92.995385
_cell_angle_gamma	66.622425
loop_
_atom_site_label
_atom_site_type_symbol
_atom_site_fract_x
_atom_site_fract_y
_atom_site_fract_z
O1	O	1.283177	0.042655	0.488492
O2	O	0.983878	0.072260	0.396476
O3	O	1.191788	-0.082517	0.460401
O4	O	1.075267	0.197432	0.424567
O5	O	1.214476	-0.051378	0.279376
O6	O	1.006565	0.103400	0.215451
O7	O	1.305865	0.073794	0.307467
Zn8	Zn	1.159817	0.093541	0.232718
Zn9	Zn	1.129925	0.052514	0.471225
O10	O	1.097955	0.228572	0.243542
C11	C	0.957852	0.089035	0.294474
C12	C	0.846505	0.092612	0.260242
C13	C	0.483180	0.034784	0.558473
C14	C	0.587798	0.031418	0.590638
C15	C	0.652479	0.046716	0.508042
C16	C	0.612533	0.065381	0.393275
C17	C	0.507909	0.068740	0.361108
C18	C	0.677208	0.080672	0.310677
C19	C	0.637263	0.099337	0.195910
C20	C	0.532648	0.102696	0.163749
C21	C	0.467966	0.087397	0.246345
C22	C	0.781833	0.077313	0.342844
C23	C	0.806562	0.111269	0.145479
C24	C	0.701944	0.114635	0.113314
C25	C	1.215323	-0.102639	0.373640
C26	C	1.251635	-0.208987	0.384815
C27	C	0.890869	-0.479161	0.273877
C28	C	0.925018	-0.579094	0.284373
C29	C	1.117091	-0.610913	0.343425
C30	C	1.082959	-0.510983	0.332939
C31	C	0.969846	-0.445113	0.298164
C32	C	1.161935	-0.476935	0.357226
C33	C	1.127806	-0.377012	0.346735
C34	C	1.014699	-0.311136	0.311958
C35	C	0.935717	-0.345190	0.287673
C36	C	1.275048	-0.542804	0.391993
C37	C	1.354025	-0.508757	0.416279
C38	C	1.319895	-0.408833	0.405797
C39	C	1.206788	-0.342958	0.371020
C40	C	1.398877	-0.374779	0.430081
C41	C	1.364747	-0.274856	0.419591
C42	C	1.172658	-0.243035	0.360529
C43	C	1.331891	0.057020	0.409471
C44	C	1.443237	0.053441	0.443710
C45	C	1.074420	0.248693	0.330305
C46	C	1.038106	0.355040	0.319137
N47	N	1.180226	0.121540	0.069945
C48	C	1.062120	-0.040494	-0.321415
C49	C	1.047821	-0.060093	-0.207479
C50	C	1.080921	-0.014686	-0.138118
C51	C	1.128322	0.050322	-0.182703
C52	C	1.142631	0.069916	-0.296648
C53	C	1.161431	0.095725	-0.113351
C54	C	1.208833	0.160732	-0.157936
C55	C	1.223138	0.180324	-0.271870
C56	C	1.190039	0.134917	-0.341231
C57	C	1.147123	0.076131	0.000594
C58	C	1.227633	0.186541	0.025361
C59	C	1.241932	0.206139	-0.088575
N60	N	1.109528	0.024507	0.634002
H61	H	0.669405	0.129832	0.019870
H62	H	1.302831	-0.624169	0.400543
Cl63	Cl	0.988197	-0.141785	-0.151447
Cl64	Cl	1.087535	-0.005590	0.056631
H65	H	0.814345	0.062118	0.436288
H66	H	0.737663	0.043975	0.534238
H67	H	1.201673	0.150875	-0.434010
Cl68	Cl	0.638010	0.007951	0.734910
H69	H	1.446122	-0.562399	0.444589
H70	H	1.280528	0.259070	-0.124893
Cl71	Cl	0.336436	0.091635	0.205912
Cl72	Cl	1.282743	0.262037	-0.327914
H73	H	0.430512	0.022321	0.625712
H74	H	1.254587	0.223514	0.081836
H75	H	1.080550	-0.189401	0.332219
Cl76	Cl	1.062941	-0.039323	0.005117
Cl77	Cl	0.971791	-0.185515	0.298758
Cl78	Cl	0.482435	0.126155	0.019471
Cl79	Cl	1.259285	-0.693726	0.387132
Cl80	Cl	0.887873	0.130495	0.041638
H81	H	0.843609	-0.291556	0.259364
Cl82	Cl	0.748667	-0.396348	0.230170
Cl83	Cl	1.541072	-0.457593	0.473776
Cl84	Cl	1.464036	-0.232045	0.450102
Cl85	Cl	0.825719	-0.621890	0.253831
Cl86	Cl	1.020522	-0.097573	-0.408612
