data_functionalizedCrystal
_audit_creation_method	'MofGen! by Chris Wilmer'
_symmetry_space_group_name_H-M	'P1'
_symmetry_Int_Tables_number	1
_symmetry_cell_setting	triclinic
loop_
_symmetry_equiv_pos_as_xyz
  x,y,z
_cell_length_a	11.792241
_cell_length_b	9.565339
_cell_length_c	11.792241
_cell_angle_alpha	90.000085
_cell_angle_beta	95.806584
_cell_angle_gamma	89.999376
loop_
_atom_site_label
_atom_site_type_symbol
_atom_site_fract_x
_atom_site_fract_y
_atom_site_fract_z
O1	O	1.506908	0.116125	-0.155560
O2	O	1.176567	0.116157	-0.171593
O3	O	1.349754	0.116130	0.001594
O4	O	1.333721	0.116152	-0.328747
O5	O	1.349740	-0.116390	0.001584
O6	O	1.176553	-0.116363	-0.171603
O7	O	1.506894	-0.116395	-0.155570
Zn8	Zn	1.341722	-0.153297	-0.163589
Zn9	Zn	1.341740	0.153059	-0.163574
O10	O	1.333707	-0.116368	-0.328757
C11	C	1.134269	-0.000099	-0.170591
C12	C	1.008255	-0.000086	-0.167576
N13	N	1.341718	-0.362376	-0.163598
C14	C	0.777543	-0.000127	-0.162034
C15	C	0.905928	-0.000105	-0.165113
C16	C	1.261600	-0.453567	-0.243664
C17	C	1.364301	-0.546754	-0.266319
C18	C	1.239061	-0.546744	-0.140952
C19	C	1.444471	-0.453512	-0.186304
C20	C	1.319163	-0.453493	-0.060892
C21	C	1.421938	-0.546639	-0.083503
C22	C	1.549192	-0.000136	-0.156572
C23	C	1.675206	-0.000139	-0.159587
C24	C	1.348740	-0.000129	0.043880
C25	C	1.345726	-0.000127	0.169894
N26	N	1.341753	0.362138	-0.163556
C27	C	1.334721	-0.000106	-0.371043
C28	C	1.337736	-0.000098	-0.497057
C29	C	1.340183	-0.000103	0.400606
C30	C	1.343262	-0.000116	0.272221
H31	H	1.193909	-0.412701	-0.311436
C32	C	1.123336	-0.601266	-0.115187
C33	C	1.099192	-0.552014	-0.008430
C34	C	0.992602	-0.602221	0.015340
H35	H	1.066381	-0.569432	-0.172049
H36	H	1.124373	-0.700579	-0.114597
H37	H	1.098146	-0.452722	-0.009028
H38	H	1.156118	-0.583845	0.048454
H39	H	0.993639	-0.701534	0.015929
H40	H	0.935656	-0.570383	-0.041529
H41	H	0.976211	-0.568822	0.087780
H42	H	1.383402	-0.587718	-0.353157
H43	H	1.300030	-0.412497	0.025919
C44	C	1.560153	-0.398875	-0.212092
C45	C	1.558747	-0.252511	-0.211929
C46	C	1.665272	-0.202129	-0.235739
H47	H	1.617250	-0.431309	-0.155621
H48	H	1.576262	-0.431534	-0.284842
H49	H	1.542653	-0.219865	-0.139189
H50	H	1.501674	-0.220040	-0.268400
H51	H	1.681380	-0.234788	-0.308489
H52	H	1.722359	-0.234572	-0.179265
H53	H	1.664329	-0.102817	-0.235642
C54	C	1.512565	-0.600726	0.006667
C55	C	1.619813	-0.553257	-0.017561
C56	C	1.703328	-0.603073	0.065464
H57	H	1.497305	-0.567412	0.079473
H58	H	1.511740	-0.700043	0.006598
H59	H	1.620636	-0.453960	-0.017481
H60	H	1.635109	-0.586567	-0.090352
H61	H	1.702503	-0.702391	0.065395
H62	H	1.688057	-0.569756	0.138265
H63	H	1.776106	-0.570884	0.049031
