data_functionalizedCrystal
_audit_creation_method	'MofGen! by Chris Wilmer'
_symmetry_space_group_name_H-M	'P1'
_symmetry_Int_Tables_number	1
_symmetry_cell_setting	triclinic
loop_
_symmetry_equiv_pos_as_xyz
  x,y,z
_cell_length_a	18.050589
_cell_length_b	10.686154
_cell_length_c	10.686551
_cell_angle_alpha	89.693980
_cell_angle_beta	85.596139
_cell_angle_gamma	85.593011
loop_
_atom_site_label
_atom_site_type_symbol
_atom_site_fract_x
_atom_site_fract_y
_atom_site_fract_z
Zn1	Zn	-0.181112	-1.972222	-0.562460
Zn2	Zn	0.318888	-1.472222	-0.062460
Zn3	Zn	-0.315532	-1.955940	-0.352708
Zn4	Zn	0.184468	-1.455940	0.147292
Zn5	Zn	-0.200104	-1.746333	-0.368771
Zn6	Zn	0.299896	-1.246333	0.131229
Zn7	Zn	-0.314022	-1.762371	-0.578479
Zn8	Zn	0.185978	-1.262371	-0.078479
O9	O	-0.252693	-1.859216	-0.465604
O10	O	0.247307	-1.359216	0.034396
O11	O	-0.191627	-2.145607	-0.521209
O12	O	0.308373	-1.645607	-0.021209
O13	O	-0.308801	-1.914610	-0.179293
O14	O	0.191199	-1.414610	0.320707
O15	O	-0.093655	-1.776399	-0.394483
O16	O	0.406345	-1.276399	0.105517
O17	O	-0.290385	-2.133645	-0.367105
O18	O	0.209615	-1.633645	0.132895
O19	O	-0.079702	-1.942359	-0.536785
O20	O	0.420298	-1.442359	-0.036785
O21	O	-0.223996	-1.760612	-0.191095
O22	O	0.276004	-1.260612	0.308905
O23	O	-0.222532	-1.572915	-0.410016
O24	O	0.277468	-1.072915	0.089984
O25	O	-0.287811	-1.803734	-0.751900
O26	O	0.212189	-1.303734	-0.251900
O27	O	-0.306227	-1.584698	-0.564088
O28	O	0.193773	-1.084698	-0.064088
O29	O	-0.190163	-1.957911	-0.740130
O30	O	0.309837	-1.457911	-0.240130
O31	O	-0.419262	-1.930161	-0.382639
O32	O	0.080738	-1.430161	0.117361
O33	O	-0.418152	-1.787946	-0.548512
O34	O	0.081848	-1.287946	-0.048512
C35	C	-0.266277	-1.533290	-0.490534
C36	C	0.233723	-1.033290	0.009466
C37	C	-0.272104	-1.393859	-0.501228
C38	C	0.227896	-0.893859	-0.001228
C39	C	-0.445652	-1.859063	-0.465595
C40	C	0.054348	-1.359063	0.034405
C41	C	-0.528194	-1.859116	-0.465624
C42	C	-0.028194	-1.359116	0.034376
C43	C	-0.727066	-1.781860	-0.555791
C44	C	-0.227066	-1.281860	-0.055791
C45	C	-0.783358	-1.742487	-0.443661
C46	C	-0.283358	-1.242487	0.056339
C47	C	-0.679319	-1.859240	-0.465631
C48	C	-0.179319	-1.359240	0.034369
C49	C	-0.770105	-1.898676	-0.577770
C50	C	-0.270105	-1.398676	-0.077770
C51	C	-0.825298	-1.859359	-0.465648
C52	C	-0.325298	-1.359359	0.034352
C53	C	-0.734529	-1.819803	-0.353446
C54	C	-0.234529	-1.319803	0.146554
C55	C	-0.721265	-1.976051	-0.487627
C56	C	-0.221265	-1.476051	0.012373
C57	C	-0.777537	-1.936716	-0.375415
C58	C	-0.277537	-1.436716	0.124585
C59	C	-0.595224	-1.859169	-0.465624
C60	C	-0.095224	-1.359169	0.034376
C61	C	-0.909391	-1.859430	-0.465643
C62	C	-0.409391	-1.359430	0.034357
C63	C	-0.058977	-1.859406	-0.465639
C64	C	0.441023	-1.359406	0.034361
C65	C	0.023573	-1.859487	-0.465653
C66	C	0.523573	-1.359487	0.034347
C67	C	-0.236700	-1.884427	-0.792805
C68	C	0.263300	-1.384427	-0.292805
C69	C	-0.229885	-1.895171	-0.932238
C70	C	0.270115	-1.395171	-0.432238
C71	C	-0.239049	-1.186415	-0.440570
C72	C	0.260951	-0.686415	0.059430
C73	C	-0.233218	-1.325846	-0.429881
C74	C	0.266782	-0.825846	0.070119
C75	C	-0.268567	-1.834176	-0.139672
C76	C	0.231433	-1.334176	0.360328
C77	C	-0.275162	-1.823675	-0.000221
C78	C	0.224838	-1.323675	0.499779
H79	H	-0.195468	-1.374286	-0.360615
H80	H	0.304532	-0.874286	0.139385
H81	H	-0.309862	-1.345412	-0.570491
H82	H	0.190138	-0.845412	-0.070491
C83	C	-0.697157	-1.693314	-0.658661
C84	C	-0.197157	-1.193314	-0.158661
H85	H	-0.718590	-1.610382	-0.642826
H86	H	-0.218590	-1.110382	-0.142826
H87	H	-0.709933	-1.720472	-0.738170
H88	H	-0.209933	-1.220472	-0.238170
H89	H	-0.644491	-1.694446	-0.658429
H90	H	-0.144491	-1.194446	-0.158429
C91	C	-0.819928	-1.609113	-0.418525
C92	C	-0.319928	-1.109113	0.081475
H93	H	-0.802631	-1.554190	-0.482651
H94	H	-0.302631	-1.054190	0.017349
H95	H	-0.807191	-1.580607	-0.339489
H96	H	-0.307191	-1.080607	0.160511
H97	H	-0.872526	-1.610257	-0.417957
H98	H	-0.372526	-1.110257	0.082043
C99	C	-0.334585	-1.729895	-0.934758
C100	C	0.165415	-1.229895	-0.434758
H101	H	-0.362083	-1.686494	-0.996101
H102	H	0.137917	-1.186494	-0.496101
H103	H	-0.310934	-1.671367	-0.887815
H104	H	0.189066	-1.171367	-0.387815
H105	H	-0.367412	-1.773984	-0.879976
H106	H	0.132588	-1.273984	-0.379976
C107	C	-0.684671	-2.109394	-0.512804
C108	C	-0.184671	-1.609394	-0.012804
H109	H	-0.657644	-2.136369	-0.443418
H110	H	-0.157644	-1.636369	0.056582
H111	H	-0.651639	-2.108962	-0.586393
H112	H	-0.151639	-1.608962	-0.086393
H113	H	-0.722161	-2.165125	-0.524120
H114	H	-0.222161	-1.665125	-0.024120
H115	H	-0.785961	-1.931982	-0.672596
H116	H	-0.285961	-1.431982	-0.172596
H117	H	-0.185907	-1.964610	-0.980711
H118	H	0.314093	-1.464610	-0.480711
H119	H	-0.718769	-1.786383	-0.258601
H120	H	-0.218769	-1.286383	0.241399
H121	H	-0.799545	-2.002199	-0.299096
H122	H	-0.299545	-1.502199	0.200904
