data_functionalizedCrystal
_audit_creation_method	'MofGen! by Chris Wilmer'
_symmetry_space_group_name_H-M	'P1'
_symmetry_Int_Tables_number	1
_symmetry_cell_setting	triclinic
loop_
_symmetry_equiv_pos_as_xyz
  x,y,z
_cell_length_a	12.811445
_cell_length_b	10.654545
_cell_length_c	11.295483
_cell_angle_alpha	94.137200
_cell_angle_beta	80.460739
_cell_angle_gamma	84.264733
loop_
_atom_site_label
_atom_site_type_symbol
_atom_site_fract_x
_atom_site_fract_y
_atom_site_fract_z
O1	O	1.411704	0.147813	-0.251458
O2	O	1.103901	0.169024	-0.218223
O3	O	1.264879	-0.024422	-0.235604
O4	O	1.250726	0.341259	-0.234077
O5	O	1.250739	-0.007457	-0.036026
O6	O	1.089762	0.185989	-0.018645
O7	O	1.397564	0.164778	-0.051881
Cu8	Cu	1.242372	0.176932	-0.017040
Cu9	Cu	1.259093	0.156870	-0.253064
O10	O	1.236587	0.358224	-0.034500
C11	C	1.057419	0.176836	-0.114178
C12	C	0.939981	0.174825	-0.101498
C13	C	0.734714	0.152572	-0.295272
C14	C	0.624371	0.150682	-0.283362
C15	C	0.608949	0.169164	-0.065771
C16	C	0.719292	0.171054	-0.077681
C17	C	0.782171	0.162756	-0.192435
C18	C	0.892517	0.164637	-0.204343
C19	C	0.877092	0.183127	0.013247
C20	C	0.766749	0.181238	0.025156
C21	C	1.256770	-0.062723	-0.135705
C22	C	1.253660	-0.202122	-0.135376
C23	C	1.269088	-0.220626	-0.352963
C24	C	1.275345	-0.295367	-0.461599
C25	C	1.272423	-0.426344	-0.461285
C26	C	1.263241	-0.482582	-0.352323
C27	C	1.256984	-0.407841	-0.243687
C28	C	1.259910	-0.276862	-0.244014
C29	C	1.241549	-0.389336	-0.026102
C30	C	1.244478	-0.258360	-0.026415
C31	C	1.232367	-0.445573	0.082859
C32	C	1.226117	-0.370833	0.191497
C33	C	1.229041	-0.239849	0.191178
C34	C	1.238221	-0.183619	0.082221
C35	C	1.444047	0.156965	-0.155928
C36	C	1.561485	0.158976	-0.168616
C37	C	1.244696	0.396524	-0.134401
C38	C	1.247806	0.535923	-0.134738
N39	N	1.230619	0.191043	0.148965
N40	N	1.270855	0.142749	-0.419070
C41	C	1.355460	0.041106	0.384775
C42	C	1.346585	0.051778	0.510397
C43	C	1.203991	0.223052	0.525833
C44	C	1.212866	0.212380	0.400212
C45	C	1.288603	0.121405	0.329687
C46	C	1.297482	0.110740	0.204062
C47	C	1.154884	0.282007	0.219501
C48	C	1.146010	0.292679	0.345123
H49	H	1.282819	-0.249564	-0.550313
H50	H	1.401025	-0.013611	0.555247
N51	N	1.260091	-0.623849	-0.351976
H52	H	1.321811	-0.662195	-0.316243
H53	H	1.190868	-0.641219	-0.302138
N54	N	1.122319	0.321165	0.601926
H55	H	1.136702	0.408398	0.578687
H56	H	1.048719	0.304998	0.588181
H57	H	0.943712	0.157879	-0.297781
N58	N	0.541123	0.178133	0.057992
H59	H	0.463852	0.177144	0.049956
H60	H	0.564078	0.103727	0.101944
H61	H	0.785912	0.145809	-0.388709
N62	N	1.437153	-0.056996	0.308699
H63	H	1.478165	-0.106243	0.362660
H64	H	1.399940	-0.116810	0.261001
N65	N	1.379158	0.012599	0.128011
H66	H	1.342004	-0.047291	0.080316
H67	H	1.430016	0.056074	0.070849
N68	N	1.064335	0.390806	0.421195
H69	H	1.023331	0.440059	0.367230
H70	H	1.013537	0.347320	0.478415
H71	H	1.100448	0.347396	0.174634
H72	H	1.277508	-0.487198	-0.549744
H73	H	1.218634	-0.416632	0.280205
H74	H	0.585736	0.142393	-0.367103
N75	N	1.272259	-0.079362	-0.353303
H76	H	1.279029	-0.055078	-0.438810
H77	H	1.204474	-0.033827	-0.303553
H78	H	1.240607	-0.076972	0.081950
H79	H	0.715538	0.187998	0.118586
H80	H	0.915743	0.191418	0.096985
H81	H	1.229982	-0.552222	0.083108
N82	N	1.222284	-0.159236	0.308352
H83	H	1.216023	-0.214742	0.377418
H84	H	1.288615	-0.114932	0.305905
