data_functionalizedCrystal
_audit_creation_method	'MofGen! by Chris Wilmer'
_symmetry_space_group_name_H-M	'P1'
_symmetry_Int_Tables_number	1
_symmetry_cell_setting	triclinic
loop_
_symmetry_equiv_pos_as_xyz
  x,y,z
_cell_length_a	21.295418
_cell_length_b	29.839131
_cell_length_c	21.295411
_cell_angle_alpha	90.020364
_cell_angle_beta	90.043738
_cell_angle_gamma	90.057233
loop_
_atom_site_label
_atom_site_type_symbol
_atom_site_fract_x
_atom_site_fract_y
_atom_site_fract_z
Zn1	Zn	0.962308	-0.178715	0.356239
Zn2	Zn	1.295641	0.154618	0.689573
Zn3	Zn	1.628975	0.487952	1.022906
Zn4	Zn	0.962190	-0.253830	0.250967
Zn5	Zn	1.295524	0.079503	0.584300
Zn6	Zn	1.628857	0.412836	0.917634
Zn7	Zn	0.857031	-0.178736	0.250949
Zn8	Zn	1.190365	0.154597	0.584282
Zn9	Zn	1.523698	0.487931	0.917616
Zn10	Zn	0.856981	-0.253839	0.356163
Zn11	Zn	1.190314	0.079494	0.689497
Zn12	Zn	1.523647	0.412827	1.022830
O13	O	0.909628	-0.216280	0.303580
O14	O	1.242961	0.117053	0.636913
O15	O	1.576294	0.450386	0.970246
O16	O	1.050382	-0.188667	0.342314
O17	O	1.383715	0.144667	0.675647
O18	O	1.717049	0.478000	1.008980
O19	O	0.948213	-0.243874	0.162875
O20	O	1.281546	0.089459	0.496208
O21	O	1.614880	0.422793	0.829542
O22	O	0.871067	-0.115866	0.264940
O23	O	1.204400	0.217467	0.598273
O24	O	1.537734	0.550801	0.931607
O25	O	1.050295	-0.243854	0.264971
O26	O	1.383629	0.089480	0.598304
O27	O	1.716962	0.422813	0.931637
O28	O	0.948413	-0.115851	0.342296
O29	O	1.281747	0.217483	0.675630
O30	O	1.615080	0.550816	1.008963
O31	O	0.870953	-0.188703	0.162862
O32	O	1.204286	0.144631	0.496195
O33	O	1.537619	0.477964	0.829529
O34	O	0.768935	-0.188711	0.264867
O35	O	1.102268	0.144622	0.598200
O36	O	1.435602	0.477956	0.931533
O37	O	0.870981	-0.243869	0.444263
O38	O	1.204314	0.089464	0.777596
O39	O	1.537647	0.422798	1.110930
O40	O	0.768898	-0.243889	0.342167
O41	O	1.102231	0.089444	0.675501
O42	O	1.435565	0.422777	1.008834
O43	O	0.948364	-0.188675	0.444319
O44	O	1.281698	0.144658	0.777652
O45	O	1.615031	0.477991	1.110985
O46	O	0.948164	-0.316699	0.264897
O47	O	1.281497	0.016635	0.598231
O48	O	1.614830	0.349968	0.931564
O49	O	0.870866	-0.316705	0.342185
O50	O	1.204200	0.016628	0.675518
O51	O	1.537533	0.349961	1.008851
C52	C	0.746076	-0.216304	0.303507
C53	C	1.079409	0.117030	0.636840
C54	C	1.412743	0.450363	0.970174
C55	C	0.676108	-0.216325	0.303491
C56	C	1.009441	0.117009	0.636824
C57	C	1.342774	0.450342	0.970158
C58	C	0.643238	-0.245094	0.343681
C59	C	0.976572	0.088239	0.677015
C60	C	1.309905	0.421573	1.010348
C61	C	0.577496	-0.245083	0.343710
C62	C	0.910829	0.088250	0.677043
C63	C	1.244162	0.421584	1.010376
C64	C	0.544625	-0.216307	0.303536
C65	C	0.877959	0.117026	0.636870
C66	C	1.211292	0.450359	0.970203
C67	C	0.577503	-0.187532	0.263343
C68	C	0.910836	0.145801	0.596677
C69	C	1.244169	0.479134	0.930010
C70	C	0.643244	-0.187541	0.263321
C71	C	0.976577	0.145792	0.596654
C72	C	1.309911	0.479126	0.929987
N73	N	0.441350	-0.212791	0.248479
N74	N	0.774684	0.120542	0.581812
N75	N	1.108017	0.453876	0.915145
N76	N	0.378899	-0.212785	0.248502
N77	N	0.712232	0.120548	0.581835
N78	N	1.045566	0.453881	0.915169
C79	C	0.346551	-0.216279	0.303603
C80	C	0.679884	0.117055	0.636936
C81	C	1.013217	0.450388	0.970270
N82	N	0.379013	-0.219787	0.358681
N83	N	0.712347	0.113547	0.692015
N84	N	1.045680	0.446880	1.025348
N85	N	0.441470	-0.219795	0.358657
N86	N	0.774804	0.113539	0.691991
N87	N	1.108137	0.446872	1.025324
C88	C	0.473340	-0.216294	0.303557
C89	C	0.806673	0.117039	0.636890
C90	C	1.140007	0.450372	0.970223
C91	C	0.242396	-0.245037	0.343827
C92	C	0.575729	0.088296	0.677161
C93	C	0.909062	0.421629	1.010494
C94	C	0.176652	-0.245023	0.343857
C95	C	0.509985	0.088310	0.677190
C96	C	0.843319	0.421643	1.010523
C97	C	0.176660	-0.187475	0.263485
C98	C	0.509994	0.145858	0.596818
C99	C	0.843327	0.479192	0.930152
C100	C	0.242403	-0.187487	0.263461
C101	C	0.575736	0.145846	0.596794
C102	C	0.909069	0.479180	0.930128
C103	C	0.275266	-0.216271	0.303632
C104	C	0.608600	0.117063	0.636965
C105	C	0.941933	0.450396	0.970298
C106	C	0.909514	-0.333003	0.303548
C107	C	1.242847	0.000331	0.636882
C108	C	1.576181	0.333664	0.970215
C109	C	0.909523	-0.382937	0.303556
C110	C	1.242856	-0.049604	0.636889
C111	C	1.576190	0.283729	0.970223
C112	C	0.949949	-0.692564	0.263395
C113	C	1.283283	-0.359231	0.596728
C114	C	1.616616	-0.025898	0.930062
C115	C	0.950027	-0.880238	0.263419
C116	C	1.283361	-0.546904	0.596753
C117	C	1.616694	-0.213571	0.930086
O118	O	0.984309	-0.904489	0.229249
O119	O	1.317642	-0.571155	0.562582
O120	O	1.650976	-0.237822	0.895916
N121	N	0.909758	-0.903722	0.303627
N122	N	1.243091	-0.570389	0.636960
N123	N	1.576425	-0.237056	0.970294
C124	C	0.869470	-0.880286	0.343835
C125	C	1.202803	-0.546952	0.677168
C126	C	1.536136	-0.213619	1.010501
O127	O	0.835225	-0.904567	0.378039
O128	O	1.168558	-0.571234	0.711372
O129	O	1.501891	-0.237900	1.044706
C130	C	0.869396	-0.692614	0.343813
C131	C	1.202729	-0.359280	0.677146
C132	C	1.536062	-0.025947	1.010479
C133	C	0.909663	-0.669131	0.303598
C134	C	1.242996	-0.335798	0.636931
C135	C	1.576330	-0.002465	0.970265
C136	C	0.990214	-0.669082	0.223184
C137	C	1.323547	-0.335749	0.556517
C138	C	1.656881	-0.002416	0.889850
C139	C	0.990192	-0.622167	0.223176
C140	C	1.323525	-0.288833	0.556509
C141	C	1.656858	0.044500	0.889842
C142	C	0.949905	-0.598734	0.263379
C143	C	1.283238	-0.265400	0.596712
C144	C	1.616572	0.067933	0.930045
C145	C	0.909641	-0.622216	0.303590
C146	C	1.242974	-0.288883	0.636923
C147	C	1.576307	0.044451	0.970256
C148	C	0.829111	-0.669178	0.384023
C149	C	1.162444	-0.335845	0.717356
C150	C	1.495778	-0.002511	1.050690
C151	C	0.829097	-0.622257	0.384015
C152	C	1.162430	-0.288924	0.717348
C153	C	1.495764	0.044410	1.050682
C154	C	0.869364	-0.598775	0.343800
C155	C	1.202698	-0.265441	0.677133
C156	C	1.536031	0.067892	1.010467
C157	C	0.869332	-0.551867	0.343785
C158	C	1.202665	-0.218534	0.677118
C159	C	1.535998	0.114799	1.010451
N160	N	0.909601	-0.528383	0.303577
N161	N	1.242934	-0.195049	0.636910
N162	N	1.576267	0.138284	0.970244
C163	C	0.949887	-0.551816	0.263374
C164	C	1.283221	-0.218482	0.596707
C165	C	1.616554	0.114851	0.930041
C166	C	0.869511	-0.978816	0.343842
C167	C	1.202844	-0.645483	0.677176
C168	C	1.536177	-0.312150	1.010509
C169	C	0.869528	-1.025734	0.343847
C170	C	1.202862	-0.692401	0.677180
C171	C	1.536195	-0.359067	1.010514
C172	C	0.950087	-1.025683	0.263432
C173	C	1.283420	-0.692349	0.596766
C174	C	1.616753	-0.359016	0.930099
C175	C	0.950065	-0.978764	0.263425
C176	C	1.283399	-0.645431	0.596758
C177	C	1.616732	-0.312097	0.930092
C178	C	0.909780	-0.955332	0.303634
C179	C	1.243113	-0.621998	0.636968
C180	C	1.576446	-0.288665	0.970301
C181	C	0.949837	-0.453290	0.263359
C182	C	1.283171	-0.119957	0.596693
C183	C	1.616504	0.213377	0.930026
C184	C	0.949810	-0.406370	0.263353
C185	C	1.283143	-0.073037	0.596686
C186	C	1.616476	0.260296	0.930020
C187	C	0.869254	-0.406426	0.343770
C188	C	1.202587	-0.073093	0.677103
C189	C	1.535920	0.260241	1.010436
C190	C	0.869279	-0.453341	0.343774
C191	C	1.202612	-0.120008	0.677107
C192	C	1.535945	0.213325	1.010441
C193	C	0.909576	-0.476772	0.303567
C194	C	1.242909	-0.143439	0.636900
C195	C	1.576242	0.189894	0.970233
O196	O	0.835073	-0.527587	0.377942
O197	O	1.168406	-0.194254	0.711276
O198	O	1.501739	0.139079	1.044609
O199	O	0.984137	-0.527526	0.229185
O200	O	1.317470	-0.194193	0.562518
O201	O	1.650804	0.139140	0.895851
C202	C	0.949972	-0.739480	0.263403
C203	C	1.283305	-0.406147	0.596736
C204	C	1.616638	-0.072813	0.930070
C205	C	0.909707	-0.762962	0.303614
C206	C	1.243041	-0.429629	0.636947
C207	C	1.576374	-0.096296	0.970281
C208	C	0.869421	-0.739529	0.343817
C209	C	1.202754	-0.406196	0.677150
C210	C	1.536087	-0.072862	1.010484
C211	C	0.909725	-0.809880	0.303619
C212	C	1.243058	-0.476547	0.636952
C213	C	1.576392	-0.143213	0.970286
C214	C	0.950012	-0.833313	0.263416
C215	C	1.283345	-0.499980	0.596749
C216	C	1.616678	-0.166647	0.930083
C217	C	0.990281	-0.809829	0.223208
C218	C	1.323614	-0.476495	0.556542
C219	C	1.656947	-0.143162	0.889875
C220	C	0.990258	-0.762913	0.223200
C221	C	1.323592	-0.429580	0.556533
C222	C	1.656925	-0.096246	0.889867
C223	C	0.829152	-0.763014	0.384025
C224	C	1.162485	-0.429680	0.717358
C225	C	1.495818	-0.096347	1.050692
C226	C	0.829177	-0.809929	0.384029
C227	C	1.162510	-0.476596	0.717363
C228	C	1.495843	-0.143263	1.050696
C229	C	0.869463	-0.833362	0.343826
C230	C	1.202797	-0.500029	0.677160
C231	C	1.536130	-0.166696	1.010493
C232	C	1.073818	-0.216257	0.303653
C233	C	1.407151	0.117077	0.636986
C234	C	1.740485	0.450410	0.970319
C235	C	1.143786	-0.216247	0.303684
C236	C	1.477119	0.117087	0.637017
C237	C	1.810453	0.450420	0.970351
C238	C	0.909680	-0.216271	0.467770
C239	C	1.243013	0.117063	0.801103
C240	C	1.576347	0.450396	1.134437
C241	C	0.909702	-0.216267	0.537738
C242	C	1.243035	0.117067	0.871071
C243	C	1.576369	0.450400	1.204405
C244	C	0.909759	-0.099102	0.303625
C245	C	1.243092	0.234232	0.636958
C246	C	1.576426	0.567565	0.970291
C247	C	0.909815	-0.049167	0.303644
C248	C	1.243148	0.284166	0.636977
C249	C	1.576481	0.617499	0.970311
C250	C	0.909612	-0.216257	0.140028
C251	C	1.242945	0.117076	0.473361
C252	C	1.576278	0.450409	0.806695
C253	C	0.909712	-0.216135	0.070060
C254	C	1.243045	0.117199	0.403394
C255	C	1.576378	0.450532	0.736727
C256	C	0.949994	-0.187526	0.570635
C257	C	1.283327	0.145807	0.903968
C258	C	1.616661	0.479141	1.237301
C259	C	0.949993	-0.187507	0.636377
C260	C	1.283327	0.145827	0.969711
C261	C	1.616660	0.479160	1.303044
C262	C	0.909707	-0.216236	0.669221
C263	C	1.243040	0.117098	1.002554
C264	C	1.576374	0.450431	1.335887
C265	C	0.869407	-0.244978	0.636316
C266	C	1.202741	0.088355	0.969649
C267	C	1.536074	0.421688	1.302983
C268	C	0.869405	-0.244994	0.570575
C269	C	1.202738	0.088340	0.903908
C270	C	1.536071	0.421673	1.237241
N271	N	0.904840	-0.255537	0.772436
N272	N	1.238173	0.077796	1.105769
N273	N	1.571506	0.411130	1.439102
N274	N	0.904846	-0.255521	0.834887
N275	N	1.238179	0.077812	1.168220
N276	N	1.571513	0.411146	1.501554
C277	C	0.909711	-0.216190	0.867295
C278	C	1.243044	0.117143	1.200629
C279	C	1.576378	0.450477	1.533962
N280	N	0.914582	-0.176875	0.834893
N281	N	1.247916	0.156458	1.168226
N282	N	1.581249	0.489792	1.501560
N283	N	0.914580	-0.176891	0.772436
N284	N	1.247913	0.156442	1.105769
N285	N	1.581246	0.489775	1.439103
C286	C	0.909705	-0.216222	0.740506
C287	C	1.243038	0.117111	1.073839
C288	C	1.576372	0.450445	1.407173
C289	C	0.950004	-0.187426	0.971478
C290	C	1.283337	0.145907	1.304811
C291	C	1.616671	0.479241	1.638144
C292	C	0.949999	-0.187406	1.037221
C293	C	1.283332	0.145928	1.370555
C294	C	1.616666	0.479261	1.703888
C295	C	0.869416	-0.244882	1.037159
C296	C	1.202750	0.088452	1.370492
C297	C	1.536083	0.421785	1.703826
C298	C	0.869418	-0.244898	0.971417
C299	C	1.202752	0.088436	1.304750
C300	C	1.536085	0.421769	1.638083
C301	C	0.909716	-0.216171	0.938580
C302	C	1.243049	0.117163	1.271913
C303	C	1.576382	0.450496	1.605246
H304	H	0.550728	-0.268510	0.376440
H305	H	0.884061	0.064823	0.709773
H306	H	1.217395	0.398157	1.043106
C307	C	0.183276	-0.130592	0.184043
C308	C	0.516609	0.202741	0.517376
C309	C	0.849943	0.536075	0.850710
C310	C	0.140538	-0.155842	0.219327
C311	C	0.473871	0.177491	0.552660
C312	C	0.807204	0.510825	0.885993
H313	H	0.160972	-0.111060	0.156785
H314	H	0.494305	0.222274	0.490119
H315	H	0.827639	0.555607	0.823452
H316	H	0.208855	-0.150144	0.159905
H317	H	0.542188	0.183189	0.493238
H318	H	0.875521	0.516523	0.826571
H319	H	0.208980	-0.113442	0.211511
H320	H	0.542313	0.219891	0.544845
H321	H	0.875646	0.553225	0.878178
H322	H	0.114837	-0.172994	0.191858
H323	H	0.448170	0.160339	0.525191
H324	H	0.781504	0.493672	0.858525
H325	H	0.114948	-0.136288	0.243467
H326	H	0.448281	0.197046	0.576800
H327	H	0.781615	0.530379	0.910133
H328	H	0.982813	-0.164032	0.944741
H329	H	1.316146	0.169301	1.278074
H330	H	1.649480	0.502635	1.611407
H331	H	0.836608	-0.268269	1.063899
H332	H	1.169941	0.065064	1.397233
H333	H	1.503275	0.398398	1.730566
C334	C	0.183251	-0.301917	0.423283
C335	C	0.516585	0.031416	0.756616
C336	C	0.849918	0.364749	1.089949
C337	C	0.140519	-0.276651	0.388035
C338	C	0.473852	0.056682	0.721368
C339	C	0.807186	0.390016	1.054702
H340	H	0.160942	-0.321445	0.450553
H341	H	0.494276	0.011888	0.783886
H342	H	0.827609	0.345221	1.117219
H343	H	0.208951	-0.282376	0.447406
H344	H	0.542284	0.050958	0.780739
H345	H	0.875618	0.384291	1.114073
H346	H	0.208834	-0.319072	0.395792
H347	H	0.542168	0.014261	0.729125
H348	H	0.875501	0.347594	1.062459
H349	H	0.114939	-0.259493	0.415526
H350	H	0.448272	0.073840	0.748859
H351	H	0.781605	0.407173	1.082192
H352	H	0.114808	-0.296195	0.363910
H353	H	0.448142	0.037138	0.697243
H354	H	0.781475	0.370471	1.030577
H355	H	0.982890	-1.044770	0.230698
H356	H	1.316223	-0.711437	0.564031
H357	H	1.649556	-0.378103	0.897364
C358	C	1.034660	-0.181270	0.496748
C359	C	1.367994	0.152063	0.830082
C360	C	1.701327	0.485397	1.163415
C361	C	0.994265	-0.155939	0.534532
C362	C	1.327598	0.177395	0.867865
C363	C	1.660932	0.510728	1.201199
H364	H	1.061987	-0.161766	0.474460
H365	H	1.395320	0.171568	0.807793
H366	H	1.728654	0.504901	1.141126
H367	H	1.010664	-0.198392	0.467754
H368	H	1.343997	0.134942	0.801088
H369	H	1.677330	0.468275	1.134421
H370	H	1.058734	-0.200827	0.522410
H371	H	1.392067	0.132506	0.855743
H372	H	1.725400	0.465840	1.189077
H373	H	0.970188	-0.136384	0.508870
H374	H	1.303522	0.196950	0.842203
H375	H	1.636855	0.530283	1.175536
H376	H	1.018264	-0.138809	0.563529
H377	H	1.351598	0.194524	0.896862
H378	H	1.684931	0.527857	1.230196
H379	H	0.269155	-0.268472	0.376540
H380	H	0.602488	0.064861	0.709873
H381	H	0.935821	0.398194	1.043206
C382	C	0.476729	-0.161977	0.227680
C383	C	0.810062	0.171357	0.561013
C384	C	1.143395	0.504690	0.894347
C385	C	0.541374	-0.155906	0.219178
C386	C	0.874707	0.177428	0.552511
C387	C	1.208041	0.510761	0.885845
H388	H	0.454426	-0.142452	0.200410
H389	H	0.787760	0.190881	0.533743
H390	H	1.121093	0.524215	0.867077
H391	H	0.466013	-0.155441	0.269989
H392	H	0.799346	0.177892	0.603322
H393	H	1.132679	0.511225	0.936656
H394	H	0.465905	-0.192153	0.218396
H395	H	0.799238	0.141180	0.551729
H396	H	1.132572	0.474514	0.885062
H397	H	0.552199	-0.125730	0.228467
H398	H	0.885532	0.207603	0.561800
H399	H	1.218865	0.540937	0.895134
H400	H	0.552095	-0.162438	0.176859
H401	H	0.885428	0.170896	0.510193
H402	H	1.218761	0.504229	0.843526
C403	C	1.026104	-0.881732	0.187552
C404	C	1.359437	-0.548398	0.520885
C405	C	1.692771	-0.215065	0.854219
C406	C	1.034585	-0.835593	0.179037
C407	C	1.367919	-0.502259	0.512370
C408	C	1.701252	-0.168926	0.845703
H409	H	1.053465	-0.897638	0.160293
H410	H	1.386798	-0.564304	0.493627
H411	H	1.720131	-0.230971	0.826960
H412	H	0.983828	-0.889466	0.178266
H413	H	1.317161	-0.556132	0.511600
H414	H	1.650495	-0.222799	0.844933
H415	H	1.035278	-0.889383	0.229870
H416	H	1.368612	-0.556049	0.563204
H417	H	1.701945	-0.222716	0.896537
H418	H	1.025406	-0.827941	0.136719
H419	H	1.358740	-0.494608	0.470052
H420	H	1.692073	-0.161274	0.803386
H421	H	1.076871	-0.827855	0.188318
H422	H	1.410204	-0.494522	0.521651
H423	H	1.743538	-0.161189	0.854985
H424	H	0.836612	-0.268304	0.944632
H425	H	1.169945	0.065029	1.277965
H426	H	1.503279	0.398362	1.611298
C427	C	1.029658	-0.130705	0.629842
C428	C	1.362991	0.202628	0.963176
C429	C	1.696325	0.535962	1.296509
C430	C	0.994289	-0.155916	0.672548
C431	C	1.327622	0.177418	1.005881
C432	C	1.660956	0.510751	1.339214
H433	H	1.057007	-0.111205	0.652172
H434	H	1.390340	0.222129	0.985506
H435	H	1.723674	0.555462	1.318839
H436	H	1.002254	-0.113527	0.604185
H437	H	1.335587	0.219807	0.937518
H438	H	1.668920	0.553140	1.270852
H439	H	1.053709	-0.150287	0.604214
H440	H	1.387042	0.183046	0.937548
H441	H	1.720376	0.516380	1.270881
H442	H	0.970234	-0.136333	0.698173
H443	H	1.303568	0.197000	1.031506
H444	H	1.636901	0.530333	1.364839
H445	H	1.021697	-0.173095	0.698216
H446	H	1.355030	0.160238	1.031549
H447	H	1.688364	0.493572	1.364882
C448	C	0.999082	-0.721894	0.138562
C449	C	1.332416	-0.388561	0.471895
C450	C	1.665749	-0.055228	0.805229
C451	C	1.034524	-0.694854	0.179031
C452	C	1.367857	-0.361520	0.512364
C453	C	1.701191	-0.028187	0.845697
H454	H	1.026446	-0.737809	0.111316
H455	H	1.359779	-0.404476	0.444649
H456	H	1.693113	-0.071142	0.777983
H457	H	0.971685	-0.703634	0.114412
H458	H	1.305018	-0.370301	0.447745
H459	H	1.638351	-0.036968	0.781079
H460	H	0.975088	-0.742584	0.162515
H461	H	1.308422	-0.409251	0.495848
H462	H	1.641755	-0.075917	0.829182
H463	H	1.058515	-0.674162	0.155078
H464	H	1.391848	-0.340828	0.488411
H465	H	1.725181	-0.007495	0.821745
H466	H	1.061933	-0.713115	0.203183
H467	H	1.395266	-0.379782	0.536517
H468	H	1.728599	-0.046449	0.869850
H469	H	0.669992	-0.268531	0.376392
H470	H	1.003325	0.064802	0.709725
H471	H	1.336658	0.398135	1.043059
H472	H	0.982808	-0.163999	1.064005
H473	H	1.316142	0.169334	1.397338
H474	H	1.649475	0.502668	1.730672
H475	H	0.836604	-0.268368	0.663061
H476	H	1.169937	0.064965	0.996395
H477	H	1.503271	0.398298	1.329728
H478	H	0.670006	-0.164112	0.230593
H479	H	1.003339	0.169221	0.563926
H480	H	1.336673	0.502554	0.897259
C481	C	0.316252	-0.181170	0.178778
C482	C	0.649585	0.152163	0.512111
C483	C	0.982919	0.485497	0.845444
C484	C	0.278538	-0.155867	0.219276
C485	C	0.611872	0.177466	0.552610
C486	C	0.945205	0.510800	0.885943
H487	H	0.338562	-0.161647	0.151502
H488	H	0.671896	0.171687	0.484836
H489	H	1.005229	0.505020	0.818169
H490	H	0.290545	-0.200711	0.154660
H491	H	0.623879	0.132623	0.487993
H492	H	0.957212	0.465956	0.821327
H493	H	0.345233	-0.198308	0.202707
H494	H	0.678566	0.135025	0.536040
H495	H	1.011899	0.468359	0.869374
H496	H	0.249554	-0.138732	0.195347
H497	H	0.582888	0.194602	0.528680
H498	H	0.916221	0.527935	0.862014
H499	H	0.304247	-0.136319	0.243396
H500	H	0.637581	0.197015	0.576730
H501	H	0.970914	0.530348	0.910063
C502	C	0.838549	-0.391968	0.450322
C503	C	1.171883	-0.058635	0.783656
C504	C	1.505216	0.274698	1.116989
C505	C	0.824979	-0.380661	0.387965
C506	C	1.158312	-0.047328	0.721298
C507	C	1.491645	0.286006	1.054632
H508	H	0.811216	-0.376062	0.477609
H509	H	1.144550	-0.042729	0.810942
H510	H	1.477883	0.290604	1.144275
H511	H	0.880836	-0.384240	0.459572
H512	H	1.214169	-0.050907	0.792905
H513	H	1.547502	0.282426	1.126239
H514	H	0.832789	-0.423271	0.456077
H515	H	1.166123	-0.089938	0.789410
H516	H	1.499456	0.243395	1.122744
H517	H	0.830743	-0.349358	0.382209
H518	H	1.164077	-0.016025	0.715542
H519	H	1.497410	0.317308	1.048876
H520	H	0.782682	-0.388386	0.378712
H521	H	1.116016	-0.055053	0.712045
H522	H	1.449349	0.278281	1.045379
H523	H	0.796292	-0.603181	0.416761
H524	H	1.129626	-0.269847	0.750094
H525	H	1.462959	0.063486	1.083427
C526	C	1.029444	-0.411039	0.183868
C527	C	1.362778	-0.077706	0.517201
C528	C	1.696111	0.255627	0.850534
C529	C	0.994077	-0.380559	0.219148
C530	C	1.327410	-0.047226	0.552482
C531	C	1.660744	0.286107	0.885815
H532	H	1.056775	-0.395105	0.156582
H533	H	1.390108	-0.061772	0.489916
H534	H	1.723441	0.271562	0.823249
H535	H	1.002037	-0.429372	0.159759
H536	H	1.335371	-0.096039	0.493092
H537	H	1.668704	0.237295	0.826426
H538	H	1.053514	-0.429308	0.211336
H539	H	1.386848	-0.095974	0.544670
H540	H	1.720181	0.237359	0.878003
H541	H	0.970003	-0.362293	0.191680
H542	H	1.303336	-0.028960	0.525013
H543	H	1.636670	0.304374	0.858346
H544	H	1.021487	-0.362219	0.243259
H545	H	1.354821	-0.028886	0.576592
H546	H	1.688154	0.304447	0.909926
H547	H	0.982652	-0.472362	0.230620
H548	H	1.315985	-0.139028	0.563954
H549	H	1.649319	0.194305	0.897287
H550	H	1.022982	-0.603050	0.190431
H551	H	1.356316	-0.269717	0.523764
H552	H	1.689649	0.063616	0.857098
C553	C	1.029692	-0.983437	0.183940
C554	C	1.363026	-0.650103	0.517273
C555	C	1.696359	-0.316770	0.850607
C556	C	0.994332	-0.952955	0.219224
C557	C	1.327665	-0.619621	0.552557
C558	C	1.660998	-0.286288	0.885891
H559	H	1.057024	-0.967504	0.156654
H560	H	1.390358	-0.634170	0.489988
H561	H	1.723691	-0.300837	0.823321
H562	H	1.002282	-1.001766	0.159831
H563	H	1.335615	-0.668433	0.493165
H564	H	1.668948	-0.335099	0.826498
H565	H	1.053761	-1.001708	0.211407
H566	H	1.387094	-0.668375	0.544740
H567	H	1.720427	-0.335041	0.878073
H568	H	0.970260	-0.934686	0.191757
H569	H	1.303593	-0.601352	0.525090
H570	H	1.636926	-0.268019	0.858424
H571	H	1.021746	-0.934617	0.243334
H572	H	1.355079	-0.601284	0.576668
H573	H	1.688413	-0.267951	0.910001
C574	C	0.789876	-0.983590	0.423321
C575	C	1.123210	-0.650257	0.756654
C576	C	1.456543	-0.316923	1.089987
C577	C	0.825217	-0.953063	0.388037
C578	C	1.158550	-0.619730	0.721371
C579	C	1.491883	-0.286397	1.054704
H580	H	0.762527	-0.967692	0.450599
H581	H	1.095860	-0.634359	0.783933
H582	H	1.429193	-0.301025	1.117266
H583	H	0.817299	-1.001855	0.447437
H584	H	1.150632	-0.668521	0.780770
H585	H	1.483965	-0.335188	1.114103
H586	H	0.765827	-1.001922	0.395853
H587	H	1.099161	-0.668589	0.729187
H588	H	1.432494	-0.335255	1.062520
H589	H	0.849269	-0.934733	0.415505
H590	H	1.182602	-0.601400	0.748838
H591	H	1.515936	-0.268067	1.082172
H592	H	0.797791	-0.934791	0.363920
H593	H	1.131124	-0.601458	0.697253
H594	H	1.464457	-0.268125	1.030586
C595	C	0.784617	-0.506183	0.352427
C596	C	1.117950	-0.172850	0.685760
C597	C	1.451283	0.160484	1.019094
C598	C	0.825011	-0.479154	0.387974
C599	C	1.158344	-0.145821	0.721307
C600	C	1.491678	0.187513	1.054641
H601	H	0.757288	-0.522113	0.379719
H602	H	1.090621	-0.188780	0.713052
H603	H	1.423955	0.144554	1.046386
H604	H	0.808614	-0.526855	0.328495
H605	H	1.141947	-0.193521	0.661829
H606	H	1.475281	0.139812	0.995162
H607	H	0.760545	-0.487909	0.324966
H608	H	1.093879	-0.154576	0.658299
H609	H	1.427212	0.178757	0.991633
H610	H	0.849086	-0.497428	0.415432
H611	H	1.182419	-0.164095	0.748765
H612	H	1.515752	0.169239	1.082099
H613	H	0.801011	-0.458480	0.411916
H614	H	1.134345	-0.125147	0.745250
H615	H	1.467678	0.208187	1.078583
H616	H	0.836591	-0.268397	0.543791
H617	H	1.169925	0.064936	0.877124
H618	H	1.503258	0.398269	1.210457
C619	C	0.860757	-1.078475	0.428519
C620	C	1.194090	-0.745142	0.761852
C621	C	1.527423	-0.411809	1.095185
C622	C	0.825261	-1.051544	0.388048
C623	C	1.158595	-0.718210	0.721381
C624	C	1.491928	-0.384877	1.054714
H625	H	0.833428	-1.094409	0.455806
H626	H	1.166761	-0.761076	0.789139
H627	H	1.500095	-0.427743	1.122473
H628	H	0.888161	-1.060139	0.452625
H629	H	1.221494	-0.726806	0.785958
H630	H	1.554827	-0.393472	1.119291
H631	H	0.884747	-1.099148	0.404570
H632	H	1.218080	-0.765815	0.737904
H633	H	1.551413	-0.432481	1.071237
H634	H	0.801275	-1.030869	0.411996
H635	H	1.134608	-0.697535	0.745329
H636	H	1.467942	-0.364202	1.078663
H637	H	0.797847	-1.069882	0.363939
H638	H	1.131180	-0.736548	0.697273
H639	H	1.464513	-0.403215	1.030606
H640	H	0.796318	-0.688289	0.416767
H641	H	1.129651	-0.354956	0.750101
H642	H	1.462985	-0.021623	1.083434
H643	H	0.796381	-0.829044	0.416777
H644	H	1.129714	-0.495711	0.750110
H645	H	1.463047	-0.162378	1.083443
C646	C	0.820325	-0.710238	0.468690
C647	C	1.153658	-0.376904	0.802023
C648	C	1.486992	-0.043571	1.135357
C649	C	0.784862	-0.737262	0.428218
C650	C	1.118195	-0.403928	0.761552
C651	C	1.451528	-0.070595	1.094885
H652	H	0.792977	-0.694344	0.495975
H653	H	1.126310	-0.361010	0.829309
H654	H	1.459644	-0.027677	1.162642
H655	H	0.844293	-0.689534	0.444746
H656	H	1.177627	-0.356201	0.778079
H657	H	1.510960	-0.022868	1.111413
H658	H	0.847748	-0.728510	0.492804
H659	H	1.181081	-0.395177	0.826137
H660	H	1.514415	-0.061844	1.159470
H661	H	0.757442	-0.718989	0.404101
H662	H	1.090775	-0.385655	0.737435
H663	H	1.424108	-0.052322	1.070768
H664	H	0.760883	-0.757968	0.452165
H665	H	1.094216	-0.424634	0.785498
H666	H	1.427549	-0.091301	1.118832
H667	H	1.023048	-0.743797	0.190453
H668	H	1.356381	-0.410464	0.523787
H669	H	1.689714	-0.077131	0.857120
