data_functionalizedCrystal
_audit_creation_method	'MofGen! by Chris Wilmer'
_symmetry_space_group_name_H-M	'P1'
_symmetry_Int_Tables_number	1
_symmetry_cell_setting	triclinic
loop_
_symmetry_equiv_pos_as_xyz
  x,y,z
_cell_length_a	12.827893
_cell_length_b	18.101395
_cell_length_c	12.827885
_cell_angle_alpha	89.967625
_cell_angle_beta	89.980728
_cell_angle_gamma	90.031075
loop_
_atom_site_label
_atom_site_type_symbol
_atom_site_fract_x
_atom_site_fract_y
_atom_site_fract_z
Zn1	Zn	1.597556	-0.294794	-0.590830
Zn2	Zn	1.597402	-0.418654	-0.416082
Zn3	Zn	1.422797	-0.294830	-0.416103
Zn4	Zn	1.422734	-0.418598	-0.590782
O5	O	1.510122	-0.356719	-0.503449
O6	O	1.743771	-0.311233	-0.567660
O7	O	1.574202	-0.402266	-0.269849
O8	O	1.446070	-0.191193	-0.439310
O9	O	1.743658	-0.402231	-0.439274
O10	O	1.574464	-0.191166	-0.567681
O11	O	1.445920	-0.311294	-0.269865
O12	O	1.276553	-0.311241	-0.439264
O13	O	1.445963	-0.402137	-0.737025
O14	O	1.276507	-0.402172	-0.567600
O15	O	1.574403	-0.311179	-0.737060
O16	O	1.574141	-0.522279	-0.439228
O17	O	1.445814	-0.522239	-0.567579
C18	C	1.238612	-0.356705	-0.503430
C19	C	1.122459	-0.356717	-0.503446
C20	C	1.070679	-0.401783	-0.566852
C21	C	0.950629	-0.401796	-0.566871
C22	C	1.509982	-0.549130	-0.503419
C23	C	1.510018	-0.631444	-0.503440
C24	C	1.510247	-0.930535	-0.503497
C25	C	1.429695	-0.899215	-0.584452
C26	C	1.429312	-0.813597	-0.584199
C27	C	1.510134	-0.782152	-0.503470
C28	C	1.480314	-0.813311	-0.393335
C29	C	1.479795	-0.898956	-0.393820
C30	C	1.620796	-0.898877	-0.531706
C31	C	1.620146	-0.813226	-0.534121
C32	C	1.510071	-0.698293	-0.503448
C33	C	1.510307	-1.014394	-0.503511
C34	C	1.782692	-0.356734	-0.503470
C35	C	1.898845	-0.356740	-0.503479
C36	C	1.510193	-0.356648	-0.776020
C37	C	1.510224	-0.356618	-0.892173
C38	C	1.510291	-0.163557	-0.503503
C39	C	1.510363	-0.081243	-0.503526
C40	C	1.573787	-0.311600	-0.943975
C41	C	1.573820	-0.311568	-1.064025
C42	C	1.510111	-0.356737	-0.231940
C43	C	1.510284	-0.356558	-0.115787
H44	H	1.077913	-0.318141	-0.449179
C45	C	1.193623	-0.412096	-0.707259
C46	C	1.130807	-0.453858	-0.640120
H47	H	1.230746	-0.444247	-0.752487
H48	H	1.151078	-0.379905	-0.747356
H49	H	1.241658	-0.383821	-0.667464
H50	H	1.082767	-0.482128	-0.679914
H51	H	1.173356	-0.486062	-0.600019
C52	C	0.961370	-0.495541	-0.698772
C53	C	0.890526	-0.453884	-0.640161
H54	H	0.924261	-0.527700	-0.744015
H55	H	1.003977	-0.463329	-0.738852
H56	H	1.003906	-0.523853	-0.653194
H57	H	0.847995	-0.425567	-0.685739
H58	H	0.847901	-0.486099	-0.600078
H59	H	1.628242	-0.273028	-1.108574
C60	C	1.252518	-0.846650	-0.543999
C61	C	1.318699	-0.786021	-0.558957
H62	H	1.184231	-0.829624	-0.528405
H63	H	1.250804	-0.875641	-0.605669
H64	H	1.277630	-0.875797	-0.487766
H65	H	1.293591	-0.756877	-0.615196
H66	H	1.320410	-0.757018	-0.497281
H67	H	1.447969	-0.792528	-0.665863
H68	H	1.535921	-0.919677	-0.331445
C69	C	1.378005	-0.450249	-0.881418
C70	C	1.436786	-0.408618	-0.952271
H71	H	1.332662	-0.482348	-0.918521
H72	H	1.423461	-0.478617	-0.838846
H73	H	1.338013	-0.418012	-0.838848
H74	H	1.476784	-0.440855	-0.994836
H75	H	1.391324	-0.380247	-0.994861
C76	C	1.021649	-0.346400	-0.363031
C77	C	0.958946	-0.304651	-0.430189
H78	H	1.058762	-0.314241	-0.317791
H79	H	0.979029	-0.378601	-0.322949
H80	H	1.069693	-0.374664	-0.402811
H81	H	0.910897	-0.276391	-0.390409
H82	H	1.001570	-0.272437	-0.470275
C83	C	1.542694	-0.972553	-0.691854
C84	C	1.454613	-0.926954	-0.695055
H85	H	1.558072	-0.989686	-0.760137
H86	H	1.600364	-0.945350	-0.665714
H87	H	1.529373	-1.013558	-0.647552
H88	H	1.467937	-0.885946	-0.739352
H89	H	1.396931	-0.954158	-0.721210
C90	C	1.306427	-0.865086	-0.341996
C91	C	1.370702	-0.926021	-0.361571
H92	H	1.239075	-0.881794	-0.322095
H93	H	1.335517	-0.836311	-0.287359
H94	H	1.301085	-0.835835	-0.403266
H95	H	1.376050	-0.955269	-0.300298
H96	H	1.341606	-0.954809	-0.416212
C97	C	1.632232	-0.740409	-0.356186
C98	C	1.557015	-0.785815	-0.309679
H99	H	1.679580	-0.723430	-0.304539
H100	H	1.669128	-0.767696	-0.407528
H101	H	1.598999	-0.699298	-0.388019
H102	H	1.590248	-0.826929	-0.277853
H103	H	1.520115	-0.758526	-0.258319
H104	H	1.348251	-0.920803	-0.566002
C105	C	1.705453	-1.003522	-0.453886
C106	C	1.701826	-0.926222	-0.452125
H107	H	1.755477	-1.020406	-0.404760
H108	H	1.638824	-1.022822	-0.436433
H109	H	1.724535	-1.019762	-0.521660
H110	H	1.682736	-0.909983	-0.384352
H111	H	1.768469	-0.906915	-0.469572
H112	H	1.400359	-0.791927	-0.369010
H113	H	1.647982	-0.920420	-0.610647
H114	H	1.642633	-0.792857	-0.615174
H115	H	1.683338	-0.791817	-0.479455
C116	C	1.588253	-0.212103	-0.821117
C117	C	1.647224	-0.259603	-0.883871
H118	H	1.633595	-0.180006	-0.784009
H119	H	1.542812	-0.183732	-0.863702
H120	H	1.548370	-0.240359	-0.773069
H121	H	1.687101	-0.231347	-0.931925
H122	H	1.692683	-0.287977	-0.841283
H123	H	1.455866	-0.395105	-1.071245
