data_functionalizedCrystal
_audit_creation_method	'MofGen! by Chris Wilmer'
_symmetry_space_group_name_H-M	'P1'
_symmetry_Int_Tables_number	1
_symmetry_cell_setting	triclinic
loop_
_symmetry_equiv_pos_as_xyz
  x,y,z
_cell_length_a	13.897449
_cell_length_b	19.121063
_cell_length_c	13.897441
_cell_angle_alpha	87.594330
_cell_angle_beta	90.020733
_cell_angle_gamma	92.470221
loop_
_atom_site_label
_atom_site_type_symbol
_atom_site_fract_x
_atom_site_fract_y
_atom_site_fract_z
Zn1	Zn	1.458257	-0.279567	0.561726
Zn2	Zn	1.451242	-0.397031	0.407294
Zn3	Zn	1.296944	-0.279601	0.400446
Zn4	Zn	1.290021	-0.396984	0.568544
O5	O	1.374116	-0.338296	0.484503
O6	O	1.592308	-0.295154	0.541253
O7	O	1.430735	-0.381487	0.271406
O8	O	1.324176	-0.181312	0.416120
O9	O	1.587154	-0.381454	0.427793
O10	O	1.442692	-0.181287	0.534612
O11	O	1.317374	-0.295211	0.266375
O12	O	1.161045	-0.295166	0.422732
O13	O	1.312377	-0.381375	0.702620
O14	O	1.155958	-0.381408	0.546233
O15	O	1.435979	-0.295109	0.697610
O16	O	1.424022	-0.495309	0.434404
O17	O	1.305574	-0.495275	0.552874
C18	C	1.123502	-0.338286	0.484480
C19	C	1.016288	-0.338299	0.484494
C20	C	0.819992	-0.338302	0.484520
C21	C	0.929225	-0.338298	0.484503
C22	C	1.363311	-0.520776	0.495143
C23	C	1.358777	-0.598842	0.499727
C24	C	1.418365	-0.635512	0.440252
C25	C	1.414106	-0.708863	0.444569
C26	C	1.350255	-0.745543	0.508358
C27	C	1.290665	-0.708868	0.567840
C28	C	1.294929	-0.635518	0.563527
C29	C	1.334297	-0.967012	0.524468
C30	C	1.330035	-1.040367	0.528775
C31	C	1.453478	-1.040357	0.405504
C32	C	1.457733	-0.967006	0.401192
C33	C	1.398147	-0.930337	0.460678
C34	C	1.345898	-0.820519	0.512770
C35	C	1.402509	-0.855362	0.456270
C36	C	1.625708	-0.338306	0.484526
C37	C	1.732922	-0.338310	0.484536
C38	C	1.374188	-0.338234	0.736092
C39	C	1.374219	-0.338207	0.843305
C40	C	1.384989	-0.155103	0.473842
C41	C	1.389623	-0.077037	0.469299
C42	C	1.374103	-0.338307	0.233889
C43	C	1.374271	-0.338135	0.126665
C44	C	1.374248	-0.338160	1.039597
C45	C	1.374229	-0.338188	0.930366
H46	H	1.462628	-0.738716	0.396136
C47	C	1.519025	-1.080693	0.340078
C48	C	1.589260	-1.040347	0.269912
C49	C	1.654813	-1.080683	0.204485
C50	C	1.650130	-1.161365	0.209223
C51	C	1.579893	-1.201715	0.279392
C52	C	1.514340	-1.161380	0.344819
H53	H	1.592729	-0.980617	0.266402
H54	H	1.706807	-1.050812	0.152542
H55	H	1.698656	-1.191224	0.160790
H56	H	1.576424	-1.261445	0.282902
H57	H	1.462346	-1.191250	0.396762
H58	H	1.293908	-0.850392	0.564705
H59	H	1.509726	-0.937142	0.349250
C60	C	1.488604	-0.595167	0.370082
C61	C	1.480206	-0.605321	0.261016
C62	C	1.550449	-0.564977	0.190848
C63	C	1.629090	-0.514480	0.229745
C64	C	1.637491	-0.504324	0.338816
C65	C	1.567248	-0.544667	0.408985
H66	H	1.421988	-0.642703	0.232218
H67	H	1.544230	-0.572496	0.110106
H68	H	1.681088	-0.484616	0.177802
H69	H	1.695708	-0.466941	0.367615
H70	H	1.573467	-0.537149	0.489727
H71	H	1.278051	-1.070230	0.580736
C72	C	1.220426	-0.749212	0.638011
C73	C	1.228831	-0.739061	0.747077
C74	C	1.158588	-0.779402	0.817247
C75	C	1.079940	-0.829894	0.778352
C76	C	1.071532	-0.840047	0.669280
C77	C	1.141775	-0.799706	0.599110
H78	H	1.287054	-0.701681	0.775874
H79	H	1.164812	-0.771885	0.897989
H80	H	1.027942	-0.859757	0.830296
H81	H	1.013309	-0.877427	0.640483
H82	H	1.135551	-0.807223	0.518368
C83	C	1.229379	-0.595177	0.628948
C84	C	1.119137	-0.605330	0.621574
C85	C	1.053589	-0.564990	0.687000
C86	C	1.098282	-0.514497	0.759799
C87	C	1.208530	-0.504342	0.767176
C88	C	1.274079	-0.544682	0.701750
H89	H	1.086047	-0.642710	0.567681
H90	H	0.971976	-0.572508	0.681538
H91	H	1.049759	-0.484635	0.808231
H92	H	1.241620	-0.466962	0.821069
H93	H	1.355692	-0.537164	0.707211
C94	C	1.472743	-0.815016	0.386104
C95	C	1.433904	-0.764656	0.307384
C96	C	1.504135	-0.724302	0.237215
C97	C	1.613207	-0.734309	0.245765
C98	C	1.652052	-0.784671	0.324488
C99	C	1.581820	-0.825025	0.394657
H100	H	1.353157	-0.757246	0.301052
H101	H	1.475379	-0.687021	0.178939
H102	H	1.665196	-0.704437	0.193821
H103	H	1.732798	-0.792081	0.330820
H104	H	1.610577	-0.862307	0.452933
H105	H	1.285778	-0.937162	0.572902
