data_functionalizedCrystal
_audit_creation_method	'MofGen! by Chris Wilmer'
_symmetry_space_group_name_H-M	'P1'
_symmetry_Int_Tables_number	1
_symmetry_cell_setting	triclinic
loop_
_symmetry_equiv_pos_as_xyz
  x,y,z
_cell_length_a	12.759401
_cell_length_b	12.759400
_cell_length_c	12.759393
_cell_angle_alpha	89.969121
_cell_angle_beta	89.980283
_cell_angle_gamma	90.013808
loop_
_atom_site_label
_atom_site_type_symbol
_atom_site_fract_x
_atom_site_fract_y
_atom_site_fract_z
Zn1	Zn	1.606256	-0.418228	-0.594021
Zn2	Zn	1.606150	-0.593947	-0.418343
Zn3	Zn	1.430558	-0.418280	-0.418356
Zn4	Zn	1.430547	-0.593863	-0.593981
O5	O	1.518378	-0.506079	-0.506175
O6	O	1.753263	-0.441551	-0.570728
O7	O	1.582818	-0.570701	-0.271323
O8	O	1.453913	-0.271252	-0.441681
O9	O	1.753185	-0.570651	-0.441658
O10	O	1.582998	-0.271214	-0.570741
O11	O	1.453811	-0.441639	-0.271333
O12	O	1.283535	-0.441558	-0.441642
O13	O	1.453894	-0.570507	-0.741007
O14	O	1.283527	-0.570558	-0.570672
O15	O	1.582987	-0.441469	-0.741036
O16	O	1.582807	-0.740957	-0.441619
O17	O	1.453792	-0.740895	-0.570659
C18	C	1.245410	-0.506055	-0.506155
C19	C	1.128634	-0.506070	-0.506171
C20	C	1.518315	-0.779047	-0.506156
C21	C	1.518385	-0.895823	-0.506184
C22	C	1.073745	-0.438812	-0.439108
C23	C	0.964021	-0.438836	-0.439122
C24	C	0.964084	-0.573380	-0.573271
C25	C	1.073806	-0.573360	-0.573251
C26	C	0.814008	-0.401179	-0.315308
C27	C	0.759116	-0.333905	-0.248254
C28	C	0.794724	-0.231365	-0.232294
C29	C	0.885223	-0.196079	-0.283403
C30	C	0.940110	-0.263348	-0.350464
C31	C	0.904503	-0.365902	-0.366405
C32	C	1.223821	-0.611007	-0.697066
C33	C	1.278709	-0.678271	-0.764134
C34	C	1.243103	-0.780813	-0.780105
C35	C	1.152601	-0.816095	-0.729015
C36	C	1.097712	-0.748831	-0.661947
C37	C	1.133326	-0.646290	-0.645974
C38	C	1.585570	-0.950575	-0.573442
C39	C	1.585629	-1.060299	-0.573471
C40	C	1.451315	-1.060509	-0.438973
C41	C	1.451251	-0.950787	-0.438950
C42	C	1.623188	-1.210127	-0.697440
C43	C	1.690390	-1.264883	-0.764689
C44	C	1.792875	-1.229176	-0.780902
C45	C	1.828180	-1.138715	-0.729849
C46	C	1.760984	-1.083964	-0.662592
C47	C	1.658484	-1.119670	-0.646400
C48	C	1.413703	-0.800958	-0.314980
C49	C	1.346512	-0.746206	-0.247717
C50	C	1.244025	-0.781911	-0.231493
C51	C	1.208724	-0.872375	-0.282527
C52	C	1.275915	-0.927127	-0.349790
C53	C	1.378401	-0.891415	-0.366015
C54	C	1.792411	-0.506104	-0.506196
C55	C	1.909188	-0.506115	-0.506205
C56	C	1.518451	-0.505973	-0.780208
C57	C	1.518483	-0.505928	-0.896985
C58	C	1.518469	-0.232046	-0.506217
C59	C	1.518507	-0.115269	-0.506235
C60	C	1.585710	-0.438731	-0.951864
C61	C	1.585735	-0.438693	-1.061588
C62	C	1.451302	-0.573058	-1.061545
C63	C	1.451272	-0.573090	-0.951823
C64	C	1.663328	-0.361160	-0.951890
C65	C	1.663353	-0.361122	-1.061615
C66	C	1.518365	-0.506109	-0.233208
C67	C	1.518537	-0.505858	-0.116432
H68	H	1.118383	-0.384018	-0.384489
H69	H	1.396525	-0.627804	-0.907144
F70	F	1.798551	-0.987696	-0.608259
H71	H	1.396659	-1.105275	-0.384232
F72	F	1.379775	-0.644531	-1.119916
H73	H	1.123604	-0.899590	-0.742026
H74	H	1.641559	-0.279796	-0.922133
F75	F	1.514105	-1.248125	-0.680206
H76	H	1.634239	-0.283813	-1.095661
H77	H	1.287795	-0.835573	-0.834731
F78	F	1.522785	-0.762952	-0.332241
F79	F	1.764328	-0.399283	-0.907400
H80	H	1.352386	-0.649526	-0.805756
H81	H	1.744724	-0.382916	-1.091395
H82	H	1.252826	-0.527511	-0.684060
F83	F	1.864394	-1.287456	-0.852473
H84	H	1.013786	-0.234615	-0.392085
H85	H	1.189319	-0.737322	-0.176719
H86	H	0.750023	-0.176589	-0.177696
F87	F	0.923104	-0.086934	-0.266427
H88	H	1.640233	-0.905826	-0.628189
H89	H	0.685431	-0.362644	-0.206641
H90	H	0.785014	-0.484679	-0.328286
F91	F	1.099648	-0.910383	-0.265255
F92	F	0.905723	-0.644997	-0.644652
F93	F	1.652814	-1.361157	-0.819018
H94	H	1.911638	-1.109656	-0.743046
H95	H	1.247165	-1.000789	-0.391345
H96	H	1.024017	-0.777565	-0.620350
H97	H	1.375265	-0.672548	-0.206158
