data_functionalizedCrystal
_audit_creation_method	'MofGen! by Chris Wilmer'
_symmetry_space_group_name_H-M	'P1'
_symmetry_Int_Tables_number	1
_symmetry_cell_setting	triclinic
loop_
_symmetry_equiv_pos_as_xyz
  x,y,z
_cell_length_a	10.685901
_cell_length_b	10.686685
_cell_length_c	10.686551
_cell_angle_alpha	90.361117
_cell_angle_beta	90.348291
_cell_angle_gamma	80.963890
loop_
_atom_site_label
_atom_site_type_symbol
_atom_site_fract_x
_atom_site_fract_y
_atom_site_fract_z
Zn1	Zn	2.022398	-0.610640	0.604928
Zn2	Zn	2.024746	-0.836712	0.411112
Zn3	Zn	1.796329	-0.608268	0.411136
Zn4	Zn	1.828531	-0.804437	0.634665
O5	O	1.918001	-0.715014	0.515460
O6	O	2.199437	-0.655129	0.566762
O7	O	1.981952	-0.818923	0.236456
O8	O	1.811858	-0.431873	0.424408
O9	O	2.201162	-0.821223	0.424367
O10	O	1.977950	-0.433615	0.566786
O11	O	1.814135	-0.651085	0.236473
O12	O	1.623873	-0.619790	0.453243
O13	O	1.866741	-0.766215	0.805380
O14	O	1.647532	-0.763915	0.617468
O15	O	2.009175	-0.623833	0.783532
O16	O	2.013177	-1.009140	0.453202
O17	O	1.869018	-0.985428	0.617445
C18	C	1.589879	-0.688094	0.538586
C19	C	1.449512	-0.676605	0.548511
C20	C	1.944883	-1.043104	0.538572
C21	C	1.956502	-1.183469	0.548493
C22	C	2.247404	-0.742041	0.492245
C23	C	2.387776	-0.753558	0.482352
C24	C	1.941288	-0.691689	0.841009
C25	C	1.951212	-0.681749	0.979739
C26	C	1.891050	-0.385644	0.492283
C27	C	1.879565	-0.245286	0.482406
C28	C	1.894869	-0.738164	0.191166
C29	C	1.885161	-0.747768	0.052395
H30	H	1.442307	-0.828232	0.418127
Br31	Br	1.778261	-0.854663	0.979183
H32	H	2.031261	-1.237928	0.612653
Br33	Br	1.754967	-1.154519	0.375440
H34	H	1.394976	-0.601936	0.612752
H35	H	2.015362	-0.617624	1.023673
