data_functionalizedCrystal
_audit_creation_method	'MofGen! by Chris Wilmer'
_symmetry_space_group_name_H-M	'P1'
_symmetry_Int_Tables_number	1
_symmetry_cell_setting	triclinic
loop_
_symmetry_equiv_pos_as_xyz
  x,y,z
_cell_length_a	11.792254
_cell_length_b	13.596369
_cell_length_c	11.792241
_cell_angle_alpha	89.999002
_cell_angle_beta	95.803993
_cell_angle_gamma	90.005263
loop_
_atom_site_label
_atom_site_type_symbol
_atom_site_fract_x
_atom_site_fract_y
_atom_site_fract_z
O1	O	1.506901	0.081779	-0.155638
O2	O	2.006901	0.581779	0.344362
O3	O	1.176562	0.081780	-0.171656
O4	O	1.676562	0.581780	0.328344
O5	O	1.349748	0.081785	0.001523
O6	O	1.849748	0.581785	0.501523
O7	O	1.333715	0.081774	-0.328817
O8	O	1.833715	0.581774	0.171183
O9	O	1.349731	-0.081798	0.001532
O10	O	1.849731	0.418202	0.501532
O11	O	1.176545	-0.081803	-0.171647
O12	O	1.676545	0.418197	0.328353
O13	O	1.506884	-0.081804	-0.155629
O14	O	2.006884	0.418196	0.344371
Zn15	Zn	1.341712	-0.107776	-0.163636
Zn16	Zn	1.841712	0.392224	0.336364
Zn17	Zn	1.341735	0.107752	-0.163649
Zn18	Zn	1.841735	0.607752	0.336351
O19	O	1.333698	-0.081809	-0.328808
O20	O	1.833698	0.418191	0.171192
C21	C	1.134263	-0.000011	-0.170642
C22	C	1.634263	0.499989	0.329358
C23	C	1.008250	-0.000010	-0.167622
C24	C	1.508250	0.499990	0.332378
C25	C	0.905913	-0.000006	-0.165168
C26	C	1.405913	0.499994	0.334832
C27	C	0.777527	-0.000005	-0.162100
C28	C	1.277527	0.499995	0.337900
N29	N	1.341704	-0.254868	-0.163627
N30	N	1.841704	0.245132	0.336373
C31	C	1.341733	-0.656159	-0.163650
C32	C	1.841733	-0.156159	0.336350
C33	C	1.341722	-0.544507	-0.163647
C34	C	1.841722	-0.044507	0.336353
C35	C	1.341719	-0.455517	-0.163639
C36	C	1.841719	0.044483	0.336361
C37	C	1.341707	-0.343858	-0.163635
C38	C	1.841707	0.156142	0.336365
C39	C	1.549183	-0.000011	-0.156643
C40	C	2.049183	0.499989	0.343357
C41	C	1.675196	-0.000005	-0.159663
C42	C	2.175196	0.499995	0.340337
C43	C	1.334714	-0.000019	-0.371104
C44	C	1.834714	0.499981	0.128896
C45	C	1.337728	-0.000024	-0.497118
C46	C	1.837728	0.499976	0.002882
N47	N	1.341751	0.254844	-0.163649
N48	N	1.841751	0.754844	0.336351
C49	C	1.343271	0.000001	-0.727830
C50	C	1.843271	0.500001	-0.227830
C51	C	1.340191	-0.000013	-0.599445
C52	C	1.840191	0.499987	-0.099445
C53	C	1.348732	-0.000003	0.043819
C54	C	1.848732	0.499997	0.543819
C55	C	1.345718	0.000008	0.169832
C56	C	1.845718	0.500008	0.669832
