data_functionalizedCrystal
_audit_creation_method	'MofGen! by Chris Wilmer'
_symmetry_space_group_name_H-M	'P1'
_symmetry_Int_Tables_number	1
_symmetry_cell_setting	triclinic
loop_
_symmetry_equiv_pos_as_xyz
  x,y,z
_cell_length_a	17.019383
_cell_length_b	17.038274
_cell_length_c	13.448316
_cell_angle_alpha	90.014482
_cell_angle_beta	86.117264
_cell_angle_gamma	92.753530
loop_
_atom_site_label
_atom_site_type_symbol
_atom_site_fract_x
_atom_site_fract_y
_atom_site_fract_z
O1	O	1.053360	-0.099663	-0.172821
O2	O	1.553360	0.400337	0.327179
O3	O	0.824548	-0.112351	-0.153252
O4	O	1.324548	0.387649	0.346748
O5	O	0.937594	0.007808	-0.162893
O6	O	1.437594	0.507808	0.337107
O7	O	0.940314	-0.219821	-0.163180
O8	O	1.440314	0.280179	0.336820
O9	O	0.937578	0.007815	0.002493
O10	O	1.437578	0.507815	0.502493
O11	O	0.824533	-0.112343	0.012134
O12	O	1.324533	0.387657	0.512134
O13	O	1.053344	-0.099655	-0.007436
O14	O	1.553344	0.400345	0.492564
Cu15	Cu	0.938937	-0.105999	0.017450
Cu16	Cu	1.438937	0.394001	0.517450
Cu17	Cu	0.938955	-0.106007	-0.178137
Cu18	Cu	1.438955	0.393993	0.321863
O19	O	0.940298	-0.219814	0.002205
O20	O	1.440298	0.280186	0.502205
C21	C	0.795119	-0.111864	-0.068042
C22	C	1.295119	0.388136	0.431958
C23	C	0.707453	-0.110414	-0.060543
C24	C	1.207453	0.389586	0.439457
C25	C	0.666268	-0.109739	-0.147164
C26	C	1.166268	0.390261	0.352836
C27	C	0.583895	-0.108390	-0.140103
C28	C	1.083895	0.391610	0.359897
C29	C	0.542709	-0.107710	-0.046420
C30	C	1.042709	0.392290	0.453580
C31	C	0.583899	-0.108388	0.040207
C32	C	1.083899	0.391612	0.540207
C33	C	0.666270	-0.109742	0.033145
C34	C	1.166270	0.390258	0.533145
C35	C	0.294001	-0.103624	-0.020588
C36	C	0.794001	0.396376	0.479412
C37	C	0.211624	-0.102267	-0.013532
C38	C	0.711624	0.397733	0.486468
C39	C	0.211626	-0.102271	-0.193843
C40	C	0.711626	0.397729	0.306157
C41	C	0.293999	-0.103621	-0.200897
C42	C	0.793999	0.396379	0.299103
C43	C	0.335182	-0.104302	-0.114270
C44	C	0.835182	0.395698	0.385730
C45	C	0.458510	-0.106328	-0.039201
C46	C	0.958510	0.393672	0.460799
C47	C	0.419378	-0.105690	-0.121490
C48	C	0.919378	0.394310	0.378510
C49	C	0.935112	0.036938	-0.079983
C50	C	1.435112	0.536938	0.420017
C51	C	0.927732	0.123724	-0.079338
C52	C	1.427732	0.623724	0.420662
C53	C	0.995491	0.173893	-0.085124
C54	C	1.495491	0.673893	0.414876
C55	C	0.988552	0.255438	-0.084526
C56	C	1.488552	0.755438	0.415474
C57	C	0.913852	0.286813	-0.078134
C58	C	1.413852	0.786813	0.421866
C59	C	0.846088	0.236638	-0.072350
C60	C	1.346088	0.736638	0.427650
C61	C	0.853028	0.155095	-0.072956
C62	C	1.353028	0.655095	0.427044
C63	C	0.889334	0.532551	-0.076008
C64	C	1.389334	1.032551	0.423992
C65	C	0.882399	0.614101	-0.075400
C66	C	1.382399	1.114101	0.424600
C67	C	1.024864	0.632895	-0.087577
C68	C	1.524864	1.132895	0.412423
C69	C	1.031798	0.551349	-0.088176
C70	C	1.531798	1.051349	0.411824
C71	C	0.964033	0.501182	-0.082398
C72	C	1.464033	1.001182	0.417602
C73	C	0.906757	0.370165	-0.077519
C74	C	1.406757	0.870165	0.422481
C75	C	0.971129	0.417832	-0.083020
C76	C	1.471129	0.917832	0.416980
C77	C	1.082773	-0.100142	-0.092648
C78	C	1.582773	0.399858	0.407352
C79	C	1.170440	-0.101592	-0.100153
C80	C	1.670440	0.398408	0.399847
C81	C	0.942780	0.751056	-0.080663
C82	C	1.442780	1.251056	0.419337
C83	C	0.950158	0.664269	-0.081186
C84	C	1.450158	1.164269	0.418814
N85	N	0.938930	-0.105992	0.155015
N86	N	1.438930	0.394008	0.655015
N87	N	0.938969	-0.106008	-0.315703
N88	N	1.438969	0.393992	0.184297
C89	C	0.989004	-0.052808	0.202784
C90	C	1.489004	0.447192	0.702784
C91	C	0.989009	-0.052807	0.306887
C92	C	1.489009	0.447193	0.806887
C93	C	0.938943	-0.105995	0.363218
C94	C	1.438943	0.394005	0.863218
C95	C	0.888863	-0.159182	0.315442
C96	C	1.388863	0.340818	0.815442
C97	C	0.888854	-0.159178	0.211341
C98	C	1.388854	0.340822	0.711341
C99	C	0.888885	-0.159187	0.532420
C100	C	1.388885	0.340813	1.032420
C101	C	0.888894	-0.159192	0.636527
C102	C	1.388894	0.340808	1.136527
C103	C	0.989040	-0.052816	0.627966
C104	C	1.489040	0.447184	1.127966
C105	C	0.989031	-0.052812	0.523865
C106	C	1.489031	0.447188	1.023865
C107	C	0.938952	-0.106000	0.476096
C108	C	1.438952	0.394000	0.976096
H109	H	0.178091	-0.101735	0.062759
H110	H	0.678091	0.398265	0.562759
N111	N	1.051694	0.383993	-0.089902
N112	N	1.551694	0.883993	0.410098
H113	H	1.093572	0.428146	-0.093472
H114	H	1.593572	0.928146	0.406528
H115	H	1.057685	0.350563	-0.151728
H116	H	1.557685	0.850563	0.348272
H117	H	0.848077	-0.202485	0.172448
H118	H	1.348077	0.297515	0.672448
H119	H	0.834155	0.491714	-0.071302
H120	H	1.334155	0.991714	0.428698
N121	N	0.765516	0.270471	-0.065449
N122	N	1.265516	0.770471	0.434551
H123	H	0.735588	0.252166	-0.124200
H124	H	1.235588	0.752166	0.375800
H125	H	0.771464	0.329735	-0.065906
H126	H	1.271464	0.829735	0.434094
N127	N	0.801827	0.647944	-0.068516
N128	N	1.301827	1.147944	0.431484
H129	H	0.795764	0.681360	-0.006682
H130	H	1.295764	1.181360	0.493318
H131	H	0.760000	0.603747	-0.064991
H132	H	1.260000	1.103747	0.435009
N133	N	0.167205	-0.101550	-0.287270
N134	N	0.667205	0.398450	0.212730
H135	H	0.205796	-0.102188	-0.347688
H136	H	0.705796	0.397812	0.152312
H137	H	0.136167	-0.052548	-0.288529
H138	H	0.636167	0.447452	0.211471
H139	H	1.029783	-0.009500	0.345781
H140	H	1.529783	0.490500	0.845781
N141	N	1.043070	0.004542	0.679474
N142	N	1.543070	0.504542	1.179474
H143	H	1.030284	0.060032	0.662474
H144	H	1.530284	0.560032	1.162474
H145	H	1.099624	-0.004527	0.656460
H146	H	1.599624	0.495473	1.156460
H147	H	0.797850	0.114247	-0.068244
H148	H	1.297850	0.614247	0.431756
H149	H	0.452915	-0.106248	-0.197766
H150	H	0.952915	0.393752	0.302234
H151	H	0.699796	-0.110290	-0.223451
H152	H	1.199796	0.389710	0.276549
H153	H	1.080034	0.673750	-0.092284
H154	H	1.580034	1.173750	0.407716
H155	H	0.424967	-0.105772	0.037076
H156	H	0.924967	0.394228	0.537076
N157	N	1.043001	0.004574	0.142048
N158	N	1.543001	0.504574	0.642048
H159	H	1.010530	0.039176	0.101662
H160	H	1.510530	0.539176	0.601662
H161	H	1.079923	-0.025326	0.095729
H162	H	1.579923	0.474674	0.595729
N163	N	1.076061	0.140056	-0.092008
N164	N	1.576061	0.640056	0.407992
H165	H	1.117933	0.184214	-0.095585
H166	H	1.617933	0.684214	0.404415
H167	H	1.082051	0.106625	-0.153834
H168	H	1.582051	0.606625	0.346166
H169	H	1.092626	0.525811	-0.093381
H170	H	1.592626	1.025811	0.406619
N171	N	0.834868	-0.216549	0.480894
N172	N	1.334868	0.283451	0.980894
H173	H	0.803154	-0.250246	0.532373
H174	H	1.303154	0.249754	1.032373
H175	H	0.867380	-0.251095	0.434897
H176	H	1.367380	0.248905	0.934897
N177	N	0.834867	-0.216554	0.376196
N178	N	1.334867	0.283446	0.876196
H179	H	0.803143	-0.250245	0.330134
H180	H	1.303143	0.249755	0.830134
H181	H	0.797994	-0.186643	0.422568
H182	H	1.297994	0.313357	0.922568
N183	N	1.043027	0.004553	0.463103
N184	N	1.543027	0.504553	0.963103
H185	H	1.079948	-0.025307	0.416731
H186	H	1.579948	0.474693	0.916731
H187	H	1.074700	0.038236	0.509224
H188	H	1.574700	0.538236	1.009224
N189	N	0.338416	-0.104369	-0.301942
N190	N	0.838416	0.395631	0.198058
H191	H	0.396847	-0.105330	-0.293271
H192	H	0.896847	0.394670	0.206729
H193	H	0.327159	-0.055695	-0.340339
H194	H	0.827159	0.444305	0.159661
H195	H	0.845936	0.395719	-0.072313
H196	H	1.345936	0.895719	0.427687
N197	N	0.834901	-0.216555	0.697300
N198	N	1.334901	0.283445	1.197300
H199	H	0.847700	-0.272039	0.678065
H200	H	1.347700	0.227961	1.178065
H201	H	0.778333	-0.207509	0.684035
H202	H	1.278333	0.292491	1.184035
N203	N	0.539474	-0.107656	-0.233529
N204	N	1.039474	0.392344	0.266471
H205	H	0.578065	-0.108284	-0.293948
H206	H	1.078065	0.391716	0.206052
H207	H	0.508438	-0.058651	-0.234773
H208	H	1.008438	0.441349	0.265227
H209	H	0.327522	-0.104174	0.049951
H210	H	0.827522	0.395826	0.549951
H211	H	0.550358	-0.107839	0.116486
H212	H	1.050358	0.392161	0.616486
H213	H	0.699801	-0.110295	0.103682
H214	H	1.199801	0.389705	0.603682
N215	N	1.061635	0.309549	-0.090761
N216	N	1.561635	0.809549	0.409239
H217	H	1.110010	0.277300	-0.094893
H218	H	1.610010	0.777300	0.405107
H219	H	1.061845	0.343797	-0.029463
H220	H	1.561845	0.843797	0.470537
