data_functionalizedCrystal
_audit_creation_method	'MofGen! by Chris Wilmer'
_symmetry_space_group_name_H-M	'P1'
_symmetry_Int_Tables_number	1
_symmetry_cell_setting	triclinic
loop_
_symmetry_equiv_pos_as_xyz
  x,y,z
_cell_length_a	16.959455
_cell_length_b	19.121063
_cell_length_c	16.959447
_cell_angle_alpha	87.593376
_cell_angle_beta	90.014322
_cell_angle_gamma	92.465894
loop_
_atom_site_label
_atom_site_type_symbol
_atom_site_fract_x
_atom_site_fract_y
_atom_site_fract_z
Zn1	Zn	1.194915	-0.279656	0.460312
Zn2	Zn	1.694915	0.220344	0.960312
Zn3	Zn	1.189180	-0.397117	0.333763
Zn4	Zn	1.689180	0.102883	0.833763
Zn5	Zn	1.062742	-0.279678	0.328150
Zn6	Zn	1.562742	0.220322	0.828150
Zn7	Zn	1.057053	-0.397064	0.465899
Zn8	Zn	1.557053	0.102936	0.965899
O9	O	1.125973	-0.338379	0.397031
O10	O	1.625973	0.161621	0.897031
O11	O	1.304764	-0.295250	0.443535
O12	O	1.804764	0.204750	0.943535
O13	O	1.172389	-0.381570	0.222409
O14	O	1.672389	0.118430	0.722409
O15	O	1.085056	-0.181391	0.340995
O16	O	1.585056	0.318609	0.840995
O17	O	1.300551	-0.381548	0.350560
O18	O	1.800551	0.118452	0.850560
O19	O	1.182163	-0.181375	0.438093
O20	O	1.682163	0.318625	0.938093
O21	O	1.079495	-0.295288	0.218285
O22	O	1.579495	0.204712	0.718285
O23	O	0.951377	-0.295237	0.346412
O24	O	1.451377	0.204763	0.846412
O25	O	1.075360	-0.381459	0.575767
O26	O	1.575360	0.118541	1.075767
O27	O	0.947198	-0.381480	0.447615
O28	O	1.447198	0.118520	0.947615
O29	O	1.176646	-0.295199	0.571662
O30	O	1.676646	0.204801	1.071662
O31	O	1.166873	-0.495394	0.355978
O32	O	1.666873	0.004606	0.855978
O33	O	1.069800	-0.495356	0.453058
O34	O	1.569800	0.004644	0.953058
C35	C	0.920608	-0.338356	0.397012
C36	C	1.420608	0.161644	0.897012
C37	C	0.832751	-0.338363	0.397023
C38	C	1.332751	0.161637	0.897023
C39	C	0.463428	-0.293435	0.344438
C40	C	0.963428	0.206565	0.844438
C41	C	0.459118	-0.383380	0.449672
C42	C	0.959118	0.116620	0.949672
C43	C	0.541664	-0.383370	0.449666
C44	C	1.041664	0.116630	0.949666
C45	C	0.585096	-0.338393	0.397045
C46	C	1.085096	0.161607	0.897045
C47	C	0.545982	-0.293425	0.344430
C48	C	1.045982	0.206575	0.844430
C49	C	0.580784	-0.428342	0.502276
C50	C	1.080784	0.071658	1.002276
C51	C	0.663336	-0.428334	0.502272
C52	C	1.163336	0.071666	1.002272
C53	C	0.706770	-0.383353	0.449654
C54	C	1.206770	0.116647	0.949654
C55	C	0.667650	-0.338383	0.397037
C56	C	1.167650	0.161617	0.897037
C57	C	0.711082	-0.293405	0.344416
C58	C	1.211082	0.206595	0.844416
C59	C	0.671965	-0.248431	0.291802
C60	C	1.171965	0.251569	0.791802
C61	C	0.589416	-0.248444	0.291812
C62	C	1.089416	0.251556	0.791812
C63	C	0.789319	-0.383340	0.449644
C64	C	1.289319	0.116660	0.949644
C65	C	0.793636	-0.293395	0.344407
C66	C	1.293636	0.206605	0.844407
C67	C	1.117118	-0.520859	0.405750
C68	C	1.617118	-0.020859	0.905750
C69	C	1.113402	-0.598924	0.409507
C70	C	1.613402	-0.098924	0.909507
C71	C	1.162236	-0.635597	0.360769
C72	C	1.662236	-0.135597	0.860769
C73	C	1.158746	-0.708948	0.364307
C74	C	1.658746	-0.208948	0.864307
C75	C	1.106417	-0.745625	0.416579
C76	C	1.606417	-0.245625	0.916579
C77	C	1.057581	-0.708948	0.465322
C78	C	1.557581	-0.208948	0.965322
C79	C	1.061076	-0.635598	0.461787
C80	C	1.561076	-0.135598	0.961787
C81	C	1.093339	-0.967094	0.429780
C82	C	1.593339	-0.467094	0.929780
C83	C	1.089847	-1.040449	0.433309
C84	C	1.589847	-0.540449	0.933309
C85	C	1.191013	-1.040443	0.332295
C86	C	1.691013	-0.540443	0.832295
C87	C	1.194500	-0.967092	0.328762
C88	C	1.694500	-0.467092	0.828762
C89	C	1.145667	-0.930421	0.377508
C90	C	1.645667	-0.430421	0.877508
C91	C	1.102847	-0.820602	0.420195
C92	C	1.602847	-0.320602	0.920195
C93	C	1.149242	-0.855446	0.373896
C94	C	1.649242	-0.355446	0.873896
C95	C	1.332140	-0.338403	0.397051
C96	C	1.832140	0.161597	0.897051
C97	C	1.419996	-0.338413	0.397059
C98	C	1.919996	0.161587	0.897059
C99	C	1.126008	-0.338321	0.603196
C100	C	1.626008	0.161679	1.103196
C101	C	1.126024	-0.338296	0.691052
C102	C	1.626024	0.161704	1.191052
C103	C	1.134884	-0.155186	0.388295
C104	C	1.634884	0.344814	0.888295
C105	C	1.138681	-0.077121	0.384572
C106	C	1.638681	0.422879	0.884572
C107	C	1.125985	-0.338386	0.191665
C108	C	1.625985	0.161614	0.691665
C109	C	1.126133	-0.338213	0.103800
C110	C	1.626133	0.161787	0.603800
C111	C	1.073386	-0.383133	1.064664
C112	C	1.573386	0.116867	1.564664
C113	C	1.178857	-0.293311	1.060384
C114	C	1.678857	0.206689	1.560384
C115	C	1.178835	-0.293326	0.977839
C116	C	1.678835	0.206674	1.477839
C117	C	1.126089	-0.338246	0.938703
C118	C	1.626089	0.161754	1.438703
C119	C	1.073365	-0.383151	0.982111
C120	C	1.573365	0.116849	1.482111
C121	C	1.231564	-0.248426	0.934425
C122	C	1.731564	0.251574	1.434425
C123	C	1.231545	-0.248440	0.851875
C124	C	1.731545	0.251560	1.351875
C125	C	1.178794	-0.293357	0.812736
C126	C	1.678794	0.206643	1.312736
C127	C	1.126067	-0.338263	0.856150
C128	C	1.626067	0.161737	1.356150
C129	C	1.073321	-0.383183	0.817013
C130	C	1.573321	0.116817	1.317013
C131	C	1.020590	-0.428087	0.860425
C132	C	1.520590	0.071913	1.360425
C133	C	1.020614	-0.428068	0.942973
C134	C	1.520614	0.071932	1.442973
C135	C	1.178770	-0.293376	0.730189
C136	C	1.678770	0.206624	1.230189
C137	C	1.073299	-0.383201	0.734460
C138	C	1.573299	0.116799	1.234460
H139	H	0.431575	-0.256817	0.301603
H140	H	0.931575	0.243183	0.801603
H141	H	0.695178	-0.464954	0.545114
H142	H	1.195178	0.035046	1.045114
H143	H	0.821164	-0.419959	0.492479
H144	H	1.321164	0.080041	0.992479
H145	H	0.423750	-0.420003	0.492509
H146	H	0.923750	0.079997	0.992509
H147	H	1.060239	-0.850473	0.462753
H148	H	1.560239	-0.350473	0.962753
H149	H	1.030340	-0.419775	0.702601
H150	H	1.530340	0.080225	1.202601
H151	H	1.221804	-0.256743	1.092255
H152	H	1.721804	0.243257	1.592255
H153	H	1.021311	-0.605740	0.501476
H154	H	1.521311	-0.105740	1.001476
O155	O	0.538478	-0.471965	0.553358
O156	O	1.038478	0.028035	1.053358
C157	C	0.409389	-0.511867	0.599973
C158	C	0.909389	-0.011867	1.099973
C159	C	0.457210	-0.462415	0.542091
C160	C	0.957210	0.037585	1.042091
H161	H	0.343674	-0.504174	0.590873
H162	H	0.843674	-0.004174	1.090873
H163	H	0.426175	-0.499605	0.663163
H164	H	0.926175	0.000395	1.163163
H165	H	0.422920	-0.568476	0.588697
H166	H	0.922920	-0.068476	1.088697
H167	H	0.443703	-0.405790	0.553295
H168	H	0.943703	0.094210	1.053295
H169	H	0.440416	-0.474738	0.478921
H170	H	0.940416	0.025262	0.978921
O171	O	1.022057	-0.426677	1.106789
O172	O	1.522057	0.073323	1.606789
C173	C	0.885951	-0.460779	1.133623
C174	C	1.385951	0.039221	1.633623
C175	C	0.943993	-0.411411	1.085879
C176	C	1.443993	0.088589	1.585879
H177	H	0.822825	-0.448463	1.116722
H178	H	1.322825	0.051537	1.616722
H179	H	0.894952	-0.453049	1.199355
H180	H	1.394952	0.046951	1.699355
H181	H	0.897116	-0.517412	1.120098
H182	H	1.397116	-0.017412	1.620098
H183	H	0.932865	-0.354758	1.099337
H184	H	1.432865	0.145242	1.599337
H185	H	0.934979	-0.419200	1.020160
H186	H	1.434979	0.080800	1.520160
O187	O	1.282681	-0.204713	0.809746
O188	O	1.782681	0.295287	1.309746
C189	C	1.326872	-0.085245	0.778869
C190	C	1.826872	0.414755	1.278869
C191	C	1.268906	-0.134692	0.826607
C192	C	1.768906	0.365308	1.326607
H193	H	1.315766	-0.028624	0.792496
H194	H	1.815766	0.471376	1.292496
H195	H	1.317802	-0.092900	0.713131
H196	H	1.817802	0.407100	1.213131
H197	H	1.390006	-0.097616	0.795678
H198	H	1.890006	0.402384	1.295678
H199	H	1.205749	-0.122352	0.809865
H200	H	1.705749	0.377648	1.309865
H201	H	1.278045	-0.127027	0.892333
H202	H	1.778045	0.372973	1.392333
H203	H	0.977686	-0.464628	0.978326
H204	H	1.477686	0.035372	1.478326
H205	H	0.977647	-0.464664	0.828549
H206	H	1.477647	0.035336	1.328549
O207	O	1.282729	-0.204823	0.972564
O208	O	1.782729	0.295177	1.472564
C209	C	1.329544	-0.165032	1.097845
C210	C	1.829544	0.334968	1.597845
C211	C	1.271540	-0.214435	1.054748
C212	C	1.771540	0.285565	1.554748
H213	H	1.320529	-0.172797	1.164298
H214	H	1.820529	0.327203	1.664298
H215	H	1.318426	-0.108382	1.078981
H216	H	1.818426	0.391618	1.578981
H217	H	1.392664	-0.177378	1.082155
H218	H	1.892664	0.322622	1.582155
H219	H	1.208398	-0.202152	1.070416
H220	H	1.708398	0.297848	1.570416
H221	H	1.282726	-0.271071	1.073615
H222	H	1.782726	0.228929	1.573615
H223	H	1.204845	-0.605739	0.318201
H224	H	1.704845	-0.105739	0.818201
H225	H	1.198512	-0.738803	0.324619
H226	H	1.698512	-0.238803	0.824619
H227	H	1.221705	-0.256818	0.694846
H228	H	1.721705	0.243182	1.194846
O229	O	1.199959	-0.819790	0.323034
O230	O	1.699959	-0.319790	0.823034
C231	C	1.214589	-0.736998	0.212377
C232	C	1.714589	-0.236998	0.712377
C233	C	1.157067	-0.777356	0.269917
C234	C	1.657067	-0.277356	0.769917
H235	H	1.179935	-0.702669	0.169428
H236	H	1.679935	-0.202669	0.669428
H237	H	1.248882	-0.775772	0.178083
H238	H	1.748882	-0.275772	0.678083
H239	H	1.257549	-0.702636	0.247065
H240	H	1.757549	-0.202636	0.747065
H241	H	1.114060	-0.811719	0.235290
H242	H	1.614060	-0.311719	0.735290
H243	H	1.122831	-0.738544	0.304212
H244	H	1.622831	-0.238544	0.804212
H245	H	0.828993	-0.256764	0.301561
H246	H	1.328993	0.243236	0.801561
H247	H	0.707338	-0.211814	0.248954
H248	H	1.207338	0.288186	0.748954
H249	H	0.557559	-0.211829	0.248975
H250	H	1.057559	0.288171	0.748975
O251	O	1.245409	-0.931575	0.277972
O252	O	1.745409	-0.431575	0.777972
C253	C	1.345361	-0.939313	0.178131
C254	C	1.845361	-0.439313	0.678131
C255	C	1.287756	-0.979624	0.235628
C256	C	1.787756	-0.479624	0.735628
H257	H	1.379603	-0.978143	0.143868
H258	H	1.879603	-0.478143	0.643868
H259	H	1.388356	-0.904942	0.212770
H260	H	1.888356	-0.404942	0.712770
H261	H	1.310724	-0.905003	0.135147
H262	H	1.810724	-0.405003	0.635147
H263	H	1.322327	-1.013972	0.278624
H264	H	1.822327	-0.513972	0.778624
H265	H	1.244762	-1.013950	0.200938
H266	H	1.744762	-0.513950	0.700938
H267	H	1.230772	-1.070309	0.292611
H268	H	1.730772	-0.570309	0.792611
H269	H	1.047244	-1.070309	0.475889
H270	H	1.547244	-0.570309	0.975889
H271	H	1.053576	-0.937242	0.469470
H272	H	1.553576	-0.437242	0.969470
O273	O	1.006769	-0.744683	0.516030
O274	O	1.506769	-0.244683	1.016030
C275	C	0.956577	-0.857681	0.566273
C276	C	1.456577	-0.357681	1.066273
C277	C	1.014149	-0.817302	0.508799
C278	C	1.514149	-0.317302	1.008799
H279	H	0.962537	-0.916401	0.560458
H280	H	1.462537	-0.416401	1.060458
H281	H	0.893516	-0.843362	0.551643
H282	H	1.393516	-0.343362	1.051643
H283	H	0.971099	-0.843167	0.629314
H284	H	1.471099	-0.343167	1.129314
H285	H	0.999699	-0.831795	0.445738
H286	H	1.499699	-0.331795	0.945738
H287	H	1.077194	-0.831624	0.523496
H288	H	1.577194	-0.331624	1.023496
