data_functionalizedCrystal
_audit_creation_method	'MofGen! by Chris Wilmer'
_symmetry_space_group_name_H-M	'P1'
_symmetry_Int_Tables_number	1
_symmetry_cell_setting	triclinic
loop_
_symmetry_equiv_pos_as_xyz
  x,y,z
_cell_length_a	21.395364
_cell_length_b	19.076808
_cell_length_c	19.076929
_cell_angle_alpha	90.124583
_cell_angle_beta	87.716639
_cell_angle_gamma	92.319192
loop_
_atom_site_label
_atom_site_type_symbol
_atom_site_fract_x
_atom_site_fract_y
_atom_site_fract_z
Zn1	Zn	0.933436	-0.295801	0.386053
Zn2	Zn	0.933704	-0.408601	0.263822
Zn3	Zn	0.833039	-0.291097	0.268561
Zn4	Zn	0.824599	-0.413268	0.381290
O5	O	0.881194	-0.352192	0.324931
O6	O	1.021148	-0.310779	0.369849
O7	O	0.923994	-0.389093	0.166120
O8	O	0.849777	-0.193385	0.288123
O9	O	1.021345	-0.393653	0.280046
O10	O	0.923538	-0.196840	0.374444
O11	O	0.850037	-0.302763	0.169601
O12	O	0.744242	-0.307288	0.283505
O13	O	0.835392	-0.401608	0.480253
O14	O	0.738042	-0.397047	0.366326
O15	O	0.915354	-0.315304	0.483752
O16	O	0.915811	-0.507557	0.275428
O17	O	0.835652	-0.510986	0.361731
C18	C	0.718408	-0.352164	0.324913
C19	C	0.648767	-0.352170	0.324921
C20	C	0.874861	-0.534770	0.317563
C21	C	0.872208	-0.612878	0.314435
C22	C	0.146859	-0.309149	0.371770
C23	C	0.212295	-0.309144	0.371770
C24	C	0.245126	-0.352214	0.324946
C25	C	0.212515	-0.395306	0.278131
C26	C	0.147080	-0.395316	0.278137
C27	C	0.350941	-0.355125	0.261400
C28	C	0.416375	-0.355111	0.261392
C29	C	0.446948	-0.352190	0.324928
C30	C	0.412080	-0.349268	0.388473
C31	C	0.346645	-0.349277	0.388479
C32	C	0.316079	-0.352209	0.324935
C33	C	0.550504	-0.309098	0.371744
C34	C	0.615940	-0.309098	0.371745
C35	C	0.616159	-0.395257	0.278099
C36	C	0.550723	-0.395261	0.278104
C37	C	0.517900	-0.352178	0.324926
C38	C	0.909334	-0.651314	0.357944
C39	C	0.906838	-0.724705	0.355005
C40	C	0.867220	-0.759659	0.308554
C41	C	0.830090	-0.721218	0.265043
C42	C	0.832583	-0.647829	0.267985
C43	C	0.855648	-0.978964	0.294934
C44	C	0.853160	-1.052359	0.291993
C45	C	0.929907	-1.055841	0.381957
C46	C	0.932399	-0.982449	0.384892
C47	C	0.895267	-0.944015	0.341384
N48	N	0.864670	-0.834677	0.305548
N49	N	0.897814	-0.868999	0.344394
C50	C	1.044616	-0.352220	0.324950
C51	C	1.114256	-0.352232	0.324958
C52	C	0.874402	-0.359501	0.508211
C53	C	0.871507	-0.362616	0.586314
C54	C	0.887569	-0.168902	0.332344
C55	C	0.890285	-0.090795	0.335502
C56	C	0.887998	-0.344860	0.142366
C57	C	0.891021	-0.341548	0.064272
C58	C	0.850749	-0.385012	1.025755
C59	C	0.853466	-0.382075	0.952369
C60	C	0.896460	-0.335677	0.917502
C61	C	0.936734	-0.292208	0.956024
C62	C	0.934013	-0.295142	1.029408
C63	C	0.909060	-0.322081	0.698221
C64	C	0.911780	-0.319152	0.624831
C65	C	0.828511	-0.409018	0.621182
C66	C	0.825796	-0.411951	0.694568
C67	C	0.866068	-0.368480	0.733084
N68	N	0.899240	-0.332675	0.842490
N69	N	0.863284	-0.371478	0.808094
H70	H	0.120138	-0.274070	0.409899
H71	H	0.966805	-0.259747	1.060768
C72	C	0.514856	-0.442650	0.226609
H73	H	0.471183	-0.436492	0.233323
H74	H	0.527676	-0.430415	0.179829
H75	H	0.523572	-0.490288	0.234919
C76	C	0.651807	-0.261709	0.423243
H77	H	0.695478	-0.267880	0.416542
H78	H	0.643095	-0.214072	0.414941
H79	H	0.638980	-0.273952	0.470024
C80	C	0.445698	-0.346054	0.458367
H81	H	0.415561	-0.344311	0.496210
H82	H	0.469606	-0.386577	0.462854
H83	H	0.472663	-0.305278	0.459160
H84	H	0.444760	-0.357486	0.209650
H85	H	0.790786	-0.449733	0.722952
H86	H	0.239250	-0.430377	0.240008
C87	C	0.952906	-0.612871	0.409050
H88	H	0.974652	-0.646276	0.434548
H89	H	0.982196	-0.583151	0.383357
H90	H	0.928743	-0.585478	0.440789
C91	C	0.514392	-0.261717	0.423247
H92	H	0.470752	-0.267885	0.416540
H93	H	0.523014	-0.273953	0.470025
H94	H	0.527127	-0.214075	0.414940
H95	H	0.120535	-0.430401	0.240016
C96	C	0.970743	-1.098120	0.429817
H97	H	0.963582	-1.146834	0.421419
H98	H	1.013637	-1.085651	0.420065
H99	H	0.960191	-1.087964	0.477505
C100	C	0.652265	-0.442635	0.226594
H101	H	0.695906	-0.436457	0.233292
H102	H	0.639532	-0.490274	0.234897
H103	H	0.643641	-0.430394	0.179814
C104	C	0.814806	-0.936693	0.247077
H105	H	0.821956	-0.887978	0.255485
H106	H	0.825348	-0.946845	0.199391
H107	H	0.771911	-0.949167	0.256842
C108	C	0.984023	-0.241166	0.917675
H109	H	1.007614	-0.215695	0.951127
H110	H	1.011450	-0.266905	0.887960
H111	H	0.962177	-0.209397	0.890288
C112	C	0.809581	-1.090811	0.240893
H113	H	0.813423	-1.140023	0.245367
H114	H	0.767502	-1.079232	0.251612
H115	H	0.820946	-1.076907	0.194170
C116	C	0.975989	-0.944004	0.435978
H117	H	0.997744	-0.977407	0.461470
H118	H	1.005271	-0.914296	0.410261
H119	H	0.951845	-0.916599	0.467724
C120	C	0.803458	-0.436051	1.064106
H121	H	0.807608	-0.431580	1.113328
H122	H	0.762165	-0.425278	1.052491
H123	H	0.811435	-0.482789	1.050164
C124	C	0.317317	-0.358337	0.191506
H125	H	0.347453	-0.360064	0.153662
H126	H	0.290351	-0.399108	0.190709
H127	H	0.293410	-0.317808	0.187025
H128	H	0.937075	-0.755996	0.390430
C129	C	0.809154	-0.429870	0.910004
H130	H	0.783160	-0.457924	0.941280
H131	H	0.783855	-0.401825	0.882473
H132	H	0.833106	-0.459356	0.880129
H133	H	0.802350	-0.616535	0.232557
H134	H	0.318258	-0.346900	0.440219
H135	H	0.797830	-0.749684	0.227224
C136	C	0.784210	-0.456825	0.578813
H137	H	0.791983	-0.448430	0.530115
H138	H	0.791286	-0.504524	0.588927
H139	H	0.742024	-0.447003	0.591254
H140	H	0.238846	-0.274056	0.409890
H141	H	0.946790	-0.281365	0.596445
H142	H	0.941856	-0.286687	0.729572
