data_functionalizedCrystal
_audit_creation_method	'MofGen! by Chris Wilmer'
_symmetry_space_group_name_H-M	'P1'
_symmetry_Int_Tables_number	1
_symmetry_cell_setting	triclinic
loop_
_symmetry_equiv_pos_as_xyz
  x,y,z
_cell_length_a	31.640172
_cell_length_b	19.902436
_cell_length_c	19.902436
_cell_angle_alpha	89.995377
_cell_angle_beta	60.003466
_cell_angle_gamma	119.995883
loop_
_atom_site_label
_atom_site_type_symbol
_atom_site_fract_x
_atom_site_fract_y
_atom_site_fract_z
Zr1	Zr	0.462532	0.088109	0.647422
O2	O	0.550698	0.195396	0.540149
O3	O	0.374365	0.055221	0.680293
O4	O	0.462521	0.195386	0.680312
O5	O	0.462550	-0.055335	0.540129
O6	O	0.462513	0.195377	0.790891
O7	O	0.462542	0.055231	0.540129
O8	O	0.304817	-0.055353	0.790857
O9	O	0.620246	0.195394	0.540164
O10	O	0.410623	0.041187	0.776852
O11	O	0.410635	-0.041321	0.694328
O12	O	0.514428	0.123705	0.694351
O13	O	0.514440	0.041198	0.611827
Zr14	Zr	0.462532	-0.088245	0.823782
Zr15	Zr	0.462519	0.088095	0.823782
Zr16	Zr	0.462545	-0.088231	0.647421
Zr17	Zr	0.573452	0.088107	0.647446
Zr18	Zr	0.351611	-0.088243	0.823758
O19	O	0.550698	-0.055357	0.790910
O20	O	0.550680	0.195375	0.790910
O21	O	0.550717	-0.055337	0.540148
O22	O	0.374365	-0.195532	0.931055
O23	O	0.374346	0.055201	0.931055
O24	O	0.374383	-0.195511	0.680293
O25	O	0.462513	0.055199	0.931074
O26	O	0.462542	-0.195522	0.790891
O27	O	0.462550	-0.195513	0.680312
O28	O	0.462521	-0.055367	0.931074
O29	O	0.620236	0.195383	0.680347
O30	O	0.304828	-0.195519	0.790857
O31	O	0.304817	-0.195530	0.931040
O32	O	0.304807	-0.055364	0.931040
O33	O	0.620256	0.055228	0.540164
O34	O	0.620246	0.055217	0.680347
O35	O	0.410635	-0.123841	0.776852
O36	O	0.410623	-0.041334	0.859376
O37	O	0.514428	0.041185	0.776875
O38	O	0.514440	-0.041323	0.694351
C39	C	0.323787	-0.000066	0.735571
C40	C	0.276699	-0.000065	0.735561
C41	C	0.462515	0.220506	0.735602
C42	C	0.462510	0.295367	0.735602
C43	C	0.462548	-0.220642	0.735602
C44	C	0.462554	-0.295503	0.735602
C45	C	-0.015349	0.042992	0.778695
C46	C	-0.192345	0.042992	0.778712
O47	O	-0.215255	0.079590	0.815377
N48	N	-0.214468	-0.000074	0.735634
C49	C	-0.192342	-0.043148	0.692554
O50	O	-0.215224	-0.079786	0.655921
C51	C	-0.015350	-0.043152	0.692542
C52	C	0.006775	-0.000076	0.735616
C53	C	0.006775	0.086064	0.821766
C54	C	0.051023	0.086067	0.821757
C55	C	0.073148	0.042999	0.778678
C56	C	0.051023	-0.000073	0.735607
C57	C	0.006772	-0.086230	0.649467
C58	C	0.051022	-0.086229	0.649470
C59	C	0.073147	-0.043153	0.692543
C60	C	0.117396	-0.043138	0.692520
N61	N	0.139519	-0.000071	0.735597
C62	C	0.117395	0.042997	0.778677
C63	C	-0.285264	-0.043142	0.692562
C64	C	-0.329511	-0.043140	0.692563
C65	C	-0.329512	0.042999	0.778723
C66	C	-0.285262	0.043001	0.778716
C67	C	-0.263142	-0.000075	0.735639
C68	C	0.210320	0.043001	0.778655
C69	C	0.254575	0.043004	0.778640
C70	C	0.254570	-0.043138	0.692485
C71	C	0.210321	-0.043138	0.692496
C72	C	0.188196	-0.000066	0.735587
O73	O	0.140329	-0.079724	0.655881
O74	O	0.140275	0.079614	0.815319
C75	C	-0.059598	0.042989	0.778703
C76	C	-0.081722	-0.000083	0.735632
C77	C	-0.059598	-0.043151	0.692553
C78	C	-0.125969	-0.000081	0.735634
C79	C	-0.148094	0.042988	0.778713
C80	C	-0.125971	0.086054	0.821791
C81	C	-0.081722	0.086057	0.821782
C82	C	-0.081721	-0.086217	0.649476
C83	C	-0.125969	-0.086216	0.649487
C84	C	-0.148093	-0.043148	0.692566
C85	C	0.601276	-0.000071	0.735632
C86	C	0.648364	-0.000071	0.735642
C87	C	0.462548	-0.000050	0.515002
C88	C	0.462554	-0.000044	0.440132
C89	C	0.462539	0.567415	0.735601
C90	C	0.397057	0.486870	0.787892
C91	C	0.397016	0.408967	0.787666
C92	C	0.462524	0.432449	0.735602
C93	C	0.495049	0.486575	0.645941
C94	C	0.494630	0.564137	0.646227
C95	C	0.495966	0.565266	0.772249
C96	C	0.494735	0.486388	0.774063
C97	C	0.462519	0.356174	0.735598
C98	C	0.462546	0.643692	0.735600
C99	C	0.462524	-0.000076	0.168130
C100	C	0.528006	0.051729	0.144577
C101	C	0.528047	0.052017	0.222415
C102	C	0.462539	-0.000060	0.303073
C103	C	0.430015	0.037898	0.300655
C104	C	0.430433	0.038281	0.222427
C105	C	0.429098	-0.089863	0.223414
C106	C	0.430329	-0.089725	0.300336
C107	C	0.462544	-0.000052	0.379340
C108	C	0.462517	-0.000081	0.091865
C109	C	0.462515	-0.000086	0.956202
C110	C	0.462510	-0.000092	1.031071
C111	C	0.323771	-0.000083	0.956171
C112	C	0.276677	-0.000089	1.031031
C113	C	0.323804	-0.220640	0.735571
C114	C	0.276721	-0.295500	0.735561
C115	C	0.323787	-0.220657	0.956171
C116	C	0.276699	-0.295524	1.031031
C117	C	0.601276	0.220521	0.515032
C118	C	0.648364	0.295387	0.440173
C119	C	0.601292	-0.000053	0.515032
C120	C	0.648386	-0.000047	0.440173
C121	C	0.601260	0.220504	0.735632
C122	C	0.648343	0.295363	0.735642
C123	C	0.254561	0.042991	1.023109
C124	C	0.210317	0.043003	1.093441
C125	C	0.188187	-0.000071	1.171693
C126	C	0.210307	-0.043152	1.179613
C127	C	0.254553	-0.043158	1.109282
C128	C	0.254610	-0.373737	0.778633
C129	C	0.210377	-0.444083	0.778620
C130	C	0.188252	-0.436189	0.735540
C131	C	0.210367	-0.357943	0.692463
C132	C	0.254602	-0.287599	0.692471
C133	C	0.254579	-0.287613	1.109269
C134	C	0.210341	-0.357951	1.179614
C135	C	0.188220	-0.436198	1.171719
C136	C	0.210344	-0.444107	1.093472
C137	C	0.254584	-0.373770	1.023129
C138	C	0.670489	0.287477	0.361934
C139	C	0.714742	0.357815	0.291589
C140	C	0.736865	0.436062	0.299485
C141	C	0.714738	0.443971	0.377731
C142	C	0.670490	0.373634	0.448075
C143	C	0.670507	-0.043120	0.448094
C144	C	0.714763	-0.043112	0.377763
C145	C	0.736895	-0.000036	0.299510
C146	C	0.714772	0.043042	0.291590
C147	C	0.670520	0.043038	0.361921
C148	C	0.670453	0.287444	0.778731
C149	C	0.714687	0.357776	0.778757
C150	C	0.736812	0.436027	0.735689
C151	C	0.714697	0.443945	0.692599
C152	C	0.670461	0.373614	0.692578
H153	H	0.272588	0.078084	0.813715
H154	H	0.192346	-0.351528	0.657388
O155	O	0.186471	-0.528507	1.084967
H156	H	0.194954	-0.562622	1.114968
H157	H	0.542674	0.621175	0.605145
H158	H	0.192312	0.078084	1.086976
O159	O	0.646619	0.382153	0.532468
H160	H	0.626459	0.416306	0.539615
H161	H	0.772895	0.493329	0.242200
H162	H	0.371351	0.485167	0.854087
H163	H	0.272588	-0.380222	0.959426
H164	H	0.652511	0.078111	0.355459
H165	H	0.192310	0.078073	0.813745
H166	H	0.772832	0.493289	0.735712
O167	O	0.646636	0.203086	0.353408
H168	H	0.669466	0.209416	0.287181
O169	O	0.140497	-0.512057	1.247596
H170	H	0.100184	-0.549197	1.247543
H171	H	0.371341	0.369931	0.762249
O172	O	0.461049	0.125800	0.174019
H173	H	0.461651	0.126943	0.117779
O174	O	0.366798	-0.008457	0.248029
H175	H	0.335862	-0.031227	0.316177
H176	H	0.732718	0.507667	0.657534
H177	H	0.380860	-0.128645	0.243321
O178	O	0.186476	-0.349413	1.264003
H179	H	0.209284	-0.283185	1.257669
H180	H	0.542526	0.504910	0.739937
H181	H	0.192376	-0.507786	0.813701
O182	O	0.738603	0.528369	0.386240
H183	H	0.701463	0.535529	0.420385
O184	O	0.784622	-0.000042	0.223660
H185	H	0.796302	0.037151	0.167910
O186	O	0.278393	-0.089643	1.117837
H187	H	0.327198	-0.046175	1.087871
H188	H	0.652491	-0.078203	0.511805
O189	O	0.738592	0.349277	0.207200
H190	H	0.715761	0.283049	0.213535
H191	H	-0.011236	0.121135	0.856850
O192	O	0.278366	-0.203214	0.646146
H193	H	0.255513	-0.209552	0.616244
O194	O	0.738648	0.089503	0.207186
H195	H	0.730161	0.046013	0.173081
H196	H	0.652446	0.223734	0.813802
H197	H	0.652463	0.380074	0.657487
H198	H	0.732767	-0.078194	0.384228
O199	O	0.140460	-0.000069	1.247548
H200	H	0.128798	0.037119	1.228885
O201	O	0.465132	0.436976	0.606806
H202	H	0.467192	0.382896	0.604434
H203	H	0.475005	0.568248	0.837277
O204	O	0.738537	0.349227	0.825231
H205	H	0.715725	0.282997	0.855161
O206	O	0.278469	-0.382260	0.825101
H207	H	0.298638	-0.416402	0.800199
O208	O	0.074881	0.132522	0.868221
H209	H	0.052052	0.162459	0.898180
O210	O	0.278433	-0.203226	1.117803
H211	H	0.312911	-0.155635	1.055750
O212	O	-0.261403	0.089455	0.825179
H213	H	-0.284227	0.119397	0.855135
H214	H	-0.347533	0.078069	0.813798
O215	O	0.366216	-0.009658	0.375903
H216	H	0.356992	-0.060975	0.415919
H217	H	-0.347515	-0.078206	0.657478
O218	O	0.456857	-0.131871	0.175334
H219	H	0.504437	-0.096297	0.153133
O220	O	-0.261402	-0.089596	0.646088
H221	H	-0.284218	-0.119530	0.616130
H222	H	0.192283	-0.078221	1.243336
O223	O	-0.017059	-0.132650	0.602968
H224	H	0.005771	-0.162586	0.573009
H225	H	0.069031	-0.121307	0.614389
H226	H	0.152233	-0.493474	0.735539
H227	H	0.272593	-0.078201	0.657408
O228	O	0.186457	-0.089589	0.646034
H229	H	0.166305	-0.155789	0.670925
O230	O	-0.057864	0.132514	0.868244
H231	H	-0.080692	0.162452	0.898202
O232	O	0.562051	0.139748	0.220070
H233	H	0.562204	0.140261	0.275716
H234	H	-0.143990	0.121126	0.856864
H235	H	-0.063713	-0.121292	0.614397
O236	O	-0.149811	-0.132649	0.602995
H237	H	-0.126985	-0.162589	0.573037
O238	O	0.463321	0.436947	0.861564
H239	H	0.464338	0.382014	0.862091
O240	O	0.363205	0.356771	0.875124
H241	H	0.316503	0.338361	0.910337
O242	O	0.363180	0.485870	0.754539
H243	H	0.392779	0.542488	0.700878
O244	O	0.463897	0.563710	0.607517
H245	H	0.488505	0.564444	0.543343
O246	O	0.558837	0.512708	0.592062
H247	H	0.568057	0.487338	0.628708
H248	H	0.544209	0.622028	0.734329
O249	O	0.278427	0.089461	0.938715
H250	H	0.327233	0.137060	0.904618
H251	H	0.452596	0.103340	0.302211
O252	O	0.562057	0.018179	0.092697
H253	H	0.576687	-0.000864	0.124648
O254	O	0.561847	0.018293	0.220874
H255	H	0.608551	0.057310	0.165049
H256	H	0.553578	0.117563	0.104671
O257	O	0.461724	-0.127307	0.299870
H258	H	0.500109	-0.082320	0.301583
O259	O	0.367019	-0.145155	0.376428
H260	H	0.367564	-0.147838	0.431674
