data_functionalizedCrystal
_audit_creation_method	'MofGen! by Chris Wilmer'
_symmetry_space_group_name_H-M	'P1'
_symmetry_Int_Tables_number	1
_symmetry_cell_setting	triclinic
loop_
_symmetry_equiv_pos_as_xyz
  x,y,z
_cell_length_a	6.817900
_cell_length_b	12.840933
_cell_length_c	12.908942
_cell_angle_alpha	81.585717
_cell_angle_beta	100.860556
_cell_angle_gamma	88.345099
loop_
_atom_site_label
_atom_site_type_symbol
_atom_site_fract_x
_atom_site_fract_y
_atom_site_fract_z
V1	V	-3.884872	0.324624	-0.148331
O2	O	-3.888718	0.319041	0.004573
O3	O	-3.824249	0.321829	-0.291658
O4	O	-3.780570	0.466465	-0.147171
O5	O	-3.932700	0.173404	-0.140915
V6	V	-4.377327	0.306606	-0.129910
O7	O	-4.126536	0.364146	-0.188740
O8	O	-4.585860	0.267084	-0.089500
O9	O	-4.214744	0.309401	0.013417
O10	O	-4.490878	0.312189	-0.282813
O11	O	-4.446897	0.457826	-0.137326
O12	O	-4.258423	0.164765	-0.131070
C13	C	-3.668085	0.316560	-0.326563
C14	C	-3.699432	0.315221	-0.443742
C15	C	-3.612380	0.501056	-0.142250
C16	C	-3.608227	0.619188	-0.142248
C17	C	-4.089955	0.130168	-0.135989
C18	C	-4.072958	0.012036	-0.135988
C19	C	-4.117510	0.323092	-0.674756
C20	C	-4.146973	0.321834	-0.784856
C21	C	-3.787825	0.311454	-0.774047
C22	C	-3.758362	0.312712	-0.663946
C23	C	-3.923212	0.318529	-0.614305
C24	C	-3.893746	0.319780	-0.504201
C25	C	-3.534601	0.309408	-0.493395
C26	C	-3.564064	0.308150	-0.603495
V27	V	-3.867820	0.810788	-0.148338
O28	O	-3.905029	0.962023	-0.140921
O29	O	-3.773665	0.663609	-0.147179
O30	O	-3.805658	0.851622	-0.291664
O31	O	-3.872814	0.772709	0.004564
V32	V	-4.358329	0.848306	-0.129923
O33	O	-4.111422	0.795100	-0.188751
O34	O	-4.564129	0.886680	-0.089516
O35	O	-4.229671	0.984238	-0.131080
O36	O	-4.438309	0.702987	-0.137342
O37	O	-4.470524	0.892301	-0.282827
O38	O	-4.197678	0.796225	0.013405
C39	C	-4.034251	0.314667	0.048317
C40	C	-3.982138	0.316013	0.165495
C41	C	-3.649045	0.859017	-0.326561
C42	C	-3.679058	0.895543	-0.443738
C43	C	-4.018225	0.771861	0.048312
C44	C	-3.967489	0.734299	0.165492
C45	C	-3.872727	0.918128	-0.504181
C46	C	-3.900953	0.952463	-0.614279
C47	C	-3.735510	0.964205	-0.663934
C48	C	-3.541825	0.941620	-0.603483
C49	C	-3.513600	0.907293	-0.493385
C50	C	-3.769115	0.704214	0.215125
C51	C	-3.721411	0.668933	0.325229
C52	C	-3.872086	0.663729	0.385696
C53	C	-4.070475	0.693820	0.336056
C54	C	-4.118174	0.729108	0.225956
H55	H	-4.027978	0.324509	-0.463783
C56	C	-4.336397	0.762181	0.171368
H57	H	-4.419289	0.754014	0.223154
H58	H	-4.344995	0.833867	0.138730
H59	H	-4.379552	0.719046	0.118556
C60	C	-3.819597	0.624900	0.506802
H61	H	-3.679870	0.607718	0.527692
H62	H	-3.855956	0.678905	0.543817
H63	H	-3.890558	0.564098	0.523607
H64	H	-4.193141	0.689579	0.385306
H65	H	-4.251738	0.327813	-0.634334
H66	H	-4.305186	0.325550	-0.834072
C67	C	-3.606519	0.305071	-0.828668
H68	H	-3.651903	0.304976	-0.902897
H69	H	-3.528610	0.364215	-0.818495
H70	H	-3.527203	0.242071	-0.798318
C71	C	-3.320861	0.304388	-0.426901
H72	H	-3.226911	0.300735	-0.472237
H73	H	-3.302586	0.365726	-0.393817
H74	H	-3.301216	0.243584	-0.373635
H75	H	-3.429855	0.303417	-0.643930
C76	C	-4.054727	0.905222	-0.449575
H77	H	-4.010207	0.881535	-0.375347
H78	H	-4.128234	0.971106	-0.459737
H79	H	-4.138019	0.855046	-0.479948
H80	H	-4.058674	0.970845	-0.663485
H81	H	-3.407130	0.951186	-0.643929
C82	C	-3.603348	0.709938	0.148631
H83	H	-3.478378	0.686976	0.193975
H84	H	-3.631968	0.665784	0.095359
H85	H	-3.597400	0.780599	0.115556
H86	H	-3.355891	0.888901	-0.444181
C87	C	-3.766592	1.001840	-0.785062
H88	H	-3.905641	1.013561	-0.813949
H89	H	-3.701811	1.065622	-0.797981
H90	H	-3.711537	0.949501	-0.817995
H91	H	-3.559864	0.644434	0.365629
