data_functionalizedCrystal
_audit_creation_method	'MofGen! by Chris Wilmer'
_symmetry_space_group_name_H-M	'P1'
_symmetry_Int_Tables_number	1
_symmetry_cell_setting	triclinic
loop_
_symmetry_equiv_pos_as_xyz
  x,y,z
_cell_length_a	12.645331
_cell_length_b	12.645330
_cell_length_c	13.032268
_cell_angle_alpha	97.142779
_cell_angle_beta	82.833304
_cell_angle_gamma	89.980293
loop_
_atom_site_label
_atom_site_type_symbol
_atom_site_fract_x
_atom_site_fract_y
_atom_site_fract_z
Zn1	Zn	1.544556	0.498090	0.590698
Zn2	Zn	1.566966	0.652873	0.415943
Zn3	Zn	1.389798	0.475631	0.415987
Zn4	Zn	1.367255	0.675306	0.590643
O5	O	1.467144	0.575475	0.503318
O6	O	1.695876	0.518633	0.567521
O7	O	1.562276	0.610574	0.269719
O8	O	1.410383	0.330268	0.439205
O9	O	1.712340	0.632351	0.439130
O10	O	1.524083	0.346769	0.567564
O11	O	1.432112	0.480355	0.269752
O12	O	1.238461	0.502107	0.439151
O13	O	1.371962	0.670585	0.736880
O14	O	1.221899	0.648808	0.567470
O15	O	1.502224	0.540386	0.736921
O16	O	1.540418	0.804191	0.439076
O17	O	1.393691	0.820672	0.567427
C18	C	1.191715	0.575455	0.503310
C19	C	1.073882	0.575476	0.503331
C20	C	1.018632	0.667890	0.583938
C21	C	0.896103	0.668196	0.583699
C22	C	0.920145	0.591115	0.393067
C23	C	1.042683	0.591754	0.393534
C24	C	1.025040	0.467126	0.532025
C25	C	0.902121	0.468057	0.534452
C26	C	1.467066	0.850898	0.503264
C27	C	1.467125	0.968729	0.503275
C28	C	1.559303	1.125857	0.422348
C29	C	1.559556	1.003324	0.422559
C30	C	1.483218	1.027295	0.613418
C31	C	1.483910	1.149836	0.612975
C32	C	1.358642	1.132430	0.475105
C33	C	1.359510	1.009509	0.472648
C34	C	1.743648	0.575495	0.503327
C35	C	1.861477	0.575504	0.503330
C36	C	1.432079	0.610493	0.775876
C37	C	1.417136	0.625416	0.892025
C38	C	1.467222	1.298976	0.503368
C39	C	1.467190	1.181140	0.503321
C40	C	1.502133	0.540516	0.231820
C41	C	1.517281	0.525295	0.115672
C42	C	1.474926	0.567648	0.943827
C43	C	1.459483	0.583070	1.063872
H44	H	0.898960	0.525253	0.331358
N45	N	1.659993	1.167395	0.445502
N46	N	1.664208	1.237535	0.521379
H47	H	1.735319	1.266875	0.537736
H48	H	1.080365	0.526558	0.331414
H49	H	1.045803	0.450067	0.611074
H50	H	1.418982	1.187541	0.675385
H51	H	0.862610	0.456019	0.615600
H52	H	1.356221	0.686283	0.936547
H53	H	1.535830	0.506771	0.899304
H54	H	1.398564	0.643942	1.108391
H55	H	0.855510	0.660127	0.665444
H56	H	0.878511	0.396710	0.480070
N57	N	0.885602	0.688750	0.362127
N58	N	0.951523	0.759765	0.343814
H59	H	0.927129	0.828724	0.321967
N60	N	1.272746	1.178347	0.549065
N61	N	1.179188	1.150173	0.540490
H62	H	1.118529	1.182606	0.592726
H63	H	1.578188	0.464411	1.071155
N64	N	0.862348	0.769272	0.559785
N65	N	0.815996	0.774352	0.481207
H66	H	0.792160	0.845740	0.464310
H67	H	1.341261	1.153275	0.396182
N68	N	1.070903	0.380928	0.458428
N69	N	1.061030	0.378758	0.363946
H70	H	1.093421	0.317871	0.311983
N71	N	1.042376	0.658050	0.686809
N72	N	1.100301	0.582818	0.701919
H73	H	1.117070	0.575861	0.774575
H74	H	1.051832	0.748022	0.565131
H75	H	1.551132	0.962804	0.340889
N76	N	1.400859	1.000722	0.691134
N77	N	1.388462	0.905894	0.707393
H78	H	1.330294	0.887122	0.762278
N79	N	1.082464	0.690555	0.363111
N80	N	1.149295	0.690892	0.283935
H81	H	1.177388	0.760673	0.262448
N82	N	1.549064	1.149713	0.319590
N83	N	1.473764	1.207741	0.304830
H84	H	1.466530	1.224597	0.232255
H85	H	1.640249	0.976319	0.441227
N86	N	1.582927	1.189453	0.642941
N87	N	1.668758	1.157313	0.589991
H88	H	1.738693	1.185286	0.611152
N89	N	1.581004	0.992589	0.643905
N90	N	1.638992	0.924760	0.584706
H91	H	1.708055	0.900247	0.606233
H92	H	1.347118	0.970074	0.391592
N93	N	1.270227	0.979928	0.541221
N94	N	1.284521	0.928083	0.614111
H95	H	1.221466	0.907194	0.662551
