data_functionalizedCrystal
_audit_creation_method	'MofGen! by Chris Wilmer'
_symmetry_space_group_name_H-M	'P1'
_symmetry_Int_Tables_number	1
_symmetry_cell_setting	triclinic
loop_
_symmetry_equiv_pos_as_xyz
  x,y,z
_cell_length_a	27.732048
_cell_length_b	27.731996
_cell_length_c	12.996460
_cell_angle_alpha	89.987889
_cell_angle_beta	89.999906
_cell_angle_gamma	82.632022
loop_
_atom_site_label
_atom_site_type_symbol
_atom_site_fract_x
_atom_site_fract_y
_atom_site_fract_z
O1	O	0.640917	0.057519	-0.085447
O2	O	0.500122	0.066265	-0.085480
O3	O	0.574905	-0.008506	-0.085441
O4	O	0.566134	0.132291	-0.085487
O5	O	0.574898	-0.008510	0.085693
O6	O	0.500114	0.066261	0.085653
O7	O	0.640909	0.057515	0.085686
Cu8	Cu	0.570511	0.061888	0.101296
Cu9	Cu	0.570520	0.061893	-0.101090
O10	O	0.566126	0.132287	0.085647
C11	C	0.482111	0.066079	0.000083
C12	C	0.428456	0.065527	0.000071
C13	C	0.574721	-0.026516	0.000130
C14	C	0.574179	-0.080172	0.000140
C15	C	0.570768	-0.412886	-0.093196
C16	C	0.568707	-0.614544	-0.093215
O17	O	0.568423	-0.640613	-0.172551
N18	N	0.568447	-0.639764	0.000070
C19	C	0.568699	-0.614565	0.093365
O20	O	0.568425	-0.640642	0.172708
C21	C	0.570756	-0.412907	0.093382
C22	C	0.571021	-0.387691	0.000092
C23	C	0.571033	-0.387670	-0.186479
C24	C	0.571550	-0.337259	-0.186473
C25	C	0.571804	-0.312064	-0.093185
C26	C	0.571539	-0.337280	0.000098
C27	C	0.571005	-0.387709	0.186677
C28	C	0.571518	-0.337291	0.186673
C29	C	0.571783	-0.312075	0.093383
C30	C	0.572310	-0.261674	0.093392
N31	N	0.572571	-0.236454	0.000107
C32	C	0.572317	-0.261649	-0.093181
C33	C	0.567620	-0.720438	0.093349
C34	C	0.567106	-0.770853	0.093345
C35	C	0.567113	-0.770828	-0.093235
C36	C	0.567630	-0.720414	-0.093230
C37	C	0.567880	-0.695219	0.000065
C38	C	0.573405	-0.155782	-0.093162
C39	C	0.573925	-0.105367	-0.093148
C40	C	0.573915	-0.105395	0.093431
C41	C	0.573398	-0.155807	0.093418
C42	C	0.573141	-0.180999	0.000113
O43	O	0.572589	-0.235573	0.172686
O44	O	0.572580	-0.235562	-0.172512
C45	C	0.570250	-0.463297	-0.093202
C46	C	0.569986	-0.488513	0.000081
C47	C	0.570239	-0.463318	0.093369
C48	C	0.569472	-0.538928	0.000077
C49	C	0.569219	-0.564123	-0.093211
C50	C	0.569479	-0.538903	-0.186495
C51	C	0.569997	-0.488492	-0.186490
C52	C	0.569979	-0.488538	0.186653
C53	C	0.569461	-0.538949	0.186640
C54	C	0.569208	-0.564144	0.093352
C55	C	0.089634	0.106231	0.000102
C56	C	-0.112026	0.104180	0.000112
O57	O	-0.143288	0.141402	0.000144
N58	N	-0.131141	0.059844	0.000125
C59	C	-0.099838	0.016017	0.000142
O60	O	-0.120724	-0.021740	0.000164
C61	C	0.101820	0.018069	0.000139
C62	C	0.120933	0.062408	0.000116
C63	C	0.108747	0.150567	0.000080
C64	C	0.159159	0.151079	0.000072
C65	C	0.190457	0.107256	0.000086
C66	C	0.171344	0.062920	0.000108
C67	C	0.133122	-0.025757	0.000164
C68	C	0.183539	-0.025240	0.000166
C69	C	0.202652	0.019099	0.000143
C70	C	0.253055	0.019609	0.000114
N71	N	0.272171	0.063946	0.000101
C72	C	0.240872	0.107769	0.000087
C73	C	-0.205712	0.014943	0.000141
C74	C	-0.256126	0.014430	0.000140
C75	C	-0.268310	0.102594	0.000112
C76	C	-0.217895	0.103106	0.000106
C77	C	-0.186597	0.059280	0.000128
C78	C	0.346741	0.108842	0.000069
C79	C	0.397158	0.109350	0.000057
C80	C	0.409337	0.021187	0.000090
C81	C	0.358925	0.020678	0.000097
C82	C	0.327627	0.064510	0.000090
O83	O	0.284346	-0.017592	0.000093
O84	O	0.261767	0.145521	0.000088
C85	C	0.039222	0.105719	0.000110
C86	C	0.020109	0.061384	0.000132
C87	C	0.051408	0.017560	0.000146
C88	C	-0.030305	0.060871	0.000131
C89	C	-0.061604	0.104694	0.000117
C90	C	-0.042489	0.149030	0.000104
C91	C	0.007923	0.149543	0.000096
C92	C	0.032292	-0.026776	0.000159
C93	C	-0.018120	-0.027285	0.000166
C94	C	-0.049419	0.016539	0.000152
C95	C	0.658920	0.057701	0.000121
C96	C	0.712575	0.058254	0.000126
C97	C	0.566310	0.150296	0.000074
C98	C	0.566853	0.203952	0.000057
N99	N	0.570508	0.061884	0.243643
N100	N	0.570527	0.061892	-0.243437
C101	C	0.570519	0.061893	0.663457
C102	C	0.570515	0.061892	0.546652
C103	C	0.570514	0.061889	0.453554
C104	C	0.570509	0.061887	0.336741
H105	H	0.574142	-0.084839	-0.169119
H106	H	0.057772	-0.062463	0.000173
Cl107	Cl	0.570668	-0.419396	0.303964
H108	H	0.174715	0.187185	0.000053
Cl109	Cl	0.567962	-0.688719	-0.210513
Cl110	Cl	0.573074	-0.187509	0.210698
Cl111	Cl	0.031942	0.205286	0.000068
H112	H	0.574124	-0.084873	0.169384
H113	H	0.570212	-0.467966	-0.262456
H114	H	0.566897	-0.791380	0.169311
H115	H	0.573194	-0.176287	-0.169140
Cl116	Cl	0.571832	-0.305621	0.303965
H117	H	-0.033676	-0.063394	0.000177
H118	H	0.571764	-0.316732	-0.262440
Cl119	Cl	0.069408	0.205667	0.000060
H120	H	0.209021	-0.060930	0.000185
H121	H	-0.067981	0.184713	0.000089
H122	H	0.569275	-0.559426	-0.262454
H123	H	0.569249	-0.559476	0.262614
H124	H	0.566908	-0.791351	-0.169194
Cl125	Cl	0.570294	-0.456871	0.303943
Cl126	Cl	0.570715	-0.419335	-0.303772
H127	H	0.412716	0.145458	0.000037
Cl128	Cl	0.567931	-0.688772	0.210647
H129	H	-0.293803	0.138276	0.000101
Cl130	Cl	0.307403	0.163945	0.000059
H131	H	-0.202337	0.139211	0.000093
Cl132	Cl	-0.280147	-0.041313	0.000144
H133	H	-0.180232	-0.020747	0.000160
Cl134	Cl	0.109108	-0.081502	0.000176
H135	H	0.343363	-0.015426	0.000101
Cl136	Cl	0.448693	-0.033902	0.000113
