data_functionalizedCrystal
_audit_creation_method	'MofGen! by Chris Wilmer'
_symmetry_space_group_name_H-M	'P1'
_symmetry_Int_Tables_number	1
_symmetry_cell_setting	triclinic
loop_
_symmetry_equiv_pos_as_xyz
  x,y,z
_cell_length_a	17.699104
_cell_length_b	17.699083
_cell_length_c	9.730223
_cell_angle_alpha	89.996898
_cell_angle_beta	89.995236
_cell_angle_gamma	83.287266
loop_
_atom_site_label
_atom_site_type_symbol
_atom_site_fract_x
_atom_site_fract_y
_atom_site_fract_z
O1	O	1.004065	0.095783	-0.114320
O2	O	1.504065	0.595783	0.385680
O3	O	0.783689	0.108219	-0.114317
O4	O	1.283689	0.608219	0.385683
O5	O	0.900104	-0.008187	-0.114307
O6	O	1.400104	0.491813	0.385693
O7	O	0.887651	0.212190	-0.114331
O8	O	1.387651	0.712190	0.385669
O9	O	0.900094	-0.008185	0.114273
O10	O	1.400094	0.491815	0.614273
O11	O	0.783680	0.108221	0.114263
O12	O	1.283680	0.608221	0.614263
O13	O	1.004056	0.095785	0.114260
O14	O	1.504056	0.595785	0.614260
Zn15	Zn	0.893867	0.102004	0.150553
Zn16	Zn	1.393867	0.602004	0.650553
Zn17	Zn	0.893879	0.102001	-0.150611
Zn18	Zn	1.393879	0.602001	0.349389
O19	O	0.887642	0.212192	0.114249
O20	O	1.387642	0.712192	0.614249
C21	C	0.755488	0.107772	-0.000027
C22	C	1.255488	0.607772	0.499973
C23	C	0.671471	0.106427	-0.000025
C24	C	1.171471	0.606427	0.499975
C25	C	0.146600	0.167171	-0.000047
C26	C	0.646600	0.667171	0.499953
C27	C	0.225543	0.168430	-0.000051
C28	C	0.725543	0.668430	0.499949
C29	C	0.274161	0.100095	-0.000043
C30	C	0.774161	0.600095	0.499957
C31	C	0.243831	0.030496	-0.000045
C32	C	0.743831	0.530496	0.499955
C33	C	0.164889	0.029238	-0.000051
C34	C	0.664889	0.529238	0.499949
C35	C	0.562197	0.035569	-0.000023
C36	C	1.062197	0.535569	0.499977
C37	C	0.641144	0.036833	-0.000014
C38	C	1.141144	0.536833	0.499986
C39	C	0.622852	0.174762	-0.000023
C40	C	1.122852	0.674762	0.499977
C41	C	0.543909	0.173503	-0.000029
C42	C	1.043909	0.673503	0.499971
C43	C	0.513587	0.103905	-0.000038
C44	C	1.013587	0.603905	0.499962
C45	C	0.427987	0.102541	-0.000037
C46	C	0.927987	0.602541	0.499963
C47	C	0.359759	0.101459	-0.000035
C48	C	0.859759	0.601459	0.499965
C49	C	0.899653	-0.036383	-0.000017
C50	C	1.399653	0.463617	0.499983
C51	C	0.898314	-0.120402	-0.000016
C52	C	1.398314	0.379598	0.499984
C53	C	0.966647	-0.169017	-0.000015
C54	C	1.466647	0.330983	0.499985
C55	C	0.965385	-0.247961	-0.000027
C56	C	1.465385	0.252039	0.499973
C57	C	0.895789	-0.278287	-0.000031
C58	C	1.395789	0.221713	0.499969
C59	C	0.827451	-0.229665	-0.000036
C60	C	1.327451	0.270335	0.499964
C61	C	0.828714	-0.150723	-0.000033
C62	C	1.328714	0.349277	0.499967
C63	C	0.822356	-0.548028	-0.000047
C64	C	1.322356	-0.048028	0.499953
C65	C	0.821098	-0.626976	-0.000045
C66	C	1.321098	-0.126976	0.499955
C67	C	0.959026	-0.645266	-0.000041
C68	C	1.459026	-0.145266	0.499959
C69	C	0.960289	-0.566324	-0.000038
C70	C	1.460289	-0.066324	0.499962
C71	C	0.891952	-0.517709	-0.000051
C72	C	1.391952	-0.017709	0.499949
C73	C	0.893321	-0.432110	-0.000040
C74	C	1.393321	0.067890	0.499960
C75	C	0.894419	-0.363885	-0.000031
C76	C	1.394419	0.136115	0.499969
C77	C	1.032258	0.096233	-0.000034
C78	C	1.532258	0.596233	0.499966
C79	C	1.116275	0.097578	-0.000044
C80	C	1.616275	0.597578	0.499956
C81	C	0.888093	0.240388	-0.000044
C82	C	1.388093	0.740388	0.499956
C83	C	0.889431	0.324406	-0.000054
C84	C	1.389431	0.824406	0.499946
N85	N	0.893864	0.102005	0.356089
N86	N	1.393864	0.602005	0.856089
C87	C	0.939680	0.147857	0.428004
C88	C	1.439680	0.647857	0.928004
C89	C	0.939692	0.147853	0.571887
C90	C	1.439692	0.647853	1.071887
C91	C	0.848065	0.056145	0.571928
C92	C	1.348065	0.556145	1.071928
C93	C	0.848058	0.056144	0.428047
C94	C	1.348058	0.556144	0.928047
N95	N	0.893883	0.102002	0.643853
N96	N	1.393883	0.602002	1.143853
H97	H	0.680728	-0.018817	-0.000011
H98	H	1.180728	0.481183	0.499989
H99	H	0.766711	-0.508455	-0.000056
H100	H	1.266711	-0.008455	0.499944
C101	C	1.041488	0.152465	0.733638
C102	C	1.541488	0.652465	1.233638
C103	C	0.990056	0.198256	0.650933
C104	C	1.490056	0.698256	1.150933
H105	H	1.072585	0.183583	0.782428
H106	H	1.572585	0.683583	1.282428
H107	H	1.014209	0.125165	0.797085
H108	H	1.514209	0.625165	1.297085
H109	H	1.072558	0.117601	0.677483
H110	H	1.572558	0.617601	1.177483
H111	H	0.958981	0.233117	0.707089
H112	H	1.458981	0.733117	1.207089
H113	H	1.017337	0.225569	0.587478
H114	H	1.517337	0.725569	1.087478
H115	H	0.647550	0.231432	-0.000022
H116	H	1.147550	0.731432	0.499978
C117	C	0.051995	-0.033936	-0.000065
C118	C	0.551995	0.466064	0.499935
C119	C	0.131552	-0.047261	-0.000049
C120	C	0.631552	0.452739	0.499951
H121	H	0.031417	-0.081165	-0.000078
H122	H	0.531417	0.418835	0.499922
H123	H	0.035299	-0.005812	0.079639
H124	H	0.535299	0.494188	0.579639
H125	H	0.035316	-0.005802	-0.079784
H126	H	0.535316	0.494198	0.420216
H127	H	0.148231	-0.075390	0.079675
H128	H	0.648231	0.424610	0.579675
H129	H	0.148255	-0.075396	-0.079761
H130	H	0.648255	0.424604	0.420239
C131	C	1.041448	0.152469	0.266158
C132	C	1.541448	0.652469	0.766158
C133	C	0.990033	0.198260	0.348902
C134	C	1.490033	0.698260	0.848902
H135	H	1.072532	0.183588	0.217321
H136	H	1.572532	0.683588	0.717321
H137	H	1.072527	0.117608	0.322281
H138	H	1.572527	0.617608	0.822281
H139	H	1.014151	0.125166	0.202738
H140	H	1.514151	0.625166	0.702738
H141	H	1.017331	0.225558	0.412329
H142	H	1.517331	0.725558	0.912329
H143	H	0.958951	0.233134	0.292774
H144	H	1.458951	0.733134	0.792774
C145	C	0.750122	-0.051333	-0.117543
C146	C	1.250122	0.448667	0.382457
C147	C	0.753600	-0.097281	-0.000035
C148	C	1.253600	0.402719	0.499965
H149	H	0.703746	-0.018345	-0.117551
H150	H	1.203746	0.481655	0.382449
H151	H	0.791746	-0.021979	-0.117531
H152	H	1.291746	0.478021	0.382469
H153	H	0.752502	-0.082518	-0.197243
H154	H	1.252502	0.417482	0.302757
H155	H	0.751226	-0.066097	0.079665
H156	H	1.251226	0.433903	0.579665
H157	H	0.711965	-0.126638	-0.000035
H158	H	1.211965	0.373362	0.499965
H159	H	0.810770	0.018808	0.630533
H160	H	1.310770	0.518808	1.130533
C161	C	0.721325	0.026574	0.383790
C162	C	1.221325	0.526574	0.883790
C163	C	0.797687	0.005743	0.348993
C164	C	1.297687	0.505743	0.848993
H165	H	0.690232	-0.004539	0.334979
H166	H	1.190232	0.495461	0.834979
H167	H	0.714780	0.020010	0.479767
H168	H	1.214780	0.520010	0.979767
H169	H	0.707174	0.078379	0.360201
H170	H	1.207174	0.578379	0.860201
H171	H	0.811839	-0.046060	0.372592
H172	H	1.311839	0.453940	0.872592
H173	H	0.804236	0.012301	0.252995
H174	H	1.304236	0.512301	0.752995
C175	C	0.136455	0.303638	-0.000074
C176	C	0.636455	0.803638	0.499926
C177	C	0.093163	0.242289	-0.000062
C178	C	0.593163	0.742289	0.499938
H179	H	0.103465	0.350013	-0.000096
H180	H	0.603465	0.850013	0.499904
H181	H	0.167617	0.301263	0.079636
H182	H	0.667617	0.801263	0.579636
H183	H	0.167635	0.301250	-0.079786
H184	H	0.667635	0.801250	0.420214
H185	H	0.061987	0.244674	0.079656
H186	H	0.561987	0.744674	0.579656
H187	H	0.061988	0.244665	-0.079780
H188	H	0.561988	0.744665	0.420220
H189	H	0.770785	-0.254362	-0.000047
H190	H	1.270785	0.245638	0.499953
C191	C	0.553514	-0.082392	-0.117507
C192	C	1.053514	0.417608	0.382493
C193	C	0.528878	-0.040935	-0.000016
C194	C	1.028878	0.459065	0.499984
H195	H	0.532947	-0.129627	-0.117493
H196	H	1.032947	0.370373	0.382507
H197	H	0.536817	-0.054267	-0.197210
H198	H	1.036817	0.445733	0.302790
H199	H	0.607488	-0.091407	-0.117485
H200	H	1.107488	0.408593	0.382515
H201	H	0.474905	-0.031915	-0.000044
H202	H	0.974905	0.468085	0.499956
H203	H	0.545571	-0.069066	0.079707
H204	H	1.045571	0.430934	0.579707
C205	C	0.303686	0.249868	-0.117612
C206	C	0.803686	0.749868	0.382388
C207	C	0.258863	0.244937	-0.000088
C208	C	0.758863	0.744937	0.499912
H209	H	0.324247	0.297106	-0.117649
H210	H	0.824247	0.797106	0.382351
H211	H	0.343942	0.209365	-0.117591
H212	H	0.843942	0.709365	0.382409
H213	H	0.273260	0.246490	-0.197301
H214	H	0.773260	0.746490	0.302699
H215	H	0.289290	0.248309	0.079601
H216	H	0.789290	0.748309	0.579601
H217	H	0.218601	0.285451	-0.000097
H218	H	0.718601	0.785451	0.499903
H219	H	1.023320	-0.144333	-0.000004
H220	H	1.523320	0.355667	0.499996
H221	H	1.021028	-0.287541	-0.000023
H222	H	1.521028	0.212459	0.499977
H223	H	0.283422	-0.025143	-0.000047
H224	H	0.783422	0.474857	0.499953
H225	H	1.016961	-0.541638	-0.000029
H226	H	1.516961	-0.041638	0.499971
H227	H	0.764421	-0.651664	-0.000045
H228	H	1.264421	-0.151664	0.499955
C229	C	0.533759	0.309972	-0.000055
C230	C	1.033759	0.809972	0.499945
C231	C	0.490470	0.248619	-0.000045
C232	C	0.990470	0.748619	0.499955
H233	H	0.500766	0.356345	-0.000078
H234	H	1.000766	0.856345	0.499922
H235	H	0.564920	0.307598	0.079655
H236	H	1.064920	0.807598	0.579655
H237	H	0.564939	0.307586	-0.079767
H238	H	1.064939	0.807586	0.420233
H239	H	0.459293	0.251002	0.079673
H240	H	0.959293	0.751002	0.579673
H241	H	0.459295	0.250994	-0.079763
H242	H	0.959295	0.750994	0.420237
C243	C	1.018347	-0.774402	-0.000064
C244	C	1.518347	-0.274402	0.499936
C245	C	1.034147	-0.698707	-0.000049
C246	C	1.534147	-0.198707	0.499951
H247	H	1.064723	-0.807391	-0.000075
H248	H	1.564723	-0.307391	0.499925
H249	H	0.989806	-0.783583	0.079639
H250	H	1.489806	-0.283583	0.579639
H251	H	0.989808	-0.783569	-0.079783
H252	H	1.489808	-0.283569	0.420217
H253	H	1.062682	-0.689538	0.079675
H254	H	1.562682	-0.189538	0.579675
H255	H	1.062700	-0.689522	-0.079761
H256	H	1.562700	-0.189522	0.420239
