data_functionalizedCrystal
_audit_creation_method	'MofGen! by Chris Wilmer'
_symmetry_space_group_name_H-M	'P1'
_symmetry_Int_Tables_number	1
_symmetry_cell_setting	triclinic
loop_
_symmetry_equiv_pos_as_xyz
  x,y,z
_cell_length_a	13.635800
_cell_length_b	13.168018
_cell_length_c	11.102300
_cell_angle_alpha	82.076085
_cell_angle_beta	108.605850
_cell_angle_gamma	74.244000
loop_
_atom_site_label
_atom_site_type_symbol
_atom_site_fract_x
_atom_site_fract_y
_atom_site_fract_z
V1	V	2.053692	-0.148894	0.413815
O2	O	2.035381	0.007155	0.387870
O3	O	2.040043	-0.295232	0.428362
O4	O	2.042114	-0.146603	0.586366
O5	O	2.033295	-0.142502	0.228772
V6	V	2.292503	-0.130229	0.389571
O7	O	2.190793	-0.189838	0.466995
O8	O	2.380501	-0.089285	0.336391
O9	O	2.194549	0.016109	0.375024
O10	O	2.369512	-0.286278	0.415516
O11	O	2.371598	-0.136620	0.574614
O12	O	2.192477	-0.132519	0.217020
V13	V	2.553692	-0.148894	0.413815
O14	O	2.535381	0.007155	0.387870
O15	O	2.540043	-0.295232	0.428362
O16	O	2.542114	-0.146603	0.586366
O17	O	2.533295	-0.142502	0.228772
V18	V	2.792503	-0.130229	0.389571
O19	O	2.690793	-0.189838	0.466995
O20	O	2.880501	-0.089285	0.336391
O21	O	2.694549	0.016109	0.375024
O22	O	2.869512	-0.286278	0.415516
O23	O	2.871598	-0.136620	0.574614
O24	O	2.692477	-0.132519	0.217020
C25	C	1.964701	-0.330906	0.426317
C26	C	1.994269	-0.450539	0.439361
C27	C	2.065810	-0.634522	0.575938
C28	C	2.038032	-0.522116	0.563687
C29	C	1.978287	-0.491373	0.327278
C30	C	2.006065	-0.603779	0.339530
C31	C	2.049825	-0.675349	0.463864
C32	C	2.077596	-0.787756	0.476113
C33	C	2.017857	-0.757011	0.239706
C34	C	1.990079	-0.644606	0.227455
C35	C	1.967343	-0.141314	0.627866
C36	C	1.998589	-0.140410	0.769041
C37	C	2.101561	0.051778	0.377066
C38	C	2.061613	0.171410	0.364030
C39	C	2.098919	-0.137812	0.175514
C40	C	2.057293	-0.138711	0.034337
C41	C	2.464701	-0.330906	0.426317
C42	C	2.494269	-0.450539	0.439361
C43	C	2.467343	-0.141314	0.627866
C44	C	2.498589	-0.140410	0.769041
C45	C	2.105199	-0.145360	0.842474
C46	C	2.134550	-0.144506	0.975121
C47	C	1.950672	-0.133757	0.960893
C48	C	1.921320	-0.134603	0.828246
C49	C	2.601561	0.051778	0.377066
C50	C	2.561613	0.171410	0.364030
C51	C	2.598919	-0.137812	0.175514
C52	C	2.557293	-0.138711	0.034337
C53	C	2.600095	-0.512207	0.452484
C54	C	2.627897	-0.624618	0.464760
C55	C	2.549868	-0.675358	0.463904
C56	C	2.444033	-0.613682	0.450784
C57	C	2.416236	-0.501274	0.438517
C58	C	2.628281	0.233077	0.350911
C59	C	2.590752	0.345488	0.338641
C60	C	2.486559	0.396227	0.339500
C61	C	2.419886	0.334552	0.352617
C62	C	2.457412	0.222145	0.364877
C63	C	2.605199	-0.145360	0.842474
C64	C	2.634550	-0.144506	0.975121
C65	C	2.450672	-0.133757	0.960893
C66	C	2.421320	-0.134603	0.828246
H67	H	2.113222	-0.846028	0.577352
C68	C	2.384075	0.154319	0.379329
H69	H	2.316655	0.200643	0.378098
H70	H	2.369819	0.120064	0.308795
H71	H	2.420500	0.100418	0.460033
H72	H	2.330059	-0.451071	0.427826
C73	C	2.365757	-0.127626	1.026094
H74	H	2.298078	-0.124864	0.963378
H75	H	2.391898	-0.190204	1.096515
H76	H	2.354915	-0.064084	1.058614
H77	H	1.942666	-0.433083	0.226053
H78	H	2.645056	0.395688	0.327965
H79	H	2.456016	0.487757	0.329516
H80	H	2.101430	-0.692795	0.677175
C81	C	1.865691	-0.127385	1.026027
H82	H	1.898443	-0.127602	1.115549
H83	H	1.804736	-0.062270	0.982325
H84	H	1.841480	-0.188373	1.020409
H85	H	2.334500	-0.130564	0.768452
H86	H	2.380509	-0.655012	0.450089
H87	H	1.954451	-0.586319	0.126226
H88	H	2.663643	-0.470909	0.453175
C89	C	2.690183	-0.151738	0.777343
H90	H	2.657439	-0.151544	0.687828
H91	H	2.714403	-0.090760	0.782960
H92	H	2.751136	-0.216862	0.821055
C93	C	2.055579	-0.477201	0.686962
H94	H	2.032767	-0.400006	0.661862
H95	H	2.013583	-0.498441	0.733042
H96	H	2.131219	-0.505436	0.742030
C97	C	2.000288	-0.801924	0.116420
H98	H	2.023107	-0.879119	0.141520
H99	H	1.924653	-0.773680	0.061362
H100	H	2.042289	-0.780694	0.070330
H101	H	2.168117	-0.150086	0.794273
C102	C	2.744309	-0.692439	0.479172
H103	H	2.786786	-0.646112	0.477900
H104	H	2.778099	-0.746345	0.559863
H105	H	2.739856	-0.726686	0.408620
C106	C	2.742891	0.177286	0.349953
H107	H	2.777204	0.230127	0.340366
H108	H	2.786429	0.123831	0.430055
H109	H	2.735740	0.143501	0.278815
C110	C	2.305277	0.390371	0.353563
H111	H	2.270933	0.337553	0.363122
H112	H	2.312429	0.424164	0.424687
H113	H	2.261756	0.443825	0.273446
H114	H	2.721360	-0.148536	1.034905
H115	H	1.834500	-0.130564	0.768452
H116	H	2.221360	-0.148536	1.034905
H117	H	2.572516	-0.766889	0.473893
