data_functionalizedCrystal
_audit_creation_method	'MofGen! by Chris Wilmer'
_symmetry_space_group_name_H-M	'P1'
_symmetry_Int_Tables_number	1
_symmetry_cell_setting	triclinic
loop_
_symmetry_equiv_pos_as_xyz
  x,y,z
_cell_length_a	12.759401
_cell_length_b	12.759400
_cell_length_c	12.759393
_cell_angle_alpha	89.968231
_cell_angle_beta	89.982620
_cell_angle_gamma	90.014845
loop_
_atom_site_label
_atom_site_type_symbol
_atom_site_fract_x
_atom_site_fract_y
_atom_site_fract_z
Zn1	Zn	1.606244	-0.418198	-0.593981
Zn2	Zn	1.606142	-0.593917	-0.418301
Zn3	Zn	1.430549	-0.418253	-0.418321
Zn4	Zn	1.430535	-0.593836	-0.593943
O5	O	1.518367	-0.506051	-0.506137
O6	O	1.753251	-0.441518	-0.570685
O7	O	1.582812	-0.570672	-0.271283
O8	O	1.453905	-0.271225	-0.441647
O9	O	1.753176	-0.570618	-0.441614
O10	O	1.582987	-0.271184	-0.570704
O11	O	1.453805	-0.441613	-0.271297
O12	O	1.283526	-0.441534	-0.441609
O13	O	1.453879	-0.570480	-0.740969
O14	O	1.283516	-0.570533	-0.570638
O15	O	1.582972	-0.441439	-0.740997
O16	O	1.582798	-0.740927	-0.441577
O17	O	1.453780	-0.740868	-0.570620
C18	C	1.245400	-0.506032	-0.506122
C19	C	1.128623	-0.506049	-0.506141
C20	C	1.073783	-0.573326	-0.573215
C21	C	0.964059	-0.573340	-0.573227
C22	C	0.964025	-0.438795	-0.439081
C23	C	1.073747	-0.438777	-0.439075
C24	C	1.128659	-0.640598	-0.640281
C25	C	1.073819	-0.707882	-0.707360
C26	C	0.964095	-0.707895	-0.707371
C27	C	0.909211	-0.640625	-0.640304
C28	C	1.518305	-0.779018	-0.506115
C29	C	1.518374	-0.895795	-0.506140
C30	C	1.585629	-0.950653	-0.439022
C31	C	1.585693	-1.060377	-0.439054
C32	C	1.451240	-1.060375	-0.573327
C33	C	1.451182	-0.950653	-0.573299
C34	C	1.652821	-0.895795	-0.371864
C35	C	1.720080	-0.950654	-0.304739
C36	C	1.720144	-1.060378	-0.304771
C37	C	1.652950	-1.115243	-0.371929
C38	C	1.792401	-0.506071	-0.506152
C39	C	1.909177	-0.506080	-0.506158
C40	C	1.518436	-0.505944	-0.780170
C41	C	1.518465	-0.505898	-0.896947
C42	C	1.518459	-0.232018	-0.506182
C43	C	1.518497	-0.115241	-0.506201
C44	C	1.451319	-0.438685	-0.951822
C45	C	1.451351	-0.438653	-1.061546
C46	C	1.585683	-0.573052	-1.061510
C47	C	1.585645	-0.573088	-0.951788
C48	C	1.384139	-0.371495	-0.896981
C49	C	1.316989	-0.304275	-0.951857
C50	C	1.317021	-0.304244	-1.061581
C51	C	1.384203	-0.371432	-1.116430
C52	C	1.518360	-0.506082	-0.233169
C53	C	1.518534	-0.505831	-0.116393
H54	H	1.118399	-0.383986	-0.384466
O55	O	0.910552	-0.373563	-0.373959
C56	C	0.741502	-0.313937	-0.314546
C57	C	0.801927	-0.387877	-0.388339
H58	H	0.653668	-0.325468	-0.326163
H59	H	0.762969	-0.332292	-0.229776
H60	H	0.763146	-0.229247	-0.333121
H61	H	0.780315	-0.472592	-0.369859
H62	H	0.780454	-0.369431	-0.473087
H63	H	1.652773	-0.806452	-0.371827
O64	O	1.785252	-0.897200	-0.239543
C65	C	1.844790	-0.728169	-0.180029
C66	C	1.770909	-0.788570	-0.253900
H67	H	1.833234	-0.640332	-0.191626
H68	H	1.826397	-0.749752	-0.095280
H69	H	1.929497	-0.749719	-0.198545
H70	H	1.686177	-0.767053	-0.235478
H71	H	1.789392	-0.766982	-0.338626
H72	H	1.653016	-1.204588	-0.371958
H73	H	1.396533	-1.105055	-0.628002
H74	H	1.384220	-0.371404	-1.205774
O75	O	1.385798	-0.897246	-0.638351
C76	C	1.243838	-0.773515	-0.652342
C77	C	1.317832	-0.833912	-0.578545
H78	H	1.188854	-0.722312	-0.604018
H79	H	1.291962	-0.721995	-0.707288
H80	H	1.195870	-0.831594	-0.700362
H81	H	1.365816	-0.775908	-0.530457
H82	H	1.269648	-0.885447	-0.523668
O83	O	1.650773	-0.638341	-0.898313
C84	C	1.710288	-0.697908	-0.729259
C85	C	1.636463	-0.623969	-0.789688
H86	H	1.698759	-0.686298	-0.641426
H87	H	1.691815	-0.782640	-0.750732
H88	H	1.795008	-0.679472	-0.750892
H89	H	1.551718	-0.642310	-0.768087
H90	H	1.655026	-0.539259	-0.768210
H91	H	1.774917	-1.105040	-0.250123
O92	O	1.383940	-0.371426	-0.790397
C93	C	1.310239	-0.297679	-0.632958
C94	C	1.310336	-0.297667	-0.753662
H95	H	1.250753	-0.238036	-0.603221
H96	H	1.288334	-0.379013	-0.603089
H97	H	1.391628	-0.275947	-0.603203
H98	H	1.228973	-0.319354	-0.783506
H99	H	1.332301	-0.216324	-0.783459
O100	O	1.251674	-0.239107	-1.114932
C101	C	1.109901	-0.224921	-1.238850
C102	C	1.183826	-0.298812	-1.178483
H103	H	1.055042	-0.273162	-1.290262
H104	H	1.061806	-0.176932	-1.180845
H105	H	1.158187	-0.169952	-1.290189
H106	H	1.135621	-0.353845	-1.127142
H107	H	1.231925	-0.346727	-1.236544
H108	H	1.262286	-0.249578	-0.907192
H109	H	1.218002	-0.640597	-0.640277
H110	H	0.919447	-0.762674	-0.761998
O111	O	1.127244	-0.773076	-0.772561
C112	C	1.251128	-0.787358	-0.914414
C113	C	1.190713	-0.713410	-0.840621
H114	H	1.302441	-0.739147	-0.969474
H115	H	1.302542	-0.842214	-0.866137
H116	H	1.193062	-0.835467	-0.962310
H117	H	1.248703	-0.665233	-0.792709
H118	H	1.139284	-0.658623	-0.888958
H119	H	0.819867	-0.640632	-0.640328
H120	H	1.640381	-0.627752	-1.106176
