data_functionalizedCrystal
_audit_creation_method	'MofGen! by Chris Wilmer'
_symmetry_space_group_name_H-M	'P1'
_symmetry_Int_Tables_number	1
_symmetry_cell_setting	triclinic
loop_
_symmetry_equiv_pos_as_xyz
  x,y,z
_cell_length_a	31.640172
_cell_length_b	19.379189
_cell_length_c	31.640172
_cell_angle_alpha	52.491044
_cell_angle_beta	89.999175
_cell_angle_gamma	52.456576
loop_
_atom_site_label
_atom_site_type_symbol
_atom_site_fract_x
_atom_site_fract_y
_atom_site_fract_z
Zr1	Zr	0.246063	1.051496	-0.216375
O2	O	0.147864	1.251923	-0.314522
O3	O	0.297463	0.851065	-0.165020
O4	O	0.266755	1.051472	-0.283853
O5	O	0.178569	1.051537	-0.126144
O6	O	0.336314	1.051455	-0.283853
O7	O	0.178572	1.051517	-0.195689
O8	O	0.391245	0.692965	-0.071282
O9	O	0.123638	1.410027	-0.338715
O10	O	0.345566	0.933494	-0.168812
O11	O	0.293654	0.933521	-0.116911
O12	O	0.257499	1.169473	-0.256823
O13	O	0.205586	1.169500	-0.204922
Zr14	Zr	0.356998	1.051502	-0.105459
Zr15	Zr	0.357002	1.051470	-0.216375
Zr16	Zr	0.246060	1.051527	-0.105458
Zr17	Zr	0.207427	1.303653	-0.254959
Zr18	Zr	0.395634	0.799344	-0.066874
O19	O	0.305599	1.251932	-0.156814
O20	O	0.305603	1.251887	-0.314523
O21	O	0.147859	1.251969	-0.156813
O22	O	0.455198	0.851074	-0.007311
O23	O	0.455203	0.851029	-0.165020
O24	O	0.297458	0.851111	-0.007310
O25	O	0.424492	1.051460	-0.195690
O26	O	0.336307	1.051526	-0.037980
O27	O	0.266748	1.051542	-0.037980
O28	O	0.424490	1.051480	-0.126145
O29	O	0.211819	1.410007	-0.338715
O30	O	0.391242	0.692991	0.016882
O31	O	0.479423	0.692970	0.016882
O32	O	0.479426	0.692945	-0.071282
O33	O	0.123636	1.410052	-0.250551
O34	O	0.211817	1.410032	-0.250551
O35	O	0.345563	0.933524	-0.065011
O36	O	0.397475	0.933497	-0.116912
O37	O	0.309408	1.169476	-0.204922
O38	O	0.257496	1.169503	-0.153021
C39	C	0.349859	0.736088	-0.112653
C40	C	0.366261	0.629041	-0.096273
C41	C	0.161991	0.711977	-0.300369
C42	C	0.177435	0.611304	-0.284908
C43	C	0.280745	0.437232	-0.181648
C44	C	0.265308	0.537891	-0.197098
C45	C	0.205931	0.675259	-0.256461
C46	C	0.309247	0.501174	-0.153190
C47	C	0.293813	0.601825	-0.168641
C48	C	0.234439	0.739193	-0.228001
C49	C	0.190496	0.775910	-0.271912
C50	C	0.368626	0.363804	-0.093830
C51	C	0.412565	0.327087	-0.049921
C52	C	0.397129	0.427739	-0.065370
C53	C	0.337756	0.565107	-0.124730
C54	C	0.441072	0.391022	-0.021460
C55	C	0.425638	0.491673	-0.036911
C56	C	0.322322	0.665759	-0.140182
C57	C	0.162764	1.051531	-0.160916
C58	C	0.115668	1.051542	-0.160916
C59	C	-0.176326	1.051463	-0.199225
C60	C	-0.353310	1.051446	-0.199226
O61	O	-0.376172	1.051376	-0.231788
N62	N	-0.375442	1.051460	-0.160914
C63	C	-0.353322	1.051469	-0.122596
O64	O	-0.376203	1.051466	-0.090004
C65	C	-0.176336	1.051476	-0.122591
C66	C	-0.154211	1.051476	-0.160911
C67	C	-0.154200	1.051462	-0.237541
C68	C	-0.109960	1.051473	-0.237543
C69	C	-0.087845	1.051487	-0.199229
C70	C	-0.109970	1.051488	-0.160913
C71	C	-0.154213	1.051476	-0.084270
C72	C	-0.109962	1.051474	-0.084271
C73	C	-0.087837	1.051474	-0.122590
C74	C	-0.043614	1.051513	-0.122601
N75	N	-0.021482	1.051499	-0.160913
C76	C	-0.043597	1.051486	-0.199227
C77	C	-0.446244	1.051468	-0.122602
C78	C	-0.490491	1.051468	-0.122604
C79	C	-0.490475	1.051443	-0.199233
C80	C	-0.446230	1.051452	-0.199235
C81	C	-0.424112	1.051454	-0.160914
C82	C	0.049311	1.051512	-0.199229
C83	C	0.093553	1.051529	-0.199230
C84	C	0.093535	1.051547	-0.122598
C85	C	0.049294	1.051537	-0.122599
C86	C	0.027185	1.051515	-0.160917
O87	O	-0.020719	1.051567	-0.090051
O88	O	-0.020698	1.051458	-0.231803
C89	C	-0.220566	1.051451	-0.199223
C90	C	-0.242692	1.051453	-0.160907
C91	C	-0.220577	1.051466	-0.122593
C92	C	-0.286939	1.051454	-0.160909
C93	C	-0.309054	1.051440	-0.199223
C94	C	-0.286922	1.051427	-0.237535
C95	C	-0.242682	1.051438	-0.237537
C96	C	-0.242709	1.051480	-0.084281
C97	C	-0.286950	1.051470	-0.084282
C98	C	-0.309065	1.051457	-0.122596
C99	C	0.440298	1.051466	-0.160917
C100	C	0.487394	1.051455	-0.160918
C101	C	0.301535	1.051459	-0.299656
C102	C	0.301536	1.051445	-0.346743
C103	C	0.253203	1.366909	-0.209180
C104	C	0.236801	1.473956	-0.225560
C105	C	0.255564	1.174690	-0.684729
C106	C	0.255560	1.174714	-0.861728
O107	O	0.216483	1.279474	-0.923685
N108	N	0.301529	1.051536	-0.837918
C109	C	0.347505	0.928343	-0.769852
O110	O	0.386609	0.823574	-0.753662
C111	C	0.347511	0.928321	-0.592854
C112	C	0.301535	1.051507	-0.616670
C113	C	0.209591	1.297866	-0.708541
C114	C	0.209590	1.297859	-0.664293
C115	C	0.255561	1.174676	-0.596234
C116	C	0.301533	1.051500	-0.572422
C117	C	0.393489	0.805130	-0.524790
C118	C	0.393487	0.805136	-0.480542
C119	C	0.347511	0.928321	-0.504357
C120	C	0.347503	0.928310	-0.460115
N121	N	0.301534	1.051488	-0.483926
C122	C	0.255563	1.174671	-0.551985
C123	C	0.347498	0.928364	-0.862782
C124	C	0.347496	0.928369	-0.907031
C125	C	0.255552	1.174740	-0.998904
C126	C	0.255552	1.174733	-0.954653
C127	C	0.301529	1.051542	-0.886592
C128	C	0.255564	1.174647	-0.459058
C129	C	0.255565	1.174628	-0.414803
C130	C	0.347512	0.928258	-0.322934
C131	C	0.347508	0.928276	-0.367185
C132	C	0.301532	1.051481	-0.435250
O133	O	0.386565	0.823605	-0.398152
O134	O	0.216475	1.279425	-0.568162
C135	C	0.255565	1.174697	-0.728977
C136	C	0.301537	1.051521	-0.705165
C137	C	0.347508	0.928338	-0.637106
C138	C	0.301535	1.051527	-0.749414
C139	C	0.255564	1.174710	-0.817473
C140	C	0.209595	1.297887	-0.841283
C141	C	0.209594	1.297880	-0.797036
C142	C	0.393477	0.805161	-0.613296
C143	C	0.393474	0.805178	-0.657547
C144	C	0.347503	0.928361	-0.725606
C145	C	0.301527	1.051538	-0.022177
C146	C	0.301525	1.051552	0.024910
C147	C	0.488626	0.736056	-0.112654
C148	C	0.552124	0.628998	-0.096274
C149	C	0.349855	0.736128	0.026086
C150	C	0.366255	0.629094	0.089554
C151	C	0.488621	0.736096	0.026086
C152	C	0.552118	0.629051	0.089553
C153	C	0.114440	1.366902	-0.347919
C154	C	0.050944	1.473946	-0.411386
C155	C	0.114436	1.366941	-0.209179
C156	C	0.050938	1.474000	-0.225559
C157	C	0.253207	1.366869	-0.347920
C158	C	0.236806	1.473903	-0.411387
C159	C	0.554847	0.578720	-0.115678
C160	C	0.614504	0.478142	-0.100300
C161	C	0.671438	0.427835	-0.065513
C162	C	0.668712	0.478122	-0.046110
C163	C	0.609055	0.578706	-0.061492
C164	C	0.401053	0.578832	0.146455
C165	C	0.416460	0.478276	0.206091
C166	C	0.397071	0.427978	0.208826
C167	C	0.362268	0.478251	0.151918
C168	C	0.346859	0.578811	0.092282
C169	C	0.609039	0.578767	0.092266
C170	C	0.668704	0.478201	0.151893
C171	C	0.671446	0.427914	0.208808
C172	C	0.614518	0.478207	0.206093
C173	C	0.554854	0.578778	0.146465
C174	C	-0.005980	1.524242	-0.414101
C175	C	-0.065648	1.624839	-0.473733
C176	C	-0.068392	1.675132	-0.530649
C177	C	-0.011463	1.624832	-0.527933
C178	C	0.048204	1.524244	-0.468302
C179	C	0.048213	1.524287	-0.206162
C180	C	-0.011448	1.624894	-0.221556
C181	C	-0.068383	1.675204	-0.256345
C182	C	-0.065656	1.624912	-0.275745
C183	C	-0.005997	1.524314	-0.260355
C184	C	0.256205	1.524169	-0.414100
C185	C	0.240807	1.624725	-0.473728
C186	C	0.206006	1.675021	-0.530643
C187	C	0.186608	1.624745	-0.527927
C188	C	0.202010	1.524183	-0.468299
H189	H	0.141651	0.641219	-0.320670
H190	H	0.094551	1.483294	-0.466098
Br191	Br	-0.002309	1.456073	-0.286682
Br192	Br	0.463693	0.410068	0.283313
H193	H	0.284541	1.483234	-0.367764
Br194	Br	0.417989	0.291502	0.289767
Br195	Br	0.752397	0.291326	-0.044642
Br196	Br	0.618188	0.409914	-0.126637
H197	H	0.346485	0.437283	0.154154
Br198	Br	0.175671	1.455988	-0.464630
H199	H	0.430914	0.704848	-0.557880
Br200	Br	0.267136	1.692941	-0.477399
H201	H	0.606847	0.619629	-0.045685
H202	H	0.031315	1.051491	-0.230430
Br203	Br	0.745953	0.409964	0.155564
H204	H	0.606819	0.619697	0.045929
Br205	Br	0.123574	1.051537	-0.251241
Br206	Br	-0.015132	1.693122	-0.195219
Br207	Br	0.109908	0.962347	-0.352471
H208	H	0.508493	0.619679	-0.144010
H209	H	0.318526	0.619722	0.045955
Br210	Br	-0.079934	1.051463	-0.289546
H211	H	0.273960	0.777616	-0.188510
H212	H	-0.116957	1.757117	-0.268873
Br213	Br	-0.212662	1.051440	-0.289545
Br214	Br	0.185107	1.811500	-0.611563
Br215	Br	0.409892	0.761158	-0.770412
Br216	Br	0.081403	0.898414	-0.380929
Br217	Br	0.361326	0.250802	-0.101089
H218	H	0.094566	1.483332	-0.177831
Br219	Br	0.493147	0.140658	0.030637
H220	H	-0.172201	1.051446	-0.268740
Br221	Br	0.139372	1.693029	-0.605177
Br222	Br	-0.520525	1.051502	-0.070609
Br223	Br	-0.142930	1.693201	-0.322956
Br224	Br	-0.002274	1.456006	-0.336867
Br225	Br	0.409896	0.761089	-0.230562
Br226	Br	0.213494	0.875797	-0.248977
Br227	Br	0.752425	0.291423	0.289728
Br228	Br	0.745987	0.409830	0.001102
Br229	Br	-0.212701	1.051496	-0.032278
Br230	Br	0.409884	0.761181	-0.874702
H231	H	-0.304938	1.051423	-0.268734
Br232	Br	0.427378	0.647064	0.142762
H233	H	0.381198	0.281853	-0.081260
H234	H	0.616761	0.437248	0.252441
H235	H	0.489420	0.279166	0.026869
H236	H	0.508511	0.619706	0.144265
H237	H	-0.111995	1.665776	-0.475932
H238	H	0.218113	1.275042	-0.974051
H239	H	-0.116980	1.757037	-0.579200
H240	H	0.461417	0.461771	-0.001155
Br241	Br	-0.416208	1.051452	-0.251242
H242	H	-0.013705	1.665794	-0.574281
H243	H	-0.508489	1.051435	-0.230431
H244	H	-0.172220	1.051475	-0.053066
Br245	Br	-0.416232	1.051473	-0.070592
Br246	Br	-0.079944	1.051468	-0.032257
Br247	Br	0.019259	1.051564	-0.070602
H248	H	0.384939	0.827968	-0.347792
Br249	Br	0.123554	1.051570	-0.070604
H250	H	-0.304965	1.051480	-0.053080
H251	H	0.218123	1.274946	-0.434202
Br252	Br	0.193168	1.341854	-0.551426
Br253	Br	0.455888	0.637938	-0.492454
H254	H	0.172156	1.398182	-0.763957
Br255	Br	0.193164	1.341916	-1.091278
Br256	Br	0.147179	1.465049	-0.696624
Br257	Br	0.147189	1.465071	-0.829367
Br258	Br	0.455896	0.637937	-0.388171
H259	H	0.430912	0.704857	-0.638144
Br260	Br	0.147203	1.465063	-0.933658
