data_functionalizedCrystal
_audit_creation_method	'MofGen! by Chris Wilmer'
_symmetry_space_group_name_H-M	'P1'
_symmetry_Int_Tables_number	1
_symmetry_cell_setting	triclinic
loop_
_symmetry_equiv_pos_as_xyz
  x,y,z
_cell_length_a	9.065218
_cell_length_b	15.944493
_cell_length_c	8.140239
_cell_angle_alpha	90.002357
_cell_angle_beta	89.997198
_cell_angle_gamma	84.245465
loop_
_atom_site_label
_atom_site_type_symbol
_atom_site_fract_x
_atom_site_fract_y
_atom_site_fract_z
O1	O	1.957474	0.123164	-0.136593
O2	O	2.290807	0.456497	0.196740
O3	O	2.624141	0.789830	0.530074
O4	O	1.527949	0.133266	-0.136593
O5	O	1.861283	0.466599	0.196740
O6	O	2.194616	0.799933	0.530073
O7	O	1.754486	0.006026	-0.136607
O8	O	2.087819	0.339359	0.196726
O9	O	2.421152	0.672693	0.530060
O10	O	1.730938	0.250404	-0.136580
O11	O	2.064271	0.583737	0.196754
O12	O	2.397605	0.917070	0.530087
O13	O	1.754473	0.006024	0.136620
O14	O	2.087807	0.339358	0.469953
O15	O	2.421140	0.672691	0.803287
O16	O	1.527937	0.133265	0.136634
O17	O	1.861270	0.466598	0.469967
O18	O	2.194604	0.799931	0.803300
O19	O	1.957462	0.123162	0.136634
O20	O	2.290795	0.456495	0.469967
O21	O	2.624128	0.789829	0.803301
Zn22	Zn	1.742697	0.128213	0.180014
Zn23	Zn	2.076031	0.461546	0.513348
Zn24	Zn	2.409364	0.794880	0.846681
Zn25	Zn	1.742714	0.128215	-0.179974
Zn26	Zn	2.076047	0.461548	0.153359
Zn27	Zn	2.409380	0.794882	0.486693
O28	O	1.730925	0.250402	0.136647
O29	O	2.064259	0.583736	0.469981
O30	O	2.397592	0.917069	0.803314
C31	C	1.472980	0.132294	0.000020
C32	C	1.806313	0.465628	0.333353
C33	C	2.139646	0.798961	0.666686
C34	C	1.309206	0.129391	0.000018
C35	C	1.642539	0.462725	0.333352
C36	C	1.975872	0.796058	0.666685
C37	C	1.753517	-0.025277	-0.000000
C38	C	2.086850	0.308056	0.333333
C39	C	2.420184	0.641390	0.666666
C40	C	1.750632	-0.118547	-0.000021
C41	C	2.083965	0.214786	0.333312
C42	C	2.417298	0.548119	0.666645
C43	C	1.883976	-0.353297	0.000010
C44	C	2.217309	-0.019964	0.333343
C45	C	2.550643	0.313370	0.666677
C46	C	1.812074	-0.404409	-0.134704
C47	C	2.145408	-0.071076	0.198629
C48	C	2.478741	0.262258	0.531962
C49	C	1.745285	-0.289309	-0.000001
C50	C	2.078618	0.044024	0.333332
C51	C	2.411952	0.377358	0.666665
C52	C	1.812030	-0.404387	0.134676
C53	C	2.145363	-0.071054	0.468009
C54	C	2.478697	0.262280	0.801343
C55	C	1.740131	-0.454258	0.000025
C56	C	2.073464	-0.120924	0.333359
C57	C	2.406798	0.212409	0.666692
C58	C	1.673421	-0.339192	-0.134827
C59	C	2.006754	-0.005859	0.198506
C60	C	2.340088	0.327474	0.531840
C61	C	1.673397	-0.339167	0.134675
C62	C	2.006730	-0.005833	0.468008
C63	C	2.340063	0.327500	0.801341
C64	C	1.601393	-0.390247	-0.000073
C65	C	1.934727	-0.056913	0.333261
C66	C	2.268060	0.276420	0.666594
C67	C	1.748258	-0.194287	-0.000018
C68	C	2.081592	0.139047	0.333315
C69	C	2.414925	0.472380	0.666649
C70	C	1.737147	-0.549277	0.000030
C71	C	2.070480	-0.215944	0.333364
C72	C	2.403814	0.117389	0.666697
C73	C	2.012431	0.124134	0.000017
C74	C	2.345765	0.457467	0.333351
C75	C	2.679098	0.790800	0.666684
C76	C	2.176205	0.127037	0.000008
C77	C	2.509539	0.460370	0.333341
C78	C	2.842872	0.793704	0.666674
C79	C	1.731894	0.281705	0.000037
C80	C	2.065227	0.615038	0.333371
C81	C	2.398561	0.948372	0.666704
C82	C	1.734780	0.374976	0.000047
C83	C	2.068113	0.708309	0.333381
C84	C	2.401446	1.041642	0.666714
N85	N	1.742697	0.128211	0.425697
N86	N	2.076030	0.461545	0.759030
N87	N	2.409364	0.794878	1.092364
N88	N	1.742726	0.128210	-0.425657
N89	N	2.076059	0.461544	-0.092323
N90	N	2.409393	0.794877	0.241010
H91	H	2.003441	-0.336764	-0.000126
H92	H	2.336774	-0.003430	0.333208
H93	H	2.670107	0.329903	0.666541
H94	H	1.614889	-0.310816	-0.248839
H95	H	1.948222	0.022518	0.084494
H96	H	2.281555	0.355851	0.417828
H97	H	1.870651	-0.432910	-0.248597
H98	H	2.203984	-0.099577	0.084736
H99	H	2.537317	0.233756	0.418070
H100	H	1.481836	-0.406618	-0.000146
H101	H	1.815169	-0.073285	0.333187
H102	H	2.148503	0.260048	0.666520
Br103	Br	1.575880	-0.291612	0.324513
Br104	Br	1.909213	0.041721	0.657847
Br105	Br	2.242547	0.375054	0.991180
Br106	Br	1.909687	-0.451869	0.324489
Br107	Br	2.243020	-0.118536	0.657823
Br108	Br	2.576353	0.214798	0.991156
