data_functionalizedCrystal
_audit_creation_method	'MofGen! by Chris Wilmer'
_symmetry_space_group_name_H-M	'P1'
_symmetry_Int_Tables_number	1
_symmetry_cell_setting	triclinic
loop_
_symmetry_equiv_pos_as_xyz
  x,y,z
_cell_length_a	10.268362
_cell_length_b	14.853567
_cell_length_c	14.853567
_cell_angle_alpha	96.365070
_cell_angle_beta	89.997551
_cell_angle_gamma	89.998356
loop_
_atom_site_label
_atom_site_type_symbol
_atom_site_fract_x
_atom_site_fract_y
_atom_site_fract_z
O1	O	0.108199	-1.196365	0.117700
O2	O	0.608199	-0.696365	0.617700
O3	O	0.108220	-0.933906	0.131721
O4	O	0.608220	-0.433906	0.631721
O5	O	0.108213	-1.072146	-0.006519
O6	O	0.608213	-0.572146	0.493481
O7	O	0.108206	-1.058125	0.255940
O8	O	0.608206	-0.558125	0.755940
O9	O	-0.108388	-1.072133	-0.006515
O10	O	0.391612	-0.572133	0.493485
O11	O	-0.108380	-0.933893	0.131726
O12	O	0.391620	-0.433893	0.631726
O13	O	-0.108401	-1.196352	0.117704
O14	O	0.391599	-0.696352	0.617704
Cu15	Cu	-0.128168	-1.065121	0.124716
Cu16	Cu	0.371832	-0.565121	0.624716
Cu17	Cu	0.127987	-1.065137	0.124710
Cu18	Cu	0.627987	-0.565137	0.624710
O19	O	-0.108394	-1.058112	0.255945
O20	O	0.391606	-0.558112	0.755945
C21	C	-0.000077	-0.900311	0.131088
C22	C	0.499923	-0.400311	0.631088
C23	C	-0.000069	-0.800227	0.129184
C24	C	0.499931	-0.300227	0.629184
N25	N	-0.308334	-1.065117	0.124719
N26	N	0.191666	-0.565117	0.624719
C27	C	-0.426177	-1.065123	0.124719
C28	C	0.073823	-0.565123	0.624719
C29	C	-0.574014	-1.065135	0.124711
C30	C	-0.074014	-0.565135	0.624711
C31	C	-0.000083	-1.071504	-0.040106
C32	C	0.499917	-0.571504	0.459894
C33	C	-0.000072	-1.069601	-0.140189
C34	C	0.499928	-0.569601	0.359811
N35	N	0.308153	-1.065148	0.124699
N36	N	0.808153	-0.565148	0.624699
C37	C	-0.000101	-1.229947	0.118337
C38	C	0.499899	-0.729947	0.618337
C39	C	-0.000101	-1.330031	0.120241
C40	C	0.499899	-0.830031	0.620241
C41	C	-0.000096	-0.387693	0.039019
C42	C	0.499904	0.112307	0.539019
C43	C	-0.000099	-0.366412	0.203251
C44	C	0.499901	0.133588	0.703251
C45	C	-0.000094	-0.460446	0.205042
C46	C	0.499906	0.039554	0.705042
C47	C	-0.000089	-0.518108	0.123819
C48	C	0.499911	-0.018108	0.623819
C49	C	-0.000088	-0.481736	0.040806
C50	C	0.499912	0.018264	0.540806
C51	C	-0.000083	-0.496825	0.288053
C52	C	0.499917	0.003175	0.788053
C53	C	-0.000077	-0.590864	0.289846
C54	C	0.499923	-0.090864	0.789846
C55	C	-0.000081	-0.648528	0.208623
C56	C	0.499919	-0.148528	0.708623
C57	C	-0.000081	-0.612150	0.125607
C58	C	0.499919	-0.112150	0.625607
C59	C	-0.000075	-0.669812	0.044384
C60	C	0.499925	-0.169812	0.544384
C61	C	-0.000085	-0.633437	-0.038633
C62	C	0.499915	-0.133437	0.461367
C63	C	-0.000091	-0.539399	-0.040417
C64	C	0.499909	-0.039399	0.459583
C65	C	-0.000074	-0.742565	0.210407
C66	C	0.499926	-0.242565	0.710407
C67	C	-0.000067	-0.763855	0.046172
C68	C	0.499933	-0.263855	0.546172
C69	C	-0.000090	-0.979435	-0.552723
C70	C	0.499910	-0.479435	-0.052723
C71	C	-0.000103	-1.143668	-0.574004
C72	C	0.499897	-0.643668	-0.074004
C73	C	-0.000095	-1.145458	-0.479971
C74	C	0.499905	-0.645458	0.020029
C75	C	-0.000087	-1.064235	-0.422309
C76	C	0.499913	-0.564235	0.077691
C77	C	-0.000086	-0.981223	-0.458680
C78	C	0.499914	-0.481223	0.041320
C79	C	-0.000109	-1.228469	-0.443591
C80	C	0.499891	-0.728469	0.056409
C81	C	-0.000103	-1.230262	-0.349552
C82	C	0.499897	-0.730262	0.150448
C83	C	-0.000085	-1.149039	-0.291889
C84	C	0.499915	-0.649039	0.208111
C85	C	-0.000083	-1.066023	-0.328266
C86	C	0.499917	-0.566023	0.171734
C87	C	-0.000075	-0.984800	-0.270604
C88	C	0.499925	-0.484800	0.229396
C89	C	-0.000063	-0.901783	-0.306979
C90	C	0.499937	-0.401783	0.193021
C91	C	-0.000068	-0.899999	-0.401017
C92	C	0.499932	-0.399999	0.098983
C93	C	-0.000080	-1.150823	-0.197851
C94	C	0.499920	-0.650823	0.302149
C95	C	-0.000071	-0.986588	-0.176561
C96	C	0.499929	-0.486588	0.323439
C97	C	-0.000095	-1.058754	0.289531
C98	C	0.499905	-0.558754	0.789531
C99	C	-0.000098	-1.060657	0.389615
C100	C	0.499902	-0.560657	0.889615
H101	H	-0.000068	-0.810798	-0.019971
H102	H	0.499932	-0.310798	0.480029
F103	F	-0.000070	-0.435454	0.374489
F104	F	0.499930	0.064546	0.874489
H105	H	-0.000059	-0.920445	-0.129618
H106	H	0.499941	-0.420445	0.370382
H107	H	-0.000120	-1.209795	-0.620958
H108	H	0.499880	-0.709795	-0.120958
H109	H	-0.000092	-0.319459	0.269379
H110	H	0.499908	0.180541	0.769379
H111	H	-0.000075	-0.911844	-0.582344
H112	H	0.499925	-0.411844	-0.082344
F113	F	-0.000112	-0.348980	-0.049330
F114	F	0.499888	0.151020	0.450670
H115	H	-0.000128	-1.294596	-0.490546
H116	H	0.499872	-0.794596	0.009454
H117	H	-0.000071	-0.680397	-0.104764
H118	H	0.499929	-0.180397	0.395236
F119	F	-0.000099	-1.318615	-0.310847
F120	F	0.499901	-0.818615	0.189153
F121	F	-0.000065	-0.815343	-0.245601
F122	F	0.499935	-0.315343	0.254399
H123	H	-0.000069	-0.620472	0.357443
H124	H	0.499931	-0.120472	0.857443
F125	F	-0.000096	-0.500679	-0.128762
F126	F	0.499904	-0.000679	0.371238
H127	H	-0.000098	-1.218414	-0.168238
H128	H	0.499902	-0.718414	0.331762
F129	F	-0.000052	-0.811654	-0.439737
F130	F	0.499948	-0.311654	0.060263
H131	H	-0.000069	-0.772178	0.277998
H132	H	0.499931	-0.272178	0.777998
