data_functionalizedCrystal
_audit_creation_method	'MofGen! by Chris Wilmer'
_symmetry_space_group_name_H-M	'P1'
_symmetry_Int_Tables_number	1
_symmetry_cell_setting	triclinic
loop_
_symmetry_equiv_pos_as_xyz
  x,y,z
_cell_length_a	10.968094
_cell_length_b	11.026607
_cell_length_c	9.798715
_cell_angle_alpha	89.998891
_cell_angle_beta	102.123758
_cell_angle_gamma	96.379842
loop_
_atom_site_label
_atom_site_type_symbol
_atom_site_fract_x
_atom_site_fract_y
_atom_site_fract_z
O1	O	1.693918	0.170484	0.284852
O2	O	1.334305	0.186813	0.200284
O3	O	1.484307	0.001748	0.235564
O4	O	1.543916	0.355549	0.249572
O5	O	1.484293	0.001748	0.462543
O6	O	1.334290	0.186813	0.427262
O7	O	1.693904	0.170484	0.511831
Zn8	Zn	1.514095	0.178648	0.505584
Zn9	Zn	1.514114	0.178649	0.206530
O10	O	1.543902	0.355549	0.476551
C11	C	1.287543	0.185626	0.302778
C12	C	1.148228	0.182075	0.270016
C13	C	0.942111	0.176809	0.339121
C14	C	1.086101	0.180488	0.372996
C15	C	1.473303	-0.043554	0.346466
C16	C	1.440521	-0.178541	0.338752
C17	C	1.531037	-0.251594	0.360036
C18	C	1.497158	-0.391110	0.352064
C19	C	1.740665	0.171671	0.409333
C20	C	1.879980	0.175222	0.442087
C21	C	1.554906	0.400851	0.365646
C22	C	1.587687	0.535838	0.373351
N23	N	1.514091	0.178647	0.709683
N24	N	1.514125	0.178640	0.002433
C25	C	1.576999	0.100601	0.792256
C26	C	1.577018	0.100597	0.949423
H27	H	1.094827	0.180712	0.156777
H28	H	1.630882	0.033782	1.020377
O29	O	1.653460	-0.203147	0.389004
C30	C	1.713285	-0.242277	0.520642
H31	H	1.659571	-0.330567	0.547208
H32	H	1.715187	-0.169025	0.603406
C33	C	1.914594	-0.156267	0.484124
C34	C	1.848628	-0.264712	0.516747
H35	H	1.998082	-0.170101	0.481726
H36	H	1.874289	-0.129899	0.395439
H37	H	1.916167	-0.095234	0.553099
H38	H	1.847043	-0.325737	0.447764
H39	H	1.888936	-0.291090	0.605421
O40	O	0.878448	0.174973	0.204005
C41	C	0.900911	0.070699	0.133953
H42	H	0.930344	-0.001853	0.213221
H43	H	0.978958	0.096406	0.075062
C44	C	0.744108	0.109182	-0.067455
C45	C	0.780248	0.020069	0.029904
H46	H	0.669680	0.077953	-0.131642
H47	H	0.728976	0.179436	-0.020262
H48	H	0.809157	0.130597	-0.116515
H49	H	0.715205	-0.001334	0.078974
H50	H	0.795365	-0.050191	-0.017283
H51	H	1.460270	0.245467	0.931490
H52	H	1.394575	-0.431848	0.327931
H53	H	1.337945	-0.219284	0.314620
O54	O	0.943561	0.177007	0.577233
C55	C	0.921153	0.281318	0.647262
H56	H	0.829234	0.313936	0.590587
H57	H	1.001443	0.356800	0.648893
C58	C	1.025280	0.209176	0.867720
C59	C	0.912378	0.249231	0.798118
H60	H	1.019873	0.189386	0.960778
H61	H	1.040381	0.138901	0.820541
H62	H	1.092176	0.272084	0.869065
H63	H	0.845487	0.186318	0.796759
H64	H	0.897266	0.319495	0.845301
H65	H	1.630838	0.033780	0.746596
H66	H	1.139504	0.181847	0.486235
O67	O	1.710116	-0.415718	0.402327
C68	C	1.769934	-0.454849	0.533968
H69	H	1.716221	-0.543142	0.560527
H70	H	1.771829	-0.381600	0.616731
C71	C	1.971247	-0.368831	0.497467
C72	C	1.905281	-0.477279	0.530083
H73	H	2.054738	-0.382662	0.495075
H74	H	1.930947	-0.342463	0.408781
H75	H	1.972813	-0.307800	0.566442
H76	H	1.903703	-0.538302	0.461099
H77	H	1.945585	-0.503658	0.618758
O78	O	1.449762	0.258193	0.764273
C79	C	1.357896	0.192552	0.825314
H80	H	1.386059	0.097730	0.853191
H81	H	1.263603	0.183776	0.748174
C82	C	1.312287	0.377255	0.924296
C83	C	1.346883	0.260796	0.958547
H84	H	1.305489	0.419352	1.006477
H85	H	1.374175	0.421480	0.883168
H86	H	1.233713	0.369925	0.860011
H87	H	1.425463	0.268127	1.022817
H88	H	1.285008	0.216574	0.999689
