data_functionalizedCrystal
_audit_creation_method	'MofGen! by Chris Wilmer'
_symmetry_space_group_name_H-M	'P1'
_symmetry_Int_Tables_number	1
_symmetry_cell_setting	triclinic
loop_
_symmetry_equiv_pos_as_xyz
  x,y,z
_cell_length_a	6.394989
_cell_length_b	9.065218
_cell_length_c	8.140239
_cell_angle_alpha	89.997198
_cell_angle_beta	90.000568
_cell_angle_gamma	94.243202
loop_
_atom_site_label
_atom_site_type_symbol
_atom_site_fract_x
_atom_site_fract_y
_atom_site_fract_z
O1	O	-0.306374	1.963203	-0.136606
O2	O	0.193626	2.463203	0.363394
O3	O	-0.331504	1.534149	-0.136607
O4	O	0.168496	2.034149	0.363393
O5	O	-0.014990	1.754766	-0.136608
O6	O	0.485010	2.254766	0.363392
O7	O	-0.622888	1.742586	-0.136605
O8	O	-0.122888	2.242586	0.363395
O9	O	-0.014986	1.754754	0.136619
O10	O	0.485014	2.254754	0.636619
O11	O	-0.331500	1.534136	0.136620
O12	O	0.168500	2.034136	0.636620
O13	O	-0.306370	1.963191	0.136621
O14	O	0.193630	2.463191	0.636621
Zn15	Zn	-0.318934	1.748661	0.180001
Zn16	Zn	0.181066	2.248661	0.680001
Zn17	Zn	-0.318939	1.748678	-0.179987
Zn18	Zn	0.181061	2.248678	0.320013
O19	O	-0.622884	1.742573	0.136622
O20	O	-0.122884	2.242573	0.636622
C21	C	-0.329087	1.479134	0.000006
C22	C	0.170913	1.979134	0.500006
C23	C	-0.321865	1.315225	0.000005
C24	C	0.178135	1.815225	0.500005
N25	N	-0.318930	1.748661	0.425684
N26	N	0.181070	2.248661	0.925684
C27	C	0.062879	1.752352	-0.000000
C28	C	0.562879	2.252352	0.500000
C29	C	0.299253	1.744991	-0.000002
C30	C	0.799253	2.244991	0.499998
C31	C	-0.308787	2.018206	0.000004
C32	C	0.191213	2.518206	0.500004
C33	C	-0.316008	2.182115	-0.000005
C34	C	0.183992	2.682115	0.499995
N35	N	-0.318927	1.748690	-0.425670
N36	N	0.181073	2.248690	0.074330
