data_functionalizedCrystal
_audit_creation_method	'MofGen! by Chris Wilmer'
_symmetry_space_group_name_H-M	'P1'
_symmetry_Int_Tables_number	1
_symmetry_cell_setting	triclinic
loop_
_symmetry_equiv_pos_as_xyz
  x,y,z
_cell_length_a	14.044191
_cell_length_b	10.967961
_cell_length_c	9.482900
_cell_angle_alpha	87.495787
_cell_angle_beta	79.853279
_cell_angle_gamma	88.856741
loop_
_atom_site_label
_atom_site_type_symbol
_atom_site_fract_x
_atom_site_fract_y
_atom_site_fract_z
O1	O	1.282612	0.273068	-0.189221
O2	O	1.006255	0.262582	-0.186613
O3	O	1.145499	0.093360	-0.144207
O4	O	1.143368	0.442290	-0.231626
O5	O	1.117221	0.127884	0.088934
O6	O	0.977977	0.297105	0.046528
O7	O	1.254334	0.307592	0.043920
Cu8	Cu	1.113574	0.305501	0.066512
Cu9	Cu	1.147015	0.264673	-0.209205
O10	O	1.115090	0.476813	0.001515
C11	C	0.956632	0.275257	-0.068896
C12	C	0.850899	0.261575	-0.065476
C13	C	1.129068	0.065696	-0.016385
C14	C	1.122228	-0.068170	0.017144
C15	C	1.126762	-0.284092	-0.054028
C16	C	1.133830	-0.145736	-0.088692
C17	C	0.603285	0.333591	-0.083503
C18	C	0.657312	0.236586	-0.059203
C19	C	0.765033	0.250494	-0.062694
C20	C	0.495553	0.319685	-0.080013
C21	C	1.303958	0.294916	-0.073800
C22	C	1.409692	0.308596	-0.077229
C23	C	1.131521	0.504477	-0.126311
C24	C	1.138362	0.638341	-0.159849
N25	N	1.090059	0.334217	0.260436
N26	N	1.170537	0.235948	-0.403126
C27	C	1.140073	0.273136	0.347942
C28	C	1.120516	0.297038	0.509369
H29	H	1.111594	-0.320112	0.062230
O30	O	0.649167	0.457430	-0.114539
H31	H	0.705608	0.454305	-0.212317
O32	O	1.215944	0.180385	0.288906
H33	H	1.219388	0.176152	0.171382
H34	H	0.622676	0.143078	-0.035878
H35	H	1.227834	0.165949	0.552290
O36	O	1.102146	-0.115868	0.171153
H37	H	1.031554	-0.078982	0.225146
H38	H	1.153518	-0.325638	-0.276107
O39	O	1.153917	-0.098048	-0.242705
H40	H	1.156322	0.003138	-0.245763
O41	O	1.044616	0.389761	0.568407
H42	H	1.041171	0.393993	0.685931
O43	O	1.014163	0.426935	0.319480
H44	H	1.010718	0.431167	0.437005
