data_functionalizedCrystal
_audit_creation_method	'MofGen! by Chris Wilmer'
_symmetry_space_group_name_H-M	'P1'
_symmetry_Int_Tables_number	1
_symmetry_cell_setting	triclinic
loop_
_symmetry_equiv_pos_as_xyz
  x,y,z
_cell_length_a	27.731994
_cell_length_b	27.732048
_cell_length_c	26.210047
_cell_angle_alpha	90.000479
_cell_angle_beta	89.997128
_cell_angle_gamma	97.368405
loop_
_atom_site_label
_atom_site_type_symbol
_atom_site_fract_x
_atom_site_fract_y
_atom_site_fract_z
O1	O	0.640948	-0.057385	-0.042362
O2	O	0.500151	-0.066158	-0.042379
O3	O	0.574923	0.008626	-0.042360
O4	O	0.566177	-0.132169	-0.042381
O5	O	0.574908	0.008614	0.042498
O6	O	0.500137	-0.066170	0.042479
O7	O	0.640934	-0.057397	0.042496
Cu8	Cu	0.570534	-0.061784	0.050236
Cu9	Cu	0.570551	-0.061771	-0.050119
O10	O	0.566162	-0.132181	0.042477
C11	C	0.482137	-0.065984	0.000047
C12	C	0.428480	-0.065442	0.000041
C13	C	0.095754	-0.062032	0.046317
C14	C	-0.105904	-0.059971	0.046324
O15	O	-0.131984	-0.059689	0.085663
N16	N	-0.131111	-0.059708	0.000067
C17	C	-0.105900	-0.059958	-0.046193
O18	O	-0.131967	-0.059683	-0.085537
C19	C	0.095758	-0.062016	-0.046199
C20	C	0.120961	-0.062283	0.000060
C21	C	0.120958	-0.062299	0.092573
C22	C	0.171369	-0.062817	0.092571
C23	C	0.196576	-0.063068	0.046313
C24	C	0.171372	-0.062802	0.000058
C25	C	0.120968	-0.062263	-0.092459
C26	C	0.171386	-0.062776	-0.092457
C27	C	0.196590	-0.063043	-0.046197
C28	C	0.246991	-0.063571	-0.046201
N29	N	0.272198	-0.063833	0.000055
C30	C	0.246991	-0.063582	0.046312
C31	C	-0.211773	-0.058878	-0.046187
C32	C	-0.262188	-0.058365	-0.046186
C33	C	-0.262188	-0.058376	0.046331
C34	C	-0.211774	-0.058894	0.046329
C35	C	-0.186566	-0.059141	0.000069
C36	C	0.352858	-0.064670	0.046305
C37	C	0.403273	-0.065190	0.046298
C38	C	0.403269	-0.065176	-0.046218
C39	C	0.352858	-0.064659	-0.046213
C40	C	0.327654	-0.064404	0.000053
O41	O	0.273102	-0.063848	-0.085520
O42	O	0.273067	-0.063847	0.085650
C43	C	0.045343	-0.061514	0.046319
C44	C	0.020139	-0.061247	0.000064
C45	C	0.045346	-0.061499	-0.046193
C46	C	-0.030275	-0.060734	0.000065
C47	C	-0.055483	-0.060482	0.046323
C48	C	-0.030276	-0.060745	0.092579
C49	C	0.020135	-0.061263	0.092577
C50	C	0.020139	-0.061236	-0.092449
C51	C	-0.030272	-0.060719	-0.092443
C52	C	-0.055479	-0.060468	-0.046186
C53	C	0.574732	0.026627	0.000070
C54	C	0.574179	0.080282	0.000074
C55	C	0.658949	-0.057571	0.000068
C56	C	0.712605	-0.058114	0.000071
C57	C	0.566353	-0.150182	0.000046
C58	C	0.566906	-0.203837	0.000038
N59	N	0.570526	-0.061794	0.120820
C60	C	0.614884	0.419105	0.000053
C61	C	0.612833	0.620764	0.000046
O62	O	0.650055	0.652027	0.000028
N63	N	0.568496	0.639879	0.000041
C64	C	0.524670	0.608576	0.000034
O65	O	0.486912	0.629462	0.000024
C66	C	0.526721	0.406918	0.000038
C67	C	0.571061	0.387805	0.000048
C68	C	0.659220	0.399992	0.000063
C69	C	0.659732	0.349580	0.000068
C70	C	0.615908	0.318281	0.000062
C71	C	0.571573	0.337394	0.000053
C72	C	0.482895	0.375615	0.000028
C73	C	0.483412	0.325198	0.000027
C74	C	0.527751	0.306086	0.000037
C75	C	0.528262	0.255683	0.000052
N76	N	0.572598	0.236567	0.000057
C77	C	0.616421	0.267867	0.000062
C78	C	0.523596	0.714450	0.000033
C79	C	0.523083	0.764864	0.000033
C80	C	0.611246	0.777049	0.000044
C81	C	0.611759	0.726633	0.000048
C82	C	0.567932	0.695335	0.000038
C83	C	0.617494	0.161998	0.000073
C84	C	0.618002	0.111581	0.000079
C85	C	0.529839	0.099401	0.000066
C86	C	0.529331	0.149813	0.000062
C87	C	0.573162	0.181111	0.000063
O88	O	0.491060	0.224391	0.000064
O89	O	0.654174	0.246971	0.000061
C90	C	0.614372	0.469517	0.000049
C91	C	0.570036	0.488629	0.000039
C92	C	0.526213	0.457330	0.000034
C93	C	0.569523	0.539043	0.000039
C94	C	0.613346	0.570343	0.000044
C95	C	0.657683	0.551228	0.000049
C96	C	0.658195	0.500816	0.000054
C97	C	0.481876	0.476445	0.000029
C98	C	0.481367	0.526857	0.000025
C99	C	0.525191	0.558157	0.000030
N100	N	0.570563	-0.061757	-0.120703
C101	C	0.603656	-0.028664	0.473342
C102	C	0.603667	-0.028657	0.687001
O103	O	0.631818	-0.000491	0.714630
N104	N	0.570554	-0.061760	0.713714
C105	C	0.537433	-0.094865	0.687008
O106	O	0.509265	-0.123018	0.714632
C107	C	0.537421	-0.094869	0.473351
C108	C	0.570539	-0.061767	0.446641
C109	C	0.636772	0.004436	0.446632
C110	C	0.636771	0.004432	0.393221
C111	C	0.603654	-0.028671	0.366519
C112	C	0.570538	-0.061771	0.393229
C113	C	0.504298	-0.127971	0.446647
C114	C	0.504297	-0.127969	0.393229
C115	C	0.537416	-0.094867	0.366519
C116	C	0.537420	-0.094878	0.313117
N117	N	0.570533	-0.061775	0.286404
C118	C	0.603650	-0.028672	0.313105
C119	C	0.537443	-0.094861	0.799182
C120	C	0.537446	-0.094861	0.852596
C121	C	0.603680	-0.028652	0.852585
C122	C	0.603678	-0.028655	0.799169
C123	C	0.570556	-0.061758	0.772469
C124	C	0.603645	-0.028682	0.200937
C125	C	0.603643	-0.028690	0.147521
C126	C	0.537408	-0.094897	0.147537
C127	C	0.537412	-0.094891	0.200949
C128	C	0.570533	-0.061780	0.227647
O129	O	0.509281	-0.123026	0.285454
O130	O	0.631807	-0.000516	0.285473
C131	C	0.603658	-0.028660	0.526754
C132	C	0.570542	-0.061760	0.553464
C133	C	0.537425	-0.094863	0.526762
C134	C	0.570546	-0.061759	0.606878
C135	C	0.603663	-0.028656	0.633579
C136	C	0.636776	0.004447	0.606866
C137	C	0.636775	0.004443	0.553455
C138	C	0.504311	-0.127966	0.553475
C139	C	0.504316	-0.127960	0.606887
C140	C	0.537433	-0.094857	0.633588
H141	H	-0.191254	-0.059079	-0.083860
C142	C	-0.289920	-0.058097	0.097214
H143	H	-0.267692	-0.058329	0.124766
H144	H	-0.305688	-0.029698	0.099136
H145	H	-0.313486	-0.086100	0.099134
H146	H	-0.050809	-0.060543	0.130243
C147	C	0.708505	0.328563	0.000069
H148	H	0.734528	0.354430	0.000066
H149	H	0.710541	0.309149	0.029660
H150	H	0.710542	0.309153	-0.029528
C151	C	0.666776	0.090558	0.000091
H152	H	0.660808	0.056050	0.000098
H153	H	0.684811	0.101323	-0.029498
H154	H	0.684796	0.101328	0.029689
C155	C	0.093257	-0.061958	-0.143345
H156	H	0.115498	-0.062173	-0.170890
H157	H	0.069687	-0.089952	-0.145286
H158	H	0.077496	-0.033550	-0.145258
H159	H	0.040658	-0.061439	-0.130118
C160	C	0.325139	-0.064395	0.097195
H161	H	0.347375	-0.064633	0.124739
H162	H	0.309371	-0.035996	0.099131
H163	H	0.301574	-0.092398	0.099114
H164	H	-0.282705	-0.058155	-0.083855
C165	C	0.435203	0.290770	0.000017
H166	H	0.441855	0.258007	0.000017
H167	H	0.416999	0.296531	0.029604
H168	H	0.417016	0.296529	-0.029583
H169	H	0.493226	0.165375	0.000068
C170	C	0.199110	-0.063052	-0.143344
H171	H	0.176876	-0.062823	-0.170891
H172	H	0.222679	-0.035055	-0.145266
H173	H	0.214873	-0.091457	-0.145274
C174	C	0.199087	-0.063109	0.143456
H175	H	0.176849	-0.062881	0.171002
H176	H	0.214854	-0.091509	0.145378
H177	H	0.222653	-0.035107	0.145386
H178	H	0.477343	-0.154922	0.531739
C179	C	0.481638	0.064966	0.000057
H180	H	0.488297	0.032205	0.000055
H181	H	0.463431	0.070720	0.029644
H182	H	0.463450	0.070722	-0.029544
C183	C	0.707430	0.434414	0.000073
H184	H	0.733903	0.415804	0.000082
H185	H	0.709076	0.454338	-0.029517
H186	H	0.709057	0.454330	0.029671
H187	H	0.693365	0.576720	0.000055
C188	C	0.325131	-0.064380	-0.097096
H189	H	0.347365	-0.064606	-0.124645
H190	H	0.301564	-0.092379	-0.099016
H191	H	0.309365	-0.035977	-0.099021
C192	C	0.431004	-0.065448	-0.097097
H193	H	0.464639	-0.065788	-0.090469
H194	H	0.418848	-0.093557	-0.116115
H195	H	0.426645	-0.037155	-0.116094
H196	H	0.100439	-0.062093	0.130243
C197	C	0.660531	0.705614	0.000054
H198	H	0.686555	0.731480	0.000055
H199	H	0.662562	0.686199	0.029645
H200	H	0.662570	0.686204	-0.029543
C201	C	0.500978	-0.131305	0.118159
H202	H	0.505719	-0.126559	0.082523
H203	H	0.505978	-0.163532	0.126908
H204	H	0.468758	-0.126274	0.126915
C205	C	0.673211	0.040833	0.363844
H206	H	0.668478	0.036090	0.328207
H207	H	0.668218	0.073063	0.372593
H208	H	0.705428	0.035795	0.372605
C209	C	0.665707	0.196418	0.000079
H210	H	0.692182	0.177809	0.000090
H211	H	0.667352	0.216339	-0.029513
H212	H	0.667335	0.216337	0.029674
C213	C	0.047854	-0.061550	0.143462
H214	H	0.025616	-0.061321	0.171008
H215	H	0.063623	-0.089949	0.145387
H216	H	0.071418	-0.033547	0.145389
C217	C	-0.184052	-0.059175	0.097214
H218	H	-0.206289	-0.058947	0.124760
H219	H	-0.168279	-0.087571	0.099140
H220	H	-0.160491	-0.031169	0.099137
H221	H	0.663740	0.031395	0.468368
C222	C	0.640105	0.007760	0.769793
H223	H	0.659825	0.027475	0.793350
H224	H	0.660095	-0.009483	0.748951
H225	H	0.622864	0.027764	0.748962
H226	H	0.477324	-0.154925	0.371492
C227	C	0.659451	0.811484	0.000042
H228	H	0.652791	0.844244	0.000035
H229	H	0.677651	0.805732	0.029632
H230	H	0.677645	0.805725	-0.029556
H231	H	0.487905	0.688970	0.000026
C232	C	-0.057990	-0.060424	-0.143332
H233	H	-0.035752	-0.060643	-0.170879
H234	H	-0.081560	-0.088419	-0.145266
H235	H	-0.073752	-0.032017	-0.145248
C236	C	0.474310	0.785882	0.000026
H237	H	0.448286	0.760017	0.000018
H238	H	0.472267	0.805296	0.029616
H239	H	0.472282	0.805293	-0.029572
H240	H	0.446789	0.391167	0.000016
C241	C	0.432591	0.547875	0.000012
H242	H	0.406567	0.522010	0.000004
H243	H	0.430546	0.567292	0.029599
H244	H	0.430566	0.567283	-0.029588
C245	C	0.433668	0.442022	0.000028
H246	H	0.407193	0.460631	0.000029
H247	H	0.432033	0.422097	-0.029560
H248	H	0.432031	0.422107	0.029627
C249	C	0.500964	-0.131284	0.230331
H250	H	0.481234	-0.150992	0.206776
H251	H	0.518177	-0.151291	0.251183
H252	H	0.480980	-0.114010	0.251152
C253	C	0.640073	0.007725	0.118143
H254	H	0.659792	0.027444	0.141698
H255	H	0.660064	-0.009520	0.097305
H256	H	0.622832	0.027726	0.097308
H257	H	0.694301	0.485260	0.000062
H258	H	0.630615	-0.001719	0.222669
C259	C	0.640104	0.007765	0.881962
H260	H	0.635357	0.003024	0.917599
H261	H	0.672328	0.002752	0.873210
H262	H	0.635088	0.039990	0.873210
H263	H	0.663743	0.031400	0.628615
H264	H	0.510483	-0.121820	0.874340
C265	C	0.501010	-0.131281	0.769818
H266	H	0.481296	-0.150996	0.793381
H267	H	0.481014	-0.114040	0.748982
H268	H	0.518249	-0.151284	0.748981
H269	H	0.477329	-0.154926	0.468387
H270	H	0.663743	0.031398	0.531712
C271	C	0.467880	-0.164373	0.636262
H272	H	0.448155	-0.184083	0.612705
H273	H	0.485109	-0.184375	0.657102
H274	H	0.447889	-0.147118	0.657095
H275	H	0.423791	-0.065410	0.083970
