data_functionalizedCrystal
_audit_creation_method	'MofGen! by Chris Wilmer'
_symmetry_space_group_name_H-M	'P1'
_symmetry_Int_Tables_number	1
_symmetry_cell_setting	triclinic
loop_
_symmetry_equiv_pos_as_xyz
  x,y,z
_cell_length_a	19.805407
_cell_length_b	29.839131
_cell_length_c	19.805398
_cell_angle_alpha	89.969409
_cell_angle_beta	89.986879
_cell_angle_gamma	90.041420
loop_
_atom_site_label
_atom_site_type_symbol
_atom_site_fract_x
_atom_site_fract_y
_atom_site_fract_z
Zn1	Zn	1.034622	-0.178859	-0.382710
Zn2	Zn	1.534622	0.321141	0.117290
Zn3	Zn	1.034520	-0.253988	-0.269518
Zn4	Zn	1.534520	0.246012	0.230482
Zn5	Zn	0.921449	-0.178873	-0.269535
Zn6	Zn	1.421449	0.321127	0.230465
Zn7	Zn	0.921371	-0.253963	-0.382665
Zn8	Zn	1.421371	0.246037	0.117335
O9	O	0.977990	-0.216421	-0.326107
O10	O	1.477990	0.283579	0.173893
O11	O	1.129325	-0.188830	-0.367707
O12	O	1.629325	0.311170	0.132293
O13	O	1.019511	-0.244040	-0.174804
O14	O	1.519511	0.255960	0.325196
O15	O	0.936538	-0.116004	-0.284574
O16	O	1.436538	0.383996	0.215426
O17	O	1.129250	-0.244027	-0.284545
O18	O	1.629250	0.255973	0.215455
O19	O	1.019685	-0.115994	-0.367723
O20	O	1.519685	0.384006	0.132277
O21	O	0.936439	-0.188853	-0.174816
O22	O	1.436439	0.311147	0.325184
O23	O	0.826722	-0.188829	-0.284530
O24	O	1.326722	0.311171	0.215470
O25	O	0.936403	-0.243984	-0.477387
O26	O	1.436403	0.256016	0.022613
O27	O	0.826664	-0.243997	-0.367646
O28	O	1.326664	0.256003	0.132354
O29	O	1.019609	-0.188806	-0.477421
O30	O	1.519609	0.311194	0.022579
O31	O	1.019435	-0.316852	-0.284501
O32	O	1.519435	0.183148	0.215499
O33	O	0.936304	-0.316833	-0.367630
O34	O	1.436304	0.183167	0.132370
C35	C	0.802134	-0.216412	-0.326085
C36	C	1.302134	0.283588	0.173915
C37	C	0.726902	-0.216419	-0.326092
C38	C	1.226902	0.283581	0.173908
C39	C	0.691546	-0.245189	-0.369300
C40	C	1.191546	0.254811	0.130700
C41	C	0.620857	-0.245190	-0.369310
C42	C	1.120857	0.254810	0.130690
C43	C	0.585527	-0.216423	-0.326107
C44	C	1.085527	0.283577	0.173893
C45	C	0.620888	-0.187650	-0.282897
C46	C	1.120888	0.312350	0.217103
C47	C	0.691576	-0.187648	-0.282891
C48	C	1.191576	0.312352	0.217109
C49	C	0.335815	-0.187660	-0.282919
C50	C	0.835815	0.312340	0.217081
C51	C	0.265123	-0.187666	-0.282927
C52	C	0.765123	0.312334	0.217073
C53	C	0.265097	-0.245202	-0.369338
C54	C	0.765097	0.254798	0.130662
C55	C	0.335784	-0.245199	-0.369332
C56	C	0.835784	0.254801	0.130668
C57	C	0.371139	-0.216425	-0.326125
C58	C	0.871139	0.283575	0.173875
C59	C	0.447788	-0.216424	-0.326116
C60	C	0.947788	0.283576	0.173884
C61	C	0.508880	-0.216426	-0.326112
C62	C	1.008880	0.283574	0.173888
C63	C	0.977868	-0.333143	-0.326073
C64	C	1.477868	0.166857	0.173927
C65	C	0.977878	-0.383078	-0.326082
C66	C	1.477878	0.116922	0.173918
C67	C	1.021355	-0.692718	-0.282885
C68	C	1.521355	-0.192718	0.217115
C69	C	1.021439	-0.880391	-0.282912
C70	C	1.521439	-0.380391	0.217088
O71	O	1.058308	-0.904653	-0.246159
O72	O	1.558308	-0.404653	0.253841
N73	N	0.978131	-0.903863	-0.326158
N74	N	1.478131	-0.403863	0.173842
C75	C	0.934802	-0.880413	-0.369404
C76	C	1.434802	-0.380413	0.130596
O77	O	0.897973	-0.904684	-0.406194
O78	O	1.397973	-0.404684	0.093806
C79	C	0.934722	-0.692741	-0.369381
C80	C	1.434722	-0.192741	0.130619
C81	C	0.978028	-0.669272	-0.326127
C82	C	1.478028	-0.169272	0.173873
C83	C	1.064658	-0.669249	-0.239635
C84	C	1.564658	-0.169249	0.260365
C85	C	1.064634	-0.622333	-0.239626
C86	C	1.564634	-0.122333	0.260374
C87	C	1.021307	-0.598887	-0.282868
C88	C	1.521307	-0.098887	0.217132
C89	C	0.978004	-0.622357	-0.326118
C90	C	1.478004	-0.122357	0.173882
C91	C	0.891398	-0.669293	-0.412630
C92	C	1.391398	-0.169293	0.087370
C93	C	0.891383	-0.622371	-0.412621
C94	C	1.391383	-0.122371	0.087379
C95	C	0.934689	-0.598902	-0.369367
C96	C	1.434689	-0.098902	0.130633
C97	C	0.934654	-0.551995	-0.369351
C98	C	1.434654	-0.051995	0.130649
N99	N	0.977962	-0.528523	-0.326104
N100	N	1.477962	-0.028523	0.173896
C101	C	1.021288	-0.551969	-0.282863
C102	C	1.521288	-0.051969	0.217137
C103	C	0.934846	-0.978944	-0.369412
C104	C	1.434846	-0.478944	0.130588
C105	C	0.934865	-1.025862	-0.369418
C106	C	1.434865	-0.525862	0.130582
C107	C	1.021503	-1.025836	-0.282926
C108	C	1.521503	-0.525836	0.217074
C109	C	1.021480	-0.978918	-0.282918
C110	C	1.521480	-0.478918	0.217082
C111	C	0.978154	-0.955472	-0.326166
C112	C	1.478154	-0.455472	0.173834
C113	C	1.021234	-0.453444	-0.282847
C114	C	1.521234	0.046556	0.217153
C115	C	1.021205	-0.406524	-0.282840
C116	C	1.521205	0.093476	0.217160
C117	C	0.934570	-0.406553	-0.369334
C118	C	1.434570	0.093447	0.130666
C119	C	0.934597	-0.453469	-0.369339
C120	C	1.434597	0.046531	0.130661
C121	C	0.977935	-0.476913	-0.326093
C122	C	1.477935	0.023087	0.173907
O123	O	0.897809	-0.527704	-0.406090
O124	O	1.397809	-0.027704	0.093910
O125	O	1.058123	-0.527691	-0.246090
O126	O	1.558123	-0.027691	0.253910
C127	C	1.021379	-0.739634	-0.282894
C128	C	1.521379	-0.239634	0.217106
C129	C	0.978076	-0.763103	-0.326144
C130	C	1.478076	-0.263103	0.173856
C131	C	0.934749	-0.739657	-0.369386
C132	C	1.434749	-0.239657	0.130614
C133	C	0.978095	-0.810021	-0.326149
C134	C	1.478095	-0.310021	0.173851
C135	C	1.021422	-0.833467	-0.282908
C136	C	1.521422	-0.333467	0.217092
C137	C	1.064730	-0.809995	-0.239661
C138	C	1.564730	-0.309995	0.260339
C139	C	1.064706	-0.763080	-0.239653
C140	C	1.564706	-0.263080	0.260347
C141	C	0.891441	-0.763128	-0.412632
C142	C	1.391441	-0.263128	0.087368
C143	C	0.891468	-0.810044	-0.412637
C144	C	1.391468	-0.310044	0.087363
C145	C	0.934795	-0.833490	-0.369395
C146	C	1.434795	-0.333490	0.130605
C147	C	1.154533	-0.216430	-0.326129
C148	C	1.654533	0.283570	0.173871
C149	C	1.229765	-0.216434	-0.326139
C150	C	1.729765	0.283566	0.173861
C151	C	0.978009	-0.216390	-0.502650
C152	C	1.478009	0.283610	-0.002650
C153	C	0.978016	-0.216377	-0.577882
C154	C	1.478016	0.283623	-0.077882
C155	C	0.978132	-0.099242	-0.326156
C156	C	1.478132	0.400758	0.173844
C157	C	0.978192	-0.049308	-0.326176
C158	C	1.478192	0.450692	0.173824
C159	C	1.021379	-0.245042	-1.039664
C160	C	1.521379	0.254958	-0.539664
C161	C	1.021360	-0.245054	-0.968976
C162	C	1.521360	0.254946	-0.468976
C163	C	0.978100	-0.216327	-0.933644
C164	C	1.478100	0.283673	-0.433644
C165	C	0.934852	-0.187589	-0.969004
C166	C	1.434852	0.312411	-0.469004
C167	C	0.934867	-0.187579	-1.039691
C168	C	1.434867	0.312421	-0.539691
C169	C	0.934786	-0.187627	-0.683930
C170	C	1.434786	0.312373	-0.183930
C171	C	0.934775	-0.187638	-0.613238
C172	C	1.434775	0.312362	-0.113238
C173	C	1.021279	-0.245102	-0.613215
C174	C	1.521279	0.254898	-0.113215
C175	C	1.021295	-0.245092	-0.683902
C176	C	1.521295	0.254908	-0.183902
C177	C	0.978044	-0.216356	-0.719256
C178	C	1.478044	0.283644	-0.219256
C179	C	0.978064	-0.216344	-0.795905
C180	C	1.478064	0.283656	-0.295905
C181	C	0.978083	-0.216336	-0.856997
C182	C	1.478083	0.283664	-0.356997
C183	C	0.978011	-0.216419	-0.150251
C184	C	1.478011	0.283581	0.349749
C185	C	0.978135	-0.216305	-0.075019
C186	C	1.478135	0.283695	0.424981
H187	H	0.364593	-0.164234	-0.247732
H188	H	0.864593	0.335766	0.252268
N189	N	1.065473	-0.274438	-0.720003
N190	N	1.565473	0.225562	-0.220003
N191	N	1.065479	-0.274426	-0.783115
N192	N	1.565479	0.225574	-0.283115
H193	H	1.096678	-0.295153	-0.808612
H194	H	1.596678	0.204847	-0.308612
N195	N	0.584791	-0.158265	-0.238775
N196	N	1.084791	0.341735	0.261225
N197	N	0.521678	-0.158271	-0.238784
N198	N	1.021678	0.341729	0.261216
H199	H	0.496184	-0.137517	-0.207622
H200	H	0.996184	0.362483	0.292378
N201	N	0.890583	-0.158287	-0.577157
N202	N	1.390583	0.341713	-0.077157
N203	N	0.851971	-0.132632	-0.608730
N204	N	1.351971	0.367368	-0.108730
H205	H	0.820763	-0.111902	-0.583247
H206	H	1.320763	0.388098	-0.083247
H207	H	0.720362	-0.164218	-0.247710
H208	H	1.220362	0.335782	0.252290
N209	N	1.065445	-0.274466	-0.577100
N210	N	1.565445	0.225534	-0.077100
N211	N	1.060908	-0.315919	-0.584976
N212	N	1.560908	0.184081	-0.084976
H213	H	1.092100	-0.336657	-0.559471
H214	H	1.592100	0.163343	-0.059471
H215	H	0.899568	-0.164229	-0.712707
H216	H	1.399568	0.335771	-0.212707
N217	N	0.847156	-0.693251	-0.456818
N218	N	1.347156	-0.193251	0.043182
N219	N	0.808483	-0.672302	-0.495423
N220	N	1.308483	-0.172302	0.004577
H221	H	0.777235	-0.689222	-0.526634
H222	H	1.277235	-0.189222	-0.026634
H223	H	0.236302	-0.268630	-0.404522
H224	H	0.736302	0.231370	0.095478
H225	H	0.899626	-0.164201	-0.940231
H226	H	1.399626	0.335799	-0.440231
N227	N	1.065754	-1.049798	-0.238756
N228	N	1.565754	-0.549798	0.261244
N229	N	1.065759	-1.091688	-0.238773
N230	N	1.565759	-0.591688	0.261227
H231	H	1.097012	-1.108613	-0.207583
H232	H	1.597012	-0.608613	0.292417
H233	H	0.856102	-0.603284	-0.447842
H234	H	1.356102	-0.103284	0.052158
H235	H	0.364547	-0.268626	-0.404510
H236	H	0.864547	0.231374	0.095490
H237	H	1.056469	-0.387417	-0.247615
H238	H	1.556469	0.112583	0.252385
H239	H	1.099899	-0.603228	-0.204407
H240	H	1.599899	-0.103228	0.295593
N241	N	0.847180	-0.739190	-0.456811
N242	N	1.347180	-0.239190	0.043189
N243	N	0.808520	-0.760157	-0.495419
N244	N	1.308520	-0.260157	0.004581
H245	H	0.777255	-0.743252	-0.526622
H246	H	1.277255	-0.243252	-0.026622
H247	H	0.899654	-0.164178	-1.068476
H248	H	1.399654	0.335822	-0.568476
H249	H	1.056609	-0.268433	-1.068427
H250	H	1.556609	0.231567	-0.568427
N251	N	0.584752	-0.274577	-0.413455
N252	N	1.084752	0.225423	0.086545
N253	N	0.616305	-0.300260	-0.452024
N254	N	1.116305	0.199740	0.047976
H255	H	0.590807	-0.321016	-0.483205
H256	H	1.090807	0.178984	0.016795
H257	H	0.236359	-0.164238	-0.247745
H258	H	0.736359	0.335762	0.252255
N259	N	1.065558	-0.274396	-0.932869
N260	N	1.565558	0.225604	-0.432869
N261	N	1.108701	-0.258588	-0.893443
N262	N	1.608701	0.241412	-0.393443
H263	H	1.139923	-0.279310	-0.867945
H264	H	1.639923	0.220690	-0.367945
N265	N	0.727621	-0.274581	-0.413430
N266	N	1.227621	0.225419	0.086570
N267	N	0.696041	-0.300265	-0.452006
N268	N	1.196041	0.199735	0.047994
H269	H	0.721517	-0.321024	-0.483175
H270	H	1.221517	0.178976	0.016825
N271	N	1.065495	-0.477380	-0.238659
N272	N	1.565495	0.022620	0.261341
N273	N	1.061038	-0.472163	-0.176200
N274	N	1.561038	0.027837	0.323800
H275	H	1.092293	-0.489068	-0.144988
H276	H	1.592293	0.010932	0.355012
N277	N	1.108927	-0.693187	-0.195460
N278	N	1.608927	-0.193187	0.304540
N279	N	1.147585	-0.672218	-0.156853
N280	N	1.647585	-0.172218	0.343147
H281	H	1.178850	-0.689121	-0.125649
H282	H	1.678850	-0.189121	0.374351
N283	N	1.108979	-0.833957	-0.195490
N284	N	1.608979	-0.333957	0.304510
N285	N	1.108985	-0.875847	-0.195510
N286	N	1.608985	-0.375847	0.304490
H287	H	1.140236	-0.892773	-0.164318
H288	H	1.640236	-0.392773	0.335682
N289	N	1.065718	-0.954954	-0.238729
N290	N	1.565718	-0.454954	0.261271
N291	N	1.104394	-0.975899	-0.200123
N292	N	1.604394	-0.475899	0.299877
H293	H	1.135640	-0.958977	-0.168913
H294	H	1.635640	-0.458977	0.331087
H295	H	0.899595	-1.044966	-0.404633
H296	H	1.399595	-0.544966	0.095367
H297	H	0.899563	-0.959858	-0.404631
H298	H	1.399563	-0.459858	0.095369
H299	H	0.899336	-0.472579	-0.404562
H300	H	1.399336	0.027421	0.095438
N301	N	0.890325	-0.382591	-0.413502
N302	N	1.390325	0.117409	0.086498
N303	N	0.914107	-0.356374	-0.456644
N304	N	1.414107	0.143626	0.043356
H305	H	0.882862	-0.339448	-0.487840
H306	H	1.382862	0.160552	0.012160
N307	N	1.108945	-0.739117	-0.195463
N308	N	1.608945	-0.239117	0.304537
N309	N	1.147622	-0.760065	-0.156861
N310	N	1.647622	-0.260065	0.343139
H311	H	1.178869	-0.743144	-0.125649
H312	H	1.678869	-0.243144	0.374351
N313	N	0.847219	-0.834007	-0.456822
N314	N	1.347219	-0.334007	0.043178
N315	N	0.808540	-0.813062	-0.495425
N316	N	1.308540	-0.313062	0.004575
H317	H	0.777292	-0.829984	-0.526634
H318	H	1.277292	-0.329984	-0.026634
