data_functionalizedCrystal
_audit_creation_method	'MofGen! by Chris Wilmer'
_symmetry_space_group_name_H-M	'P1'
_symmetry_Int_Tables_number	1
_symmetry_cell_setting	triclinic
loop_
_symmetry_equiv_pos_as_xyz
  x,y,z
_cell_length_a	19.288864
_cell_length_b	27.732048
_cell_length_c	18.366186
_cell_angle_alpha	89.988789
_cell_angle_beta	89.977106
_cell_angle_gamma	82.889449
loop_
_atom_site_label
_atom_site_type_symbol
_atom_site_fract_x
_atom_site_fract_y
_atom_site_fract_z
O1	O	0.920977	0.060300	-0.060791
O2	O	0.718665	0.068434	-0.060742
O3	O	0.826104	-0.006011	-0.060754
O4	O	0.813538	0.134745	-0.060779
O5	O	0.826086	-0.006014	0.060345
O6	O	0.718647	0.068430	0.060357
O7	O	0.920959	0.060296	0.060309
Zn8	Zn	0.819800	0.064363	0.079560
Zn9	Zn	0.819824	0.064368	-0.079994
O10	O	0.813520	0.134741	0.060321
C11	C	0.692781	0.068171	-0.000186
C12	C	0.615683	0.067385	-0.000167
C13	C	0.570714	0.111066	-0.000186
C14	C	0.498271	0.110328	-0.000194
C15	C	0.470801	0.065906	-0.000197
C16	C	0.515780	0.022219	-0.000174
C17	C	0.588220	0.022959	-0.000159
C18	C	0.362763	0.030987	-0.042642
C19	C	0.290323	0.030250	-0.042662
C20	C	0.247370	0.063624	-0.000241
C21	C	0.276863	0.097744	0.042190
C22	C	0.349304	0.098483	0.042206
C23	C	0.392252	0.065099	-0.000213
C24	C	0.123850	0.106507	-0.000268
C25	C	0.051406	0.105767	-0.000271
C26	C	0.068916	0.017658	-0.000258
C27	C	0.141358	0.018399	-0.000248
C28	C	0.168820	0.062825	-0.000256
C29	C	0.825831	-0.024020	-0.000202
C30	C	0.825037	-0.077678	-0.000196
C31	C	0.883526	-0.416316	-0.000248
C32	C	0.880579	-0.617985	-0.000257
O33	O	0.934063	-0.649079	-0.000302
N34	N	0.816872	-0.637301	-0.000241
C35	C	0.753897	-0.606196	-0.000227
O36	O	0.699643	-0.627253	-0.000222
C37	C	0.756845	-0.404529	-0.000223
C38	C	0.820556	-0.385216	-0.000232
C39	C	0.947232	-0.397002	-0.000257
C40	C	0.947968	-0.346588	-0.000251
C41	C	0.884998	-0.315488	-0.000235
C42	C	0.821292	-0.334801	-0.000226
C43	C	0.693871	-0.373425	-0.000215
C44	C	0.694614	-0.323006	-0.000216
C45	C	0.758325	-0.303693	-0.000224
C46	C	0.759059	-0.253287	-0.000203
N47	N	0.822766	-0.233971	-0.000219
C48	C	0.885735	-0.265071	-0.000235
C49	C	0.752354	-0.712075	-0.000228
C50	C	0.751617	-0.762492	-0.000228
C51	C	0.878299	-0.774276	-0.000259
C52	C	0.879035	-0.723859	-0.000254
C53	C	0.816061	-0.692759	-0.000244
C54	C	0.887276	-0.159197	-0.000221
C55	C	0.888007	-0.108778	-0.000212
C56	C	0.761325	-0.096998	-0.000185
C57	C	0.760595	-0.147412	-0.000190
C58	C	0.823576	-0.178511	-0.000211
O59	O	0.705603	-0.222164	-0.000167
O60	O	0.939982	-0.244005	-0.000257
C61	C	0.882790	-0.466730	-0.000254
C62	C	0.819084	-0.486044	-0.000245
C63	C	0.756114	-0.454943	-0.000229
C64	C	0.818347	-0.536461	-0.000244
C65	C	0.881317	-0.567561	-0.000260
C66	C	0.945023	-0.548245	-0.000276
C67	C	0.945760	-0.497831	-0.000270
C68	C	0.692407	-0.474260	-0.000213
C69	C	0.691676	-0.524674	-0.000218
C70	C	0.754646	-0.555775	-0.000234
C71	C	0.946842	0.060560	-0.000249
C72	C	1.023941	0.061345	-0.000273
C73	C	0.813792	0.152751	-0.000233
C74	C	0.814587	0.206408	-0.000244
N75	N	0.819789	0.064359	0.188451
N76	N	0.819841	0.064367	-0.188885
C77	C	0.867378	0.031411	0.226546
C78	C	0.867383	0.031409	0.302774
C79	C	0.819804	0.064363	0.340904
C80	C	0.772206	0.097314	0.302800
C81	C	0.772198	0.097312	0.226573
C82	C	0.810231	0.108406	0.461658
C83	C	0.810244	0.108409	0.537883
C84	C	0.819824	0.064369	0.576011
C85	C	0.829406	0.020325	0.537906
C86	C	0.829398	0.020323	0.461679
C87	C	0.819807	0.064369	0.423559
C88	C	0.867421	0.031416	0.696761
C89	C	0.867420	0.031413	0.772991
C90	C	0.772247	0.097322	0.773015
C91	C	0.772244	0.097321	0.696787
C92	C	0.819835	0.064368	0.658665
H93	H	0.146211	0.142682	-0.000263
N94	N	0.953089	-0.089051	-0.000238
N95	N	0.967643	-0.062227	-0.051286
H96	H	1.013606	-0.048296	-0.051307
H97	H	0.641128	-0.448942	-0.000201
N98	N	0.723599	0.130972	0.187645
N99	N	0.723604	0.130969	0.119586
H100	H	0.689282	0.154744	0.092091
N101	N	0.379421	0.133330	0.085560
N102	N	0.371152	0.133942	0.153074
H103	H	0.392422	0.158552	0.183697
H104	H	0.837207	-0.015536	0.568948
H105	H	0.930914	-0.708138	-0.000262
N106	N	0.628796	-0.393152	-0.000205
N107	N	0.614229	-0.419975	0.050839
H108	H	0.568265	-0.433906	0.050845
H109	H	0.643331	-0.297686	-0.000209
N110	N	0.915972	-0.002254	0.657765
N111	N	0.894182	-0.032190	0.615253
H112	H	0.928455	-0.055971	0.587694
N113	N	0.916051	-0.002211	0.187618
N114	N	0.958578	-0.031600	0.221647
H115	H	0.992976	-0.055331	0.194153
H116	H	0.906137	0.004578	0.333797
N117	N	0.916033	-0.002252	0.811895
N118	N	0.958517	-0.031670	0.777845
H119	H	0.992851	-0.055447	0.805321
H120	H	0.837199	-0.015539	0.430657
N121	N	0.723637	0.130988	0.657883
N122	N	0.724108	0.175666	0.666383
H123	H	0.689776	0.199445	0.638909
H124	H	0.998512	-0.422320	-0.000273
N125	N	0.005479	0.150393	-0.000282
N126	N	0.030012	0.190053	-0.000287
H127	H	-0.002425	0.221572	-0.000294
N128	N	0.040879	-0.027723	-0.000253
N129	N	0.054808	-0.057138	0.050801
H130	H	0.035006	-0.089191	0.050808
N131	N	0.598753	0.156448	-0.000196
N132	N	0.558588	0.195447	-0.000214
H133	H	0.578392	0.227499	-0.000222
H134	H	0.733466	0.124145	0.333849
N135	N	0.723644	0.130977	0.811965
N136	N	0.723653	0.130973	0.880024
H137	H	0.689323	0.154740	0.907537
N138	N	0.800465	0.153400	0.576792
N139	N	0.791905	0.192718	0.542743
H140	H	0.785000	0.224495	0.570220
H141	H	0.929571	-0.799607	-0.000271
H142	H	0.802418	0.144270	0.430620
H143	H	0.708716	-0.163138	-0.000163
N144	N	0.406645	-0.003097	-0.085983
N145	N	0.471322	-0.002431	-0.085968
H146	H	0.502314	-0.026501	-0.116577
H147	H	0.701070	-0.686757	-0.000220
N148	N	0.686538	-0.782217	-0.000195
N149	N	0.644205	-0.772643	0.050863
H150	H	0.598240	-0.786573	0.050885
N151	N	0.260185	-0.004595	-0.086000
N152	N	0.216934	0.009357	-0.134584
H153	H	0.195648	-0.015252	-0.165191
N154	N	0.187287	-0.026225	-0.000230
N155	N	0.162754	-0.065885	-0.000230
H156	H	0.195191	-0.097403	-0.000216
H157	H	0.710057	-0.071667	-0.000169
N158	N	0.452315	0.154943	-0.000214
N159	N	0.409904	0.164360	0.050817
H160	H	0.377446	0.195869	0.050802
H161	H	0.996296	-0.573576	-0.000286
H162	H	0.241891	0.124920	0.076734
N163	N	1.010840	-0.478107	-0.000268
N164	N	1.053157	-0.487696	0.050770
H165	H	1.099123	-0.473769	0.050772
N166	N	0.487711	-0.023152	-0.000170
N167	N	0.423032	-0.023807	-0.000184
H168	H	0.403208	-0.055851	-0.000177
N169	N	0.634149	-0.021667	-0.000136
N170	N	0.609618	-0.061327	-0.000132
H171	H	0.642056	-0.092845	-0.000116
N172	N	0.951615	-0.190952	-0.000245
N173	N	1.008486	-0.173693	-0.000253
H174	H	1.053926	-0.196119	-0.000265
H175	H	0.999848	-0.330868	-0.000261
H176	H	0.639791	-0.540394	-0.000205
