data_functionalizedCrystal
_audit_creation_method	'MofGen! by Chris Wilmer'
_symmetry_space_group_name_H-M	'P1'
_symmetry_Int_Tables_number	1
_symmetry_cell_setting	triclinic
loop_
_symmetry_equiv_pos_as_xyz
  x,y,z
_cell_length_a	18.050589
_cell_length_b	18.050590
_cell_length_c	18.050582
_cell_angle_alpha	90.002722
_cell_angle_beta	90.018912
_cell_angle_gamma	89.984959
loop_
_atom_site_label
_atom_site_type_symbol
_atom_site_fract_x
_atom_site_fract_y
_atom_site_fract_z
Zn1	Zn	-0.295963	-1.135299	0.419568
Zn2	Zn	-0.420148	-1.135208	0.295387
Zn3	Zn	-0.295947	-1.011116	0.295432
Zn4	Zn	-0.420087	-1.011066	0.419576
O5	O	-0.358036	-1.073172	0.357491
O6	O	-0.312468	-1.239211	0.403073
O7	O	-0.403691	-1.118729	0.191468
O8	O	-0.192025	-1.027649	0.311914
O9	O	-0.403706	-1.239144	0.311838
O10	O	-0.192036	-1.118885	0.403116
O11	O	-0.312442	-1.027560	0.191501
O12	O	-0.312383	-0.907185	0.311922
O13	O	-0.403603	-1.027563	0.523499
O14	O	-0.403588	-0.907148	0.403130
O15	O	-0.312409	-1.118836	0.523493
O16	O	-0.524064	-1.118681	0.311846
O17	O	-0.524019	-1.027475	0.403087
C18	C	-0.357977	-0.880220	0.357532
C19	C	-0.357970	-0.797674	0.357568
C20	C	-0.407701	-0.598225	0.407059
C21	C	-0.339984	-0.548832	0.425331
C22	C	-0.358006	-0.646544	0.357539
C23	C	-0.425756	-0.548855	0.339273
C24	C	-0.358046	-0.500559	0.357512
C25	C	-0.290252	-0.598238	0.375847
C26	C	-0.376070	-0.598265	0.289757
C27	C	-0.308306	-0.548895	0.308004
C28	C	-0.357984	-0.730642	0.357556
C29	C	-0.358060	-0.416462	0.357495
C30	C	-0.550988	-1.073083	0.357478
C31	C	-0.633534	-1.073112	0.357498
C32	C	-0.832987	-1.023563	0.407097
C33	C	-0.882418	-1.005464	0.339336
C34	C	-0.784664	-1.073185	0.357508
C35	C	-0.882315	-1.091321	0.425277
C36	C	-0.930649	-1.073254	0.357523
C37	C	-0.833008	-1.055051	0.289710
C38	C	-0.832901	-1.140939	0.375697
C39	C	-0.882309	-1.122865	0.307889
C40	C	-0.700566	-1.073144	0.357500
C41	C	-1.014746	-1.073296	0.357523
C42	C	-0.164331	-1.073283	0.357519
C43	C	-0.081785	-1.073329	0.357531
C44	C	-0.358001	-1.073204	0.551196
C45	C	-0.357986	-1.073218	0.633742
C46	C	-0.358085	-0.266878	0.357462
C47	C	-0.358080	-0.349424	0.357481
C48	C	-0.358018	-1.073183	0.164539
C49	C	-0.357824	-1.073313	0.081993
C50	C	-0.407496	-1.023630	0.882571
C51	C	-0.339754	-1.005490	0.833184
C52	C	-0.357877	-1.073281	0.930863
C53	C	-0.425668	-1.091355	0.833168
C54	C	-0.357934	-1.073248	0.784877
C55	C	-0.290099	-1.055106	0.882563
C56	C	-0.376058	-1.141003	0.882551
C57	C	-0.308270	-1.122888	0.833186
C58	C	-0.357845	-1.073298	1.014961
C59	C	-0.357958	-1.073231	0.700781
H60	H	-0.391356	-0.619995	0.232463
O61	O	-0.494142	-0.523058	0.320940
C62	C	-0.546330	-0.548174	0.373325
H63	H	-0.524355	-0.600173	0.401656
H64	H	-0.556105	-0.503178	0.416556
C65	C	-0.646807	-0.502284	0.299084
C66	C	-0.619820	-0.566154	0.333876
H67	H	-0.692141	-0.513372	0.274752
H68	H	-0.611648	-0.485360	0.263792
H69	H	-0.654947	-0.464793	0.335116
H70	H	-0.611672	-0.603640	0.297843
H71	H	-0.654980	-0.583085	0.369161
O72	O	-0.321895	-0.522953	0.493743
C73	C	-0.374396	-0.548094	0.545803
H74	H	-0.428426	-0.561966	0.516178
H75	H	-0.352334	-0.599756	0.574684
C76	C	-0.322202	-0.469993	0.640059
C77	C	-0.388565	-0.487025	0.603674
H78	H	-0.330940	-0.432325	0.675759
H79	H	-0.286829	-0.453057	0.604987
H80	H	-0.303824	-0.513050	0.664120
H81	H	-0.406937	-0.443971	0.579606
H82	H	-0.423941	-0.503953	0.638744
O83	O	-0.457545	-0.973623	0.908485
C84	C	-0.511325	-1.010496	0.951458
H85	H	-0.513644	-1.071318	0.934610
H86	H	-0.496032	-1.006150	1.012587
C87	C	-0.584750	-0.899779	0.959273
C88	C	-0.587602	-0.974481	0.938576
H89	H	-0.631800	-0.877562	0.951330
H90	H	-0.548516	-0.874936	0.930324
H91	H	-0.572003	-0.896168	1.010213
H92	H	-0.600340	-0.978091	0.887635
H93	H	-0.623840	-0.999324	0.967516
O94	O	-0.908243	-1.109681	0.493582
C95	C	-0.951130	-1.174757	0.488518
H96	H	-0.972446	-1.181385	0.429433
H97	H	-0.915553	-1.224666	0.503800
C98	C	-0.991064	-1.161330	0.614726
C99	C	-1.017249	-1.169467	0.542158
H100	H	-1.031847	-1.158069	0.647816
H101	H	-0.962168	-1.117488	0.618140
H102	H	-0.961416	-1.202922	0.627451
H103	H	-1.046888	-1.127871	0.529432
H104	H	-1.046152	-1.213302	0.538744
H105	H	-0.903829	-1.164859	0.265910
O106	O	-0.321407	-0.937207	0.807180
C107	C	-0.321054	-0.938320	0.729079
H108	H	-0.312435	-0.997546	0.708910
H109	H	-0.376255	-0.916525	0.707440
C110	C	-0.268330	-0.816228	0.725011
C111	C	-0.257738	-0.888970	0.700239
H112	H	-0.229276	-0.785784	0.707220
H113	H	-0.268570	-0.815476	0.777629
H114	H	-0.314333	-0.798076	0.706977
H115	H	-0.211741	-0.907123	0.718281
H116	H	-0.257488	-0.889723	0.647623
O117	O	-0.221660	-1.036788	0.908207
C118	C	-0.173824	-1.023945	0.847828
H119	H	-0.195789	-1.053993	0.796802
H120	H	-0.170892	-0.961953	0.836113
C121	C	-0.068878	-1.016161	0.929299
C122	C	-0.095854	-1.053072	0.866629
H123	H	-0.020781	-1.034124	0.940897
H124	H	-0.101107	-1.024811	0.969978
H125	H	-0.066441	-0.964504	0.919529
H126	H	-0.098298	-1.104726	0.876404
H127	H	-0.063623	-1.044431	0.825952
O128	O	-0.493975	-1.109704	0.807196
C129	C	-0.488903	-1.174750	0.764245
H130	H	-0.429821	-1.181357	0.742945
H131	H	-0.504159	-1.224685	0.799766
C132	C	-0.615127	-1.161307	0.724277
C133	C	-0.542563	-1.169419	0.698111
H134	H	-0.648229	-1.158021	0.683485
H135	H	-0.618546	-1.117486	0.753217
H136	H	-0.627830	-1.202921	0.753878
H137	H	-0.529858	-1.127800	0.668519
H138	H	-0.539143	-1.213233	0.669166
O139	O	-0.258190	-0.523083	0.258043
C140	C	-0.259172	-0.444979	0.258166
H141	H	-0.314774	-0.424648	0.280154
H142	H	-0.212739	-0.423403	0.295154
C143	C	-0.179569	-0.441245	0.151630
C144	C	-0.247862	-0.416273	0.178629
H145	H	-0.172589	-0.423536	0.102569
H146	H	-0.178904	-0.493865	0.151548
H147	H	-0.140882	-0.423262	0.182460
H148	H	-0.286547	-0.434263	0.147805
H149	H	-0.248533	-0.363655	0.178704
H150	H	-0.266285	-1.164863	0.811640
H151	H	-0.391437	-1.198271	0.904253
O152	O	-0.807179	-0.973330	0.456973
C153	C	-0.832429	-0.902009	0.437530
H154	H	-0.846311	-0.900654	0.375930
H155	H	-0.884108	-0.888086	0.471052
C156	C	-0.754399	-0.846401	0.529881
C157	C	-0.771443	-0.844736	0.454221
H158	H	-0.716783	-0.811072	0.540179
H159	H	-0.737390	-0.894452	0.542982
H160	H	-0.797470	-0.834801	0.557806
H161	H	-0.728375	-0.856346	0.426297
H162	H	-0.788444	-0.796686	0.441115
H163	H	-0.449656	-0.619888	0.448980
O164	O	-0.908459	-0.937153	0.321085
C165	C	-0.952495	-0.909623	0.379423
H166	H	-0.974100	-0.957826	0.414021
H167	H	-0.917752	-0.871479	0.415853
C168	C	-0.991809	-0.806757	0.304704
C169	C	-1.018350	-0.865961	0.347195
H170	H	-1.032429	-0.779822	0.284826
H171	H	-0.962139	-0.825303	0.265402
H172	H	-0.962856	-0.774979	0.335070
H173	H	-1.047294	-0.897743	0.316827
H174	H	-1.048026	-0.847420	0.386491
H175	H	-0.232957	-0.619840	0.391350
H176	H	-0.811136	-1.198190	0.391100
O177	O	-0.807158	-1.036682	0.221378
C178	C	-0.729052	-1.036854	0.222198
H179	H	-0.708588	-1.028547	0.281372
H180	H	-0.707875	-1.092133	0.200171
C181	C	-0.725118	-0.983794	0.100237
C182	C	-0.699984	-0.973585	0.172914
H183	H	-0.707186	-0.944769	0.069834
H184	H	-0.777740	-0.983680	0.099682
H185	H	-0.707469	-1.029862	0.081891
H186	H	-0.717641	-0.927523	0.191262
H187	H	-0.647364	-0.973689	0.173471
