data_functionalizedCrystal
_audit_creation_method	'MofGen! by Chris Wilmer'
_symmetry_space_group_name_H-M	'P1'
_symmetry_Int_Tables_number	1
_symmetry_cell_setting	triclinic
loop_
_symmetry_equiv_pos_as_xyz
  x,y,z
_cell_length_a	15.944493
_cell_length_b	15.944545
_cell_length_c	10.065875
_cell_angle_alpha	98.787614
_cell_angle_beta	81.254849
_cell_angle_gamma	83.485608
loop_
_atom_site_label
_atom_site_type_symbol
_atom_site_fract_x
_atom_site_fract_y
_atom_site_fract_z
O1	O	1.126840	0.095753	-0.113481
O2	O	0.882285	0.109160	-0.113488
O3	O	1.011242	-0.019818	-0.113468
O4	O	0.997883	0.224731	-0.113501
O5	O	0.986651	0.004875	0.113517
O6	O	0.857694	0.133853	0.113497
O7	O	1.102250	0.120446	0.113504
Zn8	Zn	0.976068	0.131070	0.149539
Zn9	Zn	1.008467	0.098536	-0.149523
O10	O	0.973293	0.249424	0.113484
C11	C	0.838695	0.120958	0.000003
C12	C	0.745446	0.119315	0.000001
C13	C	0.998393	-0.038766	0.000026
C14	C	0.996732	-0.132011	0.000029
C15	C	0.509686	0.195234	-0.000010
C16	C	0.447003	0.166470	0.111917
C17	C	0.574725	0.116271	0.000004
C18	C	0.471252	0.142105	-0.111872
C19	C	0.409816	0.113336	0.000001
C20	C	0.513260	0.087538	0.112023
C21	C	0.537523	0.063174	-0.111866
C22	C	0.474870	0.034354	0.000088
C23	C	0.669725	0.117964	0.000007
C24	C	0.314818	0.111638	0.000008
C25	C	0.911839	-0.402630	-0.000001
C26	C	0.964894	-0.364227	-0.111916
C27	C	0.990815	-0.467658	-0.000009
C28	C	0.940671	-0.339909	0.111874
C29	C	0.993718	-0.302743	0.000012
C30	C	1.043859	-0.430494	-0.112017
C31	C	1.019613	-0.406169	0.111873
C32	C	1.072728	-0.367802	-0.000069
C33	C	0.989141	-0.562661	-0.000023
C34	C	0.995399	-0.207743	0.000016
C35	C	1.145840	0.108647	0.000009
C36	C	1.239090	0.110290	0.000003
C37	C	0.986142	0.268371	-0.000013
C38	C	0.987804	0.361616	-0.000025
N39	N	0.953963	0.153273	0.353641
N40	N	1.030579	0.076326	-0.353625
C41	C	1.000770	0.106256	0.421427
C42	C	0.983764	0.123350	0.578592
H43	H	0.525298	0.263264	0.000085
H44	H	1.053432	0.053343	0.363111
H45	H	0.931093	0.176260	0.636905
F46	F	0.934699	-0.339855	-0.235591
H47	H	1.083243	0.023410	0.588062
F48	F	0.446824	0.172259	-0.235538
H49	H	1.087449	-0.469612	-0.206736
F50	F	1.161704	-0.347577	-0.000147
H51	H	1.042686	-0.424831	0.206495
H52	H	0.897054	-0.300696	0.206486
F53	F	0.822957	-0.423089	-0.000143
F54	F	0.885121	0.222426	0.429862
H55	H	0.407815	0.210110	0.206532
H56	H	0.459398	-0.033709	0.000161
F57	F	0.537525	0.057445	0.235831
H58	H	0.576721	0.019558	-0.206486
