data_functionalizedCrystal
_audit_creation_method	'MofGen! by Chris Wilmer'
_symmetry_space_group_name_H-M	'P1'
_symmetry_Int_Tables_number	1
_symmetry_cell_setting	triclinic
loop_
_symmetry_equiv_pos_as_xyz
  x,y,z
_cell_length_a	18.050589
_cell_length_b	21.395362
_cell_length_c	21.395355
_cell_angle_alpha	90.043940
_cell_angle_beta	90.012902
_cell_angle_gamma	90.044101
loop_
_atom_site_label
_atom_site_type_symbol
_atom_site_fract_x
_atom_site_fract_y
_atom_site_fract_z
Zn1	Zn	-0.295431	0.957870	0.354610
Zn2	Zn	0.204569	1.457870	0.854610
Zn3	Zn	-0.419603	0.957777	0.249843
Zn4	Zn	0.080397	1.457777	0.749843
Zn5	Zn	-0.295465	0.853085	0.249811
Zn6	Zn	0.204535	1.353085	0.749811
Zn7	Zn	-0.419618	0.853059	0.354548
Zn8	Zn	0.080382	1.353059	0.854548
O9	O	-0.357529	0.905448	0.302203
O10	O	0.142471	1.405448	0.802203
O11	O	-0.311882	1.045536	0.340752
O12	O	0.188118	1.545536	0.840752
O13	O	-0.403144	0.943862	0.162161
O14	O	0.096856	1.443862	0.662161
O15	O	-0.191536	0.867035	0.263726
O16	O	0.308464	1.367035	0.763726
O17	O	-0.403110	1.045468	0.263780
O18	O	0.096890	1.545468	0.763780
O19	O	-0.191511	0.944020	0.340721
O20	O	0.308489	1.444020	0.840721
O21	O	-0.311940	0.866945	0.162138
O22	O	0.188060	1.366945	0.662138
O23	O	-0.311955	0.765404	0.263665
O24	O	0.188045	1.265404	0.763665
O25	O	-0.403136	0.866990	0.442234
O26	O	0.096864	1.366990	0.942234
O27	O	-0.403170	0.765385	0.340615
O28	O	0.096830	1.265385	0.840615
O29	O	-0.311896	0.943995	0.442280
O30	O	0.188104	1.443995	0.942280
O31	O	-0.523529	0.943836	0.263719
O32	O	-0.023529	1.443836	0.763719
O33	O	-0.523540	0.866900	0.340645
O34	O	-0.023540	1.366900	0.840645
C35	C	-0.357568	0.742660	0.302130
C36	C	0.142432	1.242660	0.802130
C37	C	-0.357603	0.673019	0.302114
C38	C	0.142397	1.173019	0.802114
C39	C	-0.405161	0.640312	0.342121
C40	C	0.094839	1.140312	0.842121
C41	C	-0.405143	0.574877	0.342149
C42	C	0.094857	1.074877	0.842149
C43	C	-0.357574	0.542151	0.302159
C44	C	0.142426	1.042151	0.802159
C45	C	-0.310007	0.574865	0.262148
C46	C	0.189993	1.074865	0.762148
C47	C	-0.310021	0.640300	0.262126
C48	C	0.189979	1.140300	0.762126
C49	C	-0.351592	0.438426	0.245753
C50	C	0.148408	0.938426	0.745753
C51	C	-0.351583	0.372993	0.245774
C52	C	0.148417	0.872993	0.745774
C53	C	-0.357526	0.340330	0.302228
C54	C	0.142474	0.840330	0.802228
C55	C	-0.363494	0.373108	0.358662
C56	C	0.136506	0.873108	0.858662
C57	C	-0.363508	0.438542	0.358640
C58	C	0.136492	0.938542	0.858640
C59	C	-0.357553	0.471198	0.302179
C60	C	0.142447	0.971198	0.802179
C61	C	-0.405067	0.236671	0.342269
C62	C	0.094933	0.736671	0.842269
C63	C	-0.405044	0.171234	0.342298
C64	C	0.094956	0.671234	0.842298
C65	C	-0.309911	0.171224	0.262291
C66	C	0.190089	0.671224	0.762291
C67	C	-0.309931	0.236659	0.262268
C68	C	0.190069	0.736659	0.762268
C69	C	-0.357513	0.269379	0.302256
C70	C	0.142487	0.769379	0.802256
C71	C	-0.550481	0.905372	0.302192
C72	C	-0.050481	1.405372	0.802192
C73	C	-0.633027	0.905397	0.302209
C74	C	-0.133027	1.405397	0.802209
C75	C	-0.832511	0.863601	0.344027
C76	C	-0.332511	1.363601	0.844027
C77	C	-0.881943	0.848322	0.286848
C78	C	-0.381943	1.348322	0.786848
C79	C	-0.784157	0.905459	0.302217
C80	C	-0.284157	1.405459	0.802217
C81	C	-0.881806	0.920768	0.359402
C82	C	-0.381806	1.420768	0.859402
C83	C	-0.930142	0.905517	0.302230
C84	C	-0.430142	1.405517	0.802230
C85	C	-0.832503	0.890151	0.245009
C86	C	-0.332503	1.390151	0.745009
C87	C	-0.832361	0.962623	0.317601
C88	C	-0.332361	1.462623	0.817601
C89	C	-0.881772	0.947366	0.260383
C90	C	-0.381772	1.447366	0.760383
C91	C	-0.700059	0.905424	0.302211
C92	C	-0.200059	1.405424	0.802211
C93	C	-1.014239	0.905552	0.302230
C94	C	-0.514239	1.405552	0.802230
C95	C	-0.163823	0.905541	0.302227
C96	C	0.336177	1.405541	0.802227
C97	C	-0.081278	0.905581	0.302237
C98	C	0.418722	1.405581	0.802237
C99	C	-0.357514	0.905500	0.465626
C100	C	0.142486	1.405500	0.965626
C101	C	-0.357508	0.905522	0.535268
C102	C	0.142492	1.405522	1.035268
C103	C	-0.357490	1.068871	0.302276
C104	C	0.142510	1.568871	0.802276
C105	C	-0.357474	1.138513	0.302307
C106	C	0.142526	1.638513	0.802307
C107	C	-0.357490	0.905432	0.139415
C108	C	0.142510	1.405432	0.639415
C109	C	-0.357288	0.905531	0.069774
C110	C	0.142712	1.405531	0.569774
C111	C	-0.309997	0.945617	0.568006
C112	C	0.190003	1.445617	1.068006
C113	C	-0.309965	0.945616	0.633441
C114	C	0.190035	1.445616	1.133441
C115	C	-0.357457	0.905527	0.666136
C116	C	0.142543	1.405527	1.166136
C117	C	-0.404971	0.865425	0.633390
C118	C	0.095029	1.365425	1.133390
C119	C	-0.404996	0.865422	0.567956
C120	C	0.095004	1.365422	1.067956
C121	C	-0.424328	0.900554	0.769805
C122	C	0.075672	1.400554	1.269805
C123	C	-0.424304	0.900560	0.835238
C124	C	0.075696	1.400560	1.335238
C125	C	-0.357379	0.905531	0.867957
C126	C	0.142621	1.405531	1.367957
C127	C	-0.290475	0.910508	0.835234
C128	C	0.209525	1.410508	1.335234
C129	C	-0.290501	0.910505	0.769800
C130	C	0.209499	1.410505	1.269800
C131	C	-0.357435	0.905525	0.737088
C132	C	0.142565	1.405525	1.237088
C133	C	-0.309829	0.945627	0.971647
C134	C	0.190171	1.445627	1.471647
C135	C	-0.309796	0.945621	1.037084
C136	C	0.190204	1.445621	1.537084
C137	C	-0.404809	0.865434	1.037032
C138	C	0.095191	1.365434	1.537032
C139	C	-0.404835	0.865436	0.971596
C140	C	0.095165	1.365436	1.471596
C141	C	-0.357347	0.905535	0.938908
C142	C	0.142653	1.405535	1.438908
H143	H	-0.443807	0.263312	0.374833
H144	H	0.056193	0.763312	0.874833
H145	H	-0.235979	0.914556	0.861872
H146	H	0.264021	1.414556	1.361872
H147	H	-0.903266	0.982789	0.224991
H148	H	-0.403266	1.482789	0.724991
N149	N	-0.453624	0.137832	0.383177
N150	N	0.046376	0.637832	0.883177
N151	N	-0.496099	0.167057	0.418876
N152	N	0.003901	0.667057	0.918876
H153	H	-0.530409	0.143467	0.447748
H154	H	-0.030409	0.643467	0.947748
H155	H	-0.443905	0.666948	0.374684
H156	H	0.056095	1.166948	0.874684
H157	H	-0.443528	0.832790	0.944941
H158	H	0.056472	1.332790	1.444941
H159	H	-0.443684	0.832770	0.541301
H160	H	0.056316	1.332770	1.041301
N161	N	-0.261331	0.137802	0.221433
N162	N	0.238669	0.637802	0.721433
N163	N	-0.266160	0.145039	0.163609
N164	N	0.233840	0.645039	0.663609
H165	H	-0.231848	0.121431	0.134752
H166	H	0.268152	0.621431	0.634752
N167	N	-0.369605	0.472015	0.416286
N168	N	0.130395	0.972015	0.916286
N169	N	-0.374914	0.442851	0.466689
N170	N	0.125086	0.942851	0.966689
H171	H	-0.379218	0.466491	0.507404
H172	H	0.120782	0.966491	1.007404
N173	N	-0.261348	0.270063	0.221395
N174	N	0.238652	0.770063	0.721395
N175	N	-0.218876	0.240838	0.185693
N176	N	0.281124	0.740838	0.685693
H177	H	-0.184560	0.264429	0.156825
H178	H	0.315440	0.764429	0.656825
N179	N	-0.453486	0.824469	0.666774
N180	N	0.046514	1.324469	1.166774
N181	N	-0.495901	0.788669	0.637532
N182	N	0.004099	1.288669	1.137532
H183	H	-0.530162	0.759738	0.661109
H184	H	-0.030162	1.259738	1.161109
N185	N	-0.261442	0.673722	0.221263
N186	N	0.238558	1.173722	0.721263
N187	N	-0.214170	0.710302	0.243364
N188	N	0.285830	1.210302	0.743364
H189	H	-0.179861	0.733909	0.214504
H190	H	0.320139	1.233909	0.714504
N191	N	-0.805028	1.023219	0.333948
N192	N	-0.305028	1.523219	0.833948
N193	N	-0.820770	1.046531	0.385856
N194	N	-0.320770	1.546531	0.885856
H195	H	-0.801466	1.089328	0.397408
H196	H	-0.301466	1.589328	0.897408
N197	N	-0.261316	0.986571	0.938243
N198	N	0.238684	1.486571	1.438243
N199	N	-0.261346	0.986565	0.879820
N200	N	0.238654	1.486565	1.379820
H201	H	-0.227083	1.015482	0.856228
H202	H	0.272917	1.515482	1.356228
N203	N	-0.805379	0.819126	0.388317
N204	N	-0.305379	1.319126	0.888317
N205	N	-0.821314	0.762555	0.382488
N206	N	-0.321314	1.262555	0.882488
H207	H	-0.802152	0.731143	0.413766
H208	H	-0.302152	1.231143	0.913766
H209	H	-0.903463	0.933693	0.407758
H210	H	-0.403463	1.433693	0.907758
H211	H	-0.478812	0.896338	0.743171
H212	H	0.021188	1.396338	1.243171
N213	N	-0.909256	0.787707	0.270531
N214	N	-0.409256	1.287707	0.770531
N215	N	-0.893496	0.741528	0.303711
N216	N	-0.393496	1.241528	0.803711
H217	H	-0.912783	0.698717	0.292190
H218	H	-0.412783	1.198717	0.792190
H219	H	-0.346728	0.346310	0.199822
H220	H	0.153272	0.846310	0.699822
N221	N	-0.345507	0.471777	0.188078
N222	N	0.154493	0.971777	0.688078
N223	N	-0.340181	0.442506	0.137697
N224	N	0.159819	0.942506	0.637697
H225	H	-0.335879	0.466059	0.096965
H226	H	0.164121	0.966059	0.596965
H227	H	-0.271275	0.548216	0.229589
H228	H	0.228725	1.048216	0.729589
N229	N	-0.453729	0.541449	0.383007
N230	N	0.046271	1.041449	0.883007
N231	N	-0.453710	0.483026	0.383016
N232	N	0.046290	0.983026	0.883016
H233	H	-0.488024	0.459418	0.411870
H234	H	0.011976	0.959418	0.911870
N235	N	-0.261487	0.986581	0.534626
N236	N	0.238513	1.486581	1.034626
N237	N	-0.219070	1.022379	0.563870
N238	N	0.280930	1.522379	1.063870
H239	H	-0.184809	1.051311	0.540295
H240	H	0.315191	1.551311	1.040295
H241	H	-0.810935	0.877170	0.196640
H242	H	-0.310935	1.377170	0.696640
H243	H	-0.271272	0.978264	0.660102
H244	H	0.228728	1.478264	1.160102
H245	H	-0.236026	0.914556	0.743160
H246	H	0.263974	1.414556	1.243160
N247	N	-0.261252	0.986579	1.070518
N248	N	0.238748	1.486579	1.570518
N249	N	-0.218858	1.022375	1.041321
N250	N	0.281142	1.522375	1.541321
H251	H	-0.184572	1.051303	1.064933
H252	H	0.315428	1.551303	1.564933
N253	N	-0.453309	0.824481	1.070430
N254	N	0.046691	1.324481	1.570430
N255	N	-0.453278	0.824485	1.128853
N256	N	0.046722	1.324485	1.628853
H257	H	-0.487530	0.795559	1.152444
H258	H	0.012470	1.295559	1.652444
N259	N	-0.492642	0.895436	0.868651
N260	N	0.007358	1.395436	1.368651
N261	N	-0.552388	0.890959	0.839433
N262	N	-0.052388	1.390959	1.339433
H263	H	-0.600652	0.887322	0.863028
H264	H	-0.100652	1.387322	1.363028
H265	H	-0.368333	0.346516	0.404632
H266	H	0.131667	0.846516	0.904632
