data_functionalizedCrystal
_audit_creation_method	'MofGen! by Chris Wilmer'
_symmetry_space_group_name_H-M	'P1'
_symmetry_Int_Tables_number	1
_symmetry_cell_setting	triclinic
loop_
_symmetry_equiv_pos_as_xyz
  x,y,z
_cell_length_a	18.215407
_cell_length_b	19.805405
_cell_length_c	18.215399
_cell_angle_alpha	90.030610
_cell_angle_beta	90.019833
_cell_angle_gamma	90.026858
loop_
_atom_site_label
_atom_site_type_symbol
_atom_site_fract_x
_atom_site_fract_y
_atom_site_fract_z
Zn1	Zn	1.125064	-0.269462	0.416102
Zn2	Zn	1.124969	-0.382653	0.293030
Zn3	Zn	1.001997	-0.269484	0.293050
Zn4	Zn	1.001959	-0.382615	0.416055
O5	O	1.063497	-0.326054	0.354559
O6	O	1.228036	-0.284484	0.399788
O7	O	1.108633	-0.367666	0.190049
O8	O	1.018377	-0.174765	0.309401
O9	O	1.227966	-0.367644	0.309368
O10	O	1.108794	-0.174748	0.399807
O11	O	1.018285	-0.284521	0.190063
O12	O	0.899008	-0.284485	0.309355
O13	O	1.018313	-0.367580	0.519046
O14	O	0.898980	-0.367602	0.399727
O15	O	1.108758	-0.284447	0.519080
O16	O	1.108596	-0.477365	0.309322
O17	O	1.018221	-0.477337	0.399708
C18	C	0.872291	-0.326042	0.354538
C19	C	0.790492	-0.326053	0.354547
C20	C	0.602303	-0.369400	0.401544
C21	C	0.525444	-0.369403	0.401553
C22	C	0.525444	-0.282719	0.307591
C23	C	0.602301	-0.282714	0.307586
C24	C	0.640729	-0.326059	0.354561
C25	C	0.487013	-0.326066	0.354575
C26	C	0.403679	-0.326068	0.354585
C27	C	0.724068	-0.326056	0.354553
C28	C	1.063415	-0.501910	0.354524
C29	C	1.063446	-0.577142	0.354533
C30	C	1.110550	-0.612478	0.307518
C31	C	1.110582	-0.683166	0.307535
C32	C	1.063505	-0.718517	0.354562
C33	C	1.016399	-0.683176	0.401582
C34	C	1.016372	-0.612489	0.401569
C35	C	1.016507	-0.968249	0.401637
C36	C	1.016536	-1.038941	0.401645
C37	C	1.110717	-1.038927	0.307602
C38	C	1.110690	-0.968239	0.307589
C39	C	1.063587	-0.932905	0.354611
C40	C	1.063555	-0.856256	0.354594
C41	C	1.063533	-0.795164	0.354577
C42	C	1.255450	-0.326066	0.354581
C43	C	1.337249	-0.326071	0.354590
C44	C	1.063542	-0.326007	0.546512
C45	C	1.063561	-0.325987	0.628311
C46	C	1.063601	-0.149511	0.354611
C47	C	1.063645	-0.074279	0.354633
C48	C	1.063495	-0.326051	0.163353
C49	C	1.063619	-0.325880	0.081555
C50	C	1.110673	-0.282659	0.816524
C51	C	1.110682	-0.282639	0.893383
C52	C	1.016502	-0.369210	0.893336
C53	C	1.016490	-0.369226	0.816479
C54	C	1.063580	-0.325952	0.778075
C55	C	1.063600	-0.325916	0.931791
C56	C	1.063609	-0.325895	1.015125
C57	C	1.063570	-0.325972	0.694736
H58	H	0.633589	-0.404693	0.439797
O59	O	0.970832	-1.073387	0.447266
C60	C	0.980971	-1.143354	0.437203
H61	H	1.005102	-1.153022	0.380429
H62	H	0.925856	-1.170260	0.442155
H63	H	1.020151	-1.163357	0.480888
O64	O	0.970673	-0.934036	0.447325
C65	C	0.929137	-0.980398	0.488840
H66	H	0.926637	-1.030808	0.458703
H67	H	0.871138	-0.960019	0.496623
H68	H	0.956048	-0.987857	0.544764
O69	O	1.156456	-0.933825	0.262009
C70	C	1.203959	-0.892887	0.303948
H71	H	1.177966	-0.882283	0.359693
H72	H	1.213819	-0.843190	0.273974
H73	H	1.258503	-0.920082	0.312089
H74	H	1.149073	-1.067705	0.269317
H75	H	1.149028	-0.247385	0.924686
O76	O	0.970691	-0.717619	0.447196
C77	C	0.980826	-0.787587	0.437139
H78	H	1.004965	-0.797259	0.380369
H79	H	0.925708	-0.814489	0.442084
H80	H	1.019997	-0.807590	0.480831
H81	H	1.149014	-0.247420	0.785258
H82	H	0.494146	-0.247431	0.269344
H83	H	0.494162	-0.404695	0.439812
O84	O	0.639518	-0.240588	0.261874
C85	C	0.589122	-0.202325	0.220421
H86	H	0.534322	-0.230047	0.217819
H87	H	0.611312	-0.195036	0.162452
H88	H	0.580982	-0.150951	0.247471
O89	O	1.156349	-0.578245	0.261809
C90	C	1.197917	-0.624596	0.220304
H91	H	1.200468	-0.674962	0.250461
H92	H	1.255897	-0.604134	0.212501
H93	H	1.171002	-0.632172	0.164389
O94	O	1.156514	-0.717470	0.262023
C95	C	1.204025	-0.758234	0.304059
H96	H	1.208375	-0.736890	0.362032
H97	H	1.260730	-0.758912	0.277604
H98	H	1.181391	-0.811860	0.306532
H99	H	0.978165	-0.404444	0.924614
O100	O	0.970548	-0.578266	0.447265
C101	C	0.929016	-0.624624	0.488791
H102	H	0.926497	-0.675032	0.458652
H103	H	0.871023	-0.604235	0.496592
H104	H	0.955943	-0.632089	0.544706
O105	O	0.970719	-0.411348	0.779237
C106	C	0.929151	-0.449533	0.829613
H107	H	0.959299	-0.451869	0.884405
H108	H	0.921269	-0.502864	0.807383
H109	H	0.873273	-0.424744	0.837783
