data_functionalizedCrystal
_audit_creation_method	'MofGen! by Chris Wilmer'
_symmetry_space_group_name_H-M	'P1'
_symmetry_Int_Tables_number	1
_symmetry_cell_setting	triclinic
loop_
_symmetry_equiv_pos_as_xyz
  x,y,z
_cell_length_a	16.959434
_cell_length_b	16.959455
_cell_length_c	16.959454
_cell_angle_alpha	90.017022
_cell_angle_beta	89.913905
_cell_angle_gamma	89.940481
loop_
_atom_site_label
_atom_site_type_symbol
_atom_site_fract_x
_atom_site_fract_y
_atom_site_fract_z
Zn1	Zn	0.446929	-1.208736	0.314267
Zn2	Zn	0.946929	-0.708736	0.814267
Zn3	Zn	0.314759	-1.208555	0.446597
Zn4	Zn	0.814759	-0.708555	0.946597
Zn5	Zn	0.314767	-1.076461	0.314429
Zn6	Zn	0.814767	-0.576461	0.814429
Zn7	Zn	0.446898	-1.076530	0.446401
Zn8	Zn	0.946898	-0.576530	0.946401
O9	O	0.380838	-1.142570	0.380423
O10	O	0.880838	-0.642570	0.880423
O11	O	0.429407	-1.319323	0.331835
O12	O	0.929407	-0.819323	0.831835
O13	O	0.204149	-1.190927	0.429214
O14	O	0.704149	-0.690927	0.929214
O15	O	0.332315	-1.094055	0.203797
O16	O	0.832315	-0.594055	0.703797
O17	O	0.332302	-1.319190	0.429057
O18	O	0.832302	-0.819190	0.929057
O19	O	0.429414	-1.191237	0.203678
O20	O	0.929414	-0.691237	0.703678
O21	O	0.204154	-1.093878	0.332111
O22	O	0.704154	-0.593878	0.832111
O23	O	0.332284	-0.965859	0.331921
O24	O	0.832284	-0.465859	0.831921
O25	O	0.557513	-1.094172	0.428723
O26	O	1.057513	-0.594172	0.928723
O27	O	0.429360	-0.965910	0.428880
O28	O	0.929360	-0.465910	0.928880
O29	O	0.557536	-1.191304	0.331645
O30	O	1.057536	-0.691304	0.831645
O31	O	0.332271	-1.190994	0.557181
O32	O	0.832271	-0.690994	1.057181
O33	O	0.429353	-1.093996	0.557037
O34	O	0.929353	-0.593996	1.057037
C35	C	0.380820	-0.937204	0.380397
C36	C	0.880820	-0.437204	0.880397
C37	C	0.380831	-0.849347	0.380405
C38	C	0.880831	-0.349347	0.880405
C39	C	0.380825	-1.142504	0.585790
C40	C	0.880825	-0.642504	1.085790
C41	C	0.380845	-1.142548	0.673646
C42	C	0.880845	-0.642548	1.173646
C43	C	0.175471	-1.142421	0.380644
C44	C	0.675471	-0.642421	0.880644
C45	C	0.087615	-1.142491	0.380541
C46	C	0.587615	-0.642491	0.880541
C47	C	-0.284098	-1.092609	0.430987
C48	C	0.215902	-0.592609	0.930987
C49	C	-0.283622	-1.193017	0.329167
C50	C	0.216378	-0.693017	0.829167
C51	C	-0.201076	-1.192947	0.329270
C52	C	0.298924	-0.692947	0.829270
C53	C	-0.160037	-1.142707	0.380231
C54	C	0.339963	-0.642707	0.880231
C55	C	-0.201544	-1.092536	0.431090
C56	C	0.298456	-0.592536	0.931090
C57	C	-0.159563	-1.243111	0.278407
C58	C	0.340437	-0.743111	0.778407
C59	C	-0.077012	-1.243042	0.278508
C60	C	0.422988	-0.743042	0.778508
C61	C	-0.035972	-1.192805	0.329474
C62	C	0.464028	-0.692805	0.829474
C63	C	-0.077484	-1.142634	0.380334
C64	C	0.422516	-0.642634	0.880334
C65	C	-0.036445	-1.092393	0.431296
C66	C	0.463555	-0.592393	0.931296
C67	C	-0.077956	-1.042225	0.482161
C68	C	0.422044	-0.542225	0.982161
C69	C	-0.160504	-1.042299	0.482056
C70	C	0.339496	-0.542299	0.982056
C71	C	0.046576	-1.192731	0.329579
C72	C	0.546576	-0.692731	0.829579
C73	C	0.046108	-1.092320	0.431399
C74	C	0.546108	-0.592320	0.931399
C75	C	0.587007	-1.142766	0.380144
C76	C	1.087007	-0.642766	0.880144
C77	C	0.674864	-1.142849	0.380025
C78	C	1.174864	-0.642849	0.880025
C79	C	0.380857	-1.348739	0.380450
C80	C	0.880857	-0.848739	0.880450
C81	C	0.380865	-1.436595	0.380461
C82	C	0.880865	-0.936595	0.880461
C83	C	0.330396	-0.477821	0.329895
C84	C	0.830396	0.022179	0.829895
C85	C	0.431325	-0.477923	0.431016
C86	C	0.931325	0.022077	0.931016
C87	C	0.431321	-0.560468	0.431005
C88	C	0.931321	-0.060468	0.931005
C89	C	0.380852	-0.601695	0.380439
C90	C	0.880852	-0.101695	0.880439
C91	C	0.330388	-0.560375	0.329884
C92	C	0.830388	-0.060375	0.829884
C93	C	0.481778	-0.601794	0.481565
C94	C	0.981778	-0.101794	0.981565
C95	C	0.481774	-0.684345	0.481556
C96	C	0.981774	-0.184345	0.981556
C97	C	0.431309	-0.725573	0.430985
C98	C	0.931309	-0.225573	0.930985
C99	C	0.380844	-0.684248	0.380428
C100	C	0.880844	-0.184248	0.880428
C101	C	0.330375	-0.725474	0.329862
C102	C	0.830375	-0.225474	0.829862
C103	C	0.279913	-0.684151	0.279299
C104	C	0.779913	-0.184151	0.779299
C105	C	0.279923	-0.601602	0.279313
C106	C	0.779923	-0.101602	0.779313
C107	C	0.431300	-0.808121	0.430971
C108	C	0.931300	-0.308121	0.930971
C109	C	0.330367	-0.808028	0.329850
C110	C	0.830367	-0.308028	0.829850
C111	C	0.380869	-1.142658	0.174255
C112	C	0.880869	-0.642658	0.674255
C113	C	0.380882	-1.142696	0.086398
C114	C	0.880882	-0.642696	0.586398
C115	C	0.431383	-1.092137	1.045077
C116	C	0.931383	-0.592137	1.545077
C117	C	0.330374	-1.193224	1.045167
C118	C	0.830374	-0.693224	1.545167
C119	C	0.330366	-1.193197	0.962621
C120	C	0.830366	-0.693197	1.462621
C121	C	0.380867	-1.142637	0.921299
C122	C	0.880867	-0.642637	1.421299
C123	C	0.431376	-1.092106	0.962523
C124	C	0.931376	-0.592106	1.462523
C125	C	0.279853	-1.243722	0.921391
C126	C	0.779853	-0.743722	1.421391
C127	C	0.279843	-1.243695	0.838840
C128	C	0.779843	-0.743695	1.338840
C129	C	0.330349	-1.193140	0.797516
C130	C	0.830349	-0.693140	1.297516
C131	C	0.380860	-1.142607	0.838746
C132	C	0.880860	-0.642607	1.338746
C133	C	0.431361	-1.092047	0.797424
C134	C	0.931361	-0.592047	1.297424
C135	C	0.481877	-1.041518	0.838652
C136	C	0.981877	-0.541518	1.338652
C137	C	0.481882	-1.041550	0.921200
C138	C	0.981882	-0.541550	1.421200
C139	C	0.330344	-1.193107	0.714968
C140	C	0.830344	-0.693107	1.214968
C141	C	0.431354	-1.092016	0.714870
C142	C	0.931354	-0.592016	1.214870
H143	H	0.079516	-1.051411	0.472901
H144	H	0.579516	-0.551411	0.972901
C145	C	0.486945	-1.036553	1.090427
C146	C	0.986945	-0.536553	1.590427
N147	N	0.528792	-0.994686	1.124586
N148	N	1.028792	-0.494686	1.624586
C149	C	0.274818	-1.248828	1.090623
C150	C	0.774818	-0.748828	1.590623
N151	N	0.232970	-1.290711	1.124865
N152	N	0.732970	-0.790711	1.624865
C153	C	0.274782	-1.248687	0.669621
C154	C	0.774782	-0.748687	1.169621
N155	N	0.232931	-1.290556	0.635467
N156	N	0.732931	-0.790556	1.135467
H157	H	0.522992	-1.000348	0.804998
H158	H	1.022992	-0.500348	1.304998
C159	C	0.224417	-0.556140	0.223703
C160	C	0.724417	-0.056140	0.723703
N161	N	0.182608	-0.521895	0.181820
N162	N	0.682608	-0.021895	0.681820
C163	C	-0.031358	-1.298233	0.222560
C164	C	0.468642	-0.798233	0.722560
N165	N	0.003030	-1.339806	0.180423
N166	N	0.503030	-0.839806	0.680423
C167	C	-0.032803	-0.986956	0.538211
C168	C	0.467197	-0.486956	1.038211
N169	N	0.001210	-0.945327	0.580425
N170	N	0.501210	-0.445327	1.080425
H171	H	-0.194310	-1.001454	0.523467
H172	H	0.305690	-0.501454	1.023467
C173	C	-0.329759	-1.037424	0.486934
C174	C	0.170241	-0.537424	0.986934
N175	N	-0.364153	-0.995856	0.529072
N176	N	0.135847	-0.495856	1.029072
C177	C	0.274891	-0.432365	0.274279
C178	C	0.774891	0.067635	0.774279
N179	N	0.233084	-0.398127	0.232389
N180	N	0.733084	0.101873	0.732389
C181	C	-0.328767	-1.248274	0.273109
C182	C	0.171233	-0.748274	0.773109
N183	N	-0.362774	-1.289896	0.230884
N184	N	0.137226	-0.789896	0.730884
C185	C	0.092234	-1.247913	0.273631
C186	C	0.592234	-0.747913	0.773631
N187	N	0.126623	-1.289480	0.231489
N188	N	0.626623	-0.789480	0.731489
C189	C	0.537435	-0.985963	0.966556
C190	C	1.037435	-0.485963	1.466556
N191	N	0.579273	-0.944092	1.000722
N192	N	1.079273	-0.444092	1.500722
C193	C	0.486836	-0.432571	0.486638
C194	C	0.986836	0.067429	0.986638
N195	N	0.528650	-0.398409	0.528533
N196	N	1.028650	0.101591	1.028533
H197	H	0.472382	-0.841763	0.472141
H198	H	0.972382	-0.341763	0.972141
H199	H	0.522861	-0.568222	0.522738
H200	H	1.022861	-0.068222	1.022738
H201	H	-0.192982	-1.284011	0.236915
H202	H	0.307018	-0.784011	0.736915
C203	C	0.274846	-0.853370	0.274222
C204	C	0.774846	-0.353370	0.774222
N205	N	0.233027	-0.887521	0.232324
N206	N	0.733027	-0.387521	0.732324
H207	H	0.522864	-0.717984	0.522726
H208	H	1.022864	-0.217984	1.022726
H209	H	0.238732	-1.284878	0.955041
H210	H	0.738732	-0.784878	1.455041
C211	C	0.224271	-1.299274	0.793497
C212	C	0.724271	-0.799274	1.293497
N213	N	0.182412	-1.341135	0.759344
N214	N	0.682412	-0.841135	1.259344
H215	H	0.238818	-0.717728	0.238132
H216	H	0.738818	-0.217728	0.738132
H217	H	0.472481	-1.050848	0.681231
H218	H	0.972481	-0.550848	1.181231
