data_functionalizedCrystal
_audit_creation_method	'MofGen! by Chris Wilmer'
_symmetry_space_group_name_H-M	'P1'
_symmetry_Int_Tables_number	1
_symmetry_cell_setting	triclinic
loop_
_symmetry_equiv_pos_as_xyz
  x,y,z
_cell_length_a	18.215407
_cell_length_b	18.215405
_cell_length_c	18.215399
_cell_angle_alpha	90.027541
_cell_angle_beta	89.979405
_cell_angle_gamma	89.977347
loop_
_atom_site_label
_atom_site_type_symbol
_atom_site_fract_x
_atom_site_fract_y
_atom_site_fract_z
Zn1	Zn	-1.125083	-0.292993	0.416133
Zn2	Zn	-0.875083	-0.042993	0.666133
Zn3	Zn	-0.625083	0.207007	0.916133
Zn4	Zn	-0.375083	0.457007	1.166133
Zn5	Zn	-1.124996	-0.416065	0.293068
Zn6	Zn	-0.874996	-0.166065	0.543068
Zn7	Zn	-0.624996	0.083935	0.793068
Zn8	Zn	-0.374996	0.333935	1.043068
Zn9	Zn	-1.002016	-0.293016	0.293079
Zn10	Zn	-0.752016	-0.043016	0.543079
Zn11	Zn	-0.502016	0.206984	0.793079
Zn12	Zn	-0.252016	0.456984	1.043079
Zn13	Zn	-1.001986	-0.416023	0.416091
Zn14	Zn	-0.751986	-0.166023	0.666091
Zn15	Zn	-0.501986	0.083977	0.916091
Zn16	Zn	-0.251986	0.333977	1.166091
O17	O	-1.063520	-0.354524	0.354592
O18	O	-0.813520	-0.104524	0.604592
O19	O	-0.563520	0.145476	0.854592
O20	O	-0.313520	0.395476	1.104592
O21	O	-1.228056	-0.309327	0.399821
O22	O	-0.978056	-0.059327	0.649821
O23	O	-0.728056	0.190673	0.899821
O24	O	-0.478056	0.440673	1.149821
O25	O	-1.108658	-0.399769	0.190085
O26	O	-0.858658	-0.149769	0.440085
O27	O	-0.608658	0.100231	0.690085
O28	O	-0.358658	0.350231	0.940085
O29	O	-1.018389	-0.190029	0.309424
O30	O	-0.768389	0.059971	0.559424
O31	O	-0.518389	0.309971	0.809424
O32	O	-0.268389	0.559971	1.059424
O33	O	-1.227992	-0.399747	0.309405
O34	O	-0.977992	-0.149747	0.559405
O35	O	-0.727992	0.100253	0.809405
O36	O	-0.477992	0.350253	1.059405
O37	O	-1.108807	-0.190012	0.399832
O38	O	-0.858807	0.059988	0.649832
O39	O	-0.608807	0.309988	0.899832
O40	O	-0.358807	0.559988	1.149832
O41	O	-1.018305	-0.309366	0.190093
O42	O	-0.768305	-0.059366	0.440093
O43	O	-0.518305	0.190634	0.690093
O44	O	-0.268305	0.440634	0.940093
O45	O	-0.899027	-0.309325	0.309384
O46	O	-0.649027	-0.059325	0.559384
O47	O	-0.399027	0.190675	0.809384
O48	O	-0.149027	0.440675	1.059384
O49	O	-1.018339	-0.399675	0.519081
O50	O	-0.768339	-0.149675	0.769081
O51	O	-0.518339	0.100325	1.019081
O52	O	-0.268339	0.350325	1.269081
O53	O	-0.899006	-0.399697	0.399760
O54	O	-0.649006	-0.149697	0.649760
O55	O	-0.399006	0.100303	0.899760
O56	O	-0.149006	0.350303	1.149760
O57	O	-1.108778	-0.309286	0.519112
O58	O	-0.858778	-0.059286	0.769112
O59	O	-0.608778	0.190714	1.019112
O60	O	-0.358778	0.440714	1.269112
O61	O	-1.108630	-0.519043	0.309365
O62	O	-0.858630	-0.269043	0.559365
O63	O	-0.608630	-0.019043	0.809365
O64	O	-0.358630	0.230957	1.059365
O65	O	-1.018255	-0.519012	0.399749
O66	O	-0.768255	-0.269012	0.649749
O67	O	-0.518255	-0.019012	0.899749
O68	O	-0.268255	0.230988	1.149749
C69	C	-0.872314	-0.354510	0.354569
C70	C	-0.622314	-0.104510	0.604569
C71	C	-0.372314	0.145490	0.854569
C72	C	-0.122314	0.395490	1.104569
C73	C	-0.790515	-0.354521	0.354576
C74	C	-0.540515	-0.104521	0.604576
C75	C	-0.290515	0.145479	0.854576
C76	C	-0.040515	0.395479	1.104576
C77	C	-1.063450	-0.545730	0.354567
C78	C	-0.813450	-0.295730	0.604567
C79	C	-0.563450	-0.045730	0.854567
C80	C	-0.313450	0.204270	1.104567
C81	C	-1.063487	-0.627529	0.354581
C82	C	-0.813487	-0.377529	0.604581
C83	C	-0.563487	-0.127529	0.854581
C84	C	-0.313487	0.122471	1.104581
C85	C	-0.602329	-0.401650	0.401574
C86	C	-0.352329	-0.151650	0.651574
C87	C	-0.102329	0.098350	0.901574
C88	C	0.147671	0.348350	1.151574
C89	C	-0.525470	-0.401652	0.401582
C90	C	-0.275470	-0.151652	0.651582
C91	C	-0.025470	0.098348	0.901582
C92	C	0.224530	0.348348	1.151582
C93	C	-0.525463	-0.307402	0.307614
C94	C	-0.275463	-0.057402	0.557614
C95	C	-0.025463	0.192598	0.807614
C96	C	0.224537	0.442598	1.057614
C97	C	-0.602321	-0.307397	0.307610
C98	C	-0.352321	-0.057397	0.557610
C99	C	-0.102321	0.192603	0.807610
C100	C	0.147679	0.442603	1.057610
C101	C	-0.640751	-0.354526	0.354589
C102	C	-0.390751	-0.104526	0.604589
C103	C	-0.140751	0.145474	0.854589
C104	C	0.109249	0.395474	1.104589
C105	C	-0.487035	-0.354532	0.354601
C106	C	-0.237035	-0.104532	0.604601
C107	C	0.012965	0.145468	0.854601
C108	C	0.262965	0.395468	1.104601
C109	C	-0.403702	-0.354533	0.354609
C110	C	-0.153702	-0.104533	0.604609
C111	C	0.096298	0.145467	0.854609
C112	C	0.346298	0.395467	1.104609
C113	C	-0.724090	-0.354524	0.354582
C114	C	-0.474090	-0.104524	0.604582
C115	C	-0.224090	0.145476	0.854582
C116	C	0.025910	0.395476	1.104582
C117	C	-0.255473	-0.354537	0.354613
C118	C	-0.005473	-0.104537	0.604613
C119	C	0.244527	0.145463	0.854613
C120	C	0.494527	0.395463	1.104613
C121	C	-0.337272	-0.354536	0.354614
C122	C	-0.087272	-0.104536	0.604614
C123	C	0.162728	0.145464	0.854614
C124	C	0.412728	0.395464	1.104614
C125	C	-1.110589	-0.815653	0.401720
C126	C	-0.860589	-0.565653	0.651720
C127	C	-0.610589	-0.315653	0.901720
C128	C	-0.360589	-0.065653	1.151720
C129	C	-1.110616	-0.892512	0.401734
C130	C	-0.860616	-0.642512	0.651734
C131	C	-0.610616	-0.392512	0.901734
C132	C	-0.360616	-0.142512	1.151734
C133	C	-1.016542	-0.892643	0.307511
C134	C	-0.766542	-0.642643	0.557511
C135	C	-0.516542	-0.392643	0.807511
C136	C	-0.266542	-0.142643	1.057511
C137	C	-1.016512	-0.815786	0.307501
C138	C	-0.766512	-0.565786	0.557501
C139	C	-0.516512	-0.315786	0.807501
C140	C	-0.266512	-0.065786	1.057501
C141	C	-1.063540	-0.777293	0.354605
C142	C	-0.813540	-0.527293	0.604605
C143	C	-0.563540	-0.277293	0.854605
C144	C	-0.313540	-0.027293	1.104605
C145	C	-1.063597	-0.931009	0.354628
C146	C	-0.813597	-0.681009	0.604628
C147	C	-0.563597	-0.431009	0.854628
C148	C	-0.313597	-0.181009	1.104628
C149	C	-1.063625	-1.014343	0.354643
C150	C	-0.813625	-0.764343	0.604643
C151	C	-0.563625	-0.514343	0.854643
C152	C	-0.313625	-0.264343	1.104643
C153	C	-1.063511	-0.693954	0.354591
C154	C	-0.813511	-0.443954	0.604591
C155	C	-0.563511	-0.193954	0.854591
C156	C	-0.313511	0.056046	1.104591
C157	C	-1.063565	-0.354473	0.546545
C158	C	-0.813565	-0.104473	0.796545
C159	C	-0.563565	0.145527	1.046545
C160	C	-0.313565	0.395527	1.296545
C161	C	-1.063584	-0.354452	0.628344
C162	C	-0.813584	-0.104452	0.878344
C163	C	-0.563584	0.145548	1.128344
C164	C	-0.313584	0.395548	1.378344
C165	C	-1.063611	-0.162571	0.354634
C166	C	-0.813611	0.087429	0.604634
C167	C	-0.563611	0.337429	0.854634
C168	C	-0.313611	0.587429	1.104634
C169	C	-1.063650	-0.080772	0.354652
C170	C	-0.813650	0.169228	0.604652
C171	C	-0.563650	0.419228	0.854652
C172	C	-0.313650	0.669228	1.104652
C173	C	-1.063518	-0.354522	0.163386
C174	C	-0.813518	-0.104522	0.413386
C175	C	-0.563518	0.145478	0.663386
C176	C	-0.313518	0.395478	0.913386
C177	C	-1.063641	-0.354336	0.081588
C178	C	-0.813641	-0.104336	0.331588
C179	C	-0.563641	0.145664	0.581588
C180	C	-0.313641	0.395664	0.831588
C181	C	-1.110692	-0.307342	0.816556
C182	C	-0.860692	-0.057342	1.066556
C183	C	-0.610692	0.192658	1.316556
C184	C	-0.360692	0.442658	1.566556
C185	C	-1.110701	-0.307321	0.893415
C186	C	-0.860701	-0.057321	1.143415
C187	C	-0.610701	0.192679	1.393415
C188	C	-0.360701	0.442679	1.643415
C189	C	-1.016528	-0.401448	0.893371
C190	C	-0.766528	-0.151448	1.143371
C191	C	-0.516528	0.098552	1.393371
C192	C	-0.266528	0.348552	1.643371
C193	C	-1.016516	-0.401465	0.816514
C194	C	-0.766516	-0.151465	1.066514
C195	C	-0.516516	0.098535	1.316514
C196	C	-0.266516	0.348535	1.566514
C197	C	-1.063602	-0.354413	0.778108
C198	C	-0.813602	-0.104413	1.028108
C199	C	-0.563602	0.145587	1.278108
C200	C	-0.313602	0.395587	1.528108
C201	C	-1.063623	-0.354375	0.931824
C202	C	-0.813623	-0.104375	1.181824
C203	C	-0.563623	0.145625	1.431824
C204	C	-0.313623	0.395625	1.681824
C205	C	-1.063632	-0.354352	1.015158
C206	C	-0.813632	-0.104352	1.265158
C207	C	-0.563632	0.145648	1.515158
C208	C	-0.313632	0.395648	1.765158
C209	C	-1.063592	-0.354435	0.694769
C210	C	-0.813592	-0.104435	0.944769
C211	C	-0.563592	0.145565	1.194769
C212	C	-0.313592	0.395565	1.444769
H213	H	-0.494190	-0.440025	0.439843
H214	H	-0.244190	-0.190025	0.689843
H215	H	0.005810	0.059975	0.939843
H216	H	0.255810	0.309975	1.189843
O217	O	-0.643773	-0.452469	0.452258
O218	O	-0.393773	-0.202469	0.702258
O219	O	-0.143773	0.047531	0.952258
O220	O	0.106227	0.297531	1.202258
H221	H	-0.678814	-0.419566	0.489750
H222	H	-0.428814	-0.169566	0.739750
H223	H	-0.178814	0.080434	0.989750
H224	H	0.071186	0.330434	1.239750
H225	H	-1.148927	-0.923742	0.440101
H226	H	-0.898927	-0.673742	0.690101
H227	H	-0.648927	-0.423742	0.940101
H228	H	-0.398927	-0.173742	1.190101
O229	O	-0.483998	-0.256589	0.256941
O230	O	-0.233998	-0.006589	0.506941
O231	O	0.016002	0.243411	0.756941
O232	O	0.266002	0.493411	1.006941
H233	H	-0.498759	-0.198840	0.269659
H234	H	-0.248759	0.051160	0.519659
H235	H	0.001241	0.301160	0.769659
H236	H	0.251241	0.551160	1.019659
O237	O	-1.161313	-0.774136	0.452520
O238	O	-0.911313	-0.524136	0.702520
O239	O	-0.661313	-0.274136	0.952520
O240	O	-0.411313	-0.024136	1.202520
H241	H	-1.148660	-0.788856	0.510270
H242	H	-0.898660	-0.538856	0.760270
H243	H	-0.648660	-0.288856	1.010270
H244	H	-0.398660	-0.038856	1.260270
H245	H	-1.149031	-0.269028	0.785288
H246	H	-0.899031	-0.019028	1.035288
H247	H	-0.649031	0.230972	1.285288
H248	H	-0.399031	0.480972	1.535288
H249	H	-1.149046	-0.268990	0.924715
H250	H	-0.899046	-0.018990	1.174715
H251	H	-0.649046	0.231010	1.424715
H252	H	-0.399046	0.481010	1.674715
O253	O	-0.965744	-0.452196	0.934793
O254	O	-0.715744	-0.202196	1.184793
O255	O	-0.465744	0.047804	1.434793
O256	O	-0.215744	0.297804	1.684793
H257	H	-0.973666	-0.444281	0.994697
H258	H	-0.723666	-0.194281	1.244697
H259	H	-0.473666	0.055719	1.494697
H260	H	-0.223666	0.305719	1.744697
H261	H	-0.978164	-0.439795	0.785209
H262	H	-0.728164	-0.189795	1.035209
H263	H	-0.478164	0.060205	1.285209
H264	H	-0.228164	0.310205	1.535209
H265	H	-0.978255	-0.923993	0.269160
H266	H	-0.728255	-0.673993	0.519160
H267	H	-0.478255	-0.423993	0.769160
H268	H	-0.228255	-0.173993	1.019160
H269	H	-0.978195	-0.784550	0.269134
H270	H	-0.728195	-0.534550	0.519134
H271	H	-0.478195	-0.284550	0.769134
H272	H	-0.228195	-0.034550	1.019134
H273	H	-0.633605	-0.269018	0.269350
H274	H	-0.383605	-0.019018	0.519350
H275	H	-0.133605	0.230982	0.769350
H276	H	0.116395	0.480982	1.019350
