data_functionalizedCrystal
_audit_creation_method	'MofGen! by Chris Wilmer'
_symmetry_space_group_name_H-M	'P1'
_symmetry_Int_Tables_number	1
_symmetry_cell_setting	triclinic
loop_
_symmetry_equiv_pos_as_xyz
  x,y,z
_cell_length_a	10.686551
_cell_length_b	18.215407
_cell_length_c	18.215405
_cell_angle_alpha	90.025333
_cell_angle_beta	94.411044
_cell_angle_gamma	94.397187
loop_
_atom_site_label
_atom_site_type_symbol
_atom_site_fract_x
_atom_site_fract_y
_atom_site_fract_z
Zn1	Zn	-0.713475	-1.157035	0.260997
Zn2	Zn	-0.502448	-1.147489	0.393529
Zn3	Zn	-0.502481	-1.024515	0.270480
Zn4	Zn	-0.713394	-1.033929	0.384031
O5	O	-0.607950	-1.090742	0.327260
O6	O	-0.685502	-1.258753	0.278584
O7	O	-0.325870	-1.123242	0.385150
O8	O	-0.530518	-1.042149	0.166236
O9	O	-0.530461	-1.251741	0.375955
O10	O	-0.685534	-1.139510	0.159269
O11	O	-0.325894	-1.032893	0.294747
O12	O	-0.530440	-0.922779	0.285537
O13	O	-0.889988	-1.058194	0.359767
O14	O	-0.685396	-0.929695	0.368962
O15	O	-0.890048	-1.148639	0.269374
O16	O	-0.530383	-1.132371	0.495256
O17	O	-0.685364	-1.048939	0.488278
C18	C	-0.607914	-0.899534	0.327249
C19	C	-0.607928	-0.817736	0.327260
C20	C	-0.607889	-1.090662	0.518469
C21	C	-0.607905	-1.090696	0.600267
C22	C	-0.937084	-1.105532	0.312453
C23	C	-1.077342	-1.111834	0.306144
C24	C	-0.280096	-1.076052	0.341955
C25	C	-0.139839	-1.069893	0.348057
C26	C	-0.607987	-1.282697	0.327271
C27	C	-0.608003	-1.364496	0.327276
C28	C	-0.688513	-0.633158	0.370778
C29	C	-0.688529	-0.556300	0.370780
C30	C	-0.527414	-0.549079	0.283753
C31	C	-0.527406	-0.625936	0.283748
C32	C	-0.607953	-0.667974	0.327265
C33	C	-0.607977	-0.514259	0.327271
C34	C	-0.607994	-0.430926	0.327273
C35	C	-0.607939	-0.751312	0.327262
C36	C	-0.608038	-1.090844	0.135303
C37	C	-0.608076	-1.090888	0.053502
C38	C	-0.527355	-1.134257	0.792063
C39	C	-0.527386	-1.134291	0.868920
C40	C	-0.688635	-1.047326	0.861700
C41	C	-0.688610	-1.047296	0.784844
C42	C	-0.607963	-1.090760	0.750028
C43	C	-0.608019	-1.090824	0.903741
C44	C	-0.608052	-1.090861	0.987073
C45	C	-0.607930	-1.090724	0.666690
H46	H	-1.086045	-1.029165	0.388770
H47	H	-0.461804	-0.654283	0.248309
C48	C	-0.847767	-0.571162	0.456808
C49	C	-0.777077	-0.518031	0.418615
H50	H	-0.902430	-0.547535	0.486343
H51	H	-0.896128	-0.603329	0.422611
H52	H	-0.792680	-0.598648	0.487383
H53	H	-0.832164	-0.490549	0.388036
H54	H	-0.728712	-0.485852	0.452817
H55	H	-0.754293	-1.011938	0.890057
C56	C	-0.760037	-0.754181	0.409417
C57	C	-0.777057	-0.679368	0.418606
H58	H	-0.814700	-0.782706	0.438947
H59	H	-0.778654	-0.767630	0.359154
H60	H	-0.675216	-0.762945	0.423931
H61	H	-0.861877	-0.670603	0.404086
H62	H	-0.758449	-0.665914	0.468879
C63	C	-1.225746	-1.128702	0.200546
C64	C	-1.149954	-1.166822	0.251177
H65	H	-1.270566	-1.162649	0.166610
H66	H	-1.283744	-1.103245	0.225995
H67	H	-1.174323	-1.094368	0.174686
H68	H	-1.201378	-1.201152	0.277042
H69	H	-1.091949	-1.192291	0.225725
C70	C	-0.357596	-1.136907	0.713308
C71	C	-0.438716	-1.182036	0.753792
H72	H	-0.302870	-1.166407	0.689687
H73	H	-0.405597	-1.111004	0.677275
H74	H	-0.309289	-1.102710	0.745512
H75	H	-0.487031	-1.216229	0.721587
H76	H	-0.390710	-1.207950	0.789829
C77	C	-0.466335	-0.522709	0.161830
C78	C	-0.438872	-0.502870	0.235924
H79	H	-0.411673	-0.494180	0.132304
H80	H	-0.454800	-0.573459	0.155605
H81	H	-0.551155	-0.513931	0.147329
H82	H	-0.354054	-0.511653	0.250427
H83	H	-0.450397	-0.452108	0.242153
H84	H	-0.461749	-1.169711	0.903142
C85	C	-0.847999	-0.961328	0.785421
C86	C	-0.777219	-0.999479	0.738632
H87	H	-0.902695	-0.931809	0.756890
H88	H	-0.896329	-0.995550	0.813183
H89	H	-0.792972	-0.930744	0.817912
H90	H	-0.832246	-1.030068	0.706145
H91	H	-0.728885	-0.965253	0.710857
