data_functionalizedCrystal
_audit_creation_method	'MofGen! by Chris Wilmer'
_symmetry_space_group_name_H-M	'P1'
_symmetry_Int_Tables_number	1
_symmetry_cell_setting	triclinic
loop_
_symmetry_equiv_pos_as_xyz
  x,y,z
_cell_length_a	15.298114
_cell_length_b	15.299816
_cell_length_c	12.759393
_cell_angle_alpha	99.650122
_cell_angle_beta	99.669398
_cell_angle_gamma	69.256891
loop_
_atom_site_label
_atom_site_type_symbol
_atom_site_fract_x
_atom_site_fract_y
_atom_site_fract_z
Zn1	Zn	1.485560	-0.615768	-0.418301
Zn2	Zn	1.512349	-0.771241	-0.268575
Zn3	Zn	1.330071	-0.588940	-0.268618
Zn4	Zn	1.356922	-0.744307	-0.470159
O5	O	1.421225	-0.680064	-0.356413
O6	O	1.619233	-0.658891	-0.376719
O7	O	1.488143	-0.747103	-0.121574
O8	O	1.328248	-0.462410	-0.266789
O9	O	1.638915	-0.773117	-0.266716
O10	O	1.442486	-0.482121	-0.376761
O11	O	1.354224	-0.613167	-0.121605
O12	O	1.203513	-0.587050	-0.317073
O13	O	1.374012	-0.727212	-0.610287
O14	O	1.223240	-0.701198	-0.465145
O15	O	1.468522	-0.632775	-0.572187
O16	O	1.514179	-0.897756	-0.317000
O17	O	1.399988	-0.877968	-0.465103
C18	C	1.179638	-0.638290	-0.396742
C19	C	1.076290	-0.620442	-0.414023
C20	C	0.825889	-0.807637	-0.233161
C21	C	0.922989	-0.824405	-0.216916
C22	C	0.961319	-0.773416	-0.266192
C23	C	0.902539	-0.705655	-0.331714
C24	C	0.805428	-0.688880	-0.347954
C25	C	0.940859	-0.654659	-0.380985
C26	C	0.882079	-0.586898	-0.446507
C27	C	0.784978	-0.570126	-0.462744
C28	C	0.746647	-0.621115	-0.413469
C29	C	1.037970	-0.671435	-0.364745
C30	C	1.017509	-0.552678	-0.479538
C31	C	0.920409	-0.535909	-0.495783
C32	C	1.462929	-0.921597	-0.396693
C33	C	1.480856	-1.024941	-0.413946
C34	C	1.293714	-1.275539	-0.233360
C35	C	1.276866	-1.178442	-0.217153
C36	C	1.327862	-1.140062	-0.266350
C37	C	1.395708	-1.198789	-0.331756
C38	C	1.412552	-1.295894	-0.347971
C39	C	1.446701	-1.160417	-0.380961
C40	C	1.514547	-1.219144	-0.446367
C41	C	1.531388	-1.316240	-0.462579
C42	C	1.480392	-1.354620	-0.413382
C43	C	1.429857	-1.063311	-0.364746
C44	C	1.548695	-1.083666	-0.479357
C45	C	1.565543	-1.180763	-0.495564
C46	C	1.663756	-0.722001	-0.315928
C47	C	1.767108	-0.739872	-0.298676
C48	C	1.421274	-0.679981	-0.630420
C49	C	1.421295	-0.679946	-0.747186
C50	C	1.379384	-0.437592	-0.315995
C51	C	1.361553	-0.334265	-0.298771
C52	C	1.470514	-0.630768	-0.782209
C53	C	1.470530	-0.630739	-0.891923
C54	C	1.372108	-0.729072	-0.931585
C55	C	1.372087	-0.729096	-0.821872
C56	C	1.527340	-0.574000	-0.759311
C57	C	1.527357	-0.573970	-0.869026
C58	C	1.421218	-0.680088	-0.083452
C59	C	1.421333	-0.679893	0.033386
H60	H	0.667581	-0.607469	-0.426695
C61	C	0.783717	-0.863712	-0.178960
N62	N	0.751953	-0.905951	-0.138132
H63	H	1.252196	-1.306798	-0.193317
C64	C	1.476611	-0.475529	-0.905416
N65	N	1.438400	-0.401383	-0.932824
C66	C	0.720321	-0.495581	-0.534814
N67	N	0.671623	-0.439434	-0.589098
C68	C	1.640167	-1.245374	-0.567515
N69	N	1.696374	-1.294040	-0.621710
H70	H	1.602706	-0.605701	-0.889994
C71	C	1.317980	-0.783132	-1.013748
N72	N	1.277209	-0.823851	-1.075633
C73	C	1.102617	-0.745975	-0.292678
N74	N	1.151311	-0.802126	-0.238395
C75	C	1.355228	-0.998723	-0.292800
N76	N	1.299014	-0.950076	-0.238604
H77	H	1.040383	-0.787073	-0.252961
C78	C	0.987640	-0.898941	-0.144845
N79	N	1.036337	-0.955087	-0.090558
C80	C	0.855736	-0.461359	-0.567838
N81	N	0.807023	-0.405204	-0.622104
C82	C	1.484491	-0.472239	-0.707231
N83	N	1.452214	-0.395594	-0.668005
H84	H	1.314142	-1.061001	-0.253149
C85	C	1.059668	-0.496587	-0.533747
N86	N	1.091428	-0.454343	-0.574572
C87	C	1.625761	-0.624813	-0.703707
N88	N	1.699894	-0.663080	-0.661823
H89	H	1.221626	-1.130630	-0.163901
H90	H	1.494109	-1.433684	-0.426570
H91	H	1.586629	-1.364053	-0.515842
C92	C	1.604797	-1.041453	-0.533475
N93	N	1.647048	-1.009651	-0.574233
H94	H	1.332004	-0.769137	-0.793362
