data_functionalizedCrystal
_audit_creation_method	'MofGen! by Chris Wilmer'
_symmetry_space_group_name_H-M	'P1'
_symmetry_Int_Tables_number	1
_symmetry_cell_setting	triclinic
loop_
_symmetry_equiv_pos_as_xyz
  x,y,z
_cell_length_a	34.408637
_cell_length_b	34.407814
_cell_length_c	34.404193
_cell_angle_alpha	60.004510
_cell_angle_beta	60.009006
_cell_angle_gamma	59.994604
loop_
_atom_site_label
_atom_site_type_symbol
_atom_site_fract_x
_atom_site_fract_y
_atom_site_fract_z
O1	O	0.053973	-0.567860	0.474801
O2	O	0.020377	-0.442124	0.382567
O3	O	0.100004	-0.521670	0.382483
O4	O	-0.025653	-0.488314	0.474886
O5	O	0.126426	-0.495253	0.408816
O6	O	0.046800	-0.415707	0.408900
O7	O	0.080396	-0.541443	0.501134
Zn8	Zn	0.067793	-0.474381	0.459198
Zn9	Zn	0.032980	-0.509186	0.424503
O10	O	0.000769	-0.461897	0.501219
N11	N	0.091552	-0.450631	0.482879
N12	N	0.009225	-0.532940	0.400823
C13	C	0.142848	-0.268847	0.534081
C14	C	0.142979	-0.399386	0.664559
C15	C	0.142862	-0.399365	0.534081
C16	C	0.273409	-0.399338	0.533986
C17	C	0.157225	-0.311914	0.548422
C18	C	0.157300	-0.385019	0.621491
C19	C	0.230339	-0.384991	0.548370
C20	C	0.157235	-0.385007	0.548422
C21	C	0.124548	-0.214028	0.515827
C22	C	0.124571	-0.417639	0.515827
C23	C	0.175526	-0.366733	0.566676
C24	C	0.353121	-0.385580	0.491988
C25	C	0.402952	-0.402180	0.475348
C26	C	0.402981	-0.482812	0.506096
C27	C	0.353151	-0.466211	0.522737
C28	C	0.136544	-0.189099	0.466839
C29	C	0.119905	-0.139265	0.450247
C30	C	0.079280	-0.139291	0.531632
C31	C	0.095918	-0.189125	0.548224
C32	C	0.075577	-0.405615	0.527900
C33	C	0.058953	-0.422228	0.511301
C34	C	0.140315	-0.462889	0.470566
C35	C	0.156941	-0.446276	0.487159
C36	C	0.075772	-0.405653	0.744326
C37	C	0.059206	-0.422280	0.794159
C38	C	0.140607	-0.462951	0.794094
C39	C	0.157172	-0.446325	0.744260
C40	C	0.124753	-0.417674	0.719377
C41	C	0.328223	-0.417595	0.515681
C42	C	-0.172390	-0.583988	0.349141
C43	C	-0.041751	-0.584138	0.218783
C44	C	-0.041941	-0.584130	0.349402
C45	C	-0.041957	-0.714607	0.349338
C46	C	-0.129326	-0.598388	0.334853
C47	C	-0.056165	-0.598473	0.261852
C48	C	-0.056282	-0.671535	0.334962
C49	C	-0.056272	-0.598469	0.334999
C50	C	-0.227205	-0.565659	0.367327
C51	C	-0.023703	-0.565882	0.367734
C52	C	-0.074511	-0.616717	0.316667
C53	C	-0.055754	-0.794298	0.391257
C54	C	-0.039181	-0.844132	0.407888
C55	C	0.041447	-0.844215	0.377269
C56	C	0.024873	-0.794381	0.360637
C57	C	-0.252183	-0.577666	0.416302
C58	C	-0.302014	-0.561001	0.432833
C59	C	-0.301886	-0.520329	0.351410
C60	C	-0.252055	-0.536994	0.334880
C61	C	-0.035709	-0.516892	0.355682
C62	C	-0.019129	-0.500308	0.372353
C63	C	0.021465	-0.581700	0.413115
C64	C	0.004884	-0.598286	0.396450
C65	C	-0.035389	-0.516907	0.139026
C66	C	-0.018707	-0.500324	0.089193
C67	C	0.021949	-0.581721	0.089240
C68	C	0.005268	-0.598303	0.139074
C69	C	-0.023402	-0.565894	0.163965
C70	C	-0.023728	-0.769425	0.367633
N71	N	0.427173	-0.450553	0.482630
O72	O	0.589997	-0.458460	0.365361
O73	O	0.590185	-0.550997	0.490963
O74	O	0.590104	-0.550786	0.411309
O75	O	0.590077	-0.458671	0.445016
O76	O	0.510940	-0.524462	0.437777
O77	O	0.511020	-0.524674	0.517432
O78	O	0.510832	-0.432136	0.391830
Zn79	Zn	0.498357	-0.474225	0.458833
Zn80	Zn	0.602660	-0.508908	0.423960
O81	O	0.510913	-0.432348	0.471484
N82	N	0.673844	-0.532580	0.400158
N83	N	0.091520	-0.115070	0.482873
O84	O	-0.025663	0.047841	0.474857
O85	O	0.099940	0.047877	0.382299
O86	O	0.020247	0.047844	0.382560
O87	O	0.054030	0.047874	0.474596
O88	O	0.046674	-0.031326	0.408942
O89	O	0.126367	-0.031293	0.408680
O90	O	0.000764	-0.031329	0.501238
Zn91	Zn	0.067761	-0.043881	0.459148
Zn92	Zn	0.032943	0.060429	0.424389
O93	O	0.080457	-0.031296	0.500977
N94	N	0.009178	0.131618	0.400665
N95	N	0.091852	-0.450680	0.818332
O96	O	0.083862	-0.567845	0.981235
O97	O	-0.008657	-0.442198	0.981276
O98	O	-0.008441	-0.521875	0.981252
O99	O	0.083646	-0.488168	0.981258
O100	O	0.017919	-0.495468	0.902085
O101	O	0.017703	-0.415791	0.902109
O102	O	0.110222	-0.541438	0.902067
Zn103	Zn	0.068148	-0.474422	0.889518
Zn104	Zn	0.033417	-0.509214	0.993825
O105	O	0.110006	-0.461761	0.902091
N106	N	0.009712	-0.532961	1.065011
C107	C	0.030439	-0.413071	0.383027
C108	C	0.129046	-0.511580	0.382922
C109	C	0.070334	-0.570496	0.500675
C110	C	-0.028274	-0.471987	0.500780
C111	C	0.550625	-0.550579	0.520021
C112	C	0.550527	-0.550317	0.421379
C113	C	0.550389	-0.432554	0.362773
C114	C	0.550491	-0.432816	0.461414
C115	C	0.128944	0.008394	0.382712
C116	C	0.030287	0.008256	0.383068
C117	C	-0.028273	0.008252	0.500793
C118	C	0.070417	0.008292	0.500470
C119	C	-0.008218	-0.413165	0.941698
C120	C	-0.007945	-0.511830	0.941653
C121	C	0.109783	-0.570471	0.941646
C122	C	0.109516	-0.471800	0.941673
H123	H	0.049370	-0.382321	0.724071
H124	H	0.023050	0.008252	0.354152
C125	C	0.550695	-0.589828	0.568753
C126	C	0.509624	-0.610349	0.599432
C127	C	0.509694	-0.649598	0.648163
C128	C	0.550835	-0.668326	0.666216
C129	C	0.591909	-0.647804	0.635537
C130	C	0.591839	-0.608555	0.586805
H131	H	0.479167	-0.596486	0.586068
H132	H	0.479288	-0.664789	0.670874
H133	H	0.550887	-0.697380	0.702290
H134	H	0.622367	-0.661667	0.648900
H135	H	0.622245	-0.593364	0.564094
C136	C	-0.077029	-0.462390	0.539980
C137	C	-0.086587	-0.501564	0.588763
C138	C	-0.135342	-0.491967	0.627964
C139	C	-0.174539	-0.443196	0.618382
C140	C	-0.164981	-0.404020	0.569597
C141	C	-0.116226	-0.413617	0.530396
H142	H	-0.057571	-0.537669	0.595858
H143	H	-0.142417	-0.520968	0.664078
H144	H	-0.210630	-0.436092	0.647400
H145	H	-0.193998	-0.367914	0.562502
H146	H	-0.109151	-0.384615	0.494282
H147	H	-0.064344	0.008241	0.529850
H148	H	0.550540	-0.579254	0.414165
H149	H	0.550485	-0.403881	0.468626
C150	C	0.550312	-0.393302	0.314043
C151	C	0.509163	-0.345440	0.310853
C152	C	0.509085	-0.306188	0.262124
C153	C	0.550157	-0.314799	0.216585
C154	C	0.591309	-0.362664	0.219775
C155	C	0.591386	-0.401916	0.268504
H156	H	0.478756	-0.339063	0.344564
H157	H	0.478621	-0.270755	0.259763
H158	H	0.550099	-0.285743	0.180513
H159	H	0.621715	-0.369040	0.186063
H160	H	0.621850	-0.437348	0.270864
H161	H	-0.036863	-0.519031	0.941619
C162	C	0.080188	0.008299	0.539536
C163	C	0.129011	0.008316	0.529765
C164	C	0.138781	0.008324	0.568831
C165	C	0.099729	0.008315	0.617667
C166	C	0.050903	0.008298	0.627439
C167	C	0.041132	0.008290	0.588374
H168	H	0.157923	0.008323	0.493612
H169	H	0.174926	0.008337	0.561596
H170	H	0.106962	0.008321	0.646586
H171	H	0.021991	0.008291	0.663593
H172	H	0.004988	0.008278	0.595608
H173	H	0.196836	-0.456064	0.477324
C174	C	0.020744	-0.364278	0.343888
C175	C	0.059848	-0.354621	0.295074
C176	C	0.050154	-0.305827	0.255935
C177	C	0.001356	-0.266692	0.265610
C178	C	-0.037751	-0.276349	0.314427
C179	C	-0.028057	-0.325142	0.353565
H180	H	0.095975	-0.383592	0.287909
H181	H	0.079104	-0.298679	0.219798
H182	H	-0.005821	-0.230573	0.236638
H183	H	-0.073878	-0.247378	0.321591
H184	H	-0.057007	-0.332290	0.389703
C185	C	0.080027	-0.619290	0.539812
C186	C	0.049177	-0.650033	0.560328
C187	C	0.058871	-0.698827	0.599466
C188	C	0.099414	-0.716878	0.618088
C189	C	0.130266	-0.686135	0.597572
C190	C	0.120573	-0.637341	0.558434
H191	H	0.019163	-0.636671	0.546543
H192	H	0.036032	-0.721585	0.614652
H193	H	0.106589	-0.752999	0.647060
H194	H	0.160280	-0.699497	0.611357
H195	H	0.143412	-0.614582	0.543247
H196	H	0.138447	-0.464586	0.941669
C197	C	0.177800	-0.521178	0.343720
C198	C	0.216996	-0.569949	0.353301
C199	C	0.265750	-0.579547	0.314100
C200	C	0.275308	-0.540374	0.265316
C201	C	0.236111	-0.491600	0.255733
C202	C	0.187357	-0.482002	0.294934
H203	H	0.209921	-0.598950	0.389416
H204	H	0.294766	-0.615653	0.321194
H205	H	0.311399	-0.547479	0.236297
H206	H	0.243186	-0.462599	0.219618
H207	H	0.158341	-0.445896	0.287840
C208	C	0.094909	-0.871668	0.369575
C209	C	0.122696	-0.905947	0.340897
C210	C	0.176158	-0.933403	0.333204
C211	C	0.201832	-0.926580	0.354191
C212	C	0.174044	-0.892300	0.382871
C213	C	0.120582	-0.864844	0.390564
H214	H	0.103691	-0.910999	0.325359
H215	H	0.196728	-0.958780	0.311973
H216	H	0.241408	-0.946905	0.348496
H217	H	0.193049	-0.887248	0.398409
H218	H	0.100012	-0.839467	0.411795
H219	H	0.164941	0.008624	0.353583
H220	H	-0.037264	-0.377079	0.941710
H221	H	0.138832	-0.606554	0.941627
H222	H	0.167007	-0.486271	0.814352
C223	C	0.005324	-0.409046	0.821598
C224	C	-0.025976	-0.423544	0.814769
C225	C	-0.079859	-0.410312	0.842208
C226	C	-0.102442	-0.382583	0.876476
C227	C	-0.071141	-0.368084	0.883306
C228	C	-0.017259	-0.381316	0.855867
H229	H	-0.009260	-0.444072	0.789401
H230	H	-0.103029	-0.421045	0.837151
H231	H	-0.142329	-0.372788	0.896788
H232	H	-0.087858	-0.347555	0.908675
H233	H	0.005912	-0.370582	0.860924
C234	C	0.211055	-0.459548	0.716818
C235	C	0.242347	-0.445038	0.723644
C236	C	0.296229	-0.458261	0.696204
C237	C	0.318819	-0.485993	0.661937
C238	C	0.287527	-0.500504	0.655109
C239	C	0.233645	-0.487281	0.682550
H240	H	0.225625	-0.424508	0.749012
H241	H	0.319394	-0.447519	0.701258
H242	H	0.358706	-0.495781	0.641623
H243	H	0.304249	-0.521034	0.629741
H244	H	0.210480	-0.498024	0.677495
C245	C	0.039970	-0.374109	0.559428
C246	C	-0.013922	-0.360877	0.572698
C247	C	-0.049529	-0.329370	0.604226
C248	C	-0.031245	-0.311095	0.622483
C249	C	0.022650	-0.324327	0.609212
C250	C	0.058257	-0.355834	0.577684
H251	H	-0.027460	-0.374406	0.559183
H252	H	-0.089426	-0.319575	0.614049
H253	H	-0.057603	-0.287772	0.645821
H254	H	0.036188	-0.310799	0.622727
H255	H	0.098154	-0.365629	0.567861
H256	H	0.019058	-0.412426	0.521121
H257	H	0.332881	-0.492283	0.542031
C258	C	0.175925	-0.494393	0.439034
C259	C	0.211805	-0.542456	0.458071
C260	C	0.247413	-0.573958	0.426538
C261	C	0.247140	-0.557398	0.375970
C262	C	0.211258	-0.509333	0.356930
C263	C	0.175651	-0.477831	0.388462
H264	H	0.212009	-0.554717	0.495507
H265	H	0.273975	-0.609539	0.440633
H266	H	0.273498	-0.580718	0.352628
H267	H	0.211055	-0.497072	0.319494
H268	H	0.149089	-0.442250	0.374368
H269	H	0.423275	-0.522397	0.511838
C270	C	-0.074413	-0.871495	0.433882
C271	C	-0.079407	-0.905733	0.485430
C272	C	-0.114639	-0.933096	0.511429
C273	C	-0.144877	-0.926221	0.485880
C274	C	-0.139884	-0.891982	0.434329
C275	C	-0.104652	-0.864619	0.408330
H276	H	-0.057022	-0.910824	0.504346
H277	H	-0.118335	-0.958442	0.549591
H278	H	-0.170958	-0.946477	0.505126
H279	H	-0.162269	-0.886891	0.415413
H280	H	-0.100956	-0.839273	0.370168
C281	C	0.430344	-0.366963	0.449282
C282	C	0.423516	-0.336679	0.474755
C283	C	0.450909	-0.301463	0.448685
C284	C	0.485129	-0.296530	0.397142
C285	C	0.491959	-0.326814	0.371665
C286	C	0.464566	-0.362030	0.397735
H287	H	0.398182	-0.340330	0.512914
H288	H	0.445853	-0.279044	0.467545
H289	H	0.505407	-0.270460	0.377843
H290	H	0.517293	-0.323163	0.333507
H291	H	0.469622	-0.384449	0.378875
C292	C	0.325698	-0.332101	0.484229
C293	C	0.332509	-0.295861	0.433382
C294	C	0.305088	-0.242383	0.425621
C295	C	0.270856	-0.225144	0.468707
C296	C	0.264043	-0.261384	0.519557
C297	C	0.291464	-0.314863	0.527319
H298	H	0.357851	-0.308622	0.401484
H299	H	0.310132	-0.215555	0.387977
H300	H	0.250557	-0.185556	0.462962
H301	H	0.238700	-0.248624	0.551456
H302	H	0.286420	-0.341690	0.564962
C303	C	0.168034	-0.216491	0.431201
C304	C	0.181222	-0.189070	0.377315
C305	C	0.212713	-0.216463	0.341678
C306	C	0.231016	-0.271279	0.359927
C307	C	0.217828	-0.298703	0.413817
C308	C	0.186337	-0.271310	0.449454
H309	H	0.167674	-0.148489	0.363803
H310	H	0.222476	-0.196162	0.301785
H311	H	0.254327	-0.291558	0.333547
H312	H	0.231377	-0.339284	0.427329
H313	H	0.176575	-0.291611	0.489346
C314	C	0.133100	-0.111838	0.396359
C315	C	0.185717	-0.118666	0.365045
C316	C	0.198911	-0.091241	0.311156
C317	C	0.159487	-0.056988	0.288581
C318	C	0.106867	-0.050158	0.319895
C319	C	0.093673	-0.077584	0.373784
H320	H	0.214903	-0.144024	0.381756
H321	H	0.237864	-0.096297	0.287976
H322	H	0.169254	-0.036686	0.248690
H323	H	0.077680	-0.024801	0.303184
H324	H	0.054719	-0.072528	0.396965
H325	H	0.086148	-0.209418	0.588113
C326	C	0.047790	-0.111896	0.567269
C327	C	0.066898	-0.118748	0.603092
C328	C	0.035407	-0.091355	0.638731
C329	C	-0.015191	-0.057111	0.638545
C330	C	-0.034301	-0.050257	0.602720
C331	C	-0.002811	-0.077650	0.567082
H332	H	0.104356	-0.144099	0.603231
H333	H	0.049554	-0.096429	0.665250
H334	H	-0.038502	-0.036833	0.664927
H335	H	-0.071760	-0.024906	0.602582
H336	H	-0.016958	-0.072577	0.540562
C337	C	-0.031903	-0.446435	0.061763
C338	C	0.007518	-0.423871	0.027568
C339	C	-0.005676	-0.369981	0.000138
C340	C	-0.058290	-0.338656	0.006904
C341	C	-0.097715	-0.361220	0.041101
C342	C	-0.084521	-0.415109	0.068530
H343	H	0.046470	-0.447060	0.022558
H344	H	0.023509	-0.353278	-0.025176
H345	H	-0.068057	-0.298764	-0.013401
H346	H	-0.136666	-0.338031	0.046111
H347	H	-0.113706	-0.431813	0.093845
C348	C	-0.066928	-0.481255	0.166404
C349	C	-0.080113	-0.427369	0.138969
C350	C	-0.111650	-0.391718	0.166347
C351	C	-0.130001	-0.409953	0.221161
C352	C	-0.116815	-0.463842	0.248598
C353	C	-0.085279	-0.499493	0.221220
H354	H	-0.066529	-0.413868	0.098390
H355	H	-0.121410	-0.351826	0.146036
H356	H	-0.153346	-0.383562	0.241428
H357	H	-0.130400	-0.477343	0.289177
H358	H	-0.075519	-0.539385	0.241531
H359	H	0.045284	-0.608113	0.068976
C360	C	0.018453	-0.652193	0.166507
C361	C	0.049983	-0.687839	0.139126
C362	C	0.063167	-0.741728	0.166557
C363	C	0.044821	-0.759971	0.221370
C364	C	0.013289	-0.724325	0.248755
C365	C	0.000105	-0.670436	0.221323
H366	H	0.063565	-0.674334	0.098547
H367	H	0.086509	-0.768115	0.146285
H368	H	0.054580	-0.799863	0.241677
H369	H	-0.000294	-0.737829	0.289334
H370	H	-0.023237	-0.644048	0.241596
H371	H	-0.058984	-0.490504	0.332300
H372	H	-0.028907	-0.460416	0.362542
H373	H	0.044746	-0.608091	0.436494
H374	H	0.014660	-0.638178	0.406265
H375	H	-0.095331	-0.773979	0.396956
C376	C	0.060105	-0.767022	0.334648
C377	C	0.113564	-0.794479	0.326957
C378	C	0.148798	-0.767120	0.300968
C379	C	0.130574	-0.712304	0.282670
C380	C	0.077112	-0.684845	0.290361
C381	C	0.041878	-0.712204	0.316350
H382	H	0.127058	-0.835059	0.340503
H383	H	0.188374	-0.787448	0.295275
H384	H	0.156656	-0.692052	0.263431
H385	H	0.063618	-0.644264	0.276815
H386	H	0.002302	-0.691876	0.322043
H387	H	-0.231954	-0.601008	0.442726
H388	H	-0.322352	-0.570775	0.472713
C389	C	-0.224586	-0.523781	0.281004
C390	C	-0.231388	-0.471156	0.249716
C391	C	-0.203921	-0.457938	0.195838
C392	C	-0.169652	-0.497346	0.173248
C393	C	-0.162849	-0.549975	0.204537
C394	C	-0.190316	-0.563193	0.258415
H395	H	-0.256757	-0.441980	0.266438
H396	H	-0.208957	-0.418978	0.172676
H397	H	-0.149319	-0.487562	0.133364
H398	H	-0.137479	-0.579151	0.187815
H399	H	-0.185279	-0.602153	0.281577
H400	H	-0.322118	-0.496994	0.324987
