data_functionalizedCrystal
_audit_creation_method	'MofGen! by Chris Wilmer'
_symmetry_space_group_name_H-M	'P1'
_symmetry_Int_Tables_number	1
_symmetry_cell_setting	triclinic
loop_
_symmetry_equiv_pos_as_xyz
  x,y,z
_cell_length_a	15.297475
_cell_length_b	12.645330
_cell_length_c	15.296720
_cell_angle_alpha	99.649341
_cell_angle_beta	91.617114
_cell_angle_gamma	80.321044
loop_
_atom_site_label
_atom_site_type_symbol
_atom_site_fract_x
_atom_site_fract_y
_atom_site_fract_z
Zn1	Zn	1.253448	-0.825067	-0.726648
Zn2	Zn	1.278720	-0.977718	-0.580172
Zn3	Zn	1.132323	-0.765511	-0.554885
Zn4	Zn	1.106946	-0.967297	-0.701300
O5	O	1.192859	-0.883898	-0.640751
O6	O	1.379380	-0.874601	-0.728408
O7	O	1.280497	-0.929005	-0.454242
O8	O	1.148435	-0.625078	-0.577695
O9	O	1.397947	-0.986754	-0.620794
O10	O	1.237425	-0.668833	-0.703888
O11	O	1.172939	-0.773098	-0.435663
O12	O	1.006377	-0.762993	-0.553116
O13	O	1.105183	-0.968993	-0.827238
O14	O	0.987732	-0.911244	-0.660687
O15	O	1.212818	-0.864497	-0.845861
O16	O	1.255889	-1.124669	-0.596215
O17	O	1.129687	-1.117013	-0.685207
C18	C	0.965271	-0.829526	-0.601408
C19	C	0.867904	-0.806295	-0.584597
C20	C	0.554772	-1.049945	-0.760902
C21	C	0.646253	-1.071780	-0.776693
C22	C	0.701670	-1.005410	-0.728671
C23	C	0.665597	-0.917203	-0.664853
C24	C	0.574108	-0.895371	-0.649055
C25	C	0.721006	-0.850836	-0.616824
C26	C	0.684933	-0.762629	-0.553007
C27	C	0.593452	-0.740801	-0.537212
C28	C	0.538035	-0.807170	-0.585234
C29	C	0.812496	-0.872668	-0.632623
C30	C	0.831831	-0.718094	-0.520776
C31	C	0.740350	-0.696259	-0.504984
C32	C	1.192797	-1.159311	-0.640728
C33	C	1.192846	-1.277157	-0.640761
C34	C	1.113695	-1.440051	-0.697003
C35	C	1.113388	-1.317372	-0.696725
C36	C	1.183843	-1.300270	-0.544135
C37	C	1.183360	-1.422840	-0.544476
C38	C	1.281541	-1.470384	-0.680468
C39	C	1.280623	-1.347981	-0.682388
C40	C	1.421336	-0.938483	-0.680249
C41	C	1.518699	-0.961744	-0.697081
C42	C	1.153351	-0.922226	-0.869221
C43	C	1.136514	-0.938559	-0.966581
C44	C	1.192942	-0.607419	-0.640798
C45	C	1.192977	-0.489600	-0.640818
C46	C	1.313223	-0.766986	-1.279808
C47	C	1.329047	-0.751644	-1.188334
C48	C	1.280915	-0.798371	-1.132891
C49	C	1.216957	-0.860444	-1.168931
C50	C	1.201136	-0.875795	-1.260415
C51	C	1.168828	-0.907179	-1.113499
C52	C	1.104870	-0.969252	-1.149538
C53	C	1.089052	-0.984600	-1.241013
C54	C	1.137183	-0.937873	-1.296456
C55	C	1.184649	-0.891828	-1.022015
C56	C	1.072562	-1.000637	-1.002622
C57	C	1.056738	-1.015979	-1.094096
C58	C	1.232264	-0.845655	-0.413179
C59	C	1.249270	-0.829064	-0.315849
H60	H	0.710966	-0.624440	-0.453023
C61	C	0.892783	-0.645082	-0.467946
C62	C	0.897411	-0.633838	-0.366181
C63	C	0.958369	-0.560837	-0.313353
C64	C	1.014699	-0.499081	-0.362288
C65	C	1.010073	-0.510323	-0.464058
C66	C	0.949115	-0.583324	-0.516887
H67	H	0.855710	-0.679556	-0.329951
H68	H	0.961793	-0.552515	-0.238015
H69	H	1.059824	-0.445041	-0.323181
H70	H	1.051774	-0.464605	-0.500288
H71	H	0.945691	-0.591646	-0.592224
C72	C	1.118556	-1.500370	-0.793391
C73	C	1.115450	-1.623170	-0.812965
C74	C	1.120317	-1.683498	-0.909357
C75	C	1.128289	-1.621026	-0.986175
C76	C	1.131396	-1.498218	-0.966603
C77	C	1.126529	-1.437891	-0.870211
H78	H	1.109548	-1.669422	-0.756098
H79	H	1.118017	-1.774408	-0.923845
H80	H	1.131892	-1.665684	-1.057529
H81	H	1.137298	-1.451966	-1.023470
H82	H	1.128829	-1.346980	-0.855723
H83	H	1.124303	-0.950362	-1.370942
C84	C	1.118450	-1.297228	-0.792849
C85	C	1.198365	-1.354486	-0.851550
C86	C	1.203403	-1.334357	-0.947682
C87	C	1.128526	-1.256970	-0.985113
C88	C	1.048606	-1.199706	-0.926411
C89	C	1.043568	-1.219835	-0.830279
H90	H	1.253798	-1.411778	-0.823842
H91	H	1.262565	-1.376748	-0.991137
H92	H	1.132256	-1.242069	-1.056276
H93	H	0.993173	-1.142415	-0.954120
H94	H	0.984405	-1.177444	-0.786824
C95	C	1.366163	-0.715594	-1.340793
C96	C	1.348761	-0.732482	-1.441416
C97	C	1.401706	-0.681086	-1.502403
C98	C	1.472054	-0.612802	-1.462768
C99	C	1.489459	-0.595911	-1.362140
C100	C	1.436514	-0.647307	-1.301153
H101	H	1.296682	-0.783032	-1.470761
H102	H	1.388821	-0.693590	-1.576895
H103	H	1.511247	-0.574755	-1.507914
H104	H	1.541538	-0.545360	-1.332795
H105	H	1.449399	-0.634802	-1.226661
C106	C	0.852169	-0.969686	-0.702823
C107	C	0.840833	-1.085950	-0.693330
C108	C	0.880505	-1.182973	-0.763536
C109	C	0.931514	-1.163731	-0.843236
C110	C	0.942853	-1.047462	-0.852733
C111	C	0.903181	-0.950439	-0.782526
H112	H	0.803070	-1.100199	-0.634328
H113	H	0.872110	-1.269044	-0.756506
H114	H	0.960882	-1.235554	-0.895207
H115	H	0.980615	-1.033214	-0.911735
H116	H	0.911575	-0.864369	-0.789557
H117	H	1.236723	-0.841287	-0.992680
H118	H	0.463542	-0.789395	-0.572381
H119	H	1.048109	-1.452052	-0.669746
C120	C	0.986393	-1.084267	-1.133751
C121	C	1.013457	-1.187103	-1.203189
C122	C	0.943114	-1.255391	-1.242848
C123	C	0.845708	-1.220843	-1.213068
C124	C	0.818639	-1.118002	-1.143626
C125	C	0.888982	-1.049714	-1.103968
H126	H	1.085567	-1.212682	-1.225237
H127	H	0.963153	-1.331521	-1.294253
H128	H	0.793636	-1.271394	-1.242425
H129	H	0.746529	-1.092423	-1.121578
H130	H	0.868944	-0.973584	-1.052562
H131	H	1.293803	-0.785875	-1.058410
C132	C	1.018696	-1.052882	-1.280647
C133	C	1.045734	-1.155732	-1.350077
C134	C	0.975375	-1.224012	-1.389704
C135	C	0.877977	-1.189442	-1.359900
C136	C	0.850934	-1.086586	-1.290466
C137	C	0.921293	-1.018306	-1.250840
H138	H	1.117838	-1.181328	-1.372143
H139	H	0.995394	-1.300153	-1.441103
H140	H	0.825893	-1.239986	-1.389234
H141	H	0.778830	-1.060990	-1.268400
H142	H	0.901273	-0.942166	-1.199440
C143	C	0.685931	-1.168795	-0.846894
C144	C	0.624980	-1.241796	-0.899724
C145	C	0.664657	-1.338814	-0.969931
C146	C	0.765286	-1.362832	-0.987310
C147	C	0.826244	-1.289829	-0.934479
C148	C	0.786566	-1.192810	-0.864271
H149	H	0.550483	-1.224018	-0.886860
H150	H	0.619532	-1.392856	-1.009040
H151	H	0.794658	-1.434651	-1.039281
H152	H	0.900741	-1.307607	-0.947342
H153	H	0.831691	-1.138769	-0.825163
H154	H	1.341522	-1.322277	-0.645717
H155	H	0.564086	-0.668986	-0.485238
H156	H	1.292878	-1.517792	-0.750574
C157	C	1.024256	-1.252150	-0.659530
C158	C	0.953137	-1.311664	-0.629981
C159	C	0.864001	-1.246442	-0.592782
C160	C	0.845985	-1.121706	-0.585131
C161	C	0.917106	-1.062185	-0.614681
C162	C	1.006242	-1.127407	-0.651880
H163	H	0.966472	-1.404008	-0.635644
H164	H	0.811353	-1.290504	-0.570908
H165	H	0.780001	-1.073424	-0.557595
H166	H	0.903771	-0.969841	-0.609018
H167	H	1.058890	-1.083345	-0.673754
C168	C	1.260329	-1.264450	-0.485079
C169	C	1.332024	-1.213675	-0.524001
C170	C	1.408511	-1.177853	-0.464947
C171	C	1.413302	-1.192807	-0.366972
C172	C	1.341605	-1.243584	-0.328045
C173	C	1.265118	-1.279406	-0.387099
H174	H	1.328479	-1.202603	-0.596533
H175	H	1.461586	-1.140264	-0.493764
H176	H	1.469922	-1.166290	-0.323257
H177	H	1.345149	-1.254656	-0.255513
H178	H	1.212043	-1.316995	-0.358282
C179	C	1.290203	-1.330096	-0.778558
C180	C	1.218682	-1.251563	-0.819131
C181	C	1.228260	-1.233668	-0.915300
C182	C	1.309360	-1.294306	-0.970895
C183	C	1.380887	-1.372845	-0.930322
C184	C	1.371309	-1.390739	-0.834153
H185	H	1.158642	-1.206670	-0.777976
H186	H	1.175310	-1.175529	-0.945334
H187	H	1.316450	-1.281060	-1.042084
H188	H	1.440927	-1.417737	-0.971477
H189	H	1.424258	-1.448879	-0.804119
H190	H	0.776158	-1.023193	-0.741533
H191	H	1.033370	-1.038688	-0.957480
H192	H	1.340412	-1.503081	-0.639741
C193	C	1.399388	-0.683359	-1.148687
C194	C	1.479021	-0.735168	-1.097677
C195	C	1.549364	-0.666875	-1.058027
C196	C	1.540074	-0.546774	-1.069387
C197	C	1.460438	-0.494960	-1.120400
C198	C	1.390095	-0.563252	-1.160050
H199	H	1.485901	-0.824079	-1.089266
H200	H	1.608316	-0.705233	-1.020265
H201	H	1.592146	-0.496220	-1.040036
H202	H	1.453558	-0.406048	-1.128811
H203	H	1.331143	-0.524894	-1.197812
H204	H	0.509645	-1.103979	-0.799989
H205	H	1.119095	-1.431991	-0.512746
H206	H	1.239467	-1.454946	-0.500326
H207	H	1.120346	-1.250226	-0.512165
