data_functionalizedCrystal
_audit_creation_method	'MofGen! by Chris Wilmer'
_symmetry_space_group_name_H-M	'P1'
_symmetry_Int_Tables_number	1
_symmetry_cell_setting	triclinic
loop_
_symmetry_equiv_pos_as_xyz
  x,y,z
_cell_length_a	10.723022
_cell_length_b	10.654551
_cell_length_c	9.798715
_cell_angle_alpha	89.999682
_cell_angle_beta	89.996609
_cell_angle_gamma	84.476294
loop_
_atom_site_label
_atom_site_type_symbol
_atom_site_fract_x
_atom_site_fract_y
_atom_site_fract_z
O1	O	1.657215	0.176137	-0.113473
O2	O	1.294065	0.193000	-0.113477
O3	O	1.483989	0.001828	-0.113475
O4	O	1.467291	0.367309	-0.113474
O5	O	1.483975	0.001828	0.113507
O6	O	1.294051	0.193000	0.113506
O7	O	1.657201	0.176137	0.113509
Zn8	Zn	1.475624	0.184568	0.149546
Zn9	Zn	1.475643	0.184569	-0.149513
O10	O	1.467277	0.367309	0.113508
C11	C	1.247558	0.191773	0.000014
C12	C	1.109003	0.188103	0.000012
C13	C	0.890841	0.291276	0.000010
C14	C	1.034044	0.295072	0.000012
C15	C	1.482756	-0.044970	0.000013
C16	C	1.479087	-0.184412	0.000003
C17	C	1.477373	-0.249924	-0.123722
C18	C	1.473915	-0.380944	-0.123716
C19	C	1.473889	-0.380930	0.123752
C20	C	1.477339	-0.249911	0.123745
C21	C	1.479122	-0.184425	-0.247464
C22	C	1.477410	-0.249937	-0.371199
C23	C	1.473951	-0.380957	-0.371193
C24	C	1.472205	-0.446465	-0.247451
C25	C	1.703708	0.177364	0.000016
C26	C	1.842263	0.181034	0.000009
C27	C	1.468511	0.414107	0.000017
C28	C	1.472180	0.553549	0.000017
N29	N	1.475620	0.184567	0.353645
N30	N	1.475656	0.184560	-0.353613
C31	C	1.555364	0.103945	0.421423
C32	C	1.555384	0.103941	0.578586
H33	H	1.075871	0.389461	0.000020
O34	O	1.394373	0.266968	0.576723
C35	C	1.462167	0.344806	0.494085
H36	H	1.559287	0.295404	0.472797
H37	H	1.471664	0.437700	0.549073
C38	C	1.272915	0.431759	0.384440
C39	C	1.392195	0.371077	0.358284
H40	H	1.229752	0.447970	0.300674
H41	H	1.227239	0.379321	0.440118
H42	H	1.280846	0.509163	0.430267
H43	H	1.384263	0.293667	0.312474
H44	H	1.437868	0.423502	0.302595
O45	O	1.394132	0.266738	0.423365
C46	C	1.316420	0.198929	0.506006
H47	H	1.365036	0.100977	0.527258
H48	H	1.224016	0.189862	0.451040
C49	C	1.230972	0.389728	0.615719
C50	C	1.290688	0.269425	0.641831
H51	H	1.215093	0.433215	0.699500
H52	H	1.283324	0.435414	0.560039
H53	H	1.153976	0.382155	0.569910
H54	H	1.367689	0.277000	0.687623
H55	H	1.238348	0.223742	0.697522
H56	H	1.478819	-0.196590	-0.471945
H57	H	0.906691	0.089462	0.000000
O58	O	0.813861	0.400443	-0.000173
C59	C	0.737760	0.405203	-0.117748
H60	H	0.730448	0.305438	-0.156943
H61	H	0.781006	0.462997	-0.200063
C62	C	0.615073	0.589630	-0.033901
C63	C	0.606083	0.467096	-0.082035
H64	H	0.533850	0.627814	-0.011875
H65	H	0.666346	0.586427	0.045309
H66	H	0.651116	0.637776	-0.102505
H67	H	0.570056	0.418948	-0.013426
H68	H	0.554801	0.470292	-0.161234
O69	O	1.059272	0.075410	-0.000172
C70	C	1.099430	0.006700	-0.117747
H71	H	1.190061	0.041581	-0.156939
H72	H	1.024248	0.020698	-0.200064
C73	C	1.011111	-0.177225	-0.033906
C74	C	1.122432	-0.134391	-0.082035
H75	H	1.025295	-0.264257	-0.011881
H76	H	0.984051	-0.130933	0.045304
H77	H	0.948470	-0.165549	-0.102511
H78	H	1.185066	-0.146052	-0.013424
H79	H	1.149503	-0.180688	-0.161234
H80	H	1.481941	-0.077743	-0.247483
O81	O	1.636652	0.021596	0.351675
C82	C	1.568884	-0.056243	0.269019
H83	H	1.471733	-0.006886	0.247804
H84	H	1.559462	-0.149179	0.323955
C85	C	1.758144	-0.143022	0.159238
C86	C	1.638825	-0.082397	0.133171
H87	H	1.801288	-0.159161	0.075443
H88	H	1.803802	-0.090585	0.214928
H89	H	1.750275	-0.220462	0.205021
H90	H	1.646696	-0.004952	0.087405
H91	H	1.593170	-0.134822	0.077471
O92	O	1.479029	-0.186463	0.244052
C93	C	1.476711	-0.272361	0.353271
H94	H	1.513722	-0.370616	0.317025
H95	H	1.376394	-0.273994	0.391278
C96	C	1.514238	-0.110582	0.514714
C97	C	1.559706	-0.231258	0.470199
H98	H	1.565427	-0.085226	0.586844
H99	H	1.515795	-0.052709	0.441132
H100	H	1.430640	-0.111958	0.546377
H101	H	1.643295	-0.229876	0.438521
H102	H	1.558165	-0.289130	0.543778
O103	O	1.636952	0.021541	0.647898
C104	C	1.711052	-0.053442	0.554331
H105	H	1.713130	-0.002042	0.452439
H106	H	1.669463	-0.146980	0.539190
C107	C	1.842818	-0.141556	0.735359
C108	C	1.845378	-0.078421	0.610217
H109	H	1.925675	-0.156971	0.769833
H110	H	1.792893	-0.091043	0.798398
H111	H	1.808155	-0.219498	0.722725
H112	H	1.880026	-0.000475	0.622856
H113	H	1.895312	-0.128922	0.547180
H114	H	1.472545	-0.434291	-0.471944
H115	H	1.469371	-0.553148	-0.247456
H116	H	1.472469	-0.434277	0.224497
