data_functionalizedCrystal
_audit_creation_method	'MofGen! by Chris Wilmer'
_symmetry_space_group_name_H-M	'P1'
_symmetry_Int_Tables_number	1
_symmetry_cell_setting	triclinic
loop_
_symmetry_equiv_pos_as_xyz
  x,y,z
_cell_length_a	12.645331
_cell_length_b	12.645329
_cell_length_c	16.120256
_cell_angle_alpha	92.877118
_cell_angle_beta	92.885071
_cell_angle_gamma	90.017213
loop_
_atom_site_label
_atom_site_type_symbol
_atom_site_fract_x
_atom_site_fract_y
_atom_site_fract_z
Zn1	Zn	1.590317	-0.452491	-0.471258
Zn2	Zn	2.090317	0.047509	0.028742
Zn3	Zn	1.599194	-0.620775	-0.331853
Zn4	Zn	2.099194	-0.120775	0.168147
Zn5	Zn	1.422027	-0.443525	-0.331877
Zn6	Zn	1.922027	0.056475	0.168123
Zn7	Zn	1.413014	-0.629709	-0.471237
Zn8	Zn	1.913014	-0.129709	0.028763
O9	O	1.506138	-0.536625	-0.401556
O10	O	2.006138	-0.036625	0.098444
O11	O	1.739842	-0.474827	-0.452765
O12	O	2.239842	0.025173	0.047235
O13	O	1.583180	-0.589771	-0.215192
O14	O	2.083180	-0.089771	0.284808
O15	O	1.444408	-0.296368	-0.350385
O16	O	1.944408	0.203632	0.149615
O17	O	1.746364	-0.598465	-0.350344
O18	O	2.246364	-0.098465	0.149656
O19	O	1.568050	-0.302956	-0.452788
O20	O	2.068050	0.197044	0.047212
O21	O	1.453015	-0.459546	-0.215209
O22	O	1.953015	0.040454	0.284791
O23	O	1.272484	-0.468209	-0.350364
O24	O	1.772484	0.031791	0.149636
O25	O	1.429047	-0.613692	-0.587904
O26	O	1.929047	-0.113692	-0.087904
O27	O	1.265863	-0.604998	-0.452751
O28	O	1.765863	-0.104998	0.047249
O29	O	1.559311	-0.483491	-0.587920
O30	O	2.059311	0.016509	-0.087920
O31	O	1.574441	-0.770306	-0.350324
O32	O	2.074441	-0.270306	0.149676
O33	O	1.437655	-0.776870	-0.452728
O34	O	1.937655	-0.276870	0.047272
C35	C	1.230708	-0.536601	-0.401558
C36	C	1.730708	-0.036601	0.098442
C37	C	1.112877	-0.536618	-0.401579
C38	C	1.612877	-0.036618	0.098421
C39	C	0.941205	-0.623099	-0.465655
C40	C	1.441205	-0.123099	0.034345
C41	C	1.063747	-0.622850	-0.465923
C42	C	1.563747	-0.122850	0.034077
C43	C	1.066850	-0.426513	-0.425584
C44	C	1.566850	0.073487	0.074416
C45	C	0.944223	-0.427045	-0.426035
C46	C	1.444223	0.072955	0.073965
C47	C	0.951328	-0.559329	-0.313295
C48	C	1.451328	-0.059329	0.186705
C49	C	1.073904	-0.561801	-0.313771
C50	C	1.573904	-0.061801	0.186229
C51	C	1.506061	-0.812054	-0.401539
C52	C	2.006061	-0.312054	0.098461
C53	C	1.506123	-0.929885	-0.401560
C54	C	2.006123	-0.429885	0.098440
C55	C	1.420035	-0.978938	-0.465945
C56	C	1.920035	-0.478938	0.034055
C57	C	1.420356	-1.101516	-0.466225
C58	C	1.920356	-0.601516	0.033775
C59	C	1.616519	-1.099182	-0.425226
C60	C	2.116519	-0.599182	0.074774
C61	C	1.615918	-0.976613	-0.425667
C62	C	2.115918	-0.476613	0.074333
C63	C	1.483004	-0.969481	-0.313403
C64	C	1.983004	-0.469481	0.186597
C65	C	1.480605	-1.092121	-0.313899
C66	C	1.980605	-0.592121	0.186101
C67	C	1.782644	-0.536650	-0.401554
C68	C	2.282644	-0.036650	0.098446
C69	C	1.900474	-0.536660	-0.401554
C70	C	2.400474	-0.036660	0.098446
C71	C	1.492184	-0.550588	-0.619007
C72	C	1.992184	-0.050588	-0.119007
C73	C	1.486237	-0.556538	-0.711672
C74	C	1.986237	-0.056538	-0.211672
C75	C	1.506244	-0.260122	-0.401591
C76	C	2.006244	0.239878	0.098409
C77	C	1.506289	-0.142293	-0.401606
C78	C	2.006289	0.357707	0.098394
C79	C	1.537147	-0.505568	-0.922627
C80	C	2.037147	-0.005568	-0.422627
C81	C	1.475344	-0.567358	-0.881326
C82	C	1.975344	-0.067358	-0.381326
C83	C	1.481407	-0.561336	-0.786922
C84	C	1.981407	-0.061336	-0.286922
C85	C	1.531086	-0.511589	-1.017040
C86	C	2.031086	-0.011589	-0.517040
C87	C	1.520100	-0.522640	-0.184951
C88	C	2.020100	-0.022640	0.315049
C89	C	1.526252	-0.516391	-0.092287
C90	C	2.026252	-0.016391	0.407713
H91	H	0.921814	-0.637950	-0.291476
H92	H	1.421814	-0.137950	0.208524
H93	H	1.435315	-1.134990	-0.531553
H94	H	1.935315	-0.634990	-0.031553
C95	C	0.916283	-0.474184	-0.248770
C96	C	1.416283	0.025816	0.251230
N97	N	0.889880	-0.410052	-0.200176
N98	N	1.389880	0.089948	0.299824
H99	H	1.088876	-0.608300	-0.531319
H100	H	1.588876	-0.108300	-0.031319
H101	H	1.417874	-0.624774	-0.916868
H102	H	1.917874	-0.124774	-0.416868
C103	C	1.309700	-1.141012	-0.446294
C104	C	1.809700	-0.641012	0.053706
N105	N	1.226347	-1.170756	-0.431287
N106	N	1.726347	-0.670756	0.068713
H107	H	0.906218	-0.608766	-0.530671
H108	H	1.406218	-0.108766	-0.030671
H109	H	1.594608	-0.448151	-0.887088
H110	H	2.094608	0.051849	-0.387088
C111	C	1.643237	-0.943495	-0.512719
C112	C	2.143237	-0.443495	-0.012719
N113	N	1.663811	-0.918556	-0.578289
N114	N	2.163811	-0.418556	-0.078289
C115	C	1.102785	-0.398984	-0.511808
C116	C	1.602785	0.101016	-0.011808
N117	N	1.129849	-0.378255	-0.576755
N118	N	1.629849	0.121745	-0.076755
C119	C	1.105687	-0.733397	-0.445603
C120	C	1.605687	-0.233397	0.054397
N121	N	1.137270	-0.816666	-0.430301
N122	N	1.637270	-0.316666	0.069699
C123	C	1.644539	-1.146110	-0.511341
C124	C	2.144539	-0.646110	-0.011341
N125	N	1.665637	-1.181453	-0.576205
N126	N	2.165637	-0.681453	-0.076205
C127	C	0.908015	-0.337496	-0.365720
C128	C	1.408015	0.162504	0.134280
N129	N	0.880747	-0.270045	-0.320295
N130	N	1.380747	0.229955	0.179705
H131	H	0.912673	-0.705210	-0.450776
H132	H	1.412673	-0.205210	0.049224
H133	H	0.911485	-0.407150	-0.490556
H134	H	1.411485	0.092850	0.009444
C135	C	1.114795	-0.671206	-0.289300
C136	C	1.614795	-0.171206	0.210700
N137	N	1.145615	-0.753603	-0.270864
N138	N	1.645615	-0.253603	0.229136
H139	H	1.098902	-0.360607	-0.380354
H140	H	1.598902	0.139393	0.119646
C141	C	1.119636	-0.482293	-0.245787
C142	C	1.619636	0.017707	0.254213
N143	N	1.154078	-0.422396	-0.194584
N144	N	1.654078	0.077604	0.305416
H145	H	1.434704	-0.952255	-0.530896
H146	H	1.934704	-0.452255	-0.030896
C147	C	1.705154	-0.932563	-0.365070
C148	C	2.205154	-0.432563	0.134930
N149	N	1.772376	-0.899390	-0.319438
N150	N	2.272376	-0.399390	0.180562
C151	C	1.705274	-1.134543	-0.363842
C152	C	2.205274	-0.634543	0.136158
N153	N	1.772123	-1.161180	-0.317606
N154	N	2.272123	-0.661180	0.182394
C155	C	1.308950	-0.937965	-0.446233
C156	C	1.808950	-0.437965	0.053767
N157	N	1.225279	-0.907094	-0.431386
N158	N	1.725279	-0.407094	0.068614
H159	H	1.539205	-1.119472	-0.263390
H160	H	2.039205	-0.619472	0.236610
H161	H	1.399510	-1.120159	-0.296082
H162	H	1.899510	-0.620159	0.203918
C163	C	1.376592	-0.925977	-0.284287
C164	C	1.876592	-0.425977	0.215713
N165	N	1.296437	-0.893211	-0.262366
N166	N	1.796437	-0.393211	0.237634
C167	C	1.567799	-0.926062	-0.248599
C168	C	2.067799	-0.426062	0.251401
N169	N	1.631669	-0.893352	-0.199794
N170	N	2.131669	-0.393352	0.300206
