data_functionalizedCrystal
_audit_creation_method	'MofGen! by Chris Wilmer'
_symmetry_space_group_name_H-M	'P1'
_symmetry_Int_Tables_number	1
_symmetry_cell_setting	triclinic
loop_
_symmetry_equiv_pos_as_xyz
  x,y,z
_cell_length_a	19.121102
_cell_length_b	29.839131
_cell_length_c	19.121175
_cell_angle_alpha	92.404073
_cell_angle_beta	85.212968
_cell_angle_gamma	87.589066
loop_
_atom_site_label
_atom_site_type_symbol
_atom_site_fract_x
_atom_site_fract_y
_atom_site_fract_z
Zn1	Zn	1.092558	-0.220826	-0.443606
Zn2	Zn	1.342558	0.029174	-0.193606
Zn3	Zn	1.592558	0.279174	0.056394
Zn4	Zn	1.842558	0.529174	0.306394
Zn5	Zn	1.087438	-0.292604	-0.325918
Zn6	Zn	1.337438	-0.042604	-0.075918
Zn7	Zn	1.587438	0.207396	0.174082
Zn8	Zn	1.837438	0.457396	0.424082
Zn9	Zn	0.969885	-0.214140	-0.320946
Zn10	Zn	1.219885	0.035860	-0.070946
Zn11	Zn	1.469885	0.285860	0.179054
Zn12	Zn	1.719885	0.535860	0.429054
Zn13	Zn	0.974838	-0.292574	-0.438530
Zn14	Zn	1.224838	-0.042574	-0.188530
Zn15	Zn	1.474838	0.207426	0.061470
Zn16	Zn	1.724838	0.457426	0.311470
O17	O	1.031180	-0.255036	-0.382250
O18	O	1.281180	-0.005036	-0.132250
O19	O	1.531180	0.244964	0.117750
O20	O	1.781180	0.494964	0.367750
O21	O	1.190342	-0.233159	-0.432200
O22	O	1.440342	0.016841	-0.182200
O23	O	1.690342	0.266841	0.067800
O24	O	1.940342	0.516841	0.317800
O25	O	1.067629	-0.279409	-0.226796
O26	O	1.317629	-0.029409	0.023204
O27	O	1.567629	0.220591	0.273204
O28	O	1.817629	0.470591	0.523204
O29	O	0.986228	-0.152163	-0.337260
O30	O	1.236228	0.097837	-0.087260
O31	O	1.486228	0.347837	0.162740
O32	O	1.736228	0.597837	0.412740
O33	O	1.186580	-0.285893	-0.345735
O34	O	1.436580	-0.035893	-0.095735
O35	O	1.686580	0.214107	0.154265
O36	O	1.936580	0.464107	0.404265
O37	O	1.076355	-0.157075	-0.427378
O38	O	1.326355	0.092925	-0.177378
O39	O	1.576355	0.342925	0.072622
O40	O	1.826355	0.592925	0.322622
O41	O	0.981263	-0.221762	-0.223143
O42	O	1.231263	0.028238	0.026857
O43	O	1.481263	0.278238	0.276857
O44	O	1.731263	0.528238	0.526857
O45	O	0.872079	-0.221734	-0.332338
O46	O	1.122079	0.028266	-0.082338
O47	O	1.372079	0.278266	0.167662
O48	O	1.622079	0.528266	0.417662
O49	O	0.994670	-0.285843	-0.537666
O50	O	1.244670	-0.035843	-0.287666
O51	O	1.494670	0.214157	-0.037666
O52	O	1.744670	0.464157	0.212334
O53	O	0.875719	-0.279359	-0.418727
O54	O	1.125719	-0.029359	-0.168727
O55	O	1.375719	0.220641	0.081273
O56	O	1.625719	0.470641	0.331273
O57	O	1.081158	-0.233130	-0.541395
O58	O	1.331158	0.016870	-0.291395
O59	O	1.581158	0.266870	-0.041395
O60	O	1.831158	0.516870	0.208605
O61	O	1.072432	-0.355464	-0.340813
O62	O	1.322432	-0.105464	-0.090813
O63	O	1.572432	0.144536	0.159187
O64	O	1.822432	0.394536	0.409187
O65	O	0.989705	-0.355442	-0.423549
O66	O	1.239705	-0.105442	-0.173549
O67	O	1.489705	0.144558	0.076451
O68	O	1.739705	0.394558	0.326451
C69	C	0.848369	-0.249818	-0.374443
C70	C	1.098369	0.000182	-0.124443
C71	C	1.348369	0.250182	0.125557
C72	C	1.598369	0.500182	0.375557
C73	C	0.770162	-0.247597	-0.371120
C74	C	1.020162	0.002403	-0.121120
C75	C	1.270162	0.252403	0.128880
C76	C	1.520162	0.502403	0.378880
C77	C	0.735330	-0.276597	-0.414466
C78	C	0.985330	-0.026597	-0.164466
C79	C	1.235330	0.223403	0.085534
C80	C	1.485330	0.473403	0.335534
C81	C	0.661847	-0.274504	-0.411347
C82	C	0.911847	-0.024504	-0.161347
C83	C	1.161847	0.225496	0.088653
C84	C	1.411847	0.475496	0.338653
C85	C	0.623196	-0.243413	-0.364877
C86	C	0.873196	0.006587	-0.114877
C87	C	1.123196	0.256587	0.135123
C88	C	1.373196	0.506587	0.385123
C89	C	0.658033	-0.214410	-0.321529
C90	C	0.908033	0.035590	-0.071529
C91	C	1.158033	0.285590	0.178471
C92	C	1.408033	0.535590	0.428471
C93	C	0.731515	-0.216501	-0.324653
C94	C	0.981515	0.033499	-0.074653
C95	C	1.231515	0.283499	0.175347
C96	C	1.481515	0.533499	0.425347
C97	C	0.401232	-0.235595	-0.353204
C98	C	0.651232	0.014405	-0.103204
C99	C	0.901232	0.264405	0.146796
C100	C	1.151232	0.514405	0.396796
C101	C	0.327744	-0.233507	-0.350082
C102	C	0.577744	0.016493	-0.100082
C103	C	0.827744	0.266493	0.149918
C104	C	1.077744	0.516493	0.399918
C105	C	0.331563	-0.293601	-0.439901
C106	C	0.581563	-0.043601	-0.189901
C107	C	0.831563	0.206399	0.060099
C108	C	1.081563	0.456399	0.310099
C109	C	0.405047	-0.295691	-0.443017
C110	C	0.655047	-0.045691	-0.193017
C111	C	0.905047	0.204309	0.056983
C112	C	1.155047	0.454309	0.306983
C113	C	0.439877	-0.266686	-0.399672
C114	C	0.689877	-0.016686	-0.149672
C115	C	0.939877	0.233314	0.100328
C116	C	1.189877	0.483314	0.350328
C117	C	0.548084	-0.241274	-0.361686
C118	C	0.798084	0.008726	-0.111686
C119	C	1.048084	0.258726	0.138314
C120	C	1.298084	0.508726	0.388314
C121	C	0.514988	-0.268823	-0.402867
C122	C	0.764988	-0.018823	-0.152867
C123	C	1.014988	0.231177	0.097133
C124	C	1.264988	0.481177	0.347133
C125	C	1.031070	-0.371754	-0.382186
C126	C	1.281070	-0.121754	-0.132186
C127	C	1.531070	0.128246	0.117814
C128	C	1.781070	0.378246	0.367814
C129	C	1.031089	-0.421689	-0.382185
C130	C	1.281089	-0.171689	-0.132185
C131	C	1.531089	0.078311	0.117815
C132	C	1.781089	0.328311	0.367815
C133	C	1.078102	-0.733861	-0.429238
C134	C	1.328102	-0.483861	-0.179238
C135	C	1.578102	-0.233861	0.070762
C136	C	1.828102	0.016139	0.320762
C137	C	1.078181	-0.921537	-0.429284
C138	C	1.328181	-0.671537	-0.179284
C139	C	1.578181	-0.421537	0.070716
C140	C	1.828181	-0.171537	0.320716
O141	O	1.118046	-0.947948	-0.469241
O142	O	1.368046	-0.697948	-0.219241
O143	O	1.618046	-0.447948	0.030759
O144	O	1.868046	-0.197948	0.280759
N145	N	1.031303	-0.942484	-0.382333
N146	N	1.281303	-0.692484	-0.132333
N147	N	1.531303	-0.442484	0.117667
N148	N	1.781303	-0.192484	0.367667
C149	C	0.984399	-0.916508	-0.335371
C150	C	1.234399	-0.666508	-0.085371
C151	C	1.484399	-0.416508	0.164629
C152	C	1.734399	-0.166508	0.414629
O153	O	0.944524	-0.938630	-0.295443
O154	O	1.194524	-0.688630	-0.045443
O155	O	1.444524	-0.438630	0.204557
O156	O	1.694524	-0.188630	0.454557
C157	C	0.984318	-0.728832	-0.335330
C158	C	1.234318	-0.478832	-0.085330
C159	C	1.484318	-0.228832	0.164670
C160	C	1.734318	0.021168	0.414670
C161	C	1.031204	-0.707889	-0.382278
C162	C	1.281204	-0.457889	-0.132278
C163	C	1.531204	-0.207889	0.117722
C164	C	1.781204	0.042111	0.367722
C165	C	1.124984	-0.712917	-0.476184
C166	C	1.374984	-0.462917	-0.226184
C167	C	1.624984	-0.212917	0.023816
C168	C	1.874984	0.037083	0.273816
C169	C	1.124966	-0.666001	-0.476169
C170	C	1.374966	-0.416001	-0.226169
C171	C	1.624966	-0.166001	0.023831
C172	C	1.874966	0.083999	0.273831
C173	C	1.078067	-0.640028	-0.429209
C174	C	1.328067	-0.390028	-0.179209
C175	C	1.578067	-0.140028	0.070791
C176	C	1.828067	0.109972	0.320791
C177	C	1.031186	-0.660972	-0.382264
C178	C	1.281186	-0.410972	-0.132264
C179	C	1.531186	-0.160972	0.117736
C180	C	1.781186	0.089028	0.367736
C181	C	0.937412	-0.702857	-0.288371
C182	C	1.187412	-0.452857	-0.038371
C183	C	1.437412	-0.202857	0.211629
C184	C	1.687412	0.047143	0.461629
C185	C	0.937394	-0.655936	-0.288366
C186	C	1.187394	-0.405936	-0.038366
C187	C	1.437394	-0.155936	0.211634
C188	C	1.687394	0.094064	0.461634
C189	C	0.984280	-0.634992	-0.335315
C190	C	1.234280	-0.384992	-0.085315
C191	C	1.484280	-0.134992	0.164685
C192	C	1.734280	0.115008	0.414685
C193	C	0.984270	-0.588084	-0.335290
C194	C	1.234270	-0.338084	-0.085290
C195	C	1.484270	-0.088084	0.164710
C196	C	1.734270	0.161916	0.414710
N197	N	1.031148	-0.567137	-0.382240
N198	N	1.281148	-0.317137	-0.132240
N199	N	1.531148	-0.067137	0.117760
N200	N	1.781148	0.182863	0.367760
C201	C	1.078047	-0.593110	-0.429200
C202	C	1.328047	-0.343110	-0.179200
C203	C	1.578047	-0.093110	0.070800
C204	C	1.828047	0.156890	0.320800
C205	C	0.984446	-1.015040	-0.335395
C206	C	1.234446	-0.765040	-0.085395
C207	C	1.484446	-0.515040	0.164605
C208	C	1.734446	-0.265040	0.414605
C209	C	0.984467	-1.061959	-0.335405
C210	C	1.234467	-0.811959	-0.085405
C211	C	1.484467	-0.561959	0.164595
C212	C	1.734467	-0.311959	0.414595
C213	C	1.078248	-1.066985	-0.429318
C214	C	1.328248	-0.816985	-0.179318
C215	C	1.578248	-0.566985	0.070682
C216	C	1.828248	-0.316985	0.320682
C217	C	1.078229	-1.020066	-0.429305
C218	C	1.328229	-0.770066	-0.179305
C219	C	1.578229	-0.520066	0.070695
C220	C	1.828229	-0.270066	0.320695
C221	C	1.031324	-0.994094	-0.382346
C222	C	1.281324	-0.744094	-0.132346
C223	C	1.531324	-0.494094	0.117654
C224	C	1.781324	-0.244094	0.367654
C225	C	1.078007	-0.494582	-0.429166
C226	C	1.328007	-0.244582	-0.179166
C227	C	1.578007	0.005418	0.070834
C228	C	1.828007	0.255418	0.320834
C229	C	1.077987	-0.447661	-0.429145
C230	C	1.327987	-0.197661	-0.179145
C231	C	1.577987	0.052339	0.070855
C232	C	1.827987	0.302339	0.320855
C233	C	0.984204	-0.442639	-0.335234
C234	C	1.234204	-0.192639	-0.085234
C235	C	1.484204	0.057361	0.164766
C236	C	1.734204	0.307361	0.414766
C237	C	0.984226	-0.489555	-0.335252
C238	C	1.234226	-0.239555	-0.085252
C239	C	1.484226	0.010445	0.164748
C240	C	1.734226	0.260445	0.414748
C241	C	1.031130	-0.515526	-0.382224
C242	C	1.281130	-0.265526	-0.132224
C243	C	1.531130	-0.015526	0.117776
C244	C	1.781130	0.234474	0.367776
O245	O	0.944420	-0.561645	-0.295358
O246	O	1.194420	-0.311645	-0.045358
O247	O	1.444420	-0.061645	0.204642
O248	O	1.694420	0.188355	0.454642
O249	O	1.117905	-0.570979	-0.469133
O250	O	1.367905	-0.320979	-0.219133
O251	O	1.617905	-0.070979	0.030867
O252	O	1.867905	0.179021	0.280867
C253	C	1.078120	-0.780777	-0.429253
C254	C	1.328120	-0.530777	-0.179253
C255	C	1.578120	-0.280777	0.070747
C256	C	1.828120	-0.030777	0.320747
C257	C	1.031239	-0.801721	-0.382307
C258	C	1.281239	-0.551721	-0.132307
C259	C	1.531239	-0.301721	0.117693
C260	C	1.781239	-0.051721	0.367693
C261	C	0.984340	-0.775749	-0.335347
C262	C	1.234340	-0.525749	-0.085347
C263	C	1.484340	-0.275749	0.164653
C264	C	1.734340	-0.025749	0.414653
C265	C	1.031260	-0.848640	-0.382317
C266	C	1.281260	-0.598640	-0.132317
C267	C	1.531260	-0.348640	0.117683
C268	C	1.781260	-0.098640	0.367683
C269	C	1.078158	-0.874612	-0.429277
C270	C	1.328158	-0.624612	-0.179277
C271	C	1.578158	-0.374612	0.070723
C272	C	1.828158	-0.124612	0.320723
C273	C	1.125036	-0.853666	-0.476227
C274	C	1.375036	-0.603666	-0.226227
C275	C	1.625036	-0.353666	0.023773
C276	C	1.875036	-0.103666	0.273773
C277	C	1.125018	-0.806750	-0.476213
C278	C	1.375018	-0.556750	-0.226213
C279	C	1.625018	-0.306750	0.023787
C280	C	1.875018	-0.056750	0.273787
C281	C	0.937462	-0.796695	-0.288397
C282	C	1.187462	-0.546695	-0.038397
C283	C	1.437462	-0.296695	0.211603
C284	C	1.687462	-0.046695	0.461603
C285	C	0.937484	-0.843612	-0.288415
C286	C	1.187484	-0.593612	-0.038415
C287	C	1.437484	-0.343612	0.211585
C288	C	1.687484	-0.093612	0.461585
C289	C	0.984383	-0.869584	-0.335374
C290	C	1.234383	-0.619584	-0.085374
C291	C	1.484383	-0.369584	0.164626
C292	C	1.734383	-0.119584	0.414626
C293	C	1.214705	-0.260275	-0.390088
C294	C	1.464705	-0.010275	-0.140088
C295	C	1.714705	0.239725	0.109912
C296	C	1.964705	0.489725	0.359912
C297	C	1.292913	-0.262507	-0.393428
C298	C	1.542913	-0.012507	-0.143428
C299	C	1.792913	0.237493	0.106572
C300	C	2.042913	0.487493	0.356572
C301	C	1.039038	-0.260229	-0.565775
C302	C	1.289038	-0.010229	-0.315775
C303	C	1.539038	0.239771	-0.065775
C304	C	1.789038	0.489771	0.184225
C305	C	1.042386	-0.262442	-0.643982
C306	C	1.292386	-0.012442	-0.393982
C307	C	1.542386	0.237558	-0.143982
C308	C	1.792386	0.487558	0.106018
C309	C	1.031310	-0.137863	-0.382330
C310	C	1.281310	0.112137	-0.132330
C311	C	1.531310	0.362137	0.117670
C312	C	1.781310	0.612137	0.367670
C313	C	1.031366	-0.087931	-0.382365
C314	C	1.281366	0.162069	-0.132365
C315	C	1.531366	0.412069	0.117635
C316	C	1.781366	0.662069	0.367635
C317	C	0.998995	-0.233468	-0.678821
C318	C	1.248995	0.016532	-0.428821
C319	C	1.498995	0.266532	-0.178821
C320	C	1.748995	0.516532	0.071179
C321	C	1.002138	-0.235551	-0.752305
C322	C	1.252138	0.014449	-0.502305
C323	C	1.502138	0.264449	-0.252305
C324	C	1.752138	0.514449	-0.002305
C325	C	1.048677	-0.266606	-0.790948
C326	C	1.298677	-0.016606	-0.540948
C327	C	1.548677	0.233394	-0.290948
C328	C	1.798677	0.483394	-0.040948
C329	C	1.092070	-0.295582	-0.756104
C330	C	1.342070	-0.045582	-0.506104
C331	C	1.592070	0.204418	-0.256104
C332	C	1.842070	0.454418	-0.006104
C333	C	1.088922	-0.293501	-0.682621
C334	C	1.338922	-0.043501	-0.432621
C335	C	1.588922	0.206499	-0.182621
C336	C	1.838922	0.456499	0.067379
C337	C	1.060427	-0.274392	-1.012913
C338	C	1.310427	-0.024392	-0.762913
C339	C	1.560427	0.225608	-0.512913
C340	C	1.810427	0.475608	-0.262913
C341	C	1.063573	-0.276470	-1.086401
C342	C	1.313573	-0.026470	-0.836401
C343	C	1.563573	0.223530	-0.586401
C344	C	1.813573	0.473530	-0.336401
C345	C	0.973640	-0.216439	-1.082597
C346	C	1.223640	0.033561	-0.832597
C347	C	1.473640	0.283561	-0.582597
C348	C	1.723640	0.533561	-0.332597
C349	C	0.970499	-0.214359	-1.009113
C350	C	1.220499	0.035641	-0.759113
C351	C	1.470499	0.285641	-0.509113
C352	C	1.720499	0.535641	-0.259113
C353	C	1.013890	-0.243338	-0.974275
C354	C	1.263890	0.006662	-0.724275
C355	C	1.513890	0.256662	-0.474275
C356	C	1.763890	0.506662	-0.224275
C357	C	1.051893	-0.268734	-0.866061
C358	C	1.301893	-0.018734	-0.616061
C359	C	1.551893	0.231266	-0.366061
C360	C	1.801893	0.481266	-0.116061
C361	C	1.010670	-0.241211	-0.899164
C362	C	1.260670	0.008789	-0.649164
C363	C	1.510670	0.258789	-0.399164
C364	C	1.760670	0.508789	-0.149164
C365	C	1.023394	-0.249832	-0.199441
C366	C	1.273394	0.000168	0.050559
C367	C	1.523394	0.250168	0.300559
C368	C	1.773394	0.500168	0.550559
C369	C	1.020182	-0.247497	-0.121240
C370	C	1.270182	0.002503	0.128760
C371	C	1.520182	0.252503	0.378760
C372	C	1.770182	0.502503	0.628760
H373	H	0.766794	-0.301916	-0.452304
H374	H	1.016794	-0.051916	-0.202304
H375	H	1.266794	0.198084	0.047696
H376	H	1.516794	0.448084	0.297696
F377	F	0.768585	-0.185634	-0.278519
F378	F	1.018585	0.064366	-0.028519
F379	F	1.268585	0.314366	0.221481
F380	F	1.518585	0.564366	0.471481
H381	H	0.899305	-0.860660	-0.250177
H382	H	1.149305	-0.610660	-0.000177
H383	H	1.399305	-0.360660	0.249823
H384	H	1.649305	-0.110660	0.499823
H385	H	1.163225	-0.874821	-0.514461
H386	H	1.413225	-0.624821	-0.264461
H387	H	1.663225	-0.374821	-0.014461
H388	H	1.913225	-0.124821	0.235539
H389	H	0.966802	-0.211959	-0.780668
H390	H	1.216802	0.038041	-0.530668
H391	H	1.466802	0.288041	-0.280668
H392	H	1.716802	0.538041	-0.030668
F393	F	0.949465	-0.200413	-0.637700
F394	F	1.199465	0.049587	-0.387700
F395	F	1.449465	0.299587	-0.137700
F396	F	1.699465	0.549587	0.112300
H397	H	1.163197	-0.789701	-0.514443
H398	H	1.413197	-0.539701	-0.264443
H399	H	1.663197	-0.289701	-0.014443
H400	H	1.913197	-0.039701	0.235557
H401	H	0.633490	-0.298120	-0.446643
H402	H	0.883490	-0.048120	-0.196643
H403	H	1.133490	0.201880	0.053357
H404	H	1.383490	0.451880	0.303357
H405	H	1.116435	-1.088140	-0.467554
H406	H	1.366435	-0.838140	-0.217554
H407	H	1.616435	-0.588140	0.032446
H408	H	1.866435	-0.338140	0.282446
H409	H	0.303196	-0.317215	-0.475191
H410	H	0.553196	-0.067215	-0.225191
H411	H	0.803196	0.182785	0.024809
H412	H	1.053196	0.432785	0.274809
H413	H	0.296277	-0.208184	-0.312246
H414	H	0.546277	0.041816	-0.062246
H415	H	0.796277	0.291816	0.187754
H416	H	1.046277	0.541816	0.437754
H417	H	1.089784	-0.294019	-0.897532
H418	H	1.339784	-0.044019	-0.647532
H419	H	1.589784	0.205981	-0.397532
H420	H	1.839784	0.455981	-0.147532
H421	H	0.932601	-0.189073	-0.977655
H422	H	1.182601	0.060927	-0.727655
H423	H	1.432601	0.310927	-0.477655
H424	H	1.682601	0.560927	-0.227655
H425	H	0.938313	-0.192848	-1.110970
H426	H	1.188313	0.057152	-0.860970
H427	H	1.438313	0.307152	-0.610970
H428	H	1.688313	0.557152	-0.360970
H429	H	0.436511	-0.321010	-0.480856
H430	H	0.686511	-0.071010	-0.230856
H431	H	0.936511	0.178990	0.019144
H432	H	1.186511	0.428990	0.269144
H433	H	0.899233	-0.719901	-0.250140
H434	H	1.149233	-0.469901	-0.000140
H435	H	1.399233	-0.219901	0.249860
H436	H	1.649233	0.030099	0.499860
H437	H	1.101473	-0.301759	-1.117863
H438	H	1.351473	-0.051759	-0.867863
H439	H	1.601473	0.198241	-0.617863
H440	H	1.851473	0.448241	-0.367863
F441	F	0.616896	-0.181317	-0.272077
F442	F	0.866896	0.068683	-0.022077
F443	F	1.116896	0.318683	0.227923
F444	F	1.366896	0.568683	0.477923
F445	F	1.106611	-0.305231	-0.975846
F446	F	1.356611	-0.055231	-0.725846
F447	F	1.606611	0.194769	-0.475846
F448	F	1.856611	0.444769	-0.225846
F449	F	1.141596	-0.328635	-0.797233
F450	F	1.391596	-0.078635	-0.547233
F451	F	1.641596	0.171365	-0.297233
F452	F	1.891596	0.421365	-0.047233
H453	H	1.124261	-0.317091	-0.654256
H454	H	1.374261	-0.067091	-0.404256
H455	H	1.624261	0.182909	-0.154256
H456	H	1.874261	0.432909	0.095744
F457	F	0.556124	-0.301911	-0.452322
F458	F	0.806124	-0.051911	-0.202322
F459	F	1.056124	0.198089	0.047678
F460	F	1.306124	0.448089	0.297678
F461	F	0.887540	-0.769059	-0.238416
F462	F	1.137540	-0.519059	0.011584
F463	F	1.387540	-0.269059	0.261584
F464	F	1.637540	-0.019059	0.511584
H465	H	0.516607	-0.215961	-0.323849
H466	H	0.766607	0.034039	-0.073849
H467	H	1.016607	0.284039	0.176151
H468	H	1.266607	0.534039	0.426151
H469	H	1.116170	-0.430611	-0.467376
H470	H	1.366170	-0.180611	-0.217376
H471	H	1.616170	0.069389	0.032624
H472	H	1.866170	0.319389	0.282624
F473	F	1.174865	-0.643717	-0.526143
F474	F	1.424865	-0.393717	-0.276143
F475	F	1.674865	-0.143717	-0.026143
F476	F	1.924865	0.106283	0.223857
H477	H	0.429582	-0.211980	-0.317904
H478	H	0.679582	0.038020	-0.067904
H479	H	0.929582	0.288020	0.182096
H480	H	1.179582	0.538020	0.432096
F481	F	0.961142	-0.208161	-0.858036
F482	F	1.211142	0.041839	-0.608036
F483	F	1.461142	0.291839	-0.358036
F484	F	1.711142	0.541839	-0.108036
H485	H	1.116196	-0.515722	-0.467419
H486	H	1.366196	-0.265722	-0.217419
H487	H	1.616196	-0.015722	0.032581
H488	H	1.866196	0.234278	0.282581
H489	H	0.946295	-1.079007	-0.297167
H490	H	1.196295	-0.829007	-0.047167
H491	H	1.446295	-0.579007	0.202833
H492	H	1.696295	-0.329007	0.452833
H493	H	1.116407	-1.003016	-0.467535
H494	H	1.366407	-0.753016	-0.217535
H495	H	1.616407	-0.503016	0.032465
H496	H	1.866407	-0.253016	0.282465
F497	F	1.174901	-0.740552	-0.526172
F498	F	1.424901	-0.490552	-0.276172
F499	F	1.674901	-0.240552	-0.026172
F500	F	1.924901	0.009448	0.223828
H501	H	0.946249	-0.993897	-0.297154
H502	H	1.196249	-0.743897	-0.047154
H503	H	1.446249	-0.493897	0.202846
H504	H	1.696249	-0.243897	0.452846
H505	H	0.899196	-0.634791	-0.250127
H506	H	1.149196	-0.384791	-0.000127
H507	H	1.399196	-0.134791	0.249873
H508	H	1.649196	0.115209	0.499873
H509	H	0.946054	-0.506609	-0.297017
H510	H	1.196054	-0.256609	-0.047017
H511	H	1.446054	-0.006609	0.202983
H512	H	1.696054	0.243391	0.452983
F513	F	0.934295	-0.414989	-0.285258
F514	F	1.184295	-0.164989	-0.035258
F515	F	1.434295	0.085011	0.214742
F516	F	1.684295	0.335011	0.464742
