data_functionalizedCrystal
_audit_creation_method	'MofGen! by Chris Wilmer'
_symmetry_space_group_name_H-M	'P1'
_symmetry_Int_Tables_number	1
_symmetry_cell_setting	triclinic
loop_
_symmetry_equiv_pos_as_xyz
  x,y,z
_cell_length_a	18.215407
_cell_length_b	12.594516
_cell_length_c	18.215399
_cell_angle_alpha	89.977894
_cell_angle_beta	89.980167
_cell_angle_gamma	90.016501
loop_
_atom_site_label
_atom_site_type_symbol
_atom_site_fract_x
_atom_site_fract_y
_atom_site_fract_z
Zn1	Zn	1.125117	-0.423740	-0.416146
Zn2	Zn	1.625117	0.076260	0.083854
Zn3	Zn	1.125045	-0.601738	-0.293092
Zn4	Zn	1.625045	-0.101738	0.206908
Zn5	Zn	1.002050	-0.423775	-0.293093
Zn6	Zn	1.502050	0.076225	0.206907
Zn7	Zn	1.002035	-0.601679	-0.416117
Zn8	Zn	1.502035	-0.101679	0.083883
O9	O	1.063561	-0.512733	-0.354612
O10	O	1.563561	-0.012733	0.145388
O11	O	1.228092	-0.447362	-0.399834
O12	O	1.728092	0.052638	0.100166
O13	O	1.108705	-0.578170	-0.190108
O14	O	1.608705	-0.078170	0.309892
O15	O	1.018412	-0.274825	-0.309429
O16	O	1.518412	0.225175	0.190571
O17	O	1.228038	-0.578136	-0.309427
O18	O	1.728038	-0.078136	0.190573
O19	O	1.108829	-0.274799	-0.399835
O20	O	1.608829	0.225201	0.100165
O21	O	1.018341	-0.447422	-0.190109
O22	O	1.518341	0.052578	0.309891
O23	O	0.899063	-0.447364	-0.309401
O24	O	1.399063	0.052636	0.190599
O25	O	1.018386	-0.578035	-0.519105
O26	O	1.518386	-0.078035	-0.019105
O27	O	0.899052	-0.578069	-0.399786
O28	O	1.399052	-0.078069	0.100214
O29	O	1.108814	-0.447305	-0.519126
O30	O	1.608814	0.052695	-0.019126
O31	O	1.108690	-0.750676	-0.309399
O32	O	1.608690	-0.250676	0.190601
O33	O	1.018315	-0.750632	-0.399785
O34	O	1.518315	-0.250632	0.100215
C35	C	0.872355	-0.512715	-0.354591
C36	C	1.372355	-0.012715	0.145409
C37	C	0.790556	-0.512733	-0.354599
C38	C	1.290556	-0.012733	0.145401
C39	C	0.602376	-0.580898	-0.401604
C40	C	1.102376	-0.080898	0.098396
C41	C	0.525517	-0.580901	-0.401613
C42	C	1.025517	-0.080901	0.098387
C43	C	0.525499	-0.444588	-0.307636
C44	C	1.025499	0.055412	0.192364
C45	C	0.602356	-0.444580	-0.307631
C46	C	1.102356	0.055420	0.192369
C47	C	0.640793	-0.512741	-0.354614
C48	C	1.140793	-0.012741	0.145386
C49	C	0.487077	-0.512752	-0.354628
C50	C	0.987077	-0.012752	0.145372
C51	C	0.403743	-0.512755	-0.354638
C52	C	0.903743	-0.012755	0.145362
C53	C	0.724132	-0.512737	-0.354606
C54	C	1.224132	-0.012737	0.145394
C55	C	1.063513	-0.789274	-0.354605
C56	C	1.563513	-0.289274	0.145395
C57	C	1.063560	-0.907579	-0.354626
C58	C	1.563560	-0.407579	0.145374
C59	C	1.014400	-0.976847	-0.403753
C60	C	1.514400	-0.476847	0.096247
C61	C	0.996471	-1.047706	-0.336600
C62	C	1.496471	-0.547706	0.163400
C63	C	1.081556	-1.047520	-0.421791
C64	C	1.581556	-0.547520	0.078209
C65	C	1.045595	-0.976880	-0.287438
C66	C	1.545595	-0.476880	0.212562
C67	C	1.130712	-0.976687	-0.372674
C68	C	1.630712	-0.476687	0.127326
C69	C	1.112808	-1.047514	-0.305475
C70	C	1.612808	-0.547514	0.194525
C71	C	1.255514	-0.512752	-0.354634
C72	C	1.755514	-0.012752	0.145366
C73	C	1.337313	-0.512760	-0.354643
C74	C	1.837313	-0.012760	0.145357
C75	C	1.063606	-0.512660	-0.546565
C76	C	1.563606	-0.012660	-0.046565
C77	C	1.063625	-0.512628	-0.628364
C78	C	1.563625	-0.012628	-0.128364
C79	C	1.063630	-0.235112	-0.354635
C80	C	1.563630	0.264888	0.145365
C81	C	1.063659	-0.116807	-0.354645
C82	C	1.563659	0.383193	0.145355
C83	C	1.110728	-0.444493	-0.816570
C84	C	1.610728	0.055507	-0.316570
C85	C	1.110737	-0.444462	-0.893429
C86	C	1.610737	0.055538	-0.393429
C87	C	1.016575	-0.580599	-0.893396
C88	C	1.516575	-0.080599	-0.393396
C89	C	1.016563	-0.580624	-0.816538
C90	C	1.516563	-0.080624	-0.316538
C91	C	1.063644	-0.512572	-0.778127
C92	C	1.563644	-0.012572	-0.278127
C93	C	1.063664	-0.512517	-0.931844
C94	C	1.563664	-0.012517	-0.431844
C95	C	1.063674	-0.512483	-1.015177
C96	C	1.563674	-0.012483	-0.515177
C97	C	1.063634	-0.512604	-0.694788
C98	C	1.563634	-0.012604	-0.194788
C99	C	1.063559	-0.512729	-0.163406
C100	C	1.563559	-0.012729	0.336594
C101	C	1.063683	-0.512461	-0.081607
C102	C	1.563683	-0.012461	0.418393
H103	H	0.494195	-0.389095	-0.269384
H104	H	0.994195	0.110905	0.230616
O105	O	0.639681	-0.646985	-0.447352
O106	O	1.139681	-0.146985	0.052648
C107	C	0.620919	-0.623869	-0.520725
C108	C	1.120919	-0.123869	-0.020725
H109	H	0.599806	-0.538846	-0.524534
H110	H	1.099806	-0.038846	-0.024534
H111	H	0.671476	-0.633095	-0.557071
H112	H	1.171476	-0.133095	-0.057071
H113	H	0.576305	-0.680971	-0.539901
H114	H	1.076305	-0.180971	-0.039901
O115	O	1.162536	-1.084362	-0.255970
O116	O	1.662536	-0.584362	0.244030
C117	C	1.215866	-1.145886	-0.292528
C118	C	1.715866	-0.645886	0.207472
H119	H	1.218035	-1.121899	-0.352842
H120	H	1.718035	-0.621899	0.147158
H121	H	1.271838	-1.131974	-0.266249
H122	H	1.771838	-0.631974	0.233751
H123	H	1.200851	-1.233532	-0.288053
H124	H	1.700851	-0.733532	0.211947
O125	O	1.099802	-1.084486	-0.489521
O126	O	1.599802	-0.584486	0.010479
C127	C	1.170055	-1.046727	-0.508928
C128	C	1.670055	-0.546727	-0.008928
H129	H	1.201955	-1.025757	-0.457088
H130	H	1.701955	-0.525757	0.042912
H131	H	1.200783	-1.110890	-0.540601
H132	H	1.700783	-0.610890	-0.040601
H133	H	1.164235	-0.973002	-0.544787
H134	H	1.664235	-0.473002	-0.044787
H135	H	0.978244	-0.636006	-0.924679
H136	H	1.478244	-0.136006	-0.424679
O137	O	1.156531	-0.378534	-0.779223
O138	O	1.656531	0.121466	-0.279223
C139	C	1.204034	-0.439139	-0.734752
C140	C	1.704034	0.060861	-0.234752
H141	H	1.208572	-0.522962	-0.757904
H142	H	1.708572	-0.022962	-0.257904
H143	H	1.260676	-0.400637	-0.733894
H144	H	1.760676	0.099363	-0.233894
H145	H	1.181269	-0.442825	-0.676499
H146	H	1.681269	0.057175	-0.176499
O147	O	0.970800	-0.646862	-0.779304
O148	O	1.470800	-0.146862	-0.279304
C149	C	0.929239	-0.706909	-0.829685
C150	C	1.429239	-0.206909	-0.329685
H151	H	0.959388	-0.710582	-0.884478
H152	H	1.459388	-0.210582	-0.384478
H153	H	0.921367	-0.790775	-0.807464
H154	H	1.421367	-0.290775	-0.307464
H155	H	0.873356	-0.667927	-0.837852
H156	H	1.373356	-0.167927	-0.337852
O157	O	1.156546	-0.378299	-0.930658
O158	O	1.656546	0.121701	-0.430658
C159	C	1.198081	-0.318225	-0.880272
C160	C	1.698081	0.181775	-0.380272
H161	H	1.200611	-0.361843	-0.825482
H162	H	1.700611	0.138157	-0.325482
H163	H	1.256071	-0.306867	-0.902491
H164	H	1.756071	0.193133	-0.402491
H165	H	1.171150	-0.237388	-0.872098
H166	H	1.671150	0.262612	-0.372098
H167	H	0.494241	-0.636400	-0.439878
H168	H	0.994241	-0.136400	0.060122
O169	O	0.964822	-0.939771	-0.453327
O170	O	1.464822	-0.439771	0.046673
C171	C	1.001320	-0.878084	-0.506657
C172	C	1.501320	-0.378084	-0.006657
H173	H	1.061609	-0.902115	-0.508984
H174	H	1.561609	-0.402115	-0.008984
H175	H	0.974911	-0.891770	-0.562590
H176	H	1.474911	-0.391770	-0.062590
H177	H	0.996955	-0.790490	-0.491520
H178	H	1.496955	-0.290490	0.008480
H179	H	0.633636	-0.389071	-0.269367
H180	H	1.133636	0.110929	0.230633
O181	O	0.928731	-1.084876	-0.318512
O182	O	1.428731	-0.584876	0.181488
C183	C	0.877011	-1.048857	-0.370421
C184	C	1.377011	-0.548857	0.129579
H185	H	0.906236	-1.028913	-0.424033
H186	H	1.406236	-0.528913	0.075967
H187	H	0.834552	-1.113680	-0.380704
H188	H	1.334552	-0.613680	0.119296
H189	H	0.848421	-0.974855	-0.348501
H190	H	1.348421	-0.474855	0.151499
O191	O	1.027382	-0.939846	-0.219717
O192	O	1.527382	-0.439846	0.280283
C193	C	1.027537	-0.827904	-0.220528
C194	C	1.527537	-0.327904	0.279472
H195	H	1.019305	-0.798570	-0.279163
H196	H	1.519305	-0.298570	0.220837
H197	H	0.981119	-0.797085	-0.184359
H198	H	1.481119	-0.297085	0.315641
H199	H	1.082309	-0.797536	-0.198718
H200	H	1.582309	-0.297536	0.301282
H201	H	1.187442	-0.945472	-0.387956
H202	H	1.687442	-0.445472	0.112044
