data_functionalizedCrystal
_audit_creation_method	'MofGen! by Chris Wilmer'
_symmetry_space_group_name_H-M	'P1'
_symmetry_Int_Tables_number	1
_symmetry_cell_setting	triclinic
loop_
_symmetry_equiv_pos_as_xyz
  x,y,z
_cell_length_a	13.635800
_cell_length_b	21.457703
_cell_length_c	19.551833
_cell_angle_alpha	87.287572
_cell_angle_beta	101.663477
_cell_angle_gamma	63.171913
loop_
_atom_site_label
_atom_site_type_symbol
_atom_site_fract_x
_atom_site_fract_y
_atom_site_fract_z
V1	V	2.039608	-0.097421	0.218268
O2	O	1.995653	0.003928	0.213694
O3	O	2.050976	-0.192445	0.217177
O4	O	2.010518	-0.096254	0.313278
O5	O	2.036391	-0.092930	0.116928
V6	V	2.277447	-0.085260	0.206098
O7	O	2.178842	-0.124099	0.244963
O8	O	2.363311	-0.058582	0.179402
O9	O	2.154475	0.009764	0.207188
O10	O	2.380100	-0.186609	0.210671
O11	O	2.339361	-0.089751	0.307437
O12	O	2.194933	-0.086428	0.111087
V13	V	2.539608	-0.097421	0.218268
O14	O	2.495653	0.003928	0.213694
O15	O	2.550976	-0.192445	0.217177
O16	O	2.510518	-0.096254	0.313278
O17	O	2.536391	-0.092930	0.116928
V18	V	2.777447	-0.085260	0.206098
O19	O	2.678842	-0.124099	0.244963
O20	O	2.863311	-0.058582	0.179402
O21	O	2.654475	0.009764	0.207188
O22	O	2.880100	-0.186609	0.210671
O23	O	2.839361	-0.089751	0.307437
O24	O	2.694933	-0.086428	0.111087
C25	C	2.054836	0.032915	0.210526
C26	C	1.994549	0.110599	0.210788
C27	C	1.982288	-0.215600	0.213838
C28	C	2.032194	-0.293285	0.213580
C29	C	2.554836	0.032915	0.210526
C30	C	2.494549	0.110599	0.210788
C31	C	2.051367	0.150656	0.207405
C32	C	1.994729	0.223651	0.207641
C33	C	1.881276	0.256588	0.211264
C34	C	1.824455	0.216526	0.214645
C35	C	1.881090	0.143533	0.214405
C36	C	2.551379	0.150653	0.207463
C37	C	2.494776	0.223632	0.207800
C38	C	2.381348	0.256551	0.211476
C39	C	2.324512	0.216489	0.214798
C40	C	2.381113	0.143513	0.214454
C41	C	2.246211	0.362823	0.255856
C42	C	2.189617	0.435797	0.256204
C43	C	2.206768	0.481634	0.212534
C44	C	2.280541	0.454487	0.168523
C45	C	2.337141	0.381511	0.168179
C46	C	2.319965	0.335681	0.211849
C47	C	2.202228	0.600820	0.209572
C48	C	2.145619	0.673801	0.209905
C49	C	1.975357	0.666655	0.216910
C50	C	2.031965	0.593677	0.216570
C51	C	2.145401	0.560763	0.212905
C52	C	1.930678	-0.092897	0.336423
C53	C	1.947771	-0.092571	0.414097
C54	C	2.106445	-0.089787	0.087939
C55	C	2.078970	-0.090109	0.010264
C56	C	2.048001	-0.095926	0.454159
C57	C	2.064062	-0.095619	0.527142
C58	C	1.979897	-0.091972	0.560063
C59	C	1.879650	-0.088613	0.519992
C60	C	1.863587	-0.088912	0.447009
C61	C	1.962718	-0.129970	0.679535
C62	C	1.978787	-0.129675	0.752517
C63	C	2.029433	-0.091046	0.785166
C64	C	2.064031	-0.052721	0.744826
C65	C	2.047969	-0.053021	0.671843
C66	C	1.997303	-0.091647	0.639200
C67	C	2.147084	-0.094068	0.904364
C68	C	2.163138	-0.093757	0.977348
C69	C	1.978728	-0.086758	0.970197
C70	C	1.962672	-0.087062	0.897214
C71	C	2.046856	-0.090720	0.864302
C72	C	2.482288	-0.215600	0.213838
C73	C	2.532194	-0.293285	0.213580
C74	C	2.430678	-0.092897	0.336423
C75	C	2.447771	-0.092571	0.414097
C76	C	2.606445	-0.089787	0.087939
C77	C	2.578970	-0.090109	0.010264
C78	C	2.647870	-0.333342	0.216965
C79	C	2.694779	-0.406338	0.216733
C80	C	2.626009	-0.439274	0.213111
C81	C	2.510323	-0.399212	0.209728
C82	C	2.463417	-0.326219	0.209965
C83	C	2.548003	-0.095914	0.454150
C84	C	2.564071	-0.095598	0.527132
C85	C	2.479910	-0.091945	0.560061
C86	C	2.379669	-0.088599	0.520003
C87	C	2.363598	-0.088910	0.447021
C88	C	2.480897	-0.093755	-0.022647
C89	C	2.455061	-0.094049	-0.095632
C90	C	2.527303	-0.090703	-0.135703
C91	C	2.625383	-0.087055	-0.102788
C92	C	2.651213	-0.086756	-0.029806
H93	H	2.143747	0.123849	0.204456
F94	F	1.756905	-0.085344	0.404371
F95	F	2.670765	-0.099164	0.569754
H96	H	2.454341	-0.426041	0.206779
H97	H	2.191902	0.706412	0.207194
F98	F	2.055223	0.266274	0.204043
F99	F	1.821014	0.334275	0.211519
H100	H	2.493010	-0.091693	0.619488
H101	H	2.311150	-0.085625	0.546824
F102	F	2.256919	-0.085359	0.404402
F103	F	2.721083	-0.298302	0.220824
F104	F	2.672102	0.115629	0.203558
F105	F	2.675947	-0.516962	0.212859
H106	H	1.881059	-0.084338	0.864596
F107	F	2.137597	-0.099816	0.419136
H108	H	2.422060	-0.096479	0.009971
H109	H	1.732075	0.243354	0.217594
H110	H	2.369223	-0.293609	0.207205
H111	H	2.616545	-0.098891	0.427350
F112	F	1.854641	0.701685	0.220820
H113	H	2.334832	0.110900	0.217166
H114	H	1.834815	0.110923	0.217166
F115	F	2.817901	-0.448961	0.220331
H116	H	2.375195	-0.097020	-0.122420
H117	H	2.541052	0.256251	0.205088
H118	H	2.129559	0.457894	0.292043
F119	F	2.170743	-0.099186	0.569786
H120	H	2.506264	-0.090957	-0.195129
F121	F	2.702264	-0.083500	-0.145445
H122	H	2.731078	-0.083791	-0.003015
F123	F	2.415648	0.352621	0.121340
H124	H	2.294592	0.574021	0.206584
F125	F	2.298820	0.503263	0.122052
H126	H	1.985685	0.561064	0.219279
H127	H	1.910194	-0.083783	0.997000
F128	F	2.227956	0.314045	0.302347
H129	H	2.232155	0.243297	0.217789
F130	F	2.084789	-0.012234	0.628912
H131	H	2.215630	-0.097044	0.877566
F132	F	2.117941	-0.011609	0.779567
F133	F	1.941973	-0.170468	0.795445
F134	F	2.269821	-0.097326	1.019984
H135	H	1.811121	-0.085642	0.546800
F136	F	1.908797	-0.171079	0.644793
