data_functionalizedCrystal
_audit_creation_method	'MofGen! by Chris Wilmer'
_symmetry_space_group_name_H-M	'P1'
_symmetry_Int_Tables_number	1
_symmetry_cell_setting	triclinic
loop_
_symmetry_equiv_pos_as_xyz
  x,y,z
_cell_length_a	19.077068
_cell_length_b	19.805407
_cell_length_c	19.805399
_cell_angle_alpha	89.978936
_cell_angle_beta	87.730571
_cell_angle_gamma	87.673869
loop_
_atom_site_label
_atom_site_type_symbol
_atom_site_fract_x
_atom_site_fract_y
_atom_site_fract_z
Zn1	Zn	-0.280237	-1.023903	0.393561
Zn2	Zn	0.219763	-0.523903	0.893561
Zn3	Zn	-0.397936	-1.019269	0.284915
Zn4	Zn	0.102064	-0.519269	0.784915
Zn5	Zn	-0.280254	-0.910717	0.280384
Zn6	Zn	0.219746	-0.410717	0.780384
Zn7	Zn	-0.397896	-0.906133	0.398057
Zn8	Zn	0.102104	-0.406133	0.898057
O9	O	-0.339081	-0.965006	0.339229
O10	O	0.160919	-0.465006	0.839229
O11	O	-0.295859	-1.118005	0.379164
O12	O	0.204141	-0.618005	0.879164
O13	O	-0.382349	-1.004848	0.189598
O14	O	0.117651	-0.504848	0.689598
O15	O	-0.181761	-0.929590	0.291619
O16	O	0.318239	-0.429590	0.791619
O17	O	-0.382332	-1.114600	0.299342
O18	O	0.117668	-0.614600	0.799342
O19	O	-0.181748	-1.012747	0.374770
O20	O	0.318252	-0.512747	0.874770
O21	O	-0.295889	-0.925096	0.186269
O22	O	0.204111	-0.425096	0.686269
O23	O	-0.295850	-0.815393	0.295978
O24	O	0.204150	-0.315393	0.795978
O25	O	-0.382265	-0.921777	0.492177
O26	O	0.117735	-0.421777	0.992177
O27	O	-0.382282	-0.812025	0.382433
O28	O	0.117718	-0.312025	0.882433
O29	O	-0.295821	-1.008302	0.488873
O30	O	0.204179	-0.508302	0.988873
O31	O	-0.496422	-1.000403	0.303702
O32	O	0.003578	-0.500403	0.803702
O33	O	-0.496393	-0.917283	0.386827
O34	O	0.003607	-0.417283	0.886827
C35	C	-0.339064	-0.789150	0.339202
C36	C	0.160936	-0.289150	0.839202
C37	C	-0.339074	-0.713918	0.339207
C38	C	0.160926	-0.213918	0.839207
C39	C	-0.384146	-0.676835	0.384156
C40	C	0.115854	-0.176835	0.884156
C41	C	-0.384146	-0.606147	0.384163
C42	C	0.115854	-0.106147	0.884163
C43	C	-0.339077	-0.572542	0.339219
C44	C	0.160923	-0.072542	0.839219
C45	C	-0.294000	-0.609630	0.294268
C46	C	0.206000	-0.109630	0.794268
C47	C	-0.293997	-0.680317	0.294265
C48	C	0.206003	-0.180317	0.794265
C49	C	-0.294010	-0.324556	0.294284
C50	C	0.205990	0.175444	0.794284
C51	C	-0.294018	-0.253864	0.294290
C52	C	0.205982	0.246136	0.794290
C53	C	-0.384159	-0.250386	0.384183
C54	C	0.115841	0.249614	0.884183
C55	C	-0.384156	-0.321073	0.384179
C56	C	0.115844	0.178927	0.884179
C57	C	-0.339077	-0.358155	0.339231
C58	C	0.160923	0.141845	0.839231
C59	C	-0.339077	-0.434803	0.339224
C60	C	0.160923	0.065197	0.839224
C61	C	-0.339080	-0.495895	0.339222
C62	C	0.160920	0.004105	0.839222
C63	C	-0.521945	-0.957861	0.346259
C64	C	-0.021945	-0.457861	0.846259
C65	C	-0.600175	-0.954866	0.349289
C66	C	-0.100175	-0.454866	0.849289
C67	C	-0.636919	-0.996769	0.307469
C68	C	-0.136919	-0.496769	0.807469
C69	C	-0.710425	-0.993957	0.310323
C70	C	-0.210425	-0.493957	0.810323
C71	C	-0.747184	-0.949237	0.354993
C72	C	-0.247184	-0.449237	0.854993
C73	C	-0.710435	-0.907333	0.396817
C74	C	-0.210435	-0.407333	0.896817
C75	C	-0.636931	-0.910149	0.393966
C76	C	-0.136931	-0.410149	0.893966
C77	C	-0.967019	-0.936173	0.368160
C78	C	-0.467019	-0.436173	0.868160
C79	C	-1.040528	-0.933358	0.371006
C80	C	-0.540528	-0.433358	0.871006
C81	C	-1.040513	-1.019983	0.284512
C82	C	-0.540513	-0.519983	0.784512
C83	C	-0.967008	-1.022793	0.281662
C84	C	-0.467008	-0.522793	0.781662
C85	C	-0.930264	-0.980891	0.323489
C86	C	-0.430264	-0.480891	0.823489
N87	N	-0.822319	-0.946360	0.357910
N88	N	-0.322319	-0.446360	0.857910
N89	N	-0.855131	-0.983772	0.320575
N90	N	-0.355131	-0.483772	0.820575
C91	C	-0.155503	-0.972197	0.332187
C92	C	0.344497	-0.472197	0.832187
C93	C	-0.077273	-0.975261	0.329186
C94	C	0.422727	-0.475261	0.829186
C95	C	-0.339037	-0.965045	0.515770
C96	C	0.160963	-0.465045	1.015770
C97	C	-0.339018	-0.965062	0.591002
C98	C	0.160982	-0.465062	1.091002
C99	C	-0.339094	-0.141548	0.339250
C100	C	0.160906	0.358452	0.839250
C101	C	-0.339087	-0.216780	0.339242
C102	C	0.160913	0.283220	0.839242
C103	C	-0.339074	-0.965007	0.163373
C104	C	0.160926	-0.465007	0.663373
C105	C	-0.338895	-0.965129	0.088135
C106	C	0.161105	-0.465129	0.588135
C107	C	-0.294004	-1.010117	0.624627
C108	C	0.205996	-0.510117	1.124627
C109	C	-0.293984	-1.010125	0.695315
C110	C	0.206016	-0.510125	1.195315
C111	C	-0.338981	-0.965080	0.732376
C112	C	0.161019	-0.465080	1.232376
C113	C	-0.383996	-0.920021	0.698746
C114	C	0.116004	-0.420021	1.198746
C115	C	-0.384013	-0.920010	0.628059
C116	C	0.115987	-0.420010	1.128059
C117	C	-0.383931	-0.920062	0.983817
C118	C	0.116069	-0.420062	1.483817
C119	C	-0.383913	-0.920077	1.054508
C120	C	0.116087	-0.420077	1.554508
C121	C	-0.293902	-1.010176	1.051072
C122	C	0.206098	-0.510176	1.551072
C123	C	-0.293918	-1.010165	0.980385
C124	C	0.206082	-0.510165	1.480385
C125	C	-0.338931	-0.965104	0.946762
C126	C	0.161069	-0.465104	1.446762
C127	C	-0.338951	-0.965095	0.870114
C128	C	0.161049	-0.465095	1.370114
C129	C	-0.338964	-0.965092	0.809022
C130	C	0.161036	-0.465092	1.309022
H131	H	-0.257301	-0.582264	0.257677
H132	H	0.242699	-0.082264	0.757677
H133	H	-0.257364	-1.046799	0.594456
H134	H	0.242636	-0.546799	1.094456
H135	H	-0.257291	-0.710509	0.257666
H136	H	0.242709	-0.210509	0.757666
H137	H	-1.070456	-0.896950	0.407393
H138	H	-0.570456	-0.396950	0.907393
H139	H	-0.420593	-0.883379	0.956449
H140	H	0.079407	-0.383379	1.456449
H141	H	-0.257313	-0.226505	0.257690
H142	H	0.242687	0.273495	0.757690
Br143	Br	-0.445061	-0.858885	0.749043
Br144	Br	0.054939	-0.358885	1.249043
H145	H	-0.607014	-0.876028	0.428021
H146	H	-0.107014	-0.376028	0.928021
Br147	Br	-0.445319	-0.722434	0.445151
Br148	Br	0.054681	-0.222434	0.945151
H149	H	-1.070437	-1.054098	0.250460
H150	H	-0.570437	-0.554098	0.750460
Br151	Br	-0.917124	-1.083494	0.221045
Br152	Br	-0.417124	-0.583494	0.721045
Br153	Br	-0.232828	-0.374873	0.233287
Br154	Br	0.267172	0.125127	0.733287
Br155	Br	-0.445341	-0.200057	0.445183
Br156	Br	0.054659	0.299943	0.945183
H157	H	-0.420848	-0.575957	0.420764
H158	H	0.079152	-0.075957	0.920764
H159	H	-0.606994	-1.033181	0.271091
H160	H	-0.106994	-0.533181	0.771091
Br161	Br	-0.917162	-0.879306	0.424925
Br162	Br	-0.417162	-0.379306	0.924925
Br163	Br	-0.760290	-1.050832	0.253569
Br164	Br	-0.260290	-0.550832	0.753569
H165	H	-0.740371	-0.870924	0.433192
H166	H	-0.240371	-0.370924	0.933192
H167	H	-0.420660	-0.883316	0.600683
H168	H	0.079340	-0.383316	1.100683
Br169	Br	-0.232924	-1.071303	0.740948
Br170	Br	0.267076	-0.571303	1.240948
H171	H	-0.257279	-1.046847	0.950213
H172	H	0.242721	-0.546847	1.450213
H173	H	-0.257248	-1.046865	1.078457
H174	H	0.242752	-0.546865	1.578457
H175	H	-0.420858	-0.348430	0.420775
H176	H	0.079142	0.151570	0.920775
Br177	Br	-0.444986	-0.858942	1.104806
Br178	Br	0.055014	-0.358942	1.604806
