data_functionalizedCrystal
_audit_creation_method	'MofGen! by Chris Wilmer'
_symmetry_space_group_name_H-M	'P1'
_symmetry_Int_Tables_number	1
_symmetry_cell_setting	triclinic
loop_
_symmetry_equiv_pos_as_xyz
  x,y,z
_cell_length_a	13.635800
_cell_length_b	27.923497
_cell_length_c	17.982968
_cell_angle_alpha	83.135867
_cell_angle_beta	102.451960
_cell_angle_gamma	81.035752
loop_
_atom_site_label
_atom_site_type_symbol
_atom_site_fract_x
_atom_site_fract_y
_atom_site_fract_z
V1	V	1.996407	-0.067583	0.238054
O2	O	2.001869	0.002780	0.233006
O3	O	1.961335	-0.133556	0.236922
O4	O	1.969798	-0.066749	0.341651
O5	O	1.993347	-0.064490	0.127552
V6	V	2.239942	-0.059142	0.224777
O7	O	2.123146	-0.086098	0.267178
O8	O	2.338302	-0.040628	0.195652
O9	O	2.163411	0.006830	0.225908
O10	O	2.293178	-0.129505	0.229825
O11	O	2.301701	-0.062236	0.335278
O12	O	2.154948	-0.059977	0.121180
V13	V	2.496407	-0.067583	0.238054
O14	O	2.501869	0.002780	0.233006
O15	O	2.461335	-0.133556	0.236922
O16	O	2.469798	-0.066749	0.341651
O17	O	2.493347	-0.064490	0.127552
V18	V	2.739942	-0.059142	0.224777
O19	O	2.623146	-0.086098	0.267178
O20	O	2.838302	-0.040628	0.195652
O21	O	2.663411	0.006830	0.225908
O22	O	2.793178	-0.129505	0.229825
O23	O	2.801701	-0.062236	0.335278
O24	O	2.654948	-0.059977	0.121180
C25	C	1.881268	-0.149632	0.233295
C26	C	1.893220	-0.203567	0.233061
C27	C	1.950169	-0.530953	0.161700
C28	C	1.995121	-0.733659	0.160777
O29	O	1.986311	-0.753865	0.101278
N30	N	2.017984	-0.766066	0.230487
C31	C	2.029615	-0.747795	0.300432
O32	O	2.050102	-0.780010	0.359704
C33	C	1.984669	-0.545090	0.301354
C34	C	1.961796	-0.512685	0.231640
C35	C	1.927298	-0.498548	0.091991
C36	C	1.916056	-0.447875	0.092222
C37	C	1.927683	-0.429606	0.162162
C38	C	1.950554	-0.462011	0.231871
C39	C	1.996307	-0.526820	0.371299
C40	C	1.985071	-0.476140	0.371524
C41	C	1.962198	-0.443734	0.301809
C42	C	1.950938	-0.393069	0.302042
N43	N	1.928076	-0.360662	0.232333
C44	C	1.916449	-0.378930	0.162393
C45	C	2.053209	-0.854217	0.299943
C46	C	2.064443	-0.904893	0.299713
C47	C	2.029951	-0.890753	0.160057
C48	C	2.018709	-0.840077	0.160288
C49	C	2.030346	-0.821810	0.230233
C50	C	1.892838	-0.272513	0.162883
C51	C	1.881592	-0.221836	0.163121
C52	C	1.916090	-0.235979	0.302775
C53	C	1.927331	-0.286652	0.302539
C54	C	1.915706	-0.304917	0.232586
O55	O	1.959745	-0.372829	0.361510
O56	O	1.895984	-0.346707	0.103131
C57	C	1.961412	-0.581627	0.161469
C58	C	1.984282	-0.614032	0.231178
C59	C	1.995909	-0.595763	0.301118
C60	C	1.995516	-0.664707	0.230947
C61	C	1.983889	-0.682976	0.161007
C62	C	1.961027	-0.650569	0.091298
C63	C	1.949784	-0.599895	0.091529
C64	C	2.018772	-0.628170	0.370827
C65	C	2.030012	-0.678843	0.370590
C66	C	2.018384	-0.697112	0.300650
C67	C	1.892064	-0.064412	0.366885
C68	C	1.910878	-0.064167	0.451580
C69	C	2.075148	0.022904	0.229533
C70	C	2.052816	0.076839	0.229773
C71	C	2.064353	-0.062315	0.095941
C72	C	2.035158	-0.062558	0.011246
C73	C	2.381268	-0.149632	0.233295
C74	C	2.393220	-0.203567	0.233061
C75	C	2.392064	-0.064412	0.366885
C76	C	2.410878	-0.064167	0.451580
C77	C	2.010276	-0.066482	0.495269
C78	C	2.027948	-0.066251	0.574848
C79	C	1.946221	-0.063708	0.610737
C80	C	1.846814	-0.061390	0.567042
C81	C	1.829143	-0.061618	0.487463
C82	C	1.918079	-0.060471	0.887972
C83	C	1.935760	-0.060245	0.967556
C84	C	2.116885	-0.065105	0.975356
C85	C	2.099213	-0.065333	0.895778
C86	C	1.999808	-0.063012	0.852089
C87	C	1.980647	-0.063262	0.765800
C88	C	1.965382	-0.063462	0.697025
C89	C	2.575148	0.022904	0.229533
C90	C	2.552816	0.076839	0.229773
C91	C	2.564353	-0.062315	0.095941
C92	C	2.535158	-0.062558	0.011246
C93	C	2.489396	-0.231377	0.236776
C94	C	2.500643	-0.282056	0.236567
C95	C	2.415710	-0.304924	0.232638
C96	C	2.319527	-0.277111	0.228925
C97	C	2.308283	-0.226433	0.229139
C98	C	2.510282	-0.066478	0.495255
C99	C	2.527972	-0.066240	0.574833
C100	C	2.446258	-0.063696	0.610735
C101	C	2.346845	-0.061383	0.567054
C102	C	2.329155	-0.061617	0.487477
C103	C	2.629133	0.104648	0.226060
C104	C	2.608158	0.155327	0.226272
C105	C	2.510867	0.178195	0.230203
C106	C	2.434544	0.150382	0.233914
C107	C	2.455517	0.099705	0.233696
C108	C	2.434643	-0.065097	-0.024637
C109	C	2.407195	-0.065320	-0.104218
C110	C	2.480266	-0.063007	-0.147914
C111	C	2.580789	-0.060466	-0.112026
C112	C	2.608234	-0.060240	-0.032447
H113	H	1.883371	-0.287378	0.105922
H114	H	2.229962	-0.203794	0.226110
H115	H	2.670317	0.177965	0.223251
C116	C	2.097414	-0.913766	0.437777
C117	C	2.089577	-0.940509	0.376345
H118	H	2.112941	-0.935754	0.485087
H119	H	2.034386	-0.892126	0.432517
H120	H	2.150244	-0.895286	0.437394
H121	H	2.036741	-0.958986	0.376724
H122	H	2.152613	-0.962158	0.381606
C123	C	2.563615	-0.068992	0.376728
C124	C	2.600114	-0.069273	0.455801
H125	H	2.619079	-0.070718	0.352376
H126	H	2.515507	-0.039598	0.354913
H127	H	2.531519	-0.096474	0.369268
H128	H	2.632203	-0.041788	0.463260
H129	H	2.648239	-0.098670	0.477622
H130	H	2.280319	-0.059311	0.596298
H131	H	2.424880	-0.346189	0.232464
H132	H	2.355329	0.169009	0.237114
H133	H	2.640276	-0.058581	-0.147615
C134	C	2.664741	-0.110723	0.679415
C135	C	2.637251	-0.068789	0.622840
H136	H	2.732202	-0.112294	0.709053
H137	H	2.662068	-0.139145	0.655384
H138	H	2.618603	-0.109163	0.712183
H139	H	2.683384	-0.070350	0.590069
H140	H	2.639932	-0.040359	0.646872
C141	C	2.264942	-0.027264	0.995928
C142	C	2.226160	-0.067654	1.023376
H143	H	2.332405	-0.028843	1.025569
H144	H	2.222640	0.002206	1.000206
H145	H	2.266098	-0.027769	0.943396
H146	H	2.224997	-0.067148	1.075906
H147	H	2.268473	-0.097132	1.019105
C148	C	2.798618	0.114640	0.218509
C149	C	2.736079	0.079520	0.221730
H150	H	2.864640	0.099130	0.215827
H151	H	2.804086	0.129783	0.263421
H152	H	2.769547	0.138822	0.174084
H153	H	2.765146	0.055340	0.266159
H154	H	2.730614	0.064369	0.176813
H155	H	2.460676	-0.063506	0.675533
C156	C	2.642197	-0.295205	0.177143
C157	C	2.606371	-0.312619	0.240636
H158	H	2.707466	-0.314074	0.179653
H159	H	2.647643	-0.261753	0.177836
H160	H	2.595785	-0.297985	0.130879
H161	H	2.652779	-0.309836	0.286900
H162	H	2.600931	-0.346078	0.239950
C163	C	2.565587	-0.170604	0.175607
C164	C	2.582765	-0.206247	0.241097
H165	H	2.623237	-0.155095	0.178277
H166	H	2.506712	-0.146787	0.173428
H167	H	2.555180	-0.185760	0.130700
H168	H	2.593165	-0.191090	0.286004
H169	H	2.641657	-0.230068	0.243283
H170	H	2.248209	-0.059736	0.451922
H171	H	2.493803	0.219460	0.230379
H172	H	2.393368	0.077065	0.236726
H173	H	1.931160	-0.573514	0.034760
C174	C	2.271801	-0.111474	-0.111433
C175	C	2.296697	-0.068129	-0.143630
H176	H	2.203586	-0.113212	-0.135760
H177	H	2.277723	-0.111664	-0.057790
H178	H	2.317200	-0.138942	-0.118927
H179	H	2.251302	-0.040661	-0.136131
H180	H	2.290765	-0.067935	-0.197285
H181	H	1.748200	-0.059720	0.451889
C182	C	2.346431	-0.065983	-0.257645
C183	C	2.450090	-0.063262	-0.235386
H184	H	2.327803	-0.066145	-0.311646
H185	H	2.306373	-0.038389	-0.245377
H186	H	2.334822	-0.095266	-0.231017
H187	H	2.461698	-0.033977	-0.262011
H188	H	2.490160	-0.090858	-0.247663
H189	H	2.076831	-0.068557	0.466055
H190	H	2.375131	-0.066981	0.010930
C191	C	2.210866	-0.324577	0.158387
C192	C	2.226172	-0.302251	0.224596
H193	H	2.153229	-0.340096	0.155710
H194	H	2.269758	-0.348387	0.160577
H195	H	2.199215	-0.300387	0.113969
H196	H	2.237831	-0.326442	0.269015
H197	H	2.167266	-0.278439	0.222412
C198	C	1.848638	-0.212958	0.025051
C199	C	1.856459	-0.186216	0.086485
H200	H	1.833130	-0.190968	-0.022257
H201	H	1.795811	-0.231434	0.025421
H202	H	1.911676	-0.234601	0.030321
H203	H	1.793417	-0.164575	0.081218
H204	H	1.909289	-0.167731	0.086115
C205	C	1.883100	-0.439005	-0.045839
C206	C	1.890923	-0.412259	0.015589
H207	H	1.867591	-0.417019	-0.093150
H208	H	1.830273	-0.457481	-0.045464
H209	H	1.946138	-0.460649	-0.040567
H210	H	1.827882	-0.390618	0.010321
H211	H	1.943753	-0.393775	0.015214
H212	H	2.690086	-0.058175	-0.003237
C213	C	1.914182	-0.164569	0.365124
C214	C	1.928874	-0.215892	0.379651
H215	H	1.922086	-0.152168	0.412585
H216	H	1.847326	-0.151783	0.334036
H217	H	1.963185	-0.154949	0.338908
H218	H	1.879866	-0.225511	0.405862
H219	H	1.995739	-0.228682	0.410752
H220	H	1.917831	-0.513416	0.035035
H221	H	2.000084	-0.813695	0.103521
H222	H	2.062684	-0.839350	0.356904
C223	C	2.031903	-0.962164	0.097708
C224	C	2.017198	-0.910841	0.083178
H225	H	2.024047	-0.974567	0.050249
H226	H	1.982887	-0.971787	0.123896
H227	H	2.098757	-0.974946	0.128824
H228	H	1.950341	-0.898060	0.052067
H229	H	2.066216	-0.901214	0.056978
H230	H	2.014932	-0.553196	0.428069
C231	C	1.804996	-0.099918	0.804655
C232	C	1.808810	-0.057987	0.840016
H233	H	1.737533	-0.098399	0.775062
H234	H	1.823775	-0.128347	0.843064
H235	H	1.851085	-0.101438	0.771847
H236	H	1.762727	-0.056468	0.872828
H237	H	1.790019	-0.029549	0.801602
C238	C	1.838774	-0.015246	1.041961
C239	C	1.845919	-0.057445	1.007009
H240	H	1.783318	-0.013520	1.066321
H241	H	1.827643	0.012997	1.003909
H242	H	1.900512	-0.016602	1.079366
H243	H	1.784183	-0.056087	0.969599
H244	H	1.857043	-0.085695	1.045065
C245	C	2.020304	-0.495210	0.509546
C246	C	1.997858	-0.456062	0.448412
H247	H	2.028190	-0.482814	0.557011
H248	H	2.081897	-0.516261	0.508992
H249	H	1.966036	-0.513101	0.504100
H250	H	2.052131	-0.438173	0.453854
H251	H	1.936258	-0.435003	0.448967
H252	H	2.108886	-0.068134	0.610415
H253	H	1.951555	-0.665451	0.034350
C254	C	2.045381	-0.354175	0.386896
C255	C	1.952464	-0.322278	0.379165
H256	H	2.060899	-0.376169	0.434201
H257	H	2.098194	-0.335690	0.386531
H258	H	2.040057	-0.372305	0.345204
H259	H	1.957791	-0.304146	0.420855
H260	H	1.899639	-0.340766	0.379537
C261	C	2.062993	-0.687717	0.508660
C262	C	2.055158	-0.714461	0.447228
H263	H	2.078530	-0.709706	0.555971
H264	H	1.999962	-0.666081	0.503404
H265	H	2.115817	-0.669234	0.508274
H266	H	2.002329	-0.732941	0.447611
H267	H	2.118198	-0.736105	0.452486
H268	H	2.165766	-0.067406	0.866562
C269	C	2.111549	-0.581725	0.455727
C270	C	2.031558	-0.608097	0.447714
H271	H	2.119444	-0.569339	0.503200
H272	H	2.096316	-0.555170	0.414257
H273	H	2.173140	-0.602786	0.455170
H274	H	1.969965	-0.587036	0.448264
H275	H	2.046785	-0.634656	0.489195
H276	H	1.780271	-0.059316	0.596268
