data_functionalizedCrystal
_audit_creation_method	'MofGen! by Chris Wilmer'
_symmetry_space_group_name_H-M	'P1'
_symmetry_Int_Tables_number	1
_symmetry_cell_setting	triclinic
loop_
_symmetry_equiv_pos_as_xyz
  x,y,z
_cell_length_a	12.594517
_cell_length_b	18.050589
_cell_length_c	12.594510
_cell_angle_alpha	89.966182
_cell_angle_beta	89.978880
_cell_angle_gamma	90.028021
loop_
_atom_site_label
_atom_site_type_symbol
_atom_site_fract_x
_atom_site_fract_y
_atom_site_fract_z
Zn1	Zn	1.627175	-0.295596	-0.601864
Zn2	Zn	2.127175	0.204404	-0.101864
Zn3	Zn	1.627029	-0.419813	-0.423887
Zn4	Zn	2.127029	0.080187	0.076113
Zn5	Zn	1.449179	-0.295641	-0.423893
Zn6	Zn	1.949179	0.204359	0.076107
Zn7	Zn	1.449123	-0.419748	-0.601817
Zn8	Zn	1.949123	0.080252	-0.101817
O9	O	1.538126	-0.357700	-0.512865
O10	O	2.038126	0.142300	-0.012865
O11	O	1.776101	-0.312082	-0.578272
O12	O	2.276101	0.187918	-0.078272
O13	O	1.603399	-0.403388	-0.274942
O14	O	2.103399	0.096612	0.225058
O15	O	1.472876	-0.191711	-0.447523
O16	O	1.972876	0.308289	0.052477
O17	O	1.775994	-0.403344	-0.447513
O18	O	2.275994	0.096656	0.052487
O19	O	1.603648	-0.191678	-0.578278
O20	O	2.103648	0.308322	-0.078278
O21	O	1.472734	-0.312159	-0.274946
O22	O	1.972734	0.187841	0.225054
O23	O	1.300226	-0.312096	-0.447478
O24	O	1.800226	0.187904	0.052522
O25	O	1.472780	-0.403233	-0.750769
O26	O	1.972780	0.096767	-0.250769
O27	O	1.300185	-0.403277	-0.578198
O28	O	1.800185	0.096723	-0.078198
O29	O	1.603594	-0.312019	-0.750804
O30	O	2.103594	0.187981	-0.250804
O31	O	1.603344	-0.523729	-0.447468
O32	O	2.103344	-0.023729	0.052532
O33	O	1.472638	-0.523682	-0.578192
O34	O	1.972638	-0.023682	-0.078192
C35	C	1.261585	-0.357685	-0.512834
C36	C	1.761585	0.142315	-0.012834
C37	C	1.143280	-0.357696	-0.512846
C38	C	1.643280	0.142304	-0.012846
C39	C	1.074018	-0.308035	-0.441883
C40	C	1.574018	0.191965	0.058117
C41	C	1.003187	-0.375779	-0.415704
C42	C	1.503187	0.124221	0.084296
C43	C	1.003313	-0.289985	-0.539043
C44	C	1.503313	0.210015	-0.039043
C45	C	1.074007	-0.425476	-0.486616
C46	C	1.574007	0.074524	0.013384
C47	C	1.074139	-0.339636	-0.610001
C48	C	1.574139	0.160364	-0.110001
C49	C	1.003339	-0.407427	-0.583858
C50	C	1.503339	0.092573	-0.083858
C51	C	1.537998	-0.550652	-0.512848
C52	C	2.037998	-0.050652	-0.012848
C53	C	1.538040	-0.633198	-0.512876
C54	C	2.038040	-0.133198	-0.012876
C55	C	1.467032	-0.832649	-0.583939
C56	C	1.967032	-0.332649	-0.083939
C57	C	1.441084	-0.882102	-0.486814
C58	C	1.941084	-0.382102	0.013186
C59	C	1.538145	-0.784328	-0.512890
C60	C	2.038145	-0.284328	-0.012890
C61	C	1.564145	-0.881957	-0.610026
C62	C	2.064145	-0.381957	-0.110026
C63	C	1.538244	-0.930313	-0.512911
C64	C	2.038244	-0.430313	-0.012911
C65	C	1.512146	-0.832693	-0.415713
C66	C	2.012146	-0.332693	0.084287
C67	C	1.635252	-0.832544	-0.538991
C68	C	2.135252	-0.332544	-0.038991
C69	C	1.609341	-0.881974	-0.441799
C70	C	2.109341	-0.381974	0.058201
C71	C	1.538085	-0.700230	-0.512878
C72	C	2.038085	-0.200230	-0.012878
C73	C	1.538304	-1.014410	-0.512912
C74	C	2.038304	-0.514410	-0.012912
C75	C	1.815747	-0.357715	-0.512897
C76	C	2.315747	0.142285	-0.012897
C77	C	1.934053	-0.357722	-0.512911
C78	C	2.434053	0.142278	-0.012911
C79	C	1.538197	-0.357614	-0.790486
C80	C	2.038197	0.142386	-0.290486
C81	C	1.538227	-0.357577	-0.908792
C82	C	2.038227	0.142423	-0.408792
C83	C	1.538284	-0.163994	-0.512906
C84	C	2.038284	0.336006	-0.012906
C85	C	1.538352	-0.081448	-0.512924
C86	C	2.038352	0.418552	-0.012924
C87	C	1.609398	-0.307963	-0.978064
C88	C	2.109398	0.192037	-0.478064
C89	C	1.512327	-0.289784	-1.048854
C90	C	2.012327	0.210216	-0.548854
C91	C	1.635354	-0.375704	-1.048800
C92	C	2.135354	0.124296	-0.548800
C93	C	1.441104	-0.339364	-0.978024
C94	C	1.941104	0.160636	-0.478024
C95	C	1.564197	-0.425315	-0.977964
C96	C	2.064197	0.074685	-0.477964
C97	C	1.467059	-0.407163	-1.048723
C98	C	1.967059	0.092837	-0.548723
C99	C	1.538118	-0.357732	-0.236324
C100	C	2.038118	0.142268	0.263676
C101	C	1.538294	-0.357559	-0.118019
C102	C	2.038294	0.142441	0.381981
H103	H	0.972203	-0.232720	-0.561137
H104	H	1.472203	0.267280	-0.061137
Cl105	Cl	1.374074	-0.471922	-1.096346
Cl106	Cl	1.874074	0.028078	-0.596346
H107	H	1.406806	-0.810991	-0.643938
H108	H	1.906806	-0.310991	-0.143938
H109	H	1.586169	-0.482591	-0.946804
H110	H	2.086169	0.017409	-0.446804
H111	H	1.105052	-0.266080	-0.381797
H112	H	1.605052	0.233920	0.118203
Cl113	Cl	1.314290	-0.315589	-0.930233
Cl114	Cl	1.814290	0.184411	-0.430233
Cl115	Cl	1.121744	-0.513927	-0.452300
Cl116	Cl	1.621744	-0.013927	0.047700
Cl117	Cl	0.955069	-0.399389	-0.288898
Cl118	Cl	1.455069	0.100611	0.211102
H119	H	0.972500	-0.449483	-0.643897
H120	H	1.472500	0.050517	-0.143897
Cl121	Cl	1.122291	-0.315998	-0.736775
Cl122	Cl	1.622291	0.184002	-0.236775
Cl123	Cl	1.761940	-0.798910	-0.573116
Cl124	Cl	2.261940	-0.298910	-0.073116
H125	H	1.359010	-0.903886	-0.464757
H126	H	1.859010	-0.403886	0.035243
Cl127	Cl	1.478109	-0.799425	-0.288861
Cl128	Cl	1.978109	-0.299425	0.211139
H129	H	1.669521	-0.903496	-0.381655
H130	H	2.169521	-0.403496	0.118345
Cl131	Cl	1.762126	-0.399389	-1.096799
Cl132	Cl	2.262126	0.100611	-0.596799
Cl133	Cl	1.598036	-0.915372	-0.736838
Cl134	Cl	2.098036	-0.415372	-0.236838
H135	H	1.669478	-0.265980	-0.947035
H136	H	2.169478	0.234020	-0.447035
H137	H	1.490384	-0.232492	-1.079994
H138	H	1.990384	0.267508	-0.579994
