data_functionalizedCrystal
_audit_creation_method	'MofGen! by Chris Wilmer'
_symmetry_space_group_name_H-M	'P1'
_symmetry_Int_Tables_number	1
_symmetry_cell_setting	triclinic
loop_
_symmetry_equiv_pos_as_xyz
  x,y,z
_cell_length_a	12.645331
_cell_length_b	19.805405
_cell_length_c	19.805399
_cell_angle_alpha	90.029301
_cell_angle_beta	89.981181
_cell_angle_gamma	89.974611
loop_
_atom_site_label
_atom_site_type_symbol
_atom_site_fract_x
_atom_site_fract_y
_atom_site_fract_z
Zn1	Zn	1.620627	0.269497	-0.382698
Zn2	Zn	2.120627	0.769497	0.117302
Zn3	Zn	1.620493	0.382686	-0.269506
Zn4	Zn	2.120493	0.882686	0.230494
Zn5	Zn	1.443353	0.269514	-0.269524
Zn6	Zn	1.943353	0.769514	0.230476
Zn7	Zn	1.443296	0.382648	-0.382655
Zn8	Zn	1.943296	0.882648	0.117345
O9	O	1.531942	0.326086	-0.326096
O10	O	2.031942	0.826086	0.173904
O11	O	1.768956	0.284521	-0.367694
O12	O	2.268956	0.784521	0.132306
O13	O	1.596963	0.367696	-0.174792
O14	O	2.096963	0.867696	0.325208
O15	O	1.466949	0.174795	-0.284562
O16	O	1.966949	0.674795	0.215438
O17	O	1.768858	0.367680	-0.284532
O18	O	2.268858	0.867680	0.215468
O19	O	1.597191	0.174783	-0.367711
O20	O	2.097191	0.674783	0.132289
O21	O	1.466819	0.284549	-0.174805
O22	O	1.966819	0.784549	0.325195
O23	O	1.294998	0.284512	-0.284520
O24	O	1.794998	0.784512	0.215480
O25	O	1.466851	0.367615	-0.477377
O26	O	1.966851	0.867615	0.022623
O27	O	1.294956	0.367631	-0.367637
O28	O	1.794956	0.867631	0.132363
O29	O	1.597135	0.284484	-0.477409
O30	O	2.097135	0.784484	0.022591
O31	O	1.596908	0.477397	-0.284490
O32	O	2.096908	0.977397	0.215510
O33	O	1.466722	0.477369	-0.367620
O34	O	1.966722	0.977369	0.132380
C35	C	1.256513	0.326070	-0.326076
C36	C	1.756513	0.826070	0.173924
C37	C	1.138683	0.326079	-0.326084
C38	C	1.638683	0.826079	0.173916
C39	C	1.531823	0.501942	-0.326063
C40	C	2.031823	1.001942	0.173937
C41	C	1.531869	0.577174	-0.326072
C42	C	2.031869	1.077174	0.173928
C43	C	1.532002	0.326044	-0.502638
C44	C	2.032002	0.826044	-0.002638
C45	C	1.532027	0.326025	-0.577871
C46	C	2.032027	0.826025	-0.077871
C47	C	0.971110	0.273549	-0.274084
C48	C	1.471110	0.773549	0.225916
C49	C	1.093669	0.273685	-0.273855
C50	C	1.593669	0.773685	0.226145
C51	C	1.094147	0.397380	-0.306591
C52	C	1.594147	0.897380	0.193409
C53	C	0.971549	0.397093	-0.306236
C54	C	1.471549	0.897093	0.193764
C55	C	0.971530	0.307988	-0.397777
C56	C	1.471530	0.807988	0.102223
C57	C	1.094136	0.306395	-0.397379
C58	C	1.594136	0.806395	0.102621
C59	C	1.808447	0.326103	-0.326116
C60	C	2.308447	0.826103	0.173884
C61	C	1.926278	0.326110	-0.326124
C62	C	2.426278	0.826110	0.173876
C63	C	1.532091	0.149543	-0.326143
C64	C	2.032091	0.649543	0.173857
C65	C	1.532154	0.074311	-0.326164
C66	C	2.032154	0.574311	0.173836
C67	C	1.599723	0.612510	-0.282831
C68	C	2.099723	1.112510	0.217169
C69	C	1.599768	0.683199	-0.282846
C70	C	2.099768	1.183199	0.217154
C71	C	1.531953	0.718550	-0.326099
C72	C	2.031953	1.218550	0.173901
C73	C	1.464096	0.683209	-0.369344
C74	C	1.964096	1.183209	0.130656
C75	C	1.464057	0.612521	-0.369332
C76	C	1.964057	1.112521	0.130668
C77	C	1.464253	0.968282	-0.369394
C78	C	1.964253	1.468282	0.130606
C79	C	1.464294	1.038974	-0.369401
C80	C	1.964294	1.538974	0.130599
C81	C	1.599963	1.038959	-0.282909
C82	C	2.099963	1.538959	0.217091
C83	C	1.599924	0.968272	-0.282896
C84	C	2.099924	1.468272	0.217104
C85	C	1.532072	0.932937	-0.326144
C86	C	2.032072	1.432937	0.173856
C87	C	1.532025	0.856289	-0.326128
C88	C	2.032025	1.356289	0.173872
C89	C	1.531993	0.795197	-0.326111
C90	C	2.031993	1.295197	0.173889
C91	C	1.599867	0.282737	-0.613232
C92	C	2.099867	0.782737	-0.113232
C93	C	1.599878	0.282717	-0.683921
C94	C	2.099878	0.782717	-0.183921
C95	C	1.532053	0.325990	-0.719246
C96	C	2.032053	0.825990	-0.219246
C97	C	1.464205	0.369280	-0.683879
C98	C	1.964205	0.869280	-0.183879
C99	C	1.464190	0.369296	-0.613192
C100	C	1.964190	0.869296	-0.113192
C101	C	1.464265	0.369217	-0.968953
C102	C	1.964265	0.869217	-0.468953
C103	C	1.464288	0.369200	-1.039645
C104	C	1.964288	0.869200	-0.539645
C105	C	1.599954	0.282638	-1.039681
C106	C	2.099954	0.782638	-0.539681
C107	C	1.599938	0.282654	-0.968994
C108	C	2.099938	0.782654	-0.468994
C109	C	1.532087	0.325942	-0.933634
C110	C	2.032087	0.825942	-0.433634
C111	C	1.532074	0.325962	-0.856985
C112	C	2.032074	0.825962	-0.356985
C113	C	1.532070	0.325974	-0.795893
C114	C	2.032070	0.825974	-0.295893
C115	C	1.531944	0.326080	-0.150240
C116	C	2.031944	0.826080	0.349760
C117	C	1.532124	0.325907	-0.075008
C118	C	2.032124	0.825907	0.424992
H119	H	1.123781	0.220813	-0.286073
H120	H	1.623781	0.720813	0.213927
C121	C	1.135552	0.418497	-0.236581
C122	C	1.635552	0.918497	0.263419
N123	N	1.166735	0.434398	-0.183848
N124	N	1.666735	0.934398	0.316152
C125	C	1.389695	1.077859	-0.416988
C126	C	1.889695	1.577859	0.083012
N127	N	1.333509	1.107146	-0.452828
N128	N	1.833509	1.607146	0.047172
H129	H	1.408885	0.711997	-0.404563
H130	H	1.908885	1.211997	0.095437
C131	C	0.932850	0.417847	-0.235468
C132	C	1.432850	0.917847	0.264532
N133	N	0.903707	0.433475	-0.182163
N134	N	1.403707	0.933475	0.317837
H135	H	1.655216	1.067737	-0.247697
H136	H	2.155216	1.567737	0.252303
H137	H	1.654941	0.583732	-0.247607
H138	H	2.154941	1.083732	0.252393
C139	C	1.674510	0.235098	-0.722816
C140	C	2.174510	0.735098	-0.222816
N141	N	1.730726	0.199228	-0.752111
N142	N	2.230726	0.699228	-0.252111
H143	H	0.941891	0.437580	-0.342487
H144	H	1.441891	0.937580	0.157513
H145	H	1.123303	0.437588	-0.343305
H146	H	1.623303	0.937588	0.156695
C147	C	1.133231	0.289869	-0.202122
C148	C	1.633231	0.789869	0.297878
N149	N	1.163027	0.302062	-0.148091
N150	N	1.663027	0.802062	0.351909
C151	C	1.389562	0.416918	-0.574295
C152	C	1.889562	0.916918	-0.074295
N153	N	1.333348	0.452787	-0.544998
N154	N	1.833348	0.952787	-0.044998
H155	H	1.409052	0.404439	-1.068405
H156	H	1.909052	0.904439	-0.568405
C157	C	0.929814	0.238972	-0.421720
C158	C	1.429814	0.738972	0.078280
N159	N	0.898397	0.186984	-0.439746
N160	N	1.398397	0.686984	0.060254
H161	H	1.655172	0.247419	-0.940236
H162	H	2.155172	0.747419	-0.440236
H163	H	1.655020	0.711966	-0.247635
H164	H	2.155020	1.211966	0.252365
C165	C	1.674579	0.235012	-1.078584
C166	C	2.174579	0.735012	-0.578584
N167	N	1.730785	0.199141	-1.107885
N168	N	2.230785	0.699141	-0.607885
C169	C	0.932357	0.359704	-0.450161
C170	C	1.432357	0.859704	0.049839
N171	N	0.902845	0.398658	-0.489612
N172	N	1.402845	0.898658	0.010388
H173	H	1.123251	0.253926	-0.412077
H174	H	1.623251	0.753926	0.087923
C175	C	1.389667	0.929422	-0.417002
C176	C	1.889667	1.429422	0.082998
N177	N	1.333506	0.900151	-0.452875
N178	N	1.833506	1.400151	0.047125
H179	H	1.655141	0.939492	-0.247674
H180	H	2.155141	1.439492	0.252326
C181	C	1.389413	0.573652	-0.416900
C182	C	1.889413	1.073652	0.083100
N183	N	1.333192	0.544376	-0.452731
N184	N	1.833192	1.044376	0.047269
C185	C	1.389623	0.416833	-0.930065
C186	C	1.889623	0.916833	-0.430065
N187	N	1.333398	0.452698	-0.900773
N188	N	1.833398	0.952698	-0.400773
H189	H	1.408977	0.404511	-0.712647
H190	H	1.908977	0.904511	-0.212647
H191	H	1.655102	0.247501	-0.584476
H192	H	2.155102	0.747501	-0.084476
H193	H	1.124781	0.341886	-0.438228
H194	H	1.624781	0.841886	0.061772
H195	H	0.941657	0.220518	-0.286171
H196	H	1.441657	0.720518	0.213829
H197	H	0.940264	0.285393	-0.221299
H198	H	1.440264	0.785393	0.278701
