data_functionalizedCrystal
_audit_creation_method	'MofGen! by Chris Wilmer'
_symmetry_space_group_name_H-M	'P1'
_symmetry_Int_Tables_number	1
_symmetry_cell_setting	triclinic
loop_
_symmetry_equiv_pos_as_xyz
  x,y,z
_cell_length_a	15.995350
_cell_length_b	15.538191
_cell_length_c	14.472311
_cell_angle_alpha	89.993892
_cell_angle_beta	89.999517
_cell_angle_gamma	65.382234
loop_
_atom_site_label
_atom_site_type_symbol
_atom_site_fract_x
_atom_site_fract_y
_atom_site_fract_z
O1	O	-1.074080	-0.121429	0.076756
O2	O	-0.825747	-0.136424	0.076774
O3	O	-0.998254	0.008203	0.076766
O4	O	-0.901574	-0.266056	0.076764
O5	O	-0.998250	0.008221	-0.076916
O6	O	-0.825744	-0.136405	-0.076908
O7	O	-1.074076	-0.121411	-0.076926
Cu8	Cu	-0.949910	-0.128907	-0.090949
Cu9	Cu	-0.949914	-0.128928	0.090798
O10	O	-0.901570	-0.266038	-0.076918
C11	C	-0.794739	-0.135795	-0.000064
C12	C	-0.702354	-0.133936	-0.000057
C13	C	-1.008367	0.043308	-0.000073
C14	C	-1.038497	0.147881	-0.000066
C15	C	-1.105084	-0.122040	-0.000085
C16	C	-1.197470	-0.123899	-0.000086
C17	C	-0.366635	-0.127262	-0.000076
C18	C	-0.445373	-0.024262	-0.000418
C19	C	-0.541498	-0.026121	-0.000066
C20	C	-0.533189	-0.130573	-0.000067
C21	C	-0.476664	-0.181386	0.087689
C22	C	-0.380815	-0.178799	0.087756
C23	C	-0.379825	-0.180906	-0.087009
C24	C	-0.476778	-0.180882	-0.088163
C25	C	-0.627316	-0.132449	-0.000059
C26	C	-0.272506	-0.125389	-0.000078
C27	C	-0.891457	-0.301142	-0.000077
C28	C	-0.861327	-0.405716	-0.000078
N29	N	-0.949914	-0.128891	-0.218780
C30	C	-0.739163	0.435672	-0.000063
C31	C	-0.767496	0.533938	-0.000068
C32	C	-0.926862	0.556381	-0.000079
C33	C	-0.898542	0.458115	-0.000070
C34	C	-0.804692	0.397768	-0.000064
C35	C	-0.964071	0.420210	-0.000070
C36	C	-0.935753	0.321953	-0.000067
C37	C	-0.841907	0.261600	-0.000063
C38	C	-0.776374	0.299510	-0.000060
C39	C	-1.057921	0.480559	-0.000084
C40	C	-1.123450	0.442655	-0.000084
C41	C	-1.095132	0.344396	-0.000073
C42	C	-1.001286	0.284043	-0.000069
C43	C	-1.160665	0.306486	-0.000076
C44	C	-1.132348	0.208228	-0.000072
C45	C	-0.972969	0.185786	-0.000066
C46	C	-0.949917	-0.128921	-0.592871
C47	C	-1.042366	-0.051793	-0.553681
C48	C	-1.042273	-0.051509	-0.446593
C49	C	-0.949916	-0.128906	-0.407280
C50	C	-0.869083	-0.107439	-0.446164
C51	C	-0.869657	-0.106894	-0.553286
C52	C	-0.937444	-0.227744	-0.553378
C53	C	-0.939629	-0.227082	-0.446250
C54	C	-0.949909	-0.128900	-0.302392
C55	C	-0.949918	-0.128926	-0.697759
N56	N	-0.949919	-0.128936	0.218628
H57	H	-0.582062	0.013821	-0.062973
H58	H	-1.003275	0.605528	-0.000088
C59	C	-1.226683	0.509047	-0.000090
N60	N	-1.304439	0.559053	-0.000091
H61	H	-0.373767	-0.141759	0.153357
C62	C	-0.437244	0.031371	-0.085436
N63	N	-0.431115	0.073275	-0.149474
C64	C	-0.810757	0.153513	-0.000057
N65	N	-0.787295	0.072102	-0.000050
H66	H	-0.438235	0.016713	0.062168
C67	C	-0.695401	0.575627	-0.000062
N68	N	-0.641100	0.607028	-0.000058
H69	H	-1.103698	-0.064369	-0.579441
C70	C	-0.306199	-0.280957	0.093154
N71	N	-0.250002	-0.357901	0.097230
C72	C	-0.595643	0.028179	0.085071
N73	N	-0.636425	0.069078	0.149201
H74	H	-1.080974	0.560566	-0.000078
H75	H	-0.876083	-0.034823	-0.578279
C76	C	-0.775585	-0.181304	-0.411758
N77	N	-0.705163	-0.236939	-0.385840
C78	C	-0.305734	-0.283498	-0.087816
N79	N	-0.249925	-0.360766	-0.088417
C80	C	-1.263898	0.372880	-0.000091
N81	N	-1.341654	0.422888	-0.000103
H82	H	-0.662741	0.386533	-0.000051
C83	C	-0.776010	-0.179892	-0.588312
N84	N	-0.705474	-0.234868	-0.614690
C85	C	-1.204433	0.166531	-0.000067
N86	N	-1.258729	0.135125	-0.000065
C87	C	-1.124756	-0.068769	-0.411074
N88	N	-1.186889	-0.081763	-0.384325
H89	H	-0.467467	-0.258125	0.090951
C90	C	-1.057366	0.046724	-0.590050
N91	N	-1.068661	0.120926	-0.617443
C92	C	-0.673134	0.233122	-0.000051
N93	N	-0.595376	0.183119	-0.000049
C94	C	-1.057215	0.047564	-0.411979
N95	N	-1.068466	0.122189	-0.385909
C96	C	-0.529480	-0.133723	0.175923
N97	N	-0.569261	-0.097817	0.242379
C98	C	-0.876918	-0.011178	-0.409942
N99	N	-0.882828	0.061331	-0.382664
H100	H	-0.369522	-0.147225	-0.153527
C101	C	-0.528883	-0.130741	-0.175870
N102	N	-0.568130	-0.092967	-0.241930
C103	C	-1.013196	-0.255613	-0.589865
N104	N	-1.070261	-0.276592	-0.617346
C105	C	-1.019756	-0.249091	-0.411917
N106	N	-1.080110	-0.265666	-0.386052
H107	H	-0.874363	-0.287165	-0.419487
H108	H	-0.869678	-0.285141	-0.578727
H109	H	-0.896546	0.136647	-0.000053
C110	C	-0.466276	-0.283779	-0.095337
N111	N	-0.458371	-0.361282	-0.100739
