data_functionalizedCrystal
_audit_creation_method	'MofGen! by Chris Wilmer'
_symmetry_space_group_name_H-M	'P1'
_symmetry_Int_Tables_number	1
_symmetry_cell_setting	triclinic
loop_
_symmetry_equiv_pos_as_xyz
  x,y,z
_cell_length_a	9.065218
_cell_length_b	14.971486
_cell_length_c	7.540329
_cell_angle_alpha	89.996600
_cell_angle_beta	89.996214
_cell_angle_gamma	84.315040
loop_
_atom_site_label
_atom_site_type_symbol
_atom_site_fract_x
_atom_site_fract_y
_atom_site_fract_z
O1	O	-1.957736	-0.131153	0.147574
O2	O	-1.528233	-0.141910	0.147558
O3	O	-1.754496	-0.006417	0.147554
O4	O	-1.731473	-0.266646	0.147578
O5	O	-1.754488	-0.006416	-0.147411
O6	O	-1.528225	-0.141909	-0.147407
O7	O	-1.957728	-0.131152	-0.147391
Cu8	Cu	-1.742976	-0.136530	-0.174332
Cu9	Cu	-1.742985	-0.136531	0.174499
O10	O	-1.731465	-0.266645	-0.147387
C11	C	-1.473263	-0.140876	0.000073
C12	C	-1.309483	-0.137784	0.000067
C13	C	-1.753463	0.026916	0.000072
C14	C	-1.750377	0.126236	0.000073
N15	N	-1.742980	-0.136529	-0.419680
C16	C	-1.012698	-0.132186	0.000087
C17	C	-1.176478	-0.135277	0.000072
C18	C	-1.732498	-0.299977	0.000099
C19	C	-1.735584	-0.399298	0.000109
C20	C	-1.883301	0.182470	0.000077
C21	C	-1.880393	0.275792	0.000095
C22	C	-1.744559	0.312876	0.000096
C23	C	-1.611626	0.256634	0.000098
C24	C	-1.614535	0.163315	0.000093
C25	C	-1.605571	0.451142	0.000104
C26	C	-1.602660	0.544468	0.000106
C27	C	-1.871428	0.563619	0.000106
C28	C	-1.874338	0.470299	0.000101
C29	C	-1.741403	0.414064	0.000099
N30	N	-1.742993	-0.136526	0.419847
H31	H	-1.993912	0.152284	0.000065
Cl32	Cl	-1.440863	0.303255	0.000121
Cl33	Cl	-2.038546	0.634314	0.000118
Cl34	Cl	-1.431896	0.591088	0.000106
Cl35	Cl	-2.047505	0.346483	0.000094
Cl36	Cl	-2.045102	0.423680	0.000108
H37	H	-1.497321	0.405357	0.000107
Cl38	Cl	-1.447424	0.092619	0.000095
