data_functionalizedCrystal
_audit_creation_method	'MofGen! by Chris Wilmer'
_symmetry_space_group_name_H-M	'P1'
_symmetry_Int_Tables_number	1
_symmetry_cell_setting	triclinic
loop_
_symmetry_equiv_pos_as_xyz
  x,y,z
_cell_length_a	10.540539
_cell_length_b	10.540539
_cell_length_c	9.730223
_cell_angle_alpha	90.000775
_cell_angle_beta	90.001832
_cell_angle_gamma	84.525492
loop_
_atom_site_label
_atom_site_type_symbol
_atom_site_fract_x
_atom_site_fract_y
_atom_site_fract_z
O1	O	1.685880	0.178895	-0.114218
O2	O	1.316467	0.195751	-0.114234
O3	O	1.509601	0.002616	-0.114224
O4	O	1.492745	0.372029	-0.114228
O5	O	1.509599	0.002621	0.114356
O6	O	1.316465	0.195756	0.114346
O7	O	1.685878	0.178900	0.114362
Zn8	Zn	1.501171	0.187329	0.150646
Zn9	Zn	1.501174	0.187322	-0.150518
O10	O	1.492743	0.372034	0.114352
C11	C	1.269163	0.194489	0.000053
C12	C	1.128215	0.190707	0.000047
C13	C	1.508336	-0.044684	0.000063
C14	C	1.504554	-0.185632	0.000056
C15	C	0.944788	0.045790	0.000582
C16	C	1.091406	0.049624	0.000053
C17	C	1.066543	0.258600	-0.130479
C18	C	0.919999	0.253785	-0.130574
C19	C	0.919508	0.256660	0.129364
C20	C	1.066490	0.257960	0.131075
C21	C	1.359637	-0.369059	-0.000464
C22	C	1.363471	-0.222441	0.000051
C23	C	1.572449	-0.247287	0.130589
C24	C	1.567634	-0.393832	0.130699
C25	C	1.570506	-0.394355	-0.129239
C26	C	1.571805	-0.247374	-0.130965
C27	C	1.733182	0.180161	0.000071
C28	C	1.874130	0.183943	0.000068
C29	C	1.494008	0.419335	0.000061
C30	C	1.497790	0.560283	0.000060
N31	N	1.501178	0.187332	0.356182
N32	N	1.501176	0.187308	-0.356055
C33	C	1.586720	0.101842	0.428113
C34	C	1.586717	0.101826	0.571996
C35	C	1.415625	0.272803	0.572005
C36	C	1.415623	0.272811	0.428124
C37	C	1.672275	0.016362	0.356170
C38	C	1.757825	-0.069134	0.428101
C39	C	1.757822	-0.069150	0.571984
C40	C	1.672268	0.016331	0.643936
H41	H	1.134019	-0.003797	0.093620
H42	H	1.676056	-0.224933	0.135447
N43	N	0.906933	-0.028039	0.124580
H44	H	0.843609	0.027346	0.181627
H45	H	0.866898	-0.106444	0.093338
N46	N	1.708060	-0.215306	-0.141410
H47	H	1.709695	-0.119807	-0.147232
H48	H	1.756933	-0.248473	-0.057488
H49	H	1.522127	-0.206517	-0.227530
N50	N	0.856451	0.388178	-0.138456
H51	H	0.760851	0.386101	-0.138584
H52	H	0.882476	0.438364	-0.056413
N53	N	0.877746	0.196173	0.260422
H54	H	0.907864	0.244304	0.342074
H55	H	0.781707	0.199107	0.262143
N56	N	1.122923	0.196122	-0.259165
H57	H	1.165003	0.260924	-0.315359
H58	H	1.188351	0.123848	-0.233106
N59	N	0.904752	-0.027755	-0.122687
H60	H	0.841046	0.028030	-0.178864
H61	H	0.981970	-0.054752	-0.180891
H62	H	1.672409	-0.441581	-0.130112
H63	H	1.090716	0.360819	0.138955
N64	N	1.850082	-0.161324	0.350483
H65	H	1.940309	-0.145841	0.375524
H66	H	1.834541	-0.251530	0.375533
N67	N	1.850097	-0.161347	0.649571
H68	H	1.904297	-0.215486	0.582158
H69	H	1.906640	-0.112183	0.709264
N70	N	1.323355	0.364996	0.649603
H71	H	1.336339	0.352019	0.751666
H72	H	1.338827	0.455198	0.624462
N73	N	1.292722	-0.165995	-0.123897
H74	H	1.219413	-0.103965	-0.092741
H75	H	1.352693	-0.119921	-0.182575
H76	H	1.672264	0.016303	0.761096
N77	N	1.096161	0.395835	-0.136940
H78	H	1.149969	0.415364	-0.055121
H79	H	1.144272	0.410335	-0.224428
N80	N	1.285797	-0.406944	-0.124446
H81	H	1.331223	-0.383782	-0.210977
H82	H	1.279280	-0.501902	-0.122516
H83	H	0.891790	0.203602	-0.228143
N84	N	1.120738	0.192271	0.258992
H85	H	1.185030	0.119252	0.232194
H86	H	1.163758	0.255185	0.316882
N87	N	0.856961	0.391644	0.130540
H88	H	0.799506	0.405681	0.047773
H89	H	0.804886	0.406337	0.217195
H90	H	1.345966	0.342425	0.369558
N91	N	1.286103	-0.409057	0.122826
H92	H	1.341893	-0.472748	0.179016
H93	H	1.259124	-0.331816	0.181006
N94	N	1.292224	-0.167110	0.124201
H95	H	1.200811	-0.188179	0.120183
H96	H	1.333808	-0.204578	0.210491
H97	H	1.669099	-0.441800	0.136625
N98	N	1.501169	-0.431196	0.259939
H99	H	1.475265	-0.352504	0.316301
H100	H	1.422870	-0.474283	0.234532
H101	H	1.133152	-0.004177	-0.093675
N102	N	1.509979	-0.190843	0.259250
H103	H	1.417262	-0.207723	0.260542
H104	H	1.554426	-0.231140	0.342622
H105	H	1.524845	-0.425910	-0.228175
H106	H	1.672288	0.016369	0.239014
