data_functionalizedCrystal
_audit_creation_method	'MofGen! by Chris Wilmer'
_symmetry_space_group_name_H-M	'P1'
_symmetry_Int_Tables_number	1
_symmetry_cell_setting	triclinic
loop_
_symmetry_equiv_pos_as_xyz
  x,y,z
_cell_length_a	16.109301
_cell_length_b	17.038272
_cell_length_c	15.186229
_cell_angle_alpha	89.995962
_cell_angle_beta	89.999362
_cell_angle_gamma	87.286518
loop_
_atom_site_label
_atom_site_type_symbol
_atom_site_fract_x
_atom_site_fract_y
_atom_site_fract_z
O1	O	1.110268	0.100495	-0.073174
O2	O	1.610268	0.600495	0.426826
O3	O	0.869094	0.113001	-0.073188
O4	O	1.369094	0.613001	0.426812
O5	O	0.988247	-0.007067	-0.073174
O6	O	1.488247	0.492933	0.426826
O7	O	0.991114	0.220563	-0.073187
O8	O	1.491114	0.720563	0.426813
O9	O	0.988239	-0.007069	0.073284
O10	O	1.488239	0.492931	0.573284
O11	O	0.869085	0.113000	0.073270
O12	O	1.369085	0.613000	0.573270
O13	O	1.110259	0.100493	0.073284
O14	O	1.610259	0.600493	0.573284
Zn15	Zn	0.989671	0.106746	0.096530
Zn16	Zn	1.489671	0.606746	0.596530
Zn17	Zn	0.989682	0.106748	-0.096434
Zn18	Zn	1.489682	0.606748	0.403566
O19	O	0.991105	0.220562	0.073270
O20	O	1.491105	0.720562	0.573270
C21	C	0.838079	0.112494	0.000039
C22	C	1.338079	0.612494	0.500039
C23	C	0.745676	0.110975	0.000034
C24	C	1.245676	0.610975	0.500034
C25	C	0.985636	-0.036196	0.000055
C26	C	1.485636	0.463804	0.500055
C27	C	0.977857	-0.122989	0.000054
C28	C	1.477857	0.377011	0.500054
C29	C	0.528212	0.178690	0.000040
C30	C	1.028212	0.678690	0.500040
C31	C	0.441390	0.177257	0.000046
C32	C	0.941390	0.677257	0.500046
C33	C	0.451147	0.034799	0.000051
C34	C	0.951147	0.534799	0.500051
C35	C	0.537968	0.036233	0.000051
C36	C	1.037968	0.536233	0.500051
C37	C	0.576498	0.108181	0.000042
C38	C	1.076498	0.608181	0.500042
C39	C	0.402855	0.105314	0.000047
C40	C	0.902855	0.605314	0.500047
C41	C	0.308719	0.103759	0.000053
C42	C	0.808719	0.603759	0.500053
C43	C	0.670640	0.109736	0.000037
C44	C	1.170640	0.609736	0.500037
C45	C	1.049277	-0.173104	0.000059
C46	C	1.549277	0.326896	0.500059
C47	C	1.041963	-0.254654	0.000050
C48	C	1.541963	0.245346	0.500050
C49	C	0.963228	-0.286089	0.000043
C50	C	1.463228	0.213911	0.500043
C51	C	0.891802	-0.235967	0.000035
C52	C	1.391802	0.264033	0.500035
C53	C	0.899116	-0.154418	0.000038
C54	C	1.399116	0.345582	0.500038
C55	C	0.937385	-0.531846	0.000029
C56	C	1.437385	-0.031846	0.500029
C57	C	0.930076	-0.613402	0.000029
C58	C	1.430076	-0.113402	0.500029
C59	C	1.080238	-0.632083	0.000043
C60	C	1.580238	-0.132083	0.500043
C61	C	1.087546	-0.550532	0.000051
C62	C	1.587546	-0.050532	0.500051
C63	C	1.016120	-0.500418	0.000038
C64	C	1.516120	-0.000418	0.500038
C65	C	0.955749	-0.369446	0.000037
C66	C	1.455749	0.130554	0.500037
C67	C	1.023599	-0.417062	0.000038
C68	C	1.523599	0.082938	0.500038
C69	C	1.141274	0.101001	0.000055
C70	C	1.641274	0.601001	0.500055
C71	C	1.233677	0.102519	0.000054
C72	C	1.733677	0.602519	0.500054
C73	C	0.993717	0.249691	0.000039
C74	C	1.493717	0.749691	0.500039
C75	C	1.001496	0.336484	0.000034
C76	C	1.501496	0.836484	0.500034
N77	N	0.989669	0.106744	0.228223
N78	N	1.489669	0.606744	0.728223
N79	N	0.989690	0.106744	-0.228126
N80	N	1.489690	0.606744	0.271874
C81	C	1.042451	0.053596	0.453952
C82	C	1.542451	0.553596	0.953952
C83	C	1.042453	0.053594	0.546141
C84	C	1.542453	0.553594	1.046141
C85	C	0.936902	0.159895	0.546138
C86	C	1.436902	0.659895	1.046138
C87	C	0.936896	0.159893	0.453950
C88	C	1.436896	0.659893	0.953950
C89	C	0.989675	0.106744	0.407859
C90	C	1.489675	0.606744	0.907859
C91	C	0.989684	0.106745	0.592237
C92	C	1.489684	0.606745	1.092237
C93	C	0.989686	0.106743	0.692193
C94	C	1.489686	0.606743	1.192193
C95	C	0.989672	0.106744	0.307897
C96	C	1.489672	0.606744	0.807897
H97	H	0.559580	0.237274	0.000039
H98	H	1.059580	0.737274	0.500039
N99	N	0.392055	0.249273	0.000040
N100	N	0.892055	0.749273	0.500040
N101	N	0.314538	0.247986	0.000047
N102	N	0.814538	0.747986	0.500047
H103	H	0.279694	0.298850	0.000046
H104	H	0.779694	0.798850	0.500046
H105	H	0.893932	0.203169	0.583674
H106	H	1.393932	0.703169	1.083674
H107	H	0.840958	-0.113615	0.000033
H108	H	1.340958	0.386385	0.500033
N109	N	0.411774	-0.038683	0.000061
N110	N	0.911774	0.461317	0.500061
N111	N	0.334256	-0.039955	0.000060
N112	N	0.834256	0.460045	0.500060
H113	H	0.306449	-0.091853	0.000065
H114	H	0.806449	0.408147	0.500065
N115	N	0.587284	-0.035801	0.000062
N116	N	1.087284	0.464199	0.500062
N117	N	0.552874	-0.100034	0.000066
N118	N	1.052874	0.399966	0.500066
H119	H	0.587703	-0.150907	0.000078
H120	H	1.087703	0.349093	0.500078
N121	N	1.129712	-0.141012	0.000079
N122	N	1.629712	0.358988	0.500079
N123	N	1.193473	-0.185770	0.000084
N124	N	1.693473	0.314230	0.500084
H125	H	1.250283	-0.163108	0.000097
H126	H	1.750283	0.336892	0.500097
N127	N	1.114927	-0.305834	0.000047
N128	N	1.614927	0.194166	0.500047
N129	N	1.185221	-0.277758	0.000055
N130	N	1.685221	0.222242	0.500055
H131	H	1.236756	-0.313903	0.000049
H132	H	1.736756	0.186097	0.500049
H133	H	0.891642	-0.395049	0.000032
H134	H	1.391642	0.104951	0.500032
H135	H	0.893916	0.203173	0.416419
H136	H	1.393916	0.703173	0.916419
N137	N	1.104016	-0.384942	0.000057
N138	N	1.604016	0.115058	0.500057
N139	N	1.124831	-0.341522	0.061797
N140	N	1.624831	0.158478	0.561797
H141	H	1.181626	-0.318829	0.061814
H142	H	1.681626	0.181171	0.561814
N143	N	1.167980	-0.518438	0.000059
N144	N	1.667980	-0.018438	0.500059
N145	N	1.231743	-0.563193	0.000062
N146	N	1.731743	-0.063193	0.500062
H147	H	1.288552	-0.540528	0.000070
H148	H	1.788552	-0.040528	0.500070
N149	N	1.096361	-0.000691	0.593232
N150	N	1.596361	0.499309	1.093232
N151	N	1.149721	0.024121	0.644677
N152	N	1.649721	0.524121	1.144677
H153	H	1.187791	-0.014222	0.677939
H154	H	1.687791	0.485778	1.177939
H155	H	1.085425	0.010318	0.416427
H156	H	1.585425	0.510318	0.916427
N157	N	1.153193	-0.683273	0.000066
N158	N	1.653193	-0.183273	0.500066
N159	N	1.165862	-0.730865	0.061804
N160	N	1.665862	-0.230865	0.561804
H161	H	1.217391	-0.767019	0.061819
H162	H	1.717391	-0.267019	0.561819
N163	N	0.849638	-0.645499	0.000038
N164	N	1.349638	-0.145499	0.500038
N165	N	0.785872	-0.600747	0.000037
N166	N	1.285872	-0.100747	0.500037
H167	H	0.729065	-0.623415	0.000051
H168	H	1.229065	-0.123415	0.500051
N169	N	0.864419	-0.480675	0.000023
N170	N	1.364419	0.019325	0.500023
N171	N	0.794127	-0.508754	0.000023
N172	N	1.294127	-0.008754	0.500023
H173	H	0.742590	-0.472611	0.000022
H174	H	1.242590	0.027389	0.500022
H175	H	0.827693	-0.261567	0.000023
H176	H	1.327693	0.238433	0.500023
