data_functionalizedCrystal
_audit_creation_method	'MofGen! by Chris Wilmer'
_symmetry_space_group_name_H-M	'P1'
_symmetry_Int_Tables_number	1
_symmetry_cell_setting	triclinic
loop_
_symmetry_equiv_pos_as_xyz
  x,y,z
_cell_length_a	10.654550
_cell_length_b	15.186229
_cell_length_c	10.654550
_cell_angle_alpha	89.996404
_cell_angle_beta	95.515069
_cell_angle_gamma	90.000116
loop_
_atom_site_label
_atom_site_type_symbol
_atom_site_fract_x
_atom_site_fract_y
_atom_site_fract_z
O1	O	1.667839	0.073163	-0.176397
O2	O	1.302361	0.073179	-0.193203
O3	O	1.493503	0.073165	-0.002061
O4	O	1.476697	0.073177	-0.367540
O5	O	1.493490	-0.073292	-0.002058
O6	O	1.302348	-0.073279	-0.193201
O7	O	1.667826	-0.073295	-0.176395
Zn8	Zn	1.485085	-0.096540	-0.184797
Zn9	Zn	1.485102	0.096424	-0.184801
O10	O	1.476684	-0.073281	-0.367537
C11	C	1.255556	-0.000048	-0.191968
C12	C	1.116113	-0.000042	-0.188276
N13	N	1.485083	-0.228232	-0.184794
C14	C	1.036628	-0.000041	-0.300818
C15	C	0.905607	-0.000056	-0.297341
C16	C	0.933570	-0.000070	-0.068772
C17	C	1.064588	-0.000061	-0.072250
C18	C	1.569750	-0.453962	-0.100185
C19	C	1.569754	-0.546151	-0.100182
C20	C	1.400438	-0.546148	-0.269407
C21	C	1.400429	-0.453960	-0.269403
C22	C	1.485092	-0.407869	-0.184793
C23	C	1.485105	-0.592247	-0.184795
C24	C	1.485109	-0.692203	-0.184792
C25	C	1.485087	-0.307907	-0.184794
C26	C	1.714631	-0.000066	-0.177630
C27	C	1.854074	-0.000066	-0.181322
C28	C	1.492263	-0.000063	0.044738
C29	C	1.488571	-0.000062	0.184181
N30	N	1.485114	0.228117	-0.184794
C31	C	1.477925	-0.000051	-0.414336
C32	C	1.481616	-0.000046	-0.553779
C33	C	1.601112	-0.000066	0.263667
C34	C	1.597636	-0.000056	0.394688
C35	C	1.369066	-0.000039	0.366725
C36	C	1.372544	-0.000044	0.235706
H37	H	1.078574	-0.000032	-0.395294
H38	H	1.695588	-0.000079	0.221720
H39	H	1.129309	-0.000064	0.019401
N40	N	1.719019	-0.000060	0.480420
H41	H	1.793044	-0.000073	0.427894
H42	H	1.722544	-0.054351	0.535400
N43	N	1.309144	-0.595869	-0.360666
H44	H	1.324381	-0.579817	-0.449937
H45	H	1.219921	-0.579816	-0.345269
H46	H	1.280893	-0.000037	0.170985
H47	H	1.638686	-0.416437	-0.031289
H48	H	0.891602	-0.000091	0.025693
N49	N	1.661080	-0.595866	-0.008944
H50	H	1.714714	-0.552676	0.044646
H51	H	1.717010	-0.634104	-0.057564
H52	H	1.331485	-0.416429	-0.338302
N53	N	0.819906	-0.000090	-0.418745
H54	H	0.836577	0.054197	-0.469335
H55	H	0.729112	-0.000148	-0.398869
N56	N	1.243928	-0.000023	0.422299
H57	H	1.258800	-0.000024	0.517360
H58	H	1.194626	-0.054315	0.393297
