data_functionalizedCrystal
_audit_creation_method	'MofGen! by Chris Wilmer'
_symmetry_space_group_name_H-M	'P1'
_symmetry_Int_Tables_number	1
_symmetry_cell_setting	triclinic
loop_
_symmetry_equiv_pos_as_xyz
  x,y,z
_cell_length_a	8.597187
_cell_length_b	8.597304
_cell_length_c	7.681481
_cell_angle_alpha	76.508647
_cell_angle_beta	88.166928
_cell_angle_gamma	84.294415
loop_
_atom_site_label
_atom_site_type_symbol
_atom_site_fract_x
_atom_site_fract_y
_atom_site_fract_z
O1	O	2.036323	0.284141	-0.498460
O2	O	1.586299	0.295460	-0.431907
O3	O	1.823619	0.058145	-0.431902
O4	O	1.799003	0.521456	-0.498464
O5	O	1.852829	0.028867	-0.139034
O6	O	1.615509	0.266182	-0.139038
O7	O	2.065533	0.254863	-0.205592
Zn8	Zn	1.845159	0.255874	-0.125816
Zn9	Zn	1.806673	0.294449	-0.511683
O10	O	1.828213	0.492178	-0.205596
C11	C	1.543317	0.277974	-0.276304
C12	C	1.371725	0.269471	-0.248983
C13	C	1.837208	-0.015911	-0.276303
C14	C	1.834162	-0.192957	-0.248989
C15	C	2.108515	0.272350	-0.361198
C16	C	2.280106	0.280854	-0.388530
C17	C	1.814624	0.566235	-0.361200
C18	C	1.817668	0.743282	-0.388524
N19	N	1.871436	0.229548	0.137527
N20	N	1.780409	0.320763	-0.775025
H21	H	1.332947	0.297105	-0.528903
O22	O	1.802057	-0.149633	-0.574471
H23	H	1.806996	-0.022716	-0.567481
H24	H	1.318888	0.253239	-0.108623
H25	H	1.845938	-0.273821	-0.108609
O26	O	1.657289	0.444066	0.125356
H27	H	1.660681	0.440619	-0.018272
H28	H	1.964373	0.136449	0.212759
