data_functionalizedCrystal
_audit_creation_method	'MofGen! by Chris Wilmer'
_symmetry_space_group_name_H-M	'P1'
_symmetry_Int_Tables_number	1
_symmetry_cell_setting	triclinic
loop_
_symmetry_equiv_pos_as_xyz
  x,y,z
_cell_length_a	12.759401
_cell_length_b	11.169416
_cell_length_c	11.169409
_cell_angle_alpha	89.969184
_cell_angle_beta	89.979279
_cell_angle_gamma	90.010501
loop_
_atom_site_label
_atom_site_type_symbol
_atom_site_fract_x
_atom_site_fract_y
_atom_site_fract_z
Zn1	Zn	1.606310	-0.477705	-0.678560
Zn2	Zn	1.606211	-0.678446	-0.477882
Zn3	Zn	1.430605	-0.477776	-0.477894
Zn4	Zn	1.430614	-0.678346	-0.678526
O5	O	1.518435	-0.578068	-0.578216
O6	O	1.753318	-0.504346	-0.651949
O7	O	1.582872	-0.651898	-0.309934
O8	O	1.453951	-0.309817	-0.504532
O9	O	1.753245	-0.651830	-0.504512
O10	O	1.583040	-0.309765	-0.651960
O11	O	1.453855	-0.504467	-0.309942
O12	O	1.283586	-0.504370	-0.504499
O13	O	1.453966	-0.651659	-0.846481
O14	O	1.283592	-0.651727	-0.651903
O15	O	1.583049	-0.504250	-0.846505
O16	O	1.582880	-0.846382	-0.504479
O17	O	1.453870	-0.846309	-0.651891
C18	C	1.245468	-0.578046	-0.578199
C19	C	1.128691	-0.578066	-0.578221
C20	C	1.073860	-0.654918	-0.654847
C21	C	0.964136	-0.654933	-0.654860
C22	C	0.964084	-0.501241	-0.501610
C23	C	1.073806	-0.501220	-0.501604
C24	C	1.073889	-0.743655	-0.743321
C25	C	0.964165	-0.743670	-0.743334
C26	C	1.518394	-0.889893	-0.578206
C27	C	1.518472	-1.023293	-0.578243
C28	C	1.792469	-0.578091	-0.578233
C29	C	1.909245	-0.578101	-0.578240
C30	C	1.518519	-0.577935	-0.891258
C31	C	1.518555	-0.577879	-1.024658
C32	C	1.518506	-0.265026	-0.578251
C33	C	1.518536	-0.131626	-0.578266
C34	C	1.518412	-0.578114	-0.266391
C35	C	1.518579	-0.577833	-0.132991
H36	H	1.107908	-0.831905	-0.709872
H37	H	0.930168	-0.710488	-0.831695
O38	O	0.924689	-0.866753	-0.710135
H39	H	0.992379	-0.926997	-0.693859
O40	O	1.132951	-0.418345	-0.418945
H41	H	1.076349	-0.364932	-0.365657
O42	O	0.904888	-0.418389	-0.418946
H43	H	0.819379	-0.431324	-0.431809
O44	O	1.113392	-0.710800	-0.866490
H45	H	1.045714	-0.694720	-0.926794
