data_functionalizedCrystal
_audit_creation_method	'MofGen! by Chris Wilmer'
_symmetry_space_group_name_H-M	'P1'
_symmetry_Int_Tables_number	1
_symmetry_cell_setting	triclinic
loop_
_symmetry_equiv_pos_as_xyz
  x,y,z
_cell_length_a	14.519709
_cell_length_b	14.519709
_cell_length_c	9.130307
_cell_angle_alpha	89.995756
_cell_angle_beta	90.004095
_cell_angle_gamma	83.680145
loop_
_atom_site_label
_atom_site_type_symbol
_atom_site_fract_x
_atom_site_fract_y
_atom_site_fract_z
O1	O	1.223864	0.120890	-0.121612
O2	O	1.723864	0.620890	0.378388
O3	O	0.955387	0.135126	-0.121657
O4	O	1.455387	0.635126	0.378343
O5	O	1.096744	-0.006230	-0.121620
O6	O	1.596744	0.493770	0.378380
O7	O	1.082507	0.262246	-0.121649
O8	O	1.582507	0.762246	0.378351
O9	O	1.096739	-0.006232	0.121979
O10	O	1.596739	0.493768	0.621979
O11	O	0.955382	0.135125	0.121942
O12	O	1.455382	0.635125	0.621942
O13	O	1.223859	0.120888	0.121987
O14	O	1.723859	0.620888	0.621987
Cu15	Cu	1.089620	0.128006	0.144207
Cu16	Cu	1.589620	0.628006	0.644207
Cu17	Cu	1.089626	0.128008	-0.143877
Cu18	Cu	1.589626	0.628008	0.356123
O19	O	1.082502	0.262245	0.121950
O20	O	1.582502	0.762245	0.621950
C21	C	0.921025	0.134462	0.000137
C22	C	1.421025	0.634462	0.500137
C23	C	0.818643	0.132474	0.000120
C24	C	1.318643	0.632474	0.500120
C25	C	0.443748	0.125154	0.000187
C26	C	0.943748	0.625154	0.500187
C27	C	0.548056	0.127187	0.000168
C28	C	1.048056	0.627187	0.500168
C29	C	0.631192	0.128814	0.000152
C30	C	1.131192	0.628814	0.500152
C31	C	0.735507	0.130847	0.000136
C32	C	1.235507	0.630847	0.500136
C33	C	1.096078	-0.040591	0.000180
C34	C	1.596078	0.459409	0.500180
C35	C	1.094090	-0.142972	0.000180
C36	C	1.594090	0.357028	0.500180
C37	C	1.086770	-0.517868	0.000141
C38	C	1.586770	-0.017868	0.500141
C39	C	1.088803	-0.413560	0.000152
C40	C	1.588803	0.086440	0.500152
C41	C	1.090430	-0.330423	0.000162
C42	C	1.590430	0.169577	0.500162
C43	C	1.092463	-0.226109	0.000170
C44	C	1.592463	0.273891	0.500170
C45	C	1.258221	0.121553	0.000190
C46	C	1.758221	0.621553	0.500190
C47	C	1.360602	0.123541	0.000197
C48	C	1.860602	0.623541	0.500197
C49	C	1.083168	0.296606	0.000147
C50	C	1.583168	0.796606	0.500147
C51	C	1.085156	0.398987	0.000137
C52	C	1.585156	0.898987	0.500137
N53	N	1.089623	0.128005	0.346830
N54	N	1.589623	0.628005	0.846830
N55	N	1.089630	0.128002	-0.346500
N56	N	1.589630	0.628002	0.153500
C57	C	1.214845	0.002870	0.346853
C58	C	1.714845	0.502870	0.846853
C59	C	1.277463	-0.059695	0.423531
C60	C	1.777463	0.440305	0.923531
C61	C	1.277472	-0.059696	0.576864
C62	C	1.777472	0.440304	1.076864
C63	C	1.214855	0.002873	0.653523
C64	C	1.714855	0.502873	1.153523
C65	C	1.152238	0.065438	0.576845
C66	C	1.652238	0.565438	1.076845
C67	C	1.152237	0.065434	0.423508
C68	C	1.652237	0.565434	0.923508
C69	C	1.027013	0.190567	0.576822
C70	C	1.527013	0.690567	1.076822
C71	C	1.027006	0.190574	0.423489
C72	C	1.527006	0.690574	0.923489
C73	C	0.964396	0.253137	0.653481
C74	C	1.464396	0.753137	1.153481
C75	C	0.901782	0.315708	0.576803
C76	C	1.401782	0.815708	1.076803
C77	C	0.901776	0.315706	0.423460
C78	C	1.401776	0.815706	0.923460
C79	C	0.964389	0.253139	0.346811
C80	C	1.464389	0.753139	0.846811
H81	H	1.214852	0.002871	0.222000
H82	H	1.714852	0.502871	0.722000
H83	H	1.328443	-0.110641	0.361102
H84	H	1.828443	0.389359	0.861102
H85	H	1.328457	-0.110645	0.639296
H86	H	1.828457	0.389355	1.139296
H87	H	0.850800	0.366643	0.639228
H88	H	1.350800	0.866643	1.139228
H89	H	1.214859	0.002861	0.778375
H90	H	1.714859	0.502861	1.278375
N91	N	0.964408	0.253119	0.810106
N92	N	1.464408	0.753119	1.310106
N93	N	1.020320	0.197255	0.878555
N94	N	1.520320	0.697255	1.378555
H95	H	1.020329	0.197244	0.989174
H96	H	1.520329	0.697244	1.489174
H97	H	0.850782	0.366651	0.361037
H98	H	1.350782	0.866651	0.861037
H99	H	0.964393	0.253136	0.221958
H100	H	1.464393	0.753136	0.721958
