data_functionalizedCrystal
_audit_creation_method	'MofGen! by Chris Wilmer'
_symmetry_space_group_name_H-M	'P1'
_symmetry_Int_Tables_number	1
_symmetry_cell_setting	triclinic
loop_
_symmetry_equiv_pos_as_xyz
  x,y,z
_cell_length_a	14.519709
_cell_length_b	11.792241
_cell_length_c	10.868271
_cell_angle_alpha	90.000107
_cell_angle_beta	89.993918
_cell_angle_gamma	96.063220
loop_
_atom_site_label
_atom_site_type_symbol
_atom_site_fract_x
_atom_site_fract_y
_atom_site_fract_z
O1	O	0.126404	-1.506208	-0.102206
O2	O	0.459738	-1.172874	0.231128
O3	O	0.793071	-0.839541	0.564461
O4	O	0.139432	-1.175794	-0.102235
O5	O	0.472765	-0.842461	0.231099
O6	O	0.806098	-0.509128	0.564432
O7	O	-0.001288	-1.349761	-0.102208
O8	O	0.332045	-1.016428	0.231125
O9	O	0.665378	-0.683095	0.564458
O10	O	0.267124	-1.332241	-0.102232
O11	O	0.600458	-0.998907	0.231101
O12	O	0.933791	-0.665574	0.564435
O13	O	-0.001294	-1.349747	0.102436
O14	O	0.332039	-1.016414	0.435770
O15	O	0.665373	-0.683080	0.769103
O16	O	0.139426	-1.175780	0.102410
O17	O	0.472759	-0.842447	0.435743
O18	O	0.806093	-0.509113	0.769077
O19	O	0.126399	-1.506193	0.102439
O20	O	0.459732	-1.172860	0.435772
O21	O	0.793066	-0.839527	0.769106
Zn22	Zn	0.132912	-1.340984	0.134916
Zn23	Zn	0.466245	-1.007651	0.468250
Zn24	Zn	0.799578	-0.674318	0.801583
Zn25	Zn	0.132919	-1.341003	-0.134712
Zn26	Zn	0.466252	-1.007670	0.198621
Zn27	Zn	0.799586	-0.674337	0.531955
O28	O	0.267119	-1.332226	0.102413
O29	O	0.600452	-0.998893	0.435746
O30	O	0.933786	-0.665560	0.769079
C31	C	0.138611	-1.133501	0.000084
C32	C	0.471944	-0.800167	0.333417
C33	C	0.805277	-0.466834	0.666751
C34	C	0.136161	-1.007501	0.000073
C35	C	0.469495	-0.674167	0.333407
C36	C	0.802828	-0.340834	0.666740
C37	C	-0.035654	-1.348938	0.000114
C38	C	0.297679	-1.015604	0.333448
C39	C	0.631013	-0.682271	0.666781
C40	C	-0.138044	-1.346491	0.000115
C41	C	0.195289	-1.013158	0.333448
C42	C	0.528623	-0.679824	0.666781
C43	C	0.127220	-1.548487	0.000118
C44	C	0.460553	-1.215154	0.333451
C45	C	0.793887	-0.881820	0.666784
C46	C	0.129669	-1.674487	0.000120
C47	C	0.463003	-1.341154	0.333454
C48	C	0.796336	-1.007820	0.666787
C49	C	-0.512973	-1.337483	0.000082
C50	C	-0.179640	-1.004149	0.333415
C51	C	0.153694	-0.670816	0.666749
C52	C	-0.408656	-1.339984	0.000091
C53	C	-0.075322	-1.006651	0.333425
C54	C	0.258011	-0.673318	0.666758
C55	C	-0.325512	-1.341987	0.000099
C56	C	0.007822	-1.008653	0.333433
C57	C	0.341155	-0.675320	0.666766
C58	C	-0.221188	-1.344489	0.000107
C59	C	0.112145	-1.011155	0.333440
C60	C	0.445479	-0.677822	0.666773
C61	C	0.301484	-1.333050	0.000087
C62	C	0.634818	-0.999717	0.333421
C63	C	0.968151	-0.666383	0.666754
C64	C	0.403875	-1.335497	0.000079
C65	C	0.737208	-1.002164	0.333412
C66	C	1.070541	-0.668830	0.666746
N67	N	0.132906	-1.340980	0.318930
N68	N	0.466239	-1.007647	0.652264
N69	N	0.799573	-0.674313	0.985597
C70	C	0.131657	-0.776813	0.000109
C71	C	0.464991	-0.443480	0.333443
C72	C	0.798324	-0.110147	0.666776
C73	C	0.134160	-0.905185	0.000090
C74	C	0.467493	-0.571851	0.333423
C75	C	0.800827	-0.238518	0.666756
N76	N	0.132917	-1.341017	-0.318726
N77	N	0.466251	-1.007684	0.014607
N78	N	0.799584	-0.674350	0.347941
C79	C	0.132917	-1.340997	0.569936
C80	C	0.466250	-1.007664	0.903270
C81	C	0.799584	-0.674331	1.236603
C82	C	0.132914	-1.340984	0.430259
C83	C	0.466247	-1.007651	0.763592
C84	C	0.799580	-0.674317	1.096926
