data_functionalizedCrystal
_audit_creation_method	'MofGen! by Chris Wilmer'
_symmetry_space_group_name_H-M	'P1'
_symmetry_Int_Tables_number	1
_symmetry_cell_setting	triclinic
loop_
_symmetry_equiv_pos_as_xyz
  x,y,z
_cell_length_a	19.188905
_cell_length_b	10.654550
_cell_length_c	9.730223
_cell_angle_alpha	89.995747
_cell_angle_beta	89.989587
_cell_angle_gamma	83.809743
loop_
_atom_site_label
_atom_site_type_symbol
_atom_site_fract_x
_atom_site_fract_y
_atom_site_fract_z
O1	O	0.927179	0.156630	-0.114516
O2	O	1.427179	0.656630	0.385484
O3	O	0.724004	0.177768	-0.114469
O4	O	1.224004	0.677768	0.385531
O5	O	0.830263	-0.015640	-0.114485
O6	O	1.330263	0.484360	0.385515
O7	O	0.820920	0.350038	-0.114500
O8	O	1.320920	0.850038	0.385500
O9	O	0.830256	-0.015645	0.114095
O10	O	1.330256	0.484355	0.614095
O11	O	0.723997	0.177763	0.114111
O12	O	1.223997	0.677763	0.614111
O13	O	0.927172	0.156624	0.114064
O14	O	1.427172	0.656624	0.614064
Zn15	Zn	0.825583	0.167193	0.150379
Zn16	Zn	1.325583	0.667193	0.650379
Zn17	Zn	0.825592	0.167199	-0.150785
Zn18	Zn	1.325592	0.667199	0.349215
O19	O	0.820913	0.350032	0.114080
O20	O	1.320913	0.850032	0.614080
C21	C	0.829573	-0.062426	-0.000196
C22	C	1.329573	0.437574	0.499804
C23	C	0.827521	-0.201826	-0.000197
C24	C	1.327521	0.298174	0.499803
C25	C	0.697984	0.177086	-0.000173
C26	C	1.197984	0.677086	0.499827
C27	C	0.620466	0.175047	-0.000155
C28	C	1.120466	0.675047	0.499845
C29	C	0.890085	-0.282645	-0.000212
C30	C	1.390085	0.217355	0.499788
C31	C	0.888152	-0.413625	-0.000229
C32	C	1.388152	0.086375	0.499771
C33	C	0.761086	-0.382952	-0.000209
C34	C	1.261086	0.117048	0.499791
C35	C	0.763020	-0.251975	-0.000203
C36	C	1.263020	0.248025	0.499797
C37	C	0.584071	0.174070	-0.124758
C38	C	1.084071	0.674070	0.375242
C39	C	0.511235	0.172140	-0.124775
C40	C	1.011235	0.672140	0.375225
C41	C	0.474798	0.171162	-0.000182
C42	C	0.974798	0.671162	0.499818
C43	C	0.511200	0.172146	0.124437
C44	C	1.011200	0.672146	0.624437
C45	C	0.584034	0.174088	0.124450
C46	C	1.084034	0.674088	0.624450
N47	N	0.365287	0.096646	0.092543
N48	N	0.865287	0.596646	0.592543
N49	N	0.296098	0.094798	0.092522
N50	N	0.796098	0.594798	0.592522
C51	C	0.255353	0.165311	-0.000215
C52	C	0.755353	0.665311	0.499785
N53	N	0.286411	0.237727	-0.092951
N54	N	0.786411	0.737727	0.407049
N55	N	0.355607	0.239570	-0.092934
N56	N	0.855607	0.739570	0.407066
C57	C	0.395821	0.169056	-0.000183
C58	C	0.895821	0.669056	0.499817
C59	C	0.139981	0.162244	-0.124845
C60	C	0.639981	0.662244	0.375155
C61	C	0.067143	0.160322	-0.124856
C62	C	0.567143	0.660322	0.375144
C63	C	0.067110	0.160315	0.124359
C64	C	0.567110	0.660315	0.624359
C65	C	0.139946	0.162249	0.124367
C66	C	0.639946	0.662249	0.624367
C67	C	0.176377	0.163208	-0.000238
C68	C	0.676377	0.663208	0.499762
C69	C	0.953191	0.157306	-0.000235
C70	C	1.453191	0.657306	0.499765
C71	C	1.030710	0.159345	-0.000262
C72	C	1.530710	0.659345	0.499738
C73	C	0.821603	0.396818	-0.000213
C74	C	1.321603	0.896818	0.499787
C75	C	0.823655	0.536218	-0.000220
C76	C	1.323655	1.036218	0.499780
N77	N	0.825582	0.167187	0.355916
N78	N	1.325582	0.667187	0.855916
N79	N	0.825599	0.167195	-0.356321
N80	N	1.325599	0.667195	0.143679
C81	C	0.872650	0.081582	0.427834
C82	C	1.372650	0.581582	0.927834
C83	C	0.872657	0.081582	0.571717
C84	C	1.372657	0.581582	1.071717
C85	C	0.778526	0.252804	0.571750
C86	C	1.278526	0.752804	1.071750
C87	C	0.778517	0.252797	0.427870
C88	C	1.278517	0.752797	0.927870
H89	H	0.942605	-0.241818	-0.000211
H90	H	1.442605	0.258182	0.499789
H91	H	0.910983	0.011873	0.630270
H92	H	1.410983	0.511873	1.130270
H93	H	0.740185	0.322508	0.369309
H94	H	1.240185	0.822508	0.869309
Cl95	Cl	0.719363	0.360428	0.662213
Cl96	Cl	1.219363	0.860428	1.162213
H97	H	0.481597	0.171347	-0.226244
H98	H	0.981597	0.671347	0.273756
Cl99	Cl	0.185702	0.163469	0.281020
Cl100	Cl	0.685702	0.663469	0.781020
Cl101	Cl	0.931816	-0.026047	0.337384
Cl102	Cl	1.431816	0.473953	0.837384
Cl103	Cl	0.966807	-0.515222	-0.000250
Cl104	Cl	1.466807	-0.015222	0.499750
Cl105	Cl	0.021388	0.159105	-0.281515
Cl106	Cl	0.521388	0.659105	0.218485
H107	H	0.708572	-0.423801	-0.000211
H108	H	1.208572	0.076199	0.499789
Cl109	Cl	0.684362	-0.150365	-0.000196
Cl110	Cl	1.184362	0.349635	0.499804
H111	H	0.037443	0.159526	0.225805
H112	H	0.537443	0.659526	0.725805
H113	H	0.613666	0.174885	0.225920
H114	H	1.113666	0.674885	0.725920
Cl115	Cl	0.465394	0.170924	0.281068
Cl116	Cl	0.965394	0.670924	0.781068
Cl117	Cl	0.629866	0.175282	-0.281404
Cl118	Cl	1.129866	0.675282	0.218596
Cl119	Cl	0.185783	0.163461	-0.281488
Cl120	Cl	0.685783	0.663461	0.218512
