data_functionalizedCrystal
_audit_creation_method	'MofGen! by Chris Wilmer'
_symmetry_space_group_name_H-M	'P1'
_symmetry_Int_Tables_number	1
_symmetry_cell_setting	triclinic
loop_
_symmetry_equiv_pos_as_xyz
  x,y,z
_cell_length_a	17.699077
_cell_length_b	10.654550
_cell_length_c	16.776229
_cell_angle_alpha	89.994543
_cell_angle_beta	89.993415
_cell_angle_gamma	83.882740
loop_
_atom_site_label
_atom_site_type_symbol
_atom_site_fract_x
_atom_site_fract_y
_atom_site_fract_z
O1	O	1.005091	0.158773	-0.066276
O2	O	0.784843	0.179442	-0.066279
O3	O	0.900031	-0.013721	-0.066274
O4	O	0.889903	0.351936	-0.066280
O5	O	0.900015	-0.013732	0.066302
O6	O	0.784828	0.179430	0.066297
O7	O	1.005075	0.158761	0.066301
Zn8	Zn	0.894949	0.169094	0.087348
Zn9	Zn	0.894969	0.169109	-0.087327
O10	O	0.889888	0.351924	0.066296
C11	C	0.756634	0.178697	0.000008
C12	C	0.672601	0.176479	0.000007
C13	C	0.633119	0.175427	0.072275
C14	C	0.554163	0.173323	0.072276
C15	C	0.514690	0.172280	0.000008
C16	C	0.554178	0.173328	-0.072266
C17	C	0.633134	0.175423	-0.072266
C18	C	0.235761	0.164877	-0.072267
C19	C	0.156800	0.162785	-0.072262
C20	C	0.156791	0.162777	0.072275
C21	C	0.235746	0.164872	0.072275
C22	C	0.275228	0.165913	0.000002
C23	C	0.360841	0.168192	0.000001
C24	C	0.429078	0.170009	0.000007
C25	C	0.899279	-0.060511	0.000013
C26	C	0.897055	-0.199916	0.000010
C27	C	0.964875	-0.280591	0.000014
C28	C	0.962780	-0.411575	0.000008
C29	C	0.825038	-0.381196	-0.000001
C30	C	0.827134	-0.250214	-0.000001
C31	C	1.034796	-0.230292	0.000025
C32	C	1.102623	-0.310969	0.000030
C33	C	1.100527	-0.441953	0.000024
C34	C	1.030606	-0.492261	0.000014
C35	C	1.033285	0.159506	0.000011
C36	C	1.117317	0.161724	0.000008
C37	C	0.890639	0.398715	0.000007
C38	C	0.892864	0.538119	0.000005
N39	N	0.894941	0.169082	0.206560
N40	N	0.894984	0.169111	-0.206538
C41	C	0.945962	0.083585	0.248279
C42	C	0.945966	0.083584	0.331731
C43	C	0.894952	0.169087	0.373463
C44	C	0.843926	0.254589	0.331737
C45	C	0.843918	0.254583	0.248287
C46	C	0.843953	0.254613	0.668285
C47	C	0.843966	0.254615	0.751741
C48	C	0.946001	0.083615	0.751729
C49	C	0.945993	0.083609	0.668278
C50	C	0.894964	0.169105	0.626561
C51	C	0.894960	0.169104	0.536072
C52	C	0.894960	0.169096	0.463949
H53	H	0.124635	0.161923	0.131124
O54	O	1.037061	-0.089019	0.000036
H55	H	0.978153	-0.041369	0.000038
O56	O	1.173677	-0.528975	0.000032
H57	H	1.222646	-0.471988	0.000048
O58	O	0.511619	0.172164	0.150248
H59	H	0.533114	0.087001	0.184879
H60	H	0.987506	0.013964	0.214307
O61	O	0.278335	0.166011	-0.150219
H62	H	0.339870	0.167630	-0.138084
O63	O	1.178036	-0.256721	0.000037
H64	H	1.168101	-0.152087	0.000048
H65	H	1.028906	-0.598918	0.000001
O66	O	0.749626	-0.435447	0.000003
H67	H	0.759563	-0.540081	0.000015
H68	H	0.802385	0.324203	0.365720
H69	H	0.802421	0.324245	0.785718
H70	H	0.124664	0.161934	-0.131115
O71	O	0.753987	-0.163186	0.000003
H72	H	0.705015	-0.220164	0.000009
O73	O	1.001009	-0.008608	0.376732
H74	H	1.036491	-0.068045	0.333693
H75	H	0.267880	0.165728	0.131123
H76	H	0.522034	0.172469	-0.131108
O77	O	0.675724	0.176565	-0.150212
H78	H	0.635012	0.175500	-0.200465
O79	O	0.788881	0.346778	0.203279
H80	H	0.821045	0.407738	0.165233
O81	O	1.001035	-0.008617	0.796723
H82	H	0.992467	0.005735	0.861763
O83	O	1.001007	-0.008623	0.623265
H84	H	1.060093	0.007235	0.639265
O85	O	0.675691	0.176569	0.150222
H86	H	0.634969	0.175478	0.200475
H87	H	0.802405	0.324230	0.634325
