data_functionalizedCrystal
_audit_creation_method	'MofGen! by Chris Wilmer'
_symmetry_space_group_name_H-M	'P1'
_symmetry_Int_Tables_number	1
_symmetry_cell_setting	triclinic
loop_
_symmetry_equiv_pos_as_xyz
  x,y,z
_cell_length_a	8.497366
_cell_length_b	11.169417
_cell_length_c	11.169416
_cell_angle_alpha	89.988411
_cell_angle_beta	90.046879
_cell_angle_gamma	89.969226
loop_
_atom_site_label
_atom_site_type_symbol
_atom_site_fract_x
_atom_site_fract_y
_atom_site_fract_z
Zn1	Zn	-0.891917	1.835096	0.477480
Zn2	Zn	-0.628135	1.834946	0.678277
Zn3	Zn	-0.628153	1.634342	0.477611
Zn4	Zn	-0.891875	1.634389	0.678125
O5	O	-0.760020	1.734693	0.577873
O6	O	-0.856936	2.003025	0.504126
O7	O	-0.407375	1.808253	0.651777
O8	O	-0.663167	1.661016	0.309644
O9	O	-0.663137	2.002915	0.651650
O10	O	-0.856953	1.808508	0.309548
O11	O	-0.407388	1.660870	0.504348
O12	O	-0.663126	1.466399	0.504200
O13	O	-1.112644	1.661096	0.651390
O14	O	-0.856882	1.466433	0.651517
O15	O	-1.112674	1.808554	0.503978
O16	O	-0.663096	1.808298	0.846206
O17	O	-0.856865	1.660950	0.846094
C18	C	-0.760002	1.422868	0.577857
C19	C	-0.760032	1.289468	0.577879
C20	C	-0.760008	1.734646	0.889698
C21	C	-0.760056	1.734735	1.023098
C22	C	-0.171501	1.734763	0.577764
C23	C	-0.350144	1.734604	0.578015
C24	C	-0.760039	2.047735	0.577890
C25	C	-0.760047	2.181135	0.577898
C26	C	-0.760067	1.734774	0.264831
C27	C	-0.760087	1.734808	0.131431
