data_functionalizedCrystal
_audit_creation_method	'MofGen! by Chris Wilmer'
_symmetry_space_group_name_H-M	'P1'
_symmetry_Int_Tables_number	1
_symmetry_cell_setting	triclinic
loop_
_symmetry_equiv_pos_as_xyz
  x,y,z
_cell_length_a	17.038272
_cell_length_b	9.065218
_cell_length_c	8.140239
_cell_angle_alpha	89.997198
_cell_angle_beta	90.003853
_cell_angle_gamma	91.936279
loop_
_atom_site_label
_atom_site_type_symbol
_atom_site_fract_x
_atom_site_fract_y
_atom_site_fract_z
O1	O	0.114742	-1.971908	0.136620
O2	O	0.614742	-1.471908	0.636620
O3	O	0.124153	-1.543567	0.136623
O4	O	0.624153	-1.043567	0.636623
O5	O	0.005614	-1.755192	0.136608
O6	O	0.505614	-1.255192	0.636608
O7	O	0.233281	-1.760283	0.136634
O8	O	0.733281	-1.260283	0.636634
O9	O	0.005612	-1.755179	-0.136619
O10	O	0.505612	-1.255179	0.363381
O11	O	0.124152	-1.543555	-0.136605
O12	O	0.624152	-1.043555	0.363395
O13	O	0.114740	-1.971895	-0.136607
O14	O	0.614740	-1.471895	0.363393
Zn15	Zn	0.119446	-1.757723	-0.179986
Zn16	Zn	0.619446	-1.257723	0.320014
Zn17	Zn	0.119448	-1.757740	0.180002
Zn18	Zn	0.619448	-1.257740	0.680002
O19	O	0.233280	-1.760271	-0.136593
O20	O	0.733280	-1.260271	0.363407
C21	C	-0.023549	-1.750555	-0.000005
C22	C	0.476451	-1.250555	0.499995
C23	C	-0.110441	-1.736739	-0.000005
C24	C	0.389559	-1.236739	0.499995
C25	C	0.123248	-1.488484	0.000009
C26	C	0.623248	-0.988484	0.500009
C27	C	0.120544	-1.324369	0.000010
C28	C	0.620544	-0.824369	0.500010
C29	C	0.115646	-2.026979	0.000010
C30	C	0.615646	-1.526979	0.500010
C31	C	0.118350	-2.191093	0.000020
C32	C	0.618350	-1.691093	0.500020
C33	C	-0.159639	-1.863587	-0.000007
C34	C	0.340361	-1.363587	0.499993
C35	C	-0.241284	-1.850596	0.000009
C36	C	0.258716	-1.350596	0.500009
C37	C	-0.273728	-1.710756	0.000015
C38	C	0.226272	-1.210756	0.500015
C39	C	-0.224524	-1.583899	0.000022
C40	C	0.275476	-1.083899	0.500022
C41	C	-0.142881	-1.596891	0.000019
C42	C	0.357119	-1.096891	0.500019
C43	C	-0.519818	-1.664859	0.000038
C44	C	-0.019818	-1.164859	0.500038
C45	C	-0.601467	-1.651876	0.000037
C46	C	-0.101467	-1.151876	0.500037
C47	C	-0.618221	-1.918575	0.000026
C48	C	-0.118221	-1.418575	0.500026
C49	C	-0.536576	-1.931554	0.000012
C50	C	-0.036576	-1.431554	0.500012
C51	C	-0.487379	-1.804697	0.000028
C52	C	0.012621	-1.304697	0.500028
C53	C	-0.357182	-1.697475	0.000026
C54	C	0.142818	-1.197475	0.500026
C55	C	-0.403927	-1.817980	0.000029
C56	C	0.096073	-1.317980	0.500029
C57	C	0.262442	-1.764908	0.000024
C58	C	0.762442	-1.264908	0.500024
C59	C	0.349335	-1.778724	0.000034
C60	C	0.849335	-1.278724	0.500034
N61	N	0.119444	-1.757722	-0.425669
N62	N	0.619444	-1.257722	0.074331
N63	N	0.119443	-1.757751	0.425685
N64	N	0.619443	-1.257751	0.925685
H65	H	-0.133230	-1.977459	-0.000022
H66	H	0.366770	-1.477459	0.499978
H67	H	-0.102824	-1.493597	0.000021
H68	H	0.397176	-0.993597	0.500021
C69	C	-0.295399	-1.990129	-0.000011
C70	C	0.204601	-1.490129	0.499989
H71	H	-0.264383	-2.075272	-0.000039
H72	H	0.235617	-1.575272	0.499961
H73	H	-0.327594	-1.990625	0.095269
H74	H	0.172406	-1.490625	0.595269
H75	H	-0.327598	-1.990588	-0.095304
H76	H	0.172402	-1.490588	0.404696
C77	C	-0.500893	-2.085378	0.000027
C78	C	-0.000893	-1.585378	0.500027
H79	H	-0.541888	-2.159066	0.000045
H80	H	-0.041888	-1.659066	0.500045
H81	H	-0.469394	-2.095991	-0.095250
H82	H	0.030606	-1.595991	0.404750
H83	H	-0.469391	-2.095983	0.095322
H84	H	0.030609	-1.595983	0.595322
C85	C	-0.392870	-1.543656	0.000033
C86	C	0.107130	-1.043656	0.500033
H87	H	-0.351879	-1.469961	0.000042
H88	H	0.148121	-0.969961	0.500042
H89	H	-0.424380	-1.533041	-0.095238
H90	H	0.075620	-1.033041	0.404762
H91	H	-0.424362	-1.533062	0.095334
H92	H	0.075638	-1.033062	0.595334
C93	C	-0.672339	-2.058104	0.000032
C94	C	-0.172339	-1.558104	0.500032
H95	H	-0.725610	-2.030345	0.000051
H96	H	-0.225610	-1.530345	0.500051
H97	H	-0.662407	-2.115026	-0.095244
H98	H	-0.162407	-1.615026	0.404756
H99	H	-0.662395	-2.115017	0.095328
H100	H	-0.162395	-1.615017	0.595328
C101	C	-0.637154	-1.498046	0.000072
C102	C	-0.137154	-0.998046	0.500072
H103	H	-0.596161	-1.424354	0.000101
H104	H	-0.096161	-0.924354	0.500101
H105	H	-0.668660	-1.487415	-0.095203
H106	H	-0.168660	-0.987415	0.404797
H107	H	-0.668650	-1.487465	0.095370
H108	H	-0.168650	-0.987465	0.595370
C109	C	-0.260207	-1.430075	0.000042
C110	C	0.239793	-0.930075	0.500042
H111	H	-0.219210	-1.356390	0.000061
H112	H	0.280790	-0.856390	0.500061
H113	H	-0.291712	-1.419449	-0.095233
H114	H	0.208288	-0.919449	0.404767
H115	H	-0.291701	-1.419478	0.095339
H116	H	0.208299	-0.919478	0.595339
H117	H	-0.479770	-1.561561	0.000050
H118	H	0.020230	-1.061561	0.500050
H119	H	-0.377507	-1.931837	0.000060
H120	H	0.122493	-1.431837	0.500060
