data_functionalizedCrystal
_audit_creation_method	'MofGen! by Chris Wilmer'
_symmetry_space_group_name_H-M	'P1'
_symmetry_Int_Tables_number	1
_symmetry_cell_setting	triclinic
loop_
_symmetry_equiv_pos_as_xyz
  x,y,z
_cell_length_a	18.215407
_cell_length_b	16.959453
_cell_length_c	18.215407
_cell_angle_alpha	90.012290
_cell_angle_beta	90.007771
_cell_angle_gamma	90.017431
loop_
_atom_site_label
_atom_site_type_symbol
_atom_site_fract_x
_atom_site_fract_y
_atom_site_fract_z
Zn1	Zn	1.125027	-0.314866	0.416067
Zn2	Zn	1.625027	0.185134	0.916067
Zn3	Zn	1.124967	-0.447015	0.293000
Zn4	Zn	1.624967	0.052985	0.793000
Zn5	Zn	1.001980	-0.314849	0.293020
Zn6	Zn	1.501980	0.185151	0.793020
Zn7	Zn	1.001936	-0.447001	0.416031
Zn8	Zn	1.501936	0.052999	0.916031
O9	O	1.063478	-0.380933	0.354529
O10	O	1.563478	0.119067	0.854529
O11	O	1.228003	-0.332410	0.399749
O12	O	1.728003	0.167590	0.899749
O13	O	1.108646	-0.429482	0.190019
O14	O	1.608646	0.070518	0.690019
O15	O	1.018347	-0.204240	0.309365
O16	O	1.518347	0.295760	0.809365
O17	O	1.227959	-0.429499	0.309333
O18	O	1.727959	0.070501	0.809333
O19	O	1.108749	-0.204253	0.399768
O20	O	1.608749	0.295747	0.899768
O21	O	1.018288	-0.332380	0.190033
O22	O	1.518288	0.167620	0.690033
O23	O	0.898990	-0.332366	0.309330
O24	O	1.398990	0.167634	0.809330
O25	O	1.018271	-0.429474	0.519020
O26	O	1.518271	0.070526	1.019020
O27	O	0.898958	-0.429457	0.399706
O28	O	1.398958	0.070543	0.899706
O29	O	1.108706	-0.332395	0.519046
O30	O	1.608706	0.167605	1.019046
O31	O	1.108603	-0.557624	0.309297
O32	O	1.608603	-0.057624	0.809297
O33	O	1.018213	-0.557614	0.399687
O34	O	1.518213	-0.057614	0.899687
C35	C	0.872271	-0.380909	0.354516
C36	C	1.372271	0.119091	0.854516
C37	C	0.790473	-0.380917	0.354528
C38	C	1.290473	0.119083	0.854528
C39	C	0.602301	-0.330467	0.401683
C40	C	1.102301	0.169533	0.901683
C41	C	0.525442	-0.330474	0.401685
C42	C	1.025442	0.169526	0.901685
C43	C	0.525407	-0.431421	0.307389
C44	C	1.025407	0.068579	0.807389
C45	C	0.602264	-0.431410	0.307383
C46	C	1.102264	0.068590	0.807383
C47	C	0.640709	-0.380934	0.354534
C48	C	1.140709	0.119066	0.854534
C49	C	0.486993	-0.380952	0.354542
C50	C	0.986993	0.119048	0.854542
C51	C	0.403659	-0.380960	0.354545
C52	C	0.903659	0.119040	0.854545
C53	C	0.724048	-0.380925	0.354531
C54	C	1.224048	0.119075	0.854531
C55	C	1.063416	-0.586299	0.354502
C56	C	1.563416	-0.086299	0.854502
C57	C	1.063457	-0.674156	0.354515
C58	C	1.563457	-0.174156	0.854515
C59	C	1.110610	-1.045579	0.401691
C60	C	1.610610	-0.545579	0.901691
C61	C	1.016551	-1.045683	0.307477
C62	C	1.516551	-0.545683	0.807477
C63	C	1.016523	-0.963137	0.307460
C64	C	1.516523	-0.463137	0.807460
C65	C	1.063539	-0.921809	0.354560
C66	C	1.563539	-0.421809	0.854560
C67	C	1.110583	-0.963026	0.401677
C68	C	1.610583	-0.463026	0.901677
C69	C	0.969476	-0.921914	0.260350
C70	C	1.469476	-0.421914	0.760350
C71	C	0.969446	-0.839363	0.260332
C72	C	1.469446	-0.339363	0.760332
C73	C	1.016466	-0.798033	0.307428
C74	C	1.516466	-0.298033	0.807428
C75	C	1.063512	-0.839255	0.354546
C76	C	1.563512	-0.339255	0.854546
C77	C	1.110528	-0.797927	0.401646
C78	C	1.610528	-0.297927	0.901646
C79	C	1.157578	-0.839147	0.448761
C80	C	1.657578	-0.339147	0.948761
C81	C	1.157603	-0.921696	0.448773
C82	C	1.657603	-0.421696	0.948773
C83	C	1.016441	-0.715484	0.307416
C84	C	1.516441	-0.215484	0.807416
C85	C	1.110501	-0.715373	0.401632
C86	C	1.610501	-0.215373	0.901632
C87	C	1.255431	-0.380958	0.354543
C88	C	1.755431	0.119042	0.854543
C89	C	1.337229	-0.380969	0.354548
C90	C	1.837229	0.119031	0.854548
C91	C	1.063490	-0.380935	0.546482
C92	C	1.563490	0.119065	1.046482
C93	C	1.063496	-0.380936	0.628281
C94	C	1.563496	0.119064	1.128281
C95	C	1.063559	-0.174765	0.354573
C96	C	1.563559	0.325235	0.854573
C97	C	1.063594	-0.086908	0.354591
C98	C	1.563594	0.413092	0.854591
C99	C	1.110570	-0.330395	0.816490
C100	C	1.610570	0.169605	1.316490
C101	C	1.110566	-0.330395	0.893349
C102	C	1.610566	0.169605	1.393349
C103	C	1.016397	-0.431488	0.893310
C104	C	1.516397	0.068512	1.393310
C105	C	1.016398	-0.431484	0.816453
C106	C	1.516398	0.068516	1.316453
C107	C	1.063489	-0.380939	0.778045
C108	C	1.563489	0.119061	1.278045
C109	C	1.063484	-0.380942	0.931761
C110	C	1.563484	0.119058	1.431761
C111	C	1.063479	-0.380942	1.015094
C112	C	1.563479	0.119058	1.515094
C113	C	1.063493	-0.380937	0.694706
C114	C	1.563493	0.119063	1.194706
C115	C	1.063465	-0.380948	1.163323
C116	C	1.563465	0.119052	1.663323
C117	C	1.063477	-0.380945	1.081524
C118	C	1.563477	0.119055	1.581524
H119	H	1.148790	-0.681728	0.439984
H120	H	1.648790	-0.181728	0.939984
H121	H	1.195856	-0.805488	0.487113
H122	H	1.695856	-0.305488	0.987113
F123	F	0.966281	-0.485278	0.775534
F124	F	1.466281	0.014722	1.275534
F125	F	0.643214	-0.276744	0.451862
F126	F	1.143214	0.223256	0.951862
F127	F	0.484568	-0.276759	0.451866
F128	F	0.984568	0.223241	0.951866
H129	H	1.148903	-0.289236	0.924648
H130	H	1.648903	0.210764	1.424648
F131	F	1.160684	-1.089449	0.451829
F132	F	1.660684	-0.589449	0.951829
H133	H	0.978269	-1.079338	0.269134
H134	H	1.478269	-0.579338	0.769134
F135	F	0.919429	-0.965902	0.210239
F136	F	1.419429	-0.465902	0.710239
F137	F	0.484484	-0.485140	0.257212
F138	F	0.984484	0.014860	0.757212
F139	F	0.919370	-0.795500	0.210190
F140	F	1.419370	-0.295500	0.710190
H141	H	0.978059	-0.472642	0.924591
H142	H	1.478059	0.027358	1.424591
H143	H	0.633537	-0.472507	0.268986
H144	H	1.133537	0.027493	0.768986
F145	F	0.966369	-0.671618	0.257278
F146	F	1.466369	-0.171618	0.757278
F147	F	1.207670	-0.965571	0.498914
F148	F	1.707670	-0.465571	0.998914
F149	F	1.160686	-0.276599	0.775616
F150	F	1.660686	0.223401	1.275616
