data_functionalizedCrystal
_audit_creation_method	'MofGen! by Chris Wilmer'
_symmetry_space_group_name_H-M	'P1'
_symmetry_Int_Tables_number	1
_symmetry_cell_setting	triclinic
loop_
_symmetry_equiv_pos_as_xyz
  x,y,z
_cell_length_a	12.837932
_cell_length_b	12.837942
_cell_length_c	15.455301
_cell_angle_alpha	92.720400
_cell_angle_beta	92.721025
_cell_angle_gamma	94.829322
loop_
_atom_site_label
_atom_site_type_symbol
_atom_site_fract_x
_atom_site_fract_y
_atom_site_fract_z
O1	O	1.406832	0.276643	0.072133
O2	O	1.906832	0.776643	0.572133
O3	O	1.103698	0.263198	0.072134
O4	O	1.603698	0.763198	0.572134
O5	O	1.248543	0.118354	0.072128
O6	O	1.748543	0.618354	0.572128
O7	O	1.261987	0.421488	0.072139
O8	O	1.761987	0.921488	0.572139
O9	O	1.239540	0.109360	-0.072135
O10	O	1.739540	0.609360	0.427865
O11	O	1.094695	0.254205	-0.072129
O12	O	1.594695	0.754205	0.427871
O13	O	1.397829	0.267650	-0.072130
O14	O	1.897829	0.767650	0.427870
Cu15	Cu	1.245440	0.260106	-0.085302
Cu16	Cu	1.745440	0.760106	0.414698
Cu17	Cu	1.256087	0.270742	0.085306
Cu18	Cu	1.756087	0.770742	0.585306
O19	O	1.252984	0.412494	-0.072124
O20	O	1.752984	0.912494	0.427876
C21	C	1.060128	0.254160	0.000003
C22	C	1.560128	0.754160	0.500003
C23	C	0.943712	0.240615	0.000003
C24	C	1.443712	0.740615	0.500003
C25	C	0.782686	0.127401	-0.000002
C26	C	1.282686	0.627401	0.499998
C27	C	0.892069	0.140122	-0.000002
C28	C	1.392069	0.640122	0.499998
C29	C	0.885965	0.328394	0.000005
C30	C	1.385965	0.828394	0.500005
C31	C	0.776583	0.315673	0.000004
C32	C	1.276583	0.815673	0.500004
C33	C	0.724947	0.215174	0.000002
C34	C	1.224947	0.715174	0.500002
C35	C	0.615563	0.202455	0.000007
C36	C	1.115563	0.702455	0.500007
C37	C	0.609461	0.390726	0.000007
C38	C	1.109461	0.890726	0.500007
C39	C	0.718843	0.403446	0.000008
C40	C	1.218843	0.903446	0.500008
C41	C	1.239500	0.074788	-0.000003
C42	C	1.739500	0.574788	0.499997
C43	C	1.225956	-0.041627	-0.000001
C44	C	1.725956	0.458373	0.499999
C45	C	1.388787	-0.266499	0.000016
C46	C	1.888787	0.233501	0.500016
C47	C	1.376065	-0.375882	0.000018
C48	C	1.876065	0.124118	0.500018
C49	C	1.187793	-0.369776	0.000009
C50	C	1.687793	0.130224	0.500009
C51	C	1.200515	-0.260394	0.000008
C52	C	1.700515	0.239606	0.500008
C53	C	1.301014	-0.208759	0.000010
C54	C	1.801014	0.291241	0.500010
C55	C	1.313734	-0.099375	0.000002
C56	C	1.813734	0.400625	0.500002
C57	C	1.125464	-0.093271	0.000000
C58	C	1.625464	0.406729	0.500000
C59	C	1.112743	-0.202654	0.000002
C60	C	1.612743	0.297346	0.500002
C61	C	1.441400	0.276688	0.000003
C62	C	1.941400	0.776688	0.500003
C63	C	1.557816	0.290234	0.000008
C64	C	2.057816	0.790234	0.500008
C65	C	1.262027	0.456060	0.000009
C66	C	1.762027	0.956060	0.500009
C67	C	1.275572	0.572476	0.000013
C68	C	1.775572	1.072476	0.500013
N69	N	1.237959	0.252625	-0.205298
N70	N	1.737959	0.752625	0.294702
C71	C	1.304892	0.319599	-0.250686
C72	C	1.804892	0.819599	0.249314
C73	C	1.299248	0.313936	-0.341495
C74	C	1.799248	0.813936	0.158505
C75	C	1.226664	0.241305	-0.386913
C76	C	1.726664	0.741305	0.113087
C77	C	1.159728	0.174324	-0.341518
C78	C	1.659728	0.674324	0.158482
C79	C	1.165378	0.179982	-0.250711
C80	C	1.665378	0.679982	0.249289
C81	C	1.202290	0.216893	-0.658496
C82	C	1.702290	0.716893	-0.158496
C83	C	1.196643	0.211242	-0.749309
C84	C	1.696643	0.711242	-0.249309
C85	C	1.336165	0.350853	-0.749280
C86	C	1.836165	0.850853	-0.249280
C87	C	1.341804	0.356510	-0.658471
C88	C	1.841804	0.856510	-0.158471
C89	C	1.274872	0.289525	-0.613085
C90	C	1.774872	0.789525	-0.113085
N91	N	1.220891	0.235517	-0.479734
N92	N	1.720891	0.735517	0.020266
N93	N	1.280651	0.295308	-0.520265
N94	N	1.780651	0.795308	-0.020265
N95	N	1.263576	0.278215	0.205302
N96	N	1.763576	0.778215	0.705302
H97	H	0.928025	0.410215	-0.000001
H98	H	1.428025	0.910215	0.499999
H99	H	1.105972	-0.411835	0.000017
H100	H	1.605972	0.088165	0.500017
H101	H	1.447539	-0.422890	0.000025
H102	H	1.947539	0.077110	0.500025
Br103	Br	1.390091	0.404833	-0.403091
Br104	Br	1.890091	0.904833	0.096909
Br105	Br	0.976358	-0.272738	0.000010
Br106	Br	1.476358	0.227262	0.500010
H107	H	0.562438	0.462197	0.000011
H108	H	1.062438	0.962197	0.500011
Br109	Br	1.006336	-0.014905	-0.000024
Br110	Br	1.506336	0.485095	0.499976
Br111	Br	0.788929	0.539831	0.000010
Br112	Br	1.288929	1.039831	0.500010
Br113	Br	1.525172	-0.196420	-0.000008
Br114	Br	2.025172	0.303580	0.499992
H115	H	0.740644	0.045572	0.000005
H116	H	1.240644	0.545572	0.500005
Br117	Br	1.450124	-0.029301	-0.000004
Br118	Br	1.950124	0.470699	0.499996
Br119	Br	1.403400	0.418179	-0.189056
Br120	Br	1.903400	0.918179	0.310944
H121	H	1.400912	0.415651	-0.621498
H122	H	1.900912	0.915651	-0.121498
H123	H	1.390658	0.405387	-0.786244
H124	H	1.890658	0.905387	-0.286244
H125	H	1.137531	0.152096	-0.786286
H126	H	1.637531	0.652096	-0.286286
H127	H	1.147789	0.162349	-0.621553
H128	H	1.647789	0.662349	-0.121553
H129	H	1.110874	0.125445	-0.213757
H130	H	1.610874	0.625445	0.286243
Br131	Br	0.545486	0.066066	0.000007
Br132	Br	1.045486	0.566066	0.500007
Br133	Br	1.061224	0.075747	-0.403156
Br134	Br	1.561224	0.575747	0.096844
H135	H	0.939076	0.068648	-0.000005
H136	H	1.439076	0.568648	0.499995
