data_functionalizedCrystal
_audit_creation_method	'MofGen! by Chris Wilmer'
_symmetry_space_group_name_H-M	'P1'
_symmetry_Int_Tables_number	1
_symmetry_cell_setting	triclinic
loop_
_symmetry_equiv_pos_as_xyz
  x,y,z
_cell_length_a	14.971482
_cell_length_b	19.288865
_cell_length_c	13.448316
_cell_angle_alpha	89.988163
_cell_angle_beta	89.993798
_cell_angle_gamma	83.374428
loop_
_atom_site_label
_atom_site_type_symbol
_atom_site_fract_x
_atom_site_fract_y
_atom_site_fract_z
O1	O	1.186460	0.090505	-0.082691
O2	O	1.519793	0.423838	0.250643
O3	O	1.853127	0.757172	0.583976
O4	O	0.926001	0.101347	-0.082697
O5	O	1.259334	0.434681	0.250636
O6	O	1.592668	0.768014	0.583970
O7	O	1.063757	-0.005180	-0.082674
O8	O	1.397090	0.328154	0.250659
O9	O	1.730423	0.661487	0.583993
O10	O	1.048704	0.197032	-0.082714
O11	O	1.382038	0.530365	0.250620
O12	O	1.715371	0.863699	0.583953
O13	O	1.063739	-0.005186	0.082710
O14	O	1.397073	0.328147	0.416043
O15	O	1.730406	0.661480	0.749376
O16	O	0.925984	0.101341	0.082687
O17	O	1.259317	0.434674	0.416020
O18	O	1.592650	0.768007	0.749353
O19	O	1.186443	0.090499	0.082693
O20	O	1.519776	0.423832	0.416026
O21	O	1.853110	0.757165	0.749360
Cu22	Cu	1.056212	0.095919	0.097791
Cu23	Cu	1.389545	0.429252	0.431124
Cu24	Cu	1.722878	0.762586	0.764457
Cu25	Cu	1.056232	0.095927	-0.097795
Cu26	Cu	1.389565	0.429260	0.235539
Cu27	Cu	1.722899	0.762594	0.568872
O28	O	1.048687	0.197026	0.082670
O29	O	1.382021	0.530359	0.416003
O30	O	1.715354	0.863692	0.749337
C31	C	0.892670	0.100860	-0.000006
C32	C	1.226003	0.434193	0.333328
C33	C	1.559337	0.767526	0.666661
C34	C	0.793381	0.099408	-0.000007
C35	C	1.126714	0.432741	0.333326
C36	C	1.460047	0.766075	0.666660
C37	C	0.746730	0.098721	0.090145
C38	C	1.080064	0.432054	0.423478
C39	C	1.413397	0.765387	0.756811
C40	C	0.653439	0.097346	0.090146
C41	C	0.986773	0.430679	0.423479
C42	C	1.320106	0.764012	0.756813
C43	C	0.606800	0.096663	-0.000006
C44	C	0.940133	0.429996	0.333328
C45	C	1.273466	0.763329	0.666661
C46	C	0.653457	0.097348	-0.090164
C47	C	0.986790	0.430681	0.243169
C48	C	1.320123	0.764015	0.576502
C49	C	0.746747	0.098718	-0.090165
C50	C	1.080080	0.432052	0.243169
C51	C	1.413414	0.765385	0.576502
C52	C	0.459010	0.094494	-0.090157
C53	C	0.792344	0.427827	0.243176
C54	C	1.125677	0.761161	0.576509
C55	C	0.365713	0.093125	-0.090158
C56	C	0.699047	0.426459	0.243176
C57	C	1.032380	0.759792	0.576509
C58	C	0.365703	0.093121	0.090153
C59	C	0.699036	0.426455	0.423487
C60	C	1.032369	0.759788	0.756820
C61	C	0.458993	0.094492	0.090153
C62	C	0.792326	0.427825	0.423486
C63	C	1.125660	0.761158	0.756820
C64	C	0.505643	0.095178	-0.000006
C65	C	0.838977	0.428511	0.333327
C66	C	1.172310	0.761845	0.666660
C67	C	1.063264	-0.031061	0.000021
C68	C	1.396597	0.302272	0.333354
C69	C	1.729930	0.635606	0.666687
C70	C	1.061810	-0.108169	0.000030
C71	C	1.395143	0.225164	0.333363
C72	C	1.728476	0.558497	0.666696
C73	C	1.142639	-0.152603	0.000036
C74	C	1.475972	0.180731	0.333370
C75	C	1.809305	0.514064	0.666703
C76	C	1.141273	-0.225054	0.000021
C77	C	1.474606	0.108279	0.333354
C78	C	1.807939	0.441612	0.666687
C79	C	1.059073	-0.253069	0.000018
C80	C	1.392407	0.080264	0.333351
C81	C	1.725740	0.413598	0.666685
C82	C	0.978234	-0.208626	0.000006
C83	C	1.311567	0.124708	0.333339
C84	C	1.644901	0.458041	0.666672
C85	C	0.979602	-0.136176	0.000011
C86	C	1.312936	0.197158	0.333345
C87	C	1.646269	0.530491	0.666678
C88	C	0.994449	-0.361569	0.057947
C89	C	1.327782	-0.028235	0.391280
C90	C	1.661116	0.305098	0.724613
C91	C	0.993084	-0.434018	0.057947
C92	C	1.326418	-0.100684	0.391280
C93	C	1.659751	0.232649	0.724614
C94	C	1.054850	-0.476528	-0.000004
C95	C	1.388183	-0.143195	0.333329
C96	C	1.721517	0.190138	0.666662
C97	C	1.117996	-0.446583	-0.057943
C98	C	1.451329	-0.113249	0.275390
C99	C	1.784662	0.220084	0.608723
C100	C	1.119364	-0.374133	-0.057938
C101	C	1.452697	-0.040799	0.275396
C102	C	1.786031	0.292534	0.608729
C103	C	1.057581	-0.331628	0.000011
C104	C	1.390914	0.001705	0.333344
C105	C	1.724247	0.335039	0.666678
C106	C	1.134203	-0.599523	-0.000016
C107	C	1.467537	-0.266189	0.333317
C108	C	1.800870	0.067144	0.666651
C109	C	1.132834	-0.671975	-0.000038
C110	C	1.466167	-0.338642	0.333295
C111	C	1.799501	-0.005309	0.666629
C112	C	0.969793	-0.655545	-0.000043
C113	C	1.303126	-0.322212	0.333290
C114	C	1.636460	0.011122	0.666624
C115	C	0.971165	-0.583094	-0.000031
C116	C	1.304498	-0.249761	0.333302
C117	C	1.637831	0.083573	0.666636
C118	C	1.053372	-0.555088	-0.000013
C119	C	1.386706	-0.221754	0.333320
C120	C	1.720039	0.111579	0.666654
C121	C	1.219774	0.090986	-0.000001
C122	C	1.553107	0.424320	0.333333
C123	C	1.886440	0.757653	0.666666
C124	C	1.319063	0.092438	-0.000006
C125	C	1.652396	0.425771	0.333328
C126	C	1.985730	0.759105	0.666661
C127	C	1.049180	0.222907	-0.000027
C128	C	1.382514	0.556240	0.333306
C129	C	1.715847	0.889574	0.666640
C130	C	1.050634	0.300015	-0.000042
C131	C	1.383967	0.633348	0.333291
C132	C	1.717301	0.966682	0.666624
N133	N	1.056204	0.095913	0.235355
N134	N	1.389537	0.429247	0.568688
N135	N	1.722871	0.762580	0.902022
N136	N	1.056247	0.095927	-0.235359
N137	N	1.389580	0.429261	0.097974
N138	N	1.722914	0.762594	0.431308
C139	C	1.117221	0.048762	0.287406
C140	C	1.450554	0.382096	0.620739
C141	C	1.783888	0.715429	0.954072
C142	C	1.117226	0.048762	0.391509
C143	C	1.450560	0.382095	0.724842
C144	C	1.783893	0.715429	1.058175
C145	C	1.056219	0.095916	0.443560
C146	C	1.389552	0.429249	0.776893
C147	C	1.722885	0.762583	1.110226
C148	C	0.995195	0.143069	0.391502
C149	C	1.328529	0.476402	0.724835
C150	C	1.661862	0.809736	1.058168
C151	C	0.995186	0.143066	0.287400
C152	C	1.328519	0.476399	0.620734
C153	C	1.661853	0.809732	0.954067
C154	C	0.995220	0.143074	0.608482
C155	C	1.328553	0.476407	0.941815
C156	C	1.661887	0.809740	1.275149
C157	C	0.995230	0.143078	0.712590
C158	C	1.328563	0.476411	1.045924
C159	C	1.661897	0.809745	1.379257
C160	C	1.117260	0.048770	0.712590
C161	C	1.450594	0.382103	1.045924
C162	C	1.783927	0.715437	1.379257
C163	C	1.117251	0.048767	0.608489
C164	C	1.450585	0.382100	0.941822
C165	C	1.783918	0.715433	1.275156
C166	C	1.056229	0.095921	0.556438
C167	C	1.389562	0.429254	0.889772
C168	C	1.722895	0.762587	1.223105
H169	H	0.615476	0.096787	-0.163567
H170	H	0.948809	0.430121	0.169766
H171	H	1.282143	0.763454	0.503099
H172	H	1.166947	0.010375	0.754976
H173	H	1.500280	0.343709	1.088309
H174	H	1.833613	0.677042	1.421643
H175	H	0.615463	0.096774	0.163557
H176	H	0.948796	0.430108	0.496890
H177	H	1.282130	0.763441	0.830224
H178	H	0.913780	-0.099997	0.000006
H179	H	1.247113	0.233336	0.333339
H180	H	1.580446	0.566670	0.666673
H181	H	0.784728	0.099279	-0.163576
H182	H	1.118062	0.432613	0.169758
H183	H	1.451395	0.765946	0.503091
H184	H	1.198657	-0.708153	-0.000038
H185	H	1.531991	-0.374820	0.333295
H186	H	1.865324	-0.041486	0.666629
H187	H	0.941663	-0.458393	0.105119
H188	H	1.274997	-0.125060	0.438452
H189	H	1.608330	0.208274	0.771785
F190	F	1.186562	-0.342265	-0.119603
F191	F	1.519896	-0.008931	0.213730
F192	F	1.853229	0.324402	0.547063
H193	H	0.945499	0.181460	0.245022
H194	H	1.278832	0.514793	0.578355
H195	H	1.612165	0.848126	0.911688
H196	H	0.945550	0.181475	0.754965
H197	H	1.278884	0.514808	1.088298
H198	H	1.612217	0.848142	1.421632
F199	F	0.508657	0.095222	-0.186116
F200	F	0.841991	0.428556	0.147218
F201	F	1.175324	0.761889	0.480551
H202	H	1.209578	-0.129805	0.000048
H203	H	1.542912	0.203528	0.333381
H204	H	1.876245	0.536862	0.666714
F205	F	0.316053	0.092391	0.186108
F206	F	0.649386	0.425724	0.519442
F207	F	0.982720	0.759058	0.852775
H208	H	1.168291	-0.481194	-0.105134
H209	H	1.501624	-0.147861	0.228200
H210	H	1.834958	0.185473	0.561533
H211	H	1.201142	-0.576719	-0.000006
H212	H	1.534475	-0.243385	0.333327
H213	H	1.867808	0.089948	0.666661
F214	F	1.182159	-0.001423	0.232019
F215	F	1.515493	0.331910	0.565352
F216	F	1.848826	0.665244	0.898686
H217	H	0.902865	-0.678354	-0.000050
H218	H	1.236198	-0.345020	0.333283
H219	H	1.569532	-0.011687	0.666617
H220	H	1.207095	-0.261239	0.000022
H221	H	1.540428	0.072094	0.333355
H222	H	1.873762	0.405428	0.666689
F223	F	0.508628	0.095225	0.186102
F224	F	0.841961	0.428559	0.519436
F225	F	1.175294	0.761892	0.852769
F226	F	0.885134	-0.535802	-0.000034
F227	F	1.218468	-0.202469	0.333299
F228	F	1.551801	0.130864	0.666632
H229	H	0.945517	0.181460	0.433888
H230	H	1.278850	0.514794	0.767221
H231	H	1.612184	0.848127	1.100554
H232	H	1.166910	0.010368	0.433888
H233	H	1.500244	0.343701	0.767221
H234	H	1.833577	0.677034	1.100555
F235	F	0.928706	-0.316332	0.119633
F236	F	1.262039	0.017001	0.452966
F237	F	1.595373	0.350335	0.786299
F238	F	0.890752	-0.238442	-0.000004
F239	F	1.224085	0.094892	0.333330
F240	F	1.557418	0.428225	0.666663
F241	F	0.930269	0.193259	0.553090
F242	F	1.263602	0.526592	0.886423
F243	F	1.596936	0.859926	1.219757
H244	H	1.166933	0.010374	0.566109
H245	H	1.500266	0.343707	0.899443
H246	H	1.833599	0.677040	1.232776
F247	F	0.316078	0.092397	-0.186107
F248	F	0.649411	0.425731	0.147227
F249	F	0.982744	0.759064	0.480560
H250	H	0.784697	0.099282	0.163557
H251	H	1.118030	0.432616	0.496890
H252	H	1.451364	0.765949	0.830224
