data_functionalizedCrystal
_audit_creation_method	'MofGen! by Chris Wilmer'
_symmetry_space_group_name_H-M	'P1'
_symmetry_Int_Tables_number	1
_symmetry_cell_setting	triclinic
loop_
_symmetry_equiv_pos_as_xyz
  x,y,z
_cell_length_a	10.723023
_cell_length_b	19.188930
_cell_length_c	9.198806
_cell_angle_alpha	89.991701
_cell_angle_beta	89.996513
_cell_angle_gamma	83.806164
loop_
_atom_site_label
_atom_site_type_symbol
_atom_site_fract_x
_atom_site_fract_y
_atom_site_fract_z
O1	O	1.655156	0.097919	-0.120896
O2	O	1.291809	0.107293	-0.120904
O3	O	1.483968	0.001019	-0.120871
O4	O	1.462997	0.204194	-0.120928
O5	O	1.483952	0.001018	0.120914
O6	O	1.291794	0.107293	0.120881
O7	O	1.655141	0.097919	0.120889
Cu8	Cu	1.473466	0.102606	0.142962
Cu9	Cu	1.473484	0.102606	-0.142977
O10	O	1.462982	0.204193	0.120857
C11	C	1.245316	0.106611	-0.000012
C12	C	1.106804	0.104570	-0.000014
C13	C	1.045043	0.103660	0.125237
C14	C	0.901883	0.101551	0.125238
C15	C	1.483281	-0.024997	0.000025
C16	C	1.481242	-0.102515	0.000038
C17	C	1.593995	-0.146706	0.000047
C18	C	1.592080	-0.219542	0.000024
C19	C	1.477405	-0.248184	0.000020
C20	C	1.364638	-0.203983	0.000003
C21	C	1.366557	-0.131148	0.000012
N22	N	1.389746	-0.356758	0.082303
N23	N	1.387931	-0.425949	0.082297
C24	C	1.471618	-0.467630	-0.000009
N25	N	1.557208	-0.437508	-0.082292
N26	N	1.559027	-0.368312	-0.082280
C27	C	1.475313	-0.327160	0.000010
C28	C	1.582302	-0.590799	-0.000027
C29	C	1.580382	-0.663637	-0.000059
C30	C	1.352937	-0.648076	-0.000066
C31	C	1.354861	-0.575240	-0.000048
C32	C	1.469546	-0.546606	-0.000022
C33	C	1.701634	0.098601	-0.000006
C34	C	1.840146	0.100642	-0.000014
C35	C	1.463668	0.230209	-0.000043
C36	C	1.465707	0.307727	-0.000065
N37	N	1.473462	0.102605	0.344076
N38	N	1.473497	0.102601	-0.344091
C39	C	1.554148	0.057787	0.416287
C40	C	1.554168	0.057784	0.583699
H41	H	1.098153	0.104439	0.232468
F42	F	1.644202	0.007510	0.335102
H43	H	0.893250	0.101428	-0.107251
H44	H	1.271269	-0.227307	-0.000003
F45	F	0.832464	0.100534	0.265404
F46	F	1.037394	0.103543	-0.140178
F47	F	1.704359	-0.560323	0.000008
H48	H	1.404419	0.140977	0.593821
H49	H	1.687381	-0.123398	0.000064
F50	F	1.383181	0.152754	0.425261
F51	F	1.644468	0.007633	0.664862
H52	H	1.683899	-0.255530	0.000026
H53	H	1.672203	-0.699617	-0.000060
H54	H	1.274737	-0.095167	0.000004
H55	H	1.259567	-0.671395	-0.000076
H56	H	1.263045	-0.539258	-0.000048
