data_functionalizedCrystal
_audit_creation_method	'MofGen! by Chris Wilmer'
_symmetry_space_group_name_H-M	'P1'
_symmetry_Int_Tables_number	1
_symmetry_cell_setting	triclinic
loop_
_symmetry_equiv_pos_as_xyz
  x,y,z
_cell_length_a	18.215407
_cell_length_b	13.897448
_cell_length_c	18.215398
_cell_angle_alpha	90.021215
_cell_angle_beta	89.983001
_cell_angle_gamma	89.982988
loop_
_atom_site_label
_atom_site_type_symbol
_atom_site_fract_x
_atom_site_fract_y
_atom_site_fract_z
Zn1	Zn	1.125096	0.384115	-0.416089
Zn2	Zn	1.125017	0.545417	-0.293032
Zn3	Zn	1.002030	0.384131	-0.293042
Zn4	Zn	1.002006	0.545362	-0.416062
O5	O	1.063537	0.464756	-0.354556
O6	O	1.228070	0.405528	-0.399772
O7	O	1.108679	0.524052	-0.190049
O8	O	1.018398	0.249147	-0.309380
O9	O	1.228012	0.524036	-0.309363
O10	O	1.108814	0.249135	-0.399782
O11	O	1.018321	0.405555	-0.190056
O12	O	0.899042	0.405502	-0.309353
O13	O	1.018358	0.523943	-0.519050
O14	O	0.899025	0.523958	-0.399736
O15	O	1.108792	0.405475	-0.519070
O16	O	1.108656	0.680392	-0.309336
O17	O	1.018281	0.680351	-0.399726
C18	C	0.872331	0.464727	-0.354543
C19	C	0.790532	0.464737	-0.354555
C20	C	0.602368	0.403157	-0.401706
C21	C	0.525509	0.403165	-0.401708
C22	C	0.525459	0.526383	-0.307419
C23	C	0.602316	0.526369	-0.307414
C24	C	0.640769	0.464757	-0.354561
C25	C	0.487053	0.464779	-0.354569
C26	C	0.403719	0.464789	-0.354572
C27	C	0.724108	0.464746	-0.354558
C28	C	1.063477	0.715371	-0.354543
C29	C	1.063519	0.822584	-0.354563
C30	C	1.063591	1.018879	-0.354616
C31	C	1.063549	0.909647	-0.354588
C32	C	1.255490	0.464787	-0.354569
C33	C	1.337289	0.464800	-0.354575
C34	C	1.063611	1.213163	-0.354594
C35	C	1.063627	1.105949	-0.354632
C36	C	1.063581	0.464701	-0.546509
C37	C	1.063600	0.464677	-0.628308
C38	C	1.110683	0.526259	-0.893366
C39	C	1.110671	0.526293	-0.816508
C40	C	1.016572	0.402909	-0.816498
C41	C	1.016580	0.402881	-0.893356
C42	C	1.063640	0.464555	-0.931788
C43	C	1.063620	0.464616	-0.778072
C44	C	1.063608	0.464652	-0.694738
C45	C	1.063651	0.464520	-1.015127
C46	C	1.063536	0.464742	-0.163350
C47	C	1.063660	0.464494	-0.081551
H48	H	0.494246	0.353002	-0.440097
H49	H	0.494142	0.576545	-0.269034
H50	H	0.633673	0.352986	-0.440094
H51	H	0.633583	0.576532	-0.269019
H52	H	0.978268	0.352633	-0.924639
C53	C	1.162443	0.594110	-0.935639
N54	N	1.201429	0.645221	-0.967476
C55	C	1.162438	0.594152	-0.774247
N56	N	1.201436	0.645260	-0.742418
C57	C	0.964821	0.335056	-0.774216
N58	N	0.925846	0.283941	-0.742370
