data_functionalizedCrystal
_audit_creation_method	'MofGen! by Chris Wilmer'
_symmetry_space_group_name_H-M	'P1'
_symmetry_Int_Tables_number	1
_symmetry_cell_setting	triclinic
loop_
_symmetry_equiv_pos_as_xyz
  x,y,z
_cell_length_a	13.339070
_cell_length_b	13.930277
_cell_length_c	14.853559
_cell_angle_alpha	89.997639
_cell_angle_beta	80.369626
_cell_angle_gamma	90.007456
loop_
_atom_site_label
_atom_site_type_symbol
_atom_site_fract_x
_atom_site_fract_y
_atom_site_fract_z
O1	O	1.342907	0.079847	-0.452123
O2	O	1.842907	0.579847	0.047877
O3	O	1.048298	0.079844	-0.392779
O4	O	1.548298	0.579844	0.107221
O5	O	1.203476	0.079845	-0.293182
O6	O	1.703476	0.579845	0.206818
O7	O	1.187728	0.079847	-0.551721
O8	O	1.687728	0.579847	-0.051721
O9	O	1.203455	-0.079817	-0.293174
O10	O	1.703455	0.420183	0.206826
O11	O	1.048277	-0.079818	-0.392771
O12	O	1.548277	0.420182	0.107229
O13	O	1.342885	-0.079814	-0.452115
O14	O	1.842885	0.420186	0.047885
Zn15	Zn	1.195577	-0.105166	-0.422442
Zn16	Zn	1.695577	0.394834	0.077558
Zn17	Zn	1.195606	0.105196	-0.422453
Zn18	Zn	1.695606	0.605196	0.077547
O19	O	1.187707	-0.079815	-0.551712
O20	O	1.687707	0.420185	-0.051712
C21	C	1.010584	0.000013	-0.382751
C22	C	1.510584	0.500013	0.117249
C23	C	0.898242	0.000012	-0.352871
C24	C	1.398242	0.500012	0.147129
N25	N	1.195565	-0.248732	-0.422435
N26	N	1.695565	0.251268	0.077565
C27	C	0.533767	0.000028	-0.585203
C28	C	1.033767	0.500028	-0.085203
C29	C	0.639318	0.000033	-0.613280
C30	C	1.139318	0.500033	-0.113280
C31	C	0.704054	0.000027	-0.548180
C32	C	1.204054	0.500027	-0.048180
C33	C	0.663229	0.000018	-0.454999
C34	C	1.163229	0.500018	0.045001
C35	C	0.557667	0.000022	-0.426919
C36	C	1.057667	0.500022	0.073081
C37	C	0.727954	0.000020	-0.389896
C38	C	1.227954	0.500020	0.110104
C39	C	0.687129	0.000011	-0.296714
C40	C	1.187129	0.500011	0.203286
C41	C	0.581577	0.000014	-0.268640
C42	C	1.081577	0.500014	0.231360
C43	C	0.516842	0.000019	-0.333740
C44	C	1.016842	0.500019	0.166260
C45	C	0.833516	0.000017	-0.417975
C46	C	1.333516	0.500017	0.082025
C47	C	0.857416	0.000010	-0.259691
C48	C	1.357416	0.500010	0.240309
C49	C	0.751865	0.000005	-0.231615
C50	C	1.251865	0.500005	0.268385
C51	C	1.126890	-0.701002	-0.466530
C52	C	1.626890	-0.201002	0.033470
C53	C	1.264349	-0.700970	-0.378376
C54	C	1.764349	-0.200970	0.121624
C55	C	1.264337	-0.600475	-0.378370
C56	C	1.764337	-0.100475	0.121630
C57	C	1.195602	-0.550238	-0.422446
C58	C	1.695602	-0.050238	0.077554
C59	C	1.126878	-0.600497	-0.466528
C60	C	1.626878	-0.100497	0.033472
C61	C	1.333066	-0.550208	-0.334296
C62	C	1.833066	-0.050208	0.165704
C63	C	1.333058	-0.449706	-0.334290
C64	C	1.833058	0.050294	0.165710
C65	C	1.264317	-0.399468	-0.378361
C66	C	1.764317	0.100532	0.121639
C67	C	1.195589	-0.449733	-0.422443
C68	C	1.695589	0.050267	0.077557
C69	C	1.126854	-0.399496	-0.466519
C70	C	1.626854	0.100504	0.033481
C71	C	1.058121	-0.449759	-0.510597
C72	C	1.558121	0.050241	-0.010597
C73	C	1.058137	-0.550258	-0.510599
C74	C	1.558137	-0.050258	-0.010599
C75	C	1.264301	-0.298969	-0.378359
C76	C	1.764301	0.201031	0.121641
C77	C	1.126842	-0.298991	-0.466517
C78	C	1.626842	0.201009	0.033483
C79	C	1.380599	0.000019	-0.462143
C80	C	1.880599	0.500019	0.037857
C81	C	1.492941	0.000026	-0.492024
C82	C	1.992941	0.500026	0.007976
C83	C	1.202753	0.000016	-0.259412
C84	C	1.702753	0.500016	0.240588
C85	C	1.200620	0.000021	-0.158796
C86	C	1.700620	0.500021	0.341204
N87	N	1.195626	0.248762	-0.422454
N88	N	1.695626	0.748762	0.077546
C89	C	1.188430	0.000016	-0.585483
C90	C	1.688430	0.500016	-0.085483
C91	C	1.190563	0.000017	-0.686098
C92	C	1.690563	0.500017	-0.186098
C93	C	1.191580	0.087053	0.266628
C94	C	1.691580	0.587053	0.766628
C95	C	1.191556	-0.087017	0.266632
C96	C	1.691556	0.412983	0.766632
C97	C	1.193570	-0.087018	0.172098
C98	C	1.693570	0.412982	0.672098
C99	C	1.194586	0.000018	0.124824
C100	C	1.694586	0.500018	0.624824
C101	C	1.193590	0.087055	0.172086
C102	C	1.693590	0.587055	0.672086
C103	C	1.194556	-0.174052	0.124831
C104	C	1.694556	0.325948	0.624831
C105	C	1.196568	-0.174057	0.030291
C106	C	1.696568	0.325943	0.530291
C107	C	1.197592	-0.087020	-0.016986
C108	C	1.697592	0.412980	0.483014
C109	C	1.196597	0.000020	0.030281
C110	C	1.696597	0.500020	0.530281
C111	C	1.197614	0.087056	-0.016992
C112	C	1.697614	0.587056	0.483008
C113	C	1.196626	0.174097	0.030272
C114	C	1.696626	0.674097	0.530272
C115	C	1.194614	0.174091	0.124809
C116	C	1.694614	0.674091	0.624809
C117	C	1.199603	-0.087015	-0.111523
C118	C	1.699603	0.412985	0.388477
C119	C	1.199624	0.087058	-0.111535
C120	C	1.699624	0.587058	0.388465
H121	H	0.866745	0.000020	-0.493844
H122	H	1.366745	0.500020	0.006156
H123	H	1.002160	-0.408845	-0.546489
H124	H	1.502160	0.091155	-0.046489
Cl125	Cl	0.530256	0.000035	-0.151497
Cl126	Cl	1.030256	0.500035	0.348503
H127	H	0.789998	0.000033	-0.571046
H128	H	1.289998	0.500033	-0.071046
Cl129	Cl	1.040483	-0.764184	-0.521935
Cl130	Cl	1.540483	-0.264184	-0.021935
H131	H	0.430892	0.000016	-0.310884
H132	H	0.930892	0.500016	0.189116
H133	H	1.002178	-0.591188	-0.546486
H134	H	1.502178	-0.091188	-0.046486
H135	H	1.190722	-0.157877	0.305129
H136	H	1.690722	0.342123	0.805129
H137	H	1.193809	0.244955	0.163301
H138	H	1.693809	0.744955	0.663301
Cl139	Cl	0.690635	0.000048	-0.730416
Cl140	Cl	1.190635	0.500048	-0.230416
Cl141	Cl	1.200843	-0.196428	-0.170936
Cl142	Cl	1.700843	0.303572	0.329064
Cl143	Cl	1.350763	-0.764122	-0.322975
Cl144	Cl	1.850763	-0.264122	0.177025
Cl145	Cl	1.419480	-0.613360	-0.278896
Cl146	Cl	1.919480	-0.113360	0.221104
H147	H	1.193722	-0.244912	0.163328
H148	H	1.693722	0.255088	0.663328
H149	H	1.320267	-0.258049	-0.342477
H150	H	1.820267	0.241951	0.157523
H151	H	1.070865	-0.258094	-0.502405
H152	H	1.570865	0.241906	-0.002405
H153	H	1.197446	0.244961	-0.008229
H154	H	1.697446	0.744961	0.491771
Cl155	Cl	1.419458	-0.386525	-0.278876
Cl156	Cl	1.919458	0.113475	0.221124
Cl157	Cl	1.190349	0.196470	0.326042
Cl158	Cl	1.690349	0.696470	0.826042
H159	H	1.200456	0.157934	-0.150019
H160	H	1.700456	0.657934	0.349981
H161	H	0.718609	0.000006	-0.155745
H162	H	1.218609	0.500006	0.344255
Cl163	Cl	1.197806	-0.283477	-0.029118
Cl164	Cl	1.697806	0.216523	0.470882
H165	H	0.481051	0.000041	-0.638197
H166	H	0.981051	0.500041	-0.138197
Cl167	Cl	0.938791	0.000010	-0.177846
Cl168	Cl	1.438791	0.500010	0.322154
