data_functionalizedCrystal
_audit_creation_method	'MofGen! by Chris Wilmer'
_symmetry_space_group_name_H-M	'P1'
_symmetry_Int_Tables_number	1
_symmetry_cell_setting	triclinic
loop_
_symmetry_equiv_pos_as_xyz
  x,y,z
_cell_length_a	11.792241
_cell_length_b	9.065218
_cell_length_c	8.140239
_cell_angle_alpha	89.998314
_cell_angle_beta	90.001855
_cell_angle_gamma	95.395350
loop_
_atom_site_label
_atom_site_type_symbol
_atom_site_fract_x
_atom_site_fract_y
_atom_site_fract_z
O1	O	1.508028	-0.202221	0.136574
O2	O	1.841361	0.131112	0.469907
O3	O	2.174694	0.464445	0.803241
O4	O	1.177802	-0.223063	0.136584
O5	O	1.511135	0.110271	0.469917
O6	O	1.844469	0.443604	0.803250
O7	O	1.349740	0.002064	0.136575
O8	O	1.683074	0.335398	0.469909
O9	O	2.016407	0.668731	0.803242
O10	O	1.336089	-0.427349	0.136582
O11	O	1.669422	-0.094015	0.469916
O12	O	2.002756	0.239318	0.803249
O13	O	1.349731	0.002067	-0.136652
O14	O	1.683064	0.335400	0.196681
O15	O	2.016398	0.668734	0.530015
O16	O	1.177792	-0.223060	-0.136644
O17	O	1.511126	0.110273	0.196690
O18	O	1.844459	0.443606	0.530023
O19	O	1.508018	-0.202219	-0.136653
O20	O	1.841351	0.131114	0.196680
O21	O	2.174685	0.464448	0.530013
Zn22	Zn	1.342904	-0.212639	-0.180029
Zn23	Zn	1.676237	0.120694	0.153304
Zn24	Zn	2.009570	0.454028	0.486638
Zn25	Zn	1.342916	-0.212643	0.179959
Zn26	Zn	1.676250	0.120691	0.513293
Zn27	Zn	2.009583	0.454024	0.846626
O28	O	1.336079	-0.427346	-0.136645
O29	O	1.669413	-0.094013	0.196689
O30	O	2.002746	0.239321	0.530022
C31	C	1.135499	-0.221752	-0.000029
C32	C	1.468832	0.111581	0.333305
C33	C	1.802166	0.444914	0.666638
C34	C	1.009464	-0.217834	-0.000025
C35	C	1.342797	0.115499	0.333309
C36	C	1.676130	0.448833	0.666642
C37	C	1.550321	-0.203529	-0.000037
C38	C	1.883654	0.129804	0.333296
C39	C	2.216988	0.463137	0.666629
C40	C	1.676356	-0.207448	-0.000030
C41	C	2.009690	0.125886	0.333303
C42	C	2.343023	0.459219	0.666636
C43	C	1.348424	0.057040	-0.000036
C44	C	1.681757	0.390373	0.333298
C45	C	2.015090	0.723707	0.666631
C46	C	1.344501	0.220846	-0.000028
C47	C	1.677834	0.554179	0.333306
C48	C	2.011167	0.887513	0.666639
C49	C	1.907108	-0.214653	-0.000031
C50	C	2.240442	0.118680	0.333302
C51	C	2.573775	0.452014	0.666636
C52	C	1.778701	-0.210650	-0.000031
C53	C	2.112034	0.122684	0.333302
C54	C	2.445368	0.456017	0.666636
C55	C	1.337396	-0.482322	-0.000030
C56	C	1.670730	-0.148988	0.333303
C57	C	2.004063	0.184345	0.666636
C58	C	1.341319	-0.646128	-0.000028
C59	C	1.674652	-0.312794	0.333306
C60	C	2.007986	0.020539	0.666639
N61	N	1.342903	-0.212636	-0.425712
N62	N	1.676237	0.120697	-0.092378
N63	N	2.009570	0.454031	0.240955
N64	N	1.342926	-0.212634	0.425642
N65	N	1.676259	0.120699	0.758975
N66	N	2.009592	0.454033	1.092309
