data_functionalizedCrystal
_audit_creation_method	'MofGen! by Chris Wilmer'
_symmetry_space_group_name_H-M	'P1'
_symmetry_Int_Tables_number	1
_symmetry_cell_setting	triclinic
loop_
_symmetry_equiv_pos_as_xyz
  x,y,z
_cell_length_a	18.101398
_cell_length_b	18.050589
_cell_length_c	18.050582
_cell_angle_alpha	89.981795
_cell_angle_beta	89.994346
_cell_angle_gamma	90.023777
loop_
_atom_site_label
_atom_site_type_symbol
_atom_site_fract_x
_atom_site_fract_y
_atom_site_fract_z
Zn1	Zn	1.132106	-0.295795	-0.419751
Zn2	Zn	1.132017	-0.419978	-0.295571
Zn3	Zn	1.008274	-0.295797	-0.295596
Zn4	Zn	1.008222	-0.419938	-0.419739
O5	O	1.070155	-0.357877	-0.357664
O6	O	1.235727	-0.312284	-0.403273
O7	O	1.115586	-0.403523	-0.191650
O8	O	1.024759	-0.191872	-0.312080
O9	O	1.235662	-0.403521	-0.312038
O10	O	1.115738	-0.191870	-0.403297
O11	O	1.024673	-0.312287	-0.191668
O12	O	0.904634	-0.312248	-0.312069
O13	O	1.024671	-0.403452	-0.523666
O14	O	0.904596	-0.403454	-0.403277
O15	O	1.115688	-0.312245	-0.523674
O16	O	1.115536	-0.523897	-0.312027
O17	O	1.024584	-0.523868	-0.403253
C18	C	0.877744	-0.357848	-0.357675
C19	C	0.795430	-0.357853	-0.357697
C20	C	0.496339	-0.357897	-0.357666
C21	C	0.527665	-0.415558	-0.414768
C22	C	0.613283	-0.415378	-0.415003
C23	C	0.644721	-0.357876	-0.357681
C24	C	0.613662	-0.279656	-0.379063
C25	C	0.528017	-0.280002	-0.379469
C26	C	0.527893	-0.377765	-0.279044
C27	C	0.613543	-0.379481	-0.279464
C28	C	0.728581	-0.357859	-0.357689
C29	C	0.412479	-0.357908	-0.357660
C30	C	1.070065	-0.550829	-0.357652
C31	C	1.070095	-0.633375	-0.357672
C32	C	1.020684	-0.832836	-0.407263
C33	C	1.002637	-0.882269	-0.339499
C34	C	1.070167	-0.784505	-0.357681
C35	C	1.088251	-0.882154	-0.425453
C36	C	1.070236	-0.930490	-0.357697
C37	C	1.052085	-0.832850	-0.289881
C38	C	1.137730	-0.832731	-0.375881
C39	C	1.119709	-0.882142	-0.308070
C40	C	1.070126	-0.700407	-0.357673
C41	C	1.070278	-1.014587	-0.357697
C42	C	1.263316	-0.357907	-0.357654
C43	C	1.345630	-0.357919	-0.357650
C44	C	1.070184	-0.357844	-0.551370
C45	C	1.070196	-0.357830	-0.633916
C46	C	1.070264	-0.164171	-0.357693
C47	C	1.070311	-0.081625	-0.357705
C48	C	1.020739	-0.407361	-0.833362
C49	C	1.088304	-0.425519	-0.882744
C50	C	1.070232	-0.357773	-0.785046
C51	C	1.002704	-0.339594	-0.882746
C52	C	1.070262	-0.357720	-0.931031
C53	C	1.137833	-0.375967	-0.833341
C54	C	1.052188	-0.290010	-0.833339
C55	C	1.119800	-0.308143	-0.882699
C56	C	1.070215	-0.357806	-0.700948
C57	C	1.070287	-0.357687	-1.015128
C58	C	1.070168	-0.357856	-0.164712
C59	C	1.070299	-0.357661	-0.082167
H60	H	0.506150	-0.402580	-0.472685
F61	F	0.927994	-0.910708	-0.319378
H62	H	0.634026	-0.235530	-0.338769
F63	F	0.501414	-0.322870	-0.223432
F64	F	0.640079	-0.398196	-0.491145
H65	H	0.633851	-0.437040	-0.263338
F66	F	1.032044	-0.804663	-0.214953
H67	H	0.634944	-0.340532	-0.234634
F68	F	0.965909	-0.804536	-0.461992
H69	H	0.506284	-0.433827	-0.259612
F70	F	1.174446	-0.910261	-0.253213
H71	H	1.103584	-0.482802	-0.904444
F72	F	0.640733	-0.491200	-0.397512
F73	F	0.928046	-0.319524	-0.911113
H74	H	1.194969	-0.391386	-0.811730
F75	F	0.501917	-0.257976	-0.454594
H76	H	0.507053	-0.473752	-0.401518
H77	H	1.194821	-0.810958	-0.391294
F78	F	0.500930	-0.221945	-0.327479
F79	F	1.174585	-0.253303	-0.910839
H80	H	1.103518	-0.903811	-0.482761
F81	F	0.966082	-0.462241	-0.805045
H82	H	1.036889	-0.232744	-0.811622
H83	H	0.635121	-0.262499	-0.435914
