data_functionalizedCrystal
_audit_creation_method	'MofGen! by Chris Wilmer'
_symmetry_space_group_name_H-M	'P1'
_symmetry_Int_Tables_number	1
_symmetry_cell_setting	triclinic
loop_
_symmetry_equiv_pos_as_xyz
  x,y,z
_cell_length_a	18.050582
_cell_length_b	13.897449
_cell_length_c	13.897448
_cell_angle_alpha	90.018519
_cell_angle_beta	89.979070
_cell_angle_gamma	89.983584
loop_
_atom_site_label
_atom_site_type_symbol
_atom_site_fract_x
_atom_site_fract_y
_atom_site_fract_z
Zn1	Zn	-0.419951	1.474636	-0.384055
Zn2	Zn	-0.295764	1.474550	-0.545349
Zn3	Zn	-0.295772	1.313345	-0.384072
Zn4	Zn	-0.419909	1.313307	-0.545312
O5	O	-0.357849	1.393960	-0.464697
O6	O	-0.403491	1.609606	-0.405459
O7	O	-0.191841	1.453145	-0.523979
O8	O	-0.312264	1.334793	-0.249088
O9	O	-0.312252	1.609543	-0.523962
O10	O	-0.403498	1.453293	-0.249076
O11	O	-0.191846	1.334709	-0.405489
O12	O	-0.312225	1.178358	-0.405453
O13	O	-0.523840	1.334728	-0.523898
O14	O	-0.403428	1.178330	-0.523915
O15	O	-0.523870	1.453256	-0.405423
O16	O	-0.312212	1.453109	-0.680326
O17	O	-0.403421	1.334644	-0.680299
C18	C	-0.357823	1.143345	-0.464682
C19	C	-0.357830	1.036131	-0.464699
C20	C	-0.357842	0.949061	-0.464702
C21	C	-0.357865	0.839829	-0.464709
C22	C	-0.551555	1.393997	-0.464654
C23	C	-0.634100	1.394013	-0.464636
C24	C	-0.833535	1.329607	-0.528975
C25	C	-0.882928	1.417615	-0.552552
C26	C	-0.785231	1.394061	-0.464563
C27	C	-0.882919	1.306102	-0.440959
C28	C	-0.931216	1.394099	-0.464493
C29	C	-0.833537	1.482115	-0.488186
C30	C	-0.833524	1.370542	-0.376551
C31	C	-0.882895	1.458611	-0.400095
C32	C	-0.701133	1.394038	-0.464605
C33	C	-1.015313	1.394132	-0.464451
C34	C	-0.164897	1.393977	-0.464670
C35	C	-0.082351	1.394148	-0.464417
C36	C	-0.357827	1.393889	-0.715311
C37	C	-0.357843	1.393947	-0.822525
C38	C	-0.357875	1.645552	-0.464713
C39	C	-0.357887	1.752766	-0.464719
C40	C	-0.357890	1.394049	-1.018820
C41	C	-0.357866	1.393989	-0.909588
C42	C	-0.357887	1.394056	-0.213104
C43	C	-0.357903	1.394098	-0.105890
H44	H	-0.811862	1.275152	-0.583517
H45	H	-0.904611	1.231700	-0.421023
H46	H	-0.904629	1.437531	-0.626952
C47	C	-0.804363	1.582667	-0.515188
H48	H	-0.751733	1.582034	-0.515066
H49	H	-0.821669	1.628468	-0.469671
H50	H	-0.821679	1.599525	-0.577488
C51	C	-0.911997	1.532345	-0.326473
H52	H	-0.894997	1.594785	-0.343374
H53	H	-0.894333	1.516158	-0.264165
H54	H	-0.964624	1.531594	-0.326478
C55	C	-0.804178	1.343604	-0.276077
H56	H	-0.821056	1.281042	-0.259424
H57	H	-0.821814	1.388765	-0.230134
H58	H	-0.751554	1.344364	-0.276693
