data_functionalizedCrystal
_audit_creation_method	'MofGen! by Chris Wilmer'
_symmetry_space_group_name_H-M	'P1'
_symmetry_Int_Tables_number	1
_symmetry_cell_setting	triclinic
loop_
_symmetry_equiv_pos_as_xyz
  x,y,z
_cell_length_a	16.959455
_cell_length_b	16.959454
_cell_length_c	16.959447
_cell_angle_alpha	89.978286
_cell_angle_beta	90.023646
_cell_angle_gamma	90.004016
loop_
_atom_site_label
_atom_site_type_symbol
_atom_site_fract_x
_atom_site_fract_y
_atom_site_fract_z
Zn1	Zn	-1.208489	-0.314771	-0.447153
Zn2	Zn	-0.708489	0.185229	0.052847
Zn3	Zn	-1.208455	-0.446964	-0.314994
Zn4	Zn	-0.708455	0.053036	0.185006
Zn5	Zn	-1.076317	-0.314792	-0.314969
Zn6	Zn	-0.576317	0.185208	0.185031
Zn7	Zn	-1.076326	-0.446900	-0.447111
Zn8	Zn	-0.576326	0.053100	0.052889
O9	O	-1.142397	-0.380857	-0.381057
O10	O	-0.642397	0.119143	0.118943
O11	O	-1.319095	-0.332325	-0.429649
O12	O	-0.819095	0.167675	0.070351
O13	O	-1.190909	-0.429466	-0.204380
O14	O	-0.690909	0.070534	0.295620
O15	O	-1.093860	-0.204178	-0.332510
O16	O	-0.593860	0.295822	0.167490
O17	O	-1.319071	-0.429446	-0.332553
O18	O	-0.819071	0.070554	0.167447
O19	O	-1.190966	-0.204163	-0.429625
O20	O	-0.690966	0.295837	0.070375
O21	O	-1.093828	-0.332360	-0.204361
O22	O	-0.593828	0.167640	0.295639
O23	O	-0.965707	-0.332298	-0.332470
O24	O	-0.465707	0.167702	0.167530
O25	O	-1.093875	-0.429338	-0.557727
O26	O	-0.593875	0.070662	-0.057727
O27	O	-0.965714	-0.429358	-0.429554
O28	O	-0.465714	0.070642	0.070446
O29	O	-1.190975	-0.332263	-0.557758
O30	O	-0.690975	0.167737	-0.057758
O31	O	-1.190918	-0.557566	-0.332513
O32	O	-0.690918	-0.057566	0.167487
O33	O	-1.093843	-0.557520	-0.429579
O34	O	-0.593843	-0.057520	0.070421
C35	C	-0.937030	-0.380824	-0.381005
C36	C	-0.437030	0.119176	0.118995
C37	C	-0.849174	-0.380829	-0.381002
C38	C	-0.349174	0.119171	0.118998
C39	C	-0.477675	-0.431354	-0.330435
C40	C	0.022325	0.068646	0.169565
C41	C	-0.477722	-0.330378	-0.431699
C42	C	0.022278	0.169622	0.068301
C43	C	-0.560268	-0.330368	-0.431684
C44	C	-0.060268	0.169632	0.068316
C45	C	-0.601521	-0.380853	-0.381045
C46	C	-0.101521	0.119147	0.118955
C47	C	-0.560228	-0.431347	-0.330420
C48	C	-0.060228	0.068653	0.169580
C49	C	-0.601566	-0.279880	-0.482314
C50	C	-0.101566	0.220120	0.017686
C51	C	-0.684117	-0.279868	-0.482302
C52	C	-0.184117	0.220132	0.017698
C53	C	-0.725372	-0.330349	-0.431658
C54	C	-0.225372	0.169651	0.068342
C55	C	-0.684074	-0.380846	-0.381031
C56	C	-0.184074	0.119154	0.118969
C57	C	-0.725328	-0.431330	-0.330391
C58	C	-0.225328	0.068670	0.169609
C59	C	-0.684032	-0.481823	-0.279759
C60	C	-0.184032	0.018177	0.220241
C61	C	-0.601483	-0.481829	-0.279776
C62	C	-0.101483	0.018171	0.220224
C63	C	-0.807921	-0.330344	-0.431641
C64	C	-0.307921	0.169656	0.068359
C65	C	-0.807881	-0.431323	-0.330377
C66	C	-0.307881	0.068677	0.169623
C67	C	-1.142399	-0.586223	-0.381061
C68	C	-0.642399	-0.086223	0.118939
C69	C	-1.142472	-0.674080	-0.381090
C70	C	-0.642472	-0.174080	0.118910
C71	C	-0.348565	-0.380882	-0.381094
C72	C	0.151435	0.119118	0.118906
C73	C	-0.436422	-0.380870	-0.381074
C74	C	0.063578	0.119130	0.118926
C75	C	-1.142430	-0.380791	-0.587225
C76	C	-0.642430	0.119209	-0.087225
C77	C	-1.142444	-0.380764	-0.675081
C78	C	-0.642444	0.119236	-0.175081
C79	C	-1.142416	-0.174689	-0.381069
C80	C	-0.642416	0.325311	0.118931
C81	C	-1.142424	-0.086832	-0.381075
C82	C	-0.642424	0.413168	0.118925
C83	C	-1.193027	0.284654	-0.431651
C84	C	-0.693027	0.784654	0.068349
C85	C	-1.091910	0.284633	-0.330525
C86	C	-0.591910	0.784633	0.169475
C87	C	-1.091898	0.202087	-0.330522
C88	C	-0.591898	0.702087	0.169478
C89	C	-1.142452	0.160821	-0.381084
C90	C	-0.642452	0.660821	0.118916
C91	C	-1.193018	0.202100	-0.431648
C92	C	-0.693018	0.702100	0.068352
C93	C	-1.041339	0.160802	-0.279952
C94	C	-0.541339	0.660802	0.220048
C95	C	-1.041326	0.078251	-0.279947
C96	C	-0.541326	0.578251	0.220053
C97	C	-1.091877	0.036983	-0.330513
C98	C	-0.591877	0.536983	0.169487
C99	C	-1.142444	0.078267	-0.381081
C100	C	-0.642444	0.578267	0.118919
C101	C	-1.192998	0.037001	-0.431642
C102	C	-0.692998	0.537001	0.068358
C103	C	-1.243562	0.078284	-0.482215
C104	C	-0.743562	0.578284	0.017785
C105	C	-1.243569	0.160832	-0.482215
C106	C	-0.743569	0.660832	0.017785
C107	C	-1.091870	-0.045565	-0.330513
C108	C	-0.591870	0.454435	0.169487
C109	C	-1.192990	-0.045553	-0.431639
C110	C	-0.692990	0.454447	0.068361
C111	C	-1.091983	-0.431222	-1.046544
C112	C	-0.591983	0.068778	-0.546544
C113	C	-1.193093	-0.330138	-1.046571
C114	C	-0.693093	0.169862	-0.546571
C115	C	-1.193072	-0.330155	-0.964025
C116	C	-0.693072	0.169845	-0.464025
C117	C	-1.142507	-0.380707	-0.922735
C118	C	-0.642507	0.119293	-0.422735
C119	C	-1.091962	-0.431242	-0.963990
C120	C	-0.591962	0.068758	-0.463990
C121	C	-1.243622	-0.279626	-0.922763
C122	C	-0.743622	0.220374	-0.422763
C123	C	-1.243603	-0.279641	-0.840212
C124	C	-0.743603	0.220359	-0.340212
C125	C	-1.193033	-0.330190	-0.798920
C126	C	-0.693033	0.169810	-0.298920
C127	C	-1.142486	-0.380727	-0.840181
C128	C	-0.642486	0.119273	-0.340181
C129	C	-1.091920	-0.431279	-0.798891
C130	C	-0.591920	0.068721	-0.298891
C131	C	-1.041368	-0.481812	-0.840150
C132	C	-0.541368	0.018188	-0.340150
C133	C	-1.041391	-0.481791	-0.922699
C134	C	-0.541391	0.018209	-0.422699
C135	C	-1.193009	-0.330211	-0.716372
C136	C	-0.693009	0.169789	-0.216372
C137	C	-1.091899	-0.431299	-0.716337
C138	C	-0.591899	0.068701	-0.216337
C139	C	-1.142409	-0.380865	-0.175690
C140	C	-0.642409	0.119135	0.324310
C141	C	-1.142549	-0.380670	-0.087834
C142	C	-0.642549	0.119330	0.412166
H143	H	-0.717631	-0.522932	-0.238533
H144	H	-0.217631	-0.022932	0.261467
H145	H	-1.050754	0.318235	-0.289354
H146	H	-0.550754	0.818235	0.210646
Cl147	Cl	-1.028315	-0.097460	-0.266937
Cl148	Cl	-0.528315	0.402540	0.233063
H149	H	-1.000183	0.194404	-0.238782
H150	H	-0.500183	0.694404	0.261218
Cl151	Cl	-1.307150	-0.216112	-0.788351
Cl152	Cl	-0.807150	0.283888	-0.288351
H153	H	-1.234170	-0.289070	-0.682782
H154	H	-0.734170	0.210930	-0.182782
H155	H	-1.284727	0.044674	-0.523378
H156	H	-0.784727	0.544674	-0.023378
Cl157	Cl	-1.256583	0.336549	-0.495230
Cl158	Cl	-0.756583	0.836549	0.004770
Cl159	Cl	-1.307191	-0.216085	-0.974674
Cl160	Cl	-0.807191	0.283915	-0.474674
H161	H	-0.567852	-0.522937	-0.238554
H162	H	-0.067852	-0.022937	0.261446
H163	H	-1.234152	-0.079146	-0.472820
H164	H	-0.734152	0.420854	0.027180
H165	H	-1.284737	0.194450	-0.523388
H166	H	-0.784737	0.694450	-0.023388
H167	H	-1.050822	-0.472363	-1.080141
H168	H	-0.550822	0.027637	-0.580141
H169	H	-0.841464	-0.472432	-0.289137
H170	H	-0.341464	0.027568	0.210863
H171	H	-0.444048	-0.472462	-0.289209
H172	H	0.055952	0.027538	0.210791
H173	H	-1.000153	0.044645	-0.238768
H174	H	-0.500153	0.544645	0.261232
H175	H	-0.444128	-0.289280	-0.472931
H176	H	0.055872	0.210720	0.027069
Cl177	Cl	-0.549702	-0.216429	-0.545980
Cl178	Cl	-0.049702	0.283571	-0.045980
H179	H	-0.717734	-0.238754	-0.523529
H180	H	-0.217734	0.261246	-0.023529
Cl181	Cl	-1.028322	-0.494850	-0.664436
Cl182	Cl	-0.528322	0.005150	-0.164436
H183	H	-1.000201	-0.522976	-0.806521
H184	H	-0.500201	-0.022976	-0.306521
H185	H	-0.841540	-0.289235	-0.472866
H186	H	-0.341540	0.210765	0.027134
H187	H	-1.000237	-0.522935	-0.956299
H188	H	-0.500237	-0.022935	-0.456299
Cl189	Cl	-1.256664	-0.266596	-1.098479
Cl190	Cl	-0.756664	0.233404	-0.598479
