data_functionalizedCrystal
_audit_creation_method	'MofGen! by Chris Wilmer'
_symmetry_space_group_name_H-M	'P1'
_symmetry_Int_Tables_number	1
_symmetry_cell_setting	triclinic
loop_
_symmetry_equiv_pos_as_xyz
  x,y,z
_cell_length_a	13.032831
_cell_length_b	17.077402
_cell_length_c	17.077396
_cell_angle_alpha	90.029784
_cell_angle_beta	82.809156
_cell_angle_gamma	97.172756
loop_
_atom_site_label
_atom_site_type_symbol
_atom_site_fract_x
_atom_site_fract_y
_atom_site_fract_z
Zn1	Zn	1.597631	0.465146	-0.595967
Zn2	Zn	2.097631	0.965146	-0.095967
Zn3	Zn	1.597508	0.596409	-0.464687
Zn4	Zn	2.097508	1.096409	0.035313
Zn5	Zn	1.422874	0.448477	-0.448074
Zn6	Zn	1.922874	0.948477	0.051926
Zn7	Zn	1.422832	0.579673	-0.579277
Zn8	Zn	1.922832	1.079673	-0.079277
O9	O	1.510211	0.522426	-0.522001
O10	O	2.010211	1.022426	-0.022001
O11	O	1.743854	0.496538	-0.592490
O12	O	2.243854	0.996538	-0.092490
O13	O	1.574308	0.576813	-0.352633
O14	O	2.074308	1.076813	0.147367
O15	O	1.446126	0.340848	-0.467725
O16	O	1.946126	0.840848	0.032275
O17	O	1.743763	0.592977	-0.496039
O18	O	2.243763	1.092977	0.003961
O19	O	1.574519	0.353094	-0.576382
O20	O	2.074519	0.853094	-0.076382
O21	O	1.446006	0.468128	-0.340428
O22	O	1.946006	0.968128	0.159572
O23	O	1.276629	0.451900	-0.451541
O24	O	1.776629	0.951900	0.048459
O25	O	1.446053	0.564453	-0.691341
O26	O	1.946053	1.064453	-0.191341
O27	O	1.276598	0.548290	-0.547935
O28	O	1.776598	1.048290	-0.047935
O29	O	1.574478	0.480310	-0.703604
O30	O	2.074478	0.980310	-0.203604
O31	O	1.574267	0.704029	-0.479855
O32	O	2.074267	1.204029	0.020145
O33	O	1.445933	0.691734	-0.564044
O34	O	1.945933	1.191734	-0.064044
C35	C	1.238696	0.496471	-0.496125
C36	C	1.738696	0.996471	0.003875
C37	C	1.122540	0.485386	-0.485074
C38	C	1.622540	0.985386	0.014926
C39	C	1.070766	0.528212	-0.527769
C40	C	1.570766	1.028212	-0.027769
C41	C	0.950714	0.516756	-0.516348
C42	C	1.450714	1.016756	-0.016348
C43	C	1.510110	0.726365	-0.521960
C44	C	2.010110	1.226365	-0.021960
C45	C	1.510163	0.813619	-0.521978
C46	C	2.010163	1.313619	-0.021978
C47	C	1.510274	0.522374	-0.726752
C48	C	2.010274	1.022374	-0.226752
C49	C	1.510301	0.522352	-0.814004
C50	C	2.010301	1.022352	-0.314004
C51	C	1.782787	0.548484	-0.547979
C52	C	2.282787	1.048484	-0.047979
C53	C	1.898943	0.559588	-0.559049
C54	C	2.398943	1.059588	-0.059049
C55	C	1.510341	0.317694	-0.522062
C56	C	2.010341	0.817694	-0.022062
C57	C	1.510396	0.230450	-0.522088
C58	C	2.010396	0.730450	-0.022088
C59	C	1.577054	0.860992	-0.478201
C60	C	2.077054	1.360992	0.021799
C61	C	1.577106	0.942978	-0.478226
C62	C	2.077106	1.442978	0.021774
C63	C	1.510259	0.977588	-0.522024
C64	C	2.010259	1.477588	-0.022024
C65	C	1.443364	0.930209	-0.565806
C66	C	1.943364	1.430209	-0.065806
C67	C	1.443319	0.848226	-0.565785
C68	C	1.943319	1.348226	-0.065785
C69	C	1.443461	1.101088	-0.565845
C70	C	1.943461	1.601088	-0.065845
C71	C	1.443505	1.183077	-0.565865
C72	C	1.943505	1.683077	-0.065865
C73	C	1.577247	1.195840	-0.478286
C74	C	2.077247	1.695840	0.021714
C75	C	1.577202	1.113857	-0.478265
C76	C	2.077202	1.613857	0.021735
C77	C	1.510306	1.066483	-0.522046
C78	C	2.010306	1.566483	-0.022046
C79	C	1.577175	0.478535	-0.861381
C80	C	2.077175	0.978535	-0.361381
C81	C	1.577187	0.478510	-0.943363
C82	C	2.077187	0.978510	-0.443363
C83	C	1.510331	0.522307	-0.977966
C84	C	2.010331	1.022307	-0.477966
C85	C	1.443451	0.566126	-0.930583
C86	C	1.943451	1.066126	-0.430583
C87	C	1.443433	0.566146	-0.848603
C88	C	1.943433	1.066146	-0.348603
C89	C	1.443493	0.566083	-1.101457
C90	C	1.943493	1.066083	-0.601457
C91	C	1.443511	0.566064	-1.183444
C92	C	1.943511	1.066064	-0.683444
C93	C	1.577246	0.478447	-1.196217
C94	C	2.077246	0.978447	-0.696217
C95	C	1.577229	0.478467	-1.114237
C96	C	2.077229	0.978467	-0.614237
C97	C	1.510350	0.522287	-1.066859
C98	C	2.010350	1.022287	-0.566859
C99	C	1.510208	0.522427	-0.318053
C100	C	2.010208	1.022427	0.181947
C101	C	1.510384	0.522247	-0.230821
C102	C	2.010384	1.022247	0.269179
H103	H	1.631575	0.981546	-0.442578
H104	H	2.131575	1.481546	0.057422
H105	H	1.631484	0.832818	-0.442532
H106	H	2.131484	1.332818	0.057468
H107	H	1.631675	0.442809	-1.086065
H108	H	2.131675	0.942809	-0.586065
O109	O	1.371350	0.613338	-1.050355
O110	O	1.871350	1.113338	-0.550355
H111	H	1.389238	0.676654	-1.067773
H112	H	1.889238	1.176654	-0.567773
O113	O	1.129785	0.588003	-0.587397
O114	O	1.629785	1.088003	-0.087397
H115	H	1.108877	0.647618	-0.571863
H116	H	1.608877	1.147618	-0.071863
O117	O	1.371384	0.613284	-1.220769
O118	O	1.871384	1.113284	-0.720769
H119	H	1.418126	0.657689	-1.262566
H120	H	1.918126	1.157689	-0.762566
H121	H	1.077987	0.440236	-0.440069
H122	H	1.577987	0.940236	0.059931
O123	O	1.371330	0.613358	-0.967902
O124	O	1.871330	1.113358	-0.467902
H125	H	1.418080	0.657762	-1.009695
H126	H	1.918080	1.157762	-0.509695
H127	H	0.943490	0.604733	-0.604066
H128	H	1.443490	1.104733	-0.104066
H129	H	1.388991	1.062519	-0.601500
H130	H	1.888991	1.562519	-0.101500
O131	O	1.649302	1.076522	-0.431031
O132	O	2.149302	1.576522	0.068969
H133	H	1.695836	1.123236	-0.400598
H134	H	2.195836	1.623236	0.099402
H135	H	1.388941	0.958395	-0.601471
H136	H	1.888941	1.458395	-0.101471
O137	O	0.891709	0.456947	-0.456727
O138	O	1.391709	0.956947	0.043273
H139	H	0.947896	0.427314	-0.427193
H140	H	1.447896	0.927314	0.072807
O141	O	1.649290	0.431295	-0.824066
O142	O	2.149290	0.931295	-0.324066
H143	H	1.702436	0.471520	-0.791783
H144	H	2.202436	0.971520	-0.291783
O145	O	1.649413	1.246929	-0.431071
O146	O	2.149413	1.746929	0.068929
H147	H	1.638228	1.309753	-0.438451
H148	H	2.138228	1.809753	0.061549
H149	H	1.388968	0.601818	-0.810028
H150	H	1.888968	1.101818	-0.310028
H151	H	1.631644	0.442832	-0.981934
H152	H	2.131644	0.942832	-0.481934
H153	H	1.389092	1.211256	-0.601546
H154	H	1.889092	1.711256	-0.101546
O155	O	1.649371	0.431175	-1.247313
O156	O	2.149371	0.931175	-0.747313
H157	H	1.702515	0.471377	-1.289731
H158	H	2.202515	0.971377	-0.789731
H159	H	1.388851	0.809655	-0.601434
H160	H	1.888851	1.309655	-0.101434
