data_functionalizedCrystal
_audit_creation_method	'MofGen! by Chris Wilmer'
_symmetry_space_group_name_H-M	'P1'
_symmetry_Int_Tables_number	1
_symmetry_cell_setting	triclinic
loop_
_symmetry_equiv_pos_as_xyz
  x,y,z
_cell_length_a	12.759401
_cell_length_b	14.908520
_cell_length_c	14.909241
_cell_angle_alpha	90.159742
_cell_angle_beta	86.686839
_cell_angle_gamma	93.320696
loop_
_atom_site_label
_atom_site_type_symbol
_atom_site_fract_x
_atom_site_fract_y
_atom_site_fract_z
Zn1	Zn	1.619654	-0.328607	-0.528982
Zn2	Zn	1.599318	-0.487661	-0.387295
Zn3	Zn	1.433271	-0.337320	-0.378647
Zn4	Zn	1.434399	-0.478927	-0.537612
O5	O	1.521661	-0.408129	-0.458134
O6	O	1.763978	-0.349715	-0.510195
O7	O	1.568308	-0.475020	-0.260323
O8	O	1.466034	-0.210337	-0.391358
O9	O	1.749036	-0.466571	-0.406097
O10	O	1.602969	-0.203936	-0.501809
O11	O	1.446314	-0.364565	-0.253970
O12	O	1.286400	-0.356096	-0.399727
O13	O	1.467957	-0.451685	-0.662292
O14	O	1.287229	-0.460133	-0.516518
O15	O	1.604063	-0.341245	-0.655952
O16	O	1.569402	-0.612330	-0.414466
O17	O	1.448238	-0.605913	-0.524903
C18	C	1.248693	-0.408113	-0.458121
C19	C	1.131917	-0.408127	-0.458138
C20	C	1.077502	-0.462397	-0.518861
C21	C	0.967778	-0.462407	-0.518872
C22	C	0.966894	-0.353876	-0.397427
C23	C	1.076616	-0.353861	-0.397422
C24	C	1.078011	-0.525059	-0.588974
C25	C	0.968287	-0.525070	-0.588984
C26	C	1.506765	-0.641746	-0.471579
C27	C	1.500492	-0.741686	-0.477361
C28	C	1.615016	-0.936101	-0.373319
C29	C	1.609124	-1.030004	-0.378749
C30	C	1.482823	-1.023397	-0.493654
C31	C	1.488715	-0.929494	-0.488224
C32	C	1.554812	-0.885849	-0.428054
C33	C	1.560697	-0.791945	-0.422620
C34	C	1.434403	-0.785339	-0.537529
C35	C	1.428511	-0.879243	-0.542959
C36	C	1.795694	-0.408145	-0.458148
C37	C	1.912470	-0.408152	-0.458154
C38	C	1.538405	-0.394519	-0.692659
C39	C	1.545540	-0.388719	-0.792599
C40	C	1.536644	-0.173599	-0.444656
C41	C	1.543029	-0.073656	-0.438913
C42	C	1.417222	-0.492841	-0.987003
C43	C	1.423923	-0.487395	-1.080906
C44	C	1.565646	-0.372385	-1.074311
C45	C	1.558945	-0.377831	-0.980408
C46	C	1.484730	-0.438061	-0.936757
C47	C	1.478025	-0.443502	-0.842852
C48	C	1.619752	-0.328497	-0.836258
C49	C	1.626453	-0.323050	-0.930162
C50	C	1.505046	-0.421621	-0.224518
C51	C	1.498131	-0.427168	-0.124564
H52	H	0.932737	-0.595774	-0.574226
O53	O	1.397970	-0.508457	-0.795778
H54	H	1.439008	-0.556687	-0.755617
O55	O	0.907229	-0.295365	-0.331941
H56	H	0.933873	-0.223911	-0.343417
H57	H	1.113948	-0.502472	-0.657575
H58	H	1.686880	-0.274016	-0.965715
O59	O	1.115164	-0.614546	-0.560828
H60	H	1.046128	-0.662003	-0.545916
O61	O	1.674068	-1.084212	-0.319728
H62	H	1.621145	-1.129715	-0.276426
O63	O	1.337164	-0.557785	-0.939917
H64	H	1.351952	-0.627316	-0.961985
H65	H	1.368952	-0.532004	-1.121814
H66	H	1.674717	-0.283886	-0.795338
O67	O	1.645652	-0.307411	-1.121418
H68	H	1.699584	-0.345161	-1.166532
O69	O	1.135311	-0.295339	-0.331919
H70	H	1.078419	-0.257623	-0.289692
H71	H	1.429017	-1.058949	-0.542647
H72	H	1.614514	-0.756410	-0.373624
H73	H	1.374699	-0.914791	-0.591950
H74	H	0.940571	-0.496397	-0.653753
H75	H	1.668827	-0.900565	-0.324320
O76	O	1.369465	-0.731142	-0.596574
H77	H	1.384667	-0.658512	-0.582695
