data_functionalizedCrystal
_audit_creation_method	'MofGen! by Chris Wilmer'
_symmetry_space_group_name_H-M	'P1'
_symmetry_Int_Tables_number	1
_symmetry_cell_setting	triclinic
loop_
_symmetry_equiv_pos_as_xyz
  x,y,z
_cell_length_a	17.077404
_cell_length_b	19.077068
_cell_length_c	17.077396
_cell_angle_alpha	92.267122
_cell_angle_beta	89.980499
_cell_angle_gamma	92.327269
loop_
_atom_site_label
_atom_site_type_symbol
_atom_site_fract_x
_atom_site_fract_y
_atom_site_fract_z
Zn1	Zn	1.187475	-0.280197	-0.456376
Zn2	Zn	1.182097	-0.397901	-0.330375
Zn3	Zn	1.056205	-0.280222	-0.325125
Zn4	Zn	1.050892	-0.397859	-0.461596
O5	O	1.119167	-0.339045	-0.393368
O6	O	1.296608	-0.295818	-0.439674
O7	O	1.165371	-0.382318	-0.219833
O8	O	1.078093	-0.181727	-0.338154
O9	O	1.292657	-0.382294	-0.347101
O10	O	1.174536	-0.181709	-0.434583
O11	O	1.072878	-0.295860	-0.215976
O12	O	0.945654	-0.295819	-0.343216
O13	O	1.069036	-0.382223	-0.570750
O14	O	0.941750	-0.382247	-0.443481
O15	O	1.169383	-0.295777	-0.566914
O16	O	1.160218	-0.496386	-0.352163
O17	O	1.063822	-0.496356	-0.448571
C18	C	0.915220	-0.339032	-0.393346
C19	C	0.827970	-0.339043	-0.393356
C20	C	0.784964	-0.384114	-0.445486
C21	C	0.702984	-0.384116	-0.445499
C22	C	0.664010	-0.339050	-0.393376
C23	C	0.707021	-0.293974	-0.341243
C24	C	0.789000	-0.293969	-0.341235
C25	C	0.536151	-0.293988	-0.341263
C26	C	0.454166	-0.293993	-0.341270
C27	C	0.450134	-0.384134	-0.445526
C28	C	0.532113	-0.384130	-0.445518
C29	C	0.575119	-0.339055	-0.393384
C30	C	1.110881	-0.521909	-0.401521
C31	C	1.107408	-0.600139	-0.405035
C32	C	1.156004	-0.636884	-0.356533
C33	C	1.152742	-0.710389	-0.359843
C34	C	1.100880	-0.747148	-0.411651
C35	C	1.052283	-0.710398	-0.460158
C36	C	1.055549	-0.636894	-0.456852
C37	C	1.085729	-0.966982	-0.426921
C38	C	1.082465	-1.040491	-0.430222
C39	C	1.182926	-1.040478	-0.329907
C40	C	1.186184	-0.966973	-0.326602
C41	C	1.137590	-0.930229	-0.375112
N42	N	1.097543	-0.822282	-0.415033
N43	N	1.140931	-0.855096	-0.371733
C44	C	1.323911	-0.339058	-0.393391
C45	C	1.411160	-0.339064	-0.393400
C46	C	1.119217	-0.338993	-0.598110
C47	C	1.119238	-0.338971	-0.685359
C48	C	1.127507	-0.155467	-0.385201
C49	C	1.131061	-0.077237	-0.381720
C50	C	1.171491	-0.293955	-0.724353
C51	C	1.171501	-0.293931	-0.806332
C52	C	1.119262	-0.338928	-0.849316
C53	C	1.067004	-0.383946	-0.810317
C54	C	1.066990	-0.383965	-0.728339
C55	C	1.067038	-0.383904	-0.981185
C56	C	1.067052	-0.383885	-1.063169
C57	C	1.171549	-0.293870	-1.059179
C58	C	1.171535	-0.293889	-0.977201
C59	C	1.119277	-0.338908	-0.938207
C60	C	1.119165	-0.339046	-0.189420
C61	C	1.119305	-0.338869	-0.102163
H62	H	1.198232	-0.606960	-0.314342
H63	H	0.422436	-0.257288	-0.298836
H64	H	0.816690	-0.420815	-0.487928
H65	H	1.222490	-1.070403	-0.290414
C66	C	1.026280	-1.080495	-0.486525
C67	C	1.068829	-1.122647	-0.538751
C68	C	1.017099	-1.159517	-0.590616
H69	H	0.997784	-1.048169	-0.515024
H70	H	0.990830	-1.109252	-0.457777
H71	H	1.104265	-1.093893	-0.567496
H72	H	1.097323	-1.154987	-0.510275
H73	H	0.981649	-1.188274	-0.561868
H74	H	0.988605	-1.127185	-0.619109
H75	H	1.045960	-1.188126	-0.626053
H76	H	1.046160	-0.937071	-0.466418
C77	C	0.656430	-0.433137	-0.502121
C78	C	0.708107	-0.472623	-0.547744
C79	C	0.665250	-0.517800	-0.599905
H80	H	0.625672	-0.406343	-0.535257
H81	H	0.623068	-0.463804	-0.473415
H82	H	0.741455	-0.441960	-0.576447
H83	H	0.738865	-0.499432	-0.514629
H84	H	0.631888	-0.548467	-0.571199
H85	H	0.634494	-0.491000	-0.633035
H86	H	0.700305	-0.544601	-0.630861
H87	H	0.563843	-0.420830	-0.487957
H88	H	1.010059	-0.740332	-0.502345
H89	H	1.024468	-0.420581	-0.845321
C90	C	1.010236	-0.432928	-0.686144
C91	C	0.964509	-0.472349	-0.741333
C92	C	0.912226	-0.517470	-0.702494
H93	H	0.977175	-0.406096	-0.652957
H94	H	1.038855	-0.463639	-0.655557
H95	H	0.935892	-0.441642	-0.771907
H96	H	0.997548	-0.499195	-0.774522
H97	H	0.940845	-0.548180	-0.671907
H98	H	0.879171	-0.490632	-0.669308
H99	H	0.881199	-0.544226	-0.739933
H100	H	1.214032	-0.257315	-0.689361
H101	H	1.024513	-0.420524	-1.098164
C102	C	1.228407	-0.245075	-1.101478
C103	C	1.305375	-0.260424	-1.082257
C104	C	1.357772	-0.215500	-1.121222
H105	H	1.219173	-0.197762	-1.085970
H106	H	1.220981	-0.251512	-1.156464
H107	H	1.312798	-0.253980	-1.027283
H108	H	1.314634	-0.307728	-1.097767
H109	H	1.350347	-0.221937	-1.176208
H110	H	1.348531	-0.168190	-1.105711
H111	H	1.410001	-0.225912	-1.108192
H112	H	1.015978	-0.606976	-0.496348
C113	C	1.228117	-0.244981	-0.930437
C114	C	1.185698	-0.199892	-0.881356
C115	C	1.237790	-0.154826	-0.838262
H116	H	1.259253	-0.218098	-0.965314
H117	H	1.261087	-0.271882	-0.899607
H118	H	1.152742	-0.172994	-0.912183
H119	H	1.154564	-0.226755	-0.846463
H120	H	1.270759	-0.181727	-0.807432
H121	H	1.268923	-0.127949	-0.873145
H122	H	1.209016	-0.124233	-0.804950
H123	H	1.214052	-0.257276	-0.838078
H124	H	0.415115	-0.420834	-0.487978
C125	C	0.582704	-0.245029	-0.284567
C126	C	0.531027	-0.205579	-0.238903
C127	C	0.573883	-0.160485	-0.186655
H128	H	0.616094	-0.214330	-0.313184
H129	H	0.613431	-0.271903	-0.251471
H130	H	0.500313	-0.178707	-0.271994
H131	H	0.497636	-0.236260	-0.210269
H132	H	0.604610	-0.187359	-0.153560
H133	H	0.607271	-0.129790	-0.215278
H134	H	0.538827	-0.133717	-0.155661
C135	C	0.835652	-0.245126	-0.284505
C136	C	0.815003	-0.260378	-0.207492
C137	C	0.857969	-0.215403	-0.155211
H138	H	0.824399	-0.197825	-0.293865
H139	H	0.890064	-0.251584	-0.291914
H140	H	0.760604	-0.253914	-0.200086
H141	H	0.826258	-0.307672	-0.198106
H142	H	0.912381	-0.221861	-0.162620
H143	H	0.846713	-0.168104	-0.164579
H144	H	0.843971	-0.225749	-0.102952
C145	C	1.205537	-0.750157	-0.307088
C146	C	1.251635	-0.702233	-0.260991
C147	C	1.300274	-0.738841	-0.212375
H148	H	1.238523	-0.778788	-0.338345
H149	H	1.174269	-0.778861	-0.274109
H150	H	1.282900	-0.673541	-0.293965
H151	H	1.218670	-0.673601	-0.229718
H152	H	1.269006	-0.767545	-0.179396
H153	H	1.333254	-0.767471	-0.243638
H154	H	1.331552	-0.706330	-0.181087
H155	H	0.675282	-0.257277	-0.298808
C156	C	1.010283	-0.432873	-0.938992
C157	C	0.964559	-0.472297	-0.994181
C158	C	0.912288	-0.517428	-0.955343
H159	H	0.977219	-0.406048	-0.905801
H160	H	1.038910	-0.463581	-0.908409
H161	H	0.935934	-0.441592	-1.024751
H162	H	0.997602	-0.499136	-1.027374
H163	H	0.940915	-0.548136	-0.924760
H164	H	0.879229	-0.490597	-0.922153
H165	H	0.881263	-0.544187	-0.992782
H166	H	1.228414	-0.937045	-0.284416
