data_functionalizedCrystal
_audit_creation_method	'MofGen! by Chris Wilmer'
_symmetry_space_group_name_H-M	'P1'
_symmetry_Int_Tables_number	1
_symmetry_cell_setting	triclinic
loop_
_symmetry_equiv_pos_as_xyz
  x,y,z
_cell_length_a	6.817900
_cell_length_b	7.076028
_cell_length_c	14.858565
_cell_angle_alpha	90.595128
_cell_angle_beta	104.523916
_cell_angle_gamma	117.700652
loop_
_atom_site_label
_atom_site_type_symbol
_atom_site_fract_x
_atom_site_fract_y
_atom_site_fract_z
V1	V	-4.204926	-0.665590	-0.127187
V2	V	-3.704926	-0.165590	0.372813
O3	O	-4.183530	-0.652308	0.007636
O4	O	-3.683530	-0.152308	0.507636
O5	O	-4.160532	-0.661627	-0.253657
O6	O	-3.660532	-0.161627	0.246343
O7	O	-4.231808	-0.955609	-0.124562
O8	O	-3.731808	-0.455609	0.375438
O9	O	-4.111760	-0.356291	-0.122352
O10	O	-3.611760	0.143709	0.377648
V11	V	-4.678280	-0.628524	-0.111140
V12	V	-4.178280	-0.128524	0.388860
O13	O	-4.488491	-0.746898	-0.162388
O14	O	-3.988491	-0.246898	0.337612
O15	O	-4.844913	-0.547216	-0.075938
O16	O	-4.344913	-0.047216	0.424062
O17	O	-4.499468	-0.632488	0.015330
O18	O	-3.999468	-0.132488	0.515330
O19	O	-4.817074	-0.641806	-0.245963
O20	O	-4.317074	-0.141806	0.254037
O21	O	-4.888843	-0.937823	-0.115974
O22	O	-4.388843	-0.437823	0.384026
O23	O	-4.428192	-0.338506	-0.113765
O24	O	-3.928192	0.161494	0.386235
C25	C	-4.004072	-0.651279	-0.284508
C26	C	-3.504072	-0.151279	0.215492
C27	C	-4.049563	-0.649971	-0.387895
C28	C	-3.549563	-0.149971	0.112105
C29	C	-4.216074	-0.645213	-0.766476
C30	C	-3.716074	-0.145213	-0.266476
C31	C	-4.169736	-0.646536	-0.661143
C32	C	-3.669736	-0.146536	-0.161143
C33	C	-4.132818	-0.647590	-0.577189
C34	C	-3.632818	-0.147590	-0.077189
C35	C	-4.086481	-0.648917	-0.471849
C36	C	-3.586481	-0.148917	0.028151
C37	C	-4.228335	-0.267824	-0.118495
C38	C	-3.728335	0.232176	0.381505
C39	C	-4.101956	-0.026271	-0.119828
C40	C	-3.601956	0.473729	0.380172
C41	C	-4.319269	-0.642830	0.046177
C42	C	-3.819269	-0.142830	0.546177
C43	C	-4.253020	-0.644151	0.149562
C44	C	-3.753020	-0.144151	0.649562
