data_functionalizedCrystal
_audit_creation_method	'MofGen! by Chris Wilmer'
_symmetry_space_group_name_H-M	'P1'
_symmetry_Int_Tables_number	1
_symmetry_cell_setting	triclinic
loop_
_symmetry_equiv_pos_as_xyz
  x,y,z
_cell_length_a	11.169417
_cell_length_b	11.169416
_cell_length_c	11.169409
_cell_angle_alpha	90.031365
_cell_angle_beta	90.019824
_cell_angle_gamma	90.011027
loop_
_atom_site_label
_atom_site_type_symbol
_atom_site_fract_x
_atom_site_fract_y
_atom_site_fract_z
Zn1	Zn	1.834964	-0.477682	0.678551
Zn2	Zn	2.334964	0.022318	1.178551
Zn3	Zn	1.834854	-0.678422	0.477871
Zn4	Zn	2.334854	-0.178422	0.977871
Zn5	Zn	1.634250	-0.477755	0.477885
Zn6	Zn	2.134250	0.022245	0.977885
Zn7	Zn	1.634258	-0.678325	0.678516
Zn8	Zn	2.134258	-0.178325	1.178516
O9	O	1.734581	-0.578046	0.578206
O10	O	2.234581	-0.078046	1.078206
O11	O	2.002899	-0.504321	0.651939
O12	O	2.502899	-0.004321	1.151939
O13	O	1.808194	-0.651875	0.309923
O14	O	2.308194	-0.151875	0.809923
O15	O	1.660918	-0.309796	0.504524
O16	O	2.160918	0.190204	1.004524
O17	O	2.002818	-0.651804	0.504500
O18	O	2.502818	-0.151804	1.004500
O19	O	1.808381	-0.309742	0.651953
O20	O	2.308381	0.190258	1.151953
O21	O	1.660811	-0.504445	0.309934
O22	O	2.160811	-0.004445	0.809934
O23	O	1.466301	-0.504351	0.504491
O24	O	1.966301	-0.004351	1.004491
O25	O	1.660931	-0.651637	0.846470
O26	O	2.160931	-0.151637	1.346470
O27	O	1.466307	-0.651708	0.651893
O28	O	1.966307	-0.151708	1.151893
O29	O	1.808389	-0.504226	0.846496
O30	O	2.308389	-0.004226	1.346496
O31	O	1.808202	-0.846359	0.504467
O32	O	2.308202	-0.346359	1.004467
O33	O	1.660825	-0.846287	0.651880
O34	O	2.160825	-0.346287	1.151880
C35	C	1.422757	-0.578028	0.578190
C36	C	1.922757	-0.078028	1.078190
C37	C	1.289357	-0.578049	0.578212
C38	C	1.789357	-0.078049	1.078212
C39	C	1.734535	-0.889871	0.578194
C40	C	2.234535	-0.389871	1.078194
C41	C	1.734625	-1.023271	0.578229
C42	C	2.234625	-0.523271	1.078229
C43	C	2.047624	-0.578065	0.578222
C44	C	2.547624	-0.078065	1.078222
C45	C	2.181024	-0.578073	0.578229
C46	C	2.681024	-0.078073	1.078229
C47	C	1.734674	-0.577913	0.891248
C48	C	2.234674	-0.077913	1.391248
C49	C	1.734713	-0.577856	1.024649
C50	C	2.234713	-0.077856	1.524649
C51	C	1.734661	-0.265004	0.578244
C52	C	2.234661	0.234996	1.078244
C53	C	1.734695	-0.131604	0.578260
C54	C	2.234695	0.368396	1.078260
C55	C	1.734559	-0.578092	0.266381
C56	C	2.234559	-0.078092	0.766381
C57	C	1.734752	-0.577811	0.132982
C58	C	2.234752	-0.077811	0.632982
