data_functionalizedCrystal
_audit_creation_method	'MofGen! by Chris Wilmer'
_symmetry_space_group_name_H-M	'P1'
_symmetry_Int_Tables_number	1
_symmetry_cell_setting	triclinic
loop_
_symmetry_equiv_pos_as_xyz
  x,y,z
_cell_length_a	21.395362
_cell_length_b	19.077068
_cell_length_c	21.395355
_cell_angle_alpha	92.279051
_cell_angle_beta	89.956060
_cell_angle_gamma	92.343691
loop_
_atom_site_label
_atom_site_type_symbol
_atom_site_fract_x
_atom_site_fract_y
_atom_site_fract_z
Zn1	Zn	0.947861	-0.279990	-0.364586
Zn2	Zn	1.281194	0.053343	-0.031253
Zn3	Zn	1.614527	0.386677	0.302080
Zn4	Zn	0.943561	-0.397672	-0.264012
Zn5	Zn	1.276894	-0.064339	0.069321
Zn6	Zn	1.610227	0.268995	0.402655
Zn7	Zn	0.843074	-0.280023	-0.259789
Zn8	Zn	1.176408	0.053311	0.073545
Zn9	Zn	1.509741	0.386644	0.406878
Zn10	Zn	0.838842	-0.397686	-0.368717
Zn11	Zn	1.172175	-0.064353	-0.035384
Zn12	Zn	1.505508	0.268980	0.297949
O13	O	0.893334	-0.338843	-0.314276
O14	O	1.226668	-0.005509	0.019057
O15	O	1.560001	0.327824	0.352391
O16	O	1.034969	-0.295581	-0.351283
O17	O	1.368302	0.037752	-0.017950
O18	O	1.701636	0.371086	0.315383
O19	O	0.930203	-0.382073	-0.175774
O20	O	1.263536	-0.048740	0.157559
O21	O	1.596869	0.284594	0.490892
O22	O	0.860546	-0.181525	-0.270194
O23	O	1.193879	0.151808	0.063139
O24	O	1.527212	0.485141	0.396473
O25	O	1.031810	-0.382041	-0.277392
O26	O	1.365143	-0.048708	0.055941
O27	O	1.698476	0.284625	0.389275
O28	O	0.937532	-0.181501	-0.347188
O29	O	1.270865	0.151832	-0.013855
O30	O	1.604198	0.485165	0.319478
O31	O	0.856376	-0.295637	-0.172671
O32	O	1.189709	0.037697	0.160662
O33	O	1.523043	0.371030	0.493995
O34	O	0.754834	-0.295651	-0.274200
O35	O	1.088168	0.037683	0.059134
O36	O	1.421501	0.371016	0.392467
O37	O	0.853331	-0.382066	-0.455847
O38	O	1.186665	-0.048733	-0.122514
O39	O	1.519998	0.284601	0.210820
O40	O	0.751725	-0.382098	-0.354229
O41	O	1.085058	-0.048764	-0.020896
O42	O	1.418391	0.284569	0.312438
O43	O	0.933427	-0.295595	-0.452812
O44	O	1.266761	0.037738	-0.119479
O45	O	1.600094	0.371072	0.213855
O46	O	0.926098	-0.496167	-0.281398
O47	O	1.259432	-0.162833	0.051935
O48	O	1.592765	0.170500	0.385269
O49	O	0.849162	-0.496177	-0.358324
O50	O	1.182495	-0.162844	-0.024991
O51	O	1.515828	0.170489	0.308342
C52	C	0.730545	-0.338880	-0.314205
C53	C	1.063879	-0.005547	0.019129
C54	C	1.397212	0.327787	0.352462
C55	C	0.660903	-0.338913	-0.314190
C56	C	0.994236	-0.005579	0.019144
C57	C	1.327570	0.327754	0.352477
C58	C	0.626585	-0.383985	-0.355803
C59	C	0.959918	-0.050652	-0.022470
C60	C	1.293251	0.282681	0.310864
C61	C	0.561150	-0.383968	-0.355830
C62	C	0.894483	-0.050635	-0.022497
C63	C	1.227817	0.282699	0.310836
C64	C	0.530036	-0.338886	-0.314233
C65	C	0.863369	-0.005552	0.019100
C66	C	1.196702	0.327781	0.352433
C67	C	0.564362	-0.293804	-0.272617
C68	C	0.897695	0.039529	0.060717
C69	C	1.231029	0.372862	0.394050
C70	C	0.629796	-0.293818	-0.272595
C71	C	0.963129	0.039515	0.060738
C72	C	1.296462	0.372849	0.394072
C73	C	0.426513	-0.333216	-0.257626
C74	C	0.759847	0.000118	0.075708
C75	C	1.093180	0.333451	0.409041
C76	C	0.361081	-0.333207	-0.257647
C77	C	0.694414	0.000126	0.075687
C78	C	1.027747	0.333460	0.409020
C79	C	0.328216	-0.338840	-0.314301
C80	C	0.661550	-0.005506	0.019032
C81	C	0.994883	0.327827	0.352366
C82	C	0.360792	-0.344496	-0.370937
C83	C	0.694126	-0.011163	-0.037603
C84	C	1.027459	0.322171	0.295730
C85	C	0.426226	-0.344510	-0.370915
C86	C	0.759559	-0.011176	-0.037581
C87	C	1.092893	0.322157	0.295752
C88	C	0.459084	-0.338866	-0.314253
C89	C	0.792417	-0.005532	0.019081
C90	C	1.125751	0.327801	0.352414
C91	C	0.222946	-0.383896	-0.355947
C92	C	0.556280	-0.050563	-0.022614
C93	C	0.889613	0.282771	0.310719
C94	C	0.157511	-0.383874	-0.355976
C95	C	0.490844	-0.050541	-0.022642
C96	C	0.824177	0.282793	0.310691
C97	C	0.160724	-0.293714	-0.272756
C98	C	0.494057	0.039620	0.060577
C99	C	0.827390	0.372953	0.393910
C100	C	0.226158	-0.293732	-0.272734
C101	C	0.559492	0.039601	0.060600
C102	C	0.892825	0.372934	0.393933
C103	C	0.257266	-0.338827	-0.314328
C104	C	0.590599	-0.005494	0.019005
C105	C	0.923932	0.327840	0.352338
C106	C	0.886721	-0.521710	-0.320781
C107	C	1.220054	-0.188377	0.012552
C108	C	1.553388	0.144957	0.345885
C109	C	0.883949	-0.599942	-0.323585
C110	C	1.217283	-0.266608	0.009748
C111	C	1.550616	0.066725	0.343081
C112	C	0.922735	-0.636666	-0.284884
C113	C	1.256068	-0.303333	0.048449
C114	C	1.589402	0.030001	0.381782
C115	C	0.920132	-0.710173	-0.287525
C116	C	1.253465	-0.376839	0.045808
C117	C	1.586798	-0.043506	0.379141
C118	C	0.878739	-0.746954	-0.328864
C119	C	1.212072	-0.413620	0.004469
C120	C	1.545406	-0.080287	0.337802
C121	C	0.839952	-0.710224	-0.367570
C122	C	1.173285	-0.376891	-0.034236
C123	C	1.506619	-0.043558	0.299097
C124	C	0.842559	-0.636719	-0.364931
C125	C	1.175892	-0.303386	-0.031598
C126	C	1.509225	0.029948	0.301735
C127	C	0.866647	-0.966795	-0.341049
C128	C	1.199980	-0.633461	-0.007716
C129	C	1.533313	-0.300128	0.325618
C130	C	0.864041	-1.040305	-0.343683
C131	C	1.197375	-0.706972	-0.010350
C132	C	1.530708	-0.373639	0.322984
C133	C	0.944222	-1.040249	-0.263639
C134	C	1.277555	-0.706915	0.069694
C135	C	1.610889	-0.373582	0.403028
C136	C	0.946823	-0.966742	-0.261002
C137	C	1.280156	-0.633409	0.072331
C138	C	1.613489	-0.300075	0.405665
C139	C	0.908038	-0.930019	-0.299709
C140	C	1.241371	-0.596685	0.033624
C141	C	1.574705	-0.263352	0.366957
N142	N	0.876076	-0.822090	-0.331564
N143	N	1.209409	-0.488756	0.001770
N144	N	1.542742	-0.155423	0.335103
N145	N	0.910705	-0.854884	-0.297013
N146	N	1.244038	-0.521551	0.036320
N147	N	1.577372	-0.188218	0.369654
C148	C	1.056759	-0.338806	-0.314348
C149	C	1.390092	-0.005473	0.018985
C150	C	1.723426	0.327861	0.352319
C151	C	1.126401	-0.338790	-0.314379
C152	C	1.459734	-0.005457	0.018955
C153	C	1.793067	0.327877	0.352288
C154	C	0.893387	-0.338828	-0.477699
C155	C	1.226720	-0.005495	-0.144366
C156	C	1.560053	0.327838	0.188968
C157	C	0.893409	-0.338822	-0.547340
C158	C	1.226743	-0.005489	-0.214007
C159	C	1.560076	0.327844	0.119327
C160	C	0.899990	-0.155261	-0.307759
C161	C	1.233324	0.178072	0.025574
C162	C	1.566657	0.511406	0.358908
C163	C	0.902827	-0.077030	-0.304982
C164	C	1.236160	0.256304	0.028351
C165	C	1.569493	0.589637	0.361685
C166	C	0.935113	-0.293795	-0.578474
C167	C	1.268447	0.039538	-0.245140
C168	C	1.601780	0.372872	0.088193
C169	C	0.935114	-0.293765	-0.643908
C170	C	1.268447	0.039569	-0.310575
C171	C	1.601780	0.372902	0.022759
C172	C	0.893416	-0.338774	-0.678207
C173	C	1.226749	-0.005441	-0.344873
C174	C	1.560082	0.327892	-0.011540
C175	C	0.851704	-0.383805	-0.647065
C176	C	1.185037	-0.050472	-0.313732
C177	C	1.518370	0.282862	0.019601
C178	C	0.851700	-0.383829	-0.581632
C179	C	1.185034	-0.050496	-0.248299
C180	C	1.518367	0.282838	0.085035
C181	C	0.886177	-0.402150	-0.784134
C182	C	1.219510	-0.068817	-0.450801
C183	C	1.552843	0.264517	-0.117468
C184	C	0.886184	-0.402127	-0.849566
C185	C	1.219518	-0.068794	-0.516233
C186	C	1.552851	0.264539	-0.182900
C187	C	0.893422	-0.338700	-0.880025
C188	C	1.226756	-0.005367	-0.546692
C189	C	1.560089	0.327967	-0.213358
C190	C	0.900666	-0.275294	-0.845043
C191	C	1.233999	0.058040	-0.511710
C192	C	1.567333	0.391373	-0.178376
C193	C	0.900663	-0.275318	-0.779610
C194	C	1.233996	0.058016	-0.446276
C195	C	1.567329	0.391349	-0.112943
C196	C	0.893414	-0.338753	-0.749158
C197	C	1.226748	-0.005420	-0.415825
C198	C	1.560081	0.327914	-0.082492
C199	C	0.935129	-0.293636	-0.982110
C200	C	1.268462	0.039697	-0.648777
C201	C	1.601796	0.373031	-0.315443
C202	C	0.935125	-0.293605	-1.047545
C203	C	1.268458	0.039729	-0.714212
C204	C	1.601792	0.373062	-0.380879
C205	C	0.851718	-0.383651	-1.050701
C206	C	1.185051	-0.050318	-0.717368
C207	C	1.518385	0.283016	-0.384035
C208	C	0.851719	-0.383676	-0.985267
C209	C	1.185052	-0.050343	-0.651934
C210	C	1.518386	0.282990	-0.318600
C211	C	0.893428	-0.338670	-0.950975
C212	C	1.226761	-0.005336	-0.617642
C213	C	1.560095	0.327997	-0.284308
C214	C	0.893320	-0.338806	-0.151487
C215	C	1.226653	-0.005473	0.181846
C216	C	1.559987	0.327861	0.515179
C217	C	0.893426	-0.338614	-0.081839
C218	C	1.226759	-0.005281	0.251494
C219	C	1.560093	0.328053	0.584827
H220	H	0.453266	-0.328626	-0.211488
H221	H	0.786599	0.004708	0.121846
H222	H	1.119933	0.338041	0.455179
N223	N	0.986054	-1.079865	-0.221901
N224	N	1.319387	-0.746532	0.111433
N225	N	1.652720	-0.413198	0.444766
H226	H	1.031271	-1.067012	-0.231227
H227	H	1.364605	-0.733679	0.102106
H228	H	1.697938	-0.400346	0.435439
H229	H	0.976746	-1.067097	-0.176680
H230	H	1.310079	-0.733764	0.156654
H231	H	1.643412	-0.400431	0.489987
N232	N	0.878377	-0.470511	-0.887294
N233	N	1.211710	-0.137178	-0.553961
N234	N	1.545043	0.196155	-0.220627
H235	H	0.873783	-0.510695	-0.858071
H236	H	1.207116	-0.177362	-0.524738
H237	H	1.540450	0.155971	-0.191405
H238	H	0.839810	-0.469494	-0.914380
H239	H	1.173143	-0.136161	-0.581047
H240	H	1.506477	0.197173	-0.247713
H241	H	0.810976	-0.606818	-0.396447
H242	H	1.144310	-0.273485	-0.063113
H243	H	1.477643	0.059848	0.270220
N244	N	0.991474	-0.927075	-0.216420
N245	N	1.324807	-0.593741	0.116914
N246	N	1.658141	-0.260408	0.450247
H247	H	0.987239	-0.874937	-0.220620
H248	H	1.320573	-0.541603	0.112713
H249	H	1.653906	-0.208270	0.446046
H250	H	0.981288	-0.939960	-0.172122
H251	H	1.314621	-0.606627	0.161211
H252	H	1.647955	-0.273294	0.494545
N253	N	0.325946	-0.327109	-0.196566
N254	N	0.659279	0.006224	0.136767
N255	N	0.992613	0.339557	0.470101
H256	H	0.335818	-0.367759	-0.169906
H257	H	0.669151	-0.034426	0.163427
H258	H	1.002484	0.298907	0.496761
H259	H	0.338991	-0.281499	-0.173742
H260	H	0.672325	0.051834	0.159592
H261	H	1.005658	0.385168	0.492925
H262	H	0.129570	-0.420576	-0.389866
H263	H	0.462903	-0.087243	-0.056533
H264	H	0.796236	0.246091	0.276801
N265	N	0.967379	-0.596994	-0.240298
N266	N	1.300713	-0.263661	0.093035
N267	N	1.634046	0.069673	0.426368
H268	H	0.957218	-0.609825	-0.195979
H269	H	1.290551	-0.276491	0.137354
H270	H	1.623885	0.056842	0.470687
H271	H	1.011672	-0.609741	-0.250599
H272	H	1.345005	-0.276408	0.082734
H273	H	1.678338	0.056925	0.416068
H274	H	0.452747	-0.349113	-0.417029
H275	H	0.786080	-0.015780	-0.083696
H276	H	1.119414	0.317554	0.249637
N277	N	0.530807	-0.245185	-0.227746
N278	N	0.864140	0.088149	0.105587
N279	N	1.197474	0.421482	0.438921
H280	H	0.541754	-0.256047	-0.183348
H281	H	0.875087	0.077286	0.149985
H282	H	1.208420	0.410620	0.483319
H283	H	0.544057	-0.194933	-0.235811
H284	H	0.877390	0.138401	0.097522
H285	H	1.210723	0.471734	0.430856
N286	N	0.795303	-0.749894	-0.412153
N287	N	1.128636	-0.416560	-0.078819
N288	N	1.461970	-0.083227	0.254514
H289	H	0.771128	-0.715473	-0.436270
H290	H	1.104462	-0.382140	-0.102937
H291	H	1.437795	-0.048806	0.230397
H292	H	0.819711	-0.780346	-0.442273
H293	H	1.153044	-0.447013	-0.108940
H294	H	1.486377	-0.113679	0.224394
H295	H	0.817763	-0.420347	-0.959918
H296	H	1.151096	-0.087013	-0.626585
H297	H	1.484429	0.246320	-0.293251
N298	N	0.666819	-0.245210	-0.227707
N299	N	1.000153	0.088123	0.105626
N300	N	1.333486	0.421457	0.438959
H301	H	0.695190	-0.212645	-0.252051
H302	H	1.028523	0.120689	0.081282
H303	H	1.361857	0.454022	0.414616
H304	H	0.637145	-0.216690	-0.201368
H305	H	0.970478	0.116644	0.131966
H306	H	1.303811	0.449977	0.465299
H307	H	0.835065	-0.936900	-0.372565
H308	H	1.168399	-0.603567	-0.039232
H309	H	1.501732	-0.270234	0.294102
H310	H	0.969075	-0.257146	-0.550557
H311	H	1.302409	0.076187	-0.217224
H312	H	1.635742	0.409520	0.116110
N313	N	0.819394	-1.079979	-0.388272
N314	N	1.152727	-0.746646	-0.054938
N315	N	1.486061	-0.413312	0.278395
H316	H	0.795220	-1.045562	-0.412394
H317	H	1.128553	-0.712229	-0.079060
H318	H	1.461887	-0.378895	0.254273
H319	H	0.843807	-1.110431	-0.418387
H320	H	1.177140	-0.777098	-0.085054
H321	H	1.510473	-0.443765	0.248279
N322	N	0.961964	-0.749784	-0.245784
N323	N	1.295298	-0.416450	0.087550
N324	N	1.628631	-0.083117	0.420883
H325	H	0.988578	-0.715329	-0.219192
H326	H	1.321912	-0.381996	0.114141
H327	H	1.655245	-0.048663	0.447474
H328	H	0.935389	-0.780331	-0.217855
H329	H	1.268723	-0.446997	0.115478
H330	H	1.602056	-0.113664	0.448812
H331	H	0.969073	-0.257094	-0.669262
H332	H	1.302406	0.076239	-0.335929
H333	H	1.635740	0.409572	-0.002595
H334	H	0.880115	-0.453787	-0.759340
H335	H	1.213449	-0.120454	-0.426007
H336	H	1.546782	0.212880	-0.092674
N337	N	0.980121	-0.245100	-0.945126
N338	N	1.313454	0.088234	-0.611793
N339	N	1.646788	0.421567	-0.278459
H340	H	1.008119	-0.273718	-0.919032
H341	H	1.341453	0.059615	-0.585699
H342	H	1.674786	0.392949	-0.252365
H343	H	1.006495	-0.216585	-0.974828
H344	H	1.339828	0.116749	-0.641495
H345	H	1.673162	0.450082	-0.308161
H346	H	0.969085	-0.256934	-1.072893
H347	H	1.302418	0.076400	-0.739560
H348	H	1.635751	0.409733	-0.406226
N349	N	0.263183	-0.245129	-0.227846
N350	N	0.596517	0.088204	0.105488
N351	N	0.929850	0.421538	0.438821
H352	H	0.291552	-0.212562	-0.252190
H353	H	0.624886	0.120771	0.081143
H354	H	0.958219	0.454105	0.414477
H355	H	0.233509	-0.216610	-0.201504
H356	H	0.566843	0.116723	0.131829
H357	H	0.900176	0.450056	0.465162
H358	H	0.906559	-0.223690	-0.751130
H359	H	1.239892	0.109643	-0.417797
H360	H	1.573226	0.442977	-0.084464
N361	N	0.325357	-0.350576	-0.432048
N362	N	0.658690	-0.017242	-0.098715
N363	N	0.992024	0.316091	0.234618
H364	H	0.278962	-0.349706	-0.423471
H365	H	0.612296	-0.016372	-0.090138
H366	H	0.945629	0.316961	0.243196
H367	H	0.338317	-0.309924	-0.458669
H368	H	0.671650	0.023410	-0.125336
H369	H	1.004983	0.356743	0.207998
H370	H	0.906561	-0.223645	-0.869841
H371	H	1.239894	0.109688	-0.536507
H372	H	1.573228	0.443022	-0.203174
N373	N	0.806719	-0.432340	-0.684054
N374	N	1.140053	-0.099007	-0.350720
N375	N	1.473386	0.234326	-0.017387
H376	H	0.813048	-0.425492	-0.730230
H377	H	1.146381	-0.092159	-0.396897
H378	H	1.479715	0.241175	-0.063564
H379	H	0.814638	-0.482613	-0.674422
H380	H	1.147972	-0.149280	-0.341089
H381	H	1.481305	0.184054	-0.007755
N382	N	0.806741	-0.432192	-1.087690
N383	N	1.140074	-0.098859	-0.754356
N384	N	1.473407	0.234475	-0.421023
H385	H	0.831021	-0.464793	-1.116023
H386	H	1.164354	-0.131460	-0.782690
H387	H	1.497687	0.201874	-0.449356
H388	H	0.780330	-0.460677	-1.057995
H389	H	1.113664	-0.127343	-0.724662
H390	H	1.446997	0.205990	-0.391329
N391	N	0.660136	-0.432621	-0.400664
N392	N	0.993470	-0.099288	-0.067331
N393	N	1.326803	0.234046	0.266003
H394	H	0.628462	-0.461172	-0.427031
H395	H	0.961796	-0.127838	-0.093697
H396	H	1.295129	0.205495	0.239636
H397	H	0.688364	-0.404027	-0.428677
H398	H	1.021697	-0.070694	-0.095344
H399	H	1.355030	0.262640	0.237990
N400	N	0.524120	-0.432584	-0.400711
N401	N	0.857453	-0.099251	-0.067378
N402	N	1.190787	0.234083	0.265956
H403	H	0.535950	-0.421737	-0.445107
H404	H	0.869284	-0.088403	-0.111773
H405	H	1.202617	0.244930	0.221560
H406	H	0.533669	-0.482839	-0.392633
H407	H	0.867003	-0.149506	-0.059300
H408	H	1.200336	0.183827	0.274034
N409	N	0.256504	-0.432528	-0.400809
N410	N	0.589837	-0.099195	-0.067476
N411	N	0.923171	0.234138	0.265858
H412	H	0.224832	-0.461076	-0.427180
H413	H	0.558165	-0.127743	-0.093846
H414	H	0.891498	0.205590	0.239487
H415	H	0.284735	-0.403933	-0.428818
H416	H	0.618068	-0.070600	-0.095484
H417	H	0.951401	0.262734	0.237849
N418	N	0.127175	-0.245082	-0.227894
N419	N	0.460508	0.088251	0.105439
N420	N	0.793841	0.421584	0.438772
H421	H	0.080515	-0.251911	-0.234223
H422	H	0.413848	0.081423	0.099110
H423	H	0.747181	0.414756	0.432444
H424	H	0.138163	-0.255964	-0.183513
H425	H	0.471496	0.077369	0.149820
H426	H	0.804829	0.410702	0.483153
N427	N	0.806709	-0.432386	-0.548047
N428	N	1.140043	-0.099053	-0.214714
N429	N	1.473376	0.234281	0.118620
H430	H	0.780288	-0.460892	-0.579701
H431	H	1.113622	-0.127558	-0.246368
H432	H	1.446955	0.205775	0.086966
H433	H	0.831023	-0.464967	-0.522077
H434	H	1.164356	-0.131634	-0.188744
H435	H	1.497690	0.201700	0.144589
