data_functionalizedCrystal
_audit_creation_method	'MofGen! by Chris Wilmer'
_symmetry_space_group_name_H-M	'P1'
_symmetry_Int_Tables_number	1
_symmetry_cell_setting	triclinic
loop_
_symmetry_equiv_pos_as_xyz
  x,y,z
_cell_length_a	16.109301
_cell_length_b	10.065918
_cell_length_c	16.109301
_cell_angle_alpha	99.820212
_cell_angle_beta	83.461481
_cell_angle_gamma	99.860161
loop_
_atom_site_label
_atom_site_type_symbol
_atom_site_fract_x
_atom_site_fract_y
_atom_site_fract_z
O1	O	1.114031	0.113412	0.117705
O2	O	1.364031	0.363412	0.367705
O3	O	1.614031	0.613412	0.617705
O4	O	1.864031	0.863412	0.867705
O5	O	0.871971	0.113435	0.131007
O6	O	1.121971	0.363435	0.381007
O7	O	1.371971	0.613435	0.631007
O8	O	1.621971	0.863435	0.881007
O9	O	0.999649	0.113409	0.003324
O10	O	1.249649	0.363409	0.253324
O11	O	1.499649	0.613409	0.503324
O12	O	1.749649	0.863409	0.753324
O13	O	0.986353	0.113438	0.245388
O14	O	1.236353	0.363438	0.495388
O15	O	1.486353	0.613438	0.745388
O16	O	1.736353	0.863438	0.995388
O17	O	0.977824	-0.113580	-0.018372
O18	O	1.227824	0.136420	0.231628
O19	O	1.477824	0.386420	0.481628
O20	O	1.727824	0.636420	0.731628
O21	O	0.850146	-0.113554	0.109311
O22	O	1.100146	0.136446	0.359311
O23	O	1.350146	0.386446	0.609311
O24	O	1.600146	0.636446	0.859311
O25	O	1.092206	-0.113577	0.096009
O26	O	1.342206	0.136423	0.346009
O27	O	1.592206	0.386423	0.596009
O28	O	1.842206	0.636423	0.846009
Zn29	Zn	0.967711	-0.149605	0.099215
Zn30	Zn	1.217711	0.100395	0.349215
Zn31	Zn	1.467711	0.350395	0.599215
Zn32	Zn	1.717711	0.600395	0.849215
Zn33	Zn	0.996466	0.149463	0.127801
Zn34	Zn	1.246466	0.399463	0.377801
Zn35	Zn	1.496466	0.649463	0.627801
Zn36	Zn	1.746466	0.899463	0.877801
O37	O	0.964528	-0.113551	0.223692
O38	O	1.214528	0.136449	0.473692
O39	O	1.464528	0.386449	0.723692
O40	O	1.714528	0.636449	0.973692
C41	C	0.830084	-0.000057	0.119620
C42	C	1.080084	0.249943	0.369620
C43	C	1.330084	0.499943	0.619620
C44	C	1.580084	0.749943	0.869620
C45	C	0.737789	-0.000049	0.118006
C46	C	0.987789	0.249951	0.368006
C47	C	1.237789	0.499951	0.618006
C48	C	1.487789	0.749951	0.868006
N49	N	0.948092	-0.353711	0.079706
N50	N	1.198092	-0.103711	0.329706
N51	N	1.448092	0.146289	0.579706
N52	N	1.698092	0.396289	0.829706
C53	C	0.515516	-0.000056	0.190013
C54	C	0.765516	0.249944	0.440013
C55	C	1.015516	0.499944	0.690013
C56	C	1.265516	0.749944	0.940013
C57	C	0.428795	-0.000065	0.188488
C58	C	0.678795	0.249935	0.438488
C59	C	0.928795	0.499935	0.688488
C60	C	1.178795	0.749935	0.938488
C61	C	0.448668	-0.000078	0.036998
C62	C	0.698668	0.249922	0.286998
C63	C	0.948668	0.499922	0.536998
C64	C	1.198668	0.749922	0.786998
C65	C	0.535387	-0.000078	0.038523
C66	C	0.785387	0.249922	0.288523
C67	C	1.035387	0.499922	0.538523
C68	C	1.285387	0.749922	0.788523
C69	C	0.568809	-0.000061	0.115033
C70	C	0.818809	0.249939	0.365033
C71	C	1.068809	0.499939	0.615033
C72	C	1.318809	0.749939	0.865033
C73	C	0.395369	-0.000069	0.111984
C74	C	0.645369	0.249931	0.361984
C75	C	0.895369	0.499931	0.611984
C76	C	1.145369	0.749931	0.861984
C77	C	0.301342	-0.000079	0.110330
C78	C	0.551342	0.249921	0.360330
C79	C	0.801342	0.499921	0.610330
C80	C	1.051342	0.749921	0.860330
C81	C	0.662842	-0.000054	0.116688
C82	C	0.912842	0.249946	0.366688
C83	C	1.162842	0.499946	0.616688
C84	C	1.412842	0.749946	0.866688
C85	C	0.989635	-0.421489	0.121013
C86	C	1.239635	-0.171489	0.371013
C87	C	1.489635	0.078511	0.621013
C88	C	1.739635	0.328511	0.871013
C89	C	0.974543	-0.578656	0.105990
C90	C	1.224543	-0.328656	0.355990
C91	C	1.474543	-0.078656	0.605990
C92	C	1.724543	0.171344	0.855990
C93	C	1.134093	-0.000082	0.107396
C94	C	1.384093	0.249918	0.357396
C95	C	1.634093	0.499918	0.607396
C96	C	1.884093	0.749918	0.857396
C97	C	1.226389	-0.000081	0.109011
C98	C	1.476389	0.249919	0.359011
C99	C	1.726389	0.499919	0.609011
C100	C	1.976389	0.749919	0.859011
C101	C	0.988198	-0.000086	-0.038499
C102	C	1.238198	0.249914	0.211501
C103	C	1.488198	0.499914	0.461501
C104	C	1.738198	0.749914	0.711501
C105	C	0.986583	-0.000088	-0.130795
C106	C	1.236583	0.249912	0.119205
C107	C	1.486583	0.499912	0.369205
C108	C	1.736583	0.749912	0.619205
N109	N	1.016091	0.353569	0.147303
N110	N	1.266091	0.603569	0.397303
N111	N	1.516091	0.853569	0.647303
N112	N	1.766091	1.103569	0.897303
C113	C	1.058592	-0.000073	-0.353066
C114	C	1.308592	0.249927	-0.103066
C115	C	1.558592	0.499927	0.146934
C116	C	1.808592	0.749927	0.396934
C117	C	1.057069	-0.000061	-0.439785
C118	C	1.307069	0.249939	-0.189785
C119	C	1.557069	0.499939	0.060215
C120	C	1.807069	0.749939	0.310215
C121	C	0.905581	-0.000053	-0.419910
C122	C	1.155581	0.249947	-0.169910
C123	C	1.405581	0.499947	0.080090
C124	C	1.655581	0.749947	0.330090
C125	C	0.907106	-0.000055	-0.333191
C126	C	1.157106	0.249945	-0.083191
C127	C	1.407106	0.499945	0.166809
C128	C	1.657106	0.749945	0.416809
C129	C	0.983613	-0.000071	-0.299772
C130	C	1.233613	0.249929	-0.049772
C131	C	1.483613	0.499929	0.200228
C132	C	1.733613	0.749929	0.450228
C133	C	0.980565	-0.000058	-0.473210
C134	C	1.230565	0.249942	-0.223210
C135	C	1.480565	0.499942	0.026790
C136	C	1.730565	0.749942	0.276790
C137	C	0.978913	-0.000046	-0.567235
C138	C	1.228913	0.249954	-0.317235
C139	C	1.478913	0.499954	-0.067235
C140	C	1.728913	0.749954	0.182765
C141	C	0.985266	-0.000081	-0.205741
C142	C	1.235266	0.249919	0.044259
C143	C	1.485266	0.499919	0.294259
C144	C	1.735266	0.749919	0.544259
C145	C	0.975979	-0.000053	0.265516
C146	C	1.225979	0.249947	0.515516
C147	C	1.475979	0.499947	0.765516
C148	C	1.725979	0.749947	1.015516
C149	C	0.977596	-0.000042	0.357812
C150	C	1.227596	0.249958	0.607812
C151	C	1.477596	0.499958	0.857812
C152	C	1.727596	0.749958	1.107812
H153	H	0.542725	-0.000052	0.252312
H154	H	0.792725	0.249948	0.502312
H155	H	1.042725	0.499948	0.752312
H156	H	1.292725	0.749948	1.002312
H157	H	0.421444	-0.000100	-0.025295
H158	H	0.671444	0.249900	0.224705
H159	H	0.921444	0.499900	0.474705
H160	H	1.171444	0.749900	0.724705
O161	O	0.371312	-0.000056	0.269358
O162	O	0.621312	0.249944	0.519358
O163	O	0.871312	0.499944	0.769358
O164	O	1.121312	0.749944	1.019358
H165	H	0.409126	-0.000036	0.322814
H166	H	0.659126	0.249964	0.572814
H167	H	0.909126	0.499964	0.822814
H168	H	1.159126	0.749964	1.072814
O169	O	0.592877	-0.000086	-0.042351
O170	O	0.842877	0.249914	0.207649
O171	O	1.092877	0.499914	0.457649
O172	O	1.342877	0.749914	0.707649
H173	H	0.555071	-0.000080	-0.095808
H174	H	0.805071	0.249920	0.154192
H175	H	1.055071	0.499920	0.404192
H176	H	1.305071	0.749920	0.654192
H177	H	0.843291	-0.000042	-0.447131
H178	H	1.093291	0.249958	-0.197131
H179	H	1.343291	0.499958	0.052869
H180	H	1.593291	0.749958	0.302869
H181	H	1.036377	-0.363161	0.167496
H182	H	1.286377	-0.113161	0.417496
H183	H	1.536377	0.136839	0.667496
H184	H	1.786377	0.386839	0.917496
O185	O	0.912623	-0.655893	0.044410
O186	O	1.162623	-0.405893	0.294410
O187	O	1.412623	-0.155893	0.544410
O188	O	1.662623	0.094107	0.794410
H189	H	0.910480	-0.767217	0.042279
H190	H	1.160480	-0.517217	0.292279
H191	H	1.410480	-0.267217	0.542279
H192	H	1.660480	-0.017217	0.792279
O193	O	1.078005	-0.569198	0.208890
O194	O	1.328005	-0.319198	0.458890
O195	O	1.578005	-0.069198	0.708890
O196	O	1.828005	0.180802	0.958890
H197	H	1.080139	-0.457873	0.211033
H198	H	1.330139	-0.207873	0.461033
H199	H	1.580139	0.042127	0.711033
H200	H	1.830139	0.292127	0.961033
H201	H	0.901356	-0.412039	0.033218
H202	H	1.151356	-0.162039	0.283218
H203	H	1.401356	0.087961	0.533218
H204	H	1.651356	0.337961	0.783218
H205	H	1.120889	-0.000084	-0.325859
H206	H	1.370889	0.249916	-0.075859
H207	H	1.620889	0.499916	0.174141
H208	H	1.870889	0.749916	0.424141
H209	H	1.118125	-0.000060	-0.483173
H210	H	1.368125	0.249940	-0.233173
H211	H	1.618125	0.499940	0.016827
H212	H	1.868125	0.749940	0.266827
O213	O	0.826231	-0.000068	-0.275702
O214	O	1.076231	0.249932	-0.025702
O215	O	1.326231	0.499932	0.224298
O216	O	1.576231	0.749932	0.474298
H217	H	0.772772	-0.000082	-0.313510
H218	H	1.022772	0.249918	-0.063510
H219	H	1.272772	0.499918	0.186490
H220	H	1.522772	0.749918	0.436490
