data_functionalizedCrystal
_audit_creation_method	'MofGen! by Chris Wilmer'
_symmetry_space_group_name_H-M	'P1'
_symmetry_Int_Tables_number	1
_symmetry_cell_setting	triclinic
loop_
_symmetry_equiv_pos_as_xyz
  x,y,z
_cell_length_a	14.044220
_cell_length_b	17.666332
_cell_length_c	14.044220
_cell_angle_alpha	90.010611
_cell_angle_beta	86.811122
_cell_angle_gamma	90.014031
loop_
_atom_site_label
_atom_site_type_symbol
_atom_site_fract_x
_atom_site_fract_y
_atom_site_fract_z
O1	O	1.277150	-0.062871	-0.230173
O2	O	1.000478	-0.062890	-0.221868
O3	O	1.134661	-0.062873	-0.087685
O4	O	1.142967	-0.062888	-0.364356
O5	O	1.134685	0.063024	-0.087668
O6	O	1.000502	0.063007	-0.221850
O7	O	1.277173	0.063026	-0.230156
Cu8	Cu	1.138840	0.074512	-0.226002
Cu9	Cu	1.138812	-0.074376	-0.226022
O10	O	1.142990	0.063009	-0.364339
C11	C	0.964868	0.000056	-0.218223
C12	C	0.858725	0.000049	-0.207379
C13	C	0.664388	0.000065	-0.187553
C14	C	0.613258	0.000064	-0.264467
C15	C	0.505122	0.000073	-0.253435
C16	C	0.772534	0.000056	-0.198583
N17	N	1.138792	-0.179095	-0.226029
C18	C	1.201483	-0.218708	-0.288964
C19	C	1.201489	-0.297956	-0.288965
C20	C	1.138814	-0.337587	-0.226016
C21	C	1.076111	-0.297965	-0.163076
C22	C	1.076100	-0.218719	-0.163083
N23	N	1.129359	-0.461996	-0.142141
N24	N	1.129375	-0.537277	-0.142137
C25	C	1.138842	-0.576351	-0.225992
N26	N	1.148311	-0.537301	-0.309854
N27	N	1.148300	-0.462014	-0.309857
C28	C	1.138819	-0.423516	-0.226002
C29	C	1.201544	-0.701894	-0.288934
C30	C	1.201543	-0.781143	-0.288937
C31	C	1.076170	-0.781150	-0.163039
C32	C	1.076166	-0.701903	-0.163045
C33	C	1.138857	-0.662279	-0.225991
C34	C	1.312783	0.000078	-0.233800
C35	C	1.418926	0.000080	-0.244645
C36	C	1.131037	0.000075	-0.052054
C37	C	1.120193	0.000075	0.054088
N38	N	1.138866	0.179231	-0.225987
C39	C	1.146614	0.000059	-0.399969
C40	C	1.157459	0.000054	-0.506112
C41	C	1.100366	0.000063	0.248426
C42	C	1.177281	0.000066	0.299556
C43	C	1.166249	0.000059	0.407692
C44	C	1.111397	0.000070	0.140280
H45	H	1.252530	-0.186452	-0.340221
C46	C	0.613811	0.000069	-0.087408
N47	N	0.575706	0.000067	-0.011979
H48	H	1.251414	0.000020	0.262117
C49	C	1.270462	-0.341539	-0.358196
N50	N	1.322415	-0.374363	-0.410339
C51	C	0.663834	0.000045	-0.364619
N52	N	0.701933	0.000027	-0.440050
H53	H	1.026239	0.000056	0.285863
C54	C	1.007204	-0.658327	-0.093806
N55	N	0.955258	-0.625506	-0.041654
H56	H	1.025047	-0.186466	-0.111833
C57	C	1.007245	-0.341561	-0.093755
N58	N	0.955398	-0.374398	-0.041515
C59	C	1.270502	-0.658305	-0.358178
N60	N	1.322443	-0.625476	-0.410333
H61	H	1.025133	-0.813417	-0.111790
C62	C	1.270513	-0.824717	-0.358173
N63	N	1.322464	-0.857537	-0.410321
