data_functionalizedCrystal
_audit_creation_method	'MofGen! by Chris Wilmer'
_symmetry_space_group_name_H-M	'P1'
_symmetry_Int_Tables_number	1
_symmetry_cell_setting	triclinic
loop_
_symmetry_equiv_pos_as_xyz
  x,y,z
_cell_length_a	16.959455
_cell_length_b	25.639240
_cell_length_c	25.639234
_cell_angle_alpha	89.971713
_cell_angle_beta	89.984076
_cell_angle_gamma	90.029777
loop_
_atom_site_label
_atom_site_type_symbol
_atom_site_fract_x
_atom_site_fract_y
_atom_site_fract_z
Zn1	Zn	1.208279	-0.208244	-0.295663
Zn2	Zn	1.708279	0.291756	0.204337
Zn3	Zn	1.208183	-0.295666	-0.208216
Zn4	Zn	1.708183	0.204334	0.291784
Zn5	Zn	1.076118	-0.208242	-0.208233
Zn6	Zn	1.576118	0.291758	0.291767
Zn7	Zn	1.076043	-0.295645	-0.295612
Zn8	Zn	1.576043	0.204355	0.204388
O9	O	1.142156	-0.251949	-0.251931
O10	O	1.642156	0.248051	0.248069
O11	O	1.318877	-0.219850	-0.284077
O12	O	1.818877	0.280150	0.215923
O13	O	1.190655	-0.284077	-0.135053
O14	O	1.690655	0.215923	0.364947
O15	O	1.093721	-0.135077	-0.219859
O16	O	1.593721	0.364923	0.280141
O17	O	1.318807	-0.284079	-0.219830
O18	O	1.818807	0.215921	0.280170
O19	O	1.190820	-0.135078	-0.284093
O20	O	1.690820	0.364922	0.215907
O21	O	1.093628	-0.219847	-0.135065
O22	O	1.593628	0.280153	0.364935
O23	O	0.965497	-0.219827	-0.219809
O24	O	1.465497	0.280173	0.280191
O25	O	1.093594	-0.284044	-0.368784
O26	O	1.593594	0.215956	0.131216
O27	O	0.965442	-0.284042	-0.284006
O28	O	1.465442	0.215958	0.215994
O29	O	1.190747	-0.219830	-0.368821
O30	O	1.690747	0.280170	0.131179
O31	O	1.190583	-0.368829	-0.219781
O32	O	1.690583	0.131171	0.280219
O33	O	1.093500	-0.368813	-0.283990
O34	O	1.593500	0.131187	0.216010
C35	C	0.936790	-0.251932	-0.251904
C36	C	1.436790	0.248068	0.248096
C37	C	0.848933	-0.251938	-0.251905
C38	C	1.348933	0.248062	0.248095
C39	C	0.477410	-0.285360	-0.218460
C40	C	0.977410	0.214640	0.281540
C41	C	0.477505	-0.218582	-0.285465
C42	C	0.977505	0.281418	0.214535
C43	C	0.560051	-0.218573	-0.285452
C44	C	1.060051	0.281427	0.214548
C45	C	0.601280	-0.251959	-0.251943
C46	C	1.101280	0.248041	0.248057
C47	C	0.559963	-0.285354	-0.218448
C48	C	1.059963	0.214646	0.281552
C49	C	0.601374	-0.185183	-0.318951
C50	C	1.101374	0.314817	0.181049
C51	C	0.683925	-0.185174	-0.318940
C52	C	1.183925	0.314826	0.181060
C53	C	0.725155	-0.218557	-0.285428
C54	C	1.225155	0.281443	0.214572
C55	C	0.683834	-0.251953	-0.251931
C56	C	1.183834	0.248047	0.248069
C57	C	0.725063	-0.285339	-0.218422
C58	C	1.225063	0.214661	0.281578
C59	C	0.683743	-0.318732	-0.184922
C60	C	1.183743	0.181268	0.315078
C61	C	0.601194	-0.318737	-0.184936
C62	C	1.101194	0.181263	0.315064
C63	C	0.807704	-0.218552	-0.285414
C64	C	1.307704	0.281448	0.214586
C65	C	0.807616	-0.285332	-0.218410
C66	C	1.307616	0.214668	0.281590
C67	C	1.142044	-0.387792	-0.251890
C68	C	1.642044	0.112208	0.248110
C69	C	1.142069	-0.445906	-0.251890
C70	C	1.642069	0.054094	0.248110
C71	C	1.192740	-0.806231	-0.285438
C72	C	1.692740	-0.306231	0.214562
C73	C	1.192763	-0.860836	-0.285449
C74	C	1.692763	-0.360836	0.214551
O75	O	1.235713	-0.889040	-0.313930
O76	O	1.735713	-0.389040	0.186070
N77	N	1.142266	-0.888188	-0.251981
N78	N	1.642266	-0.388188	0.248019
C79	C	1.091735	-0.860934	-0.218505
C80	C	1.591735	-0.360934	0.281495
O81	O	1.048785	-0.889214	-0.190040
O82	O	1.548785	-0.389214	0.309960
C83	C	1.091709	-0.806331	-0.218497
C84	C	1.591709	-0.306331	0.281503
C85	C	1.142216	-0.778981	-0.251963
C86	C	1.642216	-0.278981	0.248037
C87	C	1.243242	-0.778881	-0.318901
C88	C	1.743242	-0.278881	0.181099
C89	C	1.243220	-0.724281	-0.318890
C90	C	1.743220	-0.224281	0.181110
C91	C	1.192695	-0.697030	-0.285415
C92	C	1.692695	-0.197030	0.214585
C93	C	1.142193	-0.724380	-0.251952
C94	C	1.642193	-0.224380	0.248048
C95	C	1.041175	-0.779078	-0.185024
C96	C	1.541175	-0.279078	0.314976
C97	C	1.041152	-0.724471	-0.185019
C98	C	1.541152	-0.224471	0.314981
C99	C	1.091659	-0.697121	-0.218485
C100	C	1.591659	-0.197121	0.281515
C101	C	1.091646	-0.642529	-0.218465
C102	C	1.591646	-0.142529	0.281535
N103	N	1.142144	-0.615176	-0.251933
N104	N	1.642144	-0.115176	0.248067
C105	C	1.192668	-0.642427	-0.285407
C106	C	1.692668	-0.142427	0.214593
C107	C	1.091794	-0.975605	-0.218524
C108	C	1.591794	-0.475605	0.281476
C109	C	1.091825	-1.030207	-0.218529
C110	C	1.591825	-0.530207	0.281471
C111	C	1.192852	-1.030105	-0.285473
C112	C	1.692852	-0.530105	0.214527
C113	C	1.192825	-0.975501	-0.285466
C114	C	1.692825	-0.475501	0.214534
C115	C	1.142292	-0.948252	-0.251991
C116	C	1.642292	-0.448252	0.248009
C117	C	1.192618	-0.527762	-0.285381
C118	C	1.692618	-0.027762	0.214619
C119	C	1.192593	-0.473156	-0.285365
C120	C	1.692593	0.026844	0.214635
C121	C	1.091564	-0.473264	-0.218422
C122	C	1.591564	0.026736	0.281578
C123	C	1.091591	-0.527864	-0.218436
C124	C	1.591591	-0.027864	0.281564
C125	C	1.142121	-0.555112	-0.251919
C126	C	1.642121	-0.055112	0.248081
O127	O	1.048716	-0.614290	-0.189999
O128	O	1.548716	-0.114290	0.310001
O129	O	1.235605	-0.614140	-0.313873
O130	O	1.735605	-0.114140	0.186127
C131	C	1.348324	-0.251967	-0.251957
C132	C	1.848324	0.248033	0.248043
C133	C	1.436181	-0.251974	-0.251969
C134	C	1.936181	0.248026	0.248031
C135	C	1.142173	-0.251935	-0.388304
C136	C	1.642173	0.248065	0.111696
C137	C	1.142180	-0.251928	-0.446418
C138	C	1.642180	0.248072	0.053582
C139	C	1.142290	-0.115576	-0.251983
C140	C	1.642290	0.384424	0.248017
C141	C	1.142347	-0.057462	-0.252006
C142	C	1.642347	0.442538	0.247994
C143	C	1.091645	-0.285299	-0.697586
C144	C	1.591645	0.214701	-0.197586
C145	C	1.091631	-0.285310	-0.642982
C146	C	1.591631	0.214690	-0.142982
O147	O	1.048589	-0.313735	-0.614724
O148	O	1.548589	0.186265	-0.114724
N149	N	1.142210	-0.251886	-0.615692
N150	N	1.642210	0.248114	-0.115692
C151	C	1.192801	-0.218444	-0.643009
C152	C	1.692801	0.281556	-0.143009
O153	O	1.235820	-0.190015	-0.614783
O154	O	1.735820	0.309985	-0.114783
C155	C	1.192810	-0.218430	-0.697612
C156	C	1.692810	0.281570	-0.197612
C157	C	1.142233	-0.251860	-0.724899
C158	C	1.642233	0.248140	-0.224899
C159	C	1.041072	-0.318726	-0.724874
C160	C	1.541072	0.181274	-0.224874
C161	C	1.041087	-0.318714	-0.779474
C162	C	1.541087	0.181286	-0.279474
C163	C	1.091675	-0.285276	-0.806787
C164	C	1.591675	0.214724	-0.306787
C165	C	1.142248	-0.251849	-0.779500
C166	C	1.642248	0.248151	-0.279500
C167	C	1.243396	-0.184986	-0.724928
C168	C	1.743396	0.315014	-0.224928
C169	C	1.243400	-0.184974	-0.779535
C170	C	1.743400	0.315026	-0.279535
C171	C	1.192824	-0.218405	-0.806823
C172	C	1.692824	0.281595	-0.306823
C173	C	1.192852	-0.218400	-0.861414
C174	C	1.692852	0.281600	-0.361414
N175	N	1.142273	-0.251824	-0.888704
N176	N	1.642273	0.248176	-0.388704
C177	C	1.091684	-0.285262	-0.861391
C178	C	1.591684	0.214738	-0.361391
C179	C	1.192776	-0.218475	-0.528338
C180	C	1.692776	0.281525	-0.028338
C181	C	1.192772	-0.218492	-0.473736
C182	C	1.692772	0.281508	0.026264
C183	C	1.091601	-0.285357	-0.473713
C184	C	1.591601	0.214643	0.026287
C185	C	1.091610	-0.285343	-0.528316
C186	C	1.591610	0.214657	-0.028316
C187	C	1.142197	-0.251900	-0.555628
C188	C	1.642197	0.248100	-0.055628
C189	C	1.091720	-0.285236	-0.976056
C190	C	1.591720	0.214764	-0.476056
C191	C	1.091742	-0.285224	-1.030661
C192	C	1.591742	0.214776	-0.530661
C193	C	1.192910	-0.218356	-1.030680
C194	C	1.692910	0.281644	-0.530680
C195	C	1.192891	-0.218371	-0.976079
C196	C	1.692891	0.281629	-0.476079
C197	C	1.142290	-0.251812	-0.948768
C198	C	1.642290	0.248188	-0.448768
O199	O	1.235870	-0.189988	-0.889707
O200	O	1.735870	0.310012	-0.389707
O201	O	1.048665	-0.313682	-0.889624
O202	O	1.548665	0.186318	-0.389624
C203	C	1.142185	-0.251926	-0.116088
C204	C	1.642185	0.248074	0.383912
C205	C	1.142331	-0.251785	-0.057974
C206	C	1.642331	0.248215	0.442026
H207	H	0.717561	-0.157983	-0.346218
H208	H	1.217561	0.342017	0.153782
Br209	Br	0.545113	-0.364053	-0.139476
Br210	Br	1.045113	0.135947	0.360524
H211	H	1.050509	-0.312463	-0.953826
H212	H	1.550509	0.187537	-0.453826
H213	H	1.050408	-0.312584	-0.451464
H214	H	1.550408	0.187416	0.048536
H215	H	1.233725	-0.450890	-0.312616
H216	H	1.733725	0.049110	0.187384
Br217	Br	0.863778	-0.173240	-0.330879
Br218	Br	1.363778	0.326760	0.169121
Br219	Br	0.972444	-0.364087	-0.816498
Br220	Br	1.472444	0.135913	-0.316498
Br221	Br	0.972567	-0.687492	-0.139588
Br222	Br	1.472567	-0.187492	0.360412
H223	H	0.999872	-0.345955	-0.702641
H224	H	1.499872	0.154045	-0.202641
H225	H	1.000047	-0.801337	-0.157772
H226	H	1.500047	-0.301337	0.342228
H227	H	0.443763	-0.312547	-0.191184
H228	H	0.943763	0.187453	0.308816
H229	H	1.284581	-0.157764	-0.702720
H230	H	1.784581	0.342236	-0.202720
H231	H	1.233759	-0.549940	-0.312649
H232	H	1.733759	-0.049940	0.187351
Br233	Br	1.023290	-1.067318	-0.173100
Br234	Br	1.523290	-0.567318	0.326900
H235	H	1.050425	-0.312565	-0.550530
H236	H	1.550425	0.187435	-0.050530
H237	H	1.050470	-0.550134	-0.191181
H238	H	1.550470	-0.050134	0.308819
H239	H	1.050429	-0.451068	-0.191166
H240	H	1.550429	0.048932	0.308834
H241	H	1.050556	-0.312449	-1.052876
H242	H	1.550556	0.187551	-0.552876
H243	H	1.233990	-1.052302	-0.312731
H244	H	1.733990	-0.552302	0.187269
H245	H	1.233965	-0.191275	-0.451523
H246	H	1.733965	0.308725	0.048477
H247	H	1.284344	-0.702015	-0.346142
H248	H	1.784344	-0.202015	0.153858
Br249	Br	0.421551	-0.173282	-0.330945
Br250	Br	0.921551	0.326718	0.169055
H251	H	1.233977	-0.191242	-0.550573
H252	H	1.733977	0.308758	-0.050573
Br253	Br	0.545417	-0.139886	-0.364432
Br254	Br	1.045417	0.360114	0.135568
H255	H	1.284385	-0.801063	-0.346164
H256	H	1.784385	-0.301063	0.153836
H257	H	1.284592	-0.157737	-0.801770
H258	H	1.784592	0.342263	-0.301770
Br259	Br	1.261543	-0.173008	-0.939045
Br260	Br	1.761543	0.326992	-0.439045
H261	H	1.234100	-0.191133	-1.052928
H262	H	1.734100	0.308867	-0.552928
H263	H	0.841179	-0.312518	-0.191121
H264	H	1.341179	0.187482	0.308879
Br265	Br	0.739706	-0.364045	-0.139453
Br266	Br	1.239706	0.135955	0.360547
H267	H	1.050647	-0.953421	-0.191261
H268	H	1.550647	-0.453421	0.308739
H269	H	1.233951	-0.953236	-0.312716
H270	H	1.733951	-0.453236	0.187284
