data_functionalizedCrystal
_audit_creation_method	'MofGen! by Chris Wilmer'
_symmetry_space_group_name_H-M	'P1'
_symmetry_Int_Tables_number	1
_symmetry_cell_setting	triclinic
loop_
_symmetry_equiv_pos_as_xyz
  x,y,z
_cell_length_a	13.897449
_cell_length_b	17.077402
_cell_length_c	13.897441
_cell_angle_alpha	89.968703
_cell_angle_beta	89.978743
_cell_angle_gamma	90.026055
loop_
_atom_site_label
_atom_site_type_symbol
_atom_site_fract_x
_atom_site_fract_y
_atom_site_fract_z
Zn1	Zn	1.474632	-0.312473	-0.545438
Zn2	Zn	1.807965	0.020860	-0.212105
Zn3	Zn	2.141298	0.354193	0.121228
Zn4	Zn	1.474511	-0.443753	-0.384135
Zn5	Zn	1.807844	-0.110420	-0.050802
Zn6	Zn	2.141177	0.222913	0.282532
Zn7	Zn	1.313327	-0.312507	-0.384149
Zn8	Zn	1.646660	0.020826	-0.050816
Zn9	Zn	1.979994	0.354159	0.282517
Zn10	Zn	1.313281	-0.443703	-0.545380
Zn11	Zn	1.646615	-0.110370	-0.212047
Zn12	Zn	1.979948	0.222964	0.121286
O13	O	1.393938	-0.378109	-0.464776
O14	O	1.727271	-0.044776	-0.131442
O15	O	2.060604	0.288557	0.201891
O16	O	1.609597	-0.329895	-0.524060
O17	O	1.942931	0.003439	-0.190726
O18	O	2.276264	0.336772	0.142607
O19	O	1.453098	-0.426379	-0.249155
O20	O	1.786431	-0.093045	0.084178
O21	O	2.119764	0.240288	0.417511
O22	O	1.334794	-0.202656	-0.405575
O23	O	1.668127	0.130677	-0.072242
O24	O	2.001461	0.464011	0.261092
O25	O	1.609508	-0.426346	-0.405551
O26	O	1.942842	-0.093012	-0.072217
O27	O	2.276175	0.240321	0.261116
O28	O	1.453304	-0.202631	-0.524073
O29	O	1.786637	0.130702	-0.190740
O30	O	2.119971	0.464036	0.142593
O31	O	1.334677	-0.329953	-0.249166
O32	O	1.668010	0.003380	0.084168
O33	O	2.001343	0.336714	0.417501
O34	O	1.178339	-0.329904	-0.405519
O35	O	1.511673	0.003429	-0.072185
O36	O	1.845006	0.336763	0.261148
O37	O	1.334717	-0.426260	-0.680370
O38	O	1.668050	-0.092926	-0.347036
O39	O	2.001383	0.240407	-0.013703
O40	O	1.178306	-0.426293	-0.523974
O41	O	1.511639	-0.092959	-0.190641
O42	O	1.844973	0.240374	0.142692
O43	O	1.453260	-0.329846	-0.680412
O44	O	1.786593	0.003487	-0.347079
O45	O	2.119927	0.336821	-0.013746
O46	O	1.453053	-0.553594	-0.405494
O47	O	1.786387	-0.220260	-0.072161
O48	O	2.119720	0.113073	0.261172
O49	O	1.334599	-0.553557	-0.523960
O50	O	1.667932	-0.220223	-0.190627
O51	O	2.001266	0.113110	0.142706
C52	C	1.143323	-0.378097	-0.464742
C53	C	1.476657	-0.044764	-0.131409
C54	C	1.809990	0.288569	0.201925
C55	C	1.036109	-0.378111	-0.464751
C56	C	1.369443	-0.044778	-0.131417
C57	C	1.702776	0.288556	0.201916
C58	C	1.393834	-0.582057	-0.464741
C59	C	1.727168	-0.248724	-0.131407
C60	C	2.060501	0.084609	0.201926
C61	C	1.393878	-0.669307	-0.464758
C62	C	1.727212	-0.335974	-0.131424
C63	C	2.060545	-0.002640	0.201909
C64	C	1.455752	-1.045045	-0.526591
C65	C	1.789085	-0.711711	-0.193257
C66	C	2.122418	-0.378378	0.140076
C67	C	1.455708	-0.963064	-0.526568
C68	C	1.789042	-0.629731	-0.193234
C69	C	2.122375	-0.296397	0.140099
C70	C	1.394031	-0.922156	-0.464815
C71	C	1.727364	-0.588822	-0.131482
C72	C	2.060698	-0.255489	0.201852
C73	C	1.332400	-0.963232	-0.403074
C74	C	1.665733	-0.629899	-0.069741
C75	C	1.999066	-0.296565	0.263593
C76	C	1.332449	-1.045211	-0.403093
C77	C	1.665782	-0.711878	-0.069759
C78	C	1.999115	-0.378544	0.263574
C79	C	1.332300	-0.792362	-0.403041
C80	C	1.665634	-0.459029	-0.069708
C81	C	1.998967	-0.125695	0.263626
C82	C	1.332250	-0.710378	-0.403024
C83	C	1.665583	-0.377044	-0.069690
C84	C	1.998917	-0.043711	0.263643
C85	C	1.455560	-0.710215	-0.526516
C86	C	1.788893	-0.376882	-0.193183
C87	C	2.122227	-0.043549	0.140150
C88	C	1.455609	-0.792194	-0.526535
C89	C	1.788942	-0.458861	-0.193202
C90	C	2.122276	-0.125528	0.140132
C91	C	1.393976	-0.833265	-0.464795
C92	C	1.727310	-0.499931	-0.131462
C93	C	2.060643	-0.166598	0.201872
C94	C	0.949040	-0.378114	-0.464767
C95	C	1.282373	-0.044780	-0.131433
C96	C	1.615706	0.288553	0.201900
C97	C	0.839807	-0.378119	-0.464796
C98	C	1.173140	-0.044786	-0.131463
C99	C	1.506474	0.288548	0.201871
C100	C	1.645531	-0.378122	-0.464810
C101	C	1.978864	-0.044789	-0.131477
C102	C	2.312197	0.288545	0.201857
C103	C	1.752745	-0.378127	-0.464825
C104	C	2.086078	-0.044794	-0.131491
C105	C	2.419411	0.288539	0.201842
C106	C	1.393997	-0.378043	-0.716369
C107	C	1.727330	-0.044710	-0.383036
C108	C	2.060663	0.288623	-0.049702
C109	C	1.394022	-0.378015	-0.823583
C110	C	1.727355	-0.044682	-0.490250
C111	C	2.060689	0.288651	-0.156916
C112	C	1.394068	-0.173365	-0.464832
C113	C	1.727401	0.159968	-0.131499
C114	C	2.060734	0.493302	0.201834
C115	C	1.394123	-0.086115	-0.464856
C116	C	1.727456	0.247218	-0.131523
C117	C	2.060790	0.580552	0.201810
C118	C	1.394042	-0.377993	-0.910653
C119	C	1.727375	-0.044660	-0.577319
C120	C	2.060708	0.288674	-0.243986
C121	C	1.394069	-0.377958	-1.019885
C122	C	1.727403	-0.044624	-0.686552
C123	C	2.060736	0.288709	-0.353219
C124	C	1.393934	-0.378118	-0.214161
C125	C	1.727268	-0.044785	0.119172
C126	C	2.060601	0.288548	0.452505
C127	C	1.394096	-0.377925	-0.106948
C128	C	1.727429	-0.044592	0.226385
C129	C	2.060763	0.288741	0.559719
H130	H	1.505967	-1.078346	-0.576886
H131	H	1.839301	-0.745013	-0.243553
H132	H	2.172634	-0.411680	0.089780
H133	H	1.505830	-0.825500	-0.576822
H134	H	1.839163	-0.492166	-0.243489
H135	H	2.172496	-0.158833	0.089845
H136	H	1.282027	-0.677074	-0.352737
H137	H	1.615360	-0.343741	-0.019404
H138	H	1.948693	-0.010407	0.313930
H139	H	1.505744	-0.676771	-0.576787
H140	H	1.839077	-0.343437	-0.243453
H141	H	2.172410	-0.010104	0.089880
O142	O	1.522205	-0.918763	-0.593125
O143	O	1.855538	-0.585430	-0.259792
O144	O	2.188871	-0.252097	0.073541
H145	H	1.565102	-0.960982	-0.636067
H146	H	1.898435	-0.627649	-0.302734
H147	H	2.231769	-0.294315	0.030599
H148	H	1.282114	-0.825799	-0.352764
H149	H	1.615448	-0.492466	-0.019431
H150	H	1.948781	-0.159133	0.313903
H151	H	1.282184	-0.929920	-0.352789
H152	H	1.615517	-0.596586	-0.019455
H153	H	1.948851	-0.263253	0.313878
O154	O	1.265974	-1.089515	-0.336513
O155	O	1.599308	-0.756182	-0.003180
O156	O	1.932641	-0.422848	0.330154
H157	H	1.223070	-1.047298	-0.293576
H158	H	1.556404	-0.713965	0.039758
H159	H	1.889737	-0.380631	0.373091
