data_functionalizedCrystal
_audit_creation_method	'MofGen! by Chris Wilmer'
_symmetry_space_group_name_H-M	'P1'
_symmetry_Int_Tables_number	1
_symmetry_cell_setting	triclinic
loop_
_symmetry_equiv_pos_as_xyz
  x,y,z
_cell_length_a	6.817900
_cell_length_b	11.102288
_cell_length_c	12.908943
_cell_angle_alpha	94.412453
_cell_angle_beta	100.860631
_cell_angle_gamma	108.605689
loop_
_atom_site_label
_atom_site_type_symbol
_atom_site_fract_x
_atom_site_fract_y
_atom_site_fract_z
V1	V	-4.022089	-0.174253	-0.328682
O2	O	-3.982824	0.010006	-0.322425
O3	O	-3.999478	-0.347084	-0.326434
O4	O	-3.959861	-0.170856	-0.472032
O5	O	-4.022714	-0.167442	-0.175820
V6	V	-4.504167	-0.152298	-0.310398
O7	O	-4.286517	-0.222412	-0.368789
O8	O	-4.689936	-0.104138	-0.270292
O9	O	-4.303571	0.020533	-0.312646
O10	O	-4.660829	-0.336557	-0.316655
O11	O	-4.620938	-0.159109	-0.463261
O12	O	-4.343188	-0.155695	-0.167049
C13	C	-3.851199	-0.389239	-0.321249
C14	C	-3.913907	-0.530526	-0.320367
C15	C	-3.800664	-0.164441	-0.506972
C16	C	-3.831240	-0.162808	-0.624161
C17	C	-4.125943	-0.603351	-0.325212
C18	C	-4.184854	-0.736106	-0.324391
C19	C	-3.819670	-0.723199	-0.313876
C20	C	-3.760764	-0.590447	-0.314704
C21	C	-4.253829	-0.172350	-0.855107
C22	C	-4.282568	-0.170816	-0.965217
C23	C	-3.917455	-0.158196	-0.954491
C24	C	-3.888716	-0.159730	-0.844381
C25	C	-4.056912	-0.166809	-0.794694
C26	C	-4.028175	-0.168353	-0.684583
C27	C	-3.663060	-0.155723	-0.673858
C28	C	-3.691799	-0.154189	-0.783968
C29	C	-4.115193	0.062681	-0.317828
C30	C	-4.031723	0.203967	-0.318718
C31	C	-4.165728	-0.162114	-0.132103
C32	C	-4.114390	-0.163741	-0.014913
H33	H	-4.250645	-0.554567	-0.329821
F34	F	-4.492149	-0.176710	-1.029510
F35	F	-3.738475	-0.150666	-1.007391
F36	F	-4.207185	-0.175892	-0.631704
F37	F	-3.656699	-0.786982	-0.307845
F38	F	-3.512810	-0.146658	-0.836861
H39	H	-3.588094	-0.531151	-0.310763
H40	H	-4.357511	-0.795395	-0.328338
F41	F	-3.453475	-0.149834	-0.609554
H42	H	-4.390788	-0.178128	-0.814653
