data_functionalizedCrystal
_audit_creation_method	'MofGen! by Chris Wilmer'
_symmetry_space_group_name_H-M	'P1'
_symmetry_Int_Tables_number	1
_symmetry_cell_setting	triclinic
loop_
_symmetry_equiv_pos_as_xyz
  x,y,z
_cell_length_a	13.339070
_cell_length_b	16.974885
_cell_length_c	15.455313
_cell_angle_alpha	90.969048
_cell_angle_beta	93.394339
_cell_angle_gamma	99.478032
loop_
_atom_site_label
_atom_site_type_symbol
_atom_site_fract_x
_atom_site_fract_y
_atom_site_fract_z
O1	O	0.129068	1.077285	0.003424
O2	O	0.144520	0.851233	-0.012431
O3	O	-0.010544	0.938316	-0.006320
O4	O	0.284132	0.990203	-0.002686
O5	O	-0.001713	0.933328	0.137592
O6	O	0.153351	0.846246	0.131481
O7	O	0.137899	1.072298	0.147336
Cu8	Cu	0.146431	0.958816	0.152549
Cu9	Cu	0.135988	0.964715	-0.017644
O10	O	0.292963	0.985215	0.141226
C11	C	0.148185	0.819216	0.057455
C12	C	0.145936	0.731244	0.051284
C13	C	0.132725	0.236342	0.008072
C14	C	0.134839	0.319001	0.013881
C15	C	0.140717	0.357605	0.095233
C16	C	0.144471	0.313544	0.170781
C17	C	0.142350	0.230885	0.164970
C18	C	0.147570	0.604524	0.121022
C19	C	0.149693	0.687189	0.126826
C20	C	0.140059	0.692641	-0.030074
C21	C	0.137945	0.609981	-0.035877
C22	C	0.141694	0.565927	0.039670
N23	N	0.142880	0.442096	0.101173
N24	N	0.139523	0.481436	0.033730
C25	C	-0.043843	0.927057	0.065020
C26	C	-0.156220	0.900932	0.063184
C27	C	-0.520429	1.104070	0.077432
C28	C	-0.414845	1.128619	0.079162
C29	C	-0.350184	1.071699	0.075167
C30	C	-0.391116	0.990227	0.069443
C31	C	-0.496710	0.965676	0.067720
C32	C	-0.326465	0.933305	0.065455
C33	C	-0.367398	0.851832	0.059731
C34	C	-0.472981	0.827285	0.058007
C35	C	-0.537643	0.884205	0.062002
C36	C	-0.220871	0.957856	0.067178
C37	C	-0.197153	0.819461	0.057466
C38	C	-0.302736	0.794913	0.055736
C39	C	0.326262	0.996474	0.069884
C40	C	0.438639	1.022599	0.071714
C41	C	0.134234	1.104315	0.077449
C42	C	0.136482	1.192288	0.083614
N43	N	0.153776	0.954673	0.272254
N44	N	0.128635	0.968863	-0.137348
C45	C	0.087923	0.991692	0.320246
C46	C	0.093487	0.988568	0.410834
C47	C	0.164909	0.948430	0.453430
C48	C	0.230764	0.911406	0.405432
C49	C	0.225195	0.914525	0.314844
C50	C	0.188921	0.934958	0.724066
C51	C	0.194488	0.931844	0.814660
C52	C	0.057209	1.009005	0.820057
C53	C	0.051650	1.012125	0.729467
C54	C	0.117501	0.975098	0.681477
N55	N	0.170600	0.945237	0.546026
N56	N	0.111805	0.978285	0.588882
H57	H	0.150608	0.568663	0.182538
H58	H	0.127946	0.204918	-0.058174
H59	H	-0.623619	0.864222	0.060590
H60	H	0.278818	0.884380	0.275770
C61	C	0.130692	0.367457	-0.069222
N62	N	0.127563	0.403952	-0.131819
C63	C	-0.026925	1.056275	0.682619
N64	N	-0.086108	1.089530	0.647332
C65	C	-0.175858	1.047473	0.073469
N66	N	-0.141956	1.114978	0.078204
H67	H	-0.506304	0.760945	0.053352
H68	H	0.288914	0.878720	0.440118
H69	H	0.039864	1.018711	0.449909
H70	H	-0.573084	1.150405	0.080691
H71	H	-0.381525	1.194953	0.083824
C72	C	-0.015231	1.049724	0.872853
N73	N	-0.069800	1.080391	0.912619
C74	C	0.131462	0.567522	-0.125371
N75	N	0.126577	0.535541	-0.192779
H76	H	0.145420	0.195018	0.226485
C77	C	0.273057	0.887683	0.861513
N78	N	0.332234	0.854424	0.896803
C79	C	0.261492	0.894358	0.671297
N80	N	0.316204	0.863823	0.631552
C81	C	0.135923	0.741106	-0.113171
N82	N	0.132802	0.777609	-0.175762
C83	C	0.156154	0.729650	0.216324
N84	N	0.161020	0.761632	0.283730
C85	C	0.150979	0.356016	0.260269
N86	N	0.155901	0.388007	0.327674
C87	C	-0.347776	0.705294	0.049451
N88	N	-0.381701	0.637793	0.044721
H89	H	-0.264213	1.091691	0.076576
H90	H	0.029769	1.024381	0.285571
H91	H	-0.144505	0.773112	0.054217
