data_functionalizedCrystal
_audit_creation_method	'MofGen! by Chris Wilmer'
_symmetry_space_group_name_H-M	'P1'
_symmetry_Int_Tables_number	1
_symmetry_cell_setting	triclinic
loop_
_symmetry_equiv_pos_as_xyz
  x,y,z
_cell_length_a	18.215407
_cell_length_b	15.297327
_cell_length_c	18.215398
_cell_angle_alpha	99.650734
_cell_angle_beta	89.980536
_cell_angle_gamma	99.707397
loop_
_atom_site_label
_atom_site_type_symbol
_atom_site_fract_x
_atom_site_fract_y
_atom_site_fract_z
Zn1	Zn	1.074353	-0.359191	-0.466798
Zn2	Zn	1.052960	-0.510058	-0.365019
Zn3	Zn	0.951283	-0.359214	-0.343748
Zn4	Zn	0.929956	-0.510014	-0.488037
O5	O	1.002138	-0.434619	-0.415901
O6	O	1.174498	-0.379213	-0.453309
O7	O	1.039445	-0.490076	-0.259217
O8	O	0.985487	-0.232962	-0.342280
O9	O	1.158781	-0.490054	-0.378533
O10	O	1.075906	-0.232945	-0.432684
O11	O	0.964743	-0.379252	-0.243589
O12	O	0.845471	-0.379209	-0.362876
O13	O	0.949138	-0.489979	-0.588200
O14	O	0.829802	-0.490002	-0.468884
O15	O	1.055226	-0.379170	-0.572596
O16	O	1.018765	-0.636301	-0.399128
O17	O	0.928394	-0.636269	-0.489509
C18	C	0.810934	-0.434604	-0.415877
C19	C	0.729133	-0.434619	-0.415888
C20	C	0.532787	-0.492399	-0.471040
C21	C	0.455927	-0.492402	-0.471050
C22	C	0.472239	-0.376856	-0.360779
C23	C	0.549098	-0.376849	-0.360773
C24	C	0.579368	-0.434626	-0.415903
C25	C	0.425651	-0.434635	-0.415919
C26	C	0.342317	-0.434638	-0.415929
C27	C	0.662708	-0.434622	-0.415895
C28	C	0.968964	-0.669020	-0.448948
C29	C	0.954839	-0.769297	-0.463110
C30	C	1.103393	-1.051904	-0.314931
C31	C	1.116663	-0.957688	-0.301621
C32	C	1.076209	-0.910586	-0.341992
C33	C	1.022481	-0.957708	-0.395676
C34	C	1.009205	-1.051933	-0.408983
C35	C	0.982021	-0.910615	-0.436044
C36	C	0.928293	-0.957738	-0.489727
C37	C	0.915020	-1.051953	-0.503032
C38	C	0.955474	-1.099056	-0.462661
C39	C	0.995297	-0.816390	-0.422737
C40	C	0.901109	-0.816419	-0.516788
C41	C	0.887838	-0.910635	-0.530098
C42	C	1.194089	-0.434635	-0.415924
C43	C	1.275887	-0.434642	-0.415935
C44	C	1.002189	-0.434567	-0.607846
C45	C	1.002211	-0.434545	-0.689642
C46	C	1.035462	-0.199304	-0.382740
C47	C	1.049662	-0.099026	-0.368610
C48	C	1.041157	-0.492140	-0.962826
C49	C	1.041142	-0.492172	-0.885971
C50	C	0.963344	-0.376776	-0.869683
C51	C	0.963356	-0.376750	-0.946536
C52	C	1.002267	-0.434431	-0.993106
C53	C	1.002239	-0.434488	-0.839398
C54	C	1.002222	-0.434522	-0.756069
C55	C	1.002283	-0.434399	-1.076440
C56	C	1.002139	-0.434606	-0.224692
C57	C	1.002296	-0.434374	-0.142861
H58	H	0.587027	-0.329797	-0.315874
C59	C	0.352321	-0.613775	-0.498233
C60	C	0.404722	-0.555909	-0.531656
H61	H	0.320707	-0.652978	-0.535652
H62	H	0.377414	-0.648229	-0.470985
H63	H	0.323295	-0.579360	-0.465404
H64	H	0.433751	-0.590325	-0.564481
H65	H	0.379627	-0.521452	-0.558916
C66	C	0.387562	-0.364169	-0.260020
C67	C	0.438961	-0.313354	-0.300179
H68	H	0.367023	-0.324964	-0.222605
H69	H	0.348824	-0.398571	-0.292857
H70	H	0.411988	-0.403424	-0.237352
H71	H	0.414534	-0.274104	-0.322852
H72	H	0.477705	-0.278937	-0.267337
C73	C	0.866142	-0.364195	-1.031168
C74	C	0.920597	-0.313315	-0.979822
H75	H	0.839741	-0.325037	-1.051712
H76	H	0.889316	-0.398534	-1.069898
H77	H	0.832431	-0.403512	-1.006709
H78	H	0.954312	-0.274003	-1.004282
H79	H	0.897423	-0.278961	-0.941086
H80	H	0.944674	-1.175774	-0.473497
H81	H	1.039042	-0.778031	-0.379027
C82	C	1.146505	-0.775608	-0.271729
C83	C	1.090801	-0.807022	-0.327370
H84	H	1.155519	-0.711669	-0.262706
H85	H	1.130789	-0.796963	-0.227249
H86	H	1.190989	-0.796876	-0.287504
H87	H	1.046315	-0.785759	-0.311592
H88	H	1.106514	-0.785658	-0.371858
H89	H	1.072810	-0.539164	-0.861321
C90	C	0.508942	-0.606601	-0.580045
C91	C	0.566063	-0.555896	-0.531645
H92	H	0.529486	-0.645796	-0.617464
H93	H	0.474078	-0.641064	-0.552798
H94	H	0.484531	-0.567328	-0.602706
H95	H	0.590470	-0.595170	-0.508980
H96	H	0.600939	-0.521431	-0.558896
C97	C	1.208434	-0.967130	-0.210003
C98	C	1.175725	-0.905894	-0.242624
H99	H	1.244903	-0.935152	-0.173583
H100	H	1.171203	-1.003928	-0.187019
H101	H	1.231391	-1.003831	-0.247285
H102	H	1.152763	-0.869198	-0.205342
H103	H	1.212962	-0.869080	-0.265608
C104	C	1.075728	-0.543333	-1.087869
C105	C	1.083924	-0.555544	-1.014016
H106	H	1.102135	-0.582475	-1.119468
H107	H	1.024420	-0.556535	-1.102312
H108	H	1.095083	-0.482709	-1.091912
H109	H	1.064564	-0.616167	-1.009972
H110	H	1.135242	-0.542348	-0.999569
C111	C	1.124817	-1.196329	-0.293540
C112	C	1.147829	-1.103679	-0.270534
H113	H	1.152248	-1.228291	-0.266123
H114	H	1.073192	-1.211800	-0.284934
H115	H	1.133415	-1.211729	-0.345165
H116	H	1.139225	-1.088278	-0.218910
H117	H	1.199466	-1.088201	-0.279134
C118	C	0.823255	-1.042517	-0.594665
C119	C	0.855959	-1.103752	-0.562037
H120	H	0.786796	-1.074496	-0.631094
H121	H	0.800293	-1.005821	-0.557394
H122	H	0.860496	-1.005713	-0.617645
H123	H	0.818718	-1.140551	-0.539052
H124	H	0.878920	-1.140463	-0.599314
H125	H	0.844092	-0.949016	-0.573807
C126	C	0.879642	-0.672004	-0.538160
C127	C	0.856639	-0.764654	-0.561172
H128	H	0.852192	-0.640044	-0.565562
H129	H	0.871065	-0.656614	-0.486537
H130	H	0.931267	-0.656518	-0.546789
H131	H	0.805015	-0.780141	-0.552538
H132	H	0.865210	-0.780049	-0.612808
C133	C	0.928790	-0.325570	-0.744637
C134	C	0.920584	-0.313367	-0.818490
H135	H	0.902395	-0.286416	-0.713034
H136	H	0.909434	-0.386183	-0.740585
H137	H	0.980107	-0.312372	-0.730202
H138	H	0.869267	-0.326572	-0.832927
H139	H	0.939936	-0.252740	-0.822545
