data_functionalizedCrystal
_audit_creation_method	'MofGen! by Chris Wilmer'
_symmetry_space_group_name_H-M	'P1'
_symmetry_Int_Tables_number	1
_symmetry_cell_setting	triclinic
loop_
_symmetry_equiv_pos_as_xyz
  x,y,z
_cell_length_a	12.759401
_cell_length_b	12.759400
_cell_length_c	19.805399
_cell_angle_alpha	89.983370
_cell_angle_beta	90.016449
_cell_angle_gamma	89.998346
loop_
_atom_site_label
_atom_site_type_symbol
_atom_site_fract_x
_atom_site_fract_y
_atom_site_fract_z
Zn1	Zn	-1.606306	-0.418341	-0.382715
Zn2	Zn	-1.606244	-0.594034	-0.269548
Zn3	Zn	-1.430617	-0.418364	-0.269546
Zn4	Zn	-1.430631	-0.593973	-0.382701
O5	O	-1.518450	-0.506178	-0.326127
O6	O	-1.753319	-0.441663	-0.367710
O7	O	-1.582915	-0.570767	-0.174831
O8	O	-1.453943	-0.271340	-0.284562
O9	O	-1.753273	-0.570744	-0.284567
O10	O	-1.583020	-0.271323	-0.367707
O11	O	-1.453883	-0.441703	-0.174829
O12	O	-1.283598	-0.441643	-0.284549
O13	O	-1.453966	-0.570639	-0.477419
O14	O	-1.283608	-0.570662	-0.367684
O15	O	-1.583034	-0.441603	-0.477430
O16	O	-1.582929	-0.741047	-0.284554
O17	O	-1.453906	-0.741002	-0.367686
C18	C	-1.245482	-0.506149	-0.326115
C19	C	-1.128706	-0.506162	-0.326126
C20	C	-1.518441	-0.779145	-0.326134
C21	C	-1.518533	-0.895922	-0.326159
C22	C	-1.073868	-0.439069	-0.369485
C23	C	-0.964144	-0.439076	-0.369488
C24	C	-0.964105	-0.573278	-0.282772
C25	C	-1.073827	-0.573265	-0.282766
C26	C	-1.518508	-0.506112	-0.502670
C27	C	-1.518534	-0.506084	-0.577902
C28	C	-0.792483	-0.506198	-0.326138
C29	C	-0.909259	-0.506181	-0.326136
C30	C	-1.518487	-0.232145	-0.326136
C31	C	-1.518503	-0.115368	-0.326140
C32	C	-1.451310	-0.060513	-0.282854
C33	C	-1.451322	0.049211	-0.282865
C34	C	-1.585729	0.049216	-0.369449
C35	C	-1.585711	-0.060506	-0.369441
C36	C	-1.585741	-0.438891	-0.613253
C37	C	-1.585751	-0.438861	-0.683941
C38	C	-1.518560	-0.506029	-0.719278
C39	C	-1.451345	-0.573224	-0.683922
C40	C	-1.451330	-0.573249	-0.613235
C41	C	-1.451404	-0.573126	-0.968996
C42	C	-1.451427	-0.573099	-1.039688
C43	C	-1.585826	-0.438738	-1.039702
C44	C	-1.585811	-0.438763	-0.969015
C45	C	-1.518593	-0.505954	-0.933665
C46	C	-1.518580	-0.505985	-0.857017
C47	C	-1.518576	-0.506004	-0.795925
C48	C	-1.518451	-0.506168	-0.150271
C49	C	-1.518630	-0.505900	-0.075040
H50	H	-1.118547	-0.384427	-0.404789
H51	H	-0.919500	-0.384440	-0.404794
H52	H	-1.640480	-0.384148	-0.712720
H53	H	-1.640459	-0.384198	-0.584487
C54	C	-0.903735	-0.647094	-0.235086
H55	H	-0.830534	-0.637501	-0.241304
H56	H	-0.921686	-0.631626	-0.189623
H57	H	-0.921732	-0.717705	-0.244923
C58	C	-1.377434	-0.647109	-0.722788
H59	H	-1.337399	-0.687124	-0.691608
H60	H	-1.417622	-0.692882	-0.750364
H61	H	-1.331665	-0.606899	-0.750360
H62	H	-1.118477	-0.627901	-0.247454
H63	H	-1.640450	0.093895	-0.404703
C64	C	-1.377374	-0.120858	-0.235232
H65	H	-1.337351	-0.072470	-0.209460
H66	H	-1.417541	-0.163677	-0.205738
H67	H	-1.331595	-0.163644	-0.261125
H68	H	-1.640554	-0.384025	-1.068492
C69	C	-1.377415	0.109546	-0.235248
H70	H	-1.337394	0.061155	-0.209457
H71	H	-1.331649	0.152362	-0.261137
H72	H	-1.417611	0.152335	-0.205762
H73	H	-1.640529	-0.384071	-0.940247
C74	C	-1.377514	-0.646984	-1.078560
H75	H	-1.387162	-0.637353	-1.125722
H76	H	-1.306921	-0.631604	-1.066975
H77	H	-1.392880	-0.717584	-1.066973
H78	H	-1.640427	-0.105170	-0.404694
H79	H	-1.396687	-0.627853	-0.940223
C80	C	-1.377428	-0.647186	-0.574350
H81	H	-1.337427	-0.687200	-0.605518
H82	H	-1.331644	-0.607023	-0.546764
H83	H	-1.417633	-0.692973	-0.546785
