data_functionalizedCrystal
_audit_creation_method	'MofGen! by Chris Wilmer'
_symmetry_space_group_name_H-M	'P1'
_symmetry_Int_Tables_number	1
_symmetry_cell_setting	triclinic
loop_
_symmetry_equiv_pos_as_xyz
  x,y,z
_cell_length_a	16.625547
_cell_length_b	16.625546
_cell_length_c	17.077395
_cell_angle_alpha	90.028955
_cell_angle_beta	90.019972
_cell_angle_gamma	90.022405
loop_
_atom_site_label
_atom_site_type_symbol
_atom_site_fract_x
_atom_site_fract_y
_atom_site_fract_z
Zn1	Zn	1.232642	-0.321013	0.443924
Zn2	Zn	1.732642	0.178987	0.943924
Zn3	Zn	1.232557	-0.455853	0.312654
Zn4	Zn	1.732557	0.044147	0.812654
Zn5	Zn	1.097815	-0.321038	0.312662
Zn6	Zn	1.597815	0.178962	0.812662
Zn7	Zn	1.097774	-0.455807	0.443868
Zn8	Zn	1.597774	0.044193	0.943868
O9	O	1.165197	-0.388428	0.378277
O10	O	1.665197	0.111572	0.878277
O11	O	1.345463	-0.338908	0.426531
O12	O	1.845463	0.161092	0.926531
O13	O	1.214664	-0.437999	0.202808
O14	O	1.714664	0.062001	0.702808
O15	O	1.115753	-0.208202	0.330101
O16	O	1.615753	0.291798	0.830101
O17	O	1.345400	-0.437975	0.330087
O18	O	1.845400	0.062025	0.830087
O19	O	1.214810	-0.208184	0.426539
O20	O	1.714810	0.291816	0.926539
O21	O	1.115670	-0.338951	0.202814
O22	O	1.615670	0.161049	0.702814
O23	O	0.984977	-0.338906	0.330046
O24	O	1.484977	0.161094	0.830046
O25	O	1.115683	-0.437897	0.553722
O26	O	1.615683	0.062103	1.053722
O27	O	0.984947	-0.437921	0.426443
O28	O	1.484947	0.062079	0.926443
O29	O	1.214770	-0.338864	0.553763
O30	O	1.714770	0.161136	1.053763
O31	O	1.214624	-0.568679	0.330033
O32	O	1.714624	-0.068679	0.830033
O33	O	1.115600	-0.568646	0.426435
O34	O	1.615600	-0.068646	0.926435
C35	C	0.955706	-0.388412	0.378240
C36	C	1.455706	0.111588	0.878240
C37	C	0.866085	-0.388425	0.378243
C38	C	1.366085	0.111575	0.878243
C39	C	0.793303	-0.388426	0.378252
C40	C	1.293303	0.111574	0.878252
C41	C	0.701994	-0.388430	0.378272
C42	C	1.201994	0.111570	0.878272
C43	C	0.629218	-0.388438	0.378292
C44	C	1.129218	0.111562	0.878292
C45	C	0.537903	-0.388443	0.378311
C46	C	1.037903	0.111557	0.878311
C47	C	1.165121	-0.597918	0.378244
C48	C	1.665121	-0.097918	0.878244
C49	C	1.165162	-0.687540	0.378256
C50	C	1.665162	-0.187540	0.878256
C51	C	1.165302	-1.015715	0.378338
C52	C	1.665302	-0.515715	0.878338
C53	C	1.165261	-0.924407	0.378317
C54	C	1.665261	-0.424407	0.878317
C55	C	1.165231	-0.851630	0.378297
C56	C	1.665231	-0.351630	0.878297
C57	C	1.165191	-0.760316	0.378277
C58	C	1.665191	-0.260316	0.878277
C59	C	1.375506	-0.388444	0.378315
C60	C	1.875506	0.111556	0.878315
C61	C	1.465127	-0.388451	0.378331
C62	C	1.965127	0.111549	0.878331
C63	C	1.165232	-0.388373	0.583021
C64	C	1.665232	0.111627	1.083021
C65	C	1.165246	-0.388349	0.670271
C66	C	1.665246	0.111651	1.170271
C67	C	1.165295	-0.178119	0.378327
C68	C	1.665295	0.321881	0.878327
C69	C	1.165337	-0.088498	0.378348
C70	C	1.665337	0.411502	0.878348
C71	C	1.165209	-0.388424	0.174329
C72	C	1.665209	0.111576	0.674329
C73	C	1.165350	-0.388220	0.087080
C74	C	1.665350	0.111780	0.587080
C75	C	1.216930	-0.336674	1.046109
C76	C	1.716930	0.163326	1.546109
C77	C	1.216914	-0.336702	0.964128
C78	C	1.716914	0.163298	1.464128
C79	C	1.165313	-0.388273	0.923120
C80	C	1.665313	0.111727	1.423120
C81	C	1.113731	-0.439825	0.964097
C82	C	1.613731	0.060175	1.464097
C83	C	1.113752	-0.439801	1.046076
C84	C	1.613752	0.060199	1.546076
C85	C	1.113689	-0.439872	0.793227
C86	C	1.613689	0.060128	1.293227
C87	C	1.113666	-0.439896	0.711242
C88	C	1.613666	0.060104	1.211242
C89	C	1.216851	-0.336773	0.711279
C90	C	1.716851	0.163227	1.211279
C91	C	1.216872	-0.336749	0.793258
C92	C	1.716872	0.163251	1.293258
C93	C	1.165289	-0.388300	0.834229
C94	C	1.665289	0.111700	1.334229
H95	H	1.258917	-0.294730	0.930773
H96	H	1.758917	0.205270	1.430773
H97	H	1.258887	-0.294751	0.826644
H98	H	1.758887	0.205249	1.326644
N99	N	1.269637	-0.283981	1.087981
N100	N	1.769637	0.216019	1.587981
N101	N	1.315686	-0.237960	1.051386
N102	N	1.815686	0.262040	1.551386
H103	H	1.352913	-0.200743	1.080956
H104	H	1.852913	0.299257	1.580956
H105	H	1.258850	-0.294797	0.677916
H106	H	1.758850	0.205203	1.177916
N107	N	1.060950	-0.492576	0.669364
N108	N	1.560950	0.007424	1.169364
N109	N	1.014901	-0.538601	0.705952
N110	N	1.514901	-0.038601	1.205952
H111	H	0.977668	-0.575807	0.676377
H112	H	1.477668	-0.075807	1.176377
H113	H	1.071751	-0.481776	1.079434
H114	H	1.571751	0.018224	1.579434
H115	H	1.071686	-0.481853	0.826583
H116	H	1.571686	0.018147	1.326583
H117	H	1.071720	-0.481819	0.930702
H118	H	1.571720	0.018181	1.430702
