data_functionalizedCrystal
_audit_creation_method	'MofGen! by Chris Wilmer'
_symmetry_space_group_name_H-M	'P1'
_symmetry_Int_Tables_number	1
_symmetry_cell_setting	triclinic
loop_
_symmetry_equiv_pos_as_xyz
  x,y,z
_cell_length_a	12.759395
_cell_length_b	25.639240
_cell_length_c	12.759387
_cell_angle_alpha	90.043601
_cell_angle_beta	90.020509
_cell_angle_gamma	90.034295
loop_
_atom_site_label
_atom_site_type_symbol
_atom_site_fract_x
_atom_site_fract_y
_atom_site_fract_z
Zn1	Zn	1.606137	-0.208102	0.593912
Zn2	Zn	1.605972	-0.295548	0.418193
Zn3	Zn	1.430435	-0.208130	0.418248
Zn4	Zn	1.430372	-0.295510	0.593832
O5	O	1.518229	-0.251823	0.506046
O6	O	1.753136	-0.219705	0.570612
O7	O	1.582644	-0.283979	0.271179
O8	O	1.453838	-0.134961	0.441607
O9	O	1.753015	-0.283951	0.441512
O10	O	1.582925	-0.134940	0.570666
O11	O	1.453678	-0.219754	0.271220
O12	O	1.283406	-0.219718	0.441530
O13	O	1.453730	-0.283888	0.740864
O14	O	1.283359	-0.283916	0.570530
O15	O	1.582864	-0.219669	0.740922
O16	O	1.582583	-0.368708	0.441435
O17	O	1.453570	-0.368681	0.570476
C18	C	1.245262	-0.251816	0.506028
C19	C	1.128485	-0.251826	0.506045
C20	C	1.128475	-0.318783	0.640156
C21	C	1.073609	-0.352266	0.707214
C22	C	0.963888	-0.352272	0.707227
C23	C	0.909029	-0.318791	0.640177
C24	C	0.963895	-0.285309	0.573118
C25	C	1.073619	-0.285307	0.573111
C26	C	0.963905	-0.218349	0.439015
C27	C	1.073626	-0.218345	0.438995
C28	C	0.909046	-0.184868	0.371964
C29	C	0.963912	-0.151387	0.304899
C30	C	1.073640	-0.151383	0.304888
C31	C	1.128492	-0.184862	0.371936
C32	C	1.518081	-0.387665	0.505964
C33	C	1.518113	-0.445779	0.505964
C34	C	1.585478	-0.806093	0.573368
C35	C	1.585509	-0.860697	0.573390
O36	O	1.642609	-0.888892	0.630615
N37	N	1.518375	-0.888062	0.506148
C38	C	1.451197	-0.860819	0.438887
O39	O	1.394097	-0.889108	0.381696
C40	C	1.451162	-0.806216	0.438872
C41	C	1.518308	-0.778854	0.506111
C42	C	1.652618	-0.778731	0.640603
C43	C	1.652588	-0.724131	0.640580
C44	C	1.585418	-0.696892	0.573322
C45	C	1.518278	-0.724253	0.506088
C46	C	1.383980	-0.778974	0.371618
C47	C	1.383950	-0.724367	0.371609
C48	C	1.451096	-0.697005	0.438848
C49	C	1.451079	-0.642414	0.438808
N50	N	1.518213	-0.615050	0.506050
C51	C	1.585383	-0.642288	0.573307
C52	C	1.451276	-0.975489	0.438926
C53	C	1.451316	-1.030092	0.438935
C54	C	1.585626	-1.029966	0.573439
C55	C	1.585591	-0.975363	0.573424
C56	C	1.518410	-0.948125	0.506168
C57	C	1.585316	-0.527623	0.573253
C58	C	1.585283	-0.473018	0.573221
C59	C	1.450969	-0.473148	0.438722
C60	C	1.451005	-0.527749	0.438749
C61	C	1.518182	-0.554985	0.506024
O62	O	1.394005	-0.614185	0.381615
O63	O	1.642464	-0.613992	0.630499
C64	C	1.792262	-0.251829	0.506065
C65	C	1.909039	-0.251832	0.506073
C66	C	1.518308	-0.251771	0.780080
C67	C	1.518342	-0.251749	0.896857
C68	C	1.518407	-0.115449	0.506152
C69	C	1.518482	-0.057335	0.506197
C70	C	1.518210	-0.251836	0.233079
C71	C	1.518380	-0.251710	0.116303
C72	C	1.652818	-0.184883	0.896937
C73	C	1.720071	-0.151442	0.951839
C74	C	1.720096	-0.151423	1.061560
C75	C	1.652860	-0.184847	1.116383
C76	C	1.585607	-0.218288	1.061482
C77	C	1.585591	-0.218305	0.951758
C78	C	1.451128	-0.285151	1.061401
C79	C	1.451106	-0.285174	0.951680
C80	C	1.383891	-0.318576	1.116224
C81	C	1.316642	-0.352021	1.061323
C82	C	1.316620	-0.352039	0.951595
C83	C	1.383853	-0.318615	0.896778
H84	H	0.819688	-0.318795	0.640202
H85	H	1.217816	-0.318785	0.640145
H86	H	1.383913	-0.318556	1.205566
O87	O	1.386043	-1.056724	0.373759
C88	C	1.244177	-1.118406	0.359523
C89	C	1.318060	-1.088291	0.433448
H90	H	1.189180	-1.143927	0.407753
H91	H	1.292388	-1.144012	0.304650
H92	H	1.196218	-1.089542	0.311432
H93	H	1.366035	-1.117118	0.481607
H94	H	1.269789	-1.062678	0.488252
H95	H	1.261843	-0.379265	0.906901
H96	H	1.396572	-0.953315	0.384149
H97	H	1.383846	-0.318629	0.807437
H98	H	1.261898	-0.379229	1.105969
O99	O	1.717916	-0.697531	0.705755
C100	C	1.859680	-0.635793	0.720029
C101	C	1.785781	-0.665889	0.646091
H102	H	1.914553	-0.610195	0.671822
H103	H	1.907763	-0.664623	0.768083
H104	H	1.811375	-0.610251	0.774936
H105	H	1.834005	-0.691432	0.591120
H106	H	1.737695	-0.637031	0.598110
H107	H	0.919237	-0.124127	0.250317
O108	O	1.126737	-0.384805	0.772443
C109	C	1.115146	-0.451244	0.905418
C110	C	1.054854	-0.414414	0.831615
H111	H	1.057055	-0.475199	0.953261
H112	H	1.166535	-0.427297	0.960517
H113	H	1.166493	-0.478527	0.857049
H114	H	1.003450	-0.387123	0.879899
H115	H	1.003531	-0.438392	0.776512
H116	H	0.919216	-0.379534	0.761837
O117	O	0.802463	-0.184791	0.372069
C118	C	0.645063	-0.134687	0.399213
C119	C	0.765768	-0.134704	0.399163
H120	H	0.615358	-0.094193	0.421095
H121	H	0.615215	-0.164339	0.458689
H122	H	0.615257	-0.145511	0.317809
H123	H	0.795663	-0.123866	0.480523
H124	H	0.795545	-0.105062	0.339631
H125	H	1.118305	-0.124113	0.250288
H126	H	1.217833	-0.184863	0.371931
H127	H	1.652878	-0.184824	1.205724
O128	O	1.385740	-0.554390	0.373573
C129	C	1.243889	-0.616081	0.359343
C130	C	1.317759	-0.585956	0.433265
H131	H	1.188893	-0.641601	0.407576
H132	H	1.292110	-0.641688	0.304482
H133	H	1.195928	-0.587223	0.311239
H134	H	1.365736	-0.614777	0.481438
H135	H	1.269478	-0.560341	0.488057
H136	H	1.639965	-0.450742	0.627975
H137	H	1.707316	-0.800903	0.695378
O138	O	1.650515	-0.554020	0.638748
C139	C	1.701387	-0.570634	0.817519
C140	C	1.627499	-0.540697	0.743471
H141	H	1.682790	-0.559882	0.902204
H142	H	1.786123	-0.559858	0.799226
H143	H	1.689899	-0.614359	0.805941
H144	H	1.638893	-0.496966	0.755007
H145	H	1.542790	-0.551516	0.761782
O146	O	1.650841	-0.948867	0.638846
C147	C	1.784102	-0.954520	0.772215
C148	C	1.710244	-0.984588	0.698188
H149	H	1.832164	-0.983388	0.820197
H150	H	1.735871	-0.928971	0.827176
H151	H	1.839005	-0.928936	0.724013
H152	H	1.655326	-1.010200	0.746305
H153	H	1.758540	-1.010104	0.643224
H154	H	1.329303	-0.801242	0.316864
H155	H	1.640318	-1.052154	0.628206
O156	O	1.318543	-0.697966	0.306327
C157	C	1.139839	-0.681341	0.255220
C158	C	1.213790	-0.711281	0.329199
H159	H	1.055130	-0.692088	0.273701
H160	H	1.158246	-0.692120	0.170506
H161	H	1.151399	-0.637617	0.266733
H162	H	1.202272	-0.755012	0.317779
H163	H	1.195365	-0.700459	0.413886
O164	O	1.385755	-0.446602	0.373491
C165	C	1.326231	-0.362531	0.313833
C166	C	1.400128	-0.392531	0.387769
H167	H	1.337841	-0.318810	0.325335
H168	H	1.241488	-0.373255	0.332220
H169	H	1.344708	-0.373326	0.229144
H170	H	1.381745	-0.381753	0.472483
H171	H	1.484848	-0.381805	0.369292
H172	H	1.774812	-0.124227	0.907190
O173	O	1.785522	-0.118922	1.114734
C174	C	1.918862	-0.052578	1.103248
C175	C	1.844841	-0.089367	1.042899
H176	H	1.966824	-0.028665	1.045195
H177	H	1.973840	-0.076554	1.154575
H178	H	1.870657	-0.025252	1.154664
H179	H	1.892961	-0.116700	0.991426
H180	H	1.789859	-0.065358	0.991637
H181	H	1.652814	-0.184900	0.807596
