data_functionalizedCrystal
_audit_creation_method	'MofGen! by Chris Wilmer'
_symmetry_space_group_name_H-M	'P1'
_symmetry_Int_Tables_number	1
_symmetry_cell_setting	triclinic
loop_
_symmetry_equiv_pos_as_xyz
  x,y,z
_cell_length_a	10.686220
_cell_length_b	16.625546
_cell_length_c	16.625525
_cell_angle_alpha	89.905447
_cell_angle_beta	94.314779
_cell_angle_gamma	94.404440
loop_
_atom_site_label
_atom_site_type_symbol
_atom_site_fract_x
_atom_site_fract_y
_atom_site_fract_z
Zn1	Zn	1.929461	-0.225888	-0.361433
Zn2	Zn	2.429461	0.274112	0.138567
Zn3	Zn	1.929160	-0.360897	-0.226610
Zn4	Zn	2.429160	0.139103	0.273390
Zn5	Zn	1.718311	-0.236420	-0.236951
Zn6	Zn	2.218311	0.263580	0.263049
Zn7	Zn	1.718414	-0.371030	-0.371718
Zn8	Zn	2.218414	0.128970	0.128282
O9	O	1.823837	-0.298559	-0.299178
O10	O	2.323837	0.201441	0.200822
O11	O	2.105987	-0.235149	-0.334917
O12	O	2.605987	0.264851	0.165083
O13	O	1.901022	-0.344551	-0.115157
O14	O	2.401022	0.155449	0.384843
O15	O	1.746403	-0.122186	-0.253488
O16	O	2.246403	0.377814	0.246512
O17	O	2.105766	-0.334339	-0.235862
O18	O	2.605766	0.165661	0.264138
O19	O	1.901535	-0.114448	-0.344944
O20	O	2.401535	0.385552	0.155056
O21	O	1.746111	-0.253099	-0.122755
O22	O	2.246111	0.246901	0.377245
O23	O	1.541759	-0.262925	-0.263461
O24	O	2.041759	0.237075	0.236539
O25	O	1.746579	-0.351610	-0.483178
O26	O	2.246579	0.148390	0.016822
O27	O	1.541835	-0.361822	-0.362473
O28	O	2.041835	0.138178	0.137527
O29	O	1.901635	-0.244974	-0.475622
O30	O	2.401635	0.255026	0.024378
O31	O	1.901122	-0.475077	-0.245835
O32	O	2.401122	0.024923	0.254165
O33	O	1.746287	-0.482522	-0.352446
O34	O	2.246287	0.017478	0.147554
C35	C	1.496016	-0.314616	-0.315206
C36	C	1.996016	0.185384	0.184794
C37	C	1.355772	-0.321505	-0.322081
C38	C	1.855772	0.178495	0.177919
C39	C	1.823717	-0.508055	-0.299150
C40	C	2.323717	-0.008055	0.200850
C41	C	1.823782	-0.597673	-0.299160
C42	C	2.323782	-0.097673	0.200840
C43	C	1.824002	-0.925838	-0.299233
C44	C	2.324002	-0.425838	0.200767
C45	C	1.823936	-0.834533	-0.299215
C46	C	2.323936	-0.334533	0.200785
C47	C	1.823891	-0.761759	-0.299196
C48	C	2.323891	-0.261759	0.200804
C49	C	1.823827	-0.670447	-0.299179
C50	C	2.323827	-0.170447	0.200821
C51	C	2.152938	-0.282439	-0.283089
C52	C	2.652938	0.217561	0.216911
C53	C	2.293181	-0.275569	-0.276232
C54	C	2.793181	0.224431	0.223768
C55	C	1.824152	-0.298247	-0.509472
C56	C	2.324152	0.201753	-0.009472
C57	C	1.824286	-0.298115	-0.599087
C58	C	2.324286	0.201885	-0.099087
C59	C	1.823991	-0.088242	-0.299222
C60	C	2.323991	0.411758	0.200778
C61	C	1.824057	0.001382	-0.299241
C62	C	2.324057	0.501382	0.200759
C63	C	1.823595	-0.298807	-0.089699
C64	C	2.323595	0.201193	0.410301
C65	C	1.823705	-0.298700	-0.000072
C66	C	2.323705	0.201300	0.499928
C67	C	1.823816	-0.298600	0.072715
C68	C	2.323816	0.201400	0.572715
C69	C	1.823951	-0.298467	0.164030
C70	C	2.323951	0.201533	0.664030
C71	C	1.824052	-0.298357	0.236811
C72	C	2.324052	0.201643	0.736811
C73	C	1.824185	-0.298225	0.328132
C74	C	2.324185	0.201775	0.828132
H75	H	1.346884	-0.230972	-0.231718
H76	H	1.846884	0.269028	0.268282
O77	O	1.291514	-0.374652	-0.375172
O78	O	1.791514	0.125348	0.124828
C79	C	1.161095	-0.369946	-0.370439
C80	C	1.661095	0.130054	0.129561
H81	H	1.143192	-0.308587	-0.345010
H82	H	1.643192	0.191413	0.154990
H83	H	1.123604	-0.419588	-0.329232
H84	H	1.623604	0.080412	0.170768
C85	C	1.115451	-0.455994	-0.486517
C86	C	1.615451	0.044006	0.013483
C87	C	1.093462	-0.380629	-0.455291
C88	C	1.593462	0.119371	0.044709
H89	H	1.073729	-0.462587	-0.538857
H90	H	1.573729	0.037413	-0.038857
H91	H	1.203316	-0.459167	-0.489705
H92	H	1.703316	0.040833	0.010295
H93	H	1.084208	-0.497354	-0.452170
H94	H	1.584208	0.002646	0.047830
H95	H	1.124719	-0.339270	-0.489633
H96	H	1.624719	0.160730	0.010367
H97	H	1.005600	-0.377449	-0.452112
H98	H	1.505600	0.122551	0.047888
