data_functionalizedCrystal
_audit_creation_method	'MofGen! by Chris Wilmer'
_symmetry_space_group_name_H-M	'P1'
_symmetry_Int_Tables_number	1
_symmetry_cell_setting	triclinic
loop_
_symmetry_equiv_pos_as_xyz
  x,y,z
_cell_length_a	13.635800
_cell_length_b	27.923497
_cell_length_c	9.514088
_cell_angle_alpha	86.305300
_cell_angle_beta	61.156455
_cell_angle_gamma	98.964248
loop_
_atom_site_label
_atom_site_type_symbol
_atom_site_fract_x
_atom_site_fract_y
_atom_site_fract_z
V1	V	-2.097753	-0.067989	0.501814
O2	O	-2.101066	0.002382	0.491173
O3	O	-2.062199	-0.133960	0.499429
O4	O	-2.115248	-0.067332	0.720195
O5	O	-2.047649	-0.064708	0.268879
V6	V	-2.335635	-0.059526	0.473826
O7	O	-2.236891	-0.086554	0.563209
O8	O	-2.421596	-0.040962	0.412432
O9	O	-2.259586	0.006445	0.476211
O10	O	-2.391021	-0.129898	0.484467
O11	O	-2.444437	-0.062808	0.706762
O12	O	-2.206537	-0.060184	0.255445
V13	V	-1.597753	-0.067989	0.501814
O14	O	-1.601066	0.002382	0.491173
O15	O	-1.562199	-0.133960	0.499429
O16	O	-1.615248	-0.067332	0.720195
O17	O	-1.547649	-0.064708	0.268879
V18	V	-1.835635	-0.059526	0.473826
O19	O	-1.736891	-0.086554	0.563209
O20	O	-1.921596	-0.040962	0.412432
O21	O	-1.759586	0.006445	0.476211
O22	O	-1.891021	-0.129898	0.484467
O23	O	-1.944437	-0.062808	0.706762
O24	O	-1.706537	-0.060184	0.255445
C25	C	-1.980588	-0.150031	0.491783
C26	C	-1.992440	-0.203965	0.491289
C27	C	-2.019009	-0.531229	0.340862
C28	C	-2.063569	-0.733933	0.338917
O29	O	-2.029428	-0.754038	0.213494
N30	N	-2.116108	-0.766460	0.485863
C31	C	-2.157517	-0.748308	0.633308
O32	O	-2.203238	-0.780625	0.758251
C33	C	-2.112964	-0.545605	0.635252
C34	C	-2.060412	-0.513080	0.488294
C35	C	-1.966462	-0.498705	0.193916
C36	C	-1.955317	-0.448032	0.194404
C37	C	-1.996720	-0.429883	0.341836
C38	C	-2.049267	-0.462407	0.488782
C39	C	-2.154380	-0.527454	0.782695
C40	C	-2.143239	-0.476774	0.783168
C41	C	-2.090687	-0.444250	0.636211
C42	C	-2.079526	-0.393585	0.636701
N43	N	-2.026986	-0.361059	0.489755
C44	C	-1.985584	-0.379208	0.342322
C45	C	-2.180902	-0.854729	0.632276
C46	C	-2.192039	-0.905405	0.631791
C47	C	-2.098092	-0.891027	0.337399
C48	C	-2.086948	-0.840350	0.337886
C49	C	-2.128363	-0.822203	0.485330
C50	C	-1.962182	-0.272791	0.343356
C51	C	-1.951037	-0.222114	0.343856
C52	C	-2.044990	-0.236497	0.638247
C53	C	-2.056129	-0.287169	0.637748
C54	C	-2.014725	-0.305315	0.490289
O55	O	-2.113650	-0.373446	0.762060
O56	O	-1.939889	-0.346883	0.217399
C57	C	-2.030153	-0.581902	0.340374
C58	C	-2.082700	-0.614426	0.487320
C59	C	-2.124103	-0.596277	0.634752
C60	C	-2.093837	-0.665102	0.486834
C61	C	-2.052434	-0.683251	0.339401
C62	C	-1.999895	-0.650725	0.192455
C63	C	-1.988750	-0.600052	0.192942
C64	C	-2.176643	-0.628804	0.781699
C65	C	-2.187782	-0.679476	0.781200
C66	C	-2.146379	-0.697625	0.633767
C67	C	-2.048257	-0.065039	0.773390
C68	C	-2.103128	-0.064938	0.951925
C69	C	-2.172867	0.022512	0.483853
C70	C	-2.150636	0.076446	0.484358
C71	C	-2.105197	-0.062479	0.202242
C72	C	-2.039946	-0.062577	0.023706
C73	C	-1.480588	-0.150031	0.491783
C74	C	-1.492440	-0.203965	0.491289
C75	C	-1.548257	-0.065039	0.773390
C76	C	-1.603128	-0.064938	0.951925
C77	C	-1.672867	0.022512	0.483853
C78	C	-1.650636	0.076446	0.484358
C79	C	-1.605197	-0.062479	0.202242
C80	C	-1.539946	-0.062577	0.023706
C81	C	-1.590198	-0.231781	0.499120
C82	C	-1.601356	-0.282460	0.498680
C83	C	-1.514750	-0.305321	0.490398
C84	C	-1.416986	-0.277502	0.482571
C85	C	-1.405833	-0.226824	0.483022
C86	C	-1.725373	0.104262	0.476531
C87	C	-1.704488	0.154940	0.476979
C88	C	-1.608871	0.177802	0.485265
C89	C	-1.534127	0.149982	0.493088
C90	C	-1.555008	0.099306	0.492628
H91	H	-1.908238	-0.195634	0.224180
H92	H	-2.210360	-0.614033	0.901759
H93	H	-1.932746	-0.513476	0.073853
O94	O	-1.525789	-0.354563	0.490178
C95	C	-1.624695	-0.379674	0.634306
H96	H	-1.686965	-0.354188	0.685904
H97	H	-1.667446	-0.413258	0.606504
H98	H	-1.599653	-0.391882	0.727055
O99	O	-1.717733	-0.067194	1.041339
C100	C	-1.744885	-0.026442	0.983025
H101	H	-1.675833	-0.011732	0.851363
H102	H	-1.831234	-0.038178	0.990013
H103	H	-1.749544	0.003538	1.060542
H104	H	-1.346477	-0.296123	0.475827
O105	O	-2.217761	-0.067319	1.041757
C106	C	-2.269452	-0.109667	1.161721
H107	H	-2.202508	-0.121624	1.187043
H108	H	-2.340973	-0.101125	1.278178
H109	H	-2.306672	-0.140495	1.116952
H110	H	-1.660724	-0.213174	0.505855
O111	O	-1.310763	-0.199875	0.475314
C112	C	-1.236736	-0.230926	0.467942
H113	H	-1.255417	-0.265285	0.418876
H114	H	-1.144022	-0.210733	0.384030
H115	H	-1.250908	-0.241870	0.594955
O116	O	-1.696373	-0.309401	0.506205
C117	C	-1.770418	-0.278352	0.513629
H118	H	-1.719117	-0.239010	0.460472
H119	H	-1.813087	-0.290901	0.440722
H120	H	-1.838923	-0.280040	0.645690
H121	H	-1.803236	0.085655	0.469785
H122	H	-1.765361	0.177584	0.470611
H123	H	-1.945958	-0.573574	0.073274
H124	H	-1.591881	0.219066	0.485637
H125	H	-1.943877	-0.060638	0.948580
H126	H	-1.456275	0.168604	0.499833
O127	O	-1.482575	0.072225	0.500460
C128	C	-1.543421	0.035951	0.640550
H129	H	-1.638462	0.028233	0.680101
H130	H	-1.509930	0.000801	0.612197
H131	H	-1.531071	0.049486	0.742630
O132	O	-1.425374	-0.060337	0.933977
C133	C	-1.406553	-0.102515	0.858979
H134	H	-1.484442	-0.118723	0.848615
H135	H	-1.327632	-0.092064	0.732429
H136	H	-1.392365	-0.130865	0.935243
H137	H	-1.912532	-0.421555	0.074736
O138	O	-1.922047	-0.290358	0.200025
C139	C	-1.978344	-0.275962	0.118267
H140	H	-2.012820	-0.242001	0.163046
H141	H	-1.915285	-0.267115	-0.018090
H142	H	-2.052447	-0.307129	0.143729
O143	O	-2.036084	-0.808782	0.195110
C144	C	-2.097801	-0.819164	0.113090
H145	H	-2.189560	-0.838948	0.204438
H146	H	-2.098574	-0.783372	0.049205
H147	H	-2.055175	-0.843566	0.019305
O148	O	-2.058000	-0.908745	0.194330
C149	C	-2.079086	-0.960446	0.225432
H150	H	-2.152973	-0.974398	0.354682
H151	H	-2.102453	-0.976440	0.135571
H152	H	-1.998886	-0.972307	0.211193
H153	H	-2.234815	-0.931882	0.751457
H154	H	-2.214628	-0.839959	0.752349
H155	H	-1.966178	-0.665510	0.072409
H156	H	-2.176977	-0.462002	0.903238
O157	O	-2.205623	-0.559024	0.925512
C158	C	-2.319045	-0.553351	1.022816
H159	H	-2.349697	-0.536865	0.942147
H160	H	-2.377092	-0.590723	1.091855
H161	H	-2.322064	-0.527877	1.113126
O162	O	-2.107250	-0.318699	0.780648
C163	C	-2.141373	-0.291810	0.910875
H164	H	-2.151656	-0.254437	0.870857
H165	H	-2.226550	-0.312794	1.017965
H166	H	-2.073509	-0.286456	0.949110
H167	H	-2.230570	-0.705954	0.900879
O168	O	-2.085188	-0.218780	0.781316
C169	C	-2.064056	-0.167078	0.750213
H170	H	-2.054172	-0.154846	0.626568
H171	H	-2.138917	-0.153725	0.848677
H172	H	-1.981994	-0.150855	0.750244
