data_functionalizedCrystal
_audit_creation_method	'MofGen! by Chris Wilmer'
_symmetry_space_group_name_H-M	'P1'
_symmetry_Int_Tables_number	1
_symmetry_cell_setting	triclinic
loop_
_symmetry_equiv_pos_as_xyz
  x,y,z
_cell_length_a	14.560438
_cell_length_b	14.560438
_cell_length_c	14.560438
_cell_angle_alpha	59.999708
_cell_angle_beta	90.001724
_cell_angle_gamma	59.997437
loop_
_atom_site_label
_atom_site_type_symbol
_atom_site_fract_x
_atom_site_fract_y
_atom_site_fract_z
Zr1	Zr	0.884705	1.005311	-0.120516
O2	O	0.738043	1.196926	-0.267173
O3	O	0.929673	0.813699	-0.075555
O4	O	0.929659	1.005313	-0.267163
O5	O	0.738060	1.005310	0.075576
O6	O	1.080800	1.005310	-0.267158
O7	O	0.738057	1.005313	-0.075565
O8	O	1.080826	0.662548	0.075594
O9	O	0.738033	1.348072	-0.267176
O10	O	1.061637	0.892508	-0.056379
O11	O	0.948844	0.892508	0.056412
O12	O	0.948826	1.118109	-0.169182
O13	O	0.836033	1.118109	-0.056391
Zr14	Zr	1.125762	1.005302	0.120544
Zr15	Zr	1.125758	1.005306	-0.120508
Zr16	Zr	0.884709	1.005306	0.120537
Zr17	Zr	0.884691	1.246370	-0.120520
Zr18	Zr	1.125776	0.764242	0.120549
O19	O	1.080793	1.196914	0.075584
O20	O	1.080788	1.196920	-0.267162
O21	O	0.738048	1.196920	0.075573
O22	O	1.272424	0.813686	0.267202
O23	O	1.272419	0.813692	-0.075544
O24	O	0.929679	0.813692	0.267190
O25	O	1.272407	1.005303	-0.075547
O26	O	1.080808	1.005300	0.267192
O27	O	0.929667	1.005303	0.267187
O28	O	1.272410	1.005300	0.075594
O29	O	0.929638	1.348068	-0.267169
O30	O	1.080829	0.662544	0.267198
O31	O	1.272433	0.662541	0.267204
O32	O	1.272430	0.662544	0.075600
O33	O	0.738036	1.348068	-0.075571
O34	O	0.929641	1.348065	-0.075565
O35	O	1.061640	0.892504	0.169210
O36	O	1.174433	0.892504	0.056419
O37	O	1.061623	1.118104	-0.056383
O38	O	0.948830	1.118104	0.056408
C39	C	1.005252	0.703777	0.000020
C40	C	1.005258	0.601441	0.000022
C41	C	1.088494	0.373946	0.083282
C42	C	1.088521	0.470081	0.083287
C43	C	0.921969	0.636666	-0.083261
C44	C	0.921947	0.540532	-0.083271
C45	C	0.703714	1.005312	0.000004
C46	C	0.601381	1.005314	0.000001
C47	C	0.553296	1.005317	-0.083262
C48	C	0.457150	1.005305	-0.083247
C49	C	0.457180	1.005291	0.083299
C50	C	0.553328	1.005294	0.083287
C51	C	0.553275	1.005331	-0.179418
C52	C	0.457130	1.005319	-0.179403
C53	C	1.306753	1.005301	0.000024
C54	C	1.409086	1.005299	0.000028
C55	C	1.005229	1.005312	-0.301505
C56	C	1.005227	1.005314	-0.403838
C57	C	1.005215	1.306835	0.000009
C58	C	1.005209	1.409171	0.000007
C59	C	0.946351	1.123065	-0.606951
C60	C	0.946341	1.123073	-0.510803
C61	C	1.064118	0.887538	-0.393023
C62	C	1.064121	0.887532	-0.489170
C63	C	1.005238	1.005301	0.301534
C64	C	1.005240	1.005299	0.403867
C65	C	1.306772	0.703772	0.000030
C66	C	1.409111	0.601434	0.000035
C67	C	1.005257	0.703772	0.301540
C68	C	1.005264	0.601434	0.403875
C69	C	1.306776	0.703766	0.301550
C70	C	1.409117	0.601426	0.403888
C71	C	0.703691	1.306846	-0.301521
C72	C	0.601350	1.409186	-0.403859
C73	C	0.703695	1.306841	-0.000001
C74	C	0.601356	1.409179	-0.000006
C75	C	1.005210	1.306841	-0.301511
C76	C	1.005202	1.409179	-0.403846
C77	C	1.398314	0.553355	-0.058840
C78	C	1.494477	0.457205	-0.058839
C79	C	1.612229	0.457218	0.058921
C80	C	1.516068	0.553372	0.058913
C81	C	1.064146	0.553351	0.510831
C82	C	1.064140	0.457203	0.606982
C83	C	0.946371	0.457224	0.489205
C84	C	0.946370	0.553378	0.393057
C85	C	1.516074	0.553344	0.393094
C86	C	1.612230	0.457194	0.489255
C87	C	1.494459	0.457211	0.607002
C88	C	1.398305	0.553367	0.510841
H89	H	0.854125	0.569225	-0.151090
Br90	Br	1.530749	0.618572	0.247946
H91	H	1.311229	0.592495	-0.106793
Br92	Br	0.866443	0.618650	0.247889
H93	H	0.898403	1.218959	-0.694041
H94	H	1.156341	0.441388	0.151097
Br95	Br	1.201494	0.195675	0.196298
Br96	Br	0.618605	1.005256	0.196305
Br97	Br	1.757386	0.391982	0.138826
H98	H	0.536449	1.098608	-0.255900
H99	H	0.898385	1.218970	-0.519621
H100	H	1.699317	0.418050	0.480459
H101	H	1.485670	0.418067	0.694093
H102	H	0.473953	0.912037	-0.162598
H103	H	1.112059	0.791657	-0.305924
Br104	Br	0.808972	0.814941	-0.196271
Br105	Br	1.144036	0.727694	-0.474489
Br106	Br	1.479818	0.391964	-0.138749
H107	H	0.418046	1.005274	0.151109
Br108	Br	0.672112	0.854661	-0.165621
Br109	Br	0.338271	1.155991	-0.316272
Br110	Br	1.530720	0.618639	0.138810
Br111	Br	1.144072	0.618568	0.525514
Br112	Br	1.144047	0.391958	0.752138
H113	H	1.311210	0.592519	0.519639
H114	H	0.898423	0.418083	0.480412
