data_functionalizedCrystal
_audit_creation_method	'MofGen! by Chris Wilmer'
_symmetry_space_group_name_H-M	'P1'
_symmetry_Int_Tables_number	1
_symmetry_cell_setting	triclinic
loop_
_symmetry_equiv_pos_as_xyz
  x,y,z
_cell_length_a	14.560438
_cell_length_b	14.560438
_cell_length_c	20.875625
_cell_angle_alpha	61.744388
_cell_angle_beta	92.972785
_cell_angle_gamma	59.999125
loop_
_atom_site_label
_atom_site_type_symbol
_atom_site_fract_x
_atom_site_fract_y
_atom_site_fract_z
Zr1	Zr	0.878450	1.005326	-0.084169
O2	O	0.724182	1.196933	-0.186594
O3	O	0.925748	0.813719	-0.052771
O4	O	0.915792	1.005329	-0.186592
O5	O	0.741984	1.005320	0.052788
O6	O	1.066930	1.005332	-0.186590
O7	O	0.734138	1.005323	-0.052773
O8	O	1.084739	0.662576	0.052792
O9	O	0.724175	1.348076	-0.186594
O10	O	1.058705	0.892532	-0.039378
O11	O	0.951768	0.892528	0.039399
O12	O	0.940046	1.118124	-0.118158
O13	O	0.833109	1.118120	-0.039381
Zr14	Zr	1.132013	1.005326	0.084190
Zr15	Zr	1.119498	1.005330	-0.084167
Zr16	Zr	0.890964	1.005322	0.084188
Zr17	Zr	0.878439	1.246382	-0.084170
Zr18	Zr	1.132024	0.764270	0.084190
O19	O	1.084715	1.196933	0.052791
O20	O	1.066921	1.196939	-0.186590
O21	O	0.741975	1.196927	0.052788
O22	O	1.286281	0.813719	0.186615
O23	O	1.268487	0.813725	-0.052767
O24	O	0.943541	0.813713	0.186611
O25	O	1.268478	1.005332	-0.052767
O26	O	1.094671	1.005323	0.186613
O27	O	0.943533	1.005320	0.186611
O28	O	1.276325	1.005329	0.052794
O29	O	0.915776	1.348080	-0.186592
O30	O	1.094687	0.662572	0.186613
O31	O	1.286288	0.662576	0.186615
O32	O	1.276341	0.662579	0.052794
O33	O	0.734122	1.348073	-0.052773
O34	O	0.925723	1.348076	-0.052771
O35	O	1.070417	0.892528	0.118179
O36	O	1.177354	0.892532	0.039402
O37	O	1.058695	1.118124	-0.039378
O38	O	0.951758	1.118120	0.039399
C39	C	1.005245	0.703802	0.000011
C40	C	1.005250	0.601468	0.000011
C41	C	0.703717	1.005321	0.000007
C42	C	0.601385	1.005319	0.000006
C43	C	1.092812	0.373974	0.058168
C44	C	1.092833	0.470116	0.058167
C45	C	0.917646	0.636678	-0.058153
C46	C	0.917630	0.540537	-0.058155
C47	C	1.180395	0.242622	0.116333
C48	C	1.268000	0.207405	0.174496
C49	C	1.268022	0.303547	0.174495
C50	C	1.180437	0.434906	0.116331
C51	C	0.615246	0.887564	0.041128
C52	C	0.519091	0.887570	0.041135
C53	C	0.395219	1.123097	-0.041108
C54	C	0.491373	1.123089	-0.041110
C55	C	0.725258	0.769794	0.082244
C56	C	0.739123	0.652030	0.123369
C57	C	0.642969	0.652036	0.123376
C58	C	0.532949	0.769806	0.082259
C59	C	1.306746	1.005331	0.000014
C60	C	1.409077	1.005333	0.000015
C61	C	0.989578	1.005331	-0.210578
C62	C	0.984265	1.005333	-0.282050
C63	C	1.005217	1.306850	0.000010
C64	C	1.005213	1.409185	0.000010
C65	C	1.065032	1.005336	-0.315627
C66	C	1.060043	1.005327	-0.382778
C67	C	0.974282	1.005323	-0.416355
C68	C	0.893511	1.005315	-0.382772
C69	C	0.898506	1.005316	-0.315619
C70	C	0.950421	1.005312	-0.617193
C71	C	0.945431	1.005316	-0.684352
C72	C	1.111965	1.005325	-0.684353
C73	C	1.116947	1.005333	-0.617201
C74	C	1.036180	1.005319	-0.583621
N75	N	0.969179	1.005317	-0.484996
N76	N	1.041289	1.005315	-0.514978
C77	C	1.020885	1.005321	0.210599
C78	C	1.026197	1.005319	0.282071
C79	C	1.306760	0.703807	0.000014
C80	C	1.409096	0.601474	0.000015
C81	C	1.020899	0.703797	0.210599
C82	C	1.026216	0.601461	0.282071
C83	C	1.322413	0.703802	0.210603
C84	C	1.430062	0.601467	0.282076
C85	C	0.688049	1.306850	-0.210582
C86	C	0.580401	1.409185	-0.282055
C87	C	0.703703	1.306845	0.000007
C88	C	0.601367	1.409178	0.000006
C89	C	0.989564	1.306855	-0.210579
C90	C	0.984247	1.409191	-0.282051
C91	C	1.090647	0.553402	0.356765
C92	C	1.095639	0.457260	0.423927
C93	C	1.036207	0.409171	0.416394
C94	C	0.971768	0.457239	0.341692
C95	C	0.966770	0.553386	0.274532
C96	C	1.536445	0.553412	0.274520
C97	C	1.637601	0.457271	0.341670
C98	C	1.632372	0.409181	0.416376
C99	C	1.525977	0.457246	0.423930
C100	C	1.424824	0.553392	0.356781
C101	C	0.474018	1.457252	-0.274499
C102	C	0.372861	1.553422	-0.341649
C103	C	0.378091	1.601517	-0.416355
C104	C	0.484486	1.553446	-0.423910
C105	C	0.585639	1.457284	-0.356760
C106	C	1.043693	1.457250	-0.274492
C107	C	1.038719	1.553393	-0.341641
C108	C	0.974292	1.601482	-0.416348
C109	C	0.914844	1.553414	-0.423905
C110	C	0.919825	1.457266	-0.356756
C111	C	1.395243	0.553395	-0.041104
C112	C	1.491403	0.457250	-0.041105
C113	C	1.615264	0.457269	0.041138
C114	C	1.519105	0.553419	0.041134
C115	C	1.285234	0.601450	-0.082223
C116	C	1.271376	0.553370	-0.123345
C117	C	1.367536	0.457225	-0.123346
C118	C	1.477552	0.409161	-0.082226
H119	H	1.180386	0.164329	0.116341
H120	H	0.480084	1.218976	-0.074581
H121	H	1.206929	0.679730	-0.082222
C122	C	1.736271	0.404389	0.086378
H123	H	1.730749	0.446800	0.110865
H124	H	1.779120	0.313611	0.125293
H125	H	1.773592	0.420155	0.050883
H126	H	0.828706	0.556145	0.156851
H127	H	1.530389	0.592567	0.074617
H128	H	1.134864	1.005348	-0.288296
H129	H	0.884655	1.005304	-0.589859
H130	H	0.454659	0.769802	0.082272
C131	C	1.743646	0.303413	0.490233
H132	H	1.807749	0.281678	0.475026
H133	H	1.745926	0.334913	0.520620
H134	H	1.745923	0.228379	0.520610
C135	C	1.364336	0.062922	0.238470
H136	H	1.351773	0.010705	0.230147
H137	H	1.436042	0.044447	0.236063
H138	H	1.364609	0.044476	0.288674
C139	C	1.364382	0.264812	0.238469
H140	H	1.416532	0.172815	0.273110
H141	H	1.403747	0.298842	0.214586
H142	H	1.332309	0.298865	0.267194
H143	H	1.181797	0.592517	-0.156829
H144	H	0.295717	1.679819	-0.471026
H145	H	0.832738	1.005310	-0.288281
C146	C	0.821304	0.781161	-0.122121
H147	H	0.833854	0.833375	-0.113785
H148	H	0.821014	0.799626	-0.172326
H149	H	0.749600	0.799622	-0.119702
C150	C	1.583325	0.303403	-0.082227
H151	H	1.559320	0.281645	-0.112603
H152	H	1.625184	0.334921	-0.104242
H153	H	1.630716	0.228377	-0.029830
H154	H	1.338206	0.592506	0.362945
C155	C	1.200812	1.005322	-0.721282
H156	H	1.252599	1.005331	-0.691668
H157	H	1.241950	0.929988	-0.721169
H158	H	1.162700	1.080665	-0.773789
C159	C	0.854410	1.404429	-0.365076
H160	H	0.866598	1.340277	-0.314390
H161	H	0.774880	1.473479	-0.392986
H162	H	0.881413	1.366916	-0.392980
C163	C	0.831023	0.769789	0.082237
H164	H	0.807012	0.856788	0.051854
H165	H	0.878430	0.726286	0.134628
H166	H	0.872868	0.726307	0.060208
H167	H	1.724222	0.418147	0.335504
C168	C	1.041721	0.303403	0.490274
H169	H	1.088618	0.281666	0.535836
H170	H	0.966713	0.334905	0.490288
H171	H	1.073263	0.228369	0.490286
C172	C	1.148878	1.005349	-0.419716
H173	H	1.200658	1.005372	-0.390108
H174	H	1.190025	0.930018	-0.419607
H175	H	1.110750	1.080695	-0.472223
C176	C	0.906413	0.404318	0.333416
H177	H	0.918638	0.340162	0.384116
H178	H	0.826871	0.473324	0.305514
H179	H	0.933437	0.366786	0.305524
H180	H	1.180467	0.513184	0.116331
C181	C	0.490229	1.606343	-0.506086
H182	H	0.568073	1.563952	-0.500978
H183	H	0.453080	1.590584	-0.533984
H184	H	0.453090	1.697127	-0.533992
C185	C	0.658218	0.522504	0.168612
H186	H	0.737509	0.452369	0.193092
H187	H	0.626060	0.517600	0.207530
H188	H	0.620509	0.517620	0.133111
H189	H	0.846301	0.569211	-0.105513
C190	C	1.156022	0.606292	0.365063
H191	H	1.143833	0.670432	0.314371
H192	H	1.129011	0.643807	0.392961
H193	H	1.235564	0.537258	0.392970
H194	H	0.914307	0.592502	0.213716
H195	H	0.469738	1.418098	-0.213675
H196	H	0.305636	1.218980	-0.074586
C197	C	1.520239	0.404326	0.506109
H198	H	1.595724	0.340172	0.545012
H199	H	1.480727	0.473333	0.512016
H200	H	1.480743	0.366792	0.512002
H201	H	1.356247	0.418089	-0.156836
C202	C	1.211237	1.005424	-0.580298
H203	H	1.202623	1.005463	-0.535509
H204	H	1.284287	0.930120	-0.564988
H205	H	1.204940	1.080797	-0.617642
C206	C	0.851143	1.005208	-0.721250
H207	H	0.803777	1.005159	-0.691620
H208	H	0.806076	1.080514	-0.773761
H209	H	0.885432	0.929836	-0.721108
H210	H	0.823686	1.005304	-0.410112
C211	C	0.255844	1.606272	-0.333325
H212	H	0.267225	1.563833	-0.279214
H213	H	0.214057	1.697047	-0.357799
H214	H	0.214065	1.590511	-0.357815
C215	C	1.166535	0.404392	0.506088
H216	H	1.201228	0.446790	0.500949
H217	H	1.117802	0.420156	0.534000
H218	H	1.224334	0.313607	0.533996
H219	H	1.540725	0.592553	0.213696
C220	C	0.702654	1.404405	-0.365082
H221	H	0.691270	1.446817	-0.419193
H222	H	0.744453	1.420146	-0.340597
H223	H	0.744421	1.313625	-0.340604
C224	C	1.114571	1.404364	-0.192324
H225	H	1.149267	1.446757	-0.197451
H226	H	1.065832	1.420124	-0.164414
H227	H	1.172367	1.313580	-0.164420
C228	C	1.104103	1.606264	-0.333319
H229	H	1.091927	1.670404	-0.384006
H230	H	1.077088	1.643775	-0.305419
H231	H	1.183643	1.537223	-0.305406
H232	H	0.970245	1.679772	-0.471018
H233	H	0.862388	1.592584	-0.484740
