data_functionalizedCrystal
_audit_creation_method	'MofGen! by Chris Wilmer'
_symmetry_space_group_name_H-M	'P1'
_symmetry_Int_Tables_number	1
_symmetry_cell_setting	triclinic
loop_
_symmetry_equiv_pos_as_xyz
  x,y,z
_cell_length_a	10.489741
_cell_length_b	14.044220
_cell_length_c	13.101018
_cell_angle_alpha	93.664400
_cell_angle_beta	86.605995
_cell_angle_gamma	88.864026
loop_
_atom_site_label
_atom_site_type_symbol
_atom_site_fract_x
_atom_site_fract_y
_atom_site_fract_z
O1	O	-1.714058	-0.128656	0.085154
O2	O	-1.344138	-0.141217	0.085170
O3	O	-1.523545	0.003085	0.085152
O4	O	-1.534651	-0.272959	0.085172
O5	O	-1.510658	-0.007277	-0.085277
O6	O	-1.331251	-0.151580	-0.085259
O7	O	-1.701171	-0.139018	-0.085275
Zn8	Zn	-1.514165	-0.146945	-0.112326
Zn9	Zn	-1.531144	-0.133291	0.112221
O10	O	-1.521764	-0.283321	-0.085257
C11	C	-1.290067	-0.145450	-0.000043
C12	C	-1.148150	-0.142611	-0.000037
C13	C	-1.512240	0.033252	-0.000063
C14	C	-1.497740	0.138576	-0.000063
C15	C	-1.755243	-0.134786	-0.000060
C16	C	-1.897160	-0.137625	-0.000060
C17	C	-1.070696	-0.050795	-0.000053
C18	C	-0.989322	-0.089059	0.083978
C19	C	-0.976653	-0.099298	-0.084051
C20	C	-1.068651	-0.180908	0.084064
C21	C	-1.055983	-0.191138	-0.084041
C22	C	-0.974646	-0.229468	0.000011
C23	C	-1.533069	-0.313487	-0.000040
C24	C	-1.547569	-0.418812	-0.000033
N25	N	-1.502586	-0.156262	-0.265574
C26	C	-1.471233	0.331420	-0.000047
C27	C	-1.574071	0.388351	-0.000049
C28	C	-1.559322	0.495655	-0.000040
C29	C	-1.485980	0.224105	-0.000056
C30	C	-1.558479	-0.111286	-0.525489
C31	C	-1.486843	-0.168939	-0.474609
C32	C	-1.495605	-0.161884	-0.358291
C33	C	-1.549719	-0.118340	-0.641818
N34	N	-1.542733	-0.123967	0.265469
H35	H	-0.959739	-0.045890	0.155017
O36	O	-1.705372	0.346177	-0.000056
H37	H	-1.752696	0.365945	-0.069519
H38	H	-1.372122	0.363266	-0.000041
O39	O	-1.396899	-0.241353	-0.532612
H40	H	-1.404054	-0.235613	-0.616195
H41	H	-1.626385	-0.056633	-0.481696
H42	H	-1.112738	0.024689	0.000047
H43	H	-1.108794	-0.215403	0.155186
H44	H	-0.932889	-0.305023	0.000062
H45	H	-0.936361	-0.064751	-0.155094
O46	O	-1.095242	-0.248274	-0.178137
H47	H	-1.058380	-0.214250	-0.247796
