data_functionalizedCrystal
_audit_creation_method	'MofGen! by Chris Wilmer'
_symmetry_space_group_name_H-M	'P1'
_symmetry_Int_Tables_number	1
_symmetry_cell_setting	triclinic
loop_
_symmetry_equiv_pos_as_xyz
  x,y,z
_cell_length_a	17.077402
_cell_length_b	12.759401
_cell_length_c	17.077404
_cell_angle_alpha	89.993952
_cell_angle_beta	90.009992
_cell_angle_gamma	89.978594
loop_
_atom_site_label
_atom_site_type_symbol
_atom_site_fract_x
_atom_site_fract_y
_atom_site_fract_z
Zn1	Zn	-0.312688	-1.606053	0.443800
Zn2	Zn	-0.443922	-1.605962	0.312536
Zn3	Zn	-0.312670	-1.430396	0.312553
Zn4	Zn	-0.443911	-1.430317	0.443765
O5	O	-0.378298	-1.518182	0.378164
O6	O	-0.330109	-1.753062	0.426395
O7	O	-0.426509	-1.582667	0.202692
O8	O	-0.202825	-1.453769	0.329985
O9	O	-0.426526	-1.752995	0.329956
O10	O	-0.202838	-1.582824	0.426412
O11	O	-0.330078	-1.453680	0.202704
O12	O	-0.330067	-1.283365	0.329951
O13	O	-0.426506	-1.453634	0.553617
O14	O	-0.426489	-1.283307	0.426352
O15	O	-0.330097	-1.582747	0.553642
O16	O	-0.553768	-1.582590	0.329922
O17	O	-0.553759	-1.453545	0.426336
C18	C	-0.378275	-1.245215	0.378150
C19	C	-0.378284	-1.128438	0.378163
C20	C	-0.582246	-1.518078	0.378140
C21	C	-0.669495	-1.518129	0.378157
C22	C	-0.710425	-1.585291	0.428406
C23	C	-0.792405	-1.585335	0.428423
C24	C	-0.833455	-1.518222	0.378185
C25	C	-0.792519	-1.451053	0.327934
C26	C	-0.710541	-1.451004	0.327921
C27	C	-0.963389	-1.451160	0.327961
C28	C	-1.045374	-1.451210	0.327972
C29	C	-1.045254	-1.585492	0.428463
C30	C	-0.963275	-1.585443	0.428450
C31	C	-0.922346	-1.518275	0.378197
C32	C	-0.428570	-1.073573	0.428275
C33	C	-0.428577	-0.963849	0.428282
C34	C	-0.328010	-0.963864	0.328059
C35	C	-0.328000	-1.073586	0.328056
C36	C	-0.478855	-1.128425	0.478382
C37	C	-0.529145	-1.073560	0.528498
C38	C	-0.529152	-0.963836	0.528505
C39	C	-0.478868	-0.908977	0.478397
C40	C	-0.173553	-1.518315	0.378204
C41	C	-0.086304	-1.518372	0.378222
C42	C	-0.378302	-1.518192	0.582908
C43	C	-0.378305	-1.518196	0.670158
C44	C	-0.378313	-0.792215	0.378175
C45	C	-0.378301	-0.908992	0.378173
C46	C	-0.328113	-1.585417	0.711163
C47	C	-0.328112	-1.585408	0.793143
C48	C	-0.378307	-1.518183	0.834117
C49	C	-0.428501	-1.450955	0.793107
C50	C	-0.428497	-1.450960	0.711128
C51	C	-0.428506	-1.450953	0.963977
C52	C	-0.428511	-1.450950	1.045961
C53	C	-0.328120	-1.585402	1.045992
C54	C	-0.328117	-1.585406	0.964013
C55	C	-0.378312	-1.518179	0.923008
C56	C	-0.378313	-1.518167	1.174216
C57	C	-0.378319	-1.518170	1.086966
H58	H	-0.677008	-1.639947	0.469312
O59	O	-0.923435	-1.650527	0.477361
C60	C	-0.898306	-1.701419	0.610912
C61	C	-0.943459	-1.627632	0.555609
H62	H	-0.914491	-1.682950	0.674185
H63	H	-0.832674	-1.689843	0.602337
H64	H	-0.914366	-1.786153	0.597143
H65	H	-0.927464	-1.542870	0.569343
H66	H	-1.009080	-1.639299	0.564193
H67	H	-0.469368	-1.396193	0.930593
H68	H	-0.570095	-0.919168	0.569317
H69	H	-0.478871	-0.819632	0.478414
O70	O	-0.832256	-1.650632	0.477119
C71	C	-0.924695	-1.792557	0.487764
C72	C	-0.879624	-1.718656	0.432527
H73	H	-0.962991	-1.847588	0.451733
H74	H	-0.963145	-1.744362	0.528772
H75	H	-0.881267	-1.840479	0.523684
H76	H	-0.922997	-1.670718	0.396556
H77	H	-0.841163	-1.766911	0.391571
H78	H	-1.078583	-1.640182	0.469381
O79	O	-0.577960	-1.127008	0.577099
C80	C	-0.622485	-1.296033	0.621544
C81	C	-0.567176	-1.235639	0.566448
H82	H	-0.613774	-1.383871	0.612964
H83	H	-0.685778	-1.274510	0.607648
H84	H	-0.608811	-1.274417	0.684857
H85	H	-0.580780	-1.257222	0.503118
H86	H	-0.503900	-1.257167	0.580412
H87	H	-0.287072	-0.919189	0.287262
H88	H	-0.287047	-1.118258	0.287256
O89	O	-0.279278	-1.650755	0.671485
C90	C	-0.179735	-1.784150	0.680178
C91	C	-0.234990	-1.710193	0.725206
H92	H	-0.143925	-1.832242	0.723592
H93	H	-0.138631	-1.735995	0.641822
H94	H	-0.215788	-1.839021	0.641774
H95	H	-0.199000	-1.655308	0.763652
H96	H	-0.276096	-1.758415	0.763512
O97	O	-1.085130	-1.385911	0.279153
C98	C	-1.076603	-1.252741	0.179460
C99	C	-1.031482	-1.326624	0.234718
H100	H	-1.033248	-1.204805	0.143508
H101	H	-1.114984	-1.197732	0.215439
H102	H	-1.114988	-1.301054	0.138482
H103	H	-0.993054	-1.278397	0.275707
H104	H	-0.993150	-1.381636	0.198689
H105	H	-0.287242	-1.640149	0.826525
H106	H	-0.469361	-1.396211	0.677743
H107	H	-0.825948	-1.396403	0.287033
H108	H	-0.930067	-1.396461	0.287042
H109	H	-0.287248	-1.640152	0.930654
O110	O	-0.279375	-1.650595	1.085941
C111	C	-0.234899	-1.710198	1.212248
C112	C	-0.290128	-1.636303	1.167100
H113	H	-0.243586	-1.698685	1.277873
H114	H	-0.171587	-1.691782	1.196191
H115	H	-0.248677	-1.794899	1.196096
H116	H	-0.276422	-1.551578	1.183228
H117	H	-0.353424	-1.654810	1.183161
H118	H	-0.677216	-1.396312	0.287004
O119	O	-0.477291	-1.385545	1.085644
C120	C	-0.576890	-1.252221	1.076967
C121	C	-0.521673	-1.326220	1.031929
H122	H	-0.612798	-1.204253	1.033559
H123	H	-0.540879	-1.197246	1.115330
H124	H	-0.617909	-1.300443	1.115364
H125	H	-0.480643	-1.278082	0.993491
H126	H	-0.557732	-1.381198	0.993616
O127	O	-0.477370	-1.385704	0.832821
C128	C	-0.610894	-1.334659	0.857906
C129	C	-0.555635	-1.408603	0.812869
H130	H	-0.674184	-1.353161	0.841804
H131	H	-0.597166	-1.249935	0.841768
H132	H	-0.602236	-1.346187	0.923538
H133	H	-0.564262	-1.397168	0.747227
H134	H	-0.569377	-1.493300	0.829072
H135	H	-0.478856	-1.217768	0.478380
