data_functionalizedCrystal
_audit_creation_method	'MofGen! by Chris Wilmer'
_symmetry_space_group_name_H-M	'P1'
_symmetry_Int_Tables_number	1
_symmetry_cell_setting	triclinic
loop_
_symmetry_equiv_pos_as_xyz
  x,y,z
_cell_length_a	19.188930
_cell_length_b	19.188940
_cell_length_c	10.868271
_cell_angle_alpha	89.994428
_cell_angle_beta	89.981803
_cell_angle_gamma	83.146747
loop_
_atom_site_label
_atom_site_type_symbol
_atom_site_fract_x
_atom_site_fract_y
_atom_site_fract_z
O1	O	0.926148	0.087168	-0.102719
O2	O	1.426148	0.587168	0.397281
O3	O	0.722837	0.098902	-0.102635
O4	O	1.222837	0.598902	0.397365
O5	O	0.830356	-0.008620	-0.102670
O6	O	1.330356	0.491380	0.397330
O7	O	0.818629	0.194690	-0.102684
O8	O	1.318629	0.694690	0.397316
O9	O	0.830347	-0.008625	0.101975
O10	O	1.330347	0.491375	0.601975
O11	O	0.722828	0.098898	0.102010
O12	O	1.222828	0.598898	0.602010
O13	O	0.926139	0.087164	0.101926
O14	O	1.426139	0.587164	0.601926
Zn15	Zn	0.824482	0.093030	0.134460
Zn16	Zn	1.324482	0.593030	0.634460
Zn17	Zn	0.824494	0.093035	-0.135169
Zn18	Zn	1.324494	0.593035	0.364831
O19	O	0.818620	0.194686	0.101961
O20	O	1.318620	0.694686	0.601961
C21	C	0.696821	0.098520	-0.000302
C22	C	1.196821	0.598520	0.499698
C23	C	0.619317	0.097379	-0.000269
C24	C	1.119317	0.597379	0.499731
C25	C	0.574395	0.160470	-0.000293
C26	C	1.074395	0.660470	0.499707
C27	C	0.501571	0.159398	-0.000306
C28	C	1.001571	0.659398	0.499694
C29	C	0.473672	0.095232	-0.000321
C30	C	0.973672	0.595232	0.499679
C31	C	0.518604	0.032133	-0.000290
C32	C	1.018604	0.532133	0.499710
C33	C	0.591426	0.033207	-0.000264
C34	C	1.091426	0.533207	0.499736
N35	N	0.365693	0.046187	-0.070016
N36	N	0.865693	0.546187	0.429984
N37	N	0.296515	0.045171	-0.070044
N38	N	0.796515	0.545171	0.429956
C39	C	0.254264	0.091994	-0.000396
C40	C	0.754264	0.591994	0.499604
N41	N	0.283803	0.139881	0.069265
N42	N	0.783803	0.639881	0.569265
N43	N	0.352988	0.140899	0.069286
N44	N	0.852988	0.640899	0.569286
C45	C	0.394710	0.094061	-0.000348
C46	C	0.894710	0.594061	0.499652
C47	C	0.130377	0.153927	-0.000432
C48	C	0.630377	0.653927	0.499568
C49	C	0.057553	0.152853	-0.000438
C50	C	0.557553	0.652853	0.499562
C51	C	0.074587	0.025586	-0.000434
C52	C	0.574587	0.525586	0.499566
C53	C	0.147410	0.026662	-0.000416
C54	C	0.647410	0.526662	0.499584
C55	C	0.175301	0.090835	-0.000421
C56	C	0.675301	0.590835	0.499579
C57	C	0.829970	-0.034633	-0.000348
C58	C	1.329970	0.465367	0.499652
C59	C	0.828827	-0.112138	-0.000348
C60	C	1.328827	0.387862	0.499652
C61	C	0.820688	-0.665399	0.111178
C62	C	1.320688	-0.165399	0.611178
C63	C	0.821754	-0.592575	0.111185
C64	C	1.321754	-0.092575	0.611185
C65	C	0.822296	-0.556153	-0.000366
C66	C	1.322296	-0.056153	0.499634
C67	C	0.821753	-0.592559	-0.111931
C68	C	1.321753	-0.092559	0.388069
C69	C	0.820679	-0.665381	-0.111934
C70	C	1.320679	-0.165381	0.388066
N71	N	0.863716	-0.447127	-0.083412
N72	N	1.363716	0.052873	0.416588
N73	N	0.864737	-0.377949	-0.083402
N74	N	1.364737	0.122051	0.416598
C75	C	0.825530	-0.336744	-0.000363
C76	C	1.325530	0.163256	0.499637
N77	N	0.785271	-0.367330	0.082684
N78	N	1.285271	0.132670	0.582684
N79	N	0.784252	-0.436515	0.082677
N80	N	1.284252	0.063485	0.582677
C81	C	0.823460	-0.477189	-0.000375
C82	C	1.323460	0.022811	0.499625
C83	C	0.827224	-0.221381	0.111202
C84	C	1.327224	0.278619	0.611202
C85	C	0.828287	-0.148554	0.111204
C86	C	1.328287	0.351446	0.611204
C87	C	0.828292	-0.148541	-0.111915
C88	C	1.328292	0.351459	0.388085
C89	C	0.827223	-0.221365	-0.111914
C90	C	1.327223	0.278635	0.388086
C91	C	0.826692	-0.257781	-0.000351
C92	C	1.326692	0.242219	0.499649
C93	C	0.952154	0.087546	-0.000410
C94	C	1.452154	0.587546	0.499590
C95	C	1.029659	0.088686	-0.000451
C96	C	1.529659	0.588686	0.499549
C97	C	0.819005	0.220699	-0.000364
C98	C	1.319005	0.720699	0.499636
C99	C	0.820148	0.298203	-0.000372
C100	C	1.320148	0.798203	0.499628
N101	N	0.824479	0.093026	0.318474
N102	N	1.324479	0.593026	0.818474
N103	N	0.824502	0.093034	-0.319183
N104	N	1.324502	0.593034	0.180817
C105	C	0.824490	0.093034	0.569480
C106	C	1.324490	0.593034	1.069480
C107	C	0.824482	0.093031	0.429802
C108	C	1.324482	0.593031	0.929802
H109	H	0.183987	-0.024713	-0.000404
H110	H	0.683987	0.475287	0.499596
H111	H	0.051873	-0.026659	-0.000523
H112	H	0.551873	0.473341	0.499477
C113	C	0.678458	0.218629	-0.000316
C114	C	1.178458	0.718629	0.499684
C115	C	0.605052	0.231006	-0.000325
C116	C	1.105052	0.731006	0.499675
H117	H	0.697384	0.262176	-0.000353
H118	H	1.197384	0.762176	0.499647
H119	H	0.693872	0.192679	0.071062
H120	H	1.193872	0.692679	0.571062
H121	H	0.693901	0.192646	-0.071667
H122	H	1.193901	0.692646	0.428333
H123	H	0.589609	0.256985	0.071031
H124	H	1.089609	0.756985	0.571031
H125	H	0.589633	0.256967	-0.071710
H126	H	1.089633	0.756967	0.428290
H127	H	0.822191	-0.562899	-0.202756
H128	H	1.322191	-0.062899	0.297244
H129	H	0.820255	-0.695044	0.202021
H130	H	1.320255	-0.195044	0.702021
H131	H	0.464989	0.210775	-0.000322
H132	H	0.964989	0.710775	0.499678
C133	C	0.106228	0.279615	-0.000424
C134	C	0.606228	0.779615	0.499576
C135	C	0.161041	0.224463	-0.000419
C136	C	0.661041	0.724463	0.499581
H137	H	0.125158	0.323160	-0.000407
H138	H	0.625158	0.823160	0.499593
H139	H	0.078199	0.276554	-0.071792
H140	H	0.578199	0.776554	0.428208
H141	H	0.078160	0.276541	0.070937
H142	H	0.578160	0.776541	0.570937
H143	H	0.189106	0.227534	-0.071785
H144	H	0.689106	0.727534	0.428215
H145	H	0.189081	0.227526	0.070956
H146	H	0.689081	0.727526	0.570956
H147	H	0.826788	-0.251002	-0.202750
H148	H	1.326788	0.248998	0.297250
C149	C	0.766881	-0.235798	0.301397
C150	C	1.266881	0.264202	0.801397
C151	C	0.826632	-0.261418	0.233823
C152	C	1.326632	0.238582	0.733823
H153	H	0.766514	-0.260519	0.377093
H154	H	1.266514	0.239481	0.877093
H155	H	0.767599	-0.187225	0.317368
H156	H	1.267599	0.312775	0.817368
H157	H	0.726006	-0.242287	0.255563
H158	H	1.226006	0.257713	0.755563
H159	H	0.867507	-0.254924	0.279653
H160	H	1.367507	0.245076	0.779653
H161	H	0.825920	-0.310003	0.217855
H162	H	1.325920	0.189997	0.717855
C163	C	0.821638	-0.599894	0.331728
C164	C	1.321638	-0.099894	0.831728
C165	C	0.822337	-0.552553	0.233810
C166	C	1.322337	-0.052553	0.733810
H167	H	0.821997	-0.575187	0.407429
H168	H	1.321997	-0.075187	0.907429
H169	H	0.780519	-0.622853	0.327102
H170	H	1.280519	-0.122853	0.827102
H171	H	0.861931	-0.633744	0.327070
H172	H	1.361931	-0.133744	0.827070
H173	H	0.782041	-0.518707	0.238463
H174	H	1.282041	-0.018707	0.738463
H175	H	0.863460	-0.529584	0.238438
H176	H	1.363460	-0.029584	0.738438
H177	H	0.020977	0.204231	-0.000450
H178	H	0.520977	0.704231	0.499550
H179	H	0.828724	-0.118920	0.202046
H180	H	1.328724	0.381080	0.702046
C181	C	0.829829	-0.036894	-0.210979
C182	C	1.329829	0.463106	0.289021
C183	C	0.828809	-0.108504	-0.234536
C184	C	1.328809	0.391496	0.265464
H185	H	0.830128	-0.012173	-0.286684
H186	H	1.330128	0.487827	0.213316
H187	H	0.789324	-0.019552	-0.165043
H188	H	1.289324	0.480448	0.334957
H189	H	0.870737	-0.030391	-0.165250
H190	H	1.370737	0.469609	0.334750
H191	H	0.787898	-0.115008	-0.280258
H192	H	1.287898	0.384992	0.219742
H193	H	0.869318	-0.125851	-0.280491
H194	H	1.369318	0.374149	0.219509
H195	H	0.820239	-0.695016	-0.202775
H196	H	1.320239	-0.195016	0.297225
H197	H	0.628002	-0.018171	-0.000246
H198	H	1.128002	0.481829	0.499754
C199	C	0.414535	-0.026019	-0.000350
C200	C	0.914535	0.473981	0.499650
C201	C	0.487940	-0.038399	-0.000313
C202	C	0.987940	0.461601	0.499687
H203	H	0.395607	-0.069565	-0.000369
H204	H	0.895607	0.430435	0.499631
H205	H	0.399083	-0.000057	0.071004
H206	H	0.899083	0.499943	0.571004
H207	H	0.399132	-0.000047	-0.071725
H208	H	0.899132	0.499953	0.428275
H209	H	0.503344	-0.064367	0.071067
H210	H	1.003344	0.435633	0.571067
H211	H	0.503398	-0.064372	-0.071674
H212	H	1.003398	0.435628	0.428326
