data_functionalizedCrystal
_audit_creation_method	'MofGen! by Chris Wilmer'
_symmetry_space_group_name_H-M	'P1'
_symmetry_Int_Tables_number	1
_symmetry_cell_setting	triclinic
loop_
_symmetry_equiv_pos_as_xyz
  x,y,z
_cell_length_a	17.038278
_cell_length_b	17.038272
_cell_length_c	8.965430
_cell_angle_alpha	90.000179
_cell_angle_beta	89.995800
_cell_angle_gamma	91.111028
loop_
_atom_site_label
_atom_site_type_symbol
_atom_site_fract_x
_atom_site_fract_y
_atom_site_fract_z
O1	O	1.048753	0.170521	-0.124054
O2	O	1.548753	0.670521	0.375946
O3	O	0.820942	0.167815	-0.124054
O4	O	1.320942	0.667815	0.375946
O5	O	0.933494	0.055263	-0.124042
O6	O	1.433494	0.555263	0.375958
O7	O	0.936202	0.283074	-0.124066
O8	O	1.436202	0.783074	0.375934
O9	O	0.933484	0.055270	0.124037
O10	O	1.433484	0.555270	0.624037
O11	O	0.820932	0.167823	0.124025
O12	O	1.320932	0.667823	0.624025
O13	O	1.048744	0.170529	0.124025
O14	O	1.548744	0.670529	0.624025
Cu15	Cu	0.934837	0.169176	0.146676
Cu16	Cu	1.434837	0.669176	0.646676
Cu17	Cu	0.934849	0.169168	-0.146706
Cu18	Cu	1.434849	0.669168	0.353294
O19	O	0.936192	0.283081	0.124013
O20	O	1.436192	0.783081	0.624013
C21	C	0.791645	0.165356	-0.000015
C22	C	1.291645	0.665356	0.499985
C23	C	0.704361	0.158009	-0.000015
C24	C	1.204361	0.658009	0.499985
C25	C	0.931026	0.025974	-0.000003
C26	C	1.431026	0.525974	0.499997
C27	C	0.923678	-0.061310	-0.000003
C28	C	1.423678	0.438690	0.499997
C29	C	0.210935	0.112872	-0.000016
C30	C	0.710935	0.612872	0.499984
C31	C	0.292947	0.119781	-0.000007
C32	C	0.792947	0.619781	0.499993
C33	C	0.329347	0.194155	-0.000022
C34	C	0.829347	0.694155	0.499978
C35	C	0.283730	0.261623	-0.000029
C36	C	0.783730	0.761623	0.499971
C37	C	0.201720	0.254713	-0.000027
C38	C	0.701720	0.754713	0.499973
C39	C	0.576734	0.218567	-0.000020
C40	C	1.076734	0.718567	0.499980
C41	C	0.658751	0.225473	-0.000027
C42	C	1.158751	0.725473	0.499973
C43	C	0.667962	0.083630	-0.000002
C44	C	1.167962	0.583630	0.499998
C45	C	0.585949	0.076726	-0.000009
C46	C	1.085949	0.576726	0.499991
C47	C	0.540340	0.144194	-0.000008
C48	C	1.040340	0.644194	0.499992
C49	C	0.413176	0.201219	-0.000018
C50	C	0.913176	0.701219	0.499982
C51	C	0.456513	0.137129	-0.000001
C52	C	0.956513	0.637129	0.499999
C53	C	0.991142	-0.106920	-0.000002
C54	C	1.491142	0.393080	0.499998
C55	C	0.984233	-0.188932	-0.000016
C56	C	1.484233	0.311068	0.499984
C57	C	0.909859	-0.225332	-0.000021
C58	C	1.409859	0.274668	0.499979
C59	C	0.842391	-0.179716	-0.000027
C60	C	1.342391	0.320284	0.499973
C61	C	0.849300	-0.097706	-0.000024
C62	C	1.349300	0.402294	0.499976
C63	C	0.885449	-0.472720	-0.000042
C64	C	1.385449	0.027280	0.499958
C65	C	0.878544	-0.554736	-0.000041
C66	C	1.378544	-0.054736	0.499959
C67	C	1.020387	-0.563946	-0.000032
C68	C	1.520387	-0.063946	0.499968
C69	C	1.027290	-0.481934	-0.000020
C70	C	1.527290	0.018066	0.499980
C71	C	0.959821	-0.436325	-0.000034
C72	C	1.459821	0.063675	0.499966
C73	C	0.902796	-0.309161	-0.000031
C74	C	1.402796	0.190839	0.499969
C75	C	0.966886	-0.352497	-0.000035
C76	C	1.466886	0.147503	0.499965
C77	C	1.078041	0.172988	-0.000018
C78	C	1.578041	0.672988	0.499982
C79	C	1.165325	0.180335	-0.000028
C80	C	1.665325	0.680335	0.499972
C81	C	0.938660	0.312370	-0.000030
C82	C	1.438660	0.812370	0.499970
C83	C	0.946008	0.399654	-0.000039
C84	C	1.446008	0.899654	0.499961
N85	N	0.934835	0.169182	0.353025
N86	N	1.434835	0.669182	0.853025
N87	N	0.934857	0.169156	-0.353055
N88	N	1.434857	0.669156	0.146945
C89	C	0.882765	0.221215	0.450326
C90	C	1.382765	0.721215	0.950326
C91	C	0.954745	0.241173	0.549738
C92	C	1.454745	0.741173	1.049738
C93	C	0.862886	0.149233	0.549741
C94	C	1.362886	0.649233	1.049741
C95	C	1.006853	0.189178	0.450249
C96	C	1.506853	0.689178	0.950249
C97	C	0.914945	0.097204	0.450243
C98	C	1.414945	0.597204	0.950243
C99	C	0.986974	0.117135	0.549610
C100	C	1.486974	0.617135	1.049610
H101	H	0.181305	0.052309	-0.000013
H102	H	0.681305	0.552309	0.499987
H103	H	1.027440	-0.322857	-0.000063
H104	H	1.527440	0.177143	0.499937
Br105	Br	0.536555	-0.024213	-0.000054
Br106	Br	1.036555	0.475787	0.499946
Br107	Br	1.075795	-0.250828	-0.000014
Br108	Br	1.575795	0.249172	0.499986
Br109	Br	0.757739	-0.035805	-0.000038
Br110	Br	1.257739	0.464195	0.499962
H111	H	0.539609	0.273505	-0.000027
H112	H	1.039609	0.773505	0.499973
Br113	Br	0.982813	0.342608	0.622578
Br114	Br	1.482813	0.842608	1.122578
Br115	Br	0.741454	-0.229116	-0.000059
Br116	Br	1.241454	0.270884	0.499941
H117	H	1.087852	-0.452303	-0.000015
H118	H	1.587852	0.047697	0.499985
H119	H	0.842240	-0.338808	-0.000032
H120	H	1.342240	0.161192	0.499968
H121	H	1.031068	0.073122	0.592930
H122	H	1.531068	0.573122	1.092930
H123	H	0.838777	0.265263	0.406732
H124	H	1.338777	0.765263	0.906732
Br125	Br	1.111946	-0.625847	-0.000013
Br126	Br	1.611946	-0.125847	0.499987
H127	H	1.067726	0.206113	0.406730
H128	H	1.567726	0.706113	0.906730
Br129	Br	0.886847	-0.004205	0.377339
Br130	Br	1.386847	0.495795	0.877339
Br131	Br	0.333129	0.362560	-0.000042
Br132	Br	0.833129	0.862560	0.499958
H133	H	0.705105	0.028701	-0.000000
H134	H	1.205105	0.528701	0.500000
H135	H	0.817978	-0.584370	-0.000021
H136	H	1.317978	-0.084370	0.499979
H137	H	0.688384	0.286039	-0.000017
H138	H	1.188384	0.786039	0.499983
H139	H	0.330080	0.064845	0.000009
H140	H	0.830080	0.564845	0.500009
H141	H	0.164585	0.309649	-0.000032
H142	H	0.664585	0.809649	0.499968
Br143	Br	0.407112	0.036197	0.000031
Br144	Br	0.907112	0.536197	0.500031
Br145	Br	0.761458	0.121128	0.622591
Br146	Br	1.261458	0.621128	1.122591
H147	H	1.051704	-0.077289	0.000012
H148	H	1.551704	0.422711	0.500012
Br149	Br	0.462582	0.302152	-0.000052
Br150	Br	0.962582	0.802152	0.499948
H151	H	0.830511	-0.435595	-0.000053
H152	H	1.330511	0.064405	0.499947
