data_functionalizedCrystal
_audit_creation_method	'MofGen! by Chris Wilmer'
_symmetry_space_group_name_H-M	'P1'
_symmetry_Int_Tables_number	1
_symmetry_cell_setting	triclinic
loop_
_symmetry_equiv_pos_as_xyz
  x,y,z
_cell_length_a	11.792254
_cell_length_b	11.792254
_cell_length_c	8.140239
_cell_angle_alpha	89.996301
_cell_angle_beta	89.997328
_cell_angle_gamma	84.198598
loop_
_atom_site_label
_atom_site_type_symbol
_atom_site_fract_x
_atom_site_fract_y
_atom_site_fract_z
O1	O	1.506905	0.155634	-0.136613
O2	O	1.840238	0.488967	0.196720
O3	O	2.173571	0.822300	0.530054
O4	O	1.176566	0.171652	-0.136617
O5	O	1.509899	0.504985	0.196717
O6	O	1.843233	0.838318	0.530050
O7	O	1.349744	-0.001527	-0.136603
O8	O	1.683078	0.331807	0.196730
O9	O	2.016411	0.665140	0.530064
O10	O	1.333726	0.328812	-0.136626
O11	O	1.667060	0.662145	0.196707
O12	O	2.000393	0.995478	0.530040
O13	O	1.349735	-0.001529	0.136624
O14	O	1.683068	0.331805	0.469957
O15	O	2.016401	0.665138	0.803291
O16	O	1.176556	0.171649	0.136611
O17	O	1.509890	0.504983	0.469944
O18	O	1.843223	0.838316	0.803277
O19	O	1.506895	0.155632	0.136614
O20	O	1.840228	0.488965	0.469948
O21	O	2.173562	0.822298	0.803281
Zn22	Zn	1.341724	0.163640	0.179993
Zn23	Zn	1.675058	0.496974	0.513326
Zn24	Zn	2.008391	0.830307	0.846660
Zn25	Zn	1.341737	0.163643	-0.179995
Zn26	Zn	1.675070	0.496976	0.153338
Zn27	Zn	2.008403	0.830310	0.486671
O28	O	1.333717	0.328810	0.136601
O29	O	1.667050	0.662143	0.469934
O30	O	2.000383	0.995476	0.803267
C31	C	1.134271	0.170642	-0.000003
C32	C	1.467604	0.503975	0.333330
C33	C	1.800937	0.837308	0.666663
C34	C	1.008257	0.167621	-0.000005
C35	C	1.341591	0.500955	0.333329
C36	C	1.674924	0.834288	0.666662
C37	C	0.905921	0.165168	-0.000011
C38	C	1.239254	0.498501	0.333322
C39	C	1.572587	0.831834	0.666655
C40	C	0.777534	0.162099	-0.000012
C41	C	1.110867	0.495432	0.333321
C42	C	1.444201	0.828766	0.666654
C43	C	1.348730	-0.043818	0.000010
C44	C	1.682064	0.289515	0.333343
C45	C	2.015397	0.622848	0.666677
C46	C	1.345710	-0.169832	0.000008
C47	C	1.679044	0.163502	0.333342
C48	C	2.012377	0.496835	0.666675
C49	C	1.343256	-0.272168	0.000003
C50	C	1.676590	0.061165	0.333336
C51	C	2.009923	0.394498	0.666669
C52	C	1.340188	-0.400555	-0.000013
C53	C	1.673521	-0.067222	0.333321
C54	C	2.006855	0.266112	0.666654
C55	C	1.549190	0.156642	-0.000003
C56	C	1.882524	0.489975	0.333331
C57	C	2.215857	0.823308	0.666664
C58	C	1.675204	0.159662	-0.000012
C59	C	2.008537	0.492995	0.333321
C60	C	2.341870	0.826329	0.666654
C61	C	1.334731	0.371102	-0.000016
C62	C	1.668064	0.704435	0.333317
C63	C	2.001397	1.037768	0.666651
C64	C	1.337751	0.497115	-0.000025
C65	C	1.671084	0.830448	0.333308
C66	C	2.004417	1.163781	0.666641
N67	N	1.341724	0.163638	0.425676
N68	N	1.675057	0.496971	0.759009
N69	N	2.008390	0.830304	1.092342
N70	N	1.341746	0.163636	-0.425678
N71	N	1.675079	0.496970	-0.092345
N72	N	2.008413	0.830303	0.240989
