data_functionalizedCrystal
_audit_creation_method	'MofGen! by Chris Wilmer'
_symmetry_space_group_name_H-M	'P1'
_symmetry_Int_Tables_number	1
_symmetry_cell_setting	triclinic
loop_
_symmetry_equiv_pos_as_xyz
  x,y,z
_cell_length_a	21.606444
_cell_length_b	14.395555
_cell_length_c	21.606444
_cell_angle_alpha	90.000721
_cell_angle_beta	60.000398
_cell_angle_gamma	59.998460
loop_
_atom_site_label
_atom_site_type_symbol
_atom_site_fract_x
_atom_site_fract_y
_atom_site_fract_z
Zr1	Zr	0.677423	0.894904	-0.081168
O2	O	0.806548	0.746573	-0.179995
O3	O	0.548302	0.940377	-0.050875
O4	O	0.677424	0.940376	-0.179993
O5	O	0.677424	0.746573	0.050975
O6	O	0.677419	1.093250	-0.179987
O7	O	0.677426	0.746574	-0.050878
O8	O	0.446444	1.093252	0.050980
O9	O	0.908399	0.746571	-0.179992
O10	O	0.601406	1.073857	-0.037948
O11	O	0.601408	0.959769	0.038059
O12	O	0.753432	0.959767	-0.113959
O13	O	0.753433	0.845679	-0.037952
Zr14	Zr	0.677411	1.138719	0.081284
Zr15	Zr	0.677415	1.138721	-0.081160
Zr16	Zr	0.677419	0.894903	0.081276
Zr17	Zr	0.839863	0.894902	-0.081163
Zr18	Zr	0.514971	1.138722	0.081279
O19	O	0.806532	1.093246	0.050991
O20	O	0.806537	1.093248	-0.179983
O21	O	0.806542	0.746571	0.050979
O22	O	0.548286	1.287051	0.180111
O23	O	0.548292	1.287053	-0.050863
O24	O	0.548297	0.940375	0.180099
O25	O	0.677410	1.287051	-0.050859
O26	O	0.677410	1.093247	0.180109
O27	O	0.677415	0.940373	0.180103
O28	O	0.677408	1.287050	0.050994
O29	O	0.908393	0.940373	-0.179985
O30	O	0.446441	1.093251	0.180101
O31	O	0.446435	1.287052	0.180108
O32	O	0.446438	1.287054	0.050987
O33	O	0.908395	0.746570	-0.050871
O34	O	0.908390	0.940372	-0.050864
O35	O	0.601402	1.073856	0.114075
O36	O	0.601401	1.187945	0.038068
O37	O	0.753426	1.073855	-0.037943
O38	O	0.753428	0.959766	0.038064
C39	C	0.474229	1.016815	0.000051
C40	C	0.405269	1.016816	0.000049
C41	C	0.372870	1.076367	-0.039627
C42	C	0.308070	1.076371	-0.039622
C43	C	0.275674	1.016817	0.000055
C44	C	0.308076	0.957264	0.039737
C45	C	0.372870	0.957268	0.039736
C46	C	0.046766	0.957251	0.039743
C47	C	-0.018031	0.957249	0.039739
C48	C	-0.018033	1.076354	-0.039615
C49	C	0.046761	1.076357	-0.039616
C50	C	0.079153	1.016810	0.000068
C51	C	0.149416	1.016808	0.000064
C52	C	0.205418	1.016811	0.000056
C53	C	0.677426	0.711834	0.000047
C54	C	0.677429	0.608328	0.000044
C55	C	0.760320	0.485532	-0.041394
C56	C	0.718884	0.454698	-0.071428
C57	C	0.718862	0.454739	0.030072
C58	C	0.635993	0.578857	-0.030032
C59	C	0.635983	0.578895	0.071508
C60	C	0.594486	0.548134	0.041492
C61	C	0.880605	1.016809	0.000065
C62	C	0.949565	1.016807	0.000067
C63	C	0.677422	1.016814	-0.203135
C64	C	0.677423	1.016814	-0.272096
C65	C	0.677408	1.321789	0.000069
C66	C	0.677405	1.425296	0.000072
C67	C	0.677423	1.101034	-0.304492
C68	C	0.677416	1.101037	-0.369285
C69	C	0.677417	1.016816	-0.401684
C70	C	0.677416	0.932592	-0.369283
C71	C	0.677416	0.932594	-0.304488
C72	C	0.677415	0.932582	-0.630593
C73	C	0.677418	0.932584	-0.695394
C74	C	0.677416	1.101025	-0.695390
C75	C	0.677416	1.101027	-0.630595
C76	C	0.677409	1.016808	-0.598197
C77	C	0.677414	1.016806	-0.527940
C78	C	0.677419	1.016811	-0.471943
C79	C	0.677412	1.016810	0.203251
C80	C	0.677410	1.016809	0.272212
C81	C	0.474220	1.321792	0.000062
C82	C	0.405257	1.425300	0.000064
C83	C	0.474224	1.016813	0.203244
C84	C	0.405262	1.016814	0.272204
C85	C	0.474215	1.321790	0.203255
C86	C	0.405250	1.425297	0.272218
C87	C	0.880619	0.711833	-0.203139
C88	C	0.949584	0.608326	-0.272102
C89	C	0.880614	0.711831	0.000054
C90	C	0.949577	0.608324	0.000052
C91	C	0.880610	1.016810	-0.203128
C92	C	0.949572	1.016810	-0.272088
C93	C	0.372873	1.414356	-0.039622
C94	C	0.308084	1.511603	-0.039636
C95	C	0.275675	1.619793	0.000041
C96	C	0.308064	1.630735	0.039728
C97	C	0.372857	1.533489	0.039737
C98	C	0.372874	1.076366	0.344274
C99	C	0.308087	1.076362	0.409075
C100	C	0.275683	1.016812	0.401804
C101	C	0.308078	0.957252	0.329726
C102	C	0.372869	0.957250	0.264927
C103	C	0.372863	1.533469	0.264929
C104	C	0.308072	1.630734	0.329721
C105	C	0.275665	1.619825	0.401801
C106	C	0.308059	1.511642	0.409089
C107	C	0.372853	1.414380	0.344298
C108	C	0.981979	0.500155	-0.264813
C109	C	1.046790	0.402890	-0.329605
C110	C	1.079200	0.413798	-0.401685
C111	C	1.046802	0.521981	-0.408973
C112	C	0.981997	0.619244	-0.344182
C113	C	0.981967	0.619268	0.039731
C114	C	1.046775	0.522021	0.039727
C115	C	1.079186	0.413831	0.000048
C116	C	1.046794	0.402889	-0.039636
C117	C	0.981992	0.500135	-0.039635
C118	C	0.981954	1.076372	-0.264792
C119	C	1.046743	1.076394	-0.329581
C120	C	1.079152	1.016846	-0.401664
C121	C	1.046762	0.957282	-0.408958
C122	C	0.981971	0.957268	-0.344170
H123	H	-0.044417	1.124845	-0.071925
O124	O	1.081672	1.140636	-0.321706
H125	H	1.048258	1.182021	-0.260696
O126	O	0.407833	1.297671	-0.082430
H127	H	0.353445	1.287775	-0.059519
H128	H	0.677417	0.863998	-0.721772
H129	H	0.399215	1.326305	0.350244
O130	O	0.273138	1.140590	-0.082427
H131	H	0.243627	1.232120	-0.059506
O132	O	0.947028	0.735953	0.082518
H133	H	0.980458	0.727207	0.110094
O134	O	-0.052973	0.893013	0.082540
H135	H	-0.103462	0.903006	0.075864
O136	O	0.589604	0.649761	0.151540
H137	H	0.635364	0.658926	0.156078
H138	H	0.281685	0.908767	0.323817
O139	O	0.677429	0.841742	-0.404233
H140	H	0.618093	0.845883	-0.362136
O141	O	0.947046	0.735915	-0.352048
H142	H	0.980467	0.727148	-0.413057
O143	O	0.407781	0.893058	0.082556
H144	H	0.395314	0.953211	0.126418
H145	H	0.399238	1.542373	0.206243
H146	H	0.677412	0.864006	-0.604221
H147	H	0.073139	1.124847	-0.071928
O148	O	0.205770	1.724734	0.471682
H149	H	0.188690	1.801782	0.454496
O150	O	0.081710	0.893014	0.082534
H151	H	0.048304	0.851591	0.110114
H152	H	0.955577	1.124863	-0.206104
O153	O	0.273094	1.747434	0.082522
H154	H	0.327473	1.757352	0.059599
O155	O	0.947029	0.488377	-0.187071
H156	H	1.001421	0.441171	-0.180478
O157	O	0.273129	1.747409	0.321852
H158	H	0.306540	1.738644	0.260844
H159	H	0.281664	1.502777	0.467786
H160	H	0.753910	0.401233	0.055456
O161	O	1.081712	0.286215	-0.321736
H162	H	1.048268	0.294979	-0.260728
O163	O	0.407816	1.140591	-0.082430
H164	H	0.395388	1.206410	-0.042375
H165	H	0.399250	1.124860	0.350209
O166	O	1.149107	0.308889	-0.471566
H167	H	1.166182	0.231842	-0.454380
O168	O	1.081755	0.533742	-0.486719
H169	H	1.132252	0.447929	-0.530541
H170	H	0.222916	1.698968	0.000028
H171	H	1.131952	0.334656	0.000054
H172	H	1.073138	0.530952	0.072045
H173	H	1.073193	0.314787	-0.071941
H174	H	0.955622	0.491208	-0.071945
O175	O	0.947045	0.893023	-0.352042
H176	H	0.959480	0.827197	-0.324423
H177	H	1.131909	1.016867	-0.454412
H178	H	0.222926	1.016823	0.454574
H179	H	0.753918	0.401180	-0.131853
H180	H	0.281689	0.908781	0.072047
O181	O	1.081729	0.893044	-0.486706
H182	H	1.132231	0.903055	-0.530525
O183	O	0.853161	0.451842	-0.087875
H184	H	0.887368	0.401343	-0.147173
H185	H	0.281720	1.502671	-0.071953
O186	O	0.589632	0.649516	-0.063761
H187	H	0.590039	0.726310	-0.063538
H188	H	0.524337	0.573792	0.076539
H189	H	0.399215	1.542416	0.072058
H190	H	0.281719	1.124867	0.467758
H191	H	0.677427	1.169612	-0.278119
O192	O	0.407678	0.893198	0.187193
H193	H	0.374208	0.851866	0.193032
H194	H	0.677415	1.169615	-0.395660
O195	O	0.677408	1.191870	-0.595644
H196	H	0.677396	1.250443	-0.629051
O197	O	0.677422	1.191864	-0.730337
H198	H	0.677435	1.250417	-0.696927
O199	O	0.677423	0.841754	-0.269546
H200	H	0.677433	0.783181	-0.302964
