data_functionalizedCrystal
_audit_creation_method	'MofGen! by Chris Wilmer'
_symmetry_space_group_name_H-M	'P1'
_symmetry_Int_Tables_number	1
_symmetry_cell_setting	triclinic
loop_
_symmetry_equiv_pos_as_xyz
  x,y,z
_cell_length_a	16.974800
_cell_length_b	10.654551
_cell_length_c	16.053802
_cell_angle_alpha	92.593346
_cell_angle_beta	91.074188
_cell_angle_gamma	83.936367
loop_
_atom_site_label
_atom_site_type_symbol
_atom_site_fract_x
_atom_site_fract_y
_atom_site_fract_z
O1	O	1.049952	0.160086	0.001546
O2	O	0.820596	0.179311	-0.013958
O3	O	0.940547	-0.013097	-0.005850
O4	O	0.930001	0.352493	-0.006562
O5	O	0.933944	-0.002550	0.132562
O6	O	0.813993	0.189857	0.124454
O7	O	1.043350	0.170633	0.139958
Zn8	Zn	0.927623	0.181920	0.154182
Zn9	Zn	0.936323	0.168024	-0.028182
O10	O	0.923399	0.363040	0.131850
C11	C	0.787927	0.183660	0.053263
C12	C	0.700419	0.180890	0.047347
C13	C	0.655713	0.185336	0.120019
C14	C	0.573492	0.182714	0.114463
C15	C	0.535977	0.175656	0.036235
C16	C	0.580689	0.171206	-0.036442
C17	C	0.662909	0.173819	-0.030886
C18	C	0.290460	0.167216	0.011525
C19	C	0.208233	0.164607	0.005974
C20	C	0.201042	0.176112	0.156880
C21	C	0.283264	0.178732	0.162430
C22	C	0.327969	0.174276	0.089753
N23	N	0.451933	0.172980	0.030554
N24	N	0.412012	0.176943	0.095434
C25	C	0.936471	-0.054613	0.063302
C26	C	0.934154	-0.194032	0.063139
C27	C	0.936666	-0.265282	-0.012381
C28	C	0.934482	-0.396279	-0.012525
C29	C	0.927277	-0.384765	0.138380
C30	C	0.929456	-0.253770	0.138522
C31	C	0.941365	-0.205544	-0.087764
C32	C	0.943878	-0.276795	-0.163291
C33	C	0.941694	-0.407792	-0.163434
C34	C	0.936997	-0.467538	-0.088051
C35	C	1.076019	0.166284	0.072735
C36	C	1.163527	0.169052	0.078645
C37	C	0.927474	0.404556	0.062696
C38	C	0.929792	0.543975	0.062853
N39	N	0.921692	0.191403	0.278642
N40	N	0.942260	0.158531	-0.152641
C41	C	0.972750	0.109562	0.325787
C42	C	0.968609	0.116208	0.412914
C43	C	0.913412	0.204700	0.452894
C44	C	0.862348	0.286544	0.405742
C45	C	0.866487	0.279892	0.318617
C46	C	0.895335	0.233722	0.713082
C47	C	0.891202	0.240371	0.800214
C48	C	0.997462	0.070032	0.807379
C49	C	1.001598	0.063393	0.720252
C50	C	0.950532	0.145232	0.673107
N51	N	0.909179	0.211498	0.541951
N52	N	0.954762	0.138428	0.584051
H53	H	0.177691	0.158863	-0.057732
H54	H	0.853756	0.300362	0.674704
Cl55	Cl	0.346650	0.161617	-0.079841
H56	H	0.927393	-0.195753	0.200017
H57	H	0.537097	0.186313	0.173640
Cl58	Cl	1.042148	-0.001686	0.275536
H59	H	1.039037	0.003401	0.845771
Cl60	Cl	1.032797	0.013320	0.472183
H61	H	0.817402	0.358593	0.438299
Cl62	Cl	0.821806	0.351632	0.850468
Cl63	Cl	0.702865	0.194217	0.218368
Cl64	Cl	0.330418	0.187614	0.260778
Cl65	Cl	0.944845	-0.497358	-0.258381
H66	H	0.550138	0.165451	-0.100137
Cl67	Cl	0.934243	-0.632221	-0.088236
Cl68	Cl	0.802293	0.382778	0.259349
Cl69	Cl	1.070990	-0.047854	0.669991
H70	H	0.947695	-0.228138	-0.224665
Cl71	Cl	0.144837	0.181707	0.248239
Cl72	Cl	0.719112	0.168225	-0.122248
H73	H	0.923453	-0.433422	0.199753
Cl74	Cl	0.944115	-0.040864	-0.087588
