data_functionalizedCrystal
_audit_creation_method	'MofGen! by Chris Wilmer'
_symmetry_space_group_name_H-M	'P1'
_symmetry_Int_Tables_number	1
_symmetry_cell_setting	triclinic
loop_
_symmetry_equiv_pos_as_xyz
  x,y,z
_cell_length_a	10.654550
_cell_length_b	10.654550
_cell_length_c	9.130313
_cell_angle_alpha	90.001595
_cell_angle_beta	90.000276
_cell_angle_gamma	84.484929
loop_
_atom_site_label
_atom_site_type_symbol
_atom_site_fract_x
_atom_site_fract_y
_atom_site_fract_z
O1	O	-1.667839	-0.176399	-0.121680
O2	O	-1.302361	-0.193205	-0.121706
O3	O	-1.493503	-0.002063	-0.121693
O4	O	-1.476697	-0.367541	-0.121692
O5	O	-1.493490	-0.002057	0.121906
O6	O	-1.302348	-0.193199	0.121893
O7	O	-1.667826	-0.176393	0.121919
Cu8	Cu	-1.485086	-0.184796	0.144149
Cu9	Cu	-1.485101	-0.184802	-0.143935
O10	O	-1.476684	-0.367535	0.121907
C11	C	-1.255556	-0.191968	0.000090
C12	C	-1.116113	-0.188276	0.000080
C13	C	-1.492263	0.044738	0.000103
C14	C	-1.488571	0.184181	0.000092
C15	C	-1.714631	-0.177630	0.000120
C16	C	-1.854074	-0.181322	0.000121
C17	C	-1.477925	-0.414336	0.000108
C18	C	-1.481616	-0.553779	0.000108
C19	C	-1.036628	-0.300818	0.000085
C20	C	-0.905607	-0.297341	0.000110
C21	C	-0.933570	-0.068772	0.000121
C22	C	-1.064588	-0.072250	0.000106
N23	N	-1.485084	-0.184790	0.346771
C24	C	-1.483361	0.380719	-0.132683
C25	C	-1.486843	0.249699	-0.132691
C26	C	-1.486830	0.249693	0.132894
C27	C	-1.483357	0.380712	0.132901
N28	N	-1.485113	-0.184798	-0.346558
C29	C	-1.569751	-0.100188	0.423429
C30	C	-1.569763	-0.100189	0.576766
C31	C	-1.400437	-0.269404	0.576774
C32	C	-1.400420	-0.269396	0.423440
H33	H	-0.840894	-0.388984	0.000117
O34	O	-0.877999	0.056369	0.000137
H35	H	-0.773539	0.039883	0.000135
H36	H	-1.129309	0.019401	0.000106
O37	O	-1.481477	0.451380	-0.275900
H38	H	-1.483280	0.383816	-0.368238
O39	O	-1.309138	-0.360670	0.659464
H40	H	-1.323383	-0.346475	0.778967
H41	H	-1.331468	-0.338290	0.361022
H42	H	-1.078574	-0.395294	0.000075
H43	H	-1.488265	0.196373	-0.240823
O44	O	-1.488696	0.179038	0.276117
H45	H	-1.491391	0.076925	0.253806
H46	H	-1.638704	-0.031297	0.639176
H47	H	-1.481940	0.434045	0.241042
H48	H	-1.638687	-0.031295	0.361009
