data_functionalizedCrystal
_audit_creation_method	'MofGen! by Chris Wilmer'
_symmetry_space_group_name_H-M	'P1'
_symmetry_Int_Tables_number	1
_symmetry_cell_setting	triclinic
loop_
_symmetry_equiv_pos_as_xyz
  x,y,z
_cell_length_a	19.805407
_cell_length_b	19.121111
_cell_length_c	19.805399
_cell_angle_alpha	87.586854
_cell_angle_beta	89.979591
_cell_angle_gamma	87.527656
loop_
_atom_site_label
_atom_site_type_symbol
_atom_site_fract_x
_atom_site_fract_y
_atom_site_fract_z
Zn1	Zn	1.023229	0.279595	-0.394226
Zn2	Zn	1.018310	0.397047	-0.285865
Zn3	Zn	0.910043	0.279618	-0.281050
Zn4	Zn	0.905175	0.397014	-0.399009
O5	O	0.964189	0.338318	-0.340037
O6	O	1.117293	0.295179	-0.379865
O7	O	1.003927	0.381494	-0.190511
O8	O	0.929153	0.181330	-0.292046
O9	O	1.113679	0.381471	-0.300253
O10	O	1.012310	0.181313	-0.375196
O11	O	0.924383	0.295219	-0.186973
O12	O	0.814680	0.295187	-0.296684
O13	O	0.920856	0.381414	-0.493090
O14	O	0.811104	0.381437	-0.383348
O15	O	1.007590	0.295147	-0.489576
O16	O	0.999206	0.495328	-0.304890
O17	O	0.916086	0.495303	-0.388017
C18	C	0.788333	0.338311	-0.340013
C19	C	0.713101	0.338325	-0.340019
C20	C	0.253192	0.293470	-0.381587
C21	C	0.323880	0.293472	-0.381583
C22	C	0.357339	0.338329	-0.340060
C23	C	0.320105	0.383193	-0.298544
C24	C	0.249418	0.383195	-0.298553
C25	C	0.605179	0.383188	-0.298508
C26	C	0.675871	0.383181	-0.298501
C27	C	0.679641	0.293464	-0.381538
C28	C	0.608954	0.293466	-0.381547
C29	C	0.571726	0.338333	-0.340034
C30	C	0.495078	0.338332	-0.340040
C31	C	0.433986	0.338327	-0.340049
C32	C	0.956603	0.520800	-0.347510
C33	C	0.953419	0.598866	-0.350729
C34	C	0.995234	0.635531	-0.308998
C35	C	0.992243	0.708882	-0.312030
C36	C	0.947435	0.745567	-0.356790
C37	C	0.905619	0.708897	-0.398525
C38	C	0.908613	0.635547	-0.395496
C39	C	0.936232	0.967038	-0.368101
C40	C	0.933240	1.040393	-0.371126
C41	C	1.019865	1.040374	-0.284631
C42	C	1.022852	0.967022	-0.281603
C43	C	0.981039	0.930358	-0.323341
C44	C	0.944376	0.820544	-0.359888
C45	C	0.984102	0.855382	-0.320245
C46	C	1.140731	0.338326	-0.340063
C47	C	1.215963	0.338330	-0.340073
C48	C	0.964229	0.338274	-0.516578
C49	C	0.964246	0.338255	-0.591810
C50	C	0.971818	1.155125	-0.332559
C51	C	0.975054	1.077058	-0.329395
C52	C	1.009409	0.293334	-0.625325
C53	C	1.009417	0.293313	-0.696013
C54	C	0.964264	0.338219	-0.733184
C55	C	0.919096	0.383142	-0.699663
C56	C	0.919085	0.383159	-0.628977
C57	C	0.919137	0.383077	-0.984734
C58	C	0.919152	0.383059	-1.055425
C59	C	1.009468	0.293232	-1.051770
C60	C	1.009458	0.293248	-0.981083
C61	C	0.964288	0.338169	-0.947569
C62	C	0.964279	0.338189	-0.870922
C63	C	0.964276	0.338202	-0.809830
C64	C	0.964190	0.338312	-0.164181
C65	C	0.964313	0.338133	-0.088942
H66	H	0.225955	0.256938	-0.415396
O67	O	0.875321	0.426810	-0.952225
C68	C	0.887177	0.496809	-0.972374
H69	H	0.941109	0.500364	-0.991946
H70	H	0.850139	0.515145	-1.014158
C71	C	0.811067	0.539332	-0.887460
C72	C	0.877309	0.543700	-0.911494
H73	H	0.804978	0.568258	-0.849908
H74	H	0.803077	0.492172	-0.873887
H75	H	0.780210	0.554611	-0.922286
H76	H	0.908165	0.528413	-0.876671
H77	H	0.885304	0.590858	-0.925060
O78	O	0.352679	0.426803	-0.258304
C79	C	0.391685	0.472227	-0.298624
H80	H	0.403326	0.447525	-0.348944
H81	H	0.362282	0.524288	-0.308115
C82	C	0.443989	0.515229	-0.200070
C83	C	0.458291	0.484886	-0.261872
H84	H	0.485073	0.523041	-0.177399
H85	H	0.417708	0.484628	-0.172905
H86	H	0.419485	0.558610	-0.207988
H87	H	0.482787	0.441503	-0.253953
H88	H	0.484578	0.515480	-0.289035
O89	O	0.213182	0.426673	-0.258188
C90	C	0.173949	0.386630	-0.212887
H91	H	0.165584	0.333436	-0.234664
H92	H	0.201490	0.378846	-0.162417
C93	C	0.115466	0.490596	-0.175419
C94	C	0.105186	0.425263	-0.202168
H95	H	0.073051	0.514427	-0.168803
H96	H	0.141899	0.517574	-0.205936
H97	H	0.138419	0.484100	-0.133363
H98	H	0.082242	0.431760	-0.244226
H99	H	0.078748	0.398287	-0.171657
H100	H	0.709960	0.256934	-0.415342
H101	H	1.031718	0.605667	-0.272547
H102	H	0.703111	0.419713	-0.264687
O103	O	0.360122	0.249860	-0.421811
C104	C	0.402872	0.204437	-0.381479
H105	H	0.412408	0.229142	-0.331158
H106	H	0.377795	0.152377	-0.371993
C107	C	0.458851	0.161427	-0.480017
C108	C	0.470568	0.191773	-0.418214
H109	H	0.500608	0.153612	-0.502678
H110	H	0.430048	0.192027	-0.507191
H111	H	0.437952	0.118047	-0.472103
H112	H	0.491458	0.235155	-0.426130
H113	H	0.499376	0.161179	-0.391043
H114	H	1.026293	0.738732	-0.278047
O115	O	1.066444	0.931497	-0.238112
C116	C	1.102701	0.979588	-0.201918
H117	H	1.102891	1.031855	-0.231799
H118	H	1.077629	0.987444	-0.150810
C119	C	1.175682	0.886711	-0.154354
C120	C	1.175921	0.950904	-0.191058
H121	H	1.220847	0.869016	-0.147652
H122	H	1.151254	0.854310	-0.178736
H123	H	1.154786	0.893266	-0.111769
H124	H	1.196809	0.944347	-0.233645
H125	H	1.200354	0.983303	-0.166682
H126	H	1.053908	1.070233	-0.250651
H127	H	1.046180	0.256769	-0.595065
H128	H	0.907892	0.850422	-0.396331
H129	H	0.574876	0.419719	-0.264703
O130	O	1.053356	0.249657	-0.728464
C131	C	1.093199	0.210018	-0.680498
H132	H	1.094333	0.238800	-0.631287
H133	H	1.070639	0.156674	-0.670794
C134	C	1.164269	0.164547	-0.768129
C135	C	1.165667	0.199900	-0.707689
H136	H	1.208970	0.158303	-0.784902
H137	H	1.137425	0.191250	-0.800446
H138	H	1.145466	0.120098	-0.760034
H139	H	1.184461	0.244352	-0.715787
H140	H	1.192516	0.173204	-0.675375
O141	O	0.889698	1.075922	-0.414672
C142	C	0.853424	1.027834	-0.450852
H143	H	0.883279	0.975520	-0.451062
H144	H	0.802345	1.020096	-0.425705
C145	C	0.805801	1.120677	-0.523802
C146	C	0.842472	1.056426	-0.524065
H147	H	0.799042	1.138315	-0.568962
H148	H	0.830237	1.153076	-0.499426
H149	H	0.763239	1.114220	-0.502843
H150	H	0.885036	1.062885	-0.545016
H151	H	0.818043	1.024029	-0.548447
O152	O	0.895582	0.931348	-0.408540
C153	C	0.853609	0.888998	-0.368211
H154	H	0.877962	0.878025	-0.316488
H155	H	0.802298	0.917315	-0.361894
C156	C	0.814264	0.832784	-0.466089
C157	C	0.844178	0.819302	-0.402564
H158	H	0.808444	0.789794	-0.487280
H159	H	0.842540	0.861318	-0.493260
H160	H	0.771509	0.856384	-0.460816
H161	H	0.886936	0.795711	-0.407839
H162	H	0.815909	0.790762	-0.375395
O163	O	0.862002	0.744453	-0.441970
C164	C	0.795279	0.726610	-0.426368
H165	H	0.796066	0.673373	-0.398149
H166	H	0.770814	0.767937	-0.393255
C167	C	0.753416	0.788595	-0.526834
C168	C	0.754381	0.723205	-0.492179
H169	H	0.728186	0.786498	-0.567428
H170	H	0.798368	0.800619	-0.537345
H171	H	0.733029	0.823027	-0.499232
H172	H	0.774775	0.688776	-0.519777
H173	H	0.709432	0.711176	-0.481674
O174	O	0.868093	0.599895	-0.436103
C175	C	0.908341	0.557390	-0.478088
H176	H	0.960746	0.579449	-0.483228
H177	H	0.912956	0.501813	-0.454867
C178	C	0.810918	0.529148	-0.542060
C179	C	0.875280	0.556244	-0.548378
H180	H	0.790523	0.528437	-0.585418
H181	H	0.783801	0.557782	-0.513773
H182	H	0.814772	0.482836	-0.522707
H183	H	0.871424	0.602558	-0.567723
H184	H	0.902396	0.527617	-0.576670
H185	H	0.581715	0.256936	-0.415356
H186	H	1.020587	0.825511	-0.283804
O187	O	1.053343	0.249560	-0.945078
C188	C	1.093219	0.209917	-0.989819
H189	H	1.065607	0.207473	-1.040102
H190	H	1.143555	0.235636	-0.998397
C191	C	1.139997	0.138175	-0.897420
C192	C	1.106080	0.135168	-0.959177
H193	H	1.147934	0.092067	-0.878519
H194	H	1.113134	0.164885	-0.867277
H195	H	1.181940	0.159610	-0.904577
H196	H	1.064135	0.113741	-0.952019
H197	H	1.132937	0.108453	-0.989319
H198	H	1.046246	0.256652	-1.079066
H199	H	0.882302	0.419731	-0.601689
O200	O	0.875379	0.426756	-1.091566
C201	C	0.912031	0.472103	-1.134325
H202	H	0.965153	0.476452	-1.113207
H203	H	0.915281	0.450376	-1.187010
C204	C	0.810671	0.539772	-1.164324
C205	C	0.875915	0.545118	-1.138384
H206	H	0.788392	0.584810	-1.166832
H207	H	0.785977	0.509220	-1.135519
H208	H	0.813388	0.521663	-1.208226
H209	H	0.873197	0.563218	-1.094480
H210	H	0.900607	0.575675	-1.167182
H211	H	0.882329	0.419703	-0.729934
