data_functionalizedCrystal
_audit_creation_method	'MofGen! by Chris Wilmer'
_symmetry_space_group_name_H-M	'P1'
_symmetry_Int_Tables_number	1
_symmetry_cell_setting	triclinic
loop_
_symmetry_equiv_pos_as_xyz
  x,y,z
_cell_length_a	10.654545
_cell_length_b	10.654551
_cell_length_c	9.730223
_cell_angle_alpha	90.003314
_cell_angle_beta	89.999987
_cell_angle_gamma	84.484254
loop_
_atom_site_label
_atom_site_type_symbol
_atom_site_fract_x
_atom_site_fract_y
_atom_site_fract_z
O1	O	1.667838	0.176373	0.114270
O2	O	1.302359	0.193185	0.114276
O3	O	1.493500	0.002040	0.114270
O4	O	1.476696	0.367518	0.114276
O5	O	1.493499	0.002031	-0.114310
O6	O	1.302357	0.193176	-0.114304
O7	O	1.667836	0.176364	-0.114310
Zn8	Zn	1.485096	0.184769	-0.150599
Zn9	Zn	1.485098	0.184781	0.150565
O10	O	1.476694	0.367510	-0.114304
C11	C	1.255560	0.191948	-0.000014
C12	C	1.116116	0.188258	-0.000012
C13	C	1.050611	0.186516	-0.124611
C14	C	0.919591	0.183029	-0.124611
C15	C	0.919594	0.183030	0.124599
C16	C	1.050612	0.186508	0.124598
C17	C	1.492265	-0.044762	-0.000018
C18	C	1.488573	-0.184205	-0.000011
C19	C	1.486841	-0.249705	0.124589
C20	C	1.483361	-0.380725	0.124590
C21	C	1.483350	-0.380736	-0.124620
C22	C	1.486821	-0.249717	-0.124620
C23	C	1.714635	0.177602	-0.000017
C24	C	1.854079	0.181292	-0.000010
C25	C	1.477929	0.414312	-0.000013
C26	C	1.481622	0.553755	-0.000010
N27	N	1.485101	0.184779	0.356101
N28	N	1.485104	0.184760	-0.356135
C29	C	1.569899	0.100308	0.428025
C30	C	1.569904	0.100301	0.571908
C31	C	1.400302	0.269241	0.571931
C32	C	1.400304	0.269253	0.428051
H33	H	1.103948	0.187923	0.226068
C34	C	1.122672	0.188429	-0.261675
C35	C	1.199420	0.299686	-0.295944
C36	C	1.271479	0.301595	-0.433011
C37	C	1.266790	0.192246	-0.535809
C38	C	1.190039	0.080981	-0.501542
C39	C	1.117980	0.079072	-0.364475
H40	H	1.202893	0.380639	-0.219845
H41	H	1.328295	0.383961	-0.458377
H42	H	1.320133	0.193659	-0.637274
H43	H	1.186566	0.000028	-0.577641
H44	H	1.061164	-0.003294	-0.339109
H45	H	0.866244	0.181607	0.226051
C46	C	1.481415	-0.452813	-0.261677
C47	C	1.373007	-0.421493	-0.364449
C48	C	1.371065	-0.493572	-0.501506
C49	C	1.477530	-0.596969	-0.535791
C50	C	1.585946	-0.628294	-0.433016
C51	C	1.587888	-0.556216	-0.295959
H52	H	1.294188	-0.344948	-0.339072
H53	H	1.290808	-0.470382	-0.577586
H54	H	1.476092	-0.650326	-0.637248
H55	H	1.664765	-0.704839	-0.458394
H56	H	1.668145	-0.579405	-0.219879
H57	H	1.331251	0.338046	0.369487
H58	H	1.638955	0.031518	0.630464
C59	C	1.488754	-0.177638	0.261654
C60	C	1.597140	-0.208965	0.364451
C61	C	1.599049	-0.136902	0.501520
C62	C	1.492572	-0.033511	0.535791
C63	C	1.384179	-0.002179	0.432991
C64	C	1.382270	-0.074242	0.295922
H65	H	1.675967	-0.285505	0.339084
H66	H	1.679289	-0.160096	0.577619
H67	H	1.493985	0.019835	0.637258
H68	H	1.305352	0.074362	0.458358
H69	H	1.302029	-0.051047	0.219823
H70	H	1.488225	-0.196386	-0.226091
C71	C	1.663182	0.007399	0.348880
C72	C	1.756504	-0.085470	0.428002
C73	C	1.849794	-0.178379	0.348862
C74	C	1.849762	-0.178418	0.190599
C75	C	1.756437	-0.085545	0.111468
C76	C	1.663147	0.007364	0.190608
H77	H	1.756531	-0.085445	0.545166
H78	H	1.918880	-0.247130	0.407441
H79	H	1.918821	-0.247194	0.132015
H80	H	1.756410	-0.085570	-0.005696
H81	H	1.594061	0.076115	0.132029
C82	C	1.307018	0.362150	0.651076
C83	C	1.307002	0.362140	0.809339
C84	C	1.213712	0.455048	0.888479
C85	C	1.120438	0.547967	0.809357
C86	C	1.120451	0.547980	0.651085
C87	C	1.213741	0.455071	0.571945
H88	H	1.376052	0.293353	0.867918
H89	H	1.213703	0.455038	1.005643
H90	H	1.051380	0.616743	0.867941
H91	H	1.051402	0.616767	0.592506
H92	H	1.213750	0.455082	0.454781
H93	H	1.481948	-0.434048	0.226052
H94	H	0.866262	0.181611	-0.226073
