data_functionalizedCrystal
_audit_creation_method	'MofGen! by Chris Wilmer'
_symmetry_space_group_name_H-M	'P1'
_symmetry_Int_Tables_number	1
_symmetry_cell_setting	triclinic
loop_
_symmetry_equiv_pos_as_xyz
  x,y,z
_cell_length_a	15.297327
_cell_length_b	18.215407
_cell_length_c	18.215399
_cell_angle_alpha	90.017587
_cell_angle_beta	99.645421
_cell_angle_gamma	80.292992
loop_
_atom_site_label
_atom_site_type_symbol
_atom_site_fract_x
_atom_site_fract_y
_atom_site_fract_z
Zn1	Zn	-0.359154	-1.074337	-0.466807
Zn2	Zn	0.140846	-0.574337	0.033193
Zn3	Zn	-0.510031	-1.052947	-0.365029
Zn4	Zn	-0.010031	-0.552947	0.134971
Zn5	Zn	-0.359188	-0.951271	-0.343757
Zn6	Zn	0.140812	-0.451271	0.156243
Zn7	Zn	-0.509973	-0.929939	-0.488044
Zn8	Zn	-0.009973	-0.429939	0.011956
O9	O	-0.434587	-1.002124	-0.415909
O10	O	0.065413	-0.502124	0.084091
O11	O	-0.379178	-1.174482	-0.453320
O12	O	0.120822	-0.674482	0.046680
O13	O	-0.490060	-1.039436	-0.259228
O14	O	0.009940	-0.539436	0.240772
O15	O	-0.232937	-0.985475	-0.342290
O16	O	0.267063	-0.485475	0.157710
O17	O	-0.490027	-1.158768	-0.378544
O18	O	0.009973	-0.658768	0.121456
O19	O	-0.232912	-1.075891	-0.432694
O20	O	0.267088	-0.575891	0.067306
O21	O	-0.379237	-0.964734	-0.243600
O22	O	0.120763	-0.464734	0.256400
O23	O	-0.379181	-0.845458	-0.362883
O24	O	0.120819	-0.345458	0.137117
O25	O	-0.489928	-0.949118	-0.588206
O26	O	0.010072	-0.449118	-0.088206
O27	O	-0.489961	-0.829786	-0.468890
O28	O	0.010039	-0.329786	0.031110
O29	O	-0.379122	-1.055206	-0.572603
O30	O	0.120878	-0.555206	-0.072603
O31	O	-0.636270	-1.018751	-0.399137
O32	O	-0.136270	-0.518751	0.100863
O33	O	-0.636228	-0.928377	-0.489516
O34	O	-0.136228	-0.428377	0.010484
C35	C	-0.434569	-0.810920	-0.415883
C36	C	0.065431	-0.310920	0.084117
C37	C	-0.434583	-0.729119	-0.415892
C38	C	0.065417	-0.229119	0.084108
C39	C	-0.492356	-0.532771	-0.471041
C40	C	0.007644	-0.032771	0.028959
C41	C	-0.492357	-0.455912	-0.471050
C42	C	0.007643	0.044088	0.028950
C43	C	-0.376823	-0.472227	-0.360781
C44	C	0.123177	0.027773	0.139219
C45	C	-0.376817	-0.549085	-0.360776
C46	C	0.123183	-0.049085	0.139224
C47	C	-0.434589	-0.579355	-0.415906
C48	C	0.065411	-0.079355	0.084094
C49	C	-0.434596	-0.425637	-0.415919
C50	C	0.065404	0.074363	0.084081
C51	C	-0.434598	-0.342304	-0.415928
C52	C	0.065402	0.157696	0.084072
C53	C	-0.434586	-0.662694	-0.415898
C54	C	0.065414	-0.162694	0.084102
C55	C	-0.668983	-0.968948	-0.448955
C56	C	-0.168983	-0.468948	0.051045
C57	C	-0.769259	-0.954823	-0.463117
C58	C	-0.269259	-0.454823	0.036883
C59	C	-1.051883	-1.103381	-0.314943
C60	C	-0.551883	-0.603381	0.185057
C61	C	-0.957669	-1.116652	-0.301634
C62	C	-0.457669	-0.616652	0.198366
C63	C	-0.910562	-1.076196	-0.342003
C64	C	-0.410562	-0.576196	0.157997
C65	C	-0.957678	-1.022467	-0.395685
C66	C	-0.457678	-0.522467	0.104315
C67	C	-1.051901	-1.009191	-0.408992
C68	C	-0.551901	-0.509191	0.091008
C69	C	-0.910580	-0.982006	-0.436052
C70	C	-0.410580	-0.482006	0.063948
C71	C	-0.957696	-0.928276	-0.489734
C72	C	-0.457696	-0.428276	0.010266
C73	C	-1.051910	-0.915003	-0.503038
C74	C	-0.551910	-0.415003	-0.003038
C75	C	-1.099017	-0.955459	-0.462668
C76	C	-0.599017	-0.455459	0.037332
C77	C	-0.816357	-0.995282	-0.422745
C78	C	-0.316357	-0.495282	0.077255
C79	C	-0.816375	-0.901091	-0.516794
C80	C	-0.316375	-0.401091	-0.016794
C81	C	-0.910589	-0.887821	-0.530103
C82	C	-0.410589	-0.387821	-0.030103
C83	C	-0.199275	-1.035448	-0.382750
C84	C	0.300725	-0.535448	0.117250
C85	C	-0.098999	-1.049649	-0.368620
C86	C	0.401001	-0.549649	0.131380
C87	C	-0.434515	-1.002168	-0.607852
C88	C	0.065485	-0.502168	-0.107852
C89	C	-0.434484	-1.002188	-0.689647
C90	C	0.065516	-0.502188	-0.189647
C91	C	-0.434602	-0.194074	-0.415932
C92	C	0.065398	0.305926	0.084068
C93	C	-0.434602	-0.275873	-0.415933
C94	C	0.065398	0.224127	0.084067
C95	C	-0.376739	-0.963336	-0.869699
C96	C	0.123261	-0.463336	-0.369699
C97	C	-0.376721	-0.963351	-0.946555
C98	C	0.123279	-0.463351	-0.446555
C99	C	-0.492121	-1.041142	-0.962818
C100	C	0.007879	-0.541142	-0.462818
C101	C	-0.492143	-1.041122	-0.885963
C102	C	0.007857	-0.541122	-0.385963
C103	C	-0.434447	-1.002221	-0.839405
C104	C	0.065553	-0.502221	-0.339405
C105	C	-0.434407	-1.002256	-0.993116
C106	C	0.065593	-0.502256	-0.493116
C107	C	-0.434388	-1.002273	-1.076447
C108	C	0.065612	-0.502273	-0.576447
C109	C	-0.434467	-1.002203	-0.756069
C110	C	0.065533	-0.502203	-0.256069
C111	C	-0.434593	-1.002130	-0.224704
C112	C	0.065407	-0.502130	0.275296
C113	C	-0.434370	-1.002290	-0.142874
C114	C	0.065630	-0.502290	0.357126
H115	H	-0.329771	-0.587016	-0.315878
H116	H	0.170229	-0.087016	0.184122
O117	O	-0.320731	-0.925608	-0.824363
O118	O	0.179269	-0.425608	-0.324363
C119	C	-0.333138	-0.933911	-0.750034
C120	C	0.166862	-0.433911	-0.250034
H121	H	-0.362686	-0.986520	-0.743702
H122	H	0.137314	-0.486520	-0.243702
H123	H	-0.265570	-0.938476	-0.711307
H124	H	0.234430	-0.438476	-0.211307
H125	H	-0.381188	-0.883453	-0.734988
H126	H	0.118812	-0.383453	-0.234988
O127	O	-0.548340	-0.562275	-0.524615
O128	O	-0.048340	-0.062275	-0.024615
C129	C	-0.497040	-0.613995	-0.564990
C130	C	0.002960	-0.113995	-0.064990
H131	H	-0.428634	-0.635181	-0.529476
H132	H	0.071366	-0.135181	-0.029476
H133	H	-0.533798	-0.662842	-0.579987
H134	H	-0.033798	-0.162842	-0.079987
H135	H	-0.487206	-0.585784	-0.618154
H136	H	0.012794	-0.085784	-0.118154
O137	O	-0.548559	-0.410763	-0.524642
O138	O	-0.048559	0.089237	-0.024642
C139	C	-0.599527	-0.453966	-0.573308
C140	C	-0.099527	0.046034	-0.073308
H141	H	-0.602602	-0.508305	-0.543588
H142	H	-0.102602	-0.008305	-0.043588
H143	H	-0.670621	-0.421702	-0.591090
H144	H	-0.170621	0.078298	-0.091090
H145	H	-0.566574	-0.466827	-0.624598
H146	H	-0.066574	0.033173	-0.124598
O147	O	-0.320705	-0.925470	-0.975904
O148	O	0.179295	-0.425470	-0.475904
C149	C	-0.340437	-0.849325	-0.959903
C150	C	0.159563	-0.349325	-0.459903
H151	H	-0.375135	-0.842880	-0.908987
H152	H	0.124865	-0.342880	-0.408987
H153	H	-0.275326	-0.825545	-0.948095
H154	H	0.224674	-0.325545	-0.448095
H155	H	-0.386805	-0.817977	-1.009687
H156	H	0.113195	-0.317977	-0.509687
O157	O	-0.320793	-0.442696	-0.307265
O158	O	0.179207	0.057304	0.192735
C159	C	-0.333168	-0.364872	-0.319102
C160	C	0.166832	0.135128	0.180898
H161	H	-0.402829	-0.344525	-0.352931
H162	H	0.097171	0.155475	0.147069
H163	H	-0.326963	-0.336519	-0.263113
H164	H	0.173037	0.163481	0.236887
H165	H	-0.279718	-0.350640	-0.350831
H166	H	0.220282	0.149360	0.149169
O167	O	-0.548233	-1.078963	-0.856650
O168	O	-0.048233	-0.578963	-0.356650
C169	C	-0.599163	-1.113293	-0.914223
C170	C	-0.099163	-0.613293	-0.414223
H171	H	-0.562196	-1.121092	-0.963803
H172	H	-0.062196	-0.621092	-0.463803
H173	H	-0.608797	-1.169905	-0.893374
H174	H	-0.108797	-0.669905	-0.393374
H175	H	-0.667676	-1.076643	-0.932045
H176	H	-0.167676	-0.576643	-0.432045
H177	H	-0.948964	-0.844073	-0.573811
H178	H	-0.448964	-0.344073	-0.073811
H179	H	-0.778003	-1.039029	-0.379037
H180	H	-0.278003	-0.539029	0.120963
H181	H	-0.778021	-0.868147	-0.549665
H182	H	-0.278021	-0.368147	-0.049665
O183	O	-0.819043	-1.089205	-0.329010
O184	O	-0.319043	-0.589205	0.170990
C185	C	-0.787558	-1.145290	-0.272962
C186	C	-0.287558	-0.645290	0.227038
H187	H	-0.841821	-1.180645	-0.270354
H188	H	-0.341821	-0.680645	0.229646
H189	H	-0.724481	-1.182093	-0.286286
H190	H	-0.224481	-0.682093	0.213714
H191	H	-0.770910	-1.118484	-0.216925
H192	H	-0.270910	-0.618484	0.283075
O193	O	-1.190540	-0.942705	-0.475599
O194	O	-0.690540	-0.442705	0.024401
C195	C	-1.221920	-1.008802	-0.499015
C196	C	-0.721920	-0.508802	0.000985
H197	H	-1.167586	-1.058849	-0.478809
H198	H	-0.667586	-0.558849	0.021191
H199	H	-1.284966	-1.013028	-0.474736
H200	H	-0.784966	-0.513028	0.025264
H201	H	-1.238585	-1.007976	-0.562433
H202	H	-0.738585	-0.507976	-0.062433
O203	O	-1.097777	-0.862897	-0.555232
O204	O	-0.597777	-0.362897	-0.055232
C205	C	-1.152177	-0.897105	-0.610497
C206	C	-0.652177	-0.397105	-0.110497
H207	H	-1.166260	-0.950907	-0.586579
H208	H	-0.666260	-0.450907	-0.086579
H209	H	-1.218452	-0.857785	-0.629694
H210	H	-0.718452	-0.357785	-0.129694
H211	H	-1.115810	-0.910285	-0.659904
H212	H	-0.615810	-0.410285	-0.159904
O213	O	-0.912043	-1.168894	-0.249493
O214	O	-0.412043	-0.668894	0.250507
C215	C	-0.973820	-1.201745	-0.216704
C216	C	-0.473820	-0.701745	0.283296
H217	H	-1.040955	-1.194813	-0.256330
H218	H	-0.540955	-0.694813	0.243670
H219	H	-0.946547	-1.263576	-0.205058
H220	H	-0.446547	-0.763576	0.294942
H221	H	-0.983913	-1.173409	-0.162210
H222	H	-0.483913	-0.673409	0.337790
O223	O	-0.548075	-1.078922	-1.008147
O224	O	-0.048075	-0.578922	-0.508147
C225	C	-0.535697	-1.070588	-1.082479
C226	C	-0.035697	-0.570588	-0.582479
H227	H	-0.466070	-1.056348	-1.083167
H228	H	0.033930	-0.556348	-0.583167
H229	H	-0.541812	-1.124854	-1.112554
H230	H	-0.041812	-0.624854	-0.612554
H231	H	-0.589201	-1.023827	-1.111823
H232	H	-0.089201	-0.523827	-0.611823
H233	H	-1.090246	-1.136310	-0.282075
H234	H	-0.590246	-0.636310	0.217925
