data_functionalizedCrystal
_audit_creation_method	'MofGen! by Chris Wilmer'
_symmetry_space_group_name_H-M	'P1'
_symmetry_Int_Tables_number	1
_symmetry_cell_setting	triclinic
loop_
_symmetry_equiv_pos_as_xyz
  x,y,z
_cell_length_a	19.077312
_cell_length_b	13.033855
_cell_length_c	19.076919
_cell_angle_alpha	94.625887
_cell_angle_beta	85.331053
_cell_angle_gamma	80.847641
loop_
_atom_site_label
_atom_site_type_symbol
_atom_site_fract_x
_atom_site_fract_y
_atom_site_fract_z
Zn1	Zn	1.106337	-0.500460	0.310718
Zn2	Zn	1.125992	-0.668457	0.177882
Zn3	Zn	0.991993	-0.487003	0.198784
Zn4	Zn	1.003420	-0.668414	0.300469
O5	O	1.056935	-0.581083	0.246963
O6	O	1.208094	-0.528395	0.288639
O7	O	1.111660	-0.638773	0.082507
O8	O	0.994153	-0.342560	0.226669
O9	O	1.222535	-0.651821	0.191045
O10	O	1.078161	-0.352446	0.308907
O11	O	1.013212	-0.505460	0.097863
O12	O	0.894358	-0.505418	0.216730
O13	O	1.013628	-0.651748	0.399976
O14	O	0.902753	-0.638700	0.291438
O15	O	1.089241	-0.528353	0.407506
O16	O	1.122740	-0.814680	0.181106
O17	O	1.032687	-0.814648	0.271170
C18	C	0.872847	-0.570595	0.255240
C19	C	0.794095	-0.566133	0.258796
C20	C	0.349991	-0.534054	0.284311
C21	C	0.423989	-0.538265	0.280965
C22	C	0.468490	-0.604518	0.228417
C23	C	0.438990	-0.666572	0.179216
C24	C	0.364994	-0.662366	0.182566
C25	C	0.690600	-0.623981	0.212945
C26	C	0.764600	-0.628180	0.209598
C27	C	0.749594	-0.499874	0.311348
C28	C	0.675597	-0.495670	0.314690
C29	C	0.646104	-0.557728	0.265492
N30	N	0.544127	-0.608822	0.224993
N31	N	0.570468	-0.553429	0.268919
C32	C	1.081105	-0.852581	0.222772
C33	C	1.091509	-0.968734	0.212444
C34	C	1.051560	-1.020533	0.252365
C35	C	1.062312	-1.140584	0.241691
C36	C	1.241742	-0.591614	0.238654
C37	C	1.320496	-0.596101	0.235113
C38	C	1.050517	-0.591547	0.429901
C39	C	1.047781	-0.596006	0.507859
C40	C	1.032690	-0.308527	0.271263
C41	C	1.022358	-0.192380	0.281618
C42	C	1.063363	-0.570588	0.064741
C43	C	1.066209	-0.565842	-0.013196
C44	C	1.085862	-0.533858	0.548405
C45	C	1.083283	-0.538043	0.621655
C46	C	1.042627	-0.604382	0.654357
C47	C	1.004542	-0.666532	0.613806
C48	C	1.007117	-0.662341	0.540558
C49	C	1.030699	-0.623801	0.873005
C50	C	1.028129	-0.627990	0.946258
C51	C	1.106869	-0.499499	0.954103
C52	C	1.109444	-0.495318	0.880852
C53	C	1.071356	-0.557464	0.840308
N54	N	1.039992	-0.608664	0.729230
N55	N	1.073988	-0.553176	0.765437
H56	H	0.639368	-0.441723	0.357483
H57	H	0.800832	-0.682135	0.166805
H58	H	1.009395	-0.976007	0.294443
Br59	Br	0.789624	-0.415662	0.378115
Br60	Br	0.650581	-0.708170	0.146157
H61	H	0.976100	-0.712937	0.507547
Br62	Br	0.464015	-0.454064	0.347742
H63	H	1.118971	-0.479841	0.521784
H64	H	0.475229	-0.720521	0.136433
H65	H	0.340981	-0.712894	0.142505
H66	H	1.104475	-1.185108	0.199607
H67	H	1.142553	-0.441301	0.854232
H68	H	0.980190	-1.147856	0.323698
Br69	Br	1.161779	-1.042940	0.142300
Br70	Br	1.135003	-0.453747	0.676674
H71	H	1.137877	-0.448902	0.987122
H72	H	0.995020	-0.682013	0.972881
Br73	Br	0.979007	-0.708140	0.817990
H74	H	0.313762	-0.480097	0.327098
Br75	Br	0.949360	-0.756558	0.658187
