data_functionalizedCrystal
_audit_creation_method	'MofGen! by Chris Wilmer'
_symmetry_space_group_name_H-M	'P1'
_symmetry_Int_Tables_number	1
_symmetry_cell_setting	triclinic
loop_
_symmetry_equiv_pos_as_xyz
  x,y,z
_cell_length_a	15.944499
_cell_length_b	15.944493
_cell_length_c	11.892277
_cell_angle_alpha	85.632487
_cell_angle_beta	85.644225
_cell_angle_gamma	83.476327
loop_
_atom_site_label
_atom_site_type_symbol
_atom_site_fract_x
_atom_site_fract_y
_atom_site_fract_z
O1	O	1.109737	0.103332	0.094054
O2	O	0.865179	0.116734	0.094039
O3	O	0.994162	-0.012247	0.094057
O4	O	0.980755	0.232313	0.094037
O5	O	1.003728	-0.002663	-0.093946
O6	O	0.874746	0.126318	-0.093963
O7	O	1.119304	0.112915	-0.093948
Zn8	Zn	0.998544	0.121138	-0.123805
Zn9	Zn	0.985939	0.108511	0.123896
O10	O	0.990322	0.241897	-0.093965
C11	C	0.838668	0.120978	0.000037
C12	C	0.745421	0.119333	0.000032
C13	C	0.453868	0.194267	0.000043
C14	C	0.510189	0.150588	0.092743
C15	C	0.409784	0.113355	0.000059
C16	C	0.519606	0.160015	-0.092613
C17	C	0.574693	0.116297	0.000044
C18	C	0.464872	0.069651	0.092835
C19	C	0.474288	0.079093	-0.092604
C20	C	0.530589	0.035355	0.000119
C21	C	0.314784	0.111663	0.000068
C22	C	0.669691	0.117982	0.000042
C23	C	0.998397	-0.038750	0.000060
C24	C	0.996753	-0.131999	0.000074
C25	C	1.072676	-0.367772	0.000057
C26	C	1.027017	-0.423058	0.092749
C27	C	0.993710	-0.302719	0.000060
C28	C	1.036431	-0.413585	-0.092606
C29	C	0.990776	-0.467627	0.000042
C30	C	0.948068	-0.356780	0.092829
C31	C	0.957498	-0.347300	-0.092610
C32	C	0.911780	-0.402554	0.000105
C33	C	0.995402	-0.207720	0.000072
C34	C	0.989077	-0.562624	0.000038
C35	C	1.145815	0.108672	0.000057
C36	C	1.239062	0.110316	0.000069
C37	C	0.986087	0.268400	0.000033
C38	C	0.987730	0.361648	0.000027
N39	N	1.007152	0.129755	-0.292855
C40	C	0.917347	0.039880	-0.529550
C41	C	0.923384	0.045909	-0.647889
C42	C	1.025257	0.147844	-0.647873
C43	C	1.019220	0.141816	-0.529534
C44	C	0.965265	0.087831	-0.470377
C45	C	0.959233	0.081799	-0.352036
C46	C	1.061101	0.183738	-0.352022
C47	C	1.067138	0.189767	-0.470361
N48	N	0.977338	0.099888	0.292946
H49	H	0.563778	-0.031856	0.000174
C50	C	0.480047	0.085760	-0.295378
C51	C	0.452513	0.038326	-0.198394
H52	H	0.466596	0.060599	-0.360693
H53	H	0.539524	0.086991	-0.296514
H54	H	0.452680	0.141859	-0.294706
H55	H	0.479885	-0.017771	-0.199061
H56	H	0.393024	0.037086	-0.197257
C57	C	0.451019	0.055247	0.295646
C58	C	0.432533	0.018094	0.198757
H59	H	0.431057	0.023417	0.361036
H60	H	0.424067	0.111530	0.295370
H61	H	0.510473	0.055977	0.296249
H62	H	0.373077	0.017370	0.198150
H63	H	0.459482	-0.038204	0.199033
C64	C	1.173500	-0.303837	0.096345
C65	C	1.164476	-0.346648	0.000182
H66	H	1.230166	-0.290780	0.096419
H67	H	1.160316	-0.338710	0.162212
H68	H	1.136144	-0.252978	0.095608
H69	H	1.201828	-0.397511	0.000923
H70	H	1.177670	-0.311774	-0.065703
C71	C	0.773798	-0.394607	0.097295
C72	C	0.819885	-0.423428	0.000163
H73	H	0.717069	-0.407501	0.097336
H74	H	0.774336	-0.335137	0.097912
H75	H	0.798727	-0.421649	0.162513
H76	H	0.794959	-0.396381	-0.065055
H77	H	0.819343	-0.482909	-0.000464
H78	H	1.069182	0.191799	-0.696059
H79	H	0.543662	0.198246	-0.170980
H80	H	1.056378	-0.456004	0.171119
H81	H	1.111065	0.233721	-0.518542
C82	C	0.899761	-0.235663	0.197827
C83	C	0.897705	-0.323276	0.198750
H84	H	0.868678	-0.214982	0.263224
H85	H	0.875248	-0.209038	0.132098
H86	H	0.956754	-0.223554	0.197553
H87	H	0.840712	-0.335385	0.199015
H88	H	0.922215	-0.349909	0.264497
C89	C	0.964329	-0.331461	-0.295385
C90	C	0.917903	-0.302792	-0.198408
H91	H	0.939892	-0.303977	-0.360704
H92	H	0.963442	-0.390852	-0.296522
H93	H	1.021136	-0.318980	-0.294703
H94	H	0.861097	-0.315278	-0.199085
H95	H	0.918782	-0.243387	-0.197270
H96	H	1.073784	-0.438528	-0.170965
C97	C	0.859134	-0.018344	-0.363943
C98	C	0.899922	0.022465	-0.287008
H99	H	0.822513	-0.054970	-0.323797
H100	H	0.900146	-0.050400	-0.410081
H101	H	0.827071	0.022663	-0.410117
H102	H	0.931991	-0.018543	-0.240839
H103	H	0.858905	0.054522	-0.240850
C104	C	0.892285	-0.092964	-0.684321
C105	C	0.870716	-0.006802	-0.712937
H106	H	0.859770	-0.125505	-0.724486
H107	H	0.880964	-0.104274	-0.605386
H108	H	0.950747	-0.107551	-0.703703
H109	H	0.812254	0.007786	-0.693548
H110	H	0.882030	0.004512	-0.791890
C111	C	0.426604	0.322116	0.097346
C112	C	0.408836	0.284901	0.000156
H113	H	0.398797	0.378066	0.097421
H114	H	0.485923	0.323772	0.098009
H115	H	0.407128	0.289755	0.162524
H116	H	0.428318	0.317260	-0.065022
H117	H	0.349505	0.283251	-0.000517
C118	C	0.619795	0.191749	0.197836
C119	C	0.531983	0.191356	0.198531
H120	H	0.633261	0.216906	0.263146
H121	H	0.639389	0.223315	0.132018
H122	H	0.646286	0.135288	0.197891
H123	H	0.505492	0.247818	0.198467
H124	H	0.512380	0.159791	0.264366
C125	C	1.059545	0.289953	-0.218965
C126	C	1.113773	0.236460	-0.286984
H127	H	1.092064	0.322502	-0.178821
H128	H	1.026562	0.256941	-0.166794
H129	H	1.023240	0.326704	-0.265156
H130	H	1.150074	0.199704	-0.240791
H131	H	1.146771	0.269475	-0.339161
H132	H	0.873419	-0.004080	-0.481384
