data_functionalizedCrystal
_audit_creation_method	'MofGen! by Chris Wilmer'
_symmetry_space_group_name_H-M	'P1'
_symmetry_Int_Tables_number	1
_symmetry_cell_setting	triclinic
loop_
_symmetry_equiv_pos_as_xyz
  x,y,z
_cell_length_a	15.995350
_cell_length_b	19.288865
_cell_length_c	18.366186
_cell_angle_alpha	90.011479
_cell_angle_beta	90.005399
_cell_angle_gamma	83.314311
loop_
_atom_site_label
_atom_site_type_symbol
_atom_site_fract_x
_atom_site_fract_y
_atom_site_fract_z
O1	O	-1.110653	-0.089532	-0.060497
O2	O	-0.610653	0.410468	0.439503
O3	O	-0.866836	-0.100587	-0.060513
O4	O	-0.366836	0.399413	0.439487
O5	O	-0.995790	0.006052	-0.060490
O6	O	-0.495790	0.506052	0.439510
O7	O	-0.981700	-0.196172	-0.060519
O8	O	-0.481700	0.303828	0.439481
O9	O	-0.995768	0.006058	0.060610
O10	O	-0.495768	0.506058	0.560610
O11	O	-0.866814	-0.100582	0.060587
O12	O	-0.366814	0.399418	0.560587
O13	O	-1.110631	-0.089526	0.060603
O14	O	-0.610631	0.410474	0.560603
Zn15	Zn	-0.988719	-0.095053	0.079822
Zn16	Zn	-0.488719	0.404947	0.579822
Zn17	Zn	-0.988748	-0.095060	-0.079732
Zn18	Zn	-0.488748	0.404940	0.420268
O19	O	-0.981678	-0.196166	0.060580
O20	O	-0.481678	0.303834	0.560580
C21	C	-0.835632	-0.100128	0.000035
C22	C	-0.335632	0.399872	0.500035
C23	C	-0.742687	-0.098757	0.000030
C24	C	-0.242687	0.401243	0.500030
C25	C	-0.995326	0.031933	0.000062
C26	C	-0.495326	0.531933	0.500062
C27	C	-0.993965	0.109040	0.000068
C28	C	-0.493965	0.609040	0.500068
C29	C	-1.141835	-0.089986	0.000053
C30	C	-0.641835	0.410014	0.500053
C31	C	-1.234781	-0.091356	0.000054
C32	C	-0.734781	0.408644	0.500054
C33	C	-0.404958	-0.093836	0.000046
C34	C	0.095042	0.406164	0.500046
C35	C	-0.452679	-0.017889	0.000327
C36	C	0.047321	0.482111	0.500327
C37	C	-0.549364	-0.019260	0.000049
C38	C	-0.049364	0.480740	0.500049
C39	C	-0.572509	-0.096277	0.000038
C40	C	-0.072509	0.403723	0.500038
C41	C	-0.531294	-0.133740	-0.069118
C42	C	-0.031294	0.366260	0.430882
C43	C	-0.434665	-0.131832	-0.069171
C44	C	0.065335	0.368168	0.430829
C45	C	-0.434295	-0.133395	0.068542
C46	C	0.065705	0.366605	0.568542
C47	C	-0.531241	-0.133377	0.069451
C48	C	-0.031241	0.366623	0.569451
C49	C	-0.667202	-0.097661	0.000032
C50	C	-0.167202	0.402339	0.500032
C51	C	-0.310266	-0.092455	0.000047
C52	C	0.189734	0.407545	0.500047
C53	C	-0.982142	-0.222047	0.000027
C54	C	-0.482142	0.277953	0.500027
C55	C	-0.983503	-0.299154	0.000015
C56	C	-0.483503	0.200846	0.500015
N57	N	-0.988706	-0.095048	0.188713
N58	N	-0.488706	0.404952	0.688713
C59	C	-1.069629	0.153540	0.000077
C60	C	-0.569629	0.653540	0.500077
C61	C	-1.068350	0.225990	0.000065
C62	C	-0.568350	0.725990	0.500065
C63	C	-0.991403	0.253937	0.000060
C64	C	-0.491403	0.753937	0.500060
C65	C	-0.915729	0.209428	0.000047
C66	C	-0.415729	0.709428	0.500047
C67	C	-0.917010	0.136979	0.000052
C68	C	-0.417010	0.636979	0.500052
C69	C	-0.930906	0.362384	0.042474
C70	C	-0.430906	0.862384	0.542474
C71	C	-0.929628	0.434831	0.042475
C72	C	-0.429628	0.934831	0.542475
C73	C	-0.987450	0.477393	0.000043
C74	C	-0.487450	0.977393	0.500043
C75	C	-1.046563	0.447500	-0.042379
C76	C	-0.546563	0.947500	0.457621
C77	C	-1.047843	0.375051	-0.042374
C78	C	-0.547843	0.875051	0.457626
C79	C	-0.990006	0.332495	0.000055
C80	C	-0.490006	0.832495	0.500055
C81	C	-1.061733	0.600453	0.000038
C82	C	-0.561733	1.100453	0.500038
C83	C	-1.060451	0.672904	0.000022
C84	C	-0.560451	1.172904	0.500022
C85	C	-0.907827	0.656340	0.000011
C86	C	-0.407827	1.156340	0.500011
C87	C	-0.909111	0.583890	0.000020
C88	C	-0.409111	1.083890	0.500020
C89	C	-0.986066	0.555951	0.000037
C90	C	-0.486066	1.055951	0.500037
N91	N	-0.988768	-0.095060	-0.188623
N92	N	-0.488768	0.404940	0.311377
C93	C	-1.045825	-0.047851	0.226824
C94	C	-0.545825	0.452149	0.726824
C95	C	-1.045830	-0.047848	0.303051
C96	C	-0.545830	0.452152	0.803051
C97	C	-0.988724	-0.095054	0.341166
C98	C	-0.488724	0.404946	0.841166
C99	C	-0.931594	-0.142255	0.303046
C100	C	-0.431594	0.357745	0.803046
C101	C	-0.931585	-0.142252	0.226820
C102	C	-0.431585	0.357748	0.726820
C103	C	-0.977516	-0.158313	0.461916
C104	C	-0.477516	0.341687	0.961916
C105	C	-0.977531	-0.158317	0.538141
C106	C	-0.477531	0.341683	1.038141
C107	C	-0.988748	-0.095063	0.576273
C108	C	-0.488748	0.404937	1.076273
C109	C	-0.999968	-0.031802	0.538171
C110	C	-0.499968	0.468198	1.038171
C111	C	-0.999959	-0.031800	0.461945
C112	C	-0.499959	0.468200	0.961945
C113	C	-0.988728	-0.095062	0.423821
C114	C	-0.488728	0.404938	0.923821
C115	C	-1.045876	-0.047859	0.697039
C116	C	-0.545876	0.452141	1.197039
C117	C	-1.045876	-0.047855	0.773268
C118	C	-0.545876	0.452145	1.273268
C119	C	-0.931644	-0.142267	0.773261
C120	C	-0.431644	0.357733	1.273261
C121	C	-0.931640	-0.142265	0.697033
C122	C	-0.431640	0.357735	1.197033
C123	C	-0.988761	-0.095062	0.658927
C124	C	-0.488761	0.404938	1.158927
H125	H	-0.434262	0.012471	0.049922
H126	H	0.065738	0.512471	0.549922
H127	H	-0.558651	-0.106030	0.120612
H128	H	-0.058651	0.393970	0.620612
C129	C	-0.831087	0.240163	0.000038
C130	C	-0.331087	0.740163	0.500038
H131	H	-0.786206	0.203281	0.000028
H132	H	-0.286206	0.703281	0.500028
H133	H	-0.827403	0.268091	0.042266
H134	H	-0.327403	0.768091	0.542266
H135	H	-0.827429	0.268071	-0.042200
H136	H	-0.327429	0.768071	0.457800
C137	C	-0.551706	-0.209250	0.075086
C138	C	-0.051706	0.290750	0.575086
H139	H	-0.585833	-0.219341	0.034998
H140	H	-0.085833	0.280659	0.534998
H141	H	-0.581027	-0.215126	0.119221
H142	H	-0.081027	0.284874	0.619221
H143	H	-0.500876	-0.240095	0.074498
H144	H	-0.000876	0.259905	0.574498
H145	H	-0.559775	-0.107724	-0.120578
H146	H	-0.059775	0.392276	0.379422
H147	H	-0.885071	-0.180686	0.195789
H148	H	-0.385071	0.319314	0.695789
H149	H	-0.845176	0.679094	0.000003
H150	H	-0.345176	1.179094	0.500003
C151	C	-0.864609	0.467708	0.089136
C152	C	-0.364609	0.967708	0.589136
H153	H	-0.830346	0.431984	0.114397
H154	H	-0.330346	0.931984	0.614397
H155	H	-0.893046	0.499118	0.123255
H156	H	-0.393046	0.999118	0.623255
H157	H	-0.830308	0.492295	0.058538
H158	H	-0.330308	0.992295	0.558538
H159	H	-1.122068	0.709136	0.000025
H160	H	-0.622068	1.209136	0.500025
C161	C	-0.406678	-0.099852	0.139357
C162	C	0.093322	0.400148	0.639357
H163	H	-0.425004	-0.124505	0.180025
H164	H	0.074996	0.375495	0.680025
H165	H	-0.430919	-0.052538	0.141487
H166	H	0.069081	0.447462	0.641487
H167	H	-0.347064	-0.101827	0.140250
H168	H	0.152936	0.398173	0.640250
C169	C	-0.833776	0.088027	0.000049
C170	C	-0.333776	0.588027	0.500049
H171	H	-0.787763	0.115045	0.000047
H172	H	-0.287763	0.615045	0.500047
H173	H	-0.831110	0.059407	-0.042177
H174	H	-0.331110	0.559407	0.457823
H175	H	-0.831098	0.059435	0.042289
H176	H	-0.331098	0.559435	0.542289
H177	H	-1.092334	-0.009414	0.195799
H178	H	-0.592334	0.490586	0.695799
C179	C	-0.825882	0.534935	0.000015
C180	C	-0.325882	1.034935	0.500015
H181	H	-0.837665	0.487785	0.000012
H182	H	-0.337665	0.987785	0.500012
H183	H	-0.794306	0.543414	0.042240
H184	H	-0.294306	1.043414	0.542240
H185	H	-0.794331	0.543398	-0.042225
H186	H	-0.294331	1.043398	0.457775
C187	C	-0.867302	0.315569	0.089152
C188	C	-0.367302	0.815569	0.589152
H189	H	-0.876525	0.268140	0.083075
H190	H	-0.376525	0.768140	0.583075
H191	H	-0.874444	0.328253	0.138937
H192	H	-0.374444	0.828253	0.638937
H193	H	-0.811694	0.321426	0.074228
H194	H	-0.311694	0.821426	0.574228
H195	H	-1.092345	-0.009413	0.334087
H196	H	-0.592345	0.490587	0.834087
C197	C	-1.012287	0.037779	0.420032
C198	C	-0.512287	0.537779	0.920032
H199	H	-1.019084	0.075452	0.453652
H200	H	-0.519084	0.575452	0.953652
H201	H	-1.060970	0.039121	0.390206
H202	H	-0.560970	0.539121	0.890206
H203	H	-0.964396	0.041695	0.390389
H204	H	-0.464396	0.541695	0.890389
C205	C	-0.965191	-0.227897	0.580050
C206	C	-0.465191	0.272103	1.080050
H207	H	-0.966813	-0.218841	0.630909
H208	H	-0.466813	0.281159	1.130909
H209	H	-0.912287	-0.252636	0.567562
H210	H	-0.412287	0.247364	1.067562
H211	H	-1.008874	-0.255138	0.567541
H212	H	-0.508874	0.244862	1.067541
C213	C	-1.012301	0.037781	0.580105
C214	C	-0.512301	0.537781	1.080105
H215	H	-1.010689	0.028722	0.630960
H216	H	-0.510689	0.528722	1.130960
H217	H	-1.065199	0.062527	0.567614
H218	H	-0.565199	0.562527	1.067614
H219	H	-0.968609	0.065015	0.567623
H220	H	-0.468609	0.565015	1.067623
C221	C	-0.410080	-0.094928	-0.138992
C222	C	0.089920	0.405072	0.361008
H223	H	-0.459125	-0.081237	-0.167055
H224	H	0.040875	0.418763	0.332945
H225	H	-0.371993	-0.125960	-0.166643
H226	H	0.128007	0.374040	0.333357
H227	H	-0.383968	-0.054805	-0.126349
H228	H	0.116032	0.445195	0.373651
H229	H	-0.402207	-0.187591	-0.072317
H230	H	0.097793	0.312409	0.427683
H231	H	-1.092385	-0.009420	0.666011
H232	H	-0.592385	0.490580	1.166011
C233	C	-1.108705	0.004066	0.815193
C234	C	-0.608705	0.504066	1.315193
H235	H	-1.100524	-0.002688	0.866049
H236	H	-0.600524	0.497312	1.366049
H237	H	-1.164553	-0.003505	0.802693
H238	H	-0.664553	0.496495	1.302693
H239	H	-1.099786	0.050431	0.802711
H240	H	-0.599786	0.550431	1.302711
C241	C	-0.587911	0.020520	0.067017
C242	C	-0.087911	0.520520	0.567017
H243	H	-0.544486	0.037669	0.094637
H244	H	-0.044486	0.537669	0.594637
H245	H	-0.616081	-0.010091	0.096267
H246	H	-0.116081	0.489909	0.596267
H247	H	-0.626938	0.058537	0.051461
H248	H	-0.126938	0.558537	0.551461
H249	H	-0.885144	-0.180700	0.804293
H250	H	-0.385144	0.319300	1.304293
C251	C	-0.426375	0.022935	-0.066285
C252	C	0.073625	0.522935	0.433715
H253	H	-0.386439	-0.006104	-0.094268
H254	H	0.113561	0.493896	0.405732
H255	H	-0.401980	0.062918	-0.050376
H256	H	0.098020	0.562918	0.449624
H257	H	-0.474480	0.037166	-0.095315
H258	H	0.025520	0.537166	0.404685
C259	C	-0.868818	-0.194190	0.655110
C260	C	-0.368818	0.305810	1.155110
H261	H	-0.834812	-0.222308	0.688725
H262	H	-0.334812	0.277692	1.188725
H263	H	-0.834057	-0.169188	0.625384
H264	H	-0.334057	0.330812	1.125384
H265	H	-0.898829	-0.223119	0.625364
H266	H	-0.398829	0.276881	1.125364
H267	H	-0.402323	-0.189390	0.069002
H268	H	0.097677	0.310610	0.569002
H269	H	-0.577342	0.010382	-0.049603
H270	H	-0.077342	0.510382	0.450397
H271	H	-0.885097	-0.180689	0.334083
H272	H	-0.385097	0.319311	0.834083
H273	H	-0.968367	-0.209825	0.430876
H274	H	-0.468367	0.290175	0.930876
H275	H	-0.545205	-0.190323	-0.071697
H276	H	-0.045205	0.309677	0.428303
C277	C	-1.154275	0.122810	0.000083
C278	C	-0.654275	0.622810	0.500083
H279	H	-1.199155	0.159694	0.000079
H280	H	-0.699155	0.659694	0.500079
H281	H	-1.157944	0.094898	0.042312
H282	H	-0.657944	0.594898	0.542312
H283	H	-1.157953	0.094887	-0.042154
H284	H	-0.657953	0.594887	0.457846
H285	H	-1.129967	0.262229	0.000069
H286	H	-0.629967	0.762229	0.500069
H287	H	-1.095974	0.350715	-0.076917
H288	H	-0.595974	0.850715	0.423083
H289	H	-1.093646	0.482153	-0.076931
H290	H	-0.593646	0.982153	0.423069
H291	H	-1.124394	0.577704	0.000049
H292	H	-0.624394	1.077704	0.500049
