data_functionalizedCrystal
_audit_creation_method	'MofGen! by Chris Wilmer'
_symmetry_space_group_name_H-M	'P1'
_symmetry_Int_Tables_number	1
_symmetry_cell_setting	triclinic
loop_
_symmetry_equiv_pos_as_xyz
  x,y,z
_cell_length_a	14.853569
_cell_length_b	17.038272
_cell_length_c	13.930277
_cell_angle_alpha	89.995405
_cell_angle_beta	89.994756
_cell_angle_gamma	87.373560
loop_
_atom_site_label
_atom_site_type_symbol
_atom_site_fract_x
_atom_site_fract_y
_atom_site_fract_z
O1	O	1.204050	0.102092	-0.079788
O2	O	0.942506	0.114251	-0.079799
O3	O	1.071724	-0.005646	-0.079786
O4	O	1.074833	0.221989	-0.079801
O5	O	1.071704	-0.005648	0.079876
O6	O	0.942487	0.114249	0.079862
O7	O	1.204031	0.102089	0.079874
Zn8	Zn	1.073256	0.108169	0.105218
Zn9	Zn	1.073281	0.108172	-0.105143
O10	O	1.074813	0.221986	0.079861
C11	C	0.908866	0.113699	0.000030
C12	C	0.808658	0.112047	0.000026
C13	C	0.766864	0.040051	0.000027
C14	C	0.756293	0.182492	0.000029
C15	C	0.662143	0.180943	0.000030
C16	C	0.620348	0.108946	0.000031
C17	C	0.672704	0.038499	0.000031
C18	C	0.609779	0.251388	0.000039
C19	C	0.515623	0.249842	0.000042
C20	C	0.473826	0.177844	0.000036
C21	C	0.526189	0.107394	0.000035
C22	C	0.484394	0.035398	0.000037
C23	C	0.536755	-0.035053	0.000029
C24	C	0.630908	-0.033498	0.000026
C25	C	0.379673	0.176290	0.000039
C26	C	0.390235	0.033846	0.000041
C27	C	1.068886	-0.034779	0.000045
C28	C	1.060450	-0.121583	0.000044
C29	C	1.137903	-0.171595	0.000048
C30	C	1.129972	-0.253156	0.000039
C31	C	1.044586	-0.284704	0.000032
C32	C	0.967127	-0.234685	0.000025
C33	C	0.975059	-0.153126	0.000027
C34	C	1.016560	-0.530498	0.000018
C35	C	1.008633	-0.612064	0.000018
C36	C	1.171479	-0.630530	0.000030
C37	C	1.179404	-0.548968	0.000039
C38	C	1.101945	-0.498957	0.000026
C39	C	1.036476	-0.368072	0.000025
C40	C	1.110056	-0.415590	0.000026
C41	C	1.237671	0.102642	0.000043
C42	C	1.337879	0.104293	0.000040
C43	C	1.077650	0.251120	0.000028
C44	C	1.086087	0.337924	0.000022
N45	N	1.073245	0.108166	0.248784
N46	N	1.073299	0.108169	-0.248709
C47	C	1.016060	0.161242	0.701048
C48	C	1.130527	0.055096	0.701029
C49	C	1.130516	0.055094	0.600533
C50	C	1.073277	0.108167	0.550290
C51	C	1.016049	0.161242	0.600542
C52	C	1.187750	0.002025	0.550273
C53	C	1.187742	0.002021	0.449771
C54	C	1.130498	0.055091	0.399526
C55	C	1.073266	0.108168	0.449785
C56	C	1.016027	0.161241	0.399542
C57	C	0.958791	0.214315	0.449799
C58	C	0.958804	0.214312	0.550298
C59	C	1.130484	0.055093	0.299027
C60	C	1.016017	0.161241	0.299037
H61	H	0.356213	-0.024783	0.000037
H62	H	0.939098	-0.637746	0.000028
H63	H	0.953487	-0.489788	0.000008
H64	H	0.912190	0.257530	0.408879
H65	H	1.234357	-0.041182	0.591184
H66	H	0.912205	0.257524	0.591223
H67	H	1.177134	0.011889	0.741940
H68	H	0.790328	0.241108	0.000034
H69	H	0.897603	-0.260377	0.000013
H70	H	0.809500	-0.017308	0.000017
H71	H	1.234541	-0.671257	0.000039
H72	H	1.234346	-0.041195	0.408858
H73	H	0.969456	0.204452	0.741969
H74	H	1.248935	-0.523289	0.000045
H75	H	0.911988	-0.112406	0.000023
H76	H	1.207434	-0.145916	0.000060
H77	H	1.177089	0.011884	0.258113
H78	H	1.179577	-0.389901	0.000011
H79	H	0.673548	-0.090855	0.000021
H80	H	0.502713	-0.093673	0.000024
H81	H	0.643816	0.310004	0.000044
H82	H	0.966954	-0.393767	0.000022
H83	H	0.472998	0.307207	0.000046
H84	H	0.337045	0.233650	0.000054
H85	H	1.193042	-0.293873	0.000045
H86	H	0.969402	0.204457	0.258135
