data_functionalizedCrystal
_audit_creation_method	'MofGen! by Chris Wilmer'
_symmetry_space_group_name_H-M	'P1'
_symmetry_Int_Tables_number	1
_symmetry_cell_setting	triclinic
loop_
_symmetry_equiv_pos_as_xyz
  x,y,z
_cell_length_a	12.811438
_cell_length_b	11.892095
_cell_length_c	17.699083
_cell_angle_alpha	93.880337
_cell_angle_beta	96.333659
_cell_angle_gamma	88.501043
loop_
_atom_site_label
_atom_site_type_symbol
_atom_site_fract_x
_atom_site_fract_y
_atom_site_fract_z
O1	O	1.388937	-0.048402	-0.104436
O2	O	1.085553	-0.017293	-0.113924
O3	O	1.245816	-0.033736	0.000925
O4	O	1.228674	-0.031959	-0.219285
O5	O	1.232453	-0.220373	-0.008636
O6	O	1.072191	-0.203930	-0.123485
O7	O	1.375575	-0.235038	-0.113997
Zn8	Zn	1.221761	-0.249116	-0.120259
Zn9	Zn	1.239366	-0.003215	-0.107662
O10	O	1.215312	-0.218595	-0.228846
C11	C	1.040054	-0.106631	-0.117879
C12	C	0.924391	-0.094772	-0.115410
N13	N	1.209753	-0.416939	-0.128856
C14	C	0.768648	0.023667	-0.106719
C15	C	0.877325	0.012533	-0.109038
C16	C	0.862772	-0.190950	-0.119461
C17	C	0.754095	-0.179816	-0.117143
C18	C	0.707037	-0.072504	-0.110772
C19	C	0.598357	-0.061372	-0.108459
C20	C	0.583806	-0.264854	-0.118877
C21	C	0.692483	-0.275987	-0.121196
C22	C	1.334937	-0.666430	-0.039196
C23	C	1.326552	-0.783912	-0.045211
C24	C	1.184592	-0.769385	-0.146895
C25	C	1.192978	-0.651903	-0.140881
C26	C	1.268154	-0.600431	-0.087030
C27	C	1.276544	-0.482947	-0.081020
C28	C	1.134580	-0.468422	-0.182700
C29	C	1.126194	-0.585904	-0.188715
C30	C	1.421073	-0.145698	-0.110042
C31	C	1.536737	-0.157550	-0.112511
C32	C	1.238520	-0.126992	0.024347
C33	C	1.236677	-0.126803	0.108384
N34	N	1.251382	0.164606	-0.099059
C35	C	1.222608	-0.125337	-0.252268
C36	C	1.224451	-0.125518	-0.336304
C37	C	1.330748	-0.136451	0.156085
C38	C	1.329011	-0.136262	0.235046
C39	C	1.233202	-0.126435	0.266303
C40	C	1.139124	-0.116783	0.218596
C41	C	1.140862	-0.116963	0.139637
C42	C	1.132110	-0.116055	0.537028
C43	C	1.130378	-0.115879	0.615993
C44	C	1.320259	-0.135354	0.632437
C45	C	1.321998	-0.135534	0.553478
C46	C	1.227921	-0.125877	0.505778
C47	C	1.229805	-0.126079	0.420160
C48	C	1.231315	-0.126241	0.351919
H49	H	0.730331	0.111044	-0.101540
H50	H	1.055506	-0.108192	0.498199
H51	H	0.560043	0.026007	-0.103276
C52	C	1.417628	-0.609807	0.020032
H53	H	1.456200	-0.665941	0.047662
H54	H	1.464198	-0.568402	-0.005231
H55	H	1.383494	-0.560156	0.054219
C56	C	1.024986	-0.105059	0.650378
H57	H	1.037428	-0.106347	0.704234
H58	H	0.990924	-0.036000	0.637394
H59	H	0.981595	-0.166176	0.630728
H60	H	1.123378	-0.811309	-0.190734
H61	H	1.064984	-0.627826	-0.232557
C62	C	1.423747	-0.145965	0.684906
H63	H	1.481054	-0.151856	0.654980
H64	H	1.431683	-0.081215	0.719381
H65	H	1.422354	-0.211391	0.712719
H66	H	1.061114	-0.108774	0.244052
H67	H	1.064260	-0.109107	0.100798
H68	H	1.080203	-0.414671	-0.221652
C69	C	1.436141	-0.147261	0.121709
H70	H	1.491917	-0.152969	0.161431
H71	H	1.436110	-0.212820	0.087918
H72	H	1.445425	-0.082642	0.094582
H73	H	1.405614	-0.144121	0.273882
C74	C	1.427388	-0.146339	0.519099
H75	H	1.483167	-0.152047	0.558819
H76	H	1.427357	-0.211896	0.485306
H77	H	1.436667	-0.081719	0.491973
H78	H	0.927486	0.090846	-0.105737
H79	H	0.901107	-0.278318	-0.124639
H80	H	1.337759	-0.441040	-0.037174
C81	C	0.744251	-0.394023	-0.128185
H82	H	0.691991	-0.449704	-0.130257
H83	H	0.778301	-0.401784	-0.173340
H84	H	0.794389	-0.403408	-0.085252
C85	C	0.516036	-0.370650	-0.123339
H86	H	0.559629	-0.436151	-0.127471
H87	H	0.481387	-0.371371	-0.078614
H88	H	0.465288	-0.369702	-0.166700
C89	C	1.400016	-0.856508	0.007404
H90	H	1.445991	-0.809023	0.040332
H91	H	1.359346	-0.898516	0.036893
H92	H	1.440053	-0.906763	-0.022555
