data_functionalizedCrystal
_audit_creation_method	'MofGen! by Chris Wilmer'
_symmetry_space_group_name_H-M	'P1'
_symmetry_Int_Tables_number	1
_symmetry_cell_setting	triclinic
loop_
_symmetry_equiv_pos_as_xyz
  x,y,z
_cell_length_a	10.723022
_cell_length_b	10.489716
_cell_length_c	9.198806
_cell_angle_alpha	89.999130
_cell_angle_beta	90.003383
_cell_angle_gamma	84.498181
loop_
_atom_site_label
_atom_site_type_symbol
_atom_site_fract_x
_atom_site_fract_y
_atom_site_fract_z
O1	O	1.657282	0.178899	0.120869
O2	O	1.294139	0.196026	0.120872
O3	O	1.483990	0.001857	0.120876
O4	O	1.467432	0.373067	0.120866
O5	O	1.483976	0.001856	-0.120909
O6	O	1.294125	0.196025	-0.120913
O7	O	1.657268	0.178898	-0.120916
Cu8	Cu	1.475695	0.187461	-0.142991
Cu9	Cu	1.475712	0.187462	0.142948
O10	O	1.467417	0.373067	-0.120920
C11	C	1.247631	0.194779	-0.000019
C12	C	1.109075	0.191052	-0.000017
C13	C	0.890952	0.295842	-0.000017
C14	C	1.034157	0.299698	-0.000020
C15	C	1.482739	-0.045675	-0.000012
C16	C	1.479016	-0.187303	0.000001
C17	C	1.595439	-0.285052	-0.000013
C18	C	1.533926	-0.362373	0.119196
C19	C	1.533885	-0.362338	-0.119185
C20	C	1.417552	-0.262759	0.119309
C21	C	1.417528	-0.262718	-0.119179
C22	C	1.355929	-0.339989	0.000059
C23	C	1.703776	0.180144	-0.000021
C24	C	1.842332	0.183872	-0.000014
C25	C	1.468669	0.420598	-0.000028
C26	C	1.472391	0.562227	-0.000032
N27	N	1.475692	0.187460	-0.344105
C28	C	1.402904	0.113491	-0.416334
C29	C	1.402921	0.113487	-0.583746
N30	N	1.475724	0.187453	0.344061
H31	H	1.067221	0.095179	0.000024
H32	H	0.906725	0.090864	-0.000003
H33	H	1.696707	-0.260441	0.000107
H34	H	1.538048	0.250780	-0.593833
H35	H	1.076019	0.395566	-0.000031
H36	H	1.583078	-0.405899	0.219980
H37	H	1.340571	0.050172	-0.354231
H38	H	1.254585	-0.364355	0.000125
H39	H	1.368438	-0.219423	0.220203
H40	H	1.340607	0.050156	-0.645861
H41	H	1.368418	-0.219168	-0.219967
H42	H	1.583050	-0.405842	-0.219965
H43	H	1.538015	0.250791	-0.406208
H44	H	0.826558	0.388850	-0.000011
