data_functionalizedCrystal
_audit_creation_method	'MofGen! by Chris Wilmer'
_symmetry_space_group_name_H-M	'P1'
_symmetry_Int_Tables_number	1
_symmetry_cell_setting	triclinic
loop_
_symmetry_equiv_pos_as_xyz
  x,y,z
_cell_length_a	12.759401
_cell_length_b	12.759399
_cell_length_c	12.759393
_cell_angle_alpha	89.968645
_cell_angle_beta	89.979434
_cell_angle_gamma	90.021845
loop_
_atom_site_label
_atom_site_type_symbol
_atom_site_fract_x
_atom_site_fract_y
_atom_site_fract_z
Zn1	Zn	-1.606201	0.418266	0.594003
Zn2	Zn	-1.272868	0.751599	0.927337
Zn3	Zn	-0.939534	1.084932	1.260670
Zn4	Zn	-1.606065	0.593981	0.418321
Zn5	Zn	-1.272731	0.927315	0.751654
Zn6	Zn	-0.939398	1.260648	1.084987
Zn7	Zn	-1.430500	0.418311	0.418340
Zn8	Zn	-1.097166	0.751645	0.751673
Zn9	Zn	-0.763833	1.084978	1.085006
Zn10	Zn	-1.430464	0.593898	0.593959
Zn11	Zn	-1.097131	0.927231	0.927293
Zn12	Zn	-0.763798	1.260564	1.260626
O13	O	-1.518308	0.506114	0.506156
O14	O	-1.184974	0.839447	0.839489
O15	O	-0.851641	1.172781	1.172822
O16	O	-1.753204	0.441591	0.570709
O17	O	-1.419871	0.774924	0.904043
O18	O	-1.086537	1.108257	1.237376
O19	O	-1.582734	0.570732	0.271302
O20	O	-1.249400	0.904066	0.604636
O21	O	-0.916067	1.237399	0.937969
O22	O	-1.453879	0.271284	0.441668
O23	O	-1.120546	0.604618	0.775002
O24	O	-0.787212	0.937951	1.108335
O25	O	-1.753104	0.570688	0.441636
O26	O	-1.419771	0.904021	0.774969
O27	O	-1.086437	1.237355	1.108303
O28	O	-1.582966	0.271251	0.570728
O29	O	-1.249633	0.604584	0.904061
O30	O	-0.916299	0.937917	1.237394
O31	O	-1.453747	0.441669	0.271316
O32	O	-1.120413	0.775002	0.604649
O33	O	-0.787080	1.108335	0.937983
O34	O	-1.283474	0.441587	0.441625
O35	O	-0.950141	0.774921	0.774959
O36	O	-0.616807	1.108254	1.108292
O37	O	-1.453818	0.570546	0.740986
O38	O	-1.120485	0.903879	1.074320
O39	O	-0.787152	1.237212	1.407653
O40	O	-1.283448	0.570590	0.570652
O41	O	-0.950115	0.903923	0.903986
O42	O	-0.616781	1.237257	1.237319
O43	O	-1.582931	0.441510	0.741019
O44	O	-1.249598	0.774843	1.074352
O45	O	-0.916265	1.108176	1.407685
O46	O	-1.582699	0.740991	0.441593
O47	O	-1.249366	1.074325	0.774927
O48	O	-0.916032	1.407658	1.108260
O49	O	-1.453686	0.740930	0.570634
O50	O	-1.120353	1.074263	0.903967
O51	O	-0.787020	1.407597	1.237301
C52	C	-1.245340	0.506085	0.506137
C53	C	-0.912007	0.839419	0.839470
C54	C	-0.578673	1.172752	1.172803
C55	C	-1.128564	0.506098	0.506153
C56	C	-0.795230	0.839432	0.839487
C57	C	-0.461897	1.172765	1.172820
C58	C	-1.518203	0.779081	0.506130
C59	C	-1.184869	1.112415	0.839463
C60	C	-0.851536	1.445748	1.172796
C61	C	-1.518254	0.895858	0.506154
C62	C	-1.184920	1.229191	0.839487
C63	C	-0.851587	1.562525	1.172820
C64	C	-1.073754	0.438997	0.573465
C65	C	-0.740421	0.772330	0.906798
C66	C	-0.407088	1.105663	1.240131
C67	C	-0.964030	0.439003	0.573470
C68	C	-0.630697	0.772337	0.906803
C69	C	-0.297364	1.105670	1.240137
C70	C	-0.963934	0.573222	0.438850
C71	C	-0.630601	0.906555	0.772183
C72	C	-0.297268	1.239889	1.105516
C73	C	-1.073656	0.573210	0.438840
C74	C	-0.740323	0.906543	0.772173
C75	C	-0.406990	1.239876	1.105507
C76	C	-1.518386	0.506013	0.780189
C77	C	-1.185053	0.839347	1.113523
C78	C	-0.851719	1.172680	1.446856
C79	C	-1.518420	0.505970	0.896966
C80	C	-1.185086	0.839304	1.230299
C81	C	-0.851753	1.172637	1.563633
C82	C	-0.792341	0.506134	0.506172
C83	C	-0.459007	0.839467	0.839505
C84	C	-0.125674	1.172801	1.172838
C85	C	-0.909117	0.506117	0.506168
C86	C	-0.575784	0.839451	0.839502
C87	C	-0.242451	1.172784	1.172835
C88	C	-1.585431	0.950613	0.573411
C89	C	-1.252098	1.283946	0.906744
C90	C	-0.918765	1.617279	1.240077
C91	C	-1.585473	1.060337	0.573436
C92	C	-1.252140	1.393670	0.906769
C93	C	-0.918807	1.727003	1.240103
C94	C	-1.451157	1.060542	0.438939
C95	C	-1.117823	1.393875	0.772272
C96	C	-0.784490	1.727209	1.105606
C97	C	-1.451110	0.950820	0.438919
C98	C	-1.117777	1.284153	0.772253
C99	C	-0.784444	1.617486	1.105586
C100	C	-1.518402	1.232081	0.506198
C101	C	-1.185069	1.565414	0.839531
C102	C	-0.851735	1.898747	1.172865
C103	C	-1.518342	1.115304	0.506199
C104	C	-1.185008	1.448637	0.839532
C105	C	-0.851675	1.781971	1.172865
C106	C	-1.518290	0.506139	0.233188
C107	C	-1.184956	0.839472	0.566522
C108	C	-0.851623	1.172805	0.899855
C109	C	-1.518460	0.505886	0.116412
C110	C	-1.185126	0.839219	0.449746
C111	C	-0.851793	1.172552	0.783079
C112	C	-1.585654	0.438770	0.951847
C113	C	-1.252320	0.772104	1.285180
C114	C	-0.918987	1.105437	1.618513
C115	C	-1.585672	0.438725	1.061571
C116	C	-1.252338	0.772058	1.394904
C117	C	-0.919005	1.105392	1.728237
C118	C	-1.451218	0.573089	1.061524
C119	C	-1.117885	0.906422	1.394857
C120	C	-0.784551	1.239755	1.728191
C121	C	-1.451196	0.573128	0.951802
C122	C	-1.117863	0.906461	1.285135
C123	C	-0.784529	1.239794	1.618469
H124	H	-1.118457	0.384347	0.628272
H125	H	-0.785123	0.717680	0.961606
H126	H	-0.451790	1.051014	1.294939
H127	H	-1.396438	0.627849	0.907117
H128	H	-1.063105	0.961182	1.240450
H129	H	-0.729772	1.294516	1.573784
Br130	Br	-1.676552	0.876025	0.664658
Br131	Br	-1.343219	1.209358	0.997992
Br132	Br	-1.009885	1.542691	1.331325
H133	H	-1.640389	0.384083	0.907202
H134	H	-1.307056	0.717417	1.240536
H135	H	-0.973722	1.050750	1.573869
Br136	Br	-1.676930	0.347529	1.136048
Br137	Br	-1.343596	0.680862	1.469381
Br138	Br	-1.010263	1.014196	1.802715
H139	H	-0.919409	0.384361	0.628280
H140	H	-0.586076	0.717694	0.961613
H141	H	-0.252743	1.051027	1.294946
Br142	Br	-0.889411	0.664299	0.347502
Br143	Br	-0.556078	0.997632	0.680835
Br144	Br	-0.222744	1.330965	1.014169
Br145	Br	-1.359994	0.664230	1.135951
Br146	Br	-1.026661	0.997563	1.469284
Br147	Br	-0.693327	1.330897	1.802617
Br148	Br	-1.676638	1.134643	0.664726
Br149	Br	-1.343305	1.467976	0.998059
Br150	Br	-1.009972	1.801310	1.331393
H151	H	-1.396493	1.105305	0.384197
H152	H	-1.063159	1.438638	0.717531
H153	H	-0.729826	1.771972	1.050864
Br154	Br	-1.148047	0.664268	0.347468
Br155	Br	-0.814714	0.997602	0.680801
Br156	Br	-0.481381	1.330935	1.014134
H157	H	-1.396401	0.906236	0.384151
H158	H	-1.063068	1.239569	0.717484
H159	H	-0.729734	1.572902	1.050817
