data_functionalizedCrystal
_audit_creation_method	'MofGen! by Chris Wilmer'
_symmetry_space_group_name_H-M	'P1'
_symmetry_Int_Tables_number	1
_symmetry_cell_setting	triclinic
loop_
_symmetry_equiv_pos_as_xyz
  x,y,z
_cell_length_a	12.827893
_cell_length_b	18.050590
_cell_length_c	12.827885
_cell_angle_alpha	89.965317
_cell_angle_beta	89.980538
_cell_angle_gamma	90.018713
loop_
_atom_site_label
_atom_site_type_symbol
_atom_site_fract_x
_atom_site_fract_y
_atom_site_fract_z
Zn1	Zn	1.597649	-0.295620	-0.590813
Zn2	Zn	1.597532	-0.419828	-0.416058
Zn3	Zn	1.422889	-0.295657	-0.416087
Zn4	Zn	1.422866	-0.419773	-0.590758
O5	O	1.510234	-0.357720	-0.503429
O6	O	1.743869	-0.312104	-0.567643
O7	O	1.574327	-0.403395	-0.269826
O8	O	1.446130	-0.191727	-0.439299
O9	O	1.743784	-0.403359	-0.439251
O10	O	1.574525	-0.191701	-0.567670
O11	O	1.446018	-0.312167	-0.269847
O12	O	1.276650	-0.312114	-0.439246
O13	O	1.446090	-0.403266	-0.737002
O14	O	1.276633	-0.403301	-0.567577
O15	O	1.574502	-0.312051	-0.737042
O16	O	1.574304	-0.523745	-0.439198
O17	O	1.445977	-0.523705	-0.567549
C18	C	1.238724	-0.357706	-0.503409
C19	C	1.122571	-0.357718	-0.503426
C20	C	1.070828	-0.312642	-0.567057
C21	C	0.950778	-0.312654	-0.567075
C22	C	1.510154	-0.550672	-0.503388
C23	C	1.510215	-0.633218	-0.503405
C24	C	1.580144	-0.832663	-0.433705
C25	C	1.605674	-0.881988	-0.529080
C26	C	1.510274	-0.784348	-0.503446
C27	C	1.484851	-0.882104	-0.408114
C28	C	1.510334	-0.930333	-0.503478
C29	C	1.535853	-0.832586	-0.598872
C30	C	1.414985	-0.832698	-0.477842
C31	C	1.440479	-0.882000	-0.573282
C32	C	1.510243	-0.700250	-0.503427
C33	C	1.510365	-1.014429	-0.503509
C34	C	1.782804	-0.357734	-0.503450
C35	C	1.898957	-0.357740	-0.503459
C36	C	1.510306	-0.357648	-0.776000
C37	C	1.510337	-0.357618	-0.892153
C38	C	1.510343	-0.164014	-0.503494
C39	C	1.510390	-0.081468	-0.503521
C40	C	1.446865	-0.312467	-0.943948
C41	C	1.446896	-0.312434	-1.063998
C42	C	1.510222	-0.357737	-0.231919
C43	C	1.510394	-0.357558	-0.115767
H44	H	1.115406	-0.274040	-0.621516
H45	H	1.334399	-0.811028	-0.456136
Cl46	Cl	1.569251	-0.799152	-0.723398
H47	H	1.381418	-0.903527	-0.632343
Cl48	Cl	0.882083	-0.253073	-0.651194
Cl49	Cl	1.363000	-0.252745	-1.132762
H50	H	1.077993	-0.396316	-0.448960
H51	H	1.639251	-0.810999	-0.374787
H52	H	0.943448	-0.396337	-0.448985
H53	H	1.564698	-0.396250	-0.936686
H54	H	1.463323	-0.903855	-0.327480
H55	H	1.686284	-0.903642	-0.550757
Cl56	Cl	1.362944	-0.252808	-0.875201
Cl57	Cl	1.594304	-0.417241	-1.047009
