data_functionalizedCrystal
_audit_creation_method	'MofGen! by Chris Wilmer'
_symmetry_space_group_name_H-M	'P1'
_symmetry_Int_Tables_number	1
_symmetry_cell_setting	triclinic
loop_
_symmetry_equiv_pos_as_xyz
  x,y,z
_cell_length_a	21.395362
_cell_length_b	25.639239
_cell_length_c	21.395356
_cell_angle_alpha	89.973562
_cell_angle_beta	89.964230
_cell_angle_gamma	90.054564
loop_
_atom_site_label
_atom_site_type_symbol
_atom_site_fract_x
_atom_site_fract_y
_atom_site_fract_z
Zn1	Zn	0.957774	-0.207953	-0.354582
Zn2	Zn	1.291108	0.125380	-0.021249
Zn3	Zn	1.624441	0.458714	0.312085
Zn4	Zn	0.957677	-0.295384	-0.249803
Zn5	Zn	1.291010	0.037950	0.083530
Zn6	Zn	1.624344	0.371283	0.416864
Zn7	Zn	0.853004	-0.207988	-0.249783
Zn8	Zn	1.186337	0.125345	0.083550
Zn9	Zn	1.519671	0.458678	0.416883
Zn10	Zn	0.852944	-0.295384	-0.354508
Zn11	Zn	1.186277	0.037950	-0.021174
Zn12	Zn	1.519610	0.371283	0.312159
O13	O	0.905350	-0.251677	-0.302169
O14	O	1.238683	0.081656	0.031164
O15	O	1.572016	0.414989	0.364498
O16	O	1.045439	-0.219536	-0.340722
O17	O	1.378773	0.113797	-0.007389
O18	O	1.712106	0.447130	0.325944
O19	O	0.943777	-0.283805	-0.162122
O20	O	1.277110	0.049528	0.171211
O21	O	1.610443	0.382861	0.504544
O22	O	0.866968	-0.134818	-0.263708
O23	O	1.200301	0.198515	0.069625
O24	O	1.533635	0.531848	0.402959
O25	O	1.045368	-0.283771	-0.263741
O26	O	1.378701	0.049562	0.069592
O27	O	1.712035	0.382896	0.402925
O28	O	0.943942	-0.134793	-0.340703
O29	O	1.277276	0.198541	-0.007370
O30	O	1.610609	0.531874	0.325964
O31	O	0.866874	-0.219596	-0.162108
O32	O	1.200207	0.113737	0.171225
O33	O	1.533540	0.447070	0.504559
O34	O	0.765318	-0.219596	-0.263636
O35	O	1.098652	0.113737	0.069697
O36	O	1.431985	0.447071	0.403031
O37	O	0.866865	-0.283771	-0.442195
O38	O	1.200199	0.049562	-0.108862
O39	O	1.533532	0.382896	0.224471
O40	O	0.765274	-0.283805	-0.340576
O41	O	1.098607	0.049528	-0.007243
O42	O	1.431941	0.382862	0.326090
O43	O	0.943884	-0.219536	-0.442250
O44	O	1.277217	0.113797	-0.108917
O45	O	1.610550	0.447130	0.224417
O46	O	0.943718	-0.368549	-0.263669
O47	O	1.277051	-0.035216	0.069664
O48	O	1.610385	0.298118	0.402997
O49	O	0.866771	-0.368549	-0.340596
O50	O	1.200104	-0.035216	-0.007262
O51	O	1.533438	0.298118	0.326071
C52	C	0.742562	-0.251705	-0.302096
C53	C	1.075895	0.081628	0.031237
C54	C	1.409229	0.414962	0.364570
C55	C	0.672921	-0.251729	-0.302080
C56	C	1.006254	0.081604	0.031253
C57	C	1.339588	0.414937	0.364587
C58	C	0.640201	-0.285207	-0.342083
C59	C	0.973534	0.048126	-0.008750
C60	C	1.306868	0.381459	0.324584
C61	C	0.574766	-0.285194	-0.342111
C62	C	0.908099	0.048139	-0.008778
C63	C	1.241432	0.381472	0.324556
C64	C	0.542053	-0.251709	-0.302125
C65	C	0.875386	0.081624	0.031209
C66	C	1.208719	0.414958	0.364542
C67	C	0.574780	-0.218225	-0.262119
C68	C	0.908114	0.115109	0.071214
C69	C	1.241447	0.448442	0.404548
C70	C	0.640214	-0.218235	-0.262097
C71	C	0.973548	0.115099	0.071237
C72	C	1.306881	0.448432	0.404570
C73	C	0.438337	-0.247503	-0.245720
C74	C	0.771670	0.085830	0.087614
C75	C	1.105003	0.419164	0.420947
C76	C	0.372904	-0.247497	-0.245741
C77	C	0.706237	0.085837	0.087593
C78	C	1.039570	0.419170	0.420926
C79	C	0.340232	-0.251675	-0.302194
C80	C	0.673565	0.081658	0.031139
C81	C	1.006899	0.414992	0.364473
C82	C	0.373001	-0.255871	-0.358627
C83	C	0.706334	0.077462	-0.025294
C84	C	1.039668	0.410796	0.308039
C85	C	0.438435	-0.255881	-0.358605
C86	C	0.771769	0.077452	-0.025272
C87	C	1.105102	0.410786	0.308062
C88	C	0.471100	-0.251694	-0.302145
C89	C	0.804434	0.081639	0.031189
C90	C	1.137767	0.414972	0.364522
C91	C	0.236560	-0.285141	-0.342231
C92	C	0.569893	0.048193	-0.008897
C93	C	0.903226	0.381526	0.324436
C94	C	0.171123	-0.285124	-0.342259
C95	C	0.504456	0.048209	-0.008926
C96	C	0.837790	0.381542	0.324407
C97	C	0.171139	-0.218157	-0.262262
C98	C	0.504472	0.115176	0.071071
C99	C	0.837806	0.448509	0.404405
C100	C	0.236574	-0.218171	-0.262238
C101	C	0.569908	0.115162	0.071095
C102	C	0.903241	0.448496	0.404428
C103	C	0.269281	-0.251666	-0.302222
C104	C	0.602614	0.081668	0.031111
C105	C	0.935947	0.415001	0.364445
C106	C	0.905244	-0.387520	-0.302140
C107	C	1.238578	-0.054186	0.031193
C108	C	1.571911	0.279147	0.364526
C109	C	0.905257	-0.445634	-0.302149
C110	C	1.238590	-0.112300	0.031184
C111	C	1.571923	0.221033	0.364518
C112	C	0.945521	-0.805984	-0.262182
C113	C	1.278854	-0.472651	0.071151
C114	C	1.612187	-0.139318	0.404485
C115	C	0.945545	-0.860589	-0.262190
C116	C	1.278878	-0.527255	0.071143
C117	C	1.612212	-0.193922	0.404476
O118	O	0.979670	-0.888815	-0.228177
O119	O	1.313003	-0.555481	0.105156
O120	O	1.646336	-0.222148	0.438489
N121	N	0.905460	-0.887916	-0.302211
N122	N	1.238793	-0.554583	0.031123
N123	N	1.572127	-0.221250	0.364456
C124	C	0.865352	-0.860637	-0.342230
C125	C	1.198686	-0.527303	-0.008896
C126	C	1.532019	-0.193970	0.324437
O127	O	0.831260	-0.888895	-0.376271
O128	O	1.164593	-0.555562	-0.042938
O129	O	1.497926	-0.222228	0.290396
C130	C	0.865332	-0.806033	-0.342224
C131	C	1.198665	-0.472700	-0.008891
C132	C	1.531998	-0.139367	0.324443
C133	C	0.905415	-0.778709	-0.302196
C134	C	1.238748	-0.445375	0.031137
C135	C	1.572082	-0.112042	0.364470
C136	C	0.985601	-0.778659	-0.222158
C137	C	1.318934	-0.445326	0.111175
C138	C	1.652268	-0.111993	0.444508
C139	C	0.985576	-0.724059	-0.222149
C140	C	1.318909	-0.390726	0.111184
C141	C	1.652243	-0.057392	0.444517
C142	C	0.945470	-0.696783	-0.262164
C143	C	1.278804	-0.363450	0.071170
C144	C	1.612137	-0.030117	0.404503
C145	C	0.905390	-0.724108	-0.302187
C146	C	1.238723	-0.390775	0.031146
C147	C	1.572056	-0.057441	0.364479
C148	C	0.825228	-0.778755	-0.382246
C149	C	1.158561	-0.445422	-0.048912
C150	C	1.491895	-0.112088	0.284421
C151	C	0.825211	-0.724148	-0.382237
C152	C	1.158544	-0.390815	-0.048903
C153	C	1.491878	-0.057481	0.284430
C154	C	0.865294	-0.696823	-0.342209
C155	C	1.198628	-0.363490	-0.008876
C156	C	1.531961	-0.030156	0.324457
C157	C	0.865259	-0.642232	-0.342193
C158	C	1.198592	-0.308899	-0.008860
C159	C	1.531925	0.024435	0.324474
N160	N	0.905344	-0.614904	-0.302173
N161	N	1.238677	-0.281571	0.031161
N162	N	1.572011	0.051762	0.364494
C163	C	0.945450	-0.642180	-0.262158
C164	C	1.278783	-0.308847	0.071175
C165	C	1.612116	0.024487	0.404509
C166	C	0.865400	-0.975307	-0.342239
C167	C	1.198733	-0.641974	-0.008906
C168	C	1.532066	-0.308641	0.324427
C169	C	0.865417	-1.029910	-0.342242
C170	C	1.198750	-0.696576	-0.008909
C171	C	1.532083	-0.363243	0.324424
C172	C	0.945610	-1.029858	-0.262204
C173	C	1.278944	-0.696524	0.071130
C174	C	1.612277	-0.363191	0.404463
C175	C	0.945590	-0.975254	-0.262198
C176	C	1.278923	-0.641921	0.071135
C177	C	1.612256	-0.308588	0.404469
C178	C	0.905485	-0.947980	-0.302219
C179	C	1.238818	-0.614646	0.031114
C180	C	1.572151	-0.281313	0.364448
C181	C	0.945393	-0.527515	-0.262142
C182	C	1.278726	-0.194182	0.071192
C183	C	1.612060	0.139152	0.404525
C184	C	0.945362	-0.472909	-0.262134
C185	C	1.278696	-0.139576	0.071199
C186	C	1.612029	0.193757	0.404532
C187	C	0.865172	-0.472966	-0.342175
C188	C	1.198505	-0.139633	-0.008842
C189	C	1.531838	0.193700	0.324492
C190	C	0.865200	-0.527567	-0.342180
C191	C	1.198533	-0.194233	-0.008847
C192	C	1.531866	0.139100	0.324486
C193	C	0.905315	-0.554840	-0.302162
C194	C	1.238649	-0.221506	0.031172
C195	C	1.571982	0.111827	0.364505
O196	O	0.831153	-0.613971	-0.376190
O197	O	1.164487	-0.280638	-0.042857
O198	O	1.497820	0.052696	0.290476
O199	O	0.979542	-0.613915	-0.228128
O200	O	1.312876	-0.280582	0.105205
O201	O	1.646209	0.052752	0.438539
C202	C	1.068773	-0.251650	-0.302242
C203	C	1.402106	0.081684	0.031091
C204	C	1.735440	0.415017	0.364424
C205	C	1.138414	-0.251638	-0.302274
C206	C	1.471748	0.081695	0.031060
C207	C	1.805081	0.415029	0.364393
C208	C	0.905379	-0.251650	-0.465592
C209	C	1.238712	0.081684	-0.132259
C210	C	1.572045	0.415017	0.201074
C211	C	0.905391	-0.251638	-0.535234
C212	C	1.238724	0.081695	-0.201900
C213	C	1.572057	0.415029	0.131433
C214	C	0.905473	-0.115304	-0.302212
C215	C	1.238806	0.218029	0.031122
C216	C	1.572139	0.551363	0.364455
C217	C	0.905525	-0.057190	-0.302230
C218	C	1.238858	0.276143	0.031104
C219	C	1.572192	0.609477	0.364437
C220	C	0.945504	-0.284962	-1.037038
C221	C	1.278838	0.048371	-0.703705
C222	C	1.612171	0.381705	-0.370371
C223	C	0.945493	-0.284979	-0.971603
C224	C	1.278827	0.048355	-0.638269
C225	C	1.612160	0.381688	-0.304936
C226	C	0.905451	-0.251555	-0.938872
C227	C	1.238784	0.081778	-0.605539
C228	C	1.572117	0.415112	-0.272206
C229	C	0.865405	-0.218122	-0.971583
C230	C	1.198738	0.115211	-0.638249
C231	C	1.532071	0.448545	-0.304916
C232	C	0.865413	-0.218110	-1.037017
C233	C	1.198746	0.115223	-0.703683
C234	C	1.532079	0.448557	-0.370350
C235	C	0.900533	-0.204469	-0.835216
C236	C	1.233866	0.128864	-0.501883
C237	C	1.567200	0.462198	-0.168549
C238	C	0.900529	-0.204480	-0.769783
C239	C	1.233863	0.128853	-0.436450
C240	C	1.567196	0.462187	-0.103116
C241	C	0.905422	-0.251592	-0.737051
C242	C	1.238756	0.081741	-0.403718
C243	C	1.572089	0.415075	-0.070385
C244	C	0.910332	-0.298695	-0.769761
C245	C	1.243665	0.034639	-0.436427
C246	C	1.576999	0.367972	-0.103094
C247	C	0.910340	-0.298683	-0.835195
C248	C	1.243673	0.034651	-0.501861
C249	C	1.577007	0.367984	-0.168528
C250	C	0.905437	-0.251565	-0.867920
C251	C	1.238771	0.081769	-0.534586
C252	C	1.572104	0.415102	-0.201253
C253	C	0.945450	-0.285044	-0.633396
C254	C	1.278784	0.048290	-0.300063
C255	C	1.612117	0.381623	0.033270
C256	C	0.945435	-0.285061	-0.567960
C257	C	1.278768	0.048272	-0.234626
C258	C	1.612101	0.381605	0.098707
C259	C	0.865350	-0.218200	-0.567941
C260	C	1.198683	0.115133	-0.234607
C261	C	1.532016	0.448467	0.098726
C262	C	0.865362	-0.218187	-0.633376
C263	C	1.198695	0.115146	-0.300043
C264	C	1.532029	0.448480	0.033291
C265	C	0.905416	-0.251608	-0.666100
C266	C	1.238749	0.081725	-0.332767
C267	C	1.572082	0.415058	0.000567
C268	C	0.905357	-0.251667	-0.139381
C269	C	1.238691	0.081667	0.193952
C270	C	1.572024	0.415000	0.527285
C271	C	0.905466	-0.251531	-0.069741
C272	C	1.238800	0.081802	0.263593
C273	C	1.572133	0.415135	0.596926
H274	H	0.263215	-0.190912	-0.229661
H275	H	0.596548	0.142421	0.103673
H276	H	0.929882	0.475754	0.437006
H277	H	0.978063	-0.312259	-0.660041
H278	H	1.311396	0.021075	-0.326708
H279	H	1.644729	0.354408	0.006625
N280	N	0.988616	-0.321124	-0.532684
N281	N	1.321949	0.012209	-0.199351
N282	N	1.655283	0.345543	0.133983
H283	H	1.013990	-0.342292	-0.563346
H284	H	1.347323	-0.008959	-0.230013
H285	H	1.680656	0.324374	0.103321
H286	H	1.017623	-0.299840	-0.505553
H287	H	1.350956	0.033493	-0.172219
H288	H	1.684289	0.366827	0.161114
H289	H	0.548120	-0.312456	-0.374689
H290	H	0.881453	0.020877	-0.041355
H291	H	1.214787	0.354211	0.291978
H292	H	0.144484	-0.312385	-0.374839
H293	H	0.477817	0.020948	-0.041505
H294	H	0.811150	0.354282	0.291828
H295	H	0.465113	-0.259296	-0.404555
H296	H	0.798447	0.074038	-0.071222
H297	H	1.131780	0.407371	0.262111
H298	H	1.018263	-0.800861	-0.189573
H299	H	1.351597	-0.467528	0.143760
H300	H	1.684930	-0.134195	0.477093
N301	N	0.988868	-1.059286	-0.219046
N302	N	1.322201	-0.725952	0.114287
N303	N	1.655534	-0.392619	0.447621
H304	H	1.017893	-1.081896	-0.244553
H305	H	1.351226	-0.748563	0.088780
H306	H	1.684559	-0.415230	0.422114
H307	H	1.014219	-1.033662	-0.193695
H308	H	1.347552	-0.700328	0.139638
H309	H	1.680886	-0.366995	0.472971
N310	N	0.915571	-0.349526	-0.734488
N311	N	1.248904	-0.016192	-0.401154
N312	N	1.582237	0.317141	-0.067821
H313	H	0.956097	-0.367324	-0.745884
H314	H	1.289430	-0.033990	-0.412551
H315	H	1.622764	0.299343	-0.079218
H316	H	0.914779	-0.342366	-0.688080
H317	H	1.248113	-0.009033	-0.354746
H318	H	1.581446	0.324301	-0.021413
H319	H	0.978229	-0.953010	-0.229605
H320	H	1.311562	-0.619676	0.103729
H321	H	1.644896	-0.286343	0.437062
N322	N	0.988683	-0.321032	-0.936318
N323	N	1.322016	0.012301	-0.602985
N324	N	1.655350	0.345634	-0.269651
H325	H	0.963200	-0.345273	-0.909148
H326	H	1.296533	-0.011940	-0.575815
H327	H	1.629866	0.321394	-0.242482
H328	H	1.014049	-0.342168	-0.967016
H329	H	1.347382	-0.008834	-0.633683
H330	H	1.680716	0.324499	-0.300349
N331	N	0.822187	-0.182120	-0.668651
N332	N	1.155521	0.151213	-0.335317
N333	N	1.488854	0.484547	-0.001984
H334	H	0.828269	-0.187183	-0.715069
H335	H	1.161602	0.146150	-0.381736
H336	H	1.494935	0.479483	-0.048402
H337	H	0.777430	-0.190267	-0.657190
H338	H	1.110764	0.143067	-0.323857
H339	H	1.444097	0.476400	0.009477
N340	N	0.915632	-0.349481	-0.870475
N341	N	1.248965	-0.016148	-0.537142
N342	N	1.582299	0.317186	-0.203809
H343	H	0.918731	-0.379330	-0.839816
H344	H	1.252064	-0.045997	-0.506482
H345	H	1.585398	0.287336	-0.173149
H346	H	0.877455	-0.354336	-0.897603
H347	H	1.210788	-0.021002	-0.564270
H348	H	1.544122	0.312331	-0.230936
H349	H	0.832736	-0.953103	-0.374827
H350	H	1.166070	-0.619770	-0.041494
H351	H	1.499403	-0.286436	0.291839
H352	H	0.144505	-0.190891	-0.229707
H353	H	0.477838	0.142443	0.103626
H354	H	0.811171	0.475776	0.436959
N355	N	0.822164	-0.182142	-0.532654
N356	N	1.155497	0.151191	-0.199321
N357	N	1.488830	0.484525	0.134013
H358	H	0.777391	-0.190266	-0.544017
H359	H	1.110724	0.143067	-0.210684
H360	H	1.444057	0.476401	0.122649
H361	H	0.828283	-0.187234	-0.486249
H362	H	1.161616	0.146099	-0.152916
H363	H	1.494950	0.479433	0.180418
H364	H	0.792585	-0.800993	-0.414837
H365	H	1.125918	-0.467660	-0.081504
H366	H	1.459252	-0.134327	0.251829
H367	H	0.792554	-0.701943	-0.414829
H368	H	1.125887	-0.368610	-0.081495
H369	H	1.459220	-0.035277	0.251838
H370	H	0.832771	-1.052153	-0.374831
H371	H	1.166104	-0.718820	-0.041497
H372	H	1.499438	-0.385486	0.291836
N373	N	0.895249	-0.153679	-0.734506
N374	N	1.228582	0.179654	-0.401173
N375	N	1.561915	0.512987	-0.067840
H376	H	0.892146	-0.123832	-0.765169
H377	H	1.225479	0.209501	-0.431836
H378	H	1.558812	0.542834	-0.098503
H379	H	0.856643	-0.154441	-0.707332
H380	H	1.189976	0.178893	-0.373999
H381	H	1.523310	0.512226	-0.040665
H382	H	0.346228	-0.244083	-0.199789
H383	H	0.679561	0.089250	0.133544
H384	H	1.012895	0.422583	0.466878
H385	H	0.832563	-0.549816	-0.374776
H386	H	1.165896	-0.216482	-0.041442
H387	H	1.499229	0.116851	0.291891
H388	H	0.832516	-0.450750	-0.374753
H389	H	1.165849	-0.117416	-0.041419
H390	H	1.499183	0.215917	0.291914
H391	H	0.548141	-0.190960	-0.229563
H392	H	0.881474	0.142374	0.103770
H393	H	1.214808	0.475707	0.437104
H394	H	0.263191	-0.312411	-0.374791
H395	H	0.596524	0.020922	-0.041457
H396	H	0.929857	0.354255	0.291876
N397	N	0.988700	-0.321010	-1.072333
N398	N	1.322033	0.012323	-0.739000
N399	N	1.655366	0.345656	-0.405666
H400	H	1.014061	-0.342192	-1.041683
H401	H	1.347394	-0.008859	-0.708350
H402	H	1.680728	0.324474	-0.375016
H403	H	0.963177	-0.345207	-1.099460
H404	H	1.296510	-0.011874	-0.766127
H405	H	1.629844	0.321459	-0.432794
N406	N	0.895251	-0.153653	-0.870517
N407	N	1.228585	0.179681	-0.537184
N408	N	1.561918	0.513014	-0.203850
H409	H	0.892145	-0.123816	-0.839869
H410	H	1.225479	0.209517	-0.506535
H411	H	1.558812	0.542850	-0.173202
H412	H	0.933434	-0.148786	-0.897687
H413	H	1.266767	0.184548	-0.564353
H414	H	1.600101	0.517881	-0.231020
N415	N	0.822223	-0.182067	-0.936283
N416	N	1.155557	0.151267	-0.602949
N417	N	1.488890	0.484600	-0.269616
H418	H	0.796860	-0.160885	-0.966932
H419	H	1.130194	0.172449	-0.633598
H420	H	1.463527	0.505782	-0.300265
H421	H	0.793207	-0.203357	-0.909109
H422	H	1.126540	0.129976	-0.575776
H423	H	1.459873	0.463309	-0.242443
N424	N	0.675477	-0.321331	-0.385206
N425	N	1.008811	0.012002	-0.051873
N426	N	1.342144	0.345335	0.281460
H427	H	0.644816	-0.342538	-0.410553
H428	H	0.978149	-0.009205	-0.077219
H429	H	1.311483	0.324129	0.256114
H430	H	0.702683	-0.300088	-0.414241
H431	H	1.036016	0.033246	-0.080907
H432	H	1.369350	0.366579	0.252426
N433	N	0.337773	-0.260381	-0.419522
N434	N	0.671107	0.072952	-0.086189
N435	N	1.004440	0.406286	0.247145
H436	H	0.291349	-0.259736	-0.410976
H437	H	0.624682	0.073598	-0.077643
H438	H	0.958016	0.406931	0.255691
H439	H	0.349282	-0.230180	-0.447595
H440	H	0.682616	0.103154	-0.114262
H441	H	1.015949	0.436487	0.219072
N442	N	0.822226	-0.182051	-1.072291
N443	N	1.155559	0.151282	-0.738958
N444	N	1.488892	0.484616	-0.405624
H445	H	0.831984	-0.144694	-1.060920
H446	H	1.165317	0.188640	-0.727587
H447	H	1.498651	0.521973	-0.394253
H448	H	0.828328	-0.187160	-1.118698
H449	H	1.161662	0.146174	-0.785364
H450	H	1.494995	0.479507	-0.452031
N451	N	0.473573	-0.242993	-0.184827
N452	N	0.806906	0.090340	0.148506
N453	N	1.140239	0.423673	0.481839
H454	H	0.442886	-0.240339	-0.149082
H455	H	0.776220	0.092995	0.184252
H456	H	1.109553	0.426328	0.517585
H457	H	0.500672	-0.274848	-0.178932
H458	H	0.834006	0.058486	0.154401
H459	H	1.167339	0.391819	0.487734
H460	H	0.666855	-0.190971	-0.229521
H461	H	1.000188	0.142362	0.103812
H462	H	1.333521	0.475695	0.437145
H463	H	0.978061	-0.549714	-0.229556
H464	H	1.311394	-0.216381	0.103777
H465	H	1.644727	0.116953	0.437111
N466	N	0.988598	-0.443438	-0.218962
N467	N	1.321931	-0.110104	0.114371
N468	N	1.655265	0.223229	0.447705
H469	H	1.014010	-0.469006	-0.193618
H470	H	1.347343	-0.135672	0.139715
H471	H	1.680677	0.197661	0.473049
H472	H	1.017567	-0.420739	-0.244501
H473	H	1.350900	-0.087405	0.088832
H474	H	1.684233	0.245928	0.422166
N475	N	1.028818	-0.694591	-0.178986
N476	N	1.362151	-0.361258	0.154347
N477	N	1.695485	-0.027924	0.487681
H478	H	1.054229	-0.720162	-0.153646
H479	H	1.387562	-0.386829	0.179688
H480	H	1.720895	-0.053496	0.513021
H481	H	1.057787	-0.671897	-0.204531
H482	H	1.391121	-0.338564	0.128803
H483	H	1.724454	-0.005230	0.462136
