data_functionalizedCrystal
_audit_creation_method	'MofGen! by Chris Wilmer'
_symmetry_space_group_name_H-M	'P1'
_symmetry_Int_Tables_number	1
_symmetry_cell_setting	triclinic
loop_
_symmetry_equiv_pos_as_xyz
  x,y,z
_cell_length_a	14.519709
_cell_length_b	19.188930
_cell_length_c	12.996460
_cell_angle_alpha	89.988736
_cell_angle_beta	90.000034
_cell_angle_gamma	83.412464
loop_
_atom_site_label
_atom_site_type_symbol
_atom_site_fract_x
_atom_site_fract_y
_atom_site_fract_z
O1	O	1.223300	0.091525	-0.085445
O2	O	0.954756	0.102303	-0.085478
O3	O	1.096778	-0.004714	-0.085440
O4	O	1.081279	0.198542	-0.085482
O5	O	1.096763	-0.004720	0.085693
O6	O	0.954742	0.102297	0.085656
O7	O	1.223285	0.091519	0.085689
Cu8	Cu	1.089012	0.096907	0.101298
Cu9	Cu	1.089030	0.096914	-0.101087
O10	O	1.081264	0.198536	0.085651
C11	C	0.920392	0.101797	0.000085
C12	C	0.818020	0.100292	0.000073
C13	C	0.443159	0.094751	0.000121
C14	C	0.547457	0.096290	0.000108
C15	C	0.630586	0.097521	0.000097
C16	C	0.734891	0.099060	0.000085
C17	C	1.096269	-0.030730	0.000129
C18	C	1.094762	-0.108240	0.000138
C19	C	1.178095	-0.152867	0.000153
C20	C	1.176680	-0.225696	0.000137
C21	C	1.091926	-0.253895	0.000125
C22	C	1.008582	-0.209257	0.000105
C23	C	1.009999	-0.136430	0.000111
N24	N	1.027137	-0.362132	0.058358
N25	N	1.025796	-0.431316	0.058354
C26	C	1.087649	-0.473318	0.000104
N27	N	1.150908	-0.443526	-0.058129
N28	N	1.152252	-0.374336	-0.058120
C29	C	1.090379	-0.332863	0.000118
C30	C	1.169454	-0.596916	0.000100
C31	C	1.168035	-0.669745	0.000077
C32	C	0.999934	-0.653305	0.000055
C33	C	1.001355	-0.580477	0.000068
C34	C	1.086118	-0.552287	0.000095
C35	C	1.257649	0.092024	0.000124
C36	C	1.360021	0.093529	0.000128
C37	C	1.081773	0.224551	0.000079
C38	C	1.083280	0.302061	0.000064
N39	N	1.089007	0.096902	0.243645
N40	N	1.089042	0.096914	-0.243434
C41	C	1.089028	0.096915	0.663460
C42	C	1.089020	0.096914	0.546655
C43	C	1.089018	0.096909	0.453556
C44	C	1.089008	0.096906	0.336744
H45	H	1.247116	-0.129920	0.000172
H46	H	1.235898	-0.706081	0.000083
H47	H	0.930926	-0.676263	0.000041
C48	C	1.267231	-0.274079	-0.000001
C49	C	1.318313	-0.261303	-0.088018
C50	C	1.401736	-0.305851	-0.088172
H51	H	1.254374	-0.321512	-0.000060
H52	H	1.302036	-0.265521	0.059656
H53	H	1.283514	-0.269866	-0.147660
H54	H	1.331194	-0.213878	-0.087978
H55	H	1.436542	-0.297292	-0.028514
H56	H	1.388871	-0.353282	-0.088227
H57	H	1.436409	-0.297184	-0.147884
C58	C	0.916656	-0.240004	0.000146
C59	C	0.933249	-0.313336	0.000173
C60	C	0.848587	-0.341682	0.000220
H61	H	0.882291	-0.224762	-0.059521
H62	H	0.882340	-0.224740	0.059843
H63	H	0.967551	-0.328594	-0.059518
H64	H	0.967601	-0.328598	0.059836
H65	H	0.814271	-0.326418	0.059917
H66	H	0.814228	-0.326435	-0.059448
H67	H	0.859834	-0.391440	0.000248
C68	C	0.919418	-0.088089	0.000153
C69	C	0.844888	-0.128367	0.000161
C70	C	0.761431	-0.083858	0.000216
H71	H	0.916353	-0.059310	-0.059504
H72	H	0.916422	-0.059360	0.059860
H73	H	0.847883	-0.157084	-0.059540
H74	H	0.847923	-0.157145	0.059814
H75	H	0.758434	-0.055129	0.059923
H76	H	0.758374	-0.055081	-0.059442
H77	H	0.710852	-0.111180	0.000231
C78	C	1.261571	-0.566438	0.000056
C79	C	1.334251	-0.621113	0.000024
C80	C	1.419123	-0.593067	-0.000035
H81	H	1.265752	-0.538391	0.059720
H82	H	1.265666	-0.538379	-0.059644
H83	H	1.330158	-0.649160	0.059717
H84	H	1.330101	-0.649165	-0.059636
H85	H	1.423218	-0.565008	-0.059735
H86	H	1.423294	-0.565019	0.059630
H87	H	1.468446	-0.630159	-0.000067
C88	C	0.910777	-0.532136	0.000118
C89	C	0.836248	-0.572415	0.000132
C90	C	0.752789	-0.527907	0.000190
H91	H	0.907708	-0.503357	-0.059540
H92	H	0.907782	-0.503405	0.059824
H93	H	0.839241	-0.601133	-0.059567
H94	H	0.839286	-0.601192	0.059786
H95	H	0.749795	-0.499177	0.059895
H96	H	0.749730	-0.499131	-0.059470
H97	H	0.702211	-0.555230	0.000209
