data_functionalizedCrystal
_audit_creation_method	'MofGen! by Chris Wilmer'
_symmetry_space_group_name_H-M	'P1'
_symmetry_Int_Tables_number	1
_symmetry_cell_setting	triclinic
loop_
_symmetry_equiv_pos_as_xyz
  x,y,z
_cell_length_a	23.532361
_cell_length_b	23.532407
_cell_length_c	12.503572
_cell_angle_alpha	93.492657
_cell_angle_beta	86.508879
_cell_angle_gamma	82.839208
loop_
_atom_site_label
_atom_site_type_symbol
_atom_site_fract_x
_atom_site_fract_y
_atom_site_fract_z
O1	O	0.758576	0.065698	-0.089231
O2	O	1.258576	0.565698	0.410769
O3	O	0.592710	0.075728	-0.089260
O4	O	1.092710	0.575728	0.410740
O5	O	0.680644	-0.012218	-0.089214
O6	O	1.180644	0.487782	0.410786
O7	O	0.670643	0.153644	-0.089276
O8	O	1.170643	0.653644	0.410724
O9	O	0.674031	-0.005593	0.089424
O10	O	1.174031	0.494407	0.589424
O11	O	0.586097	0.082353	0.089379
O12	O	1.086097	0.582353	0.589379
O13	O	0.751963	0.072323	0.089407
O14	O	1.251963	0.572323	0.589407
Cu15	Cu	0.668426	0.077943	0.105704
Cu16	Cu	1.168426	0.577943	0.605704
Cu17	Cu	0.676247	0.070108	-0.105556
Cu18	Cu	1.176247	0.570108	0.394444
O19	O	0.664030	0.160269	0.089362
O20	O	1.164030	0.660269	0.589362
C21	C	0.568187	0.078789	0.000056
C22	C	1.068187	0.578789	0.500056
C23	C	0.504969	0.078033	0.000047
C24	C	1.004969	0.578033	0.500047
C25	C	0.235330	0.071119	-0.097321
C26	C	0.735330	0.571119	0.402679
C27	C	0.294730	0.071834	-0.097324
C28	C	0.794730	0.571834	0.402676
O29	O	0.328521	0.069113	-0.180137
O30	O	0.828521	0.569113	0.319863
N31	N	0.320831	0.075806	0.000052
N32	N	0.820831	0.575806	0.500052
C33	C	0.287529	0.079058	0.097437
C34	C	0.787529	0.579058	0.597437
O35	O	0.315184	0.082502	0.180263
O36	O	0.815184	0.582502	0.680263
C37	C	0.228131	0.078339	0.097439
C38	C	0.728131	0.578339	0.597439
C39	C	0.202033	0.074372	0.000057
C40	C	0.702033	0.574372	0.500057
C41	C	0.209231	0.067152	-0.194696
C42	C	0.709231	0.567152	0.305304
C43	C	0.149835	0.066438	-0.194692
C44	C	0.649835	0.566438	0.305308
C45	C	0.116538	0.069692	-0.097315
C46	C	0.616538	0.569692	0.402685
C47	C	0.142637	0.073659	0.000060
C48	C	0.642637	0.573659	0.500060
C49	C	0.194831	0.081587	0.194824
C50	C	0.694831	0.581587	0.694824
C51	C	0.135429	0.080867	0.194817
C52	C	0.635429	0.580867	0.694817
C53	C	0.109331	0.076901	0.097434
C54	C	0.609331	0.576901	0.597434
C55	C	0.049943	0.076199	0.097441
C56	C	0.549943	0.576199	0.597441
N57	N	0.023843	0.072226	0.000065
N58	N	0.523843	0.572226	0.500065
C59	C	0.057140	0.068973	-0.097313
C60	C	0.557140	0.568973	0.402687
C61	C	0.412270	0.080567	0.097426
C62	C	0.912270	0.580567	0.597426
C63	C	0.471666	0.081290	0.097426
C64	C	0.971666	0.581290	0.597426
C65	C	0.478863	0.074064	-0.097336
C66	C	0.978863	0.574064	0.402664
C67	C	0.419465	0.073345	-0.097335
C68	C	0.919465	0.573345	0.402665
C69	C	0.386169	0.076594	0.000050
C70	C	0.886169	0.576594	0.500050
C71	C	-0.067596	0.067475	-0.097298
C72	C	0.432404	0.567475	0.402702
C73	C	-0.126998	0.066764	-0.097286
C74	C	0.373002	0.566764	0.402714
C75	C	-0.134189	0.073986	0.097475
C76	C	0.365811	0.573986	0.597475
C77	C	-0.074793	0.074700	0.097464
C78	C	0.425207	0.574700	0.597464
C79	C	-0.041497	0.071442	0.000068
C80	C	0.458503	0.571442	0.500068
O81	O	0.016116	0.078915	0.180212
O82	O	0.516116	0.578915	0.680212
O83	O	0.029478	0.065522	-0.180125
O84	O	0.529478	0.565522	0.319875
C85	C	0.677082	-0.030122	0.000110
C86	C	1.177082	0.469878	0.500110
C87	C	0.676316	-0.093338	0.000126
C88	C	1.176316	0.406662	0.500126
C89	C	0.621122	-0.359499	0.000050
C90	C	1.121122	0.140501	0.500050
C91	C	0.621833	-0.300099	0.000058
C92	C	1.121833	0.199901	0.500058
O93	O	0.578048	-0.263348	0.000017
O94	O	1.078048	0.236652	0.500017
N95	N	0.674110	-0.277480	0.000080
N96	N	1.174110	0.222520	0.500080
C97	C	0.725679	-0.314267	0.000082
C98	C	1.225679	0.185733	0.500082
O99	O	0.770210	-0.289574	0.000100
O100	O	1.270210	0.210426	0.500100
C101	C	0.724968	-0.373666	0.000066
C102	C	1.224968	0.126334	0.500066
C103	C	0.672687	-0.396280	0.000055
C104	C	1.172687	0.103720	0.500055
C105	C	0.568846	-0.382114	0.000038
C106	C	1.068846	0.117886	0.500038
C107	C	0.568135	-0.441510	0.000032
C108	C	1.068135	0.058490	0.500032
C109	C	0.619700	-0.478292	0.000037
C110	C	1.119700	0.021708	0.500037
C111	C	0.671976	-0.455677	0.000049
C112	C	1.171976	0.044323	0.500049
C113	C	0.776537	-0.410451	0.000060
C114	C	1.276537	0.089549	0.500060
C115	C	0.775821	-0.469854	0.000043
C116	C	1.275821	0.030146	0.500043
C117	C	0.723540	-0.492469	0.000033
C118	C	1.223540	0.007531	0.500033
C119	C	0.722830	-0.551854	0.000048
C120	C	1.222830	-0.051854	0.500048
N121	N	0.670554	-0.574473	0.000026
N122	N	1.170554	-0.074473	0.500026
C123	C	0.618989	-0.537691	0.000021
C124	C	1.118989	-0.037691	0.500021
C125	C	0.727169	-0.189523	0.000114
C126	C	1.227169	0.310477	0.500114
C127	C	0.727881	-0.130124	0.000137
C128	C	1.227881	0.369876	0.500137
C129	C	0.624035	-0.115961	0.000112
C130	C	1.124035	0.384039	0.500112
C131	C	0.623323	-0.175360	0.000096
C132	C	1.123323	0.324640	0.500096
C133	C	0.674893	-0.212141	0.000092
C134	C	1.174893	0.287859	0.500092
C135	C	0.617499	-0.662428	0.000009
C136	C	1.117499	-0.162428	0.500009
C137	C	0.616793	-0.721830	0.000007
C138	C	1.116793	-0.221830	0.500007
C139	C	0.720639	-0.735989	0.000027
C140	C	1.220639	-0.235989	0.500027
C141	C	0.721346	-0.676592	0.000034
C142	C	1.221346	-0.176592	0.500034
C143	C	0.669771	-0.639813	0.000022
C144	C	1.169771	-0.139813	0.500022
O145	O	0.766593	-0.588639	0.000085
O146	O	1.266593	-0.088639	0.500085
O147	O	0.574466	-0.562393	-0.000011
O148	O	1.074466	-0.062393	0.499989
C149	C	0.776486	0.069262	0.000089
C150	C	1.276486	0.569262	0.500089
C151	C	0.839705	0.070017	0.000091
C152	C	1.339705	0.570017	0.500091
C153	C	0.667591	0.178172	0.000035
C154	C	1.167591	0.678172	0.500035
C155	C	0.668358	0.241389	0.000012
C156	C	1.168358	0.741389	0.500012
N157	N	0.662930	0.083453	0.254294
N158	N	1.162930	0.583453	0.754294
N159	N	0.681748	0.064593	-0.254146
N160	N	1.181748	0.564593	0.245854
C161	C	0.654844	0.091564	0.473405
C162	C	1.154844	0.591564	0.973405
C163	C	0.689832	0.056485	0.526750
C164	C	1.189832	0.556485	1.026750
C165	C	0.685333	0.060997	0.648671
C166	C	1.185333	0.560997	1.148671
C167	C	0.659342	0.087051	0.351473
C168	C	1.159342	0.587051	0.851473
H169	H	-0.040494	0.064822	-0.176607
H170	H	0.459506	0.564822	0.323393
O171	O	-0.155143	0.062485	-0.202329
O172	O	0.344857	0.562485	0.297671
H173	H	-0.202043	0.062540	-0.185975
H174	H	0.297957	0.562540	0.314025
H175	H	0.108321	0.083518	0.274121
H176	H	0.608321	0.583518	0.774121
O177	O	0.566937	-0.199752	0.000082
O178	O	1.066937	0.300248	0.500082
H179	H	0.544874	-0.187643	-0.072733
H180	H	1.044874	0.312357	0.427267
H181	H	0.723166	0.023064	0.480854
H182	H	1.223166	0.523064	0.980854
O183	O	0.610701	0.135842	0.534188
O184	O	1.110701	0.635842	1.034188
H185	H	0.567101	0.128121	0.512703
H186	H	1.067101	0.628121	1.012703
O187	O	0.121694	0.062128	-0.299726
O188	O	0.621694	0.562128	0.200274
H189	H	0.154836	0.059971	-0.367430
H190	H	0.654836	0.559971	0.132570
H191	H	0.574218	-0.740239	0.000003
H192	H	1.074218	-0.240239	0.500003
H193	H	0.236337	0.064500	-0.273997
H194	H	0.736337	0.564500	0.226003
H195	H	0.817816	-0.499800	0.000034
H196	H	1.317816	0.000200	0.500034
O197	O	0.513224	-0.342447	0.000035
O198	O	1.013224	0.157553	0.500035
H199	H	0.508370	-0.312358	0.072852
H200	H	1.008370	0.187642	0.572852
H201	H	0.505985	0.071415	-0.176627
H202	H	1.005985	0.571415	0.323373
O203	O	0.391319	0.069049	-0.202366
O204	O	0.891319	0.569049	0.297634
H205	H	0.424458	0.066901	-0.270073
H206	H	0.924458	0.566901	0.229927
H207	H	0.582048	-0.086002	0.000108
H208	H	1.082048	0.413998	0.500108
O209	O	0.777733	-0.652197	0.000056
O210	O	1.277733	-0.152197	0.500056
H211	H	0.783234	-0.628165	-0.072752
H212	H	1.283234	-0.128165	0.427248
H213	H	0.492909	0.084529	0.176724
H214	H	0.992909	0.584529	0.676724
H215	H	-0.161311	0.076637	0.176757
H216	H	0.338689	0.576637	0.676757
H217	H	0.385162	0.083220	0.176734
H218	H	0.885162	0.583220	0.676734
H219	H	0.216070	0.084816	0.274123
H220	H	0.716070	0.584816	0.774123
H221	H	0.575503	-0.632489	-0.000002
H222	H	1.075503	-0.132489	0.499998
H223	H	0.769166	-0.219468	0.000118
H224	H	1.269166	0.280532	0.500118
O225	O	-0.046638	0.078980	0.202493
O226	O	0.453362	0.578980	0.702493
H227	H	-0.079774	0.081120	0.270205
H228	H	0.420226	0.581120	0.770205
O229	O	0.832926	-0.386069	0.000045
O230	O	1.332926	0.113931	0.500045
H231	H	0.868658	-0.421634	0.000024
H232	H	1.368658	0.078366	0.500024
O233	O	0.511746	-0.465898	0.000016
O234	O	1.011746	0.034102	0.500016
H235	H	0.489687	-0.453789	-0.072803
H236	H	0.989687	0.046211	0.427197
O237	O	0.784269	-0.105735	0.000149
O238	O	1.284269	0.394265	0.500149
H239	H	0.820003	-0.141296	0.000140
H240	H	1.320003	0.358704	0.500140
O241	O	0.776255	-0.775665	0.000035
O242	O	1.276255	-0.275665	0.500035
H243	H	0.766972	-0.820767	0.000017
H244	H	1.266972	-0.320767	0.500017
