data_functionalizedCrystal
_audit_creation_method	'MofGen! by Chris Wilmer'
_symmetry_space_group_name_H-M	'P1'
_symmetry_Int_Tables_number	1
_symmetry_cell_setting	triclinic
loop_
_symmetry_equiv_pos_as_xyz
  x,y,z
_cell_length_a	19.288867
_cell_length_b	9.065215
_cell_length_c	17.766277
_cell_angle_alpha	89.994669
_cell_angle_beta	89.992126
_cell_angle_gamma	84.075883
loop_
_atom_site_label
_atom_site_type_symbol
_atom_site_fract_x
_atom_site_fract_y
_atom_site_fract_z
O1	O	0.922780	0.184046	-0.062566
O2	O	0.720712	0.208868	-0.062573
O3	O	0.825924	-0.018332	-0.062567
O4	O	0.817569	0.411246	-0.062573
O5	O	0.825905	-0.018343	0.062622
O6	O	0.720694	0.208857	0.062615
O7	O	0.922761	0.184035	0.062622
Cu8	Cu	0.821726	0.196445	0.074049
Cu9	Cu	0.821748	0.196458	-0.074001
O10	O	0.817550	0.411235	0.062615
C11	C	0.694820	0.208063	0.000020
C12	C	0.617698	0.205664	0.000017
C13	C	0.062009	0.188390	-0.068214
C14	C	0.134474	0.190635	-0.068217
C15	C	0.170701	0.191759	0.000023
C16	C	0.134459	0.190599	0.068271
C17	C	0.061997	0.188338	0.068272
C18	C	0.280719	0.281738	0.052303
C19	C	0.353180	0.284007	0.052299
C20	C	0.394201	0.198723	0.000023
C21	C	0.362751	0.111189	-0.052261
C22	C	0.290288	0.108929	-0.052260
C23	C	0.249275	0.194209	0.000030
C24	C	0.509009	0.202307	-0.068224
C25	C	0.581476	0.204544	-0.068223
C26	C	0.581459	0.204522	0.068266
C27	C	0.508994	0.202271	0.068265
C28	C	0.472773	0.201171	0.000017
C29	C	0.825112	-0.073296	0.000027
C30	C	0.822712	-0.237055	0.000025
C31	C	0.948653	0.184839	0.000027
C32	C	1.025776	0.187238	0.000025
C33	C	0.818362	0.466199	0.000020
C34	C	0.820761	0.629958	0.000018
N35	N	0.821715	0.196434	0.178180
N36	N	0.821764	0.196457	-0.178131
C37	C	0.868318	0.095879	0.217570
C38	C	0.868322	0.095872	0.296371
C39	C	0.821730	0.196446	0.335780
C40	C	0.775118	0.297009	0.296381
C41	C	0.775110	0.297003	0.217580
C42	C	0.813474	0.330861	0.460616
C43	C	0.813486	0.330869	0.539415
C44	C	0.821749	0.196464	0.578827
C45	C	0.830013	0.062044	0.539430
C46	C	0.830006	0.062039	0.460630
C47	C	0.821732	0.196463	0.421226
C48	C	0.868359	0.095893	0.703662
C49	C	0.868358	0.095884	0.782466
C50	C	0.775156	0.297033	0.782474
C51	C	0.775154	0.297029	0.703672
C52	C	0.821759	0.196461	0.664271
H53	H	0.264685	0.037653	-0.094831
H54	H	0.806734	0.440318	0.428533
Br55	Br	0.711916	0.433512	0.835950
H56	H	0.836741	-0.047402	0.571517
H57	H	0.032523	0.187488	-0.123786
Br58	Br	0.225055	0.397468	0.123265
H59	H	0.396149	0.041747	-0.094831
Br60	Br	0.459816	0.200728	0.160880
H61	H	0.163981	0.191581	-0.123787
Br62	Br	0.931605	-0.040596	0.650188
Br63	Br	0.630653	0.206084	-0.160842
Br64	Br	0.711857	0.433479	0.164118
Br65	Br	0.711906	0.433507	0.650208
Br66	Br	0.802278	0.513292	0.592874
H67	H	0.610955	0.205431	0.123829
Br68	Br	0.459848	0.200808	-0.160842
Br69	Br	0.395853	0.402820	0.123247
H70	H	0.163960	0.191511	0.123833
H71	H	0.906274	0.013985	0.328449
H72	H	0.906265	0.013987	0.185492
H73	H	0.032495	0.187406	0.123842
H74	H	0.906306	0.013992	0.814538
Br75	Br	0.841215	-0.120377	0.407164
Br76	Br	0.711879	0.433493	0.349861
