data_functionalizedCrystal
_audit_creation_method	'MofGen! by Chris Wilmer'
_symmetry_space_group_name_H-M	'P1'
_symmetry_Int_Tables_number	1
_symmetry_cell_setting	triclinic
loop_
_symmetry_equiv_pos_as_xyz
  x,y,z
_cell_length_a	18.101398
_cell_length_b	25.639239
_cell_length_c	25.639233
_cell_angle_alpha	89.981253
_cell_angle_beta	89.981277
_cell_angle_gamma	90.033952
loop_
_atom_site_label
_atom_site_type_symbol
_atom_site_fract_x
_atom_site_fract_y
_atom_site_fract_z
Zn1	Zn	1.132041	-0.208280	-0.295694
Zn2	Zn	1.465374	0.125053	0.037639
Zn3	Zn	1.798708	0.458386	0.370972
Zn4	Zn	1.131933	-0.295699	-0.208259
Zn5	Zn	1.465266	0.037634	0.125075
Zn6	Zn	1.798599	0.370967	0.458408
Zn7	Zn	1.008212	-0.208272	-0.208264
Zn8	Zn	1.341545	0.125061	0.125070
Zn9	Zn	1.674879	0.458394	0.458403
Zn10	Zn	1.008134	-0.295679	-0.295654
Zn11	Zn	1.341468	0.037654	0.037680
Zn12	Zn	1.674801	0.370987	0.371013
O13	O	1.070080	-0.251983	-0.251968
O14	O	1.403413	0.081350	0.081366
O15	O	1.736747	0.414684	0.414699
O16	O	1.235659	-0.219888	-0.284111
O17	O	1.568993	0.113445	0.049223
O18	O	1.902326	0.446778	0.382556
O19	O	1.115508	-0.284107	-0.135094
O20	O	1.448841	0.049227	0.198239
O21	O	1.782175	0.382560	0.531573
O22	O	1.024716	-0.135108	-0.219880
O23	O	1.358049	0.198225	0.113453
O24	O	1.691383	0.531558	0.446786
O25	O	1.235580	-0.284115	-0.219872
O26	O	1.568913	0.049219	0.113461
O27	O	1.902247	0.382552	0.446795
O28	O	1.115693	-0.135114	-0.284115
O29	O	1.449026	0.198219	0.049218
O30	O	1.782359	0.531553	0.382551
O31	O	1.024611	-0.219875	-0.135098
O32	O	1.357944	0.113459	0.198236
O33	O	1.691278	0.446792	0.531569
O34	O	0.904569	-0.219855	-0.219841
O35	O	1.237902	0.113478	0.113492
O36	O	1.571236	0.446811	0.446825
O37	O	1.024584	-0.284081	-0.368824
O38	O	1.357917	0.049252	-0.035491
O39	O	1.691250	0.382586	0.297842
O40	O	0.904512	-0.284073	-0.284046
O41	O	1.237845	0.049260	0.049287
O42	O	1.571178	0.382594	0.382620
O43	O	1.115617	-0.219869	-0.368854
O44	O	1.448951	0.113464	-0.035521
O45	O	1.782284	0.446797	0.297813
O46	O	1.115433	-0.368862	-0.219833
O47	O	1.448766	-0.035528	0.113501
O48	O	1.782099	0.297805	0.446834
O49	O	1.024478	-0.368847	-0.284042
O50	O	1.357812	-0.035514	0.049292
O51	O	1.691145	0.297819	0.382625
C52	C	0.877669	-0.251962	-0.251940
C53	C	1.211003	0.081372	0.081393
C54	C	1.544336	0.414705	0.414726
C55	C	0.795355	-0.251965	-0.251941
C56	C	1.128689	0.081368	0.081392
C57	C	1.462022	0.414702	0.414726
C58	C	1.069955	-0.387825	-0.251944
C59	C	1.403289	-0.054492	0.081390
C60	C	1.736622	0.278841	0.414723
C61	C	1.069970	-0.445939	-0.251951
C62	C	1.403303	-0.112606	0.081383
C63	C	1.736637	0.220727	0.414716
C64	C	0.496264	-0.251998	-0.251985
C65	C	0.829598	0.081336	0.081348
C66	C	1.162931	0.414669	0.414682
C67	C	0.527601	-0.211392	-0.211786
C68	C	0.860934	0.121941	0.121548
C69	C	1.194267	0.455275	0.454881
C70	C	0.613219	-0.211501	-0.211614
C71	C	0.946552	0.121833	0.121719
C72	C	1.279886	0.455166	0.455052
C73	C	0.644647	-0.251981	-0.251963
C74	C	0.977980	0.081352	0.081370
C75	C	1.311314	0.414686	0.414704
C76	C	0.613521	-0.307055	-0.236906
C77	C	0.946854	0.026279	0.096427
C78	C	1.280187	0.359612	0.429761
C79	C	0.527875	-0.306829	-0.236626
C80	C	0.861209	0.026504	0.096707
C81	C	1.194542	0.359838	0.430040
C82	C	0.527874	-0.238009	-0.307336
C83	C	0.861207	0.095324	0.025998
C84	C	1.194541	0.428658	0.359331
C85	C	0.613525	-0.236782	-0.307034
C86	C	0.946858	0.096551	0.026300
C87	C	1.280192	0.429884	0.359633
C88	C	0.728506	-0.251975	-0.251952
C89	C	1.061840	0.081358	0.081382
C90	C	1.395173	0.414692	0.414715
C91	C	0.412405	-0.252008	-0.251995
C92	C	0.745738	0.081326	0.081338
C93	C	1.079072	0.414659	0.414672
C94	C	1.117563	-0.806298	-0.218591
C95	C	1.450897	-0.472964	0.114742
C96	C	1.784230	-0.139631	0.448076
C97	C	1.117592	-0.860902	-0.218598
C98	C	1.450925	-0.527568	0.114735
C99	C	1.784259	-0.194235	0.448069
O100	O	1.157928	-0.889134	-0.190208
O101	O	1.491262	-0.555801	0.143125
O102	O	1.824595	-0.222468	0.476459
N103	N	1.070210	-0.888222	-0.252002
N104	N	1.403543	-0.554889	0.081331
N105	N	1.736877	-0.221555	0.414665
C106	C	1.022802	-0.860935	-0.285405
C107	C	1.356135	-0.527602	0.047928
C108	C	1.689468	-0.194268	0.381261
O109	O	0.982503	-0.889187	-0.313819
O110	O	1.315836	-0.555853	0.019514
O111	O	1.649170	-0.222520	0.352847
C112	C	1.022777	-0.806332	-0.285401
C113	C	1.356111	-0.472998	0.047933
C114	C	1.689444	-0.139665	0.381266
C115	C	1.070157	-0.779014	-0.251990
C116	C	1.403490	-0.445681	0.081343
C117	C	1.736824	-0.112348	0.414676
C118	C	1.164940	-0.778980	-0.185184
C119	C	1.498273	-0.445647	0.148149
C120	C	1.831606	-0.112314	0.481483
C121	C	1.164910	-0.724380	-0.185176
C122	C	1.498243	-0.391046	0.148157
C123	C	1.831577	-0.057713	0.481490
C124	C	1.117504	-0.697096	-0.218576
C125	C	1.450837	-0.363763	0.114757
C126	C	1.784170	-0.030430	0.448091
C127	C	1.070127	-0.724414	-0.251983
C128	C	1.403460	-0.391080	0.081350
C129	C	1.736794	-0.057747	0.414684
C130	C	0.975373	-0.779045	-0.318806
C131	C	1.308707	-0.445712	0.014527
C132	C	1.642040	-0.112379	0.347861
C133	C	0.975353	-0.724438	-0.318799
C134	C	1.308687	-0.391105	0.014535
C135	C	1.642020	-0.057772	0.347868
C136	C	1.022733	-0.697121	-0.285388
C137	C	1.356066	-0.363788	0.047945
C138	C	1.689400	-0.030455	0.381278
C139	C	1.022691	-0.642530	-0.285375
C140	C	1.356024	-0.309197	0.047959
C141	C	1.689358	0.024137	0.381292
N142	N	1.070073	-0.615210	-0.251971
N143	N	1.403406	-0.281877	0.081363
N144	N	1.736740	0.051457	0.414696
C145	C	1.117479	-0.642493	-0.218571
C146	C	1.450813	-0.309160	0.114762
C147	C	1.784146	0.024174	0.448096
C148	C	1.022858	-0.975605	-0.285413
C149	C	1.356191	-0.642272	0.047920
C150	C	1.689524	-0.308939	0.381253
C151	C	1.022878	-1.030208	-0.285416
C152	C	1.356211	-0.696874	0.047917
C153	C	1.689544	-0.363541	0.381251
C154	C	1.117669	-1.030171	-0.218609
C155	C	1.451002	-0.696838	0.114724
C156	C	1.784336	-0.363504	0.448058
C157	C	1.117645	-0.975568	-0.218604
C158	C	1.450978	-0.642234	0.114729
C159	C	1.784311	-0.308901	0.448062
C160	C	1.070239	-0.948285	-0.252009
C161	C	1.403573	-0.614952	0.081324
C162	C	1.736906	-0.281619	0.414658
C163	C	1.117412	-0.527828	-0.218557
C164	C	1.450746	-0.194495	0.114776
C165	C	1.784079	0.138839	0.448109
C166	C	1.117376	-0.473223	-0.218551
C167	C	1.450710	-0.139889	0.114782
C168	C	1.784043	0.193444	0.448115
C169	C	1.022588	-0.473264	-0.285360
C170	C	1.355921	-0.139931	0.047973
C171	C	1.689254	0.193402	0.381307
C172	C	1.022621	-0.527865	-0.285364
C173	C	1.355954	-0.194532	0.047969
C174	C	1.689288	0.138802	0.381302
C175	C	1.070039	-0.555145	-0.251961
C176	C	1.403373	-0.221812	0.081372
C177	C	1.736706	0.111521	0.414705
O178	O	0.982377	-0.614263	-0.313752
O179	O	1.315711	-0.280930	0.019582
O180	O	1.649044	0.052404	0.352915
O181	O	1.157778	-0.614235	-0.190167
O182	O	1.491111	-0.280901	0.143166
O183	O	1.824445	0.052432	0.476500
C184	C	1.263242	-0.252005	-0.251995
C185	C	1.596575	0.081329	0.081338
C186	C	1.929908	0.414662	0.414671
C187	C	1.345556	-0.252014	-0.252007
C188	C	1.678889	0.081320	0.081326
C189	C	2.012223	0.414653	0.414660
C190	C	1.070104	-0.251974	-0.388341
C191	C	1.403437	0.081360	-0.055007
C192	C	1.736771	0.414693	0.278326
C193	C	1.070114	-0.251970	-0.446455
C194	C	1.403447	0.081364	-0.113121
C195	C	1.736781	0.414697	0.220212
C196	C	1.070225	-0.115610	-0.252003
C197	C	1.403559	0.217723	0.081330
C198	C	1.736892	0.551057	0.414664
C199	C	1.070287	-0.057496	-0.252018
C200	C	1.403620	0.275838	0.081315
C201	C	1.736954	0.609171	0.414649
C202	C	1.117575	-0.218435	-0.806839
C203	C	1.450909	0.114898	-0.473506
C204	C	1.784242	0.448231	-0.140172
C205	C	1.117585	-0.218421	-0.861443
C206	C	1.450918	0.114912	-0.528110
C207	C	1.784251	0.448246	-0.194777
O208	O	1.157878	-0.189970	-0.889698
O209	O	1.491211	0.143363	-0.556365
O210	O	1.824545	0.476696	-0.223031
N211	N	1.070196	-0.251847	-0.888737
N212	N	1.403529	0.081486	-0.555404
N213	N	1.736862	0.414819	-0.222071
C214	C	1.022789	-0.285286	-0.861424
C215	C	1.356123	0.048047	-0.528091
C216	C	1.689456	0.381380	-0.194757
O217	O	0.982482	-0.313716	-0.889654
O218	O	1.315815	0.019617	-0.556320
O219	O	1.649148	0.352950	-0.222987
C220	C	1.022777	-0.285298	-0.806821
C221	C	1.356110	0.048036	-0.473487
C222	C	1.689444	0.381369	-0.140154
C223	C	1.070174	-0.251873	-0.779530
C224	C	1.403508	0.081460	-0.446196
C225	C	1.736841	0.414794	-0.112863
C226	C	1.164968	-0.185013	-0.779548
C227	C	1.498302	0.148320	-0.446214
C228	C	1.831635	0.481654	-0.112881
C229	C	1.164960	-0.185028	-0.724947
C230	C	1.498293	0.148305	-0.391614
C231	C	1.831627	0.481638	-0.058281
C232	C	1.117559	-0.218466	-0.697638
C233	C	1.450892	0.114867	-0.364304
C234	C	1.784225	0.448201	-0.030971
C235	C	1.070166	-0.251888	-0.724929
C236	C	1.403499	0.081445	-0.391596
C237	C	1.736833	0.414778	-0.058262
C238	C	0.975367	-0.318734	-0.779509
C239	C	1.308701	0.014599	-0.446175
C240	C	1.642034	0.347933	-0.112842
C241	C	0.975359	-0.318742	-0.724902
C242	C	1.308692	0.014591	-0.391568
C243	C	1.642025	0.347925	-0.058235
C244	C	1.022756	-0.285317	-0.697610
C245	C	1.356089	0.048016	-0.364277
C246	C	1.689423	0.381349	-0.030944
C247	C	1.022756	-0.285341	-0.643019
C248	C	1.356090	0.047992	-0.309686
C249	C	1.689423	0.381325	0.023648
N250	N	1.070145	-0.251915	-0.615725
N251	N	1.403478	0.081418	-0.282392
N252	N	1.736812	0.414752	0.050942
C253	C	1.117546	-0.218477	-0.643034
C254	C	1.450880	0.114856	-0.309701
C255	C	1.784213	0.448189	0.023632
C256	C	1.022818	-0.285259	-0.976095
C257	C	1.356151	0.048074	-0.642761
C258	C	1.689485	0.381408	-0.309428
C259	C	1.022833	-0.285251	-1.030697
C260	C	1.356167	0.048083	-0.697364
C261	C	1.689500	0.381416	-0.364030
C262	C	1.117628	-0.218385	-1.030713
C263	C	1.450961	0.114949	-0.697379
C264	C	1.784295	0.448282	-0.364046
C265	C	1.117616	-0.218396	-0.976109
C266	C	1.450949	0.114937	-0.642776
C267	C	1.784282	0.448271	-0.309443
C268	C	1.070207	-0.251833	-0.948801
C269	C	1.403540	0.081500	-0.615467
C270	C	1.736873	0.414834	-0.282134
C271	C	1.117526	-0.218512	-0.528369
C272	C	1.450859	0.114821	-0.195036
C273	C	1.784192	0.448154	0.138297
C274	C	1.117515	-0.218532	-0.473764
C275	C	1.450849	0.114801	-0.140431
C276	C	1.784182	0.448135	0.192903
C277	C	1.022718	-0.285396	-0.473753
C278	C	1.356052	0.047937	-0.140420
C279	C	1.689385	0.381271	0.192913
C280	C	1.022731	-0.285379	-0.528354
C281	C	1.356064	0.047955	-0.195021
C282	C	1.689398	0.381288	0.138313
C283	C	1.070137	-0.251932	-0.555661
C284	C	1.403471	0.081401	-0.222327
C285	C	1.736804	0.414734	0.111006
O286	O	0.982481	-0.313776	-0.614730
O287	O	1.315815	0.019558	-0.281396
O288	O	1.649148	0.352891	0.051937
O289	O	1.157840	-0.190047	-0.614798
O290	O	1.491174	0.143286	-0.281465
O291	O	1.824507	0.476619	0.051868
C292	C	1.070099	-0.251954	-0.116125
C293	C	1.403432	0.081379	0.217208
C294	C	1.736765	0.414712	0.550542
C295	C	1.070232	-0.251811	-0.058011
C296	C	1.403565	0.081522	0.275322
C297	C	1.736899	0.414856	0.608655
H298	H	0.634266	-0.170661	-0.221053
H299	H	0.967599	0.162672	0.112281
H300	H	1.300933	0.496005	0.445614
C301	C	1.217037	-0.694337	-0.148431
C302	C	1.550370	-0.361004	0.184902
C303	C	1.883704	-0.027671	0.518235
H304	H	1.245277	-0.718413	-0.128548
H305	H	1.578610	-0.385080	0.204785
H306	H	1.911943	-0.051746	0.538119
H307	H	1.188731	-0.673063	-0.125624
H308	H	1.522064	-0.339730	0.207710
H309	H	1.855397	-0.006396	0.541043
H310	H	1.249279	-0.673010	-0.168457
H311	H	1.582613	-0.339677	0.164876
H312	H	1.915946	-0.006344	0.498209
H313	H	0.936788	-0.801278	-0.346010
H314	H	1.270121	-0.467945	-0.012676
H315	H	1.603455	-0.134611	0.320657
C316	C	1.169814	-1.060189	-0.181868
C317	C	1.503147	-0.726856	0.151465
C318	C	1.836480	-0.393523	0.484798
H319	H	1.163042	-1.096621	-0.186661
H320	H	1.496375	-0.763288	0.146672
H321	H	1.829709	-0.429954	0.480005
H322	H	1.159005	-1.051264	-0.146730
H323	H	1.492338	-0.717931	0.186603
H324	H	1.825671	-0.384598	0.519936
H325	H	1.219565	-1.051209	-0.189555
H326	H	1.552899	-0.717876	0.143778
H327	H	1.886232	-0.384542	0.477111
H328	H	0.984248	-0.953395	-0.312614
H329	H	1.317582	-0.620062	0.020719
H330	H	1.650915	-0.286728	0.354053
H331	H	0.633875	-0.196255	-0.318387
H332	H	0.967208	0.137079	0.014946
H333	H	1.300542	0.470412	0.348279
H334	H	1.155958	-0.450983	-0.191343
H335	H	1.489292	-0.117649	0.141990
H336	H	1.822625	0.215684	0.475324
C337	C	1.217087	-0.808983	-0.148438
C338	C	1.550420	-0.475650	0.184895
C339	C	1.883754	-0.142317	0.518229
H340	H	1.245290	-0.784887	-0.128542
H341	H	1.578624	-0.451553	0.204791
H342	H	1.911957	-0.118220	0.538125
H343	H	1.249351	-0.830258	-0.168455
H344	H	1.582684	-0.496924	0.164878
H345	H	1.916018	-0.163591	0.498211
H346	H	1.188784	-0.830308	-0.125635
H347	H	1.522117	-0.496975	0.207699
H348	H	1.855451	-0.163641	0.541032
H349	H	0.984246	-0.312474	-1.052913
H350	H	1.317579	0.020859	-0.719580
H351	H	1.650912	0.354192	-0.386246
C352	C	0.923210	-0.355524	-0.694863
C353	C	1.256543	-0.022190	-0.361530
C354	C	1.589877	0.311143	-0.028196
H355	H	0.929985	-0.350745	-0.658434
H356	H	1.263318	-0.017411	-0.325101
H357	H	1.596651	0.315922	0.008233
H358	H	0.934008	-0.390652	-0.703812
H359	H	1.267342	-0.057319	-0.370479
H360	H	1.600675	0.276015	-0.037146
H361	H	0.873460	-0.347857	-0.703806
H362	H	1.206794	-0.014524	-0.370473
H363	H	1.540127	0.318810	-0.037140
C364	C	0.500497	-0.277958	-0.347802
C365	C	0.833831	0.055375	-0.014468
C366	C	1.167164	0.388708	0.318865
H367	H	0.519784	-0.269303	-0.381168
H368	H	0.853117	0.064030	-0.047834
H369	H	1.186451	0.397363	0.285499
H370	H	0.448055	-0.277383	-0.349027
H371	H	0.781388	0.055951	-0.015694
H372	H	1.114722	0.389284	0.317640
H373	H	0.516775	-0.311838	-0.338174
H374	H	0.850109	0.021496	-0.004841
H375	H	1.183442	0.354829	0.328492
C376	C	0.642413	-0.273831	-0.349664
C377	C	0.975746	0.059503	-0.016331
C378	C	1.309079	0.392836	0.317003
H379	H	0.673969	-0.299168	-0.334366
H380	H	1.007303	0.034165	-0.001033
H381	H	1.340636	0.367499	0.332301
H382	H	0.669189	-0.254390	-0.374931
H383	H	1.002523	0.078944	-0.041598
H384	H	1.335856	0.412277	0.291736
H385	H	0.601892	-0.290805	-0.365989
H386	H	0.935226	0.042529	-0.032655
H387	H	1.268559	0.375862	0.300678
H388	H	0.936751	-0.702228	-0.346003
H389	H	1.270084	-0.368895	-0.012669
H390	H	1.603418	-0.035561	0.320664
H391	H	0.984043	-0.550108	-0.312571
H392	H	1.317376	-0.216774	0.020762
H393	H	1.650710	0.116559	0.354096
H394	H	0.984128	-0.312622	-0.451508
H395	H	1.317461	0.020711	-0.118175
H396	H	1.650794	0.354045	0.215158
H397	H	1.156027	-0.550033	-0.191359
H398	H	1.489360	-0.216700	0.141975
H399	H	1.822693	0.116633	0.475308
H400	H	0.984143	-0.312601	-0.550576
H401	H	1.317477	0.020733	-0.217242
H402	H	1.650810	0.354066	0.116091
C403	C	0.970448	-0.443246	-0.322099
C404	C	1.303782	-0.109912	0.011235
C405	C	1.637115	0.223421	0.344568
H406	H	0.977227	-0.406814	-0.317311
H407	H	1.310561	-0.073481	0.016022
H408	H	1.643894	0.259852	0.349356
H409	H	0.920699	-0.452227	-0.314419
H410	H	1.254032	-0.118894	0.018914
H411	H	1.587366	0.214440	0.352248
H412	H	0.981268	-0.452170	-0.357238
H413	H	1.314601	-0.118837	-0.023905
H414	H	1.647934	0.214496	0.309428
C415	C	0.499802	-0.156054	-0.224381
C416	C	0.833135	0.177279	0.108952
C417	C	1.166468	0.510613	0.442285
H418	H	0.468833	-0.157216	-0.254267
H419	H	0.802166	0.176117	0.079066
H420	H	1.135499	0.509451	0.412399
H421	H	0.540787	-0.133891	-0.231102
H422	H	0.874120	0.199443	0.102231
H423	H	1.207454	0.532776	0.435564
H424	H	0.472612	-0.142919	-0.195542
H425	H	0.805945	0.190414	0.137791
H426	H	1.139278	0.523748	0.471124
C427	C	0.641018	-0.349025	-0.275215
C428	C	0.974351	-0.015692	0.058119
C429	C	1.307684	0.317642	0.391452
H430	H	0.621541	-0.382014	-0.265391
H431	H	0.954874	-0.048680	0.067942
H432	H	1.288208	0.284653	0.401275
H433	H	0.693450	-0.350313	-0.274399
H434	H	1.026783	-0.016979	0.058934
H435	H	1.360117	0.316354	0.392267
H436	H	0.625012	-0.340644	-0.309490
H437	H	0.958345	-0.007310	0.023843
H438	H	1.291678	0.326023	0.357177
H439	H	1.156114	-0.191313	-0.451546
H440	H	1.489448	0.142020	-0.118213
H441	H	1.822781	0.475353	0.215121
C442	C	0.970681	-0.322054	-0.946060
C443	C	1.304015	0.011279	-0.612727
C444	C	1.637348	0.344613	-0.279393
H445	H	0.942471	-0.341962	-0.970139
H446	H	1.275804	-0.008629	-0.636806
H447	H	1.609137	0.324705	-0.303473
H448	H	0.938424	-0.302065	-0.924754
H449	H	1.271757	0.031269	-0.591420
H450	H	1.605091	0.364602	-0.258087
H451	H	0.998993	-0.344844	-0.924765
H452	H	1.332327	-0.011511	-0.591432
H453	H	1.665660	0.321822	-0.258099
C454	C	1.169677	-0.181727	-0.558399
C455	C	1.503010	0.151607	-0.225066
C456	C	1.836343	0.484940	0.108268
H457	H	1.197902	-0.161830	-0.534319
H458	H	1.531236	0.171503	-0.200986
H459	H	1.864569	0.504837	0.132348
H460	H	1.141385	-0.158933	-0.579699
H461	H	1.474718	0.174401	-0.246366
H462	H	1.808052	0.507734	0.086968
H463	H	1.201931	-0.201729	-0.579701
H464	H	1.535264	0.131604	-0.246367
H465	H	1.868597	0.464937	0.086966
H466	H	0.506055	-0.220534	-0.171010
H467	H	0.839389	0.112799	0.162323
H468	H	1.172722	0.446132	0.495657
H469	H	1.203554	-0.157809	-0.702732
H470	H	1.536888	0.175524	-0.369398
H471	H	1.870221	0.508857	-0.036065
H472	H	1.156226	-0.953329	-0.191399
H473	H	1.489559	-0.619996	0.141934
H474	H	1.822892	-0.286662	0.475267
C475	C	1.217119	-0.148231	-0.809580
C476	C	1.550452	0.185102	-0.476246
C477	C	1.883785	0.518435	-0.142913
H478	H	1.245341	-0.128334	-0.785498
H479	H	1.578675	0.204999	-0.452165
H480	H	1.912008	0.538332	-0.118832
H481	H	1.188830	-0.125438	-0.830882
H482	H	1.522164	0.207895	-0.497549
H483	H	1.855497	0.541229	-0.164216
H484	H	1.249375	-0.168235	-0.830878
H485	H	1.582709	0.165098	-0.497545
H486	H	1.916042	0.498432	-0.164212
C487	C	0.970756	-1.060251	-0.322164
C488	C	1.304089	-0.726918	0.011170
C489	C	1.637422	-0.393584	0.344503
H490	H	0.942524	-1.036177	-0.342055
H491	H	1.275858	-0.702844	-0.008722
H492	H	1.609191	-0.369510	0.324612
H493	H	0.938517	-1.081584	-0.302147
H494	H	1.271850	-0.748251	0.031187
H495	H	1.605183	-0.414917	0.364520
H496	H	0.999077	-1.081520	-0.344972
H497	H	1.332411	-0.748186	-0.011638
H498	H	1.665744	-0.414853	0.321695
C499	C	1.169744	-0.181624	-0.946094
C500	C	1.503077	0.151710	-0.612760
C501	C	1.836410	0.485043	-0.279427
H502	H	1.197970	-0.161707	-0.970183
H503	H	1.531303	0.171626	-0.636850
H504	H	1.864636	0.504960	-0.303517
H505	H	1.201987	-0.201627	-0.924791
H506	H	1.535321	0.131707	-0.591458
H507	H	1.868654	0.465040	-0.258125
H508	H	1.141428	-0.158840	-0.924796
H509	H	1.474761	0.174493	-0.591463
H510	H	1.808094	0.507826	-0.258130
H511	H	0.633676	-0.220748	-0.170600
H512	H	0.967010	0.112586	0.162733
H513	H	1.300343	0.445919	0.496067
C514	C	0.500842	-0.322851	-0.181963
C515	C	0.834175	0.010482	0.151370
C516	C	1.167508	0.343816	0.484703
H517	H	0.542202	-0.329434	-0.160135
H518	H	0.875535	0.003900	0.173198
H519	H	1.208868	0.337233	0.506531
H520	H	0.471594	-0.353515	-0.184559
H521	H	0.804928	-0.020181	0.148774
H522	H	1.138261	0.313152	0.482108
H523	H	0.472062	-0.295481	-0.167466
H524	H	0.805395	0.037853	0.165868
H525	H	1.138728	0.371186	0.499201
H526	H	0.507144	-0.338107	-0.264629
H527	H	0.840477	-0.004774	0.068705
H528	H	1.173810	0.328559	0.402038
C529	C	1.169766	-0.181600	-1.060757
C530	C	1.503100	0.151734	-0.727424
C531	C	1.836433	0.485067	-0.394091
H532	H	1.197996	-0.161695	-1.036686
H533	H	1.531329	0.171639	-0.703353
H534	H	1.864663	0.504972	-0.370020
H535	H	1.141462	-0.158813	-1.082057
H536	H	1.474795	0.174520	-0.748723
H537	H	1.808129	0.507853	-0.415390
H538	H	1.202018	-0.201603	-1.082060
H539	H	1.535351	0.131731	-0.748727
H540	H	1.868684	0.465064	-0.415394
C541	C	0.642443	-0.323361	-0.182831
C542	C	0.975777	0.009972	0.150502
C543	C	1.309110	0.343306	0.483836
H544	H	0.673479	-0.296684	-0.169358
H545	H	1.006812	0.036649	0.163975
H546	H	1.340145	0.369983	0.497308
H547	H	0.669782	-0.354826	-0.185890
H548	H	1.003115	-0.021493	0.147443
H549	H	1.336449	0.311841	0.480776
H550	H	0.601906	-0.328621	-0.159878
H551	H	0.935239	0.004712	0.173455
H552	H	1.268572	0.338046	0.506788
H553	H	0.936771	-0.345952	-0.801720
H554	H	1.270105	-0.012618	-0.468386
H555	H	1.603438	0.320715	-0.135053
H556	H	0.506307	-0.198549	-0.321025
H557	H	0.839641	0.134784	0.012308
H558	H	1.172974	0.468118	0.345642
