data_functionalizedCrystal
_audit_creation_method	'MofGen! by Chris Wilmer'
_symmetry_space_group_name_H-M	'P1'
_symmetry_Int_Tables_number	1
_symmetry_cell_setting	triclinic
loop_
_symmetry_equiv_pos_as_xyz
  x,y,z
_cell_length_a	16.974897
_cell_length_b	15.944493
_cell_length_c	16.053802
_cell_angle_alpha	92.571009
_cell_angle_beta	83.774775
_cell_angle_gamma	83.438376
loop_
_atom_site_label
_atom_site_type_symbol
_atom_site_fract_x
_atom_site_fract_y
_atom_site_fract_z
O1	O	1.055879	0.099947	-0.140687
O2	O	0.824924	0.114365	-0.125099
O3	O	0.946733	-0.015152	-0.133327
O4	O	0.934070	0.229463	-0.132459
O5	O	0.940028	-0.008052	0.005985
O6	O	0.818220	0.121464	0.014213
O7	O	1.049174	0.107046	-0.001375
Zn8	Zn	0.932632	0.115383	0.028538
Zn9	Zn	0.941466	0.106028	-0.155012
O10	O	0.927366	0.236563	0.006853
C11	C	0.792018	0.117496	-0.053448
C12	C	0.703957	0.116238	-0.047505
C13	C	0.666233	0.111780	-0.120646
C14	C	0.583488	0.110612	-0.115049
C15	C	0.538470	0.113897	-0.036311
C16	C	0.576199	0.118358	0.036835
C17	C	0.658942	0.119532	0.031238
C18	C	0.290614	0.110808	-0.011428
C19	C	0.207866	0.109631	-0.005836
C20	C	0.215160	0.101886	-0.157720
C21	C	0.297905	0.103055	-0.163311
C22	C	0.335627	0.107521	-0.090165
N23	N	0.453891	0.112701	-0.030589
N24	N	0.420203	0.108723	-0.095888
C25	C	0.942863	-0.042895	-0.063640
C26	C	0.941312	-0.136137	-0.063546
C27	C	1.013010	-0.372225	-0.068369
C28	C	0.977651	-0.426116	-0.134447
C29	C	0.938437	-0.306844	-0.063342
C30	C	0.971024	-0.419092	0.002904
C31	C	0.935665	-0.471740	-0.063141
C32	C	0.903101	-0.359510	-0.129478
C33	C	0.896481	-0.352479	0.007935
C34	C	0.861068	-0.406338	-0.058156
C35	C	0.940036	-0.211852	-0.063458
C36	C	0.934060	-0.566730	-0.063030
C37	C	1.082080	0.103915	-0.073028
C38	C	1.170142	0.105172	-0.078976
C39	C	0.931235	0.264306	-0.062836
C40	C	0.932787	0.357547	-0.062936
N41	N	0.926609	0.121766	0.153805
N42	N	0.947495	0.099638	-0.280279
C43	C	0.978458	0.066676	0.193996
C44	C	0.974252	0.071149	0.281687
C45	C	0.918201	0.130717	0.329185
C46	C	0.866347	0.185810	0.288988
C47	C	0.870550	0.181332	0.201298
C48	C	0.899844	0.150253	0.591834
C49	C	0.895647	0.154728	0.679529
C50	C	1.003551	0.040066	0.672223
C51	C	1.007752	0.035597	0.584532
C52	C	0.955895	0.090687	0.544343
N53	N	0.913902	0.135293	0.418819
N54	N	0.960191	0.086107	0.454710
H55	H	0.321317	0.114438	0.048133
C56	C	0.850668	-0.309657	0.088107
C57	C	0.786952	-0.253355	0.067957
C58	C	0.744732	-0.213901	0.141796
H59	H	0.885245	-0.279519	0.117502
H60	H	0.830658	-0.351229	0.122466
H61	H	0.806963	-0.211790	0.033611
H62	H	0.752357	-0.283472	0.038573
H63	H	0.724722	-0.255472	0.176156
H64	H	0.779315	-0.183767	0.171186
H65	H	0.701492	-0.175701	0.128135
C66	C	1.059712	-0.019842	0.715915
C67	C	1.015051	-0.068539	0.769103
C68	C	1.066758	-0.123748	0.809358
H69	H	1.091106	0.011894	0.747953
H70	H	1.093683	-0.056009	0.675097
H71	H	0.981094	-0.032376	0.809916
H72	H	0.983660	-0.100292	0.737086
H73	H	1.100729	-0.159915	0.768540
H74	H	1.098149	-0.092006	0.841392
H75	H	1.036464	-0.156801	0.845445
H76	H	1.011940	-0.458166	-0.194644
C77	C	0.542684	0.105715	-0.194558
C78	C	0.599823	0.103058	-0.264711
C79	C	0.562266	0.098533	-0.337971
H80	H	0.504510	0.154056	-0.195248
H81	H	0.516632	0.056093	-0.195982
H82	H	0.625862	0.152675	-0.263287
H83	H	0.638000	0.054720	-0.264048
H84	H	0.536215	0.048912	-0.339395
H85	H	0.524093	0.146875	-0.338653
H86	H	0.601030	0.096722	-0.385579
C87	C	0.864944	-0.324694	-0.204145
C88	C	0.866920	-0.237119	-0.203415
C89	C	0.831795	-0.205020	-0.272194
H90	H	0.811126	-0.336484	-0.200792
H91	H	0.893606	-0.350528	-0.254656
H92	H	0.838256	-0.211293	-0.152917
H93	H	0.920728	-0.225306	-0.206780
H94	H	0.860457	-0.230854	-0.322705
H95	H	0.777979	-0.216815	-0.268834
H96	H	0.833138	-0.145599	-0.271712
C97	C	1.068201	-0.029389	0.532844
C98	C	1.060627	-0.021683	0.447458
C99	C	1.116138	-0.081702	0.399829
H100	H	1.058563	-0.084542	0.547947
H101	H	1.120639	-0.020165	0.543343
H102	H	1.008201	-0.030913	0.436964
H103	H	1.070272	0.033457	0.432329
H104	H	1.168576	-0.072478	0.410328
H105	H	1.106495	-0.136851	0.414940
H106	H	1.111011	-0.076477	0.341890
H107	H	0.828328	0.226191	0.168576
C108	C	0.834696	0.219426	0.730956
C109	C	0.790163	0.266695	0.676994
C110	C	0.734003	0.326288	0.724338
H111	H	0.861484	0.256114	0.763241
H112	H	0.800008	0.191093	0.767384
H113	H	0.824846	0.295026	0.640580
H114	H	0.763357	0.230031	0.644708
H115	H	0.699315	0.297956	0.760767
H116	H	0.760798	0.362970	0.756621
H117	H	0.703776	0.358362	0.687732
H118	H	0.184438	0.098252	-0.217272
C119	C	0.715167	0.108042	-0.206115
C120	C	0.771798	0.036217	-0.214386
C121	C	0.816880	0.032743	-0.293115
H122	H	0.741620	0.157259	-0.211130
H123	H	0.680876	0.105175	-0.248898
H124	H	0.806084	0.039090	-0.171615
H125	H	0.745367	-0.013012	-0.209387
H126	H	0.782589	0.029877	-0.335898
H127	H	0.843327	0.081964	-0.298123
H128	H	0.855304	-0.015994	-0.298740
H129	H	0.539538	0.121038	0.100945
C130	C	0.346637	0.099520	-0.248877
C131	C	0.295886	0.095383	-0.311735
C132	C	0.340749	0.092129	-0.390568
H133	H	0.385122	0.050841	-0.254741
H134	H	0.373001	0.148811	-0.253856
H135	H	0.269535	0.046097	-0.306758
H136	H	0.257401	0.144057	-0.305898
H137	H	0.367113	0.141421	-0.395547
H138	H	0.379232	0.043450	-0.396423
H139	H	0.306321	0.089330	-0.433227
C140	C	0.159119	0.113249	0.079735
C141	C	0.209860	0.117433	0.142596
C142	C	0.164983	0.120775	0.221429
H143	H	0.132735	0.063989	0.084783
H144	H	0.120647	0.161952	0.085526
H145	H	0.248318	0.068735	0.136808
H146	H	0.236245	0.166691	0.137576
H147	H	0.126511	0.169478	0.227220
H148	H	0.138600	0.071513	0.226468
H149	H	0.199402	0.123622	0.264090
C150	C	1.039173	0.001916	0.142356
C151	C	0.999312	-0.051891	0.094891
C152	C	1.055208	-0.111572	0.047316
H153	H	1.069455	-0.030337	0.178777
H154	H	1.073842	0.030188	0.105846
H155	H	0.964658	-0.080161	0.131398
H156	H	0.969034	-0.019662	0.058455
H157	H	1.089876	-0.083299	0.010805
H158	H	1.085486	-0.143818	0.083743
H159	H	1.028171	-0.148082	0.015099
C160	C	0.699761	0.124328	0.110745
C161	C	0.642631	0.126930	0.180899
C162	C	0.680204	0.131340	0.254157
H163	H	0.725834	0.173920	0.112249
H164	H	0.737923	0.075949	0.111353
H165	H	0.604483	0.175304	0.180292
H166	H	0.616555	0.077343	0.179424
H167	H	0.718366	0.082961	0.254766
H168	H	0.706276	0.180932	0.255652
H169	H	0.641449	0.133098	0.301765
C170	C	1.009435	-0.453816	0.077462
C171	C	1.088919	-0.436886	0.071771
C172	C	1.124331	-0.468849	0.140439
H173	H	1.007806	-0.513171	0.077357
H174	H	0.981174	-0.427610	0.128011
H175	H	1.117173	-0.463094	0.021236
H176	H	1.090571	-0.377536	0.071887
H177	H	1.096070	-0.442644	0.190988
H178	H	1.122696	-0.528203	0.140328
H179	H	1.178262	-0.457360	0.136591
C180	C	0.775348	-0.426537	-0.052587
C181	C	0.740145	-0.396203	-0.122022
C182	C	0.661187	-0.414806	-0.116931
H183	H	0.746257	-0.400253	-0.002506
H184	H	0.774761	-0.486026	-0.052130
H185	H	0.740727	-0.336726	-0.122472
H186	H	0.769214	-0.422482	-0.172114
H187	H	0.660599	-0.474295	-0.116474
H188	H	0.632102	-0.388521	-0.066847
H189	H	0.637294	-0.394235	-0.164045
C190	C	0.843684	0.210113	0.548097
C191	C	0.888345	0.258783	0.494877
C192	C	0.836639	0.313935	0.454563
H193	H	0.809691	0.246308	0.588855
H194	H	0.812315	0.178310	0.516077
H195	H	0.919701	0.290584	0.526895
H196	H	0.922336	0.222611	0.454104
H197	H	0.805270	0.282131	0.422543
H198	H	0.802648	0.350124	0.495327
H199	H	0.866934	0.346958	0.418443
H200	H	1.016471	0.026290	0.314410
H201	H	1.077249	-0.356896	-0.072774
H202	H	0.820705	0.234308	0.327666
