data_functionalizedCrystal
_audit_creation_method	'MofGen! by Chris Wilmer'
_symmetry_space_group_name_H-M	'P1'
_symmetry_Int_Tables_number	1
_symmetry_cell_setting	triclinic
loop_
_symmetry_equiv_pos_as_xyz
  x,y,z
_cell_length_a	18.050589
_cell_length_b	13.033808
_cell_length_c	13.033454
_cell_angle_alpha	105.145795
_cell_angle_beta	82.784202
_cell_angle_gamma	97.222326
loop_
_atom_site_label
_atom_site_type_symbol
_atom_site_fract_x
_atom_site_fract_y
_atom_site_fract_z
Zn1	Zn	-0.120134	1.547437	-0.394628
Zn2	Zn	0.379866	2.047437	0.105372
Zn3	Zn	-0.258350	1.569836	-0.217048
Zn4	Zn	0.241650	2.069836	0.282952
Zn5	Zn	-0.148186	1.392368	-0.239565
Zn6	Zn	0.351814	1.892368	0.260435
Zn7	Zn	-0.258314	1.369774	-0.417118
Zn8	Zn	0.241686	1.869774	0.082882
O9	O	-0.196246	1.469854	-0.317090
O10	O	0.303754	1.969854	0.182910
O11	O	-0.126745	1.699032	-0.352236
O12	O	0.373255	2.199032	0.147764
O13	O	-0.255492	1.565125	-0.071410
O14	O	0.244508	2.065125	0.428590
O15	O	-0.040532	1.413020	-0.260145
O16	O	0.459468	1.913020	0.239855
O17	O	-0.228291	1.715488	-0.221769
O18	O	0.271709	2.215488	0.278231
O19	O	-0.019922	1.526948	-0.374070
O20	O	0.480078	2.026948	0.125930
O21	O	-0.174554	1.434740	-0.087953
O22	O	0.325446	1.934740	0.412047
O23	O	-0.174519	1.240748	-0.281953
O24	O	0.325481	1.740748	0.218047
O25	O	-0.228230	1.374511	-0.562760
O26	O	0.271770	1.874511	-0.062760
O27	O	-0.255430	1.224147	-0.412401
O28	O	0.244570	1.724147	0.087599
O29	O	-0.126710	1.505039	-0.546236
O30	O	0.373290	2.005039	-0.046236
O31	O	-0.362279	1.543216	-0.243576
O32	O	0.137721	2.043216	0.256424
O33	O	-0.362252	1.396231	-0.390567
O34	O	0.137748	1.896231	0.109433
C35	C	-0.389210	1.469728	-0.317088
C36	C	0.110790	1.969728	0.182912
C37	C	-0.471750	1.469766	-0.317111
C38	C	0.028250	1.969766	0.182889
C39	C	-0.218015	1.193911	-0.352061
C40	C	0.281985	1.693911	0.147939
C41	C	-0.227344	1.075858	-0.367047
C42	C	0.272656	1.575858	0.132953
C43	C	-0.174337	1.434756	-0.594112
C44	C	0.325663	1.934756	-0.094112
C45	C	-0.165000	1.419800	-0.712163
C46	C	0.335000	1.919800	-0.212163
C47	C	-0.671210	1.389909	-0.397011
C48	C	-0.171210	1.889909	0.102989
C49	C	-0.730339	1.376320	-0.303376
C50	C	-0.230339	1.876320	0.196624
C51	C	-0.622871	1.469869	-0.317111
C52	C	-0.122871	1.969869	0.182889
C53	C	-0.710819	1.483509	-0.410750
C54	C	-0.210819	1.983509	0.089250
C55	C	-0.768847	1.469965	-0.317121
C56	C	-0.268847	1.969965	0.182879
C57	C	-0.680921	1.456236	-0.223432
C58	C	-0.180921	1.956236	0.276568
C59	C	-0.661388	1.563461	-0.330866
C60	C	-0.161388	2.063461	0.169134
C61	C	-0.720497	1.549918	-0.237160
C62	C	-0.220497	2.049918	0.262840
C63	C	-0.538778	1.469811	-0.317108
C64	C	-0.038778	1.969811	0.182892
C65	C	-0.852938	1.470025	-0.317114
C66	C	-0.352938	1.970025	0.182886
C67	C	-0.002525	1.470006	-0.317111
C68	C	0.497475	1.970006	0.182889
C69	C	0.080028	1.470071	-0.317119
C70	C	0.580028	1.970071	0.182881
C71	C	-0.201030	0.909386	-0.324777
C72	C	0.298970	1.409386	0.175223
C73	C	-0.191389	1.031400	-0.309284
C74	C	0.308611	1.531400	0.190716
C75	C	-0.174393	1.746874	-0.281982
C76	C	0.325607	2.246874	0.218018
C77	C	-0.165080	1.864923	-0.267021
C78	C	0.334920	2.364923	0.232979
C79	C	-0.200884	1.477643	-0.756608
C80	C	0.299116	1.977643	-0.256608
C81	C	-0.191235	1.462186	-0.878619
C82	C	0.308765	1.962186	-0.378619
C83	C	-0.218012	1.504876	-0.041137
C84	C	0.281988	2.004876	0.458863
C85	C	-0.227123	1.520038	0.076939
C86	C	0.272877	2.020038	0.576939
H87	H	-0.649579	1.322212	-0.464505
H88	H	-0.149579	1.822212	0.035495
H89	H	-0.265263	1.023598	-0.427966
H90	H	0.234737	1.523598	0.072034
H91	H	-0.760321	1.297216	-0.291755
H92	H	-0.260321	1.797216	0.208245
Cl93	Cl	-0.259583	0.828703	-0.418813
Cl94	Cl	0.240417	1.328703	0.081187
H95	H	-0.264988	1.581012	-0.870788
H96	H	0.235012	2.081012	-0.370788
H97	H	-0.127168	0.917189	-0.206102
H98	H	0.372832	1.417189	0.293898
Cl99	Cl	-0.660303	1.438341	-0.101158
Cl100	Cl	-0.160303	1.938341	0.398842
Cl101	Cl	-0.615094	1.685554	-0.348883
Cl102	Cl	-0.115094	2.185554	0.151117
H103	H	-0.127132	1.358839	-0.764439
H104	H	0.372868	1.858839	-0.264439
H105	H	-0.742005	1.617587	-0.169526
H106	H	-0.242005	2.117587	0.330474
H107	H	-0.153364	1.401221	-0.930892
H108	H	0.346636	1.901221	-0.430892
H109	H	-0.724275	1.495008	-0.489936
H110	H	-0.224275	1.995008	0.010064
Cl111	Cl	-0.259339	1.571782	-0.675904
Cl112	Cl	0.240661	2.071782	-0.175904
Cl113	Cl	-0.132851	1.112081	-0.215221
Cl114	Cl	0.367149	1.612081	0.284779
