data_functionalizedCrystal
_audit_creation_method	'MofGen! by Chris Wilmer'
_symmetry_space_group_name_H-M	'P1'
_symmetry_Int_Tables_number	1
_symmetry_cell_setting	triclinic
loop_
_symmetry_equiv_pos_as_xyz
  x,y,z
_cell_length_a	13.032831
_cell_length_b	13.033399
_cell_length_c	13.032268
_cell_angle_alpha	76.697509
_cell_angle_beta	90.886977
_cell_angle_gamma	89.113577
loop_
_atom_site_label
_atom_site_type_symbol
_atom_site_fract_x
_atom_site_fract_y
_atom_site_fract_z
Zn1	Zn	-1.399627	-0.702881	0.857650
Zn2	Zn	-0.899627	-0.202881	1.357650
Zn3	Zn	-1.399561	-0.857948	0.702617
Zn4	Zn	-0.899561	-0.357948	1.202617
Zn5	Zn	-1.255600	-0.659403	0.659139
Zn6	Zn	-0.755600	-0.159403	1.159139
Zn7	Zn	-1.206601	-0.852321	0.852127
Zn8	Zn	-0.706601	-0.352321	1.352127
O9	O	-1.315347	-0.768138	0.767883
O10	O	-0.815347	-0.268138	1.267883
O11	O	-1.540649	-0.744002	0.857591
O12	O	-1.040649	-0.244002	1.357591
O13	O	-1.400943	-0.815770	0.551201
O14	O	-0.900943	-0.315770	1.051201
O15	O	-1.295240	-0.519537	0.669588
O16	O	-0.795240	-0.019537	1.169588
O17	O	-1.540600	-0.857929	0.743689
O18	O	-1.040600	-0.357929	1.243689
O19	O	-1.401056	-0.551480	0.815433
O20	O	-0.901056	-0.051480	1.315433
O21	O	-1.295176	-0.669899	0.519259
O22	O	-0.795176	-0.169899	1.019259
O23	O	-1.108070	-0.664443	0.664233
O24	O	-0.608070	-0.164443	1.164233
O25	O	-1.211727	-0.848338	0.998508
O26	O	-0.711727	-0.348338	1.498508
O27	O	-1.072070	-0.806179	0.806020
O28	O	-0.572070	-0.306179	1.306020
O29	O	-1.353543	-0.738545	1.002565
O30	O	-0.853543	-0.238545	1.502565
O31	O	-1.353430	-1.002835	0.738334
O32	O	-0.853430	-0.502835	1.238334
O33	O	-1.211663	-0.998701	0.848178
O34	O	-0.711663	-0.498701	1.348178
C35	C	-1.053502	-0.729983	0.729810
C36	C	-0.553502	-0.229983	1.229810
C37	C	-0.941477	-0.713688	0.713549
C38	C	-0.441477	-0.213688	1.213549
C39	C	-1.277246	-1.038536	0.797401
C40	C	-0.777246	-0.538536	1.297401
C41	C	-1.261034	-1.154230	0.810077
C42	C	-0.761034	-0.654230	1.310077
C43	C	-1.277177	-0.797664	1.039357
C44	C	-0.777177	-0.297664	1.539357
C45	C	-1.260911	-0.810246	1.155043
C46	C	-0.760911	-0.310246	1.655043
C47	C	-1.578215	-0.806443	0.806106
C48	C	-1.078215	-0.306443	1.306106
C49	C	-1.690233	-0.822766	0.822394
C50	C	-1.190233	-0.322766	1.322394
C51	C	-0.873747	-0.776643	0.776370
C52	C	-0.373747	-0.276643	1.276370
C53	C	-0.757962	-0.759803	0.759565
C54	C	-0.257962	-0.259803	1.259565
C55	C	-1.353621	-0.496691	0.738277
C56	C	-0.853621	0.003309	1.238277
C57	C	-1.369931	-0.381017	0.725661
C58	C	-0.869931	0.118983	1.225661
C59	C	-1.307059	-0.327400	0.774385
C60	C	-0.807059	0.172600	1.274385
C61	C	-1.323915	-0.207844	0.761346
C62	C	-0.823915	0.292156	1.261346
C63	C	-1.353438	-0.738661	0.497466
C64	C	-0.853438	-0.238661	0.997466
C65	C	-1.369941	-0.725814	0.381777
C66	C	-0.869941	-0.225814	0.881777
C67	C	-1.323826	-0.761532	1.208627
C68	C	-0.823826	-0.261532	1.708627
C69	C	-1.307016	-0.774535	1.328195
C70	C	-0.807016	-0.274535	1.828195
H71	H	-0.901480	-0.843005	0.842597
H72	H	-0.401480	-0.343005	1.342597
H73	H	-0.730235	-0.693429	0.693341
H74	H	-0.230235	-0.193429	1.193341
H75	H	-1.194595	-0.861570	1.197685
H76	H	-0.694595	-0.361570	1.697685
O77	O	-0.908533	-0.634564	0.634415
O78	O	-0.408533	-0.134564	1.134415
C79	C	-0.945561	-0.649586	0.536805
C80	C	-0.445561	-0.149586	1.036805
H81	H	-1.016715	-0.700395	0.549976
H82	H	-0.516715	-0.200395	1.049976
H83	H	-0.883729	-0.690661	0.498961
H84	H	-0.383729	-0.190661	0.998961
C85	C	-0.886025	-0.479469	0.447335
C86	C	-0.386025	0.020531	0.947335
C87	C	-0.973422	-0.541866	0.463511
C88	C	-0.473422	-0.041866	0.963511
H89	H	-0.903207	-0.413023	0.402121
H90	H	-0.403207	0.086977	0.902121
H91	H	-0.861074	-0.469349	0.513096
H92	H	-0.361074	0.030651	1.013096
H93	H	-0.834506	-0.513710	0.415803
H94	H	-0.334506	-0.013710	0.915803
H95	H	-1.024934	-0.507631	0.495054
H96	H	-0.524934	-0.007631	0.995054
H97	H	-0.998382	-0.551978	0.397753
H98	H	-0.498382	-0.051978	0.897753
H99	H	-1.390133	-0.710195	1.165982
H100	H	-0.890133	-0.210195	1.665982
H101	H	-1.240696	-0.825863	1.370833
H102	H	-0.740696	-0.325863	1.870833
H103	H	-1.436241	-0.338412	0.674298
H104	H	-0.936241	0.161588	1.174298
H105	H	-0.717959	-0.889131	0.888629
H106	H	-0.217959	-0.389131	1.388629
H107	H	-1.436250	-0.674471	1.339137
H108	H	-0.936250	-0.174471	1.839137
H109	H	-1.240757	-0.370008	0.825756
H110	H	-0.740757	0.129992	1.325756
H111	H	-1.194727	-0.196833	0.861453
H112	H	-0.694727	0.303167	1.361453
O113	O	-1.402902	-0.156949	0.699922
O114	O	-0.902902	0.343051	1.199922
C115	C	-1.363777	-0.078380	0.617564
C116	C	-0.863777	0.421620	1.117564
H117	H	-1.280711	-0.098938	0.603149
H118	H	-0.780711	0.401062	1.103149
H119	H	-1.367308	0.000966	0.640327
H120	H	-0.867308	0.500966	1.140327
C121	C	-1.530503	-0.046719	0.534032
C122	C	-1.030503	0.453281	1.034032
C123	C	-1.428482	-0.071973	0.516321
C124	C	-0.928482	0.428027	1.016321
H125	H	-1.570417	-0.042763	0.471581
H126	H	-1.070417	0.457237	0.971581
H127	H	-1.556863	-0.099649	0.589520
H128	H	-1.056863	0.400351	1.089520
H129	H	-1.533430	0.019400	0.553003
H130	H	-1.033430	0.519400	1.053003
H131	H	-1.425554	-0.138097	0.497363
H132	H	-0.925554	0.361903	0.997363
H133	H	-1.402122	-0.019054	0.460827
H134	H	-0.902122	0.480946	0.960827
