data_functionalizedCrystal
_audit_creation_method	'MofGen! by Chris Wilmer'
_symmetry_space_group_name_H-M	'P1'
_symmetry_Int_Tables_number	1
_symmetry_cell_setting	triclinic
loop_
_symmetry_equiv_pos_as_xyz
  x,y,z
_cell_length_a	14.853567
_cell_length_b	14.853567
_cell_length_c	15.186229
_cell_angle_alpha	90.000386
_cell_angle_beta	90.000050
_cell_angle_gamma	96.365070
loop_
_atom_site_label
_atom_site_type_symbol
_atom_site_fract_x
_atom_site_fract_y
_atom_site_fract_z
O1	O	0.117703	-1.196363	-0.073160
O2	O	0.617703	-0.696363	0.426840
O3	O	0.131724	-0.933904	-0.073174
O4	O	0.631724	-0.433904	0.426826
O5	O	-0.006516	-1.072144	-0.073170
O6	O	0.493484	-0.572144	0.426830
O7	O	0.255943	-1.058123	-0.073165
O8	O	0.755943	-0.558123	0.426835
O9	O	-0.006518	-1.072135	0.073288
O10	O	0.493482	-0.572135	0.573288
O11	O	0.131722	-0.933895	0.073283
O12	O	0.631722	-0.433895	0.573283
O13	O	0.117701	-1.196354	0.073297
O14	O	0.617701	-0.696354	0.573297
Zn15	Zn	0.124711	-1.065123	0.096543
Zn16	Zn	0.624711	-0.565123	0.596543
Zn17	Zn	0.124714	-1.065135	-0.096421
Zn18	Zn	0.624714	-0.565135	0.403579
O19	O	0.255942	-1.058114	0.073292
O20	O	0.755942	-0.558114	0.573292
C21	C	-0.040106	-1.071504	0.000056
C22	C	0.459894	-0.571504	0.500056
C23	C	-0.140189	-1.069601	0.000049
C24	C	0.359811	-0.569601	0.500049
C25	C	0.131088	-0.900311	0.000052
C26	C	0.631088	-0.400311	0.500052
C27	C	0.129184	-0.800227	0.000047
C28	C	0.629184	-0.300227	0.500047
N29	N	0.124709	-1.065121	0.228236
N30	N	0.624709	-0.565121	0.728236
C31	C	-0.552723	-0.979435	0.000061
C32	C	-0.052723	-0.479435	0.500061
C33	C	-0.574004	-1.143668	0.000069
C34	C	-0.074004	-0.643668	0.500069
C35	C	-0.479971	-1.145458	0.000064
C36	C	0.020029	-0.645458	0.500064
C37	C	-0.422309	-1.064235	0.000059
C38	C	0.077691	-0.564235	0.500059
C39	C	-0.458680	-0.981223	0.000058
C40	C	0.041320	-0.481223	0.500058
C41	C	-0.443591	-1.228469	0.000074
C42	C	0.056409	-0.728469	0.500074
C43	C	-0.349552	-1.230262	0.000070
C44	C	0.150448	-0.730262	0.500070
C45	C	-0.291889	-1.149039	0.000058
C46	C	0.208111	-0.649039	0.500058
C47	C	-0.328266	-1.066023	0.000056
C48	C	0.171734	-0.566023	0.500056
C49	C	-0.270604	-0.984800	0.000051
C50	C	0.229396	-0.484800	0.500051
C51	C	-0.306979	-0.901783	0.000043
C52	C	0.193021	-0.401783	0.500043
C53	C	-0.401017	-0.899999	0.000046
C54	C	0.098983	-0.399999	0.500046
C55	C	-0.197851	-1.150823	0.000054
C56	C	0.302149	-0.650823	0.500054
C57	C	-0.176561	-0.986588	0.000048
C58	C	0.323439	-0.486588	0.500048
C59	C	0.289531	-1.058754	0.000064
C60	C	0.789531	-0.558754	0.500064
C61	C	0.389615	-1.060657	0.000066
C62	C	0.889615	-0.560657	0.500066
C63	C	0.118337	-1.229947	0.000068
C64	C	0.618337	-0.729947	0.500068
C65	C	0.120241	-1.330031	0.000068
C66	C	0.620241	-0.830031	0.500068
C67	C	0.039019	-0.387693	0.000065
C68	C	0.539019	0.112307	0.500065
C69	C	0.203251	-0.366412	0.000067
C70	C	0.703251	0.133588	0.500067
C71	C	0.205042	-0.460446	0.000064
C72	C	0.705042	0.039554	0.500064
C73	C	0.123819	-0.518108	0.000060
C74	C	0.623819	-0.018108	0.500060
C75	C	0.040806	-0.481736	0.000059
C76	C	0.540806	0.018264	0.500059
C77	C	0.288053	-0.496825	0.000056
C78	C	0.788053	0.003175	0.500056
C79	C	0.289846	-0.590864	0.000052
C80	C	0.789846	-0.090864	0.500052
C81	C	0.208623	-0.648528	0.000055
C82	C	0.708623	-0.148528	0.500055
C83	C	0.125607	-0.612150	0.000055
C84	C	0.625607	-0.112150	0.500055
C85	C	0.044384	-0.669812	0.000051
C86	C	0.544384	-0.169812	0.500051
C87	C	-0.038633	-0.633437	0.000057
C88	C	0.461367	-0.133437	0.500057
C89	C	-0.040417	-0.539399	0.000062
C90	C	0.459583	-0.039399	0.500062
C91	C	0.210407	-0.742565	0.000050
C92	C	0.710407	-0.242565	0.500050
C93	C	0.046172	-0.763855	0.000046
C94	C	0.546172	-0.263855	0.500046
N95	N	0.124709	-1.065144	-0.228113
N96	N	0.624709	-0.565144	0.271887
C97	C	0.063517	-1.126355	0.453961
C98	C	0.563517	-0.626355	0.953961
C99	C	0.063515	-1.126358	0.546150
C100	C	0.563515	-0.626358	1.046150
C101	C	0.185904	-1.003904	0.546155
C102	C	0.685904	-0.503904	1.046155
C103	C	0.185901	-1.003897	0.453967
C104	C	0.685901	-0.503897	0.953967
C105	C	0.124709	-1.065128	0.407872
C106	C	0.624709	-0.565128	0.907872
C107	C	0.124710	-1.065137	0.592250
C108	C	0.624710	-0.565137	1.092250
C109	C	0.124708	-1.065140	0.692206
C110	C	0.624708	-0.565140	1.192206
C111	C	0.124709	-1.065124	0.307910
C112	C	0.624709	-0.565124	0.807910
H113	H	-0.129618	-0.920445	0.000040
H114	H	0.370382	-0.420445	0.500040
H115	H	0.235732	-0.954035	0.416440
H116	H	0.735732	-0.454035	0.916440
Cl117	Cl	-0.234480	-0.799679	0.000043
Cl118	Cl	0.265520	-0.299679	0.500043
H119	H	-0.430643	-0.832411	0.000041
H120	H	0.069357	-0.332411	0.500041
H121	H	-0.019971	-0.810798	0.000046
H122	H	0.480029	-0.310798	0.500046
Cl123	Cl	-0.013414	-1.203327	0.396017
Cl124	Cl	0.486586	-0.703327	0.896017
H125	H	0.013686	-1.176213	0.583673
H126	H	0.513686	-0.676213	1.083673
Cl127	Cl	0.314762	-0.788291	0.000036
Cl128	Cl	0.814762	-0.288291	0.500036
H129	H	0.357443	-0.620472	0.000047
H130	H	0.857443	-0.120472	0.500047
Cl131	Cl	-0.598450	-0.875076	0.000042
Cl132	Cl	-0.098450	-0.375076	0.500042
Cl133	Cl	-0.303832	-1.334624	0.000065
Cl134	Cl	0.196168	-0.834624	0.500065
Cl135	Cl	-0.516083	-1.330570	0.000100
Cl136	Cl	-0.016083	-0.830570	0.500100
H137	H	-0.104764	-0.680397	0.000048
H138	H	0.395236	-0.180397	0.500048
H139	H	0.235727	-0.954052	0.583695
H140	H	0.735727	-0.454052	1.083695
H141	H	-0.108005	-0.509774	0.000088
H142	H	0.391995	-0.009774	0.500088
Cl143	Cl	-0.152125	-1.255178	0.000080
Cl144	Cl	0.347875	-0.755178	0.500080
Cl145	Cl	-0.065340	-0.341967	0.000077
Cl146	Cl	0.434660	0.158033	0.500077
Cl147	Cl	0.305354	-0.293923	0.000059
Cl148	Cl	0.805354	0.206077	0.500059
Cl149	Cl	0.390154	-0.424333	0.000046
Cl150	Cl	0.890154	0.075667	0.500046
H151	H	-0.620958	-1.209795	0.000081
H152	H	-0.120958	-0.709795	0.500081
