data_functionalizedCrystal
_audit_creation_method	'MofGen! by Chris Wilmer'
_symmetry_space_group_name_H-M	'P1'
_symmetry_Int_Tables_number	1
_symmetry_cell_setting	triclinic
loop_
_symmetry_equiv_pos_as_xyz
  x,y,z
_cell_length_a	14.519731
_cell_length_b	10.723023
_cell_length_c	9.798715
_cell_angle_alpha	89.997861
_cell_angle_beta	89.996220
_cell_angle_gamma	84.078200
loop_
_atom_site_label
_atom_site_type_symbol
_atom_site_fract_x
_atom_site_fract_y
_atom_site_fract_z
O1	O	1.224690	0.163698	-0.113491
O2	O	1.724690	0.663698	0.386509
O3	O	0.956314	0.182934	-0.113493
O4	O	1.456314	0.682934	0.386507
O5	O	1.096693	-0.008318	-0.113486
O6	O	1.596693	0.491682	0.386514
O7	O	1.084311	0.354949	-0.113497
O8	O	1.584311	0.854949	0.386503
O9	O	1.096683	-0.008318	0.113496
O10	O	1.596683	0.491682	0.613496
O11	O	0.956304	0.182933	0.113490
O12	O	1.456304	0.682933	0.613490
O13	O	1.224680	0.163698	0.113491
O14	O	1.724680	0.663698	0.613491
Zn15	Zn	1.090490	0.173315	0.149529
Zn16	Zn	1.590490	0.673315	0.649529
Zn17	Zn	1.090504	0.173316	-0.149530
Zn18	Zn	1.590504	0.673316	0.350470
O19	O	1.084301	0.354949	0.113485
O20	O	1.584301	0.854949	0.613485
C21	C	0.921945	0.182032	-0.000002
C22	C	1.421945	0.682032	0.499998
C23	C	0.819551	0.179331	-0.000002
C24	C	1.319551	0.679331	0.499998
C25	C	1.095787	-0.054809	0.000004
C26	C	1.595787	0.445191	0.500004
C27	C	1.093092	-0.193338	-0.000001
C28	C	1.593092	0.306662	0.499999
C29	C	1.091895	-0.255093	-0.117586
C30	C	1.591895	0.244907	0.382414
C31	C	1.089110	-0.398270	-0.117594
C32	C	1.589110	0.101730	0.382406
C33	C	0.736396	0.177137	-0.000008
C34	C	1.236396	0.677137	0.499992
C35	C	0.632073	0.174395	-0.000008
C36	C	1.132073	0.674395	0.499992
C37	C	0.548923	0.172218	-0.000008
C38	C	1.048923	0.672218	0.499992
C39	C	0.444593	0.169476	-0.000011
C40	C	0.944593	0.669476	0.499989
C41	C	1.259049	0.164599	-0.000003
C42	C	1.759049	0.664599	0.499997
C43	C	1.361443	0.167300	-0.000011
C44	C	1.861443	0.667300	0.499989
C45	C	1.085207	0.401441	-0.000008
C46	C	1.585207	0.901441	0.499992
C47	C	1.087902	0.539970	-0.000012
C48	C	1.587902	1.039970	0.499988
N49	N	1.090487	0.173314	0.353628
N50	N	1.590487	0.673314	0.853628
N51	N	1.090514	0.173307	-0.353630
N52	N	1.590514	0.673307	0.146370
C53	C	1.149429	0.092662	0.421408
C54	C	1.649429	0.592662	0.921408
C55	C	1.149443	0.092657	0.578571
C56	C	1.649443	0.592657	1.078571
H57	H	1.092930	-0.201964	-0.218250
H58	H	1.592930	0.298036	0.281750
H59	H	1.088936	-0.406932	0.100662
H60	H	1.588936	0.093068	0.600662
H61	H	1.040033	0.242356	0.411951
H62	H	1.540033	0.742356	0.911951
H63	H	1.088085	-0.451378	-0.218263
H64	H	1.588085	0.048622	0.281737
Cl65	Cl	1.091481	-0.275352	0.155425
Cl66	Cl	1.591481	0.224648	0.655425
Cl67	Cl	1.227115	-0.014226	0.331373
Cl68	Cl	1.727115	0.485774	0.831373
Cl69	Cl	1.227362	-0.013949	0.668557
Cl70	Cl	1.727362	0.486051	1.168557
H71	H	1.040053	0.242365	0.588091
H72	H	1.540053	0.742365	1.088091
