data_functionalizedCrystal
_audit_creation_method	'MofGen! by Chris Wilmer'
_symmetry_space_group_name_H-M	'P1'
_symmetry_Int_Tables_number	1
_symmetry_cell_setting	triclinic
loop_
_symmetry_equiv_pos_as_xyz
  x,y,z
_cell_length_a	11.026607
_cell_length_b	14.185328
_cell_length_c	11.026607
_cell_angle_alpha	101.507961
_cell_angle_beta	108.586017
_cell_angle_gamma	101.510299
loop_
_atom_site_label
_atom_site_type_symbol
_atom_site_fract_x
_atom_site_fract_y
_atom_site_fract_z
O1	O	1.758156	0.083419	0.565044
O2	O	1.391576	0.083421	0.504281
O3	O	1.544483	0.083416	0.351371
O4	O	1.605249	0.083423	0.717954
O5	O	1.481618	-0.083427	0.288519
O6	O	1.328712	-0.083423	0.441428
O7	O	1.695291	-0.083424	0.502191
Cu8	Cu	1.506261	-0.098658	0.466071
Cu9	Cu	1.580606	0.098654	0.540402
O10	O	1.542384	-0.083420	0.655101
C11	C	1.312484	-0.000001	0.461645
C12	C	1.170471	-0.000000	0.428228
C13	C	1.116822	0.000002	0.520499
C14	C	0.970044	0.000003	0.485963
N15	N	1.453980	-0.237436	0.413792
C16	C	1.786401	-0.605039	0.746282
C17	C	1.746824	-0.710066	0.706668
C18	C	1.558493	-0.710054	0.518250
C19	C	1.598050	-0.605024	0.557852
C20	C	1.712006	-0.552525	0.671868
C21	C	1.523655	-0.552511	0.483437
C22	C	1.563214	-0.447491	0.523032
C23	C	1.677167	-0.394984	0.637042
C24	C	1.751565	-0.447505	0.711463
C25	C	1.409706	-0.605012	0.369416
C26	C	1.335311	-0.552498	0.295002
C27	C	1.374863	-0.447476	0.334602
C28	C	1.488817	-0.394970	0.448611
C29	C	1.300466	-0.394955	0.260181
C30	C	1.340025	-0.289935	0.299776
C31	C	1.528375	-0.289950	0.488206
C32	C	1.774384	-0.000001	0.544828
C33	C	1.916400	0.000005	0.578247
C34	C	1.501841	-0.000004	0.272286
C35	C	1.468426	-0.000000	0.130273
N36	N	1.632895	0.237432	0.592673
C37	C	1.560696	0.000001	0.076624
C38	C	1.526161	0.000005	-0.070153
C39	C	1.585027	0.000003	0.734188
C40	C	1.618445	0.000006	0.876203
H41	H	1.621158	-0.247202	0.581060
H42	H	1.844348	-0.404758	0.804317
H43	H	0.979126	0.000001	0.682816
Cl44	Cl	1.726905	-0.262957	0.686818
H45	H	1.421594	0.000012	-0.132879
H46	H	1.879184	-0.562291	0.839136
Cl47	Cl	1.722140	0.000006	0.173471
Cl48	Cl	1.840368	-0.776081	0.800226
H49	H	1.723043	0.000081	-0.061042
Cl50	Cl	1.306987	0.000011	0.033432
H51	H	1.179554	-0.000001	0.625060
Cl52	Cl	0.873199	-0.000007	0.324510
H53	H	1.279443	-0.247177	0.239181
Cl54	Cl	1.073622	-0.000010	0.266782
Cl55	Cl	1.415238	-0.776062	0.374921
H56	H	1.242530	-0.595257	0.202166
Cl57	Cl	1.359983	-0.737039	0.319631
H58	H	1.207690	-0.437715	0.167341
