data_functionalizedCrystal
_audit_creation_method	'MofGen! by Chris Wilmer'
_symmetry_space_group_name_H-M	'P1'
_symmetry_Int_Tables_number	1
_symmetry_cell_setting	triclinic
loop_
_symmetry_equiv_pos_as_xyz
  x,y,z
_cell_length_a	9.065218
_cell_length_b	11.026607
_cell_length_c	7.540329
_cell_angle_alpha	89.998289
_cell_angle_beta	89.996962
_cell_angle_gamma	96.800951
loop_
_atom_site_label
_atom_site_type_symbol
_atom_site_fract_x
_atom_site_fract_y
_atom_site_fract_z
O1	O	2.004900	0.178453	-0.147482
O2	O	1.579265	0.193091	-0.147484
O3	O	1.756807	0.008731	-0.147476
O4	O	1.827359	0.362813	-0.147489
O5	O	1.756792	0.008729	0.147489
O6	O	1.579251	0.193088	0.147481
O7	O	2.004886	0.178451	0.147483
Cu8	Cu	1.792067	0.185769	0.174415
Cu9	Cu	1.792084	0.185772	-0.174415
O10	O	1.827345	0.362810	0.147476
C11	C	1.523921	0.191683	-0.000002
C12	C	1.359029	0.187476	-0.000002
C13	C	1.743784	-0.036624	0.000004
C14	C	1.704984	-0.171765	-0.000003
C15	C	1.812117	-0.244393	-0.000005
C16	C	1.772018	-0.384068	-0.000011
C17	C	2.060230	0.179859	-0.000003
C18	C	2.225122	0.184065	-0.000014
C19	C	1.840368	0.408165	-0.000008
C20	C	1.879168	0.543306	-0.000013
N21	N	1.792066	0.185767	0.419763
N22	N	1.792094	0.185765	-0.419764
H23	H	1.933525	-0.203167	0.000007
C24	C	1.470523	-0.188910	0.151616
C25	C	1.541080	-0.227400	-0.000011
H26	H	1.369332	-0.223250	0.151600
H27	H	1.518386	-0.215030	0.254457
H28	H	1.475981	-0.102343	0.151604
H29	H	1.535632	-0.313967	0.000007
H30	H	1.493203	-0.201287	-0.102879
C31	C	2.134469	-0.494929	-0.000016
C32	C	2.043079	-0.401065	-0.000011
H33	H	2.235658	-0.460582	-0.000025
H34	H	2.114871	-0.543925	0.102837
H35	H	2.114871	-0.543924	-0.102885
H36	H	2.062670	-0.352074	0.102865
H37	H	2.062686	-0.352047	-0.102875
H38	H	1.650603	-0.425288	-0.000024
