data_functionalizedCrystal
_audit_creation_method	'MofGen! by Chris Wilmer'
_symmetry_space_group_name_H-M	'P1'
_symmetry_Int_Tables_number	1
_symmetry_cell_setting	triclinic
loop_
_symmetry_equiv_pos_as_xyz
  x,y,z
_cell_length_a	23.532407
_cell_length_b	8.559649
_cell_length_c	7.681481
_cell_angle_alpha	94.930900
_cell_angle_beta	84.307441
_cell_angle_gamma	76.313671
loop_
_atom_site_label
_atom_site_type_symbol
_atom_site_fract_x
_atom_site_fract_y
_atom_site_fract_z
O1	O	-0.741120	-0.209300	-0.146206
O2	O	-0.574083	-0.237390	-0.146257
O3	O	-0.672318	0.009491	-0.146225
O4	O	-0.642885	-0.456182	-0.146237
O5	O	-0.684412	0.039946	0.146637
O6	O	-0.586177	-0.206935	0.146605
O7	O	-0.753214	-0.178845	0.146656
Zn8	Zn	-0.671616	-0.188055	0.193129
Zn9	Zn	-0.655681	-0.228181	-0.192729
O10	O	-0.654979	-0.425726	0.146624
C11	C	-0.558943	-0.221448	0.000168
C12	C	-0.495815	-0.219300	0.000148
C13	C	-0.680595	0.084283	0.000203
C14	C	-0.687234	0.261768	0.000196
C15	C	-0.768353	-0.194788	0.000228
C16	C	-0.831481	-0.196937	0.000236
C17	C	-0.091182	-0.351903	0.000224
C18	C	-0.031866	-0.349904	0.000235
O19	O	0.010005	-0.472829	0.000296
N20	N	-0.015363	-0.203135	0.000236
C21	C	-0.058182	-0.058354	0.000244
O22	O	-0.038698	0.066668	0.000248
C23	C	-0.117498	-0.060353	0.000246
C24	C	-0.133996	-0.207133	0.000227
C25	C	-0.107682	-0.498671	0.000207
C26	C	-0.166994	-0.500669	0.000193
C27	C	-0.209807	-0.355899	0.000196
C28	C	-0.193308	-0.209131	0.000213
C29	C	-0.160315	0.084429	0.000267
C30	C	-0.219634	0.082417	0.000270
C31	C	-0.236132	-0.064363	0.000251
C32	C	-0.295433	-0.066359	0.000202
N33	N	-0.311936	-0.213128	0.000201
C34	C	-0.269123	-0.357898	0.000198
C35	C	0.066386	-0.054167	0.000244
C36	C	0.125701	-0.052167	0.000229
C37	C	0.152013	-0.343718	0.000223
C38	C	0.092697	-0.345717	0.000225
C39	C	0.049883	-0.200935	0.000243
C40	C	-0.393684	-0.362084	0.000167
C41	C	-0.453002	-0.364070	0.000145
C42	C	-0.479309	-0.072519	0.000160
C43	C	-0.419995	-0.070533	0.000173
C44	C	-0.377183	-0.215328	0.000182
O45	O	-0.337336	0.056502	0.000148
O46	O	-0.288616	-0.482897	0.000218
C47	C	-0.646702	-0.500519	0.000192
C48	C	-0.640062	-0.678005	0.000188
N49	N	-0.682495	-0.160668	0.456466
N50	N	-0.644807	-0.255554	-0.456067
H51	H	-0.466430	-0.483601	0.000129
H52	H	-0.720972	-0.063824	0.531685
O53	O	-0.352173	-0.502891	0.000085
C54	C	-0.379468	-0.632840	0.000107
H55	H	-0.423315	-0.597268	-0.055334
H56	H	-0.349619	-0.743060	-0.084932
H57	H	-0.387540	-0.663275	0.140601
O58	O	-0.182929	-0.643384	-0.000048
C59	C	-0.154163	-0.747325	-0.151745
H60	H	-0.112755	-0.709642	-0.202311
H61	H	-0.141491	-0.877061	-0.117633
H62	H	-0.184980	-0.739322	-0.257956
O63	O	-0.066035	-0.639235	-0.000041
C64	C	-0.024680	-0.662603	-0.151749
H65	H	-0.025119	-0.540995	-0.202296
H66	H	0.021189	-0.719382	-0.117658
H67	H	-0.036669	-0.746327	-0.257966
O68	O	-0.741525	0.362020	0.000295
C69	C	-0.784046	0.270385	0.000248
H70	H	-0.766476	0.151409	0.055677
H71	H	-0.826238	0.341428	0.085287
H72	H	-0.793809	0.244220	-0.140251
O73	O	0.076755	-0.488423	-0.000016
C74	C	0.105513	-0.592366	-0.151720
H75	H	0.146924	-0.554706	-0.202292
H76	H	0.118177	-0.722106	-0.117615
H77	H	0.074693	-0.584341	-0.257924
O78	O	0.141766	0.090340	-0.000087
C79	C	0.181570	0.084443	-0.151734
H80	H	0.175550	-0.009915	-0.257750
H81	H	0.172705	0.208098	-0.202644
H82	H	0.228641	0.050380	-0.117434
O83	O	-0.404025	0.072117	-0.000063
C84	C	-0.420234	0.144517	-0.151765
H85	H	-0.457467	0.096358	-0.202354
H86	H	-0.435710	0.281352	-0.117650
H87	H	-0.380632	0.114388	-0.257959
H88	H	-0.606336	-0.352404	0.468724
H89	H	0.031529	0.063738	0.000242
O90	O	0.193679	-0.484197	0.000307
C91	C	0.249569	-0.450946	0.000269
H92	H	0.244065	-0.319624	0.055716
H93	H	0.277004	-0.534431	0.085295
H94	H	0.272833	-0.471895	-0.140230
O95	O	-0.261188	0.223071	-0.000034
C96	C	-0.248416	0.296489	-0.151679
H97	H	-0.220029	0.200721	-0.257693
H98	H	-0.291286	0.356011	-0.202597
H99	H	-0.223606	0.392103	-0.117373
O100	O	-0.144235	0.226935	0.000526
C101	C	-0.116997	0.252609	0.152231
H102	H	-0.098770	0.131600	0.202781
H103	H	-0.079450	0.312186	0.118135
H104	H	-0.150744	0.334800	0.258447
O105	O	-0.520948	0.067974	-0.000067
C106	C	-0.549768	0.059784	-0.151763
H107	H	-0.545132	-0.072339	-0.202352
H108	H	-0.598459	0.123598	-0.117641
H109	H	-0.529018	0.121470	-0.257960
O110	O	-0.585781	0.221766	0.000239
C111	C	-0.543254	0.313387	0.000186
H112	H	-0.565401	0.443888	0.055648
H113	H	-0.508084	0.260012	0.085191
H114	H	-0.521887	0.310347	-0.140320
