data_functionalizedCrystal
_audit_creation_method	'MofGen! by Chris Wilmer'
_symmetry_space_group_name_H-M	'P1'
_symmetry_Int_Tables_number	1
_symmetry_cell_setting	triclinic
loop_
_symmetry_equiv_pos_as_xyz
  x,y,z
_cell_length_a	12.594517
_cell_length_b	18.050589
_cell_length_c	12.594517
_cell_angle_alpha	89.983934
_cell_angle_beta	90.010336
_cell_angle_gamma	89.964653
loop_
_atom_site_label
_atom_site_type_symbol
_atom_site_fract_x
_atom_site_fract_y
_atom_site_fract_z
Zn1	Zn	1.626995	0.295753	0.601869
Zn2	Zn	1.876995	0.545753	0.851869
Zn3	Zn	2.126995	0.795753	1.101869
Zn4	Zn	2.376995	1.045753	1.351869
Zn5	Zn	1.626861	0.419926	0.423884
Zn6	Zn	1.876861	0.669926	0.673884
Zn7	Zn	2.126861	0.919926	0.923884
Zn8	Zn	2.376861	1.169926	1.173884
Zn9	Zn	1.449036	0.295753	0.423895
Zn10	Zn	1.699036	0.545753	0.673895
Zn11	Zn	1.949036	0.795753	0.923895
Zn12	Zn	2.199036	1.045753	1.173895
Zn13	Zn	1.448920	0.419904	0.601811
Zn14	Zn	1.698920	0.669904	0.851811
Zn15	Zn	1.948920	0.919904	1.101811
Zn16	Zn	2.198920	1.169904	1.351811
O17	O	1.537953	0.357834	0.512865
O18	O	1.787953	0.607834	0.762865
O19	O	2.037953	0.857834	1.012865
O20	O	2.287953	1.107834	1.262865
O21	O	1.775923	0.312234	0.578279
O22	O	2.025923	0.562234	0.828279
O23	O	2.275923	0.812234	1.078279
O24	O	2.525923	1.062234	1.328279
O25	O	1.603265	0.403463	0.274940
O26	O	1.853265	0.653463	0.524940
O27	O	2.103265	0.903463	0.774940
O28	O	2.353265	1.153463	1.024940
O29	O	1.472747	0.191828	0.447533
O30	O	1.722747	0.441828	0.697533
O31	O	1.972747	0.691828	0.947533
O32	O	2.222747	0.941828	1.197533
O33	O	1.775825	0.403463	0.447514
O34	O	2.025825	0.653463	0.697514
O35	O	2.275825	0.903463	0.947514
O36	O	2.525825	1.153463	1.197514
O37	O	1.603493	0.191828	0.578290
O38	O	1.853493	0.441828	0.828290
O39	O	2.103493	0.691828	1.078290
O40	O	2.353493	0.941828	1.328290
O41	O	1.472618	0.312234	0.274948
O42	O	1.722618	0.562234	0.524948
O43	O	1.972618	0.812234	0.774948
O44	O	2.222618	1.062234	1.024948
O45	O	1.300075	0.312213	0.447477
O46	O	1.550075	0.562213	0.697477
O47	O	1.800075	0.812213	0.947477
O48	O	2.050075	1.062213	1.197477
O49	O	1.472549	0.403426	0.750765
O50	O	1.722549	0.653426	1.000765
O51	O	1.972549	0.903426	1.250765
O52	O	2.222549	1.153426	1.500765
O53	O	1.299989	0.403426	0.578191
O54	O	1.549989	0.653426	0.828191
O55	O	1.799989	0.903426	1.078191
O56	O	2.049989	1.153426	1.328191
O57	O	1.603380	0.312213	0.750807
O58	O	1.853380	0.562213	1.000807
O59	O	2.103380	0.812213	1.250807
O60	O	2.353380	1.062213	1.500807
O61	O	1.603152	0.523848	0.447458
O62	O	1.853152	0.773848	0.697458
O63	O	2.103152	1.023848	0.947458
O64	O	2.353152	1.273848	1.197458
O65	O	1.472419	0.523832	0.578180
O66	O	1.722419	0.773832	0.828180
O67	O	1.972419	1.023832	1.078180
O68	O	2.222419	1.273832	1.328180
C69	C	1.261412	0.357818	0.512830
C70	C	1.511412	0.607818	0.762830
C71	C	1.761412	0.857818	1.012830
C72	C	2.011412	1.107818	1.262830
C73	C	1.143107	0.357829	0.512840
C74	C	1.393107	0.607829	0.762840
C75	C	1.643107	0.857829	1.012840
C76	C	1.893107	1.107829	1.262840
C77	C	1.003106	0.308163	0.441907
C78	C	1.253106	0.558163	0.691907
C79	C	1.503106	0.808163	0.941907
C80	C	1.753106	1.058163	1.191907
C81	C	1.073953	0.290086	0.539034
C82	C	1.323953	0.540086	0.789034
C83	C	1.573953	0.790086	1.039034
C84	C	1.823953	1.040086	1.289034
C85	C	1.073831	0.375873	0.415723
C86	C	1.323831	0.625873	0.665723
C87	C	1.573831	0.875873	0.915723
C88	C	1.823831	1.125873	1.165723
C89	C	1.003169	0.339745	0.610096
C90	C	1.253169	0.589745	0.860096
C91	C	1.503169	0.839745	1.110096
C92	C	1.753169	1.089745	1.360096
C93	C	1.003040	0.425564	0.486720
C94	C	1.253040	0.675564	0.736720
C95	C	1.503040	0.925564	0.986720
C96	C	1.753040	1.175564	1.236720
C97	C	1.073856	0.407512	0.583914
C98	C	1.323856	0.657512	0.833914
C99	C	1.573856	0.907512	1.083914
C100	C	1.823856	1.157512	1.333914
C101	C	1.537787	0.550786	0.512835
C102	C	1.787787	0.800786	0.762835
C103	C	2.037787	1.050786	1.012835
C104	C	2.287787	1.300786	1.262835
C105	C	1.537814	0.633332	0.512857
C106	C	1.787814	0.883332	0.762857
C107	C	2.037814	1.133332	1.012857
C108	C	2.287814	1.383332	1.262857
C109	C	1.466794	0.882176	0.583947
C110	C	1.716794	1.132176	0.833947
C111	C	1.966794	1.382176	1.083947
C112	C	2.216794	1.632176	1.333947
C113	C	1.563851	0.832709	0.610067
C114	C	1.813851	1.082709	0.860067
C115	C	2.063851	1.332709	1.110067
C116	C	2.313851	1.582709	1.360067
C117	C	1.537988	0.930452	0.512919
C118	C	1.787988	1.180452	0.762919
C119	C	2.037988	1.430452	1.012919
C120	C	2.287988	1.680452	1.262919
C121	C	1.440850	0.832837	0.486818
C122	C	1.690850	1.082837	0.736818
C123	C	1.940850	1.332837	0.986818
C124	C	2.190850	1.582837	1.236818
C125	C	1.537897	0.784467	0.512891
C126	C	1.787897	1.034467	0.762891
C127	C	2.037897	1.284467	1.012891
C128	C	2.287897	1.534467	1.262891
C129	C	1.635097	0.882073	0.539090
C130	C	1.885097	1.132073	0.789090
C131	C	2.135097	1.382073	1.039090
C132	C	2.385097	1.632073	1.289090
C133	C	1.512031	0.882205	0.415796
C134	C	1.762031	1.132205	0.665796
C135	C	2.012031	1.382205	0.915796
C136	C	2.262031	1.632205	1.165796
C137	C	1.609155	0.832761	0.441880
C138	C	1.859155	1.082761	0.691880
C139	C	2.109155	1.332761	0.941880
C140	C	2.359155	1.582761	1.191880
C141	C	1.538038	1.014551	0.512938
C142	C	1.788038	1.264551	0.762938
C143	C	2.038038	1.514551	1.012938
C144	C	2.288038	1.764551	1.262938
C145	C	1.537857	0.700371	0.512873
C146	C	1.787857	0.950371	0.762873
C147	C	2.037857	1.200371	1.012873
C148	C	2.287857	1.450371	1.262873
C149	C	1.815574	0.357851	0.512902
C150	C	2.065574	0.607851	0.762902
C151	C	2.315574	0.857851	1.012902
C152	C	2.565574	1.107851	1.262902
C153	C	1.933879	0.357858	0.512917
C154	C	2.183879	0.607858	0.762917
C155	C	2.433879	0.857858	1.012917
C156	C	2.683879	1.107858	1.262917
C157	C	1.537967	0.357817	0.790486
C158	C	1.787967	0.607817	1.040486
C159	C	2.037967	0.857817	1.290486
C160	C	2.287967	1.107817	1.540486
C161	C	1.537973	0.357810	0.908791
C162	C	1.787973	0.607810	1.158791
C163	C	2.037973	0.857810	1.408791
C164	C	2.287973	1.107810	1.658791
C165	C	1.538108	1.164128	0.512921
C166	C	1.788108	1.414128	0.762921
C167	C	2.038108	1.664128	1.012921
C168	C	2.288108	1.914128	1.262921
C169	C	1.538073	1.081583	0.512950
C170	C	1.788073	1.331583	0.762950
C171	C	2.038073	1.581583	1.012950
C172	C	2.288073	1.831583	1.262950
C173	C	1.609124	0.308218	1.048831
C174	C	1.859124	0.558218	1.298831
C175	C	2.109124	0.808218	1.548831
C176	C	2.359124	1.058218	1.798831
C177	C	1.635095	0.375966	0.978007
C178	C	1.885095	0.625966	1.228007
C179	C	2.135095	0.875966	1.478007
C180	C	2.385095	1.125966	1.728007
C181	C	1.512050	0.290070	0.978044
C182	C	1.762050	0.540070	1.228044
C183	C	2.012050	0.790070	1.478044
C184	C	2.262050	1.040070	1.728044
C185	C	1.563989	0.425622	1.048753
C186	C	1.813989	0.675622	1.298753
C187	C	2.063989	0.925622	1.548753
C188	C	2.313989	1.175622	1.798753
C189	C	1.440899	0.339680	1.048796
C190	C	1.690899	0.589680	1.298796
C191	C	1.940899	0.839680	1.548796
C192	C	2.190899	1.089680	1.798796
C193	C	1.466832	0.407475	0.978004
C194	C	1.716832	0.657475	1.228004
C195	C	1.966832	0.907475	1.478004
C196	C	2.216832	1.157475	1.728004
C197	C	1.537942	0.357858	1.236324
C198	C	1.787942	0.607858	1.486324
C199	C	2.037942	0.857858	1.736324
C200	C	2.287942	1.107858	1.986324
C201	C	1.537968	0.357838	1.118019
C202	C	1.787968	0.607838	1.368019
C203	C	2.037968	0.857838	1.618019
C204	C	2.287968	1.107838	1.868019
H205	H	1.104873	0.391122	0.333560
H206	H	1.354873	0.641122	0.583560
H207	H	1.604873	0.891122	0.833560
H208	H	1.854873	1.141122	1.083560
H209	H	1.585774	0.810970	0.692191
H210	H	1.835774	1.060970	0.942191
H211	H	2.085774	1.310970	1.192191
H212	H	2.335774	1.560970	1.442191
H213	H	1.490127	0.232771	0.946980
H214	H	1.740127	0.482771	1.196980
H215	H	1.990127	0.732771	1.446980
H216	H	2.240127	0.982771	1.696980
H217	H	1.717230	0.903612	0.561250
H218	H	1.967230	1.153612	0.811250
H219	H	2.217230	1.403612	1.061250
H220	H	2.467230	1.653612	1.311250
H221	H	1.669392	0.811202	0.381802
H222	H	1.919392	1.061202	0.631802
H223	H	2.169392	1.311202	0.881802
H224	H	2.419392	1.561202	1.131802
H225	H	0.972043	0.266119	0.381963
H226	H	1.222043	0.516119	0.631963
H227	H	1.472043	0.766119	0.881963
H228	H	1.722043	1.016119	1.131963
H229	H	1.717186	0.391315	0.946910
H230	H	1.967186	0.641315	1.196910
H231	H	2.217186	0.891315	1.446910
H232	H	2.467186	1.141315	1.696910
H233	H	0.971870	0.482818	0.464560
H234	H	1.221870	0.732818	0.714560
H235	H	1.471870	0.982818	0.964560
H236	H	1.721870	1.232818	1.214560
H237	H	1.406700	0.903870	0.644070
H238	H	1.656700	1.153870	0.894070
H239	H	1.906700	1.403870	1.144070
H240	H	2.156700	1.653870	1.394070
H241	H	1.490079	0.903961	0.333696
H242	H	1.740079	1.153961	0.583696
H243	H	1.990079	1.403961	0.833696
H244	H	2.240079	1.653961	1.083696
H245	H	0.972258	0.324429	0.692283
H246	H	1.222258	0.574429	0.942283
H247	H	1.472258	0.824429	1.192283
H248	H	1.722258	1.074429	1.442283
H249	H	1.358741	0.811206	0.464754
H250	H	1.608741	1.061206	0.714754
H251	H	1.858741	1.311206	0.964754
H252	H	2.108741	1.561206	1.214754
H253	H	1.105082	0.232813	0.561178
H254	H	1.355082	0.482813	0.811178
H255	H	1.605082	0.732813	1.061178
H256	H	1.855082	0.982813	1.311178
H257	H	1.669343	0.266320	1.079928
H258	H	1.919343	0.516320	1.329928
H259	H	2.169343	0.766320	1.579928
H260	H	2.419343	1.016320	1.829928
H261	H	1.586031	0.482933	1.079684
H262	H	1.836031	0.732933	1.329684
H263	H	2.086031	0.982933	1.579684
H264	H	2.336031	1.232933	1.829684
H265	H	1.406659	0.449473	0.947102
H266	H	1.656659	0.699473	1.197102
H267	H	1.906659	0.949473	1.447102
H268	H	2.156659	1.199473	1.697102
H269	H	1.104723	0.449525	0.644001
H270	H	1.354723	0.699525	0.894001
H271	H	1.604723	0.949525	1.144001
H272	H	1.854723	1.199525	1.394001
H273	H	1.358831	0.324309	1.079915
H274	H	1.608831	0.574309	1.329915
H275	H	1.858831	0.824309	1.579915
H276	H	2.108831	1.074309	1.829915
