data_functionalizedCrystal
_audit_creation_method	'MofGen! by Chris Wilmer'
_symmetry_space_group_name_H-M	'P1'
_symmetry_Int_Tables_number	1
_symmetry_cell_setting	triclinic
loop_
_symmetry_equiv_pos_as_xyz
  x,y,z
_cell_length_a	9.065215
_cell_length_b	11.804365
_cell_length_c	9.065218
_cell_angle_alpha	102.010614
_cell_angle_beta	94.984709
_cell_angle_gamma	102.025519
loop_
_atom_site_label
_atom_site_type_symbol
_atom_site_fract_x
_atom_site_fract_y
_atom_site_fract_z
O1	O	1.989810	0.099008	-0.186947
O2	O	1.560526	0.099013	-0.204696
O3	O	1.784041	0.099008	0.018820
O4	O	1.766296	0.099013	-0.410463
O5	O	1.725197	-0.099047	-0.039963
O6	O	1.501683	-0.099042	-0.263480
O7	O	1.930967	-0.099047	-0.245730
Cu8	Cu	1.710952	-0.117128	-0.259972
Cu9	Cu	1.780541	0.117095	-0.190454
O10	O	1.707452	-0.099042	-0.469247
C11	C	1.476118	-0.000014	-0.232383
C12	C	1.312276	-0.000012	-0.227284
N13	N	1.662017	-0.281868	-0.308867
C14	C	1.946997	-0.655823	-0.024106
C15	C	1.984014	-0.531162	0.012889
C16	C	1.903518	-0.468832	-0.067547
C17	C	1.785998	-0.531175	-0.184984
C18	C	1.748985	-0.655849	-0.221991
C19	C	1.705506	-0.468858	-0.265431
C20	C	1.587987	-0.531201	-0.382868
C21	C	1.550979	-0.655862	-0.419868
C22	C	1.631476	-0.718192	-0.339432
C23	C	1.742519	-0.344185	-0.228424
C24	C	1.544507	-0.344211	-0.426309
C25	C	1.507490	-0.468872	-0.463303
C26	C	2.015376	-0.000017	-0.218043
C27	C	2.179220	-0.000011	-0.223139
C28	C	1.752914	-0.000017	0.044416
C29	C	1.747816	-0.000012	0.208260
N30	N	1.829487	0.281834	-0.141548
C31	C	1.738580	-0.000014	-0.494841
C32	C	1.743680	-0.000011	-0.658684
H33	H	1.838204	-0.293436	-0.132808
H34	H	2.079698	-0.480406	0.108503
C35	C	1.988153	-0.290242	-0.153984
C36	C	1.944207	-0.331802	-0.026877
H37	H	2.013284	-0.205642	-0.128863
H38	H	1.906646	-0.318443	-0.235417
H39	H	2.074353	-0.318441	-0.183856
H40	H	1.858000	-0.303610	0.002988
H41	H	2.025722	-0.303589	0.054582
H42	H	1.455300	-0.706622	-0.515503
C43	C	1.362848	-0.659991	-0.607887
C44	C	1.378325	-0.537409	-0.592400
H45	H	1.283113	-0.702301	-0.687592
H46	H	1.339448	-0.680417	-0.515257
H47	H	1.455484	-0.680392	-0.631342
H48	H	1.285692	-0.517007	-0.568933
H49	H	1.401716	-0.516975	-0.685051
C50	C	1.472648	-0.305831	-0.669159
C51	C	1.456015	-0.275712	-0.514737
H52	H	1.418031	-0.263531	-0.723744
H53	H	1.433786	-0.388989	-0.707993
H54	H	1.577412	-0.285379	-0.680466
H55	H	1.351252	-0.296172	-0.503429
H56	H	1.494870	-0.192535	-0.475891
C57	C	2.018828	-0.694221	0.218726
C58	C	2.035457	-0.724340	0.064303
H59	H	2.073449	-0.736519	0.273310
H60	H	1.914079	-0.714663	0.230037
H61	H	2.057703	-0.611052	0.257563
H62	H	1.996572	-0.807508	0.025462
H63	H	2.140227	-0.703905	0.052983
H64	H	1.601333	-0.819701	-0.369549
