data_functionalizedCrystal
_audit_creation_method	'MofGen! by Chris Wilmer'
_symmetry_space_group_name_H-M	'P1'
_symmetry_Int_Tables_number	1
_symmetry_cell_setting	triclinic
loop_
_symmetry_equiv_pos_as_xyz
  x,y,z
_cell_length_a	18.101398
_cell_length_b	17.640280
_cell_length_c	17.640968
_cell_angle_alpha	65.682561
_cell_angle_beta	101.230909
_cell_angle_gamma	101.205395
loop_
_atom_site_label
_atom_site_type_symbol
_atom_site_fract_x
_atom_site_fract_y
_atom_site_fract_z
Zn1	Zn	1.252274	0.233936	0.399838
Zn2	Zn	1.752274	0.733936	0.899838
Zn3	Zn	1.252213	0.399605	0.234199
Zn4	Zn	1.752213	0.899605	0.734199
Zn5	Zn	1.107606	0.261814	0.262023
Zn6	Zn	1.607606	0.761814	0.762023
Zn7	Zn	1.149239	0.371695	0.371967
Zn8	Zn	1.649239	0.871695	0.871967
O9	O	1.190333	0.316763	0.317007
O10	O	1.690333	0.816763	0.817007
O11	O	1.355905	0.255926	0.377885
O12	O	1.855905	0.755926	0.877885
O13	O	1.215582	0.404674	0.122557
O14	O	1.715582	0.904674	0.622557
O15	O	1.109399	0.142797	0.303613
O16	O	1.609399	0.642797	0.803613
O17	O	1.355861	0.377642	0.256191
O18	O	1.855861	0.877642	0.756191
O19	O	1.215685	0.122316	0.404865
O20	O	1.715685	0.622316	0.904865
O21	O	1.109340	0.303439	0.142999
O22	O	1.609340	0.803439	0.642999
O23	O	1.009490	0.276376	0.276587
O24	O	1.509490	0.776376	0.776587
O25	O	1.180355	0.330074	0.490996
O26	O	1.680355	0.830074	0.990996
O27	O	1.040077	0.357106	0.357363
O28	O	1.540077	0.857106	0.857363
O29	O	1.256055	0.228863	0.511473
O30	O	1.756055	0.728863	1.011473
O31	O	1.255951	0.511221	0.229166
O32	O	1.755951	1.011221	0.729166
O33	O	1.180296	0.490716	0.330383
O34	O	1.680296	0.990716	0.830383
C35	C	1.222658	0.530866	0.273749
C36	C	1.722658	1.030866	0.773749
C37	C	1.236559	0.622455	0.255271
C38	C	1.736559	1.122455	0.755271
C39	C	0.997911	0.316738	0.316970
C40	C	1.497911	0.816738	0.816970
C41	C	0.915598	0.316743	0.316970
C42	C	1.415598	0.816743	0.816970
C43	C	1.222856	0.273246	0.531975
C44	C	1.722856	0.773246	1.031975
C45	C	1.236715	0.254701	0.623582
C46	C	1.736715	0.754701	1.123582
C47	C	0.616525	0.316781	0.317029
C48	C	1.116525	0.816781	0.817029
C49	C	0.628580	0.265607	0.266582
C50	C	1.128580	0.765607	0.766582
C51	C	0.714183	0.265833	0.266277
C52	C	1.214183	0.765833	0.766277
C53	C	0.764899	0.316761	0.317000
C54	C	1.264899	0.816761	0.817000
C55	C	0.743342	0.408363	0.275743
C56	C	1.243342	0.908363	0.775743
C57	C	0.657576	0.408097	0.275374
C58	C	1.157576	0.908097	0.775374
C59	C	0.657984	0.277077	0.408730
C60	C	1.157984	0.777077	0.908730
C61	C	0.743270	0.275240	0.408644
C62	C	1.243270	0.775240	0.908644
C63	C	0.848754	0.316755	0.316984
C64	C	1.348754	0.816755	0.816984
C65	C	0.532670	0.316793	0.317042
C66	C	1.032670	0.816793	0.817042
C67	C	1.383507	0.316788	0.317043
C68	C	1.883507	0.816788	0.817043
C69	C	1.465826	0.316799	0.317059
C70	C	1.965826	0.816799	0.817059
C71	C	1.157905	0.101820	0.360451
C72	C	1.657905	0.601820	0.860451
C73	C	1.144086	0.010224	0.378965
C74	C	1.644086	0.510224	0.878965
C75	C	1.085081	0.870498	0.457684
C76	C	1.585081	1.370498	0.957684
C77	C	1.098140	0.956565	0.440294
C78	C	1.598140	1.456565	0.940294
C79	C	1.176994	0.977830	0.335003
C80	C	1.676994	1.477830	0.835003
C81	C	1.163945	0.891762	0.352387
C82	C	1.663945	1.391762	0.852387
C83	C	1.117986	0.838103	0.413727
C84	C	1.617986	1.338103	0.913727
C85	C	1.196851	0.859368	0.308430
C86	C	1.696851	1.359368	0.808430
C87	C	1.183799	0.773308	0.325809
C88	C	1.683799	1.273308	0.825809
C89	C	1.137841	0.719644	0.387145
C90	C	1.637841	1.219644	0.887145
C91	C	1.104934	0.752044	0.431106
C92	C	1.604934	1.252044	0.931106
C93	C	1.242804	0.913029	0.247086
C94	C	1.742804	1.413029	0.747086
C95	C	1.275710	0.880635	0.203129
C96	C	1.775710	1.380635	0.703129
C97	C	1.262663	0.794573	0.220512
C98	C	1.762663	1.294573	0.720512
C99	C	1.216705	0.740909	0.281848
C100	C	1.716705	1.240909	0.781848
C101	C	1.295569	0.762173	0.176551
C102	C	1.795569	1.262173	0.676551
C103	C	1.282517	0.676114	0.193930
C104	C	1.782517	1.176114	0.693930
C105	C	1.203653	0.654849	0.299227
C106	C	1.703653	1.154849	0.799227
C107	C	1.157970	0.360051	0.102886
C108	C	1.657970	0.860051	0.602886
C109	C	1.144220	0.378363	0.011327
C110	C	1.644220	0.878363	0.511327
C111	C	1.085262	0.457194	0.871558
C112	C	1.585262	0.957194	1.371558
C113	C	1.098299	0.439758	0.957639
C114	C	1.598299	0.939758	1.457639
C115	C	1.177118	0.334376	0.978949
C116	C	1.677118	0.834376	1.478949
C117	C	1.164085	0.351800	0.892869
C118	C	1.664085	0.851800	1.392869
C119	C	1.118157	0.413210	0.839180
C120	C	1.618157	0.913210	1.339180
C121	C	1.196980	0.307817	0.860491
C122	C	1.696980	0.807817	1.360491
C123	C	1.183951	0.325243	0.774418
C124	C	1.683951	0.825243	1.274418
C125	C	1.138027	0.386652	0.720723
C126	C	1.638027	0.886652	1.220723
C127	C	1.105128	0.430636	0.753107
C128	C	1.605128	0.930636	1.253107
C129	C	1.242912	0.246411	0.914180
C130	C	1.742912	0.746411	1.414180
C131	C	1.275807	0.202428	0.881802
C132	C	1.775807	0.702428	1.381802
C133	C	1.262774	0.219849	0.795728
C134	C	1.762774	0.719849	1.295728
C135	C	1.216849	0.281259	0.742034
C136	C	1.716849	0.781259	1.242034
C137	C	1.295672	0.175865	0.763344
C138	C	1.795672	0.675865	1.263344
C139	C	1.282643	0.193291	0.677271
C140	C	1.782643	0.693291	1.177271
C141	C	1.203820	0.298684	0.655960
C142	C	1.703820	0.798684	1.155960
H143	H	0.727722	0.198457	0.294149
H144	H	1.227722	0.698457	0.794149
H145	H	1.067708	0.480623	0.709393
H146	H	1.567708	0.980623	1.209393
H147	H	1.214411	1.021531	0.285057
H148	H	1.714411	1.521531	0.785057
H149	H	0.777878	0.448275	0.310568
H150	H	1.277878	0.948275	0.810568
H151	H	1.067517	0.708350	0.481062
H152	H	1.567517	1.208350	0.981062
H153	H	1.127423	0.400842	0.650636
H154	H	1.627423	0.900842	1.150636
H155	H	1.253432	0.983103	0.232940
H156	H	1.753432	1.483103	0.732940
H157	H	1.313127	0.924336	0.153183
H158	H	1.813127	1.424336	0.653183
H159	H	1.332982	0.805877	0.126602
H160	H	1.832982	1.305877	0.626602
H161	H	0.778738	0.308390	0.449662
H162	H	1.278738	0.808390	0.949662
H163	H	0.630759	0.439704	0.207816
H164	H	1.130759	0.939704	0.707816
H165	H	1.309311	0.649739	0.158135
H166	H	1.809311	1.149739	0.658135
H167	H	1.166400	0.348671	0.612247
H168	H	1.666400	0.848671	1.112247
H169	H	1.071509	0.475579	0.983996
H170	H	1.571509	0.975579	1.483996
H171	H	1.309428	0.157474	0.650909
H172	H	1.809428	0.657474	1.150909
H173	H	1.047842	0.507180	0.827845
H174	H	1.547842	1.007180	1.327845
H175	H	1.127208	0.649571	0.401288
H176	H	1.627208	1.149571	0.901288
H177	H	1.214515	0.284378	1.022674
H178	H	1.714515	0.784378	1.522674
H179	H	1.253521	0.232227	0.984266
H180	H	1.753521	0.732227	1.484266
H181	H	0.599501	0.293023	0.199399
H182	H	1.099501	0.793023	0.699399
H183	H	0.756643	0.207744	0.439435
H184	H	1.256643	0.707744	0.939435
H185	H	1.313204	0.152430	0.925527
H186	H	1.813204	0.652430	1.425527
H187	H	0.630252	0.210519	0.442863
H188	H	1.130252	0.710519	0.942863
H189	H	1.047663	0.826804	0.507640
H190	H	1.547663	1.326804	1.007640
H191	H	1.166235	0.611156	0.349183
H192	H	1.666235	1.111156	0.849183
H193	H	1.333073	0.125871	0.807069
H194	H	1.833073	0.625871	1.307069
H195	H	1.071351	0.982933	0.476104
H196	H	1.571351	1.482933	0.976104
H197	H	0.650991	0.448461	0.309563
H198	H	1.150991	0.948461	0.809563
H199	H	0.651922	0.314135	0.446533
H200	H	1.151922	0.814135	0.946533
H201	H	0.600453	0.198067	0.294330
H202	H	1.100453	0.698067	0.794330
H203	H	0.727075	0.293490	0.198684
H204	H	1.227075	0.793490	0.698684
H205	H	0.758104	0.440156	0.208808
H206	H	1.258104	0.940156	0.708808
