data_functionalizedCrystal
_audit_creation_method	'MofGen! by Chris Wilmer'
_symmetry_space_group_name_H-M	'P1'
_symmetry_Int_Tables_number	1
_symmetry_cell_setting	triclinic
loop_
_symmetry_equiv_pos_as_xyz
  x,y,z
_cell_length_a	17.077404
_cell_length_b	18.215404
_cell_length_c	17.077396
_cell_angle_alpha	90.029389
_cell_angle_beta	89.983895
_cell_angle_gamma	89.978207
loop_
_atom_site_label
_atom_site_type_symbol
_atom_site_fract_x
_atom_site_fract_y
_atom_site_fract_z
Zn1	Zn	1.200032	0.293018	-0.443818
Zn2	Zn	1.533365	0.626351	-0.110485
Zn3	Zn	1.866699	0.959685	0.222848
Zn4	Zn	1.199942	0.416093	-0.312552
Zn5	Zn	1.533275	0.749427	0.020781
Zn6	Zn	1.866609	1.082760	0.354114
Zn7	Zn	1.068769	0.293041	-0.312569
Zn8	Zn	1.402102	0.626374	0.020764
Zn9	Zn	1.735436	0.959708	0.354098
Zn10	Zn	1.068730	0.416043	-0.443778
Zn11	Zn	1.402063	0.749376	-0.110445
Zn12	Zn	1.735396	1.082710	0.222888
O13	O	1.134368	0.354549	-0.378180
O14	O	1.467702	0.687882	-0.044846
O15	O	1.801035	1.021216	0.288487
O16	O	1.309867	0.309356	-0.426415
O17	O	1.643200	0.642689	-0.093082
O18	O	1.976534	0.976022	0.240251
O19	O	1.182521	0.399801	-0.202708
O20	O	1.515854	0.733134	0.130626
O21	O	1.849187	1.066467	0.463959
O22	O	1.086235	0.190054	-0.330003
O23	O	1.419569	0.523387	0.003330
O24	O	1.752902	0.856720	0.336663
O25	O	1.309801	0.399779	-0.329975
O26	O	1.643134	0.733112	0.003359
O27	O	1.976468	1.066445	0.336692
O28	O	1.182674	0.190037	-0.426432
O29	O	1.516007	0.523370	-0.093098
O30	O	1.849340	0.856704	0.240235
O31	O	1.086148	0.309395	-0.202720
O32	O	1.419482	0.642728	0.130614
O33	O	1.752815	0.976061	0.463947
O34	O	0.958917	0.309346	-0.329964
O35	O	1.292250	0.642679	0.003369
O36	O	1.625584	0.976013	0.336702
O37	O	1.086168	0.399693	-0.553631
O38	O	1.419502	0.733026	-0.220297
O39	O	1.752835	1.066360	0.113036
O40	O	0.958888	0.399715	-0.426364
O41	O	1.292221	0.733048	-0.093030
O42	O	1.625555	1.066382	0.240303
O43	O	1.182636	0.309307	-0.553660
O44	O	1.515969	0.642640	-0.220327
O45	O	1.849302	0.975974	0.113007
O46	O	1.182482	0.519071	-0.329936
O47	O	1.515816	0.852404	0.003397
O48	O	1.849149	1.185738	0.336731
O49	O	1.086081	0.519034	-0.426347
O50	O	1.419415	0.852367	-0.093014
O51	O	1.752748	1.185701	0.240319
C52	C	0.930420	0.354528	-0.378162
C53	C	1.263754	0.687861	-0.044829
C54	C	1.597087	1.021195	0.288505
C55	C	0.843171	0.354537	-0.378173
C56	C	1.176504	0.687870	-0.044840
C57	C	1.509837	1.021203	0.288494
C58	C	0.802216	0.307537	-0.428466
C59	C	1.135549	0.640871	-0.095133
C60	C	1.468882	0.974204	0.238200
C61	C	0.720235	0.307542	-0.428470
C62	C	1.053568	0.640875	-0.095137
C63	C	1.386902	0.974209	0.238197
C64	C	0.679211	0.354551	-0.378184
C65	C	1.012544	0.687884	-0.044850
C66	C	1.345878	1.021217	0.288483
C67	C	0.720172	0.401552	-0.327885
C68	C	1.053505	0.734885	0.005449
C69	C	1.386839	1.068219	0.338782
C70	C	0.802151	0.401543	-0.327878
C71	C	1.135484	0.734876	0.005456
C72	C	1.468818	1.068210	0.338789
C73	C	0.549302	0.401569	-0.327904
C74	C	0.882635	0.734902	0.005429
C75	C	1.215969	1.068235	0.338762
C76	C	0.467317	0.401579	-0.327912
C77	C	0.800651	0.734912	0.005421
C78	C	1.133984	1.068246	0.338755
C79	C	0.467386	0.307568	-0.428496
C80	C	0.800719	0.640901	-0.095163
C81	C	1.134053	0.974234	0.238170
C82	C	0.549365	0.307559	-0.428489
C83	C	0.882698	0.640892	-0.095156
C84	C	1.216032	0.974225	0.238177
C85	C	0.590320	0.354561	-0.378191
C86	C	0.923653	0.687895	-0.044858
C87	C	1.256987	1.021228	0.288475
C88	C	1.134289	0.545755	-0.378153
C89	C	1.467622	0.879089	-0.044819
C90	C	1.800956	1.212422	0.288514
C91	C	1.134327	0.627554	-0.378167
C92	C	1.467660	0.960887	-0.044834
C93	C	1.800994	1.294221	0.288499
C94	C	1.184645	0.815743	-0.328069
C95	C	1.517978	1.149076	0.005264
C96	C	1.851311	1.482409	0.338598
C97	C	1.184681	0.892601	-0.328092
C98	C	1.518015	1.225935	0.005241
C99	C	1.851348	1.559268	0.338574
C100	C	1.084212	0.892603	-0.428403
C101	C	1.417545	1.225936	-0.095070
C102	C	1.750878	1.559270	0.238264
C103	C	1.084180	0.815746	-0.428383
C104	C	1.417513	1.149079	-0.095050
C105	C	1.750846	1.482412	0.238284
C106	C	1.134395	0.777317	-0.378212
C107	C	1.467728	1.110651	-0.044878
C108	C	1.801062	1.443984	0.288455
C109	C	1.134464	0.931034	-0.378255
C110	C	1.467797	1.264367	-0.044922
C111	C	1.801130	1.597700	0.288412
C112	C	1.134503	1.014367	-0.378281
C113	C	1.467836	1.347701	-0.044947
C114	C	1.801170	1.681034	0.288386
C115	C	1.134357	0.693979	-0.378187
C116	C	1.467690	1.027312	-0.044853
C117	C	1.801024	1.360645	0.288480
C118	C	1.339112	0.354570	-0.378198
C119	C	1.672446	0.687904	-0.044864
C120	C	2.005779	1.021237	0.288469
C121	C	1.426362	0.354579	-0.378205
C122	C	1.759696	0.687913	-0.044872
C123	C	2.093029	1.021246	0.288461
C124	C	1.134474	1.162596	-0.378238
C125	C	1.467807	1.495929	-0.044905
C126	C	1.801141	1.829263	0.288429
C127	C	1.134532	1.080797	-0.378299
C128	C	1.467865	1.414130	-0.044966
C129	C	1.801198	1.747464	0.288368
C130	C	1.134408	0.354492	-0.582924
C131	C	1.467741	0.687825	-0.249591
C132	C	1.801074	1.021159	0.083743
C133	C	1.134424	0.354468	-0.670174
C134	C	1.467758	0.687801	-0.336840
C135	C	1.801091	1.021134	-0.003507
C136	C	1.084259	0.307387	-0.711170
C137	C	1.417592	0.640721	-0.377836
C138	C	1.750925	0.974054	-0.044503
C139	C	1.084271	0.307371	-0.793150
C140	C	1.417605	0.640704	-0.459817
C141	C	1.750938	0.974037	-0.126484
C142	C	1.134455	0.354431	-0.834133
C143	C	1.467788	0.687764	-0.500800
C144	C	1.801121	1.021098	-0.167467
C145	C	1.184623	0.401516	-0.793132
C146	C	1.517956	0.734850	-0.459798
C147	C	1.851289	1.068183	-0.126465
C148	C	1.184605	0.401536	-0.711153
C149	C	1.517939	0.734869	-0.377819
C150	C	1.851272	1.068203	-0.044486
C151	C	1.184657	0.401470	-0.964002
C152	C	1.517990	0.734804	-0.630668
C153	C	1.851323	1.068137	-0.297335
C154	C	1.184675	0.401450	-1.045986
C155	C	1.518008	0.734783	-0.712653
C156	C	1.851342	1.068116	-0.379320
C157	C	1.084323	0.307305	-1.045999
C158	C	1.417656	0.640638	-0.712666
C159	C	1.750989	0.973972	-0.379333
C160	C	1.084305	0.307325	-0.964020
C161	C	1.417639	0.640658	-0.630687
C162	C	1.750972	0.973991	-0.297354
C163	C	1.134475	0.354409	-0.923024
C164	C	1.467808	0.687743	-0.589691
C165	C	1.801141	1.021076	-0.256358
C166	C	1.134374	0.354553	-0.174232
C167	C	1.467707	0.687886	0.159102
C168	C	1.801041	1.021219	0.492435
C169	C	1.134509	0.354370	-0.086982
C170	C	1.467843	0.687703	0.246351
C171	C	1.801176	1.021036	0.579684
H172	H	0.686893	0.269272	-0.469425
H173	H	1.020226	0.602605	-0.136092
H174	H	1.353560	0.935938	0.197241
H175	H	1.225534	0.784456	-0.287217
H176	H	1.558868	1.117790	0.046116
H177	H	1.892201	1.451123	0.379449
H178	H	1.225601	0.923884	-0.287262
H179	H	1.558934	1.257217	0.046071
H180	H	1.892268	1.590551	0.379404
H181	H	1.043418	0.269036	-0.826526
H182	H	1.376752	0.602369	-0.493192
H183	H	1.710085	0.935703	-0.159859
H184	H	1.225517	0.439805	-0.930625
H185	H	1.558850	0.773138	-0.597292
H186	H	1.892183	1.106472	-0.263959
H187	H	1.043474	0.268966	-1.079382
H188	H	1.376807	0.602299	-0.746049
H189	H	1.710141	0.935633	-0.412716
Br190	Br	0.664498	0.465344	-0.259632
Br191	Br	0.997831	0.798678	0.073702
Br192	Br	1.331164	1.132011	0.407035
Br193	Br	0.604883	0.465363	-0.259646
Br194	Br	0.938217	0.798696	0.073687
Br195	Br	1.271550	1.132030	0.407020
Br196	Br	1.016065	0.944760	-0.496489
Br197	Br	1.349398	1.278093	-0.163155
Br198	Br	1.682732	1.611427	0.170178
Br199	Br	0.857734	0.465329	-0.259619
Br200	Br	1.191067	0.798663	0.073715
Br201	Br	1.524401	1.131996	0.407048
Br202	Br	1.015985	0.763592	-0.496446
Br203	Br	1.349319	1.096925	-0.163112
Br204	Br	1.682652	1.430259	0.170221
Br205	Br	0.605040	0.243769	-0.496745
Br206	Br	0.938374	0.577103	-0.163411
Br207	Br	1.271707	0.910436	0.169922
Br208	Br	1.252722	0.465391	-0.848750
Br209	Br	1.586056	0.798725	-0.515417
Br210	Br	1.919389	1.132058	-0.182084
Br211	Br	1.252684	0.465439	-0.655514
Br212	Br	1.586017	0.798772	-0.322181
Br213	Br	1.919351	1.132105	0.011153
H214	H	0.835611	0.269259	-0.469417
H215	H	1.168945	0.602593	-0.136084
H216	H	1.502278	0.935926	0.197249
H217	H	1.043398	0.269061	-0.677807
H218	H	1.376731	0.602395	-0.344474
H219	H	1.710065	0.935728	-0.011141
Br220	Br	1.252789	0.465311	-1.101606
Br221	Br	1.586122	0.798644	-0.768273
Br222	Br	1.919456	1.131977	-0.434940
Br223	Br	0.411806	0.243778	-0.496758
Br224	Br	0.745139	0.577111	-0.163425
Br225	Br	1.078472	0.910445	0.169908
Br226	Br	0.411642	0.465398	-0.259688
Br227	Br	0.744975	0.798731	0.073645
Br228	Br	1.078308	1.132065	0.406978
H229	H	1.043445	0.269001	-0.930654
H230	H	1.376779	0.602334	-0.597321
H231	H	1.710112	0.935667	-0.263987
