data_functionalizedCrystal
_audit_creation_method	'MofGen! by Chris Wilmer'
_symmetry_space_group_name_H-M	'P1'
_symmetry_Int_Tables_number	1
_symmetry_cell_setting	triclinic
loop_
_symmetry_equiv_pos_as_xyz
  x,y,z
_cell_length_a	12.811442
_cell_length_b	19.288840
_cell_length_c	17.766277
_cell_angle_alpha	89.990964
_cell_angle_beta	84.558410
_cell_angle_gamma	83.587890
loop_
_atom_site_label
_atom_site_type_symbol
_atom_site_fract_x
_atom_site_fract_y
_atom_site_fract_z
O1	O	0.130818	0.922007	-0.071647
O2	O	0.148508	0.719832	-0.072829
O3	O	-0.013155	0.826003	-0.061805
O4	O	0.292481	0.815836	-0.082671
O5	O	-0.013181	0.826001	0.063385
O6	O	0.148482	0.719830	0.052362
O7	O	0.130792	0.922005	0.053543
Cu8	Cu	0.139635	0.820917	0.064383
Cu9	Cu	0.139666	0.820920	-0.083669
O10	O	0.292455	0.815834	0.042519
C11	C	0.147931	0.693952	-0.010191
C12	C	0.146235	0.616839	-0.010066
C13	C	0.145435	0.580632	-0.078253
C14	C	0.143830	0.508177	-0.078153
C15	C	0.143004	0.471933	-0.009860
C16	C	0.143811	0.508148	0.058336
C17	C	0.145426	0.580601	0.058233
C18	C	0.078957	0.362286	0.046781
C19	C	0.077335	0.289835	0.046882
C20	C	0.138027	0.248465	-0.009539
C21	C	0.200327	0.279556	-0.066073
C22	C	0.201942	0.352008	-0.066176
C23	C	0.141253	0.393371	-0.009740
C24	C	0.135488	0.133695	-0.077623
C25	C	0.133889	0.061238	-0.077520
C26	C	0.133859	0.061211	0.058972
C27	C	0.135468	0.133665	0.058866
C28	C	0.136277	0.169903	-0.009433
C29	C	-0.052270	0.825431	0.003458
C30	C	-0.168780	0.823722	0.011408
C31	C	-0.333014	0.821315	0.090854
C32	C	-0.223542	0.822918	0.083385
C33	C	-0.223499	0.822920	-0.053105
C34	C	-0.332971	0.821317	-0.045637
C35	C	-0.387725	0.820515	0.026345
C36	C	-0.497201	0.818917	0.033813
C37	C	-0.497155	0.818914	-0.102677
C38	C	-0.387682	0.820518	-0.110145
C39	C	0.331570	0.816406	-0.022746
C40	C	0.448081	0.818115	-0.030701
C41	C	0.131370	0.947886	-0.009096
C42	C	0.133065	1.024999	-0.009226
N43	N	0.139680	0.820922	-0.187800
C44	C	0.203250	0.863131	-0.796453
C45	C	0.203254	0.863137	-0.717651
C46	C	0.139634	0.820918	-0.673886
C47	C	0.075984	0.778704	-0.708927
C48	C	0.075973	0.778706	-0.787726
C49	C	0.136816	0.758299	-0.548840
C50	C	0.136834	0.758296	-0.470042
C51	C	0.139660	0.820914	-0.430841
C52	C	0.142490	0.883536	-0.470449
C53	C	0.142479	0.883537	-0.549249
C54	C	0.139637	0.820912	-0.588440
C55	C	0.203305	0.863134	-0.310364
C56	C	0.203302	0.863141	-0.231560
C57	C	0.076038	0.778702	-0.222837
C58	C	0.076035	0.778702	-0.301639
C59	C	0.139674	0.820917	-0.345398
N60	N	0.139612	0.820921	0.168515
H61	H	0.146079	0.610079	0.113762
H62	H	0.024219	0.744326	-0.330162
H63	H	-0.377597	0.820667	0.149464
H64	H	0.143141	0.478633	0.113941
N65	N	0.265788	0.234945	-0.126935
H66	H	0.342781	0.241129	-0.125222
H67	H	0.243031	0.249513	-0.178036
N68	N	-0.164529	0.823779	0.152962
H69	H	-0.215831	0.823028	0.199692
H70	H	-0.127825	0.867451	0.153425
H71	H	-0.178898	0.823571	-0.111709
N72	N	0.007405	0.733174	-0.175641
H73	H	-0.032914	0.706434	-0.209795
H74	H	-0.043941	0.763380	-0.139445
N75	N	-0.328671	0.821368	-0.187797
H76	H	-0.339039	0.778079	-0.216897
H77	H	-0.251031	0.822525	-0.182717
H78	H	0.134535	0.707306	-0.437799
N79	N	0.133761	0.690758	-0.591117
H80	H	0.131979	0.651089	-0.554071
H81	H	0.198665	0.681947	-0.628253
N82	N	-0.556165	0.818059	-0.172260
H83	H	-0.633825	0.816924	-0.156609
H84	H	-0.528310	0.775334	-0.203959
H85	H	0.255066	0.897509	-0.832076
H86	H	0.255078	0.897510	-0.689123
H87	H	-0.541781	0.818266	0.092424
N88	N	0.145526	0.951073	-0.591970
H89	H	0.147318	0.990744	-0.555185
H90	H	0.080611	0.959882	-0.620222
H91	H	0.144797	0.934525	-0.438534
H92	H	0.029531	0.395964	0.092730
N93	N	0.271920	0.908673	-0.357570
H94	H	0.323337	0.878523	-0.393777
H95	H	0.312161	0.935415	-0.323368
N96	N	0.271904	0.908696	-0.193769
H97	H	0.312205	0.935443	-0.233449
H98	H	0.323266	0.878519	-0.164570
N99	N	0.007342	0.733172	-0.825519
H100	H	-0.044076	0.763324	-0.854700
H101	H	-0.032896	0.706434	-0.785798
N102	N	0.007360	0.733172	-0.661724
H103	H	0.053106	0.699254	-0.632157
H104	H	-0.032949	0.706478	-0.695924
N105	N	0.146303	0.619718	-0.151915
H106	H	0.145551	0.585783	-0.195097
H107	H	0.212025	0.644331	-0.159378
N108	N	0.132960	0.022129	0.132633
H109	H	0.198283	0.029280	0.158012
H110	H	0.131775	-0.029248	0.122290
H111	H	0.143180	0.478692	-0.133681
H112	H	0.133244	0.031759	-0.133049
N113	N	0.269130	0.385544	-0.127147
H114	H	0.307334	0.348347	-0.162878
H115	H	0.322304	0.411201	-0.103220
H116	H	0.136113	0.163145	0.114393
N117	N	0.136365	0.172786	-0.151284
H118	H	0.135624	0.138851	-0.194467
H119	H	0.202086	0.197401	-0.158739
H120	H	0.026601	0.264527	0.092912
