data_functionalizedCrystal
_audit_creation_method	'MofGen! by Chris Wilmer'
_symmetry_space_group_name_H-M	'P1'
_symmetry_Int_Tables_number	1
_symmetry_cell_setting	triclinic
loop_
_symmetry_equiv_pos_as_xyz
  x,y,z
_cell_length_a	16.625547
_cell_length_b	16.625545
_cell_length_c	18.215399
_cell_angle_alpha	89.972987
_cell_angle_beta	90.023923
_cell_angle_gamma	89.976026
loop_
_atom_site_label
_atom_site_type_symbol
_atom_site_fract_x
_atom_site_fract_y
_atom_site_fract_z
Zn1	Zn	1.232665	0.321011	0.416201
Zn2	Zn	1.565998	0.654345	0.749534
Zn3	Zn	1.899331	0.987678	1.082868
Zn4	Zn	1.232566	0.455851	0.293137
Zn5	Zn	1.565900	0.789185	0.626470
Zn6	Zn	1.899233	1.122518	0.959803
Zn7	Zn	1.097828	0.321036	0.293140
Zn8	Zn	1.431162	0.654370	0.626473
Zn9	Zn	1.764495	0.987703	0.959806
Zn10	Zn	1.097793	0.455805	0.416153
Zn11	Zn	1.431126	0.789139	0.749486
Zn12	Zn	1.764460	1.122472	1.082819
O13	O	1.165213	0.388426	0.354658
O14	O	1.498546	0.721759	0.687991
O15	O	1.831880	1.055093	1.021324
O16	O	1.345484	0.338907	0.399895
O17	O	1.678817	0.672240	0.733229
O18	O	2.012151	1.005573	1.066562
O19	O	1.214667	0.437998	0.190153
O20	O	1.548000	0.771331	0.523486
O21	O	1.881333	1.104664	0.856819
O22	O	1.115771	0.208201	0.309485
O23	O	1.449104	0.541534	0.642819
O24	O	1.782437	0.874867	0.976152
O25	O	1.345412	0.437973	0.309480
O26	O	1.678745	0.771307	0.642814
O27	O	2.012078	1.104640	0.976147
O28	O	1.214834	0.208182	0.399898
O29	O	1.548168	0.541515	0.733231
O30	O	1.881501	0.874849	1.066565
O31	O	1.115675	0.338950	0.190155
O32	O	1.449009	0.672283	0.523488
O33	O	1.782342	1.005616	0.856822
O34	O	0.984991	0.338905	0.309439
O35	O	1.318325	0.672238	0.642772
O36	O	1.651658	1.005572	0.976105
O37	O	1.115710	0.437895	0.519144
O38	O	1.449044	0.771228	0.852477
O39	O	1.782377	1.104561	1.185810
O40	O	0.984965	0.437919	0.399816
O41	O	1.318299	0.771253	0.733149
O42	O	1.651632	1.104586	1.066483
O43	O	1.214800	0.338862	0.519179
O44	O	1.548133	0.672195	0.852512
O45	O	1.881467	1.005529	1.185846
O46	O	1.214632	0.568678	0.309434
O47	O	1.547966	0.902011	0.642767
O48	O	1.881299	1.235344	0.976100
O49	O	1.115615	0.568644	0.399813
O50	O	1.448948	0.901977	0.733146
O51	O	1.782282	1.235311	1.066480
C52	C	0.955722	0.388410	0.354623
C53	C	1.289056	0.721744	0.687956
C54	C	1.622389	1.055077	1.021289
C55	C	0.866101	0.388423	0.354625
C56	C	1.199434	0.721757	0.687959
C57	C	1.532768	1.055090	1.021292
C58	C	0.793319	0.388425	0.354634
C59	C	1.126652	0.721758	0.687968
C60	C	1.459985	1.055091	1.021301
C61	C	0.702010	0.388429	0.354653
C62	C	1.035344	0.721762	0.687986
C63	C	1.368677	1.055096	1.021320
C64	C	0.629234	0.388436	0.354672
C65	C	0.962567	0.721770	0.688005
C66	C	1.295900	1.055103	1.021338
C67	C	0.537920	0.388442	0.354689
C68	C	0.871253	0.721775	0.688023
C69	C	1.204586	1.055109	1.021356
C70	C	1.165131	0.597917	0.354634
C71	C	1.498464	0.931250	0.687967
C72	C	1.831798	1.264584	1.021301
C73	C	1.165170	0.687538	0.354648
C74	C	1.498503	1.020871	0.687982
C75	C	1.831836	1.354205	1.021315
C76	C	1.165301	1.015714	0.354736
C77	C	1.498635	1.349047	0.688070
C78	C	1.831968	1.682380	1.021403
C79	C	1.165262	0.924405	0.354714
C80	C	1.498596	1.257739	0.688047
C81	C	1.831929	1.591072	1.021381
C82	C	1.165235	0.851629	0.354692
C83	C	1.498568	1.184962	0.688025
C84	C	1.831902	1.518295	1.021359
C85	C	1.165197	0.760315	0.354670
C86	C	1.498530	1.093648	0.688004
C87	C	1.831864	1.426981	1.021337
C88	C	1.375522	0.388442	0.354693
C89	C	1.708855	0.721776	0.688026
C90	C	2.042189	1.055109	1.021360
C91	C	1.465143	0.388449	0.354708
C92	C	1.798476	0.721783	0.688041
C93	C	2.131810	1.055116	1.021375
C94	C	1.165262	0.388371	0.546611
C95	C	1.498596	0.721704	0.879944
C96	C	1.831929	1.055037	1.213277
C97	C	1.165283	0.388347	0.628409
C98	C	1.498616	0.721680	0.961743
C99	C	1.831950	1.055013	1.295076
C100	C	1.165311	1.178117	0.354706
C101	C	1.498644	1.511451	0.688039
C102	C	1.831977	1.844784	1.021373
C103	C	1.165335	1.088496	0.354749
C104	C	1.498668	1.421829	0.688082
C105	C	1.832001	1.755163	1.021415
C106	C	1.165211	0.388423	0.163451
C107	C	1.498544	0.721757	0.496785
C108	C	1.831877	1.055090	0.830118
C109	C	1.165346	0.388220	0.081653
C110	C	1.498679	0.721553	0.414986
C111	C	1.832013	1.054887	0.748319
C112	C	1.216898	0.336732	0.816623
C113	C	1.550231	0.670066	1.149956
C114	C	1.883564	1.003399	1.483290
C115	C	1.216907	0.336709	0.893482
C116	C	1.550241	0.670042	1.226815
C117	C	1.883574	1.003375	1.560149
C118	C	1.113726	0.439837	0.893434
C119	C	1.447059	0.773170	1.226767
C120	C	1.780392	1.106503	1.560100
C121	C	1.113713	0.439856	0.816576
C122	C	1.447046	0.773189	1.149910
C123	C	1.780379	1.106522	1.483243
C124	C	1.165303	0.388305	0.778173
C125	C	1.498636	0.721638	1.111506
C126	C	1.831970	1.054971	1.444840
C127	C	1.165326	0.388262	0.931889
C128	C	1.498659	0.721596	1.265223
C129	C	1.831993	1.054929	1.598556
C130	C	1.165336	0.388237	1.015223
C131	C	1.498669	0.721570	1.348556
C132	C	1.832003	1.054904	1.681890
C133	C	1.165292	0.388328	0.694834
C134	C	1.498626	0.721662	1.028167
C135	C	1.831959	1.054995	1.361501
H136	H	1.258904	0.294754	0.785357
H137	H	1.592237	0.628087	1.118691
H138	H	1.925570	0.961421	1.452024
H139	H	1.071724	0.481809	0.924711
H140	H	1.405058	0.815143	1.258044
H141	H	1.738391	1.148476	1.591378
H142	H	1.258919	0.294712	0.924785
H143	H	1.592253	0.628046	1.258118
H144	H	1.925586	0.961379	1.591451
Br145	Br	1.043679	0.509844	0.764389
Br146	Br	1.377012	0.843178	1.097722
Br147	Br	1.710346	1.176511	1.431056
