data_functionalizedCrystal
_audit_creation_method	'MofGen! by Chris Wilmer'
_symmetry_space_group_name_H-M	'P1'
_symmetry_Int_Tables_number	1
_symmetry_cell_setting	triclinic
loop_
_symmetry_equiv_pos_as_xyz
  x,y,z
_cell_length_a	17.019372
_cell_length_b	15.500227
_cell_length_c	14.971496
_cell_angle_alpha	92.830747
_cell_angle_beta	96.495192
_cell_angle_gamma	88.970414
loop_
_atom_site_label
_atom_site_type_symbol
_atom_site_fract_x
_atom_site_fract_y
_atom_site_fract_z
O1	O	1.046474	-0.005950	-0.114266
O2	O	0.817694	0.011082	-0.127820
O3	O	0.938211	0.002102	0.009146
O4	O	0.925956	0.003030	-0.251231
O5	O	0.930898	-0.141242	0.000867
O6	O	0.810380	-0.132262	-0.136098
O7	O	1.039161	-0.149294	-0.122544
Cu8	Cu	0.924103	-0.153866	-0.130077
Cu9	Cu	0.932752	0.015654	-0.120287
O10	O	0.918643	-0.140314	-0.259509
C11	C	0.784759	-0.058411	-0.131283
C12	C	0.697519	-0.051916	-0.129258
C13	C	0.204314	-0.011208	-0.117545
C14	C	0.286285	-0.017322	-0.119448
C15	C	0.323275	-0.098516	-0.124919
C16	C	0.278291	-0.173602	-0.128478
C17	C	0.196322	-0.167487	-0.126568
C18	C	0.570567	-0.120887	-0.130906
C19	C	0.652541	-0.126996	-0.132819
C20	C	0.660529	0.029284	-0.123787
C21	C	0.578558	0.035392	-0.121883
C22	C	0.533582	-0.039694	-0.125437
C23	C	0.407061	-0.104768	-0.126868
C24	C	0.449798	-0.033442	-0.123482
N25	N	0.918025	-0.273099	-0.136963
C26	C	0.969111	-0.322182	-0.078947
C27	C	0.964522	-0.412412	-0.084163
C28	C	0.908850	-0.453559	-0.147399
C29	C	0.857760	-0.404469	-0.205417
C30	C	0.862346	-0.314240	-0.200197
C31	C	0.892330	-0.725795	-0.166191
C32	C	0.887750	-0.816031	-0.171409
C33	C	0.994511	-0.823968	-0.050154
C34	C	0.999095	-0.733737	-0.044942
C35	C	0.948002	-0.684655	-0.102957
C36	C	0.904160	-0.545789	-0.152734
C37	C	0.952689	-0.592426	-0.097617
C38	C	1.072096	-0.079800	-0.119081
C39	C	1.159336	-0.086288	-0.121106
C40	C	0.934005	-0.069529	0.038332
C41	C	0.932359	-0.069407	0.137631
N42	N	0.938835	0.134886	-0.113394
C43	C	0.922849	-0.068681	-0.288696
C44	C	0.924496	-0.068798	-0.387995
C45	C	0.929258	0.009280	0.569862
C46	C	0.930809	0.009161	0.476560
C47	C	0.927593	-0.069037	0.425402
C48	C	0.922833	-0.147121	0.467552
C49	C	0.921288	-0.147001	0.560853
C50	C	0.926053	-0.147365	0.273083
C51	C	0.927597	-0.147485	0.179775
C52	C	0.935574	0.008797	0.188789
C53	C	0.934029	0.008917	0.282090
C54	C	0.929268	-0.069167	0.324234
H55	H	0.308415	-0.239712	-0.132927
Cl56	Cl	0.936797	0.107320	0.423584
H57	H	1.006119	-0.452376	-0.036922
H58	H	0.437188	-0.170876	-0.131324
Cl59	Cl	0.787768	-0.456194	-0.284911
H60	H	0.697158	0.090414	-0.120893
H61	H	0.850729	-0.685839	-0.213431
Cl62	Cl	0.938067	0.107224	0.346401
Cl63	Cl	0.933296	0.107592	0.634165
H64	H	0.924953	-0.211158	0.138121
H65	H	0.820746	-0.274277	-0.247438
Cl66	Cl	1.069084	-0.682010	0.034554
H67	H	0.858833	-0.579298	-0.204224
H68	H	1.014447	-0.288687	-0.027458
Cl69	Cl	0.699041	-0.229077	-0.139696
H70	H	0.159701	-0.228625	-0.129477
Cl71	Cl	0.157820	0.090870	-0.110673
Cl72	Cl	0.941520	0.106962	0.135804
Cl73	Cl	0.403296	0.068627	-0.116590
Cl74	Cl	0.915306	-0.245160	0.613834
Cl75	Cl	1.058736	-0.885674	0.022778
Cl76	Cl	0.532063	0.137469	-0.115006
Cl77	Cl	0.342826	0.077069	-0.114967
H78	H	0.922177	-0.210949	0.307393
H79	H	0.533958	-0.182028	-0.133787
Cl80	Cl	0.817758	-0.867752	-0.250916
Cl81	Cl	1.022671	-0.540698	-0.018120
Cl82	Cl	0.918794	-0.245427	0.403240
