data_functionalizedCrystal
_audit_creation_method	'MofGen! by Chris Wilmer'
_symmetry_space_group_name_H-M	'P1'
_symmetry_Int_Tables_number	1
_symmetry_cell_setting	triclinic
loop_
_symmetry_equiv_pos_as_xyz
  x,y,z
_cell_length_a	19.805407
_cell_length_b	16.120531
_cell_length_c	19.805399
_cell_angle_alpha	87.133995
_cell_angle_beta	89.978486
_cell_angle_gamma	87.068160
loop_
_atom_site_label
_atom_site_type_symbol
_atom_site_fract_x
_atom_site_fract_y
_atom_site_fract_z
Zn1	Zn	1.021025	0.331932	-0.396443
Zn2	Zn	1.354358	0.665265	-0.063110
Zn3	Zn	1.687691	0.998599	0.270223
Zn4	Zn	1.015193	0.471354	-0.288984
Zn5	Zn	1.348527	0.804687	0.044349
Zn6	Zn	1.681860	1.138020	0.377682
Zn7	Zn	0.907844	0.331957	-0.283260
Zn8	Zn	1.241177	0.665290	0.050074
Zn9	Zn	1.574510	0.998623	0.383407
Zn10	Zn	0.902053	0.471304	-0.402120
Zn11	Zn	1.235387	0.804637	-0.068786
Zn12	Zn	1.568720	1.137971	0.264547
O13	O	0.961529	0.401637	-0.342702
O14	O	1.294862	0.734970	-0.009368
O15	O	1.628195	1.068303	0.323965
O16	O	1.114967	0.350437	-0.382209
O17	O	1.448301	0.683770	-0.048875
O18	O	1.781634	1.017104	0.284458
O19	O	1.000936	0.452893	-0.193510
O20	O	1.334269	0.786227	0.139824
O21	O	1.667603	1.119560	0.473157
O22	O	0.927721	0.215287	-0.293502
O23	O	1.261054	0.548621	0.039831
O24	O	1.594388	0.881954	0.373164
O25	O	1.110683	0.452869	-0.303259
O26	O	1.444016	0.786203	0.030074
O27	O	1.777350	1.119536	0.363408
O28	O	1.010875	0.215269	-0.376658
O29	O	1.344208	0.548603	-0.043324
O30	O	1.677541	0.881936	0.290009
O31	O	0.922067	0.350479	-0.189304
O32	O	1.255400	0.683812	0.144030
O33	O	1.588733	1.017146	0.477363
O34	O	0.812359	0.350431	-0.299007
O35	O	1.145693	0.683764	0.034327
O36	O	1.479026	1.017098	0.367660
O37	O	0.917852	0.452785	-0.496082
O38	O	1.251186	0.786118	-0.162749
O39	O	1.584519	1.119452	0.170585
O40	O	0.808105	0.452809	-0.386333
O41	O	1.141439	0.786142	-0.052999
O42	O	1.474772	1.119476	0.280334
O43	O	1.005260	0.350389	-0.491912
O44	O	1.338593	0.683722	-0.158578
O45	O	1.671927	1.017056	0.174755
O46	O	0.995321	0.588013	-0.308763
O47	O	1.328655	0.921346	0.024570
O48	O	1.661988	1.254680	0.357903
O49	O	0.912198	0.587976	-0.391884
O50	O	1.245531	0.921310	-0.058550
O51	O	1.578865	1.254643	0.274783
C52	C	0.785673	0.401618	-0.342665
C53	C	1.119007	0.734951	-0.009332
C54	C	1.452340	1.068284	0.324002
C55	C	0.710441	0.401630	-0.342666
C56	C	1.043774	0.734963	-0.009333
C57	C	1.377108	1.068296	0.324001
C58	C	0.246448	0.455045	-0.388152
C59	C	0.579782	0.788378	-0.054819
C60	C	0.913115	1.121712	0.278515
C61	C	0.317137	0.455044	-0.388138
C62	C	0.650470	0.788377	-0.054804
C63	C	0.983803	1.121710	0.278529
C64	C	0.354678	0.401657	-0.342729
C65	C	0.688012	0.734990	-0.009396
C66	C	1.021345	1.068323	0.323938
C67	C	0.321527	0.348274	-0.297327
C68	C	0.654861	0.681607	0.036006
C69	C	0.988194	1.014940	0.369339
C70	C	0.250840	0.348280	-0.297339
C71	C	0.584173	0.681613	0.035994
C72	C	0.917507	1.014947	0.369328
C73	C	0.606602	0.348248	-0.297279
C74	C	0.939935	0.681581	0.036055
C75	C	1.273268	1.014915	0.369388
C76	C	0.677294	0.348244	-0.297272
C77	C	1.010627	0.681578	0.036061
C78	C	1.343961	1.014911	0.369395
C79	C	0.672898	0.455012	-0.388077
C80	C	1.006232	0.788345	-0.054744
C81	C	1.339565	1.121679	0.278589
C82	C	0.602211	0.455018	-0.388089
C83	C	0.935544	0.788351	-0.054756
C84	C	1.268878	1.121685	0.278578
C85	C	0.569066	0.401639	-0.342685
C86	C	0.902400	0.734972	-0.009352
C87	C	1.235733	1.068305	0.323982
C88	C	0.492418	0.401642	-0.342700
C89	C	0.825751	0.734975	-0.009367
C90	C	1.159084	1.068308	0.323966
C91	C	0.431326	0.401649	-0.342716
C92	C	0.764659	0.734982	-0.009383
C93	C	1.097992	1.068315	0.323950
C94	C	0.952517	0.618245	-0.351575
C95	C	1.285850	0.951578	-0.018242
C96	C	1.619184	1.284911	0.315091
C97	C	0.948724	0.710911	-0.355394
C98	C	1.282057	1.044244	-0.022061
C99	C	1.615390	1.377577	0.311273
C100	C	0.941802	0.880572	-0.362380
C101	C	1.275135	1.213906	-0.029047
C102	C	1.608468	1.547239	0.304287
C103	C	0.981281	0.921860	-0.322985
C104	C	1.314615	1.255194	0.010348
C105	C	1.647948	1.588527	0.343682
C106	C	0.977430	1.016266	-0.326872
C107	C	1.310763	1.349599	0.006461
C108	C	1.644097	1.682932	0.339795
C109	C	0.945652	0.786158	-0.358494
C110	C	1.278986	1.119492	-0.025161
C111	C	1.612319	1.452825	0.308173
C112	C	1.138071	0.401656	-0.342739
C113	C	1.471404	0.734989	-0.009406
C114	C	1.804737	1.068323	0.323928
C115	C	1.213302	0.401664	-0.342755
C116	C	1.546636	0.734998	-0.009422
C117	C	1.879969	1.068331	0.323912
C118	C	0.970570	1.184182	-0.333796
C119	C	1.303903	1.517516	-0.000463
C120	C	1.637237	1.850849	0.332871
C121	C	0.974361	1.091517	-0.329969
C122	C	1.307695	1.424850	0.003364
C123	C	1.641028	1.758183	0.336698
C124	C	0.961561	0.401579	-0.519242
C125	C	1.294894	0.734912	-0.185909
C126	C	1.628227	1.068245	0.147424
C127	C	0.961574	0.401554	-0.594473
C128	C	1.294908	0.734887	-0.261140
C129	C	1.628241	1.068221	0.072193
C130	C	0.920520	0.348222	-0.627627
C131	C	1.253853	0.681555	-0.294293
C132	C	1.587186	1.014889	0.039040
C133	C	0.920530	0.348206	-0.698314
C134	C	1.253863	0.681539	-0.364981
C135	C	1.587196	1.014872	-0.031648
C136	C	0.961599	0.401518	-0.735847
C137	C	1.294932	0.734851	-0.402514
C138	C	1.628265	1.068185	-0.069181
C139	C	1.002655	0.454856	-0.702689
C140	C	1.335988	0.788189	-0.369356
C141	C	1.669322	1.121523	-0.036023
C142	C	1.002641	0.454876	-0.632003
C143	C	1.335974	0.788209	-0.298669
C144	C	1.669308	1.121543	0.034664
C145	C	1.002712	0.454778	-0.987759
C146	C	1.336045	0.788111	-0.654426
C147	C	1.669378	1.121445	-0.321093
C148	C	1.002724	0.454752	-1.058451
C149	C	1.336058	0.788086	-0.725117
C150	C	1.669391	1.121419	-0.391784
C151	C	0.920601	0.348108	-1.054071
C152	C	1.253934	0.681441	-0.720738
C153	C	1.587267	1.014774	-0.387404
C154	C	0.920587	0.348128	-0.983385
C155	C	1.253920	0.681461	-0.650051
C156	C	1.587253	1.014794	-0.316718
C157	C	0.961640	0.401468	-0.950233
C158	C	1.294973	0.734802	-0.616899
C159	C	1.628307	1.068135	-0.283566
C160	C	0.961628	0.401487	-0.873585
C161	C	1.294961	0.734820	-0.540252
C162	C	1.628294	1.068153	-0.206918
C163	C	0.961615	0.401496	-0.812494
C164	C	1.294948	0.734830	-0.479160
C165	C	1.628282	1.068163	-0.145827
C166	C	0.961538	0.401634	-0.166846
C167	C	1.294872	0.734967	0.166488
C168	C	1.628205	1.068301	0.499821
C169	C	0.961665	0.401424	-0.091605
C170	C	1.294999	0.734757	0.241728
C171	C	1.628332	1.068090	0.575061
H172	H	0.215887	0.498514	-0.425132
H173	H	0.549220	0.831848	-0.091799
H174	H	0.882554	1.165181	0.241534
H175	H	1.036077	0.498298	-0.605010
H176	H	1.369411	0.831632	-0.271677
H177	H	1.702744	1.164965	0.061657
H178	H	0.571648	0.498488	-0.425067
H179	H	0.904982	0.831822	-0.091734
H180	H	1.238315	1.165155	0.241599
H181	H	0.887147	0.304712	-0.952829
H182	H	1.220480	0.638046	-0.619495
H183	H	1.553813	0.971379	-0.286162
H184	H	0.344121	0.498513	-0.425103
H185	H	0.677454	0.831847	-0.091769
H186	H	1.010787	1.165180	0.241564
H187	H	0.699893	0.498478	-0.425045
H188	H	1.033227	0.831812	-0.091712
H189	H	1.366560	1.165145	0.241621
H190	H	0.352099	0.304809	-0.260352
H191	H	0.685432	0.638142	0.072981
H192	H	1.018766	0.971475	0.406315
H193	H	0.887171	0.304678	-1.081072
H194	H	1.220504	0.638011	-0.747739
H195	H	1.553837	0.971344	-0.414405
H196	H	0.579624	0.304786	-0.260306
H197	H	0.912957	0.638120	0.073028
H198	H	1.246290	0.971453	0.406361
H199	H	1.036169	0.498169	-1.089008
H200	H	1.369502	0.831502	-0.755675
H201	H	1.702836	1.164836	-0.422342
H202	H	0.707859	0.304767	-0.260293
H203	H	1.041192	0.638100	0.073040
H204	H	1.374525	0.971433	0.406373
H205	H	0.223854	0.304810	-0.260374
H206	H	0.557187	0.638143	0.072959
H207	H	0.890520	0.971476	0.406293
H208	H	1.017973	0.886307	-0.286338
H209	H	1.351306	1.219640	0.046995
H210	H	1.684639	1.552973	0.380329
H211	H	1.036132	0.498221	-0.960776
H212	H	1.369466	0.831554	-0.627443
H213	H	1.702799	1.164887	-0.294109
H214	H	0.905112	0.916123	-0.399023
H215	H	1.238446	1.249457	-0.065690
H216	H	1.571779	1.582790	0.267643
H217	H	1.036090	0.498268	-0.733254
H218	H	1.369424	0.831602	-0.399921
H219	H	1.702757	1.164935	-0.066588
H220	H	0.887096	0.304780	-0.725305
H221	H	1.220429	0.638114	-0.391972
H222	H	1.553763	0.971447	-0.058638
H223	H	0.887081	0.304804	-0.597072
H224	H	1.220414	0.638137	-0.263739
H225	H	1.553747	0.971471	0.069595
