data_functionalizedCrystal
_audit_creation_method	'MofGen! by Chris Wilmer'
_symmetry_space_group_name_H-M	'P1'
_symmetry_Int_Tables_number	1
_symmetry_cell_setting	triclinic
loop_
_symmetry_equiv_pos_as_xyz
  x,y,z
_cell_length_a	16.120256
_cell_length_b	13.897449
_cell_length_c	13.897447
_cell_angle_alpha	89.979190
_cell_angle_beta	92.876392
_cell_angle_gamma	87.120616
loop_
_atom_site_label
_atom_site_type_symbol
_atom_site_fract_x
_atom_site_fract_y
_atom_site_fract_z
Zn1	Zn	-0.471376	-1.447017	-0.411678
Zn2	Zn	-0.221376	-1.197017	-0.161678
Zn3	Zn	0.028624	-0.947017	0.088322
Zn4	Zn	0.278624	-0.697017	0.338322
Zn5	Zn	-0.331970	-1.455090	-0.564800
Zn6	Zn	-0.081970	-1.205090	-0.314800
Zn7	Zn	0.168030	-0.955090	-0.064800
Zn8	Zn	0.418030	-0.705090	0.185200
Zn9	Zn	-0.331982	-1.293889	-0.403525
Zn10	Zn	-0.081982	-1.043889	-0.153525
Zn11	Zn	0.168018	-0.793889	0.096475
Zn12	Zn	0.418018	-0.543889	0.346475
Zn13	Zn	-0.471340	-1.285684	-0.572934
Zn14	Zn	-0.221340	-1.035684	-0.322934
Zn15	Zn	0.028660	-0.785684	-0.072934
Zn16	Zn	0.278660	-0.535684	0.177066
O17	O	-0.401667	-1.370420	-0.488234
O18	O	-0.151667	-1.120420	-0.238234
O19	O	0.098333	-0.870420	0.011766
O20	O	0.348333	-0.620420	0.261766
O21	O	-0.452894	-1.583069	-0.431998
O22	O	-0.202894	-1.333069	-0.181998
O23	O	0.047106	-1.083069	0.068002
O24	O	0.297106	-0.833069	0.318002
O25	O	-0.215308	-1.440519	-0.536590
O26	O	0.034692	-1.190519	-0.286590
O27	O	0.284692	-0.940519	-0.036590
O28	O	0.534692	-0.690519	0.213410
O29	O	-0.350493	-1.314257	-0.269626
O30	O	-0.100493	-1.064257	-0.019626
O31	O	0.149507	-0.814257	0.230374
O32	O	0.399507	-0.564257	0.480374
O33	O	-0.350473	-1.589000	-0.544496
O34	O	-0.100473	-1.339000	-0.294496
O35	O	0.149527	-1.089000	-0.044496
O36	O	0.399527	-0.839000	0.205504
O37	O	-0.452905	-1.426759	-0.275616
O38	O	-0.202905	-1.176759	-0.025616
O39	O	0.047095	-0.926759	0.224384
O40	O	0.297095	-0.676759	0.474384
O41	O	-0.215317	-1.322085	-0.418102
O42	O	0.034683	-1.072085	-0.168102
O43	O	0.284683	-0.822085	0.081898
O44	O	0.534683	-0.572085	0.331898
O45	O	-0.350457	-1.157820	-0.425989
O46	O	-0.100457	-0.907820	-0.175989
O47	O	0.149543	-0.657820	0.074011
O48	O	0.399543	-0.407820	0.324011
O49	O	-0.588008	-1.300273	-0.558360
O50	O	-0.338008	-1.050273	-0.308360
O51	O	-0.088008	-0.800273	-0.058360
O52	O	0.161992	-0.550273	0.191640
O53	O	-0.452843	-1.151792	-0.550454
O54	O	-0.202843	-0.901792	-0.300454
O55	O	0.047157	-0.651792	-0.050454
O56	O	0.297157	-0.401792	0.199546
O57	O	-0.588035	-1.418803	-0.439886
O58	O	-0.338035	-1.168803	-0.189886
O59	O	-0.088035	-0.918803	0.060114
O60	O	0.161965	-0.668803	0.310114
O61	O	-0.350438	-1.432563	-0.700859
O62	O	-0.100438	-1.182563	-0.450859
O63	O	0.149562	-0.932563	-0.200859
O64	O	0.399562	-0.682563	0.049141
O65	O	-0.452832	-1.308101	-0.706836
O66	O	-0.202832	-1.058101	-0.456836
O67	O	0.047168	-0.808101	-0.206836
O68	O	0.297168	-0.558101	0.043164
C69	C	-0.401648	-1.119807	-0.488220
C70	C	-0.151648	-0.869807	-0.238220
C71	C	0.098352	-0.619807	0.011780
C72	C	0.348352	-0.369807	0.261780
C73	C	-0.401660	-1.012592	-0.488239
C74	C	-0.151660	-0.762592	-0.238239
C75	C	0.098340	-0.512592	0.011761
C76	C	0.348340	-0.262592	0.261761
C77	C	-0.401648	-1.370343	-0.738847
C78	C	-0.151648	-1.120343	-0.488847
C79	C	0.098352	-0.870343	-0.238847
C80	C	0.348352	-0.620343	0.011153
C81	C	-0.401667	-1.370396	-0.846062
C82	C	-0.151667	-1.120396	-0.596062
C83	C	0.098333	-0.870396	-0.346062
C84	C	0.348333	-0.620396	-0.096062
C85	C	-0.619117	-1.357722	-0.500940
C86	C	-0.369117	-1.107722	-0.250940
C87	C	-0.119117	-0.857722	-0.000940
C88	C	0.130883	-0.607722	0.249060
C89	C	-0.711781	-1.352311	-0.506354
C90	C	-0.461781	-1.102311	-0.256354
C91	C	-0.211781	-0.852311	-0.006354
C92	C	0.038219	-0.602311	0.243646
C93	C	-0.922740	-1.398636	-0.459975
C94	C	-0.672740	-1.148636	-0.209975
C95	C	-0.422740	-0.898636	0.040025
C96	C	-0.172740	-0.648636	0.290025
C97	C	-0.881435	-1.342400	-0.516199
C98	C	-0.631435	-1.092400	-0.266199
C99	C	-0.381435	-0.842400	-0.016199
C100	C	-0.131435	-0.592400	0.233801
C101	C	-0.787031	-1.347916	-0.510720
C102	C	-0.537031	-1.097916	-0.260720
C103	C	-0.287031	-0.847916	-0.010720
C104	C	-0.037031	-0.597916	0.239280
C105	C	-1.017153	-1.393121	-0.465453
C106	C	-0.767153	-1.143121	-0.215453
C107	C	-0.517153	-0.893121	0.034547
C108	C	-0.267153	-0.643121	0.284547
C109	C	-0.185063	-1.383124	-0.475509
C110	C	0.064937	-1.133124	-0.225509
C111	C	0.314937	-0.883124	0.024491
C112	C	0.564937	-0.633124	0.274491
C113	C	-0.092399	-1.388722	-0.469823
C114	C	0.157601	-1.138722	-0.219823
C115	C	0.407601	-0.888722	0.030177
C116	C	0.657601	-0.638722	0.280177
C117	C	-0.401686	-1.622012	-0.488249
C118	C	-0.151686	-1.372012	-0.238249
C119	C	0.098314	-1.122012	0.011751
C120	C	0.348314	-0.872012	0.261751
C121	C	-0.401695	-1.729225	-0.488255
C122	C	-0.151695	-1.479225	-0.238255
C123	C	0.098305	-1.229225	0.011745
C124	C	0.348305	-0.979225	0.261745
C125	C	-0.401681	-0.816296	-0.488243
C126	C	-0.151681	-0.566296	-0.238243
C127	C	0.098319	-0.316296	0.011757
C128	C	0.348319	-0.066296	0.261757
C129	C	-0.401667	-0.925529	-0.488238
C130	C	-0.151667	-0.675529	-0.238238
C131	C	0.098333	-0.425529	0.011762
C132	C	0.348333	-0.175529	0.261762
C133	C	-0.401686	-1.370442	-0.933133
C134	C	-0.151686	-1.120442	-0.683133
C135	C	0.098314	-0.870442	-0.433133
C136	C	0.348314	-0.620442	-0.183133
C137	C	-0.401708	-1.370508	-1.042367
C138	C	-0.151708	-1.120508	-0.792367
C139	C	0.098292	-0.870508	-0.542367
C140	C	0.348292	-0.620508	-0.292367
C141	C	-0.401705	-1.370523	-0.236643
C142	C	-0.151705	-1.120523	0.013357
C143	C	0.098295	-0.870523	0.263357
C144	C	0.348295	-0.620523	0.513357
C145	C	-0.401721	-1.370567	-0.129430
C146	C	-0.151721	-1.120567	0.120570
C147	C	0.098279	-0.870567	0.370570
C148	C	0.348279	-0.620567	0.620570
H149	H	-0.916971	-1.290107	-0.568444
H150	H	-0.666971	-1.040107	-0.318444
H151	H	-0.416971	-0.790107	-0.068444
H152	H	-0.166971	-0.540107	0.181556
H153	H	-0.887206	-1.450920	-0.407729
H154	H	-0.637206	-1.200920	-0.157729
H155	H	-0.387206	-0.950920	0.092271
H156	H	-0.137206	-0.700920	0.342271
