data_functionalizedCrystal
_audit_creation_method	'MofGen! by Chris Wilmer'
_symmetry_space_group_name_H-M	'P1'
_symmetry_Int_Tables_number	1
_symmetry_cell_setting	triclinic
loop_
_symmetry_equiv_pos_as_xyz
  x,y,z
_cell_length_a	13.897449
_cell_length_b	14.908932
_cell_length_c	14.908694
_cell_angle_alpha	90.169261
_cell_angle_beta	86.684269
_cell_angle_gamma	93.301058
loop_
_atom_site_label
_atom_site_type_symbol
_atom_site_fract_x
_atom_site_fract_y
_atom_site_fract_z
Zn1	Zn	1.480975	-0.387259	-0.487778
Zn2	Zn	1.462361	-0.528961	-0.328765
Zn3	Zn	1.310928	-0.378623	-0.337435
Zn4	Zn	1.309874	-0.537579	-0.479081
O5	O	1.391035	-0.458106	-0.408265
O6	O	1.613488	-0.406064	-0.466696
O7	O	1.434924	-0.501798	-0.204088
O8	O	1.341716	-0.253943	-0.364647
O9	O	1.599812	-0.510171	-0.349869
O10	O	1.466649	-0.260288	-0.475103
O11	O	1.323667	-0.391345	-0.210458
O12	O	1.175806	-0.399702	-0.356214
O13	O	1.339920	-0.524859	-0.606062
O14	O	1.175032	-0.516485	-0.460281
O15	O	1.465627	-0.414420	-0.612452
O16	O	1.433902	-0.655930	-0.341436
O17	O	1.321871	-0.662262	-0.451873
C18	C	1.140420	-0.458092	-0.408245
C19	C	1.033206	-0.458110	-0.408257
C20	C	1.375780	-0.691722	-0.394790
C21	C	1.369344	-0.791666	-0.389055
C22	C	1.404732	-0.471564	-0.642795
C23	C	1.410569	-0.477299	-0.742737
C24	C	0.836912	-0.458114	-0.408280
C25	C	0.946143	-0.458109	-0.408265
C26	C	1.642628	-0.458119	-0.408285
C27	C	1.749842	-0.458125	-0.408294
C28	C	1.406376	-0.223578	-0.421813
C29	C	1.412914	-0.123636	-0.427586
C30	C	1.295084	0.070773	-0.323418
C31	C	1.301224	0.164678	-0.328840
C32	C	1.431327	0.158079	-0.443854
C33	C	1.425188	0.064174	-0.438433
C34	C	1.357065	0.020525	-0.378212
C35	C	1.350931	-0.073381	-0.372786
C36	C	1.481029	-0.079978	-0.487805
C37	C	1.487168	0.013926	-0.493226
C38	C	1.305663	-0.373065	-0.937175
C39	C	1.311144	-0.378451	-1.031080
C40	C	1.427008	-0.493461	-1.024455
C41	C	1.421527	-0.488075	-0.930549
C42	C	1.360853	-0.427874	-0.886913
C43	C	1.355378	-0.422484	-0.793006
C44	C	1.471235	-0.537498	-0.786382
C45	C	1.476717	-0.542884	-0.880287
C46	C	1.377450	-0.444634	-0.174651
C47	C	1.371816	-0.438646	-0.074724
H48	H	1.295463	-0.108918	-0.323750
Cl49	Cl	1.572796	0.068808	-0.568934
H50	H	1.516179	-0.582125	-0.745449
Cl51	Cl	1.241756	-0.309548	-1.094264
H52	H	1.476391	-0.542486	-1.059999
H53	H	1.239621	0.035234	-0.274379
H54	H	1.250752	0.205588	-0.284223
H55	H	1.256270	-0.324039	-0.901646
H56	H	1.526112	-0.591901	-0.915829
Cl57	Cl	1.516937	0.212966	-0.519575
Cl58	Cl	1.279106	-0.346802	-0.738151
Cl59	Cl	1.558959	-0.143153	-0.556685
