data_functionalizedCrystal
_audit_creation_method	'MofGen! by Chris Wilmer'
_symmetry_space_group_name_H-M	'P1'
_symmetry_Int_Tables_number	1
_symmetry_cell_setting	triclinic
loop_
_symmetry_equiv_pos_as_xyz
  x,y,z
_cell_length_a	16.704494
_cell_length_b	20.919309
_cell_length_c	16.704494
_cell_angle_alpha	90.228451
_cell_angle_beta	60.174809
_cell_angle_gamma	60.955789
loop_
_atom_site_label
_atom_site_type_symbol
_atom_site_fract_x
_atom_site_fract_y
_atom_site_fract_z
Zr1	Zr	0.800964	0.680589	-0.107766
O2	O	0.963754	0.586906	-0.241974
O3	O	0.636000	0.704162	-0.061232
O4	O	0.785055	0.717617	-0.227157
O5	O	0.828005	0.568691	0.048702
O6	O	0.774979	0.826579	-0.221603
O7	O	0.814698	0.573450	-0.076049
O8	O	0.508347	0.802510	0.075207
O9	O	1.094638	0.592760	-0.248108
O10	O	0.697137	0.801750	-0.043755
O11	O	0.714588	0.716881	0.045200
O12	O	0.890081	0.732723	-0.150156
O13	O	0.907532	0.647854	-0.061201
Zr14	Zr	0.806117	0.846780	0.100055
Zr15	Zr	0.784893	0.854371	-0.098908
Zr16	Zr	0.822187	0.672998	0.091197
Zr17	Zr	1.009709	0.689926	-0.117549
Zr18	Zr	0.597371	0.837443	0.109838
O19	O	0.971080	0.823207	0.053521
O20	O	0.940904	0.834001	-0.229379
O21	O	0.993930	0.576112	0.040926
O22	O	0.643327	0.940464	0.234263
O23	O	0.613150	0.951257	-0.048636
O24	O	0.666177	0.693368	0.221668
O25	O	0.779075	0.958679	-0.056412
O26	O	0.822025	0.809752	0.219446
O27	O	0.832101	0.700790	0.213892
O28	O	0.792382	0.953919	0.068338
O29	O	1.081864	0.730893	-0.241067
O30	O	0.525216	0.796476	0.233356
O31	O	0.512442	0.934609	0.240397
O32	O	0.495573	0.940643	0.082248
O33	O	1.111507	0.586726	-0.089959
O34	O	1.098734	0.724859	-0.082918
O35	O	0.716999	0.794646	0.142445
O36	O	0.699549	0.879515	0.053490
O37	O	0.892492	0.810488	-0.052911
O38	O	0.909943	0.725619	0.036044
C39	C	0.542432	0.752006	0.008381
C40	C	0.453814	0.748042	0.012534
C41	C	0.269056	0.829216	-0.072524
C42	C	0.185791	0.825494	-0.068624
C43	C	0.204012	0.736881	0.024239
C44	C	0.287277	0.740603	0.020340
C45	C	0.319796	0.786771	-0.028045
C46	C	0.403069	0.790488	-0.031950
C47	C	0.421282	0.701880	0.060919
C48	C	0.338018	0.698158	0.064818
C49	C	0.823642	0.546310	-0.014936
C50	C	0.830464	0.472535	-0.018696
C51	C	0.732957	0.473905	0.035072
C52	C	0.739373	0.404584	0.031536
C53	C	0.843298	0.333893	-0.025774
C54	C	0.940813	0.332525	-0.079544
C55	C	0.934396	0.401846	-0.076002
C56	C	0.867714	0.122787	-0.039242
C57	C	0.874124	0.053464	-0.042783
C58	C	0.672683	0.125528	0.068299
C59	C	0.666275	0.194846	0.071832
C60	C	0.763790	0.193472	0.018066
C61	C	0.849860	0.263034	-0.029392
C62	C	0.757228	0.264330	0.021690
C63	C	1.064649	0.775364	-0.016092
C64	C	1.153267	0.779327	-0.020245
C65	C	0.776993	0.773180	-0.252728
C66	C	0.767984	0.776403	-0.337193
C67	C	0.783439	0.981059	0.007225
C68	C	0.776616	1.054834	0.010986
C69	C	0.952503	0.710400	-0.607005
C70	C	0.944043	0.713426	-0.686370
C71	C	0.742603	0.785486	-0.575291
C72	C	0.751064	0.782459	-0.495925
C73	C	0.856017	0.744914	-0.511787
C74	C	0.864477	0.741884	-0.432420
C75	C	0.663038	0.813948	-0.321343
C76	C	0.654577	0.816974	-0.400708
C77	C	0.830087	0.754189	0.245017
C78	C	0.839097	0.750967	0.329482
C79	C	0.522330	0.969380	0.019462
C80	C	0.426890	1.039191	0.027375
C81	C	0.568978	0.742510	0.257254
C82	C	0.489370	0.735324	0.345872
C83	C	0.548877	0.959885	0.268334
C84	C	0.462447	1.026473	0.360713
C85	C	1.058203	0.567485	-0.276045
C86	C	1.144634	0.500896	-0.368424
C87	C	1.084750	0.557989	-0.027173
C88	C	1.180190	0.488178	-0.035086
C89	C	1.038102	0.784859	-0.264965
C90	C	1.117710	0.792045	-0.353583
C91	C	0.380811	1.031383	-0.019677
C92	C	0.291145	1.096973	-0.012261
C93	C	0.247555	1.170369	0.042214
C94	C	0.293642	1.178176	0.089268
C95	C	0.383312	1.112588	0.081846
C96	C	0.453245	0.772542	0.438257
C97	C	0.378457	0.765786	0.521530
C98	C	0.339790	0.721818	0.512416
C99	C	0.375923	0.684596	0.420021
C100	C	0.450716	0.691347	0.336750
C101	C	0.412748	1.102052	0.357662
C102	C	0.331548	1.164627	0.444454
C103	C	0.300042	1.151620	0.534296
C104	C	0.349749	1.076034	0.537344
C105	C	0.430953	1.013461	0.450553
C106	C	1.194342	0.425318	-0.365373
C107	C	1.275568	0.362744	-0.452166
C108	C	1.307079	0.375751	-0.542009
C109	C	1.257366	0.451337	-0.545057
C110	C	1.176147	0.513909	-0.458265
C111	C	1.226277	0.495987	0.011958
C112	C	1.315964	0.430399	0.004519
C113	C	1.359557	0.357003	-0.049960
C114	C	1.313466	0.349196	-0.097010
C115	C	1.223786	0.414783	-0.089576
C116	C	1.156353	0.836020	-0.344437
C117	C	1.231142	0.842787	-0.427695
C118	C	1.267292	0.805575	-0.520097
C119	C	1.228641	0.761599	-0.529240
C120	C	1.153848	0.754837	-0.445983
H121	H	0.311525	0.660572	0.104215
N122	N	0.986218	-0.022785	-0.104604
H123	H	1.047021	-0.013138	-0.138128
H124	H	0.998250	-0.054904	-0.061754
N125	N	1.122520	0.595427	-0.461553
H126	H	1.181703	0.606104	-0.499259
H127	H	1.083640	0.601643	-0.494646
N128	N	0.339488	0.805948	0.621173
H129	H	0.255698	0.843584	0.662364
H130	H	0.361404	0.766288	0.653531
H131	H	1.126932	0.866323	-0.269207
N132	N	0.259120	0.714541	0.602235
H133	H	0.242104	0.744795	0.662141
H134	H	0.187844	0.735597	0.606662
H135	H	0.253631	1.090601	-0.050579
N136	N	0.629411	0.825989	-0.558193
H137	H	0.638697	0.822671	-0.622921
H138	H	0.590678	0.800372	-0.522155
N139	N	1.272817	0.890221	-0.417820
H140	H	1.238571	0.912760	-0.346650
H141	H	1.356720	0.856167	-0.454537
N142	N	1.267643	0.721460	-0.628905
H143	H	1.201276	0.741162	-0.632245
H144	H	1.320911	0.732432	-0.680194
H145	H	0.569127	0.847545	-0.387807
N146	N	1.347951	0.812880	-0.609890
H147	H	1.366939	0.846388	-0.590066
H148	H	1.418241	0.759919	-0.654230
H149	H	0.344430	0.648797	0.412615
H150	H	0.174539	1.223769	0.048251
H151	H	1.186265	0.408414	-0.127883
N152	N	0.246623	1.257341	0.148021
H153	H	0.182824	1.297700	0.145580
H154	H	0.218781	1.259633	0.217930
N155	N	0.558969	0.851176	-0.218635
H156	H	0.509683	0.908280	-0.206078
H157	H	0.517333	0.826571	-0.210317
N158	N	0.645145	0.340574	0.083494
H159	H	0.597249	0.346048	0.060415
H160	H	0.607295	0.342439	0.153883
H161	H	0.420819	1.118956	0.120169
H162	H	0.659973	0.405706	0.075321
N163	N	0.494938	0.819969	0.448102
H164	H	0.460698	0.842514	0.519269
H165	H	0.578841	0.785908	0.411382
N166	N	0.438146	0.840282	-0.084131
H167	H	0.520111	0.806957	-0.138941
H168	H	0.393289	0.866600	-0.111650
H169	H	1.283033	0.461918	-0.618217
N170	N	1.160372	0.411283	-0.268477
H171	H	1.078050	0.433066	-0.228095
H172	H	1.204271	0.353899	-0.279807
H173	H	1.122393	0.719025	-0.453443
N174	N	0.489738	0.651157	0.237101
H175	H	0.453909	0.622267	0.243972
H176	H	0.467938	0.690782	0.204668
N177	N	1.329174	0.281225	-0.448865
H178	H	1.296874	0.282487	-0.378778
H179	H	1.314237	0.251138	-0.480562
N180	N	1.394679	0.308259	-0.635616
H181	H	1.421380	0.258408	-0.620041
H182	H	1.361567	0.308449	-0.672419
H183	H	0.581646	0.252403	0.118482
N184	N	0.961945	0.186788	-0.091219
H185	H	1.022748	0.196434	-0.124753
H186	H	0.973983	0.154670	-0.048370
H187	H	0.291083	1.226167	0.441954
N188	N	0.168920	0.687091	0.076414
H189	H	0.235214	0.631522	0.044914
H190	H	0.139542	0.705272	0.147148
N191	N	0.446710	1.116091	0.260768
H192	H	0.402896	1.173469	0.272020
H193	H	0.529046	1.094252	0.220428
H194	H	0.295541	0.866802	-0.111928
H195	H	0.416299	0.971627	-0.064048
N196	N	1.179271	0.575145	0.070719
H197	H	1.222091	0.570128	0.099383
H198	H	1.186170	0.608103	0.026974
H199	H	0.233918	1.202578	0.604959
N200	N	0.315761	1.062012	0.634249
H201	H	0.256773	1.113124	0.688760
H202	H	0.284882	1.029544	0.641661
H203	H	0.947116	0.121658	-0.083039
H204	H	1.348973	0.289428	-0.141366
N205	N	0.484548	0.931944	0.453852
H206	H	0.452258	0.933208	0.523939
H207	H	0.469590	0.901865	0.422170
H208	H	1.353477	0.436771	0.042838
H209	H	1.432580	0.303604	-0.056005
H210	H	0.462609	0.667315	0.097132
H211	H	0.648330	0.531461	0.081744
N212	N	0.131059	0.871275	-0.116594
H213	H	0.164298	0.901086	-0.147835
H214	H	0.143942	0.834815	-0.168120
N215	N	0.567511	0.127009	0.126282
H216	H	0.587341	0.072369	0.115344
H217	H	0.527389	0.153074	0.197896
H218	H	1.013798	0.400725	-0.119775
N219	N	1.052899	0.256278	-0.141356
H220	H	1.090831	0.254376	-0.211760
H221	H	1.100715	0.250846	-0.118203
N222	N	0.977667	0.701400	-0.449517
H223	H	0.989454	0.657711	-0.421151
H224	H	1.037437	0.680047	-0.521893
N225	N	1.065695	0.669898	-0.624102
H226	H	1.125538	0.648488	-0.696467
H227	H	1.069820	0.707896	-0.591511
N228	N	1.048107	0.676216	-0.789069
H229	H	1.115874	0.651979	-0.787069
H230	H	1.052780	0.635075	-0.826516
