data_functionalizedCrystal
_audit_creation_method	'MofGen! by Chris Wilmer'
_symmetry_space_group_name_H-M	'P1'
_symmetry_Int_Tables_number	1
_symmetry_cell_setting	triclinic
loop_
_symmetry_equiv_pos_as_xyz
  x,y,z
_cell_length_a	15.944545
_cell_length_b	15.021413
_cell_length_c	10.967829
_cell_angle_alpha	102.126569
_cell_angle_beta	84.117371
_cell_angle_gamma	89.990408
loop_
_atom_site_label
_atom_site_type_symbol
_atom_site_fract_x
_atom_site_fract_y
_atom_site_fract_z
O1	O	1.115433	0.098655	0.160888
O2	O	0.870995	0.101714	0.180737
O3	O	0.998855	0.072313	-0.010834
O4	O	0.987573	0.128055	0.352459
O5	O	0.998871	-0.075749	-0.010823
O6	O	0.871011	-0.046348	0.180749
O7	O	1.115448	-0.049408	0.160900
Zn8	Zn	0.993232	-0.071386	0.170826
Zn9	Zn	0.993212	0.123692	0.170811
O10	O	0.987588	-0.020007	0.352471
C11	C	0.839704	0.027558	0.179921
C12	C	0.746444	0.027185	0.177454
C13	C	0.475091	0.007826	0.051340
C14	C	0.526028	-0.055850	0.112148
C15	C	0.410750	0.025821	0.168659
C16	C	0.525993	0.090133	0.112168
C17	C	0.575688	0.026492	0.172974
C18	C	0.460458	-0.037920	0.229436
C19	C	0.460420	0.108126	0.229438
C20	C	0.511324	0.044446	0.290333
C21	C	0.315734	0.025433	0.166170
C22	C	0.670702	0.026875	0.175472
N23	N	0.993251	-0.204522	0.170836
C24	C	1.052385	-0.457780	0.082233
C25	C	0.976347	-0.520823	0.057995
C26	C	0.993232	-0.386132	0.170821
C27	C	1.069251	-0.499841	0.194985
C28	C	0.993220	-0.561558	0.170803
C29	C	0.917155	-0.447877	0.146527
C30	C	1.010109	-0.426883	0.283565
C31	C	0.934016	-0.489892	0.259376
C32	C	0.993240	-0.285073	0.170828
C33	C	0.993203	-0.662615	0.170796
C34	C	1.146739	0.024750	0.161716
C35	C	1.239999	0.025129	0.164183
C36	C	0.998043	-0.008849	-0.057318
C37	C	0.995590	-0.030097	-0.195840
N38	N	0.993199	0.256827	0.170791
C39	C	0.994489	0.037132	-0.257598
C40	C	0.991954	0.015173	-0.400768
C41	C	0.988400	0.061157	0.398954
C42	C	0.990853	0.082411	0.537477
H43	H	0.431937	-0.092109	0.278951
C44	C	0.453616	-0.012997	-0.083462
C45	C	0.528191	-0.026372	-0.164994
C46	C	0.508441	-0.045572	-0.289179
H47	H	0.422050	0.036600	-0.098280
H48	H	0.421207	-0.066562	-0.097584
H49	H	0.560586	0.027187	-0.150879
H50	H	0.559767	-0.075971	-0.150217
H51	H	0.476032	-0.099137	-0.303301
H52	H	0.476874	0.004028	-0.303983
H53	H	0.559036	-0.054657	-0.344513
C54	C	0.422285	0.200553	0.295643
C55	C	0.441621	0.220199	0.420027
C56	C	0.406514	0.305346	0.481037
H57	H	0.362808	0.199549	0.294407
H58	H	0.444846	0.245994	0.253897
H59	H	0.419056	0.174769	0.461762
H60	H	0.501091	0.221222	0.421301
H61	H	0.429075	0.350787	0.439292
H62	H	0.347039	0.304334	0.479792
H63	H	0.419635	0.318691	0.565435
C64	C	0.532882	0.064931	0.425092
C65	C	0.580634	-0.007714	0.445710
C66	C	0.600520	0.011124	0.569827
H67	H	0.482364	0.072883	0.480572
H68	H	0.564513	0.119034	0.439812
H69	H	0.549003	-0.061802	0.431003
H70	H	0.631161	-0.015678	0.390261
H71	H	0.632151	0.065227	0.584547
H72	H	0.549999	0.019077	0.625297
H73	H	0.632929	-0.038158	0.583830
C74	C	0.867110	-0.509047	0.359106
C75	C	0.787697	-0.482780	0.333202
C76	C	0.726040	-0.500428	0.425029
H77	H	0.878528	-0.475588	0.439058
H78	H	0.867726	-0.572307	0.359001
H79	H	0.787082	-0.419531	0.333321
H80	H	0.776252	-0.516235	0.253267
H81	H	0.726657	-0.563687	0.424923
H82	H	0.737467	-0.466967	0.504975
H83	H	0.672151	-0.482616	0.407459
C84	C	0.563999	0.162367	0.046083
C85	C	0.499787	0.206393	0.001662
C86	C	0.534761	0.272941	-0.059215
H87	H	0.603234	0.134433	-0.022362
H88	H	0.592035	0.205592	0.103381
H89	H	0.471764	0.163174	-0.055632
H90	H	0.460547	0.234345	0.070082
H91	H	0.562798	0.316167	-0.001917
H92	H	0.573997	0.245000	-0.127655
H93	H	0.491199	0.302826	-0.089352
H94	H	1.102357	-0.443246	0.007276
H95	H	0.962061	-0.561515	-0.037358
C96	C	1.029361	-0.372652	0.410609
C97	C	1.109072	-0.398870	0.435429
C98	C	1.126850	-0.348922	0.552441
H99	H	0.987966	-0.384117	0.473816
H100	H	1.028758	-0.309515	0.409930
H101	H	1.109668	-0.461992	0.436118
H102	H	1.150484	-0.387402	0.372252
H103	H	1.126248	-0.285785	0.551761
H104	H	1.085450	-0.360391	0.615638
H105	H	1.180939	-0.366697	0.569291
C106	C	0.990567	-0.083215	-0.471706
C107	C	0.917113	-0.097156	-0.532420
C108	C	0.915808	-0.187774	-0.597790
H109	H	0.991540	-0.122638	-0.414525
H110	H	1.038536	-0.095799	-0.532070
H111	H	0.869156	-0.084581	-0.472063
H112	H	0.916125	-0.057755	-0.589621
H113	H	0.963777	-0.200358	-0.658154
H114	H	0.916783	-0.227189	-0.540600
H115	H	0.865974	-0.197243	-0.639001
C116	C	0.831472	-0.417279	0.119085
C117	C	0.832494	-0.324038	0.119343
C118	C	0.753583	-0.295819	0.094058
H119	H	0.789367	-0.428371	0.181603
H120	H	0.819361	-0.450287	0.039222
H121	H	0.844594	-0.291040	0.199195
H122	H	0.874581	-0.312921	0.056826
H123	H	0.741472	-0.328827	0.014195
H124	H	0.711484	-0.306916	0.156578
H125	H	0.754268	-0.232554	0.094218
C126	C	0.992048	0.180786	-0.391479
C127	C	0.994290	0.183013	-0.263593
C128	C	0.995360	0.273619	-0.198103
H129	H	0.942757	0.212183	-0.403140
H130	H	1.040557	0.209337	-0.422134
H131	H	0.945786	0.154475	-0.232948
H132	H	1.043578	0.151635	-0.251894
H133	H	1.043869	0.302170	-0.228758
H134	H	0.946068	0.305009	-0.209774
H135	H	0.996889	0.275142	-0.111328
H136	H	1.133544	-0.522795	0.215432
C137	C	0.994204	-0.128479	-0.266783
C138	C	0.920749	-0.142421	-0.327496
C139	C	0.919445	-0.233038	-0.392867
H140	H	0.995176	-0.167902	-0.209601
H141	H	1.042173	-0.141064	-0.327146
H142	H	0.872793	-0.129846	-0.267139
H143	H	0.919761	-0.103019	-0.384698
H144	H	0.967414	-0.245623	-0.453231
H145	H	0.920419	-0.272454	-0.335677
H146	H	0.869611	-0.242507	-0.434078
H147	H	0.995419	0.110946	-0.204477
H148	H	0.554682	-0.125172	0.062606
