data_functionalizedCrystal
_audit_creation_method	'MofGen! by Chris Wilmer'
_symmetry_space_group_name_H-M	'P1'
_symmetry_Int_Tables_number	1
_symmetry_cell_setting	triclinic
loop_
_symmetry_equiv_pos_as_xyz
  x,y,z
_cell_length_a	16.109318
_cell_length_b	16.176319
_cell_length_c	16.109301
_cell_angle_alpha	90.008225
_cell_angle_beta	83.465022
_cell_angle_gamma	90.003834
loop_
_atom_site_label
_atom_site_type_symbol
_atom_site_fract_x
_atom_site_fract_y
_atom_site_fract_z
O1	O	1.103126	0.068680	0.106938
O2	O	1.603126	0.568680	0.606938
O3	O	0.861066	0.068697	0.120222
O4	O	1.361066	0.568697	0.620222
O5	O	0.988746	0.068680	-0.007451
O6	O	1.488746	0.568680	0.492549
O7	O	0.975447	0.068698	0.234611
O8	O	1.475447	0.568698	0.734611
O9	O	0.988728	-0.068813	-0.007459
O10	O	1.488728	0.431187	0.492541
O11	O	0.861049	-0.068796	0.120214
O12	O	1.361049	0.431204	0.620214
O13	O	1.103109	-0.068813	0.106930
O14	O	1.603109	0.431187	0.606930
Cu15	Cu	0.982077	-0.081358	0.113571
Cu16	Cu	1.482077	0.418642	0.613571
Cu17	Cu	0.982098	0.081243	0.113581
Cu18	Cu	1.482098	0.581243	0.613581
O19	O	0.975429	-0.068795	0.234602
O20	O	1.475429	0.431205	0.734602
C21	C	0.830083	-0.000047	0.119677
C22	C	1.330083	0.499953	0.619677
C23	C	0.737788	-0.000041	0.118057
C24	C	1.237788	0.499959	0.618057
N25	N	0.982068	-0.195724	0.113564
N26	N	1.482068	0.304276	0.613564
C27	C	0.438724	0.074892	0.112826
C28	C	0.938724	0.574892	0.612826
C29	C	0.525445	0.074897	0.114343
C30	C	1.025445	0.574897	0.614343
C31	C	0.525445	-0.075006	0.114323
C32	C	1.025445	0.424994	0.614323
C33	C	0.438726	-0.075010	0.112800
C34	C	0.938726	0.424990	0.612800
C35	C	0.395367	-0.000059	0.112056
C36	C	0.895367	0.499941	0.612056
C37	C	0.568807	-0.000049	0.115096
C38	C	1.068807	0.499951	0.615096
C39	C	0.662835	-0.000044	0.116742
C40	C	1.162835	0.499956	0.616742
C41	C	0.301334	-0.000064	0.110409
C42	C	0.801334	0.499936	0.610409
C43	C	1.038622	-0.238996	0.057053
C44	C	1.538622	0.261004	0.557053
C45	C	1.038626	-0.325543	0.057053
C46	C	1.538626	0.174457	0.557053
C47	C	0.982080	-0.368816	0.113567
C48	C	1.482080	0.131184	0.613567
C49	C	0.925521	-0.325538	0.170080
C50	C	1.425521	0.174462	0.670080
C51	C	0.925513	-0.238993	0.170076
C52	C	1.425513	0.261007	0.670076
C53	C	0.925549	-0.674567	0.170095
C54	C	1.425549	-0.174567	0.670095
C55	C	0.925563	-0.761118	0.170096
C56	C	1.425563	-0.261118	0.670096
C57	C	1.038662	-0.761116	0.057072
C58	C	1.538662	-0.261116	0.557072
C59	C	1.038655	-0.674571	0.057068
C60	C	1.538655	-0.174571	0.557068
C61	C	0.982093	-0.631301	0.113578
C62	C	1.482093	-0.131301	0.613578
C63	C	0.982088	-0.537456	0.113577
C64	C	1.482088	-0.037456	0.613577
C65	C	0.982088	-0.462659	0.113572
C66	C	1.482088	0.037341	0.613572
C67	C	1.134092	-0.000066	0.107474
C68	C	1.634092	0.499934	0.607474
C69	C	1.226387	-0.000067	0.109095
C70	C	1.726387	0.499933	0.609095
C71	C	0.988198	-0.000067	-0.038430
C72	C	1.488198	0.499933	0.461570
C73	C	0.986583	-0.000068	-0.130725
C74	C	1.486583	0.499932	0.369275
N75	N	0.982113	0.195608	0.113581
N76	N	1.482113	0.695608	0.613581
C77	C	1.058590	-0.000060	-0.352993
C78	C	1.558590	0.499940	0.147007
C79	C	1.057066	-0.000053	-0.439713
C80	C	1.557066	0.499947	0.060287
C81	C	0.905579	-0.000046	-0.419848
C82	C	1.405579	0.499954	0.080152
C83	C	0.907104	-0.000047	-0.333130
C84	C	1.407104	0.499953	0.166870
C85	C	0.983612	-0.000058	-0.299704
C86	C	1.483612	0.499942	0.200296
C87	C	0.980563	-0.000050	-0.473144
C88	C	1.480563	0.499950	0.026856
C89	C	0.978910	-0.000043	-0.567170
C90	C	1.478910	0.499957	-0.067170
C91	C	0.985265	-0.000064	-0.205672
C92	C	1.485265	0.499936	0.294328
C93	C	0.975976	-0.000047	0.265581
C94	C	1.475976	0.499953	0.765581
C95	C	0.977592	-0.000040	0.357877
C96	C	1.477592	0.499960	0.857877
H97	H	0.403424	0.135922	0.112219
H98	H	0.903424	0.635922	0.612219
H99	H	1.120888	-0.000067	-0.325781
H100	H	1.620888	0.499933	0.174219
H101	H	1.084676	-0.360774	0.011037
H102	H	1.584676	0.139226	0.511037
H103	H	0.879513	-0.796350	0.216119
H104	H	1.379513	-0.296350	0.716119
C105	C	0.572646	-0.156316	0.115012
C106	C	1.072646	0.343684	0.615012
C107	C	0.631821	-0.160685	0.044414
C108	C	1.131821	0.339315	0.544414
C109	C	0.675323	-0.235572	0.045029
C110	C	1.175323	0.264428	0.545029
H111	H	0.534504	-0.201025	0.114293
H112	H	1.034504	0.298975	0.614293
H113	H	0.600171	-0.159434	0.164037
H114	H	1.100171	0.340566	0.664037
H115	H	0.604297	-0.157575	-0.004598
H116	H	1.104297	0.342425	0.495402
H117	H	0.669980	-0.115993	0.045119
H118	H	1.169980	0.384007	0.545119
H119	H	0.702849	-0.238691	0.094055
H120	H	1.202849	0.261309	0.594055
H121	H	0.637175	-0.280275	0.044312
H122	H	1.137175	0.219725	0.544312
H123	H	0.715483	-0.238543	-0.002866
H124	H	1.215483	0.261457	0.497134
H125	H	1.084672	-0.203768	0.011037
H126	H	1.584672	0.296232	0.511037
H127	H	1.084702	-0.639340	0.011052
H128	H	1.584702	-0.139340	0.511052
H129	H	1.084716	-0.796356	0.011056
H130	H	1.584716	-0.296356	0.511056
H131	H	0.879496	-0.639343	0.216109
H132	H	1.379496	-0.139343	0.716109
H133	H	0.843288	-0.000038	-0.447074
H134	H	1.343288	0.499962	0.052926
C135	C	0.864220	-0.372668	0.231403
C136	C	1.364220	0.127332	0.731403
C137	C	0.876345	-0.457723	0.219329
C138	C	1.376345	0.042277	0.719329
C139	C	0.819899	-0.501162	0.275815
C140	C	1.319899	-0.001162	0.775815
H141	H	0.808699	-0.358597	0.222407
H142	H	1.308699	0.141403	0.722407
H143	H	0.873237	-0.358518	0.286912
H144	H	1.373237	0.141482	0.786912
H145	H	0.867322	-0.471867	0.163833
H146	H	1.367322	0.028133	0.663833
H147	H	0.931854	-0.471819	0.228332
H148	H	1.431854	0.028181	0.728332
H149	H	0.828916	-0.487012	0.331324
H150	H	1.328916	0.012988	0.831324
H151	H	0.764382	-0.487084	0.266815
H152	H	1.264382	0.012916	0.766815
H153	H	0.828123	-0.558876	0.267636
H154	H	1.328123	-0.058876	0.767636
H155	H	1.118121	-0.000053	-0.483098
H156	H	1.618121	0.499947	0.016902
C157	C	0.864076	-0.192158	0.231526
C158	C	1.364076	0.307842	0.731526
C159	C	0.814572	-0.248576	0.281036
C160	C	1.314572	0.251424	0.781036
C161	C	0.757971	-0.205464	0.337660
C162	C	1.257971	0.294536	0.837660
H163	H	0.829397	-0.158405	0.201700
H164	H	1.329397	0.341595	0.701700
H165	H	0.893947	-0.158402	0.266192
H166	H	1.393947	0.341598	0.766192
H167	H	0.784704	-0.282318	0.246375
H168	H	1.284704	0.217682	0.746375
H169	H	0.849228	-0.282331	0.310881
H170	H	1.349228	0.217669	0.810881
H171	H	0.787842	-0.171708	0.372326
H172	H	1.287842	0.328292	0.872326
H173	H	0.723298	-0.171713	0.307826
H174	H	1.223298	0.328287	0.807826
H175	H	0.724381	-0.243737	0.371264
H176	H	1.224381	0.256263	0.871264
H177	H	0.846043	-0.000043	-0.289740
H178	H	1.346043	0.499957	0.210260
H179	H	0.560743	0.135929	0.114970
H180	H	1.060743	0.635929	0.614970
C181	C	0.391790	-0.156477	0.112009
C182	C	0.891790	0.343523	0.612009
C183	C	0.448317	-0.222115	0.113016
C184	C	0.948317	0.277885	0.613016
C185	C	0.405109	-0.297169	0.112295
C186	C	0.905109	0.202831	0.612295
H187	H	0.364310	-0.159710	0.062973
H188	H	0.864310	0.340290	0.562973
H189	H	0.351623	-0.159637	0.159887
H190	H	0.851623	0.340363	0.659887
H191	H	0.488470	-0.218956	0.065142
H192	H	0.988470	0.281044	0.565142
H193	H	0.475799	-0.218909	0.162048
H194	H	0.975799	0.281091	0.662048
H195	H	0.364942	-0.300330	0.160173
H196	H	0.864942	0.199670	0.660173
H197	H	0.377631	-0.300394	0.063258
H198	H	0.877631	0.199606	0.563258
H199	H	0.443455	-0.341714	0.112986
H200	H	0.943455	0.158286	0.612986
