data_functionalizedCrystal
_audit_creation_method	'MofGen! by Chris Wilmer'
_symmetry_space_group_name_H-M	'P1'
_symmetry_Int_Tables_number	1
_symmetry_cell_setting	triclinic
loop_
_symmetry_equiv_pos_as_xyz
  x,y,z
_cell_length_a	15.995300
_cell_length_b	15.995350
_cell_length_c	9.616153
_cell_angle_alpha	89.997791
_cell_angle_beta	90.004864
_cell_angle_gamma	83.482091
loop_
_atom_site_label
_atom_site_type_symbol
_atom_site_fract_x
_atom_site_fract_y
_atom_site_fract_z
O1	O	1.111011	0.107720	0.115690
O2	O	0.867230	0.121092	0.115680
O3	O	0.995784	-0.007483	0.115684
O4	O	0.982457	0.236295	0.115686
O5	O	0.995775	-0.007476	-0.115607
O6	O	0.867221	0.121099	-0.115611
O7	O	1.111002	0.107728	-0.115602
Zn8	Zn	0.989110	0.114414	-0.152329
Zn9	Zn	0.989122	0.114405	0.152407
O10	O	0.982447	0.236302	-0.115605
C11	C	0.836030	0.120550	0.000034
C12	C	0.743077	0.118915	0.000030
C13	C	0.572894	0.115896	0.000041
C14	C	0.525428	0.207443	0.000038
C15	C	0.428740	0.205773	0.000567
C16	C	0.405337	0.112924	0.000050
C17	C	0.446476	0.067499	0.131868
C18	C	0.543109	0.069816	0.131975
C19	C	0.543377	0.068469	-0.131056
C20	C	0.446433	0.068477	-0.132785
C21	C	0.310642	0.111239	0.000060
C22	C	0.667590	0.117577	0.000041
C23	C	0.995229	-0.038674	0.000041
C24	C	0.993577	-0.131624	0.000049
C25	C	0.987644	-0.469370	0.000044
C26	C	0.896090	-0.421920	0.000559
C27	C	0.897743	-0.325230	0.000038
C28	C	0.990587	-0.301810	0.000047
C29	C	1.035739	-0.342892	-0.132028
C30	C	1.033439	-0.439527	-0.132138
C31	C	1.035341	-0.439894	0.130883
C32	C	1.035320	-0.342949	0.132629
C33	C	0.992255	-0.207113	0.000044
C34	C	0.985979	-0.564068	0.000037
C35	C	1.142202	0.108269	0.000048
C36	C	1.235154	0.109904	0.000060
C37	C	0.983003	0.267493	0.000041
C38	C	0.984655	0.360443	0.000042
N39	N	0.989107	0.114421	-0.360303
C40	C	0.920309	0.183189	-0.419347
C41	C	0.920079	0.182995	-0.580515
C42	C	0.970406	0.026926	-0.581090
C43	C	0.969898	0.027346	-0.419872
C44	C	1.076843	0.132327	-0.419686
C45	C	1.076269	0.134295	-0.580914
N46	N	0.989131	0.114392	0.360382
H47	H	0.418094	0.098635	0.230336
C48	C	1.035193	-0.043670	-0.366836
C49	C	1.128631	-0.044086	-0.405715
C50	C	1.193995	-0.115000	-0.352564
C51	C	1.165921	-0.185500	-0.260534
C52	C	1.072479	-0.185087	-0.221650
C53	C	1.007115	-0.114172	-0.274801
H54	H	1.149417	0.008104	-0.473845
H55	H	1.263167	-0.115306	-0.381349
H56	H	1.214307	-0.237995	-0.221189
H57	H	1.051693	-0.237277	-0.153520
H58	H	0.937942	-0.113867	-0.246016
C59	C	1.095490	0.221215	-0.632599
C60	C	1.108172	0.291182	-0.527255
C61	C	1.127394	0.378100	-0.578951
C62	C	1.133936	0.395052	-0.735992
C63	C	1.121255	0.325083	-0.841346
C64	C	1.102032	0.238165	-0.789649
H65	H	1.103329	0.278635	-0.410995
H66	H	1.136782	0.429895	-0.500960
H67	H	1.148166	0.459394	-0.774260
H68	H	1.126097	0.337630	-0.957605
H69	H	1.092644	0.186370	-0.867640
C70	C	0.425683	-0.022959	-0.144187
C71	C	0.497165	-0.096068	-0.145130
C72	C	0.476401	-0.187501	-0.156572
C73	C	0.384155	-0.205824	-0.167071
C74	C	0.312666	-0.132712	-0.166128
C75	C	0.333430	-0.041280	-0.154686
H76	H	0.565457	-0.082506	-0.137358
H77	H	0.529323	-0.241623	-0.157270
H78	H	0.368784	-0.273508	-0.175541
H79	H	0.244374	-0.146274	-0.173900
H80	H	0.280509	0.012842	-0.153988
C81	C	1.126790	-0.322218	0.143411
C82	C	1.199880	-0.393722	0.143846
C83	C	1.291354	-0.372992	0.154612
C84	C	1.309737	-0.280758	0.164942
C85	C	1.236645	-0.209247	0.164508
C86	C	1.145171	-0.229977	0.153742
H87	H	1.186274	-0.462005	0.136199
H88	H	1.345462	-0.425929	0.154933
H89	H	1.377452	-0.265413	0.172912
H90	H	1.250251	-0.140965	0.172155
H91	H	1.091063	-0.177040	0.153420
H92	H	0.400896	0.241306	0.095611
C93	C	0.567869	0.114038	0.265587
C94	C	0.499746	0.147002	0.371447
C95	C	0.524501	0.191226	0.505061
C96	C	0.617378	0.202488	0.532815
C97	C	0.685507	0.169523	0.426952
C98	C	0.660753	0.125298	0.293338
H99	H	0.430987	0.138666	0.350905
H100	H	0.474067	0.215629	0.583427
H101	H	0.635703	0.235226	0.631723
H102	H	0.754266	0.177859	0.447494
H103	H	0.711187	0.100896	0.214972
C104	C	0.849470	-0.287566	-0.128092
C105	C	0.809300	-0.345481	-0.230262
C106	C	0.761028	-0.307818	-0.358401
C107	C	0.752926	-0.212239	-0.384369
C108	C	0.793098	-0.154319	-0.282195
C109	C	0.841370	-0.191982	-0.154057
H110	H	0.815296	-0.416239	-0.211042
H111	H	0.731291	-0.350695	-0.434036
H112	H	0.717193	-0.184359	-0.479225
H113	H	0.787102	-0.083561	-0.301416
H114	H	0.871107	-0.149105	-0.078422
C115	C	0.883474	0.006103	-0.369098
C116	C	0.815400	-0.011125	-0.475244
C117	C	0.728972	-0.032365	-0.424479
C118	C	0.710619	-0.036377	-0.267567
C119	C	0.778695	-0.019149	-0.161411
C120	C	0.865122	0.002091	-0.212177
H121	H	0.828984	-0.008155	-0.591409
H122	H	0.678578	-0.045118	-0.503063
H123	H	0.646640	-0.052101	-0.229987
H124	H	0.765110	-0.022119	-0.045246
H125	H	0.915517	0.014845	-0.133592
C126	C	1.124241	-0.483115	-0.140261
C127	C	1.198611	-0.429960	-0.146632
C128	C	1.289410	-0.473543	-0.154770
C129	C	1.305838	-0.570282	-0.156537
C130	C	1.231465	-0.623443	-0.150166
C131	C	1.140666	-0.579860	-0.142028
H132	H	1.186452	-0.358343	-0.145323
H133	H	1.344465	-0.434190	-0.159486
H134	H	1.373052	-0.602545	-0.162561
H135	H	1.243624	-0.695060	-0.151474
H136	H	1.085611	-0.619214	-0.137312
C137	C	0.550408	0.257156	-0.127634
C138	C	0.534190	0.225235	-0.275189
C139	C	0.559179	0.274948	-0.402865
C140	C	0.600388	0.356581	-0.382985
C141	C	0.616608	0.388506	-0.235423
C142	C	0.591619	0.338793	-0.107747
H143	H	0.503683	0.164802	-0.289912
H144	H	0.547172	0.251314	-0.512100
H145	H	0.618887	0.393381	-0.477498
H146	H	0.647115	0.448939	-0.220701
H147	H	0.603627	0.362427	0.001488
C148	C	0.846657	-0.446936	0.128519
C149	C	0.888813	-0.510759	0.234110
C150	C	0.839381	-0.535775	0.362082
C151	C	0.747793	-0.496968	0.384462
C152	C	0.705632	-0.433141	0.278868
C153	C	0.755064	-0.408125	0.150896
H154	H	0.956616	-0.539490	0.217545
H155	H	0.870592	-0.583025	0.440249
H156	H	0.711201	-0.515487	0.479194
H157	H	0.637829	-0.404410	0.295432
H158	H	0.723853	-0.360876	0.072728
C159	C	0.409490	0.113286	-0.264531
C160	C	0.363054	0.064437	-0.372477
C161	C	0.326103	0.109249	-0.504216
C162	C	0.335588	0.202910	-0.528011
C163	C	0.382026	0.251765	-0.420062
C164	C	0.418977	0.206952	-0.288322
H165	H	0.356030	-0.004902	-0.354866
H166	H	0.291726	0.073084	-0.584127
H167	H	0.308234	0.236083	-0.625532
H168	H	0.389049	0.321103	-0.437673
H169	H	0.453354	0.243118	-0.208411
H170	H	1.102844	-0.471667	0.131778
H171	H	0.575382	0.002592	0.137607
C172	C	1.148650	0.071036	-0.635248
C173	C	1.220358	0.102274	-0.720744
C174	C	1.292736	0.039004	-0.775077
C175	C	1.293406	-0.055504	-0.743914
C176	C	1.221696	-0.086746	-0.658413
C177	C	1.149318	-0.023477	-0.604081
H178	H	1.219864	0.172238	-0.743817
H179	H	1.345820	0.062133	-0.838370
H180	H	1.346985	-0.102340	-0.784134
H181	H	1.222190	-0.156711	-0.635341
H182	H	1.096234	-0.046605	-0.540787
H183	H	0.545041	0.243683	0.094425
H184	H	0.400273	0.241466	-0.093904
C185	C	0.994911	-0.467631	0.266125
C186	C	1.047237	-0.525843	0.369124
C187	C	1.006796	-0.553579	0.504358
C188	C	0.914029	-0.523101	0.536592
C189	C	0.861697	-0.464886	0.433591
C190	C	0.902138	-0.437150	0.298357
H191	H	1.115914	-0.548407	0.345265
H192	H	1.045536	-0.596674	0.580606
H193	H	0.884092	-0.543633	0.636700
H194	H	0.793020	-0.442322	0.457450
H195	H	0.863398	-0.394055	0.222109
H196	H	0.862249	-0.296804	0.094714
C197	C	0.990790	-0.306064	0.264634
C198	C	0.914170	-0.238907	0.252160
C199	C	0.869638	-0.202016	0.384163
C200	C	0.901728	-0.232282	0.528638
C201	C	0.978352	-0.299443	0.541118
C202	C	1.022883	-0.336334	0.409115
H203	H	0.890412	-0.216499	0.145206
H204	H	0.812916	-0.152299	0.374924
H205	H	0.868763	-0.204973	0.626354
H206	H	1.002110	-0.321851	0.648072
H207	H	1.079605	-0.386051	0.418354
H208	H	0.859656	-0.441504	-0.093629
H209	H	0.432376	-0.000724	0.136399
C210	C	0.586317	-0.022712	-0.132789
C211	C	0.647861	-0.054020	-0.015888
C212	C	0.690805	-0.145196	-0.017609
C213	C	0.672207	-0.205063	-0.136231
C214	C	0.610661	-0.173756	-0.253142
C215	C	0.567716	-0.082580	-0.251421
H216	H	0.661631	-0.009701	0.071932
H217	H	0.736366	-0.168371	0.068937
H218	H	0.703997	-0.272557	-0.137505
H219	H	0.596890	-0.218075	-0.340961
H220	H	0.522155	-0.059405	-0.337966
H221	H	0.563873	0.098612	-0.230999
H222	H	1.000506	-0.457819	-0.230872
H223	H	1.103950	-0.328778	-0.136933
H224	H	1.004371	-0.314502	-0.230319
H225	H	0.931179	0.248001	-0.620089
H226	H	1.094913	0.194770	-0.379036
H227	H	0.931216	0.248420	-0.380594
H228	H	0.855561	0.171877	-0.378864
H229	H	0.854973	0.171511	-0.619112
H230	H	1.019207	-0.025501	-0.619368
H231	H	0.907177	0.010808	-0.621503
H232	H	1.128037	0.082183	-0.381490
