data_functionalizedCrystal
_audit_creation_method	'MofGen! by Chris Wilmer'
_symmetry_space_group_name_H-M	'P1'
_symmetry_Int_Tables_number	1
_symmetry_cell_setting	triclinic
loop_
_symmetry_equiv_pos_as_xyz
  x,y,z
_cell_length_a	15.995350
_cell_length_b	19.288865
_cell_length_c	17.766277
_cell_angle_alpha	90.011603
_cell_angle_beta	90.005713
_cell_angle_gamma	83.314311
loop_
_atom_site_label
_atom_site_type_symbol
_atom_site_fract_x
_atom_site_fract_y
_atom_site_fract_z
O1	O	-1.110654	-0.089532	-0.062539
O2	O	-0.610654	0.410468	0.437461
O3	O	-0.866837	-0.100588	-0.062556
O4	O	-0.366837	0.399412	0.437444
O5	O	-0.995790	0.006052	-0.062532
O6	O	-0.495790	0.506052	0.437468
O7	O	-0.981700	-0.196172	-0.062563
O8	O	-0.481700	0.303828	0.437437
O9	O	-0.995768	0.006058	0.062656
O10	O	-0.495768	0.506058	0.562656
O11	O	-0.866814	-0.100582	0.062633
O12	O	-0.366814	0.399418	0.562633
O13	O	-1.110631	-0.089526	0.062649
O14	O	-0.610631	0.410474	0.562649
Cu15	Cu	-0.988720	-0.095054	0.074072
Cu16	Cu	-0.488720	0.404946	0.574072
Cu17	Cu	-0.988747	-0.095060	-0.073978
Cu18	Cu	-0.488747	0.404940	0.426022
O19	O	-0.981677	-0.196166	0.062626
O20	O	-0.481677	0.303834	0.562626
C21	C	-0.835632	-0.100128	0.000036
C22	C	-0.335632	0.399872	0.500036
C23	C	-0.742687	-0.098757	0.000031
C24	C	-0.242687	0.401243	0.500031
C25	C	-1.141835	-0.089986	0.000055
C26	C	-0.641835	0.410014	0.500055
C27	C	-1.234781	-0.091356	0.000056
C28	C	-0.734781	0.408644	0.500056
C29	C	-0.995326	0.031933	0.000064
C30	C	-0.495326	0.531933	0.500064
C31	C	-0.993965	0.109040	0.000071
C32	C	-0.493965	0.609040	0.500071
C33	C	-0.404958	-0.093836	0.000047
C34	C	0.095042	0.406164	0.500047
C35	C	-0.452679	-0.017889	0.000338
C36	C	0.047321	0.482111	0.500338
C37	C	-0.549364	-0.019260	0.000050
C38	C	-0.049364	0.480740	0.500050
C39	C	-0.572509	-0.096277	0.000039
C40	C	-0.072509	0.403723	0.500039
C41	C	-0.531294	-0.133740	-0.071452
C42	C	-0.031294	0.366260	0.428548
C43	C	-0.434665	-0.131832	-0.071506
C44	C	0.065335	0.368168	0.428494
C45	C	-0.434295	-0.133395	0.070856
C46	C	0.065705	0.366605	0.570856
C47	C	-0.531240	-0.133377	0.071796
C48	C	-0.031240	0.366623	0.571796
C49	C	-0.667202	-0.097661	0.000033
C50	C	-0.167202	0.402339	0.500033
C51	C	-0.310266	-0.092455	0.000049
C52	C	0.189734	0.407545	0.500049
C53	C	-0.982142	-0.222047	0.000027
C54	C	-0.482142	0.277953	0.500027
C55	C	-0.983503	-0.299154	0.000016
C56	C	-0.483503	0.200846	0.500016
N57	N	-0.988708	-0.095049	0.178202
N58	N	-0.488708	0.404951	0.678202
C59	C	-1.069629	0.153540	0.000080
C60	C	-0.569629	0.653540	0.500080
C61	C	-1.068350	0.225990	0.000068
C62	C	-0.568350	0.725990	0.500068
C63	C	-0.991403	0.253937	0.000062
C64	C	-0.491403	0.753937	0.500062
C65	C	-0.915729	0.209428	0.000049
C66	C	-0.415729	0.709428	0.500049
C67	C	-0.917010	0.136979	0.000053
C68	C	-0.417010	0.636979	0.500053
C69	C	-0.930906	0.362384	0.043909
C70	C	-0.430906	0.862384	0.543909
C71	C	-0.929628	0.434832	0.043909
C72	C	-0.429628	0.934832	0.543909
C73	C	-0.987450	0.477393	0.000045
C74	C	-0.487450	0.977393	0.500045
C75	C	-1.046563	0.447500	-0.043810
C76	C	-0.546563	0.947500	0.456190
C77	C	-1.047844	0.375051	-0.043805
C78	C	-0.547844	0.875051	0.456195
C79	C	-0.990006	0.332495	0.000057
C80	C	-0.490006	0.832495	0.500057
C81	C	-1.061733	0.600453	0.000040
C82	C	-0.561733	1.100453	0.500040
C83	C	-1.060451	0.672904	0.000023
C84	C	-0.560451	1.172904	0.500023
C85	C	-0.907827	0.656340	0.000012
C86	C	-0.407827	1.156340	0.500012
C87	C	-0.909111	0.583890	0.000021
C88	C	-0.409111	1.083890	0.500021
C89	C	-0.986066	0.555951	0.000038
C90	C	-0.486066	1.055951	0.500038
N91	N	-0.988766	-0.095060	-0.178109
N92	N	-0.488766	0.404940	0.321891
C93	C	-1.045827	-0.047852	0.217599
C94	C	-0.545827	0.452148	0.717599
C95	C	-1.045832	-0.047848	0.296401
C96	C	-0.545832	0.452152	0.796401
C97	C	-0.988725	-0.095054	0.335803
C98	C	-0.488725	0.404946	0.835803
C99	C	-0.931596	-0.142255	0.296396
C100	C	-0.431596	0.357745	0.796396
C101	C	-0.931587	-0.142252	0.217595
C102	C	-0.431587	0.357748	0.717595
C103	C	-0.977516	-0.158313	0.460630
C104	C	-0.477516	0.341687	0.960630
C105	C	-0.977531	-0.158317	0.539429
C106	C	-0.477531	0.341683	1.039429
C107	C	-0.988748	-0.095063	0.578849
C108	C	-0.488748	0.404937	1.078849
C109	C	-0.999968	-0.031802	0.539460
C110	C	-0.499968	0.468198	1.039460
C111	C	-0.999959	-0.031800	0.460660
C112	C	-0.499959	0.468200	0.960660
C113	C	-0.988728	-0.095062	0.421248
C114	C	-0.488728	0.404938	0.921248
C115	C	-1.045875	-0.047858	0.703692
C116	C	-0.545875	0.452142	1.203692
C117	C	-1.045874	-0.047854	0.782495
C118	C	-0.545874	0.452146	1.282495
C119	C	-0.931642	-0.142267	0.782488
C120	C	-0.431642	0.357733	1.282488
C121	C	-0.931639	-0.142265	0.703687
C122	C	-0.431639	0.357735	1.203687
C123	C	-0.988760	-0.095061	0.664293
C124	C	-0.488760	0.404939	1.164293
H125	H	-0.434262	0.012471	0.051608
H126	H	0.065738	0.512471	0.551608
H127	H	-1.092384	-0.009420	0.671617
H128	H	-0.592384	0.490580	1.171617
H129	H	-0.853078	0.232187	0.000042
H130	H	-0.353078	0.732187	0.500042
N131	N	-1.104222	0.000370	0.822730
N132	N	-0.604222	0.500370	1.322730
N133	N	-1.155213	0.042510	0.787544
N134	N	-0.655213	0.542510	1.287544
H135	H	-1.196422	0.076570	0.815960
H136	H	-0.696422	0.576570	1.315960
H137	H	-0.433208	0.012326	-0.050640
H138	H	0.066792	0.512326	0.449360
N139	N	-1.148232	0.125000	0.000075
N140	N	-0.648232	0.625000	0.500075
N141	N	-1.165984	0.086412	-0.052694
N142	N	-0.665984	0.586412	0.447306
H143	H	-1.221498	0.066254	-0.052699
H144	H	-0.721498	0.566254	0.447301
H145	H	-0.883818	0.327735	0.079632
H146	H	-0.383818	0.827735	0.579632
H147	H	-0.855393	0.100746	0.000046
H148	H	-0.355393	0.600746	0.500046
H149	H	-1.092336	-0.009414	0.185528
H150	H	-0.592336	0.490586	0.685528
N151	N	-0.584457	0.017926	-0.064344
N152	N	-0.084457	0.517926	0.435656
N153	N	-0.537533	0.044968	-0.109216
N154	N	-0.037533	0.544968	0.390784
H155	H	-0.562316	0.071232	-0.154698
H156	H	-0.062316	0.571232	0.345302
N157	N	-0.873295	-0.190477	0.822724
N158	N	-0.373295	0.309523	1.322724
N159	N	-0.821411	-0.168412	0.866706
N160	N	-0.321411	0.331588	1.366706
H161	H	-0.780197	-0.202459	0.895125
H162	H	-0.280197	0.297541	1.395125
H163	H	-1.124394	0.577704	0.000050
H164	H	-0.624394	1.077704	0.500050
H165	H	-0.416470	-0.104517	-0.124940
H166	H	0.083530	0.395483	0.375060
N167	N	-1.104183	0.000371	0.336644
N168	N	-0.604183	0.500371	0.836644
N169	N	-1.155174	0.042514	0.301463
N170	N	-0.655174	0.542514	0.801463
H171	H	-1.196386	0.076570	0.329882
H172	H	-0.696386	0.576570	0.829882
N173	N	-1.011403	0.032820	0.579709
N174	N	-0.511403	0.532820	1.079709
N175	N	-0.960532	0.076675	0.570917
N176	N	-0.460532	0.576675	1.070917
H177	H	-0.968607	0.122315	0.599343
H178	H	-0.468607	0.622315	1.099343
N179	N	-0.565615	-0.099056	0.138141
N180	N	-0.065615	0.400944	0.638141
N181	N	-0.620307	-0.047464	0.132656
N182	N	-0.120307	0.452536	0.632656
H183	H	-0.644590	-0.023222	0.179510
H184	H	-0.144590	0.476778	0.679510
H185	H	-1.095974	0.350715	-0.079515
H186	H	-0.595974	0.850715	0.420485
H187	H	-0.545206	-0.190323	-0.074118
H188	H	-0.045206	0.309677	0.425882
H189	H	-0.413843	-0.108564	0.125045
H190	H	0.086157	0.391436	0.625045
H191	H	-0.402207	-0.187591	-0.074758
H192	H	0.097793	0.312409	0.425242
H193	H	-0.885131	-0.180700	0.671607
H194	H	-0.385131	0.319300	1.171607
H195	H	-0.577894	0.010188	0.051299
H196	H	-0.077894	0.510188	0.551299
H197	H	-1.129967	0.262229	0.000072
H198	H	-0.629967	0.762229	0.500072
N199	N	-0.966081	-0.222928	0.420363
N200	N	-0.466081	0.277072	0.920363
N201	N	-1.021956	-0.238537	0.376380
N202	N	-0.521956	0.261463	0.876380
H203	H	-1.013883	-0.284168	0.347939
H204	H	-0.513883	0.215832	0.847939
N205	N	-1.137752	0.718353	0.000022
N206	N	-0.637752	1.218353	0.500022
N207	N	-1.206451	0.693394	0.000034
N208	N	-0.706451	1.193394	0.500034
H209	H	-1.261047	0.725492	0.000033
H210	H	-0.761047	1.225492	0.500033
H211	H	-0.559776	-0.107725	-0.124650
H212	H	-0.059776	0.392275	0.375350
H213	H	-0.885073	-0.180686	0.185517
H214	H	-0.385073	0.319314	0.685517
H215	H	-0.968400	-0.209827	0.571494
H216	H	-0.468400	0.290173	1.071494
H217	H	-0.885098	-0.180689	0.328480
H218	H	-0.385098	0.319311	0.828480
N219	N	-0.869249	0.465342	0.088723
N220	N	-0.369249	0.965342	0.588723
N221	N	-0.792322	0.448883	0.077677
N222	N	-0.292322	0.948883	0.577677
H223	H	-0.749680	0.470425	0.109336
H224	H	-0.249680	0.970425	0.609336
N225	N	-0.550254	-0.203833	0.077198
N226	N	-0.050254	0.296167	0.577198
N227	N	-0.594725	-0.227958	0.028028
N228	N	-0.094725	0.272042	0.528028
H229	H	-0.608153	-0.277720	0.031837
H230	H	-0.108153	0.222280	0.531837
H231	H	-0.402322	-0.189390	0.071332
H232	H	0.097678	0.310610	0.571332
H233	H	-1.093646	0.482153	-0.079528
H234	H	-0.593646	0.982153	0.420472
H235	H	-0.845176	0.679094	0.000003
H236	H	-0.345176	1.179094	0.500003
H237	H	-0.847497	0.547657	0.000018
H238	H	-0.347497	1.047657	0.500018
H239	H	-1.009093	0.019709	0.428592
H240	H	-0.509093	0.519709	0.928592
