data_functionalizedCrystal
_audit_creation_method	'MofGen! by Chris Wilmer'
_symmetry_space_group_name_H-M	'P1'
_symmetry_Int_Tables_number	1
_symmetry_cell_setting	triclinic
loop_
_symmetry_equiv_pos_as_xyz
  x,y,z
_cell_length_a	12.759401
_cell_length_b	15.297327
_cell_length_c	12.759393
_cell_angle_alpha	99.641734
_cell_angle_beta	89.981504
_cell_angle_gamma	99.706546
loop_
_atom_site_label
_atom_site_type_symbol
_atom_site_fract_x
_atom_site_fract_y
_atom_site_fract_z
Zn1	Zn	1.533799	-0.359102	-0.666297
Zn2	Zn	1.503249	-0.509990	-0.521002
Zn3	Zn	1.358091	-0.359150	-0.490645
Zn4	Zn	1.327659	-0.509920	-0.696630
O5	O	1.430699	-0.434541	-0.593643
O6	O	1.676766	-0.379127	-0.647033
O7	O	1.483944	-0.490029	-0.369964
O8	O	1.406921	-0.232898	-0.488547
O9	O	1.654320	-0.489984	-0.540286
O10	O	1.536012	-0.232864	-0.617597
O11	O	1.377297	-0.379208	-0.347661
O12	O	1.207035	-0.379140	-0.517960
O13	O	1.355053	-0.489865	-0.839617
O14	O	1.184677	-0.489911	-0.669295
O15	O	1.506503	-0.379060	-0.817332
O16	O	1.454435	-0.636226	-0.569698
O17	O	1.325430	-0.636175	-0.698731
C18	C	1.157735	-0.434524	-0.593626
C19	C	1.040956	-0.434539	-0.593648
C20	C	0.974461	-0.492309	-0.672355
C21	C	0.864734	-0.492321	-0.672369
C22	C	0.888009	-0.376788	-0.514958
C23	C	0.997734	-0.376773	-0.514949
C24	C	1.017683	-0.550075	-0.751054
C25	C	0.951186	-0.607851	-0.829768
C26	C	0.841460	-0.607862	-0.829781
C27	C	0.798230	-0.550098	-0.751081
C28	C	1.383343	-0.668934	-0.640823
C29	C	1.363180	-0.769208	-0.661042
C30	C	1.575241	-1.051846	-0.449495
C31	C	1.594185	-0.957633	-0.430493
C32	C	1.536436	-0.910523	-0.488129
C33	C	1.459739	-0.957634	-0.564769
C34	C	1.440787	-1.051856	-0.583767
C35	C	1.401982	-0.910532	-0.622401
C36	C	1.325285	-0.957643	-0.699042
C37	C	1.306338	-1.051856	-0.718037
C38	C	1.364087	-1.098967	-0.660401
C39	C	1.420933	-0.816310	-0.603403
C40	C	1.286480	-0.816320	-0.737676
C41	C	1.267536	-0.910532	-0.756677
C42	C	1.704729	-0.434558	-0.593662
C43	C	1.821504	-0.434565	-0.593670
C44	C	1.430791	-0.434450	-0.867659
C45	C	1.430831	-0.434411	-0.984427
C46	C	1.478269	-0.199232	-0.546302
C47	C	1.498541	-0.098957	-0.526129
C48	C	1.509701	-0.376709	-1.027686
C49	C	1.509733	-0.376676	-1.137404
C50	C	1.352019	-0.492055	-1.160596
C51	C	1.351984	-0.492083	-1.050879
C52	C	1.588548	-0.319037	-0.961234
C53	C	1.667426	-0.261331	-1.004492
C54	C	1.667457	-0.261299	-1.114210
C55	C	1.588611	-0.318972	-1.180669
C56	C	1.430681	-0.434566	-0.320681
C57	C	1.430897	-0.434351	-0.203862
H58	H	1.107026	-0.550073	-0.751050
Cl59	Cl	1.005532	-0.680459	-0.928704
H60	H	1.287826	-0.539009	-1.214716
H61	H	0.787322	-0.654900	-0.893880
H62	H	1.551863	-0.833810	-0.472652
Cl63	Cl	1.647828	-1.111075	-0.377046
Cl64	Cl	1.517349	-0.757096	-0.507059
Cl65	Cl	1.588517	-0.319077	-0.823304
Cl66	Cl	1.081333	-0.304146	-0.416000
Cl67	Cl	0.660288	-0.550107	-0.751108
H68	H	1.656629	-0.919279	-0.368092
Cl69	Cl	1.339849	-1.217410	-0.683859
Cl70	Cl	1.209914	-1.111079	-0.814381
H71	H	0.852801	-0.329760	-0.450883
Cl72	Cl	1.171120	-0.969768	-0.853022
H73	H	1.239453	-0.777962	-0.784606
Cl74	Cl	1.766527	-0.188818	-0.920943
Cl75	Cl	1.588642	-0.318916	-1.318599
Cl76	Cl	1.766618	-0.188759	-1.168589
H77	H	1.287747	-0.539055	-1.015655
