data_functionalizedCrystal
_audit_creation_method	'MofGen! by Chris Wilmer'
_symmetry_space_group_name_H-M	'P1'
_symmetry_Int_Tables_number	1
_symmetry_cell_setting	triclinic
loop_
_symmetry_equiv_pos_as_xyz
  x,y,z
_cell_length_a	12.759401
_cell_length_b	19.120786
_cell_length_c	12.759393
_cell_angle_alpha	92.477119
_cell_angle_beta	90.018496
_cell_angle_gamma	92.465417
loop_
_atom_site_label
_atom_site_type_symbol
_atom_site_fract_x
_atom_site_fract_y
_atom_site_fract_z
Zn1	Zn	1.588335	-0.279587	0.576097
Zn2	Zn	1.580700	-0.397064	0.392903
Zn3	Zn	1.412635	-0.279624	0.400435
Zn4	Zn	1.405099	-0.397010	0.568548
O5	O	1.496692	-0.338321	0.484496
O6	O	1.734343	-0.295178	0.551804
O7	O	1.558364	-0.381523	0.246879
O8	O	1.442291	-0.181328	0.430048
O9	O	1.728733	-0.381488	0.417212
O10	O	1.571377	-0.181301	0.559107
O11	O	1.434887	-0.295241	0.252412
O12	O	1.264615	-0.295188	0.422728
O13	O	1.429448	-0.381396	0.716573
O14	O	1.259078	-0.381431	0.546240
O15	O	1.564070	-0.295126	0.722120
O16	O	1.551057	-0.495348	0.409892
O17	O	1.422044	-0.495308	0.538937
C18	C	1.223726	-0.338308	0.484482
C19	C	1.106948	-0.338320	0.484500
C20	C	1.484933	-0.520814	0.472801
C21	C	1.479998	-0.598885	0.467833
C22	C	1.049227	-0.383298	0.548698
C23	C	0.939502	-0.383307	0.548708
C24	C	0.945231	-0.293357	0.420316
C25	C	1.054953	-0.293345	0.420312
C26	C	1.045918	-0.435233	0.622821
C27	C	0.936193	-0.435242	0.622832
C28	C	1.544838	-0.635488	0.532747
C29	C	1.540197	-0.708844	0.528081
C30	C	1.470721	-0.745595	0.458494
C31	C	1.405874	-0.708987	0.393577
C32	C	1.410510	-0.635632	0.398249
C33	C	1.453358	-0.967082	0.441028
C34	C	1.448729	-1.040442	0.436358
C35	C	1.583052	-1.040294	0.570864
C36	C	1.587686	-0.966938	0.575526
C37	C	1.522835	-0.930336	0.510612
C38	C	1.465978	-0.820577	0.453721
C39	C	1.527574	-0.855356	0.515392
C40	C	1.770725	-0.338335	0.484510
C41	C	1.887501	-0.338341	0.484516
C42	C	1.496770	-0.338251	0.758534
C43	C	1.496804	-0.338220	0.875312
C44	C	1.508526	-0.155117	0.496260
C45	C	1.513569	-0.077046	0.501273
C46	C	1.496678	-0.338341	0.211527
C47	C	1.496861	-0.338174	0.094762
C48	C	1.566911	-0.293295	0.933065
C49	C	1.566938	-0.293270	1.042790
C50	C	1.426746	-0.383101	1.037002
C51	C	1.426715	-0.383122	0.927278
C52	C	1.647853	-0.241434	0.936407
C53	C	1.647879	-0.241409	1.046133
H54	H	1.101947	-0.256715	0.368043
C55	C	1.756526	-0.261109	1.085124
C56	C	1.800243	-0.332439	1.051399
C57	C	1.908879	-0.352145	1.090395
C58	C	1.973798	-0.300522	1.163116
C59	C	1.930081	-0.229187	1.196844
C60	C	1.821445	-0.209480	1.157848
H61	H	1.752186	-0.370658	0.997564
H62	H	1.941241	-0.404953	1.065427
H63	H	2.054217	-0.315109	1.191983
H64	H	1.978138	-0.190967	1.250680
H65	H	1.789083	-0.156673	1.182817
C66	C	1.339188	-0.595365	0.326840
C67	C	1.262767	-0.635787	0.250292
C68	C	1.191438	-0.595521	0.178884
C69	C	1.196530	-0.514834	0.184024
C70	C	1.272955	-0.474408	0.260574
C71	C	1.344283	-0.514674	0.331982
H72	H	1.258994	-0.695520	0.246485
H73	H	1.134864	-0.625447	0.122217
H74	H	1.143729	-0.485026	0.131163
H75	H	1.276727	-0.414674	0.264382
H76	H	1.400858	-0.484747	0.388650
H77	H	1.593005	-0.738643	0.580933
H78	H	1.644259	-0.937017	0.632189
H79	H	1.601418	-0.605570	0.589408
H80	H	0.902883	-0.256740	0.368057
H81	H	1.584137	-0.825431	0.572054
C82	C	0.891218	-0.508707	0.588492
C83	C	0.918246	-0.540946	0.479672
C84	C	0.873269	-0.614407	0.445331
C85	C	0.801266	-0.655629	0.519810
C86	C	0.774235	-0.623390	0.628637
C87	C	0.819211	-0.549929	0.662977
H88	H	0.971550	-0.510431	0.424532
H89	H	0.893280	-0.638272	0.364770
H90	H	0.767972	-0.710009	0.494389
H91	H	0.720930	-0.653905	0.683776
H92	H	0.799201	-0.526064	0.743538
H93	H	1.076656	-0.420726	0.705155
H94	H	1.622078	-0.189724	1.083487
H95	H	1.076622	-0.486880	0.590233
H96	H	1.409413	-0.850508	0.397060
H97	H	0.903440	-0.415824	0.701425
H98	H	1.349301	-0.738915	0.336922
C99	C	1.654374	-1.080559	0.642274
C100	C	1.733698	-1.130966	0.593619
C101	C	1.805019	-1.171230	0.665036
C102	C	1.797016	-1.161087	0.785110
C103	C	1.717688	-1.110677	0.833772
C104	C	1.646367	-1.070413	0.762354
H105	H	1.739625	-1.138476	0.504727
H106	H	1.863743	-1.208546	0.629013
H107	H	1.849812	-1.190893	0.837978
H108	H	1.711761	-1.103167	0.922663
H109	H	1.587644	-1.033097	0.798378
H110	H	1.392148	-1.070363	0.379691
H111	H	1.369680	-0.419656	1.079326
H112	H	1.400556	-0.937287	0.388171
H113	H	1.369623	-0.419702	0.880261
H114	H	1.723875	-0.260935	0.901124
H115	H	1.629571	-0.187038	0.910131
