data_functionalizedCrystal
_audit_creation_method	'MofGen! by Chris Wilmer'
_symmetry_space_group_name_H-M	'P1'
_symmetry_Int_Tables_number	1
_symmetry_cell_setting	triclinic
loop_
_symmetry_equiv_pos_as_xyz
  x,y,z
_cell_length_a	16.959455
_cell_length_b	16.959454
_cell_length_c	21.395355
_cell_angle_alpha	90.012996
_cell_angle_beta	90.029472
_cell_angle_gamma	90.017095
loop_
_atom_site_label
_atom_site_type_symbol
_atom_site_fract_x
_atom_site_fract_y
_atom_site_fract_z
Zn1	Zn	1.208455	-0.314836	0.354368
Zn2	Zn	1.708455	0.185164	0.854368
Zn3	Zn	1.208356	-0.446997	0.249600
Zn4	Zn	1.708356	0.053003	0.749600
Zn5	Zn	1.076262	-0.314829	0.249595
Zn6	Zn	1.576262	0.185171	0.749595
Zn7	Zn	1.076248	-0.446969	0.354332
Zn8	Zn	1.576248	0.053031	0.854332
O9	O	1.142330	-0.380908	0.301974
O10	O	1.642330	0.119092	0.801974
O11	O	1.319053	-0.332382	0.340487
O12	O	1.819053	0.167618	0.840487
O13	O	1.190799	-0.429473	0.161922
O14	O	1.690799	0.070527	0.661922
O15	O	1.093845	-0.204219	0.263507
O16	O	1.593845	0.295781	0.763507
O17	O	1.318980	-0.429479	0.263515
O18	O	1.818980	0.070521	0.763515
O19	O	1.190966	-0.204224	0.340483
O20	O	1.690966	0.295776	0.840483
O21	O	1.093750	-0.332370	0.161918
O22	O	1.593750	0.167630	0.661918
O23	O	0.965649	-0.332344	0.263472
O24	O	1.465649	0.167656	0.763472
O25	O	1.093821	-0.429433	0.442014
O26	O	1.593821	0.070567	0.942014
O27	O	0.965639	-0.429427	0.340421
O28	O	1.465639	0.070573	0.840421
O29	O	1.190952	-0.332355	0.442041
O30	O	1.690952	0.167645	0.942041
O31	O	1.190785	-0.557604	0.263480
O32	O	1.690785	-0.057604	0.763480
O33	O	1.093725	-0.557584	0.340426
O34	O	1.593725	-0.057584	0.840426
C35	C	0.936964	-0.380882	0.301942
C36	C	1.436964	0.119118	0.801942
C37	C	0.849107	-0.380890	0.301944
C38	C	1.349107	0.119110	0.801944
C39	C	0.477584	-0.431417	0.261874
C40	C	0.977584	0.068583	0.761874
C41	C	0.477680	-0.330465	0.342150
C42	C	0.977680	0.169535	0.842150
C43	C	0.560226	-0.330452	0.342135
C44	C	1.060226	0.169548	0.842135
C45	C	0.601454	-0.380923	0.301989
C46	C	1.101454	0.119077	0.801989
C47	C	0.560137	-0.431407	0.261859
C48	C	1.060137	0.068593	0.761859
C49	C	0.601550	-0.279974	0.382269
C50	C	1.101550	0.220026	0.882269
C51	C	0.684101	-0.279960	0.382256
C52	C	1.184101	0.220040	0.882256
C53	C	0.725331	-0.330427	0.342106
C54	C	1.225331	0.169573	0.842106
C55	C	0.684008	-0.380913	0.301974
C56	C	1.184008	0.119087	0.801974
C57	C	0.725236	-0.431384	0.261828
C58	C	1.225236	0.068616	0.761828
C59	C	0.683915	-0.481866	0.221692
C60	C	1.183915	0.018134	0.721692
C61	C	0.601367	-0.481874	0.221710
C62	C	1.101367	0.018126	0.721710
C63	C	0.807879	-0.330419	0.342089
C64	C	1.307879	0.169581	0.842089
C65	C	0.807790	-0.431374	0.261813
C66	C	1.307790	0.068626	0.761813
C67	C	1.142264	-0.586274	0.301963
C68	C	1.642264	-0.086274	0.801963
C69	C	1.142308	-0.674131	0.301979
C70	C	1.642308	-0.174131	0.801979
C71	C	1.091865	-1.045626	0.342035
C72	C	1.591865	-0.545626	0.842035
C73	C	1.193016	-1.045587	0.261976
C74	C	1.693016	-0.545587	0.761976
C75	C	1.192988	-0.963041	0.261971
C76	C	1.692988	-0.463041	0.761971
C77	C	1.142397	-0.921784	0.301997
C78	C	1.642397	-0.421784	0.801997
C79	C	1.091834	-0.963072	0.342029
C80	C	1.591834	-0.463072	0.842029
C81	C	1.243545	-0.921746	0.221935
C82	C	1.743545	-0.421746	0.721935
C83	C	1.243519	-0.839195	0.221927
C84	C	1.743519	-0.339195	0.721927
C85	C	1.192931	-0.797936	0.261957
C86	C	1.692931	-0.297936	0.761957
C87	C	1.142367	-0.839230	0.301991
C88	C	1.642367	-0.339230	0.801991
C89	C	1.091775	-0.797973	0.342018
C90	C	1.591775	-0.297973	0.842018
C91	C	1.041214	-0.839265	0.382055
C92	C	1.541214	-0.339265	0.882055
C93	C	1.041246	-0.921814	0.382059
C94	C	1.541246	-0.421814	0.882059
C95	C	1.192899	-0.715388	0.261953
C96	C	1.692899	-0.215388	0.761953
C97	C	1.091745	-0.715419	0.342012
C98	C	1.591745	-0.215419	0.842012
C99	C	1.348498	-0.380934	0.302006
C100	C	1.848498	0.119066	0.802006
C101	C	1.436355	-0.380946	0.302019
C102	C	1.936355	0.119054	0.802019
C103	C	1.142396	-0.380892	0.465397
C104	C	1.642396	0.119108	0.965397
C105	C	1.142424	-0.380885	0.535038
C106	C	1.642424	0.119115	1.035038
C107	C	1.142418	-0.174740	0.301998
C108	C	1.642418	0.325260	0.801998
C109	C	1.142456	-0.086883	0.302009
C110	C	1.642456	0.413117	0.802009
C111	C	1.142310	-0.380867	0.139186
C112	C	1.642310	0.119133	0.639186
C113	C	1.142436	-0.380651	0.069545
C114	C	1.642436	0.119349	0.569545
C115	C	1.192998	-0.330334	0.567766
C116	C	1.692998	0.169666	1.067766
C117	C	1.192997	-0.330300	0.633202
C118	C	1.692997	0.169700	1.133202
C119	C	1.142430	-0.380831	0.665907
C120	C	1.642430	0.119169	1.165907
C121	C	1.091846	-0.431385	0.633171
C122	C	1.591846	0.068615	1.133171
C123	C	1.091843	-0.431412	0.567737
C124	C	1.591843	0.068588	1.067737
C125	C	1.136166	-0.452002	0.769577
C126	C	1.636166	0.047998	1.269577
C127	C	1.136174	-0.451976	0.835010
C128	C	1.636174	0.048024	1.335010
C129	C	1.142435	-0.380748	0.867728
C130	C	1.642435	0.119252	1.367728
C131	C	1.148703	-0.309542	0.835004
C132	C	1.648703	0.190458	1.335004
C133	C	1.148700	-0.309569	0.769570
C134	C	1.648700	0.190431	1.269570
C135	C	1.142427	-0.380807	0.736859
C136	C	1.642427	0.119193	1.236859
C137	C	1.193011	-0.330156	0.971408
C138	C	1.693011	0.169844	1.471408
C139	C	1.193004	-0.330121	1.036845
C140	C	1.693004	0.169879	1.536845
C141	C	1.091857	-0.431212	1.036813
C142	C	1.591857	0.068788	1.536813
C143	C	1.091859	-0.431241	0.971377
C144	C	1.591859	0.068759	1.471377
C145	C	1.142441	-0.380714	0.938679
C146	C	1.642441	0.119286	1.438679
H147	H	1.050550	-0.681833	0.374609
H148	H	1.550550	-0.181833	0.874609
H149	H	0.567716	-0.522974	0.189033
H150	H	1.067716	-0.022974	0.689033
H151	H	0.444107	-0.289378	0.374838
H152	H	0.944107	0.210622	0.874838
H153	H	1.000019	-0.805664	0.414642
H154	H	1.500019	-0.305664	0.914642
H155	H	0.841519	-0.289319	0.374768
H156	H	1.341519	0.210681	0.874768
O157	O	0.433025	-0.485864	0.218584
O158	O	0.933025	0.014136	0.718584
H159	H	0.368696	-0.477396	0.225337
H160	H	0.868696	0.022604	0.725337
O161	O	1.298107	-0.966262	0.178777
O162	O	1.798107	-0.466262	0.678777
H163	H	1.284578	-0.950472	0.129585
H164	H	1.784578	-0.450472	0.629585
O165	O	0.557087	-0.225533	0.425562
O166	O	1.057087	0.274467	0.925562
H167	H	0.492744	-0.234012	0.418821
H168	H	0.992744	0.265988	0.918821
O169	O	0.728668	-0.225503	0.425532
O170	O	1.228668	0.274497	0.925532
H171	H	0.686130	-0.190404	0.453445
H172	H	1.186130	0.309596	0.953445
O173	O	0.728391	-0.536297	0.178392
O174	O	1.228391	-0.036297	0.678392
H175	H	0.712554	-0.598358	0.189055
H176	H	1.212554	-0.098358	0.689055
H177	H	1.000081	-0.955441	0.414655
H178	H	1.500081	-0.455441	0.914655
O179	O	1.247533	-0.275757	0.668509
O180	O	1.747533	0.224243	1.168509
H181	H	1.239026	-0.284218	0.719502
H182	H	1.739026	0.215782	1.219502
H183	H	1.153802	-0.251591	0.742929
H184	H	1.653802	0.248409	1.242929
H185	H	1.050701	-1.079250	0.374635
H186	H	1.550701	-0.579250	0.874635
H187	H	1.050655	-0.472576	0.541090
H188	H	1.550655	0.027424	1.041090
O189	O	1.155435	-0.232705	0.870280
O190	O	1.655435	0.267295	1.370280
H191	H	1.154367	-0.244644	0.921278
H192	H	1.654367	0.255356	1.421278
O193	O	1.247602	-1.090079	0.218823
O194	O	1.747602	-0.590079	0.718823
H195	H	1.239139	-1.154418	0.225561
H196	H	1.739139	-0.654418	0.725561
O197	O	1.298058	-0.794659	0.178754
O198	O	1.798058	-0.294659	0.678754
H199	H	1.333247	-0.837217	0.150926
H200	H	1.833247	-0.337217	0.650926
O201	O	1.037313	-0.485771	0.936076
O202	O	1.537313	0.014229	1.436076
H203	H	1.045801	-0.477296	0.885082
H204	H	1.545801	0.022704	1.385082
O205	O	1.247551	-0.275836	0.532502
O206	O	1.747551	0.224164	1.032502
H207	H	1.212194	-0.235629	0.502670
H208	H	1.712194	0.264371	1.002670
O209	O	1.247561	-0.275661	0.936134
O210	O	1.747561	0.224339	1.436134
H211	H	1.212202	-0.235461	0.906297
H212	H	1.712202	0.264539	1.406297
H213	H	1.234187	-0.288952	1.063491
H214	H	1.734187	0.211048	1.563491
O215	O	1.037313	-0.485716	1.072076
O216	O	1.537313	0.014284	1.572076
H217	H	1.045813	-0.477208	1.123076
H218	H	1.545813	0.022792	1.623076
O219	O	1.247428	-0.670848	0.218778
O220	O	1.747428	-0.170848	0.718778
H221	H	1.282613	-0.713405	0.190947
H222	H	1.782613	-0.213405	0.690947
O223	O	1.129405	-0.528770	0.870304
O224	O	1.629405	-0.028770	1.370304
H225	H	1.125032	-0.578303	0.836563
H226	H	1.625032	-0.078303	1.336563
O227	O	1.129408	-0.528831	0.734289
O228	O	1.629408	-0.028831	1.234289
H229	H	1.073160	-0.558307	0.746834
H230	H	1.573160	-0.058307	1.246834
O231	O	0.852258	-0.485809	0.218511
O232	O	1.352258	0.014191	0.718511
H233	H	0.809655	-0.520914	0.190610
H234	H	1.309655	-0.020914	0.690610
O235	O	1.037302	-0.485886	0.668440
O236	O	1.537302	0.014114	1.168440
H237	H	1.045804	-0.477380	0.719439
H238	H	1.545804	0.022620	1.219439
