data_functionalizedCrystal
_audit_creation_method	'MofGen! by Chris Wilmer'
_symmetry_space_group_name_H-M	'P1'
_symmetry_Int_Tables_number	1
_symmetry_cell_setting	triclinic
loop_
_symmetry_equiv_pos_as_xyz
  x,y,z
_cell_length_a	6.817900
_cell_length_b	12.530034
_cell_length_c	19.511464
_cell_angle_alpha	117.082271
_cell_angle_beta	88.420781
_cell_angle_gamma	89.998792
loop_
_atom_site_label
_atom_site_type_symbol
_atom_site_fract_x
_atom_site_fract_y
_atom_site_fract_z
V1	V	-3.806065	-0.385036	-0.104194
O2	O	-3.873477	-0.323016	0.006259
O3	O	-3.686288	-0.435002	-0.207803
O4	O	-3.694626	-0.528967	-0.102042
O5	O	-3.865082	-0.228401	-0.100234
V6	V	-4.307110	-0.359912	-0.091047
O7	O	-4.028887	-0.440149	-0.133032
O8	O	-4.534485	-0.304799	-0.062209
O9	O	-4.203680	-0.309946	0.012561
O10	O	-4.357095	-0.421932	-0.201500
O11	O	-4.365490	-0.516547	-0.095007
O12	O	-4.195343	-0.215981	-0.093199
C13	C	-3.515965	-0.442500	-0.233078
C14	C	-3.498900	-0.484313	-0.317776
C15	C	-3.667950	-0.511225	-0.361416
C16	C	-3.651942	-0.550530	-0.441001
C17	C	-3.466883	-0.562913	-0.476943
C18	C	-3.297820	-0.536001	-0.433298
C19	C	-3.313829	-0.496705	-0.353715
C20	C	-4.026697	-0.182583	-0.097074
C21	C	-4.016045	-0.062355	-0.098167
C22	C	-3.526615	-0.562358	-0.098165
C23	C	-3.516119	-0.682585	-0.097070
V24	V	-3.735635	0.114966	-0.104199
O25	O	-3.677251	0.271601	-0.100238
O26	O	-3.847405	-0.028965	-0.102048
O27	O	-3.839057	0.065001	-0.207808
O28	O	-3.685657	0.176985	0.006254
V29	V	-3.236666	0.140090	-0.091047
O30	O	-3.508259	0.059853	-0.133034
O31	O	-3.013845	0.195203	-0.062207
O32	O	-3.348102	0.284021	-0.093200
O33	O	-3.177652	-0.016545	-0.095006
O34	O	-3.169247	0.078071	-0.201499
O35	O	-3.356450	0.190056	0.012561
C36	C	-4.037344	-0.302447	0.037832
C37	C	-4.033644	-0.260642	0.122530
C38	C	-4.005391	0.057501	-0.233081
C39	C	-4.009087	0.015696	-0.317778
C40	C	-3.526772	0.197552	0.037834
C41	C	-3.543836	0.239360	0.122531
C42	C	-4.209560	-0.233730	0.166182
C43	C	-4.206070	-0.194432	0.245766
C44	C	-4.026662	-0.182054	0.281695
C45	C	-3.850732	-0.208965	0.238037
C46	C	-3.854224	-0.248255	0.158455
C47	C	-3.836647	-0.050514	0.558980
C48	C	-3.833169	-0.011224	0.638567
C49	C	-4.188493	0.003309	0.646290
C50	C	-4.191985	-0.035980	0.566709
C51	C	-4.016055	-0.062882	0.523059
C52	C	-4.019842	-0.105492	0.436765
C53	C	-4.022874	-0.139453	0.367986
C54	C	-3.728916	0.251739	0.158451
C55	C	-3.744978	0.291038	0.238035
C56	C	-3.575957	0.317950	0.281696
C57	C	-3.390862	0.305573	0.245771
C58	C	-3.374803	0.266282	0.166190
H59	H	-3.147148	-0.546089	-0.462574
H60	H	-3.693391	-0.072379	0.523453
H61	H	-3.866563	0.229829	0.122912
O62	O	-3.924639	0.303160	0.273048
C63	C	-3.902598	0.343587	0.352649
H64	H	-3.756308	0.390977	0.370505
H65	H	-4.027420	0.408704	0.386019
H66	H	-3.906244	0.263772	0.365792
O67	O	-3.591491	0.356314	0.359024
C68	C	-3.509726	0.471244	0.397739
H69	H	-3.510584	0.516860	0.358801
H70	H	-3.600138	0.527227	0.452665
H71	H	-3.352343	0.462580	0.413057
H72	H	-3.710976	-0.270190	0.122912
O73	O	-3.451229	-0.601278	-0.554269
C74	C	-3.338689	-0.708234	-0.588745
H75	H	-3.344000	-0.754098	-0.549939
H76	H	-3.400922	-0.770485	-0.646997
H77	H	-3.180148	-0.686609	-0.597180
H78	H	-3.253253	0.327491	0.281332
H79	H	-3.818651	-0.501142	-0.332162
H80	H	-3.224085	0.256200	0.136949
O81	O	-3.816099	-0.576866	-0.483443
C82	C	-3.807429	-0.697848	-0.539716
H83	H	-3.704788	-0.750280	-0.520539
H84	H	-3.960495	-0.737532	-0.547374
H85	H	-3.749997	-0.703564	-0.596737
H86	H	-3.176162	-0.474789	-0.318188
H87	H	-4.355655	-0.243811	0.136934
H88	H	-4.349319	-0.172526	0.281304
O89	O	-4.366298	-0.047777	0.531868
C90	C	-4.465084	0.064074	0.563679
H91	H	-4.354254	0.138991	0.590280
H92	H	-4.545136	0.074379	0.516455
H93	H	-4.575744	0.069298	0.610025
O94	O	-4.359324	0.029674	0.688750
C95	C	-4.359474	0.150657	0.745020
H96	H	-4.253803	0.203068	0.725829
H97	H	-4.513736	0.190367	0.752694
H98	H	-4.311007	0.156369	0.802036
H99	H	-3.687065	-0.001148	0.667818
H100	H	-3.704654	-0.198877	0.267297
