data_functionalizedCrystal
_audit_creation_method	'MofGen! by Chris Wilmer'
_symmetry_space_group_name_H-M	'P1'
_symmetry_Int_Tables_number	1
_symmetry_cell_setting	triclinic
loop_
_symmetry_equiv_pos_as_xyz
  x,y,z
_cell_length_a	11.026607
_cell_length_b	14.421503
_cell_length_c	11.026607
_cell_angle_alpha	90.007200
_cell_angle_beta	71.413983
_cell_angle_gamma	90.008865
loop_
_atom_site_label
_atom_site_type_symbol
_atom_site_fract_x
_atom_site_fract_y
_atom_site_fract_z
O1	O	1.726737	0.077109	-0.533608
O2	O	1.360157	0.077111	-0.472844
O3	O	1.513066	0.077107	-0.319936
O4	O	1.573829	0.077113	-0.686516
O5	O	1.513039	-0.077117	-0.319958
O6	O	1.360131	-0.077113	-0.472866
O7	O	1.726711	-0.077114	-0.533630
Cu8	Cu	1.543419	-0.091195	-0.503250
Cu9	Cu	1.543450	0.091192	-0.503224
O10	O	1.573803	-0.077110	-0.686538
C11	C	1.312485	-0.000001	-0.461645
C12	C	1.170471	-0.000000	-0.428228
C13	C	1.116821	0.000002	-0.520498
C14	C	0.970043	0.000003	-0.485962
N15	N	1.543406	-0.219476	-0.503270
C16	C	1.472677	-0.469128	-0.573930
C17	C	1.593227	-0.530931	-0.623818
C18	C	1.543431	-0.408638	-0.503246
C19	C	1.422916	-0.530929	-0.453395
C20	C	1.543445	-0.591359	-0.503224
C21	C	1.664052	-0.469080	-0.553203
C22	C	1.493654	-0.469072	-0.382714
C23	C	1.614277	-0.530847	-0.432571
C24	C	1.543422	-0.303377	-0.503262
C25	C	1.543467	-0.696618	-0.503210
C26	C	1.774384	-0.000000	-0.544828
C27	C	1.916398	0.000005	-0.578245
C28	C	1.501843	-0.000004	-0.272287
C29	C	1.468426	-0.000000	-0.130273
N30	N	1.543470	0.219473	-0.503196
C31	C	1.585026	0.000003	-0.734187
C32	C	1.618443	0.000005	-0.876200
C33	C	1.560695	0.000001	-0.076624
C34	C	1.526160	0.000004	0.070155
H35	H	1.412934	-0.442029	-0.633784
C36	C	1.528540	-0.378918	-0.213762
C37	C	1.436767	-0.432352	-0.245154
H38	H	1.493409	-0.356252	-0.128834
H39	H	1.553094	-0.328177	-0.271324
H40	H	1.601349	-0.416094	-0.219818
H41	H	1.363961	-0.395174	-0.239107
H42	H	1.412195	-0.483101	-0.187575
H43	H	1.723013	0.000074	0.061072
H44	H	1.635342	-0.558102	-0.725742
C45	C	1.726709	0.079277	-0.238643
C46	C	1.701855	-0.000001	-0.161305
H47	H	1.813855	0.079271	-0.290925
H48	H	1.709855	0.133048	-0.186160
H49	H	1.673283	0.079267	-0.291312
H50	H	1.755274	0.000013	-0.108629
H51	H	1.718722	-0.053786	-0.213793
C52	C	1.378103	0.000007	0.283840
C53	C	1.384991	0.000006	0.154826
H54	H	1.290953	0.000003	0.336110
H55	H	1.419337	0.053786	0.301460
H56	H	1.419330	-0.053776	0.301449
H57	H	1.343772	0.053793	0.137214
H58	H	1.343739	-0.053779	0.137198
C59	C	1.693670	-0.664299	-0.351669
C60	C	1.695157	-0.567211	-0.351874
H61	H	1.743597	-0.686748	-0.301847
H62	H	1.728303	-0.686411	-0.436912
H63	H	1.608098	-0.685581	-0.316088
H64	H	1.780728	-0.545929	-0.387465
H65	H	1.660528	-0.545091	-0.266615
C66	C	1.211412	-0.536436	-0.470667
C67	C	1.285322	-0.567598	-0.396474
H68	H	1.126465	-0.559067	-0.435526
H69	H	1.247256	-0.558532	-0.555785
H70	H	1.210372	-0.470572	-0.470988
H71	H	1.286369	-0.633462	-0.396161
H72	H	1.249467	-0.545506	-0.311333
H73	H	0.907314	0.000025	-0.381393
C74	C	1.130082	0.000039	-0.726308
C75	C	1.001066	0.000029	-0.719415
H76	H	1.182350	0.000066	-0.813459
H77	H	1.147704	-0.053747	-0.685113
H78	H	1.147693	0.053816	-0.685043
H79	H	0.983453	-0.053751	-0.760672
H80	H	0.983438	0.053821	-0.760627
H81	H	1.107738	0.000022	-0.323666
H82	H	1.363863	0.000006	-0.067540
C83	C	1.800433	-0.335478	-0.609963
C84	C	1.801700	-0.432567	-0.610374
H85	H	1.885406	-0.312938	-0.645296
H86	H	1.765061	-0.313771	-0.524593
H87	H	1.749988	-0.313882	-0.659741
H88	H	1.852138	-0.454164	-0.560588
H89	H	1.837089	-0.454283	-0.695758
H90	H	1.179555	-0.000001	-0.625061
