data_functionalizedCrystal
_audit_creation_method	'MofGen! by Chris Wilmer'
_symmetry_space_group_name_H-M	'P1'
_symmetry_Int_Tables_number	1
_symmetry_cell_setting	triclinic
loop_
_symmetry_equiv_pos_as_xyz
  x,y,z
_cell_length_a	6.817900
_cell_length_b	11.168129
_cell_length_c	10.943624
_cell_angle_alpha	91.899126
_cell_angle_beta	108.838799
_cell_angle_gamma	108.508637
loop_
_atom_site_label
_atom_site_type_symbol
_atom_site_fract_x
_atom_site_fract_y
_atom_site_fract_z
V1	V	-4.113778	-0.174672	-0.402562
O2	O	-4.073287	0.008428	-0.394888
O3	O	-4.090040	-0.346377	-0.399820
O4	O	-4.091767	-0.171970	-0.578129
O5	O	-4.071548	-0.167187	-0.215345
V6	V	-4.590791	-0.152773	-0.380168
O7	O	-4.389317	-0.222709	-0.451686
O8	O	-4.765449	-0.104735	-0.331045
O9	O	-4.391322	0.018933	-0.382910
O10	O	-4.748678	-0.335872	-0.387843
O11	O	-4.750417	-0.160257	-0.567386
O12	O	-4.389595	-0.155474	-0.204602
C13	C	-3.940186	-0.388236	-0.393473
C14	C	-4.002240	-0.528607	-0.392401
C15	C	-3.972006	-0.574062	-0.279559
C16	C	-4.036141	-0.719143	-0.278449
C17	C	-3.942388	-0.165760	-0.620921
C18	C	-4.005838	-0.164687	-0.764447
C19	C	-3.850739	-0.157463	-0.841594
C20	C	-4.039043	-0.264698	-0.947591
C21	C	-3.930618	-0.055553	-0.914191
C22	C	-4.193352	-0.272023	-0.868568
C23	C	-4.084848	-0.062784	-0.835144
C24	C	-4.273288	-0.170049	-0.941111
C25	C	-4.204518	0.060785	-0.389255
C26	C	-4.121703	0.201155	-0.390335
C27	C	-4.202316	-0.161688	-0.161803
C28	C	-4.118103	-0.162754	-0.018275
H29	H	-4.010348	-0.758299	-0.181838
H30	H	-3.820169	0.035911	-0.934948
C31	C	-3.608732	-0.150469	-0.782881
H32	H	-3.592341	-0.222330	-0.821753
H33	H	-3.515183	-0.074329	-0.799344
H34	H	-3.569392	-0.150463	-0.691313
H35	H	-4.075613	-0.597099	-0.488187
C36	C	-4.156541	-0.745974	-0.520860
H37	H	-4.218527	-0.814798	-0.590910
H38	H	-4.254023	-0.699366	-0.530225
H39	H	-4.018537	-0.691148	-0.521975
H40	H	-4.103464	0.022582	-0.786155
H41	H	-4.020342	-0.350059	-0.996546
C42	C	-4.342600	-0.395752	-0.840833
H43	H	-4.301027	-0.395717	-0.749186
H44	H	-4.492242	-0.400493	-0.875798
H45	H	-4.326561	-0.467385	-0.880388
H46	H	-4.452550	-0.175396	-0.984356
C47	C	-3.872936	-0.481554	-0.150153
H48	H	-3.862308	-0.528887	-0.079213
H49	H	-3.729956	-0.425232	-0.141562
H50	H	-3.965471	-0.433488	-0.149839
