data_functionalizedCrystal
_audit_creation_method	'MofGen! by Chris Wilmer'
_symmetry_space_group_name_H-M	'P1'
_symmetry_Int_Tables_number	1
_symmetry_cell_setting	triclinic
loop_
_symmetry_equiv_pos_as_xyz
  x,y,z
_cell_length_a	23.532407
_cell_length_b	23.532407
_cell_length_c	22.010155
_cell_angle_alpha	89.999577
_cell_angle_beta	89.996931
_cell_angle_gamma	82.848678
loop_
_atom_site_label
_atom_site_type_symbol
_atom_site_fract_x
_atom_site_fract_y
_atom_site_fract_z
O1	O	0.755264	0.069127	-0.050455
O2	O	0.589400	0.079130	-0.050474
O3	O	0.677334	-0.008803	-0.050453
O4	O	0.667330	0.157060	-0.050476
O5	O	0.677318	-0.008790	0.050597
O6	O	0.589384	0.079143	0.050576
O7	O	0.755248	0.069140	0.050595
Cu8	Cu	0.672315	0.074143	0.059812
Cu9	Cu	0.672333	0.074127	-0.059691
O10	O	0.667314	0.157073	0.050574
C11	C	0.568176	0.078882	0.000049
C12	C	0.504959	0.078116	0.000042
C13	C	0.105856	0.125350	0.000063
C14	C	0.046456	0.124638	0.000067
O15	O	0.009711	0.168424	0.000083
N16	N	0.023830	0.072362	0.000073
C17	C	0.060607	0.020794	0.000082
O18	O	0.035908	-0.023737	0.000088
C19	C	0.120006	0.021506	0.000082
C20	C	0.142629	0.073785	0.000070
C21	C	0.128479	0.177625	0.000051
C22	C	0.187876	0.178336	0.000046
C23	C	0.224649	0.126772	0.000053
C24	C	0.202025	0.074497	0.000065
C25	C	0.156783	-0.030062	0.000096
C26	C	0.216185	-0.029345	0.000097
C27	C	0.238808	0.022934	0.000084
C28	C	0.298194	0.023643	0.000067
N29	N	0.320820	0.075920	0.000061
C30	C	0.284048	0.127484	0.000054
C31	C	-0.064135	0.019302	0.000082
C32	C	-0.123533	0.018589	0.000077
C33	C	-0.137680	0.122434	0.000063
C34	C	-0.078281	0.123146	0.000064
C35	C	-0.041509	0.071578	0.000076
C36	C	0.408784	0.128974	0.000043
C37	C	0.468186	0.129680	0.000035
C38	C	0.482329	0.025836	0.000052
C39	C	0.422932	0.025129	0.000057
C40	C	0.386160	0.076702	0.000054
O41	O	0.334974	-0.020119	0.000054
O42	O	0.308755	0.172007	0.000055
C43	C	0.677071	-0.030013	0.000074
C44	C	0.676305	-0.093230	0.000078
C45	C	0.723539	-0.492333	0.000050
C46	C	0.722827	-0.551733	0.000046
O47	O	0.766613	-0.588478	0.000028
N48	N	0.670551	-0.574359	0.000040
C49	C	0.618983	-0.537582	0.000033
O50	O	0.574452	-0.562281	0.000027
C51	C	0.619695	-0.478182	0.000033
C52	C	0.671974	-0.455560	0.000045
C53	C	0.775814	-0.469710	0.000061
C54	C	0.776525	-0.410313	0.000067
C55	C	0.724961	-0.373540	0.000062
C56	C	0.672685	-0.396164	0.000051
C57	C	0.568127	-0.441406	0.000022
C58	C	0.568844	-0.382004	0.000022
C59	C	0.621123	-0.359381	0.000034
C60	C	0.621832	-0.299995	0.000052
N61	N	0.674109	-0.277368	0.000057
C62	C	0.725673	-0.314141	0.000062
C63	C	0.617491	-0.662324	0.000031
C64	C	0.616778	-0.721722	0.000035
C65	C	0.720623	-0.735869	0.000047
C66	C	0.721335	-0.676470	0.000047
C67	C	0.669767	-0.639698	0.000037
C68	C	0.727163	-0.189405	0.000075
C69	C	0.727869	-0.130003	0.000083
C70	C	0.624025	-0.115860	0.000069
C71	C	0.623318	-0.175257	0.000064
C72	C	0.674891	-0.212029	0.000065
O73	O	0.578070	-0.263215	0.000067
O74	O	0.770196	-0.289433	0.000060
C75	C	0.776472	0.069388	0.000071
C76	C	0.839689	0.070154	0.000073
C77	C	0.667577	0.178283	0.000046
C78	C	0.668343	0.241500	0.000037
N79	N	0.672305	0.074153	0.143865
N80	N	0.672347	0.074112	-0.143744
C81	C	0.711273	0.035196	0.563653
C82	C	0.711275	0.035192	0.627261
O83	O	0.744384	0.002076	0.660160
N84	N	0.672333	0.074115	0.659072
C85	C	0.633382	0.113041	0.627272
O86	O	0.600259	0.146148	0.660170
C87	C	0.633377	0.113042	0.563665
C88	C	0.672326	0.074120	0.531858
C89	C	0.750217	-0.003723	0.531846
C90	C	0.750215	-0.003719	0.468243
C91	C	0.711268	0.035205	0.436447
C92	C	0.672324	0.074125	0.468255
C93	C	0.594424	0.151965	0.531866
C94	C	0.594422	0.151962	0.468256
C95	C	0.633370	0.113040	0.436448
C96	C	0.633374	0.113054	0.372856
N97	N	0.672317	0.074130	0.341045
C98	C	0.711263	0.035206	0.372841
C99	C	0.633395	0.113036	0.760850
C100	C	0.633402	0.113039	0.824455
C101	C	0.711294	0.035188	0.824440
C102	C	0.711290	0.035189	0.760833
C103	C	0.672337	0.074113	0.729039
C104	C	0.711256	0.035220	0.239269
C105	C	0.711252	0.035229	0.175660
C106	C	0.633358	0.113077	0.175681
C107	C	0.633364	0.113070	0.239284
C108	C	0.672315	0.074136	0.271077
O109	O	0.600282	0.146151	0.339916
O110	O	0.744376	0.002100	0.339935
H111	H	-0.167632	0.164421	0.000060
O112	O	0.518712	-0.346341	-0.000068
C113	C	0.430200	-0.316051	-0.052453
C114	C	0.486945	-0.356479	-0.052421
H115	H	0.404506	-0.324225	-0.094783
H116	H	0.404408	-0.324250	-0.010198
H117	H	0.439698	-0.269714	-0.052419
H118	H	0.477499	-0.402830	-0.052477
H119	H	0.512721	-0.348230	-0.094673
H120	H	-0.141947	-0.023982	0.000078
H121	H	0.769159	-0.219337	0.000073
O122	O	0.567342	-0.626686	0.000057
C123	C	0.464268	-0.618935	0.000013
C124	C	0.521018	-0.659356	-0.000000
H125	H	0.426801	-0.645332	-0.000046
H126	H	0.461957	-0.590784	0.042313
H127	H	0.462037	-0.590760	-0.042265
H128	H	0.523287	-0.687567	0.042250
H129	H	0.523306	-0.687468	-0.042328
H130	H	0.819097	-0.391900	0.000074
O131	O	0.572485	-0.197142	0.000028
C132	C	0.469561	-0.176833	0.000043
C133	C	0.527089	-0.151979	0.000080
H134	H	0.432843	-0.140331	0.000099
H135	H	0.466601	-0.204260	-0.042263
H136	H	0.466651	-0.204316	0.042316
H137	H	0.530037	-0.124470	-0.042164
H138	H	0.530023	-0.124585	0.042414
O139	O	0.787882	-0.041618	0.437255
C140	C	0.822051	-0.076487	0.339271
C141	C	0.779465	-0.033429	0.374282
H142	H	0.815252	-0.069889	0.288351
H143	H	0.867722	-0.069512	0.351607
H144	H	0.814680	-0.121969	0.351943
H145	H	0.786783	0.012070	0.361629
H146	H	0.733808	-0.040453	0.361943
H147	H	0.246123	-0.071339	0.000107
H148	H	0.404512	-0.017441	0.000058
O149	O	0.778707	-0.108123	0.000065
C150	C	0.881630	-0.128435	0.000111
C151	C	0.824101	-0.153287	0.000119
H152	H	0.918347	-0.164938	0.000167
H153	H	0.884607	-0.100998	-0.042186
H154	H	0.884525	-0.100963	0.042393
H155	H	0.821168	-0.180785	-0.042135
H156	H	0.821149	-0.180691	0.042444
H157	H	0.743006	0.003493	0.850339
O158	O	0.749109	-0.002638	0.144857
C159	C	0.826391	-0.079832	0.151567
C160	C	0.783543	-0.036989	0.186524
H161	H	0.854249	-0.107607	0.185239
H162	H	0.801996	-0.108197	0.121805
H163	H	0.854675	-0.055375	0.121771
H164	H	0.755248	-0.061398	0.216353
H165	H	0.807973	-0.008623	0.216247
O166	O	0.825960	-0.505345	0.000095
C167	C	0.929034	-0.513088	0.000082
C168	C	0.872281	-0.472671	0.000051
H169	H	0.966499	-0.486688	0.000033
H170	H	0.931332	-0.541238	0.042383
H171	H	0.931282	-0.541265	-0.042196
H172	H	0.869995	-0.444458	0.042300
H173	H	0.870007	-0.444561	-0.042278
O174	O	0.373047	0.179056	0.000143
C175	C	0.297754	0.238529	0.052461
C176	C	0.338202	0.181797	0.052437
H177	H	0.269563	0.240759	0.094730
H178	H	0.324107	0.276032	0.052489
H179	H	0.269619	0.240780	0.010153
H180	H	0.366344	0.179491	0.094738
H181	H	0.311815	0.144322	0.052377
O182	O	0.209752	0.229171	0.000068
C183	C	0.189428	0.332094	0.000027
C184	C	0.164583	0.274561	0.000012
H185	H	0.152922	0.368807	-0.000031
H186	H	0.216858	0.335070	0.042327
H187	H	0.216906	0.334996	-0.042252
H188	H	0.137080	0.271621	0.042263
H189	H	0.137186	0.271610	-0.042315
O190	O	0.517377	-0.463438	-0.000076
C191	C	0.456292	-0.522238	-0.052475
C192	C	0.513796	-0.497339	-0.052428
H193	H	0.453373	-0.549643	-0.094803
H194	H	0.453331	-0.549732	-0.010219
H195	H	0.419577	-0.485733	-0.052454
H196	H	0.550544	-0.533808	-0.052471
H197	H	0.516707	-0.469830	-0.094681
H198	H	0.742973	0.003516	0.265148
O199	O	0.788110	-0.041558	0.562632
C200	C	0.865352	-0.118789	0.555883
C201	C	0.822471	-0.075964	0.520948
H202	H	0.893136	-0.146626	0.522196
H203	H	0.893706	-0.094375	0.585638
H204	H	0.840927	-0.147097	0.585683
H205	H	0.846849	-0.047645	0.491114
H206	H	0.794118	-0.100414	0.491231
H207	H	0.562708	0.183658	0.557755
H208	H	0.582043	-0.085909	0.000067
O209	O	0.772169	-0.654592	0.000025
C210	C	0.875093	-0.674910	0.000071
C211	C	0.817562	-0.699758	0.000084
H212	H	0.911807	-0.711415	0.000132
H213	H	0.878070	-0.647479	-0.042230
H214	H	0.877989	-0.647432	0.042349
H215	H	0.814627	-0.727261	-0.042165
H216	H	0.814609	-0.727157	0.042413
H217	H	-0.034198	-0.022693	0.000086
O218	O	0.595582	0.150963	0.144815
C219	C	0.561613	0.250158	0.125371
C220	C	0.604437	0.207320	0.160356
H221	H	0.568749	0.295731	0.137933
H222	H	0.568303	0.243519	0.074440
H223	H	0.516048	0.242934	0.137872
H224	H	0.650019	0.214518	0.147906
H225	H	0.597697	0.213970	0.211278
O226	O	0.749143	-0.002677	0.730032
C227	C	0.826425	-0.079869	0.736748
C228	C	0.783578	-0.037023	0.771701
H229	H	0.854286	-0.107640	0.770422
H230	H	0.802030	-0.108239	0.706992
H231	H	0.854708	-0.055416	0.706947
H232	H	0.755285	-0.061429	0.801535
H233	H	0.808009	-0.008653	0.801419
O234	O	0.134912	-0.080897	0.000140
C235	C	0.155239	-0.183820	0.000138
C236	C	0.180082	-0.126286	0.000099
H237	H	0.191747	-0.220532	0.000092
H238	H	0.127806	-0.186782	0.042442
H239	H	0.127765	-0.186737	-0.042137
H240	H	0.207581	-0.123330	0.042346
H241	H	0.207482	-0.123349	-0.042232
H242	H	0.601692	0.144738	0.850348
H243	H	0.601654	0.144769	0.265183
H244	H	0.601676	0.144737	0.734966
H245	H	0.562700	0.183658	0.442372
H246	H	0.486602	0.172255	0.000025
H247	H	-0.059867	0.165717	0.000057
O248	O	0.092739	0.227704	0.000148
C249	C	0.017441	0.287179	0.052456
C250	C	0.057888	0.230447	0.052437
H251	H	-0.010754	0.289410	0.094721
H252	H	0.043794	0.324681	0.052486
H253	H	-0.010689	0.289429	0.010144
H254	H	0.086027	0.228141	0.094742
H255	H	0.031501	0.192971	0.052375
H256	H	0.762610	-0.765821	0.000048
H257	H	0.512280	-0.016146	0.000056
H258	H	0.574207	-0.740136	0.000036
