data_functionalizedCrystal
_audit_creation_method	'MofGen! by Chris Wilmer'
_symmetry_space_group_name_H-M	'P1'
_symmetry_Int_Tables_number	1
_symmetry_cell_setting	triclinic
loop_
_symmetry_equiv_pos_as_xyz
  x,y,z
_cell_length_a	11.026607
_cell_length_b	15.944551
_cell_length_c	9.482900
_cell_angle_alpha	99.334197
_cell_angle_beta	78.636152
_cell_angle_gamma	96.042377
loop_
_atom_site_label
_atom_site_type_symbol
_atom_site_fract_x
_atom_site_fract_y
_atom_site_fract_z
O1	O	1.629108	0.341447	-0.120915
O2	O	1.275798	0.301394	-0.120914
O3	O	1.462099	0.200605	-0.120901
O4	O	1.442807	0.442235	-0.120927
O5	O	1.424257	0.221183	0.120889
O6	O	1.237956	0.321972	0.120876
O7	O	1.591266	0.362024	0.120875
Cu8	Cu	1.411156	0.343877	0.142953
Cu9	Cu	1.455908	0.319541	-0.142992
O10	O	1.404965	0.462813	0.120862
C11	C	1.211666	0.304294	-0.000019
C12	C	1.076950	0.282267	-0.000019
C13	C	1.003151	0.343086	-0.000026
C14	C	0.863914	0.320322	-0.000026
C15	C	1.442377	0.179479	-0.000006
C16	C	1.439975	0.085870	-0.000005
C17	C	1.318759	-0.147313	-0.000025
C18	C	1.356391	-0.189675	0.119192
C19	C	1.435632	-0.085514	-0.000016
C20	C	1.393728	-0.209942	-0.119194
C21	C	1.431430	-0.251064	-0.000034
C22	C	1.473281	-0.126634	0.119299
C23	C	1.510618	-0.146907	-0.119194
C24	C	1.548331	-0.189236	0.000052
C25	C	1.438050	0.009855	-0.000005
C26	C	1.429020	-0.346429	-0.000034
C27	C	1.655399	0.359124	-0.000023
C28	C	1.790116	0.381150	-0.000033
C29	C	1.424688	0.483939	-0.000036
C30	C	1.427091	0.577547	-0.000046
N31	N	1.379688	0.360994	0.344071
N32	N	1.487386	0.302419	-0.344110
C33	C	1.446618	0.324584	0.416275
C34	C	1.420446	0.338834	0.583690
H35	H	1.037058	0.213341	-0.000048
C36	C	1.318011	0.394335	0.666432
C37	C	1.204409	0.359719	0.629569
C38	C	1.110018	0.410814	0.705778
H39	H	1.335115	0.450296	0.641617
H40	H	1.313924	0.396501	0.767960
H41	H	1.208497	0.357562	0.528064
H42	H	1.187266	0.303764	0.654388
H43	H	1.105932	0.412981	0.807306
H44	H	1.127134	0.466773	0.680957
H45	H	1.032928	0.387331	0.680787
C46	C	0.810714	0.228402	-0.000318
C47	C	0.758366	0.201648	-0.124731
C48	C	0.709360	0.116976	-0.125061
H49	H	0.748658	0.224351	0.083901
H50	H	0.875050	0.193160	-0.000394
H51	H	0.694036	0.236880	-0.124642
H52	H	0.820397	0.205678	-0.208971
H53	H	0.773695	0.081733	-0.125137
H54	H	0.647309	0.112933	-0.040837
H55	H	0.673846	0.098810	-0.209480
C56	C	0.843189	0.473096	0.000250
C57	C	0.784318	0.523540	0.124654
C58	C	0.833193	0.608239	0.124970
H59	H	0.829778	0.493212	-0.083975
H60	H	0.929695	0.476219	0.000328
H61	H	0.697833	0.520421	0.124563
H62	H	0.797725	0.503451	0.208899
H63	H	0.919699	0.611362	0.125048
H64	H	0.819779	0.628346	0.040740
H65	H	0.793265	0.642474	0.209383
H66	H	1.043047	0.412009	-0.000025
H67	H	1.221729	-0.128660	0.000094
C68	C	1.589359	0.246627	0.572814
C69	C	1.594905	0.243462	0.423280
C70	C	1.688716	0.191985	0.346706
H71	H	1.571884	0.190696	0.597703
H72	H	1.666720	0.269798	0.597403
H73	H	1.517561	0.220288	0.398701
H74	H	1.612395	0.299378	0.398348
H75	H	1.766077	0.215156	0.371295
H76	H	1.671233	0.136058	0.371606
H77	H	1.692499	0.189837	0.245239
H78	H	1.291183	-0.208678	0.219980
H79	H	1.303006	0.402711	0.406195
C80	C	1.348629	-0.258022	-0.253535
C81	C	1.228422	-0.236939	-0.252972
C82	C	1.186834	-0.281200	-0.376706
H83	H	1.348034	-0.317602	-0.253164
H84	H	1.402549	-0.242752	-0.338230
H85	H	1.174515	-0.252215	-0.168300
H86	H	1.228984	-0.177366	-0.253365
H87	H	1.240755	-0.265931	-0.461401
H88	H	1.186246	-0.340779	-0.376324
H89	H	1.105275	-0.266896	-0.376347
H90	H	1.506881	-0.090590	0.220198
H91	H	1.645417	-0.207711	0.000119
C92	C	1.597325	-0.121435	-0.253634
C93	C	1.530669	-0.083594	-0.334629
C94	C	1.610496	-0.060108	-0.458486
H95	H	1.632107	-0.170610	-0.311274
H96	H	1.661903	-0.081982	-0.225062
H97	H	1.466114	-0.123044	-0.363202
H98	H	1.495890	-0.034411	-0.277032
H99	H	1.675074	-0.020655	-0.429915
H100	H	1.645274	-0.109287	-0.516114
H101	H	1.565285	-0.034423	-0.513450
H102	H	1.523292	0.282860	0.354152
