data_functionalizedCrystal
_audit_creation_method	'MofGen! by Chris Wilmer'
_symmetry_space_group_name_H-M	'P1'
_symmetry_Int_Tables_number	1
_symmetry_cell_setting	triclinic
loop_
_symmetry_equiv_pos_as_xyz
  x,y,z
_cell_length_a	12.759401
_cell_length_b	16.959454
_cell_length_c	12.759401
_cell_angle_alpha	90.009636
_cell_angle_beta	90.002249
_cell_angle_gamma	90.019119
loop_
_atom_site_label
_atom_site_type_symbol
_atom_site_fract_x
_atom_site_fract_y
_atom_site_fract_z
Zn1	Zn	1.606047	-0.314820	0.593989
Zn2	Zn	1.605975	-0.446973	0.418312
Zn3	Zn	1.430399	-0.314810	0.418328
Zn4	Zn	1.430321	-0.446958	0.593953
O5	O	1.518185	-0.380890	0.506146
O6	O	1.753058	-0.332360	0.570693
O7	O	1.582687	-0.429443	0.271293
O8	O	1.453762	-0.204200	0.441652
O9	O	1.753005	-0.429452	0.441624
O10	O	1.582810	-0.204207	0.570709
O11	O	1.453692	-0.332343	0.271305
O12	O	1.283368	-0.332329	0.441617
O13	O	1.453629	-0.429427	0.740979
O14	O	1.283310	-0.429418	0.570648
O15	O	1.582734	-0.332346	0.741005
O16	O	1.582611	-0.557581	0.441589
O17	O	1.453559	-0.557571	0.570632
C18	C	1.245218	-0.380871	0.506131
C19	C	1.128441	-0.380882	0.506150
C20	C	1.073600	-0.330422	0.573460
C21	C	0.963876	-0.330437	0.573467
C22	C	0.963844	-0.431380	0.438849
C23	C	1.073566	-0.431360	0.438838
C24	C	1.073617	-0.272146	0.651184
C25	C	0.963893	-0.272161	0.651190
C26	C	1.518097	-0.586256	0.506128
C27	C	1.518156	-0.674113	0.506155
C28	C	1.451086	-1.045613	0.573331
C29	C	1.585578	-1.045564	0.439067
C30	C	1.585541	-0.963018	0.439058
C31	C	1.518275	-0.921766	0.506184
C32	C	1.451045	-0.963059	0.573321
C33	C	1.652763	-0.921719	0.371915
C34	C	1.652728	-0.839168	0.371901
C35	C	1.585465	-0.797914	0.439035
C36	C	1.518234	-0.839212	0.506175
C37	C	1.450967	-0.797960	0.573302
C38	C	1.383739	-0.839257	0.640448
C39	C	1.383782	-0.921805	0.640454
C40	C	1.585423	-0.715365	0.439028
C41	C	1.450926	-0.715406	0.573292
C42	C	1.792219	-0.380909	0.506161
C43	C	1.908995	-0.380917	0.506167
C44	C	1.518181	-0.380886	0.780179
C45	C	1.518179	-0.380884	0.896955
C46	C	1.518302	-0.174722	0.506187
C47	C	1.518352	-0.086865	0.506204
C48	C	1.585398	-0.330344	0.951833
C49	C	1.585391	-0.330346	1.061557
C50	C	1.450945	-0.431435	1.061516
C51	C	1.450947	-0.431428	0.951794
C52	C	1.663023	-0.271984	0.951857
C53	C	1.663016	-0.271986	1.061581
C54	C	1.518179	-0.380906	1.233178
C55	C	1.518171	-0.380893	1.116402
H56	H	1.103398	-0.210896	0.629529
H57	H	1.328965	-0.805659	0.695099
H58	H	1.707468	-0.805549	0.317229
H59	H	1.633900	-0.213832	1.095628
H60	H	1.640153	-0.681745	0.384354
C61	C	1.318032	-0.531332	0.962780
C62	C	1.377041	-0.486971	0.891472
H63	H	1.272405	-0.565623	0.925537
H64	H	1.277881	-0.496887	1.005588
H65	H	1.363792	-0.561583	1.005565
H66	H	1.331281	-0.456715	0.848692
H67	H	1.417195	-0.521421	0.848646
H68	H	1.396153	-0.681823	0.627959
C69	C	1.391246	-0.476332	1.229696
C70	C	1.377055	-0.486997	1.121799
H71	H	1.345633	-0.510640	1.266908
H72	H	1.375896	-0.423230	1.247686
H73	H	1.461833	-0.487906	1.247668
H74	H	1.306469	-0.475417	1.103826
H75	H	1.392397	-0.540112	1.103801
H76	H	1.329048	-0.955436	0.695120
C77	C	1.615821	-0.139224	0.997050
C78	C	1.633646	-0.189342	0.911675
H79	H	1.597678	-0.088208	0.972241
H80	H	1.677562	-0.135901	1.038406
H81	H	1.560118	-0.159569	1.038394
H82	H	1.689354	-0.169000	0.870336
H83	H	1.571897	-0.192662	0.870302
C84	C	1.835861	-0.321033	0.987628
C85	C	1.767348	-0.301585	0.905900
H86	H	1.900268	-0.339303	0.959252
H87	H	1.805430	-0.361281	1.029505
H88	H	1.848363	-0.275698	1.029543
H89	H	1.754840	-0.346922	0.863989
H90	H	1.797785	-0.261333	0.864005
H91	H	1.118214	-0.472442	0.384018
H92	H	0.919152	-0.472477	0.384047
C93	C	1.391423	-1.172170	0.632972
C94	C	1.377187	-1.091002	0.647132
H95	H	1.345796	-1.200189	0.678531
H96	H	1.461999	-1.185653	0.648416
H97	H	1.376112	-1.185715	0.562368
H98	H	1.392506	-1.077455	0.717735
H99	H	1.306596	-1.077513	0.631696
H100	H	1.744376	-0.288391	1.091360
C101	C	1.785688	-0.913385	0.239188
C102	C	1.726696	-0.967062	0.298129
H103	H	1.831328	-0.941383	0.193631
H104	H	1.825822	-0.881157	0.284988
H105	H	1.739918	-0.881220	0.198958
H106	H	1.772466	-0.999223	0.338365
H107	H	1.686558	-0.999303	0.252322
C108	C	1.037858	-0.321389	0.823942
C109	C	1.119582	-0.301856	0.755452
H110	H	1.066238	-0.339728	0.888313
H111	H	0.995956	-0.361609	0.793446
H112	H	0.995967	-0.276072	0.836527
H113	H	1.161469	-0.347175	0.742860
H114	H	1.161501	-0.261634	0.785954
H115	H	0.934123	-0.288656	0.732526
C116	C	0.999683	-0.142016	0.586324
C117	C	0.917948	-0.193617	0.612042
H118	H	0.971315	-0.093527	0.562161
H119	H	1.041567	-0.164820	0.532771
H120	H	1.041590	-0.132696	0.646608
H121	H	0.876046	-0.202942	0.551757
H122	H	0.876046	-0.170808	0.665600
H123	H	1.640337	-1.079157	0.384409
