data_functionalizedCrystal
_audit_creation_method	'MofGen! by Chris Wilmer'
_symmetry_space_group_name_H-M	'P1'
_symmetry_Int_Tables_number	1
_symmetry_cell_setting	triclinic
loop_
_symmetry_equiv_pos_as_xyz
  x,y,z
_cell_length_a	17.699083
_cell_length_b	22.010155
_cell_length_c	17.699103
_cell_angle_alpha	90.009470
_cell_angle_beta	83.287038
_cell_angle_gamma	90.009674
loop_
_atom_site_label
_atom_site_type_symbol
_atom_site_fract_x
_atom_site_fract_y
_atom_site_fract_z
O1	O	1.004095	0.050447	0.095709
O2	O	0.783718	0.050467	0.108161
O3	O	0.900125	0.050445	-0.008253
O4	O	0.887688	0.050469	0.212123
O5	O	0.900090	-0.050606	-0.008254
O6	O	0.783683	-0.050583	0.108161
O7	O	1.004060	-0.050604	0.095708
Cu8	Cu	0.893868	-0.059820	0.101935
Cu9	Cu	0.893909	0.059684	0.101935
O10	O	0.887653	-0.050581	0.212123
C11	C	0.755503	-0.000055	0.107715
C12	C	0.671485	-0.000048	0.106376
C13	C	0.622869	-0.000040	0.174709
C14	C	0.543925	-0.000048	0.173447
C15	C	0.513600	-0.000060	0.103851
C16	C	0.562222	-0.000069	0.035513
C17	C	0.641164	-0.000065	0.036776
C18	C	0.243859	-0.000084	0.030418
C19	C	0.164910	-0.000086	0.029160
C20	C	0.146620	-0.000068	0.167088
C21	C	0.225562	-0.000064	0.168351
C22	C	0.274177	-0.000076	0.100014
C23	C	0.359777	-0.000069	0.101383
C24	C	0.428002	-0.000063	0.102480
N25	N	0.893844	-0.143873	0.101934
C26	C	0.939732	-0.563651	0.147773
C27	C	0.939741	-0.627259	0.147771
O28	O	0.978728	-0.660150	0.186740
N29	N	0.893924	-0.659080	0.101926
C30	C	0.848102	-0.627290	0.056074
O31	O	0.809133	-0.660196	0.017079
C32	C	0.848098	-0.563683	0.056073
C33	C	0.893911	-0.531866	0.101926
C34	C	0.985542	-0.531834	0.193622
C35	C	0.985532	-0.468230	0.193625
C36	C	0.939711	-0.436445	0.147778
C37	C	0.893901	-0.468262	0.101929
C38	C	0.802280	-0.531894	0.010217
C39	C	0.802280	-0.468283	0.010219
C40	C	0.848093	-0.436466	0.056073
C41	C	0.848070	-0.372874	0.056085
N42	N	0.893886	-0.341053	0.101930
C43	C	0.939707	-0.372838	0.147777
C44	C	0.848115	-0.760867	0.056080
C45	C	0.848115	-0.824473	0.056085
C46	C	0.939755	-0.824437	0.147781
C47	C	0.939751	-0.760831	0.147780
C48	C	0.893932	-0.729047	0.101925
C49	C	0.939682	-0.239267	0.147780
C50	C	0.939665	-0.175658	0.147781
C51	C	0.848029	-0.175699	0.056082
C52	C	0.848042	-0.239302	0.056084
C53	C	0.893874	-0.271085	0.101935
O54	O	0.809105	-0.339942	0.017134
O55	O	0.978677	-0.339924	0.186758
C56	C	1.032275	-0.000080	0.096155
C57	C	1.116293	-0.000083	0.097493
C58	C	0.899659	-0.000082	-0.036450
C59	C	0.898314	-0.000087	-0.120467
N60	N	0.893939	0.143736	0.101929
C61	C	0.890109	0.055036	-0.636179
C62	C	0.891372	0.055031	-0.557236
C63	C	0.891982	-0.000056	-0.517777
C64	C	0.891338	-0.055140	-0.557267
C65	C	0.890081	-0.055134	-0.636210
C66	C	0.896408	-0.055166	-0.238901
C67	C	0.897663	-0.055168	-0.159952
C68	C	0.897698	0.054999	-0.159927
C69	C	0.896442	0.055005	-0.238869
C70	C	0.895802	-0.000079	-0.278353
C71	C	0.894434	-0.000073	-0.363952
C72	C	0.893344	-0.000063	-0.432178
C73	C	0.888119	-0.000053	0.240320
C74	C	0.889463	-0.000044	0.324337
H75	H	0.504345	-0.000042	0.229090
H76	H	0.250248	-0.000052	0.225023
N77	N	0.889385	-0.114542	-0.678800
H78	H	0.935766	-0.116996	-0.717767
H79	H	0.889935	-0.149404	-0.641773
N80	N	0.094185	-0.000056	0.240799
H81	H	0.039573	-0.000062	0.229442
H82	H	0.103986	-0.037510	0.271139
N83	N	0.798689	-0.726587	0.006624
H84	H	0.769668	-0.756402	-0.022414
H85	H	0.761627	-0.700199	0.039668
N86	N	0.895699	-0.114581	-0.281467
H87	H	0.848275	-0.117028	-0.308000
H88	H	0.942106	-0.117015	-0.320400
H89	H	0.891899	0.099882	-0.525091
H90	H	0.810800	-0.850373	0.018756
N91	N	0.752862	-0.434004	-0.039244
H92	H	0.697771	-0.445084	-0.024249
H93	H	0.759869	-0.388892	-0.032269
N94	N	0.655574	-0.000021	0.249774
H95	H	0.612794	-0.000018	0.292870
H96	H	0.687926	-0.037479	0.253305
N97	N	0.895801	0.114412	-0.281444
H98	H	0.942185	0.116845	-0.320409
H99	H	0.848355	0.116839	-0.307939
H100	H	0.537525	-0.000086	-0.021153
N101	N	0.752885	-0.566201	-0.039259
H102	H	0.723872	-0.536405	-0.068308
H103	H	0.785973	-0.592580	-0.076297
N104	N	0.798615	-0.273624	0.006645
H105	H	0.769582	-0.243834	-0.022394
H106	H	0.831680	-0.300011	-0.030403
H107	H	0.898222	0.099851	-0.127770
N108	N	0.798617	-0.141410	0.006627
H109	H	0.805572	-0.096288	0.013585
H110	H	0.813685	-0.152534	-0.048435
N111	N	0.132196	-0.000109	-0.045906
H112	H	0.099857	0.037349	-0.049508
H113	H	0.175011	-0.000142	-0.088964
H114	H	0.283432	-0.000095	-0.025227
N115	N	0.889467	0.114451	-0.678737
H116	H	0.890077	0.149343	-0.641743
H117	H	0.935855	0.116836	-0.717700
H118	H	0.891840	-0.099992	-0.525135
N119	N	0.898323	-0.114585	-0.117391
H120	H	0.897730	-0.149480	-0.154382
H121	H	0.945744	-0.116985	-0.090854
H122	H	0.680747	-0.000071	-0.018868
N123	N	1.034972	-0.566098	0.243082
H124	H	1.001964	-0.592487	0.280178
H125	H	1.072082	-0.592450	0.210042
N126	N	0.989080	-0.141341	0.197238
H127	H	1.018111	-0.171132	0.226278
H128	H	1.026135	-0.114946	0.164192
H129	H	0.977003	-0.265137	0.185115
H130	H	1.022841	-0.442330	0.230961
N131	N	0.989165	-0.726516	0.197233
H132	H	1.018189	-0.756309	0.226276
H133	H	1.026224	-0.700125	0.164187
H134	H	0.977064	-0.850329	0.185113
