data_functionalizedCrystal
_audit_creation_method	'MofGen! by Chris Wilmer'
_symmetry_space_group_name_H-M	'P1'
_symmetry_Int_Tables_number	1
_symmetry_cell_setting	triclinic
loop_
_symmetry_equiv_pos_as_xyz
  x,y,z
_cell_length_a	12.827893
_cell_length_b	12.594516
_cell_length_c	12.827885
_cell_angle_alpha	89.971946
_cell_angle_beta	89.980728
_cell_angle_gamma	90.016023
loop_
_atom_site_label
_atom_site_type_symbol
_atom_site_fract_x
_atom_site_fract_y
_atom_site_fract_z
Zn1	Zn	1.597665	-0.423691	-0.590861
Zn2	Zn	1.597557	-0.601707	-0.416127
Zn3	Zn	1.422906	-0.423743	-0.416135
Zn4	Zn	1.422889	-0.601628	-0.590827
O5	O	1.510254	-0.512693	-0.503487
O6	O	1.743887	-0.447317	-0.567693
O7	O	1.574351	-0.578155	-0.269892
O8	O	1.446140	-0.274791	-0.439330
O9	O	1.743807	-0.578105	-0.439317
O10	O	1.574535	-0.274752	-0.567701
O11	O	1.446036	-0.447405	-0.269898
O12	O	1.276668	-0.447329	-0.439297
O13	O	1.446112	-0.577970	-0.737067
O14	O	1.276656	-0.578020	-0.567642
O15	O	1.574519	-0.447240	-0.737093
O16	O	1.574335	-0.750643	-0.439283
O17	O	1.446007	-0.750584	-0.567635
C18	C	1.238744	-0.512672	-0.503468
C19	C	1.122591	-0.512689	-0.503484
C20	C	1.070828	-0.577460	-0.566895
C21	C	0.950778	-0.577479	-0.566914
C22	C	1.510186	-0.789234	-0.503477
C23	C	1.510252	-0.907539	-0.503508
C24	C	1.440448	-0.976799	-0.573269
C25	C	1.414986	-1.047668	-0.477914
C26	C	1.535809	-1.047469	-0.598879
C27	C	1.484740	-0.976849	-0.408102
C28	C	1.605607	-0.976645	-0.529132
C29	C	1.580182	-1.047481	-0.433711
C30	C	1.782824	-0.512714	-0.503508
C31	C	1.898978	-0.512723	-0.503517
C32	C	1.510325	-0.512590	-0.776058
C33	C	1.510356	-0.512547	-0.892211
C34	C	1.510352	-0.235072	-0.503521
C35	C	1.510393	-0.116766	-0.503535
C36	C	1.573902	-0.447845	-0.944008
C37	C	1.573935	-0.447799	-1.064059
C38	C	1.510244	-0.512718	-0.231978
C39	C	1.510416	-0.512461	-0.115825
H40	H	0.906263	-0.632935	-0.621199
H41	H	0.943486	-0.457271	-0.449221
Cl42	Cl	1.053803	-0.427085	-0.419688
H43	H	1.381312	-0.945763	-0.632178
H44	H	1.456012	-0.567862	-1.071287
Cl45	Cl	1.657942	-0.362276	-1.132826
Cl46	Cl	1.426387	-0.598016	-0.960955
H47	H	1.115388	-0.632895	-0.621174
Cl48	Cl	1.657840	-0.362344	-0.875264
Cl49	Cl	1.729981	-0.928442	-0.562630
Cl50	Cl	1.451311	-0.929160	-0.283558
Cl51	Cl	1.290580	-1.095830	-0.444457
H52	H	1.639273	-1.078321	-0.374660
Cl53	Cl	1.569095	-1.095369	-0.723384
