data_functionalizedCrystal
_audit_creation_method	'MofGen! by Chris Wilmer'
_symmetry_space_group_name_H-M	'P1'
_symmetry_Int_Tables_number	1
_symmetry_cell_setting	triclinic
loop_
_symmetry_equiv_pos_as_xyz
  x,y,z
_cell_length_a	17.639617
_cell_length_b	12.594516
_cell_length_c	17.640968
_cell_angle_alpha	101.230308
_cell_angle_beta	109.666032
_cell_angle_gamma	101.197819
loop_
_atom_site_label
_atom_site_type_symbol
_atom_site_fract_x
_atom_site_fract_y
_atom_site_fract_z
Zn1	Zn	1.354366	0.140778	0.721237
Zn2	Zn	1.326429	-0.082343	0.583405
Zn3	Zn	1.188668	0.050580	0.555513
Zn4	Zn	1.216518	-0.082239	0.693288
O5	O	1.271495	0.006694	0.638361
O6	O	1.466003	0.148886	0.726324
O7	O	1.284808	-0.102502	0.464362
O8	O	1.210684	0.211507	0.577520
O9	O	1.445478	-0.015040	0.625059
O10	O	1.332422	0.277775	0.699278
O11	O	1.183595	-0.004844	0.443870
O12	O	1.077019	-0.004744	0.550419
O13	O	1.258151	-0.014864	0.812338
O14	O	1.097481	-0.102325	0.651641
O15	O	1.359427	0.148986	0.832872
O16	O	1.311813	-0.231291	0.597957
O17	O	1.231062	-0.231215	0.678687
C18	C	1.057343	-0.063312	0.594971
C19	C	0.965732	-0.093280	0.576428
C20	C	0.717912	0.234447	0.779432
C21	C	0.631826	0.206255	0.761992
C22	C	0.610444	0.035735	0.656393
C23	C	0.696531	0.063910	0.673827
C24	C	0.750258	0.163268	0.735347
C25	C	0.728877	-0.007269	0.629742
C26	C	0.814956	0.020906	0.647173
C27	C	0.868688	0.120261	0.708688
C28	C	0.836337	0.191443	0.752777
C29	C	0.675148	-0.106623	0.568218
C30	C	0.707494	-0.177802	0.524133
C31	C	0.793575	-0.149631	0.541568
C32	C	0.847307	-0.050276	0.603083
C33	C	0.825926	-0.220813	0.497478
C34	C	0.912004	-0.192638	0.514908
C35	C	0.933386	-0.022100	0.620513
C36	C	1.271454	-0.269864	0.638339
C37	C	1.271518	-0.388143	0.638372
C38	C	1.315514	-0.457359	0.594534
C39	C	1.350865	-0.496859	0.673841
C40	C	1.236280	-0.559393	0.559134
C41	C	1.306915	-0.426060	0.717726
C42	C	1.192285	-0.488615	0.602961
C43	C	1.227617	-0.528075	0.682314
C44	C	1.486484	0.076972	0.681920
C45	C	1.578099	0.106921	0.700483
C46	C	1.315012	0.077134	0.853348
C47	C	1.333556	0.107152	0.944963
C48	C	1.271563	0.284345	0.638405
C49	C	1.271591	0.402664	0.638424
C50	C	1.228195	-0.063380	0.424219
C51	C	1.209811	-0.093045	0.332637
C52	C	1.130933	-0.220663	1.192824
C53	C	1.148375	-0.192438	1.278913
C54	C	1.253825	-0.021835	1.300284
C55	C	1.236388	-0.050043	1.214194
C56	C	1.174942	-0.149459	1.160470
C57	C	1.280398	0.021160	1.181840
C58	C	1.262965	-0.007049	1.095758
C59	C	1.201524	-0.106462	1.042029
C60	C	1.157510	-0.177669	1.074388
C61	C	1.341848	0.120571	1.235566
C62	C	1.385857	0.191775	1.203212
C63	C	1.368421	0.163570	1.117128
C64	C	1.306979	0.064157	1.063399
C65	C	1.412435	0.234777	1.084769
C66	C	1.395003	0.206568	0.998687
C67	C	1.289547	0.035948	0.977317
H68	H	0.880086	0.272348	0.802876
H69	H	1.417903	-0.501510	0.703818
O70	O	1.112322	-0.483117	0.567041
C71	C	1.075343	-0.552043	0.483442
H72	H	1.126599	-0.564421	0.459775
H73	H	1.036423	-0.637485	0.480527
C74	C	0.955330	-0.479993	0.457101
C75	C	1.018284	-0.495188	0.428029
H76	H	0.920131	-0.444926	0.422919
H77	H	0.980242	-0.433559	0.513424
H78	H	0.922906	-0.551200	0.454671
H79	H	1.050713	-0.423981	0.430470
H80	H	0.993376	-0.541608	0.371705
O81	O	1.342720	-0.357649	0.797767
C82	C	1.426064	-0.361687	0.835070
H83	H	1.433231	-0.443698	0.801294
H84	H	1.470566	-0.287007	0.830129
C85	C	1.438508	-0.255468	0.969606
C86	C	1.447308	-0.356200	0.928125
H87	H	1.451615	-0.252079	1.027007
H88	H	1.382359	-0.252743	0.944474
H89	H	1.475594	-0.193246	0.965479
H90	H	1.410216	-0.418420	0.932243
H91	H	1.503452	-0.358935	0.953260
H92	H	1.080877	-0.301598	1.149074
H93	H	1.303857	0.059107	1.344037
H94	H	0.605494	0.264230	0.797892
H95	H	1.107454	-0.258604	1.030638
O96	O	0.769990	0.331024	0.839202
C97	C	0.722990	0.387792	0.874402
H98	H	0.654792	0.360415	0.828222
H99	H	0.726504	0.366176	0.935094
C100	C	0.842786	0.549612	0.949967
C101	C	0.759027	0.515993	0.893246
H102	H	0.865017	0.628692	0.961595
H103	H	0.874453	0.511365	0.926255
H104	H	0.845704	0.531589	1.000537
H105	H	0.756112	0.534004	0.842674
H106	H	0.727361	0.554247	0.916950
H107	H	1.112533	-0.250428	1.305251
H108	H	1.430838	0.264550	0.972344
O109	O	1.360045	-0.420243	0.550474
C110	C	1.443597	-0.423301	0.588122
H111	H	1.458943	-0.420226	0.656801
H112	H	1.451581	-0.504492	0.554083
C113	C	1.484505	-0.324897	0.498101
C114	C	1.503354	-0.321111	0.582456
H115	H	1.521367	-0.261865	0.494603
H116	H	1.428214	-0.322840	0.472734
H117	H	1.491157	-0.392561	0.469745
H118	H	1.496692	-0.253455	0.610807
H119	H	1.559646	-0.323154	0.607827
H120	H	1.356041	0.143534	1.305659
H121	H	1.190454	-0.558921	0.719462
H122	H	1.435889	0.272717	1.246966
O123	O	1.200766	-0.627883	0.479122
C124	C	1.247332	-0.591737	0.433118
H125	H	1.283631	-0.498914	0.463904
H126	H	1.293194	-0.643990	0.432123
C127	C	1.142630	-0.721066	0.304813
C128	C	1.187207	-0.607055	0.342621
H129	H	1.105543	-0.730519	0.248989
H130	H	1.111258	-0.745422	0.335807
H131	H	1.180856	-0.764597	0.303991
H132	H	1.148981	-0.563529	0.343451
H133	H	1.218571	-0.582692	0.311625
H134	H	1.187335	-0.129431	0.971937
O135	O	1.229956	-0.060668	0.925047
C136	C	1.266802	-0.130393	0.884769
H137	H	1.326669	-0.076645	0.884550
H138	H	1.282550	-0.195458	0.919759
C139	C	1.131378	-0.257283	0.794072
C140	C	1.204904	-0.191267	0.793797
H141	H	1.093196	-0.294837	0.737958
H142	H	1.106554	-0.210310	0.821210
H143	H	1.144513	-0.311494	0.823234
H144	H	1.191771	-0.137049	0.764645
H145	H	1.229725	-0.238232	0.766652
O146	O	1.472014	0.331428	1.136975
C147	C	1.435196	0.401145	1.177298
H148	H	1.365028	0.378006	1.138214
H149	H	1.445563	0.388675	1.241957
C150	C	1.561944	0.553822	1.234804
C151	C	1.475763	0.525409	1.186796
H152	H	1.586969	0.630475	1.240666
H153	H	1.586750	0.506852	1.207640
H154	H	1.570571	0.543422	1.288680
H155	H	1.467137	0.535796	1.132917
H156	H	1.450956	0.572385	1.213951
H157	H	0.977135	0.058804	0.670612
O158	O	0.591504	-0.133943	0.551154
C159	C	0.546748	-0.141761	0.466365
H160	H	0.589461	-0.090196	0.442395
H161	H	0.524226	-0.233774	0.427461
C162	C	0.418127	-0.158991	0.488117
C163	C	0.470585	-0.095651	0.458679
H164	H	0.371143	-0.130554	0.483374
H165	H	0.448278	-0.153729	0.545241
H166	H	0.399367	-0.235665	0.455693
H167	H	0.489352	-0.018983	0.491109
H168	H	0.440435	-0.100900	0.401561
H169	H	0.938778	0.143203	0.722875
H170	H	0.663737	-0.258697	0.474041
O171	O	0.773717	-0.317408	0.437828
C172	C	0.733393	-0.387181	0.474576
H173	H	0.772477	-0.364130	0.544739
H174	H	0.668739	-0.374679	0.464247
C175	C	0.675879	-0.539738	0.347716
C176	C	0.723887	-0.511432	0.433891
H177	H	0.670011	-0.616382	0.322618
H178	H	0.703043	-0.492729	0.322956
H179	H	0.622006	-0.529310	0.339120
H180	H	0.777762	-0.521846	0.442486
H181	H	0.696732	-0.558445	0.458651
H182	H	0.566688	-0.045159	0.606301
H183	H	0.938341	-0.250599	0.479010
