data_functionalizedCrystal
_audit_creation_method	'MofGen! by Chris Wilmer'
_symmetry_space_group_name_H-M	'P1'
_symmetry_Int_Tables_number	1
_symmetry_cell_setting	triclinic
loop_
_symmetry_equiv_pos_as_xyz
  x,y,z
_cell_length_a	19.805407
_cell_length_b	18.101397
_cell_length_c	19.805399
_cell_angle_alpha	90.029325
_cell_angle_beta	90.019573
_cell_angle_gamma	90.020466
loop_
_atom_site_label
_atom_site_type_symbol
_atom_site_fract_x
_atom_site_fract_y
_atom_site_fract_z
Zn1	Zn	1.034764	-0.294847	0.382711
Zn2	Zn	1.534764	0.205153	0.882711
Zn3	Zn	1.034690	-0.418690	0.269520
Zn4	Zn	1.534690	0.081310	0.769520
Zn5	Zn	0.921578	-0.294867	0.269536
Zn6	Zn	1.421578	0.205133	0.769536
Zn7	Zn	0.921554	-0.418651	0.382667
Zn8	Zn	1.421554	0.081349	0.882667
O9	O	0.978146	-0.356764	0.326108
O10	O	1.478146	0.143236	0.826108
O11	O	1.129470	-0.311283	0.367708
O12	O	1.629470	0.188717	0.867708
O13	O	1.019665	-0.402290	0.174805
O14	O	1.519665	0.097710	0.674805
O15	O	0.936634	-0.191232	0.284575
O16	O	1.436634	0.308768	0.784575
O17	O	1.129417	-0.402270	0.284547
O18	O	1.629417	0.097730	0.784547
O19	O	1.019790	-0.191217	0.367724
O20	O	1.519790	0.308783	0.867724
O21	O	0.936562	-0.311318	0.174817
O22	O	1.436562	0.188682	0.674817
O23	O	0.826858	-0.311279	0.284531
O24	O	1.326858	0.188721	0.784531
O25	O	0.936591	-0.402203	0.477389
O26	O	1.436591	0.097797	0.977389
O27	O	0.826840	-0.402223	0.367648
O28	O	1.326840	0.097777	0.867648
O29	O	1.019766	-0.311245	0.477422
O30	O	1.519766	0.188755	0.977422
O31	O	1.019641	-0.522318	0.284503
O32	O	1.519641	-0.022318	0.784503
O33	O	0.936520	-0.522289	0.367632
O34	O	1.436520	-0.022289	0.867632
C35	C	0.802290	-0.356750	0.326087
C36	C	1.302290	0.143250	0.826087
C37	C	0.727058	-0.356761	0.326093
C38	C	1.227058	0.143239	0.826093
C39	C	0.691722	-0.404187	0.369302
C40	C	1.191722	0.095813	0.869302
C41	C	0.621034	-0.404188	0.369311
C42	C	1.121034	0.095812	0.869311
C43	C	0.585683	-0.356767	0.326108
C44	C	1.085683	0.143233	0.826108
C45	C	0.621024	-0.309336	0.282898
C46	C	1.121024	0.190664	0.782898
C47	C	0.691711	-0.309332	0.282892
C48	C	1.191711	0.190668	0.782892
C49	C	0.335950	-0.309353	0.282920
C50	C	0.835950	0.190647	0.782920
C51	C	0.265258	-0.309362	0.282928
C52	C	0.765258	0.190638	0.782928
C53	C	0.265274	-0.404209	0.369339
C54	C	0.765274	0.095791	0.869339
C55	C	0.335961	-0.404205	0.369334
C56	C	0.835961	0.095795	0.869334
C57	C	0.371295	-0.356771	0.326126
C58	C	0.871295	0.143229	0.826126
C59	C	0.447944	-0.356770	0.326117
C60	C	0.947944	0.143230	0.826117
C61	C	0.509036	-0.356772	0.326113
C62	C	1.009036	0.143228	0.826113
C63	C	0.978088	-0.549174	0.326076
C64	C	1.478088	-0.049174	0.826076
C65	C	0.978126	-0.631488	0.326084
C66	C	1.478126	-0.131488	0.826084
C67	C	0.978212	-0.930579	0.326146
C68	C	1.478212	-0.430579	0.826146
C69	C	1.030364	-0.899242	0.273704
C70	C	1.530364	-0.399242	0.773704
C71	C	1.030544	-0.813623	0.273840
C72	C	1.530544	-0.313623	0.773840
C73	C	0.978169	-0.782197	0.326115
C74	C	1.478169	-0.282197	0.826115
C75	C	0.997504	-0.813206	0.397460
C76	C	1.497504	-0.313206	0.897460
C77	C	0.997908	-0.898851	0.397174
C78	C	1.497908	-0.398851	0.897174
C79	C	0.906586	-0.899088	0.307861
C80	C	1.406586	-0.399088	0.807861
C81	C	0.906940	-0.813438	0.306268
C82	C	1.406940	-0.313438	0.806268
C83	C	0.978144	-0.698337	0.326101
C84	C	1.478144	-0.198337	0.826101
C85	C	0.978239	-1.014439	0.326164
C86	C	1.478239	-0.514439	0.826164
C87	C	1.154689	-0.356779	0.326131
C88	C	1.654689	0.143221	0.826131
C89	C	1.229921	-0.356785	0.326140
C90	C	1.729921	0.143215	0.826140
C91	C	0.978184	-0.356717	0.502651
C92	C	1.478184	0.143283	1.002651
C93	C	0.978201	-0.356697	0.577883
C94	C	1.478201	0.143303	1.077883
C95	C	0.978223	-0.163602	0.326156
C96	C	1.478223	0.336398	0.826156
C97	C	0.978256	-0.081288	0.326177
C98	C	1.478256	0.418712	0.826177
C99	C	0.978148	-0.356757	0.150252
C100	C	1.478148	0.143243	0.650252
C101	C	0.978263	-0.356568	0.075021
C102	C	1.478263	0.143432	0.575021
C103	C	1.021511	-0.309333	0.613246
C104	C	1.521511	0.190667	1.113246
C105	C	1.021518	-0.309311	0.683934
C106	C	1.521518	0.190689	1.183934
C107	C	0.978217	-0.356659	0.719259
C108	C	1.478217	0.143341	1.219259
C109	C	0.934902	-0.404025	0.683892
C110	C	1.434902	0.095975	1.183892
C111	C	0.934893	-0.404042	0.613204
C112	C	1.434893	0.095958	1.113204
C113	C	0.934941	-0.403956	0.968965
C114	C	1.434941	0.096044	1.468965
C115	C	0.934955	-0.403937	1.039657
C116	C	1.434955	0.096063	1.539657
C117	C	1.021566	-0.309225	1.039695
C118	C	1.521566	0.190775	1.539695
C119	C	1.021556	-0.309242	0.969008
C120	C	1.521556	0.190758	1.469008
C121	C	0.978239	-0.356606	0.933646
C122	C	1.478239	0.143394	1.433646
C123	C	0.978231	-0.356627	0.856998
C124	C	1.478231	0.143373	1.356998
C125	C	0.978228	-0.356641	0.795906
C126	C	1.478228	0.143359	1.295906
H127	H	0.720480	-0.270709	0.247711
H128	H	1.220480	0.229291	0.747711
F129	F	0.887879	-0.786954	0.237643
F130	F	1.387879	-0.286954	0.737643
H131	H	0.720500	-0.442805	0.404481
H132	H	1.220500	0.057195	0.904481
F133	F	0.888866	-0.454332	1.077251
F134	F	1.388866	0.045668	1.577251
H135	H	1.083130	-0.920710	0.285663
H136	H	1.583130	-0.420710	0.785663
H137	H	1.056834	-0.270657	1.068494
H138	H	1.556834	0.229343	1.568494
F139	F	1.065171	-0.785097	0.418048
F140	F	1.565171	-0.285097	0.918048
F141	F	1.014698	-0.786221	0.204702
F142	F	1.514698	-0.286221	0.704702
F143	F	0.583430	-0.454665	0.415300
F144	F	1.083430	0.045335	0.915300
F145	F	0.227662	-0.454692	0.415326
F146	F	0.727662	0.045308	0.915326
F147	F	0.373547	-0.258868	0.236936
F148	F	0.873547	0.241132	0.736936
H149	H	0.364740	-0.442822	0.404512
H150	H	0.864740	0.057178	0.904512
H151	H	1.056818	-0.270690	0.940250
H152	H	1.556818	0.229310	1.440250
H153	H	0.899644	-0.442573	0.712659
H154	H	1.399644	0.057427	1.212659
F155	F	0.227636	-0.258887	0.236944
F156	F	0.727636	0.241113	0.736944
F157	F	0.583398	-0.258862	0.236922
F158	F	1.083398	0.241138	0.736922
H159	H	0.899618	-0.442604	0.584413
H160	H	1.399618	0.057396	1.084413
H161	H	0.888996	-0.920747	0.256738
H162	H	1.388996	-0.420747	0.756738
H163	H	0.899679	-0.442533	0.940182
H164	H	1.399679	0.057467	1.440182
H165	H	1.083601	-0.793080	0.285938
H166	H	1.583601	-0.293080	0.785938
H167	H	1.018413	-0.919883	0.220644
H168	H	1.518413	-0.419883	0.720644
F169	F	0.853417	-0.785488	0.352537
F170	F	1.353417	-0.285488	0.852537
H171	H	1.050263	-0.918770	0.412663
H172	H	1.550263	-0.418770	0.912663
F173	F	0.950409	-0.925946	0.449982
F174	F	1.450409	-0.425946	0.949982
H175	H	0.960681	-0.792847	0.437584
H176	H	1.460681	-0.292847	0.937584
F177	F	0.855797	-0.925579	0.357784
F178	F	1.355797	-0.425579	0.857784
F179	F	1.067601	-0.258942	0.575657
F180	F	1.567601	0.241058	1.075657
F181	F	1.067638	-0.258925	0.721566
F182	F	1.567638	0.241075	1.221566
