data_functionalizedCrystal
_audit_creation_method	'MofGen! by Chris Wilmer'
_symmetry_space_group_name_H-M	'P1'
_symmetry_Int_Tables_number	1
_symmetry_cell_setting	triclinic
loop_
_symmetry_equiv_pos_as_xyz
  x,y,z
_cell_length_a	19.077212
_cell_length_b	12.827892
_cell_length_c	19.076919
_cell_angle_alpha	92.275535
_cell_angle_beta	89.885058
_cell_angle_gamma	92.307656
loop_
_atom_site_label
_atom_site_type_symbol
_atom_site_fract_x
_atom_site_fract_y
_atom_site_fract_z
Zn1	Zn	1.058332	-0.379361	-0.440602
Zn2	Zn	1.558332	0.120639	0.059398
Zn3	Zn	1.062989	-0.546831	-0.323103
Zn4	Zn	1.562989	-0.046831	0.176897
Zn5	Zn	0.945547	-0.378811	-0.318377
Zn6	Zn	1.445547	0.121189	0.181623
Zn7	Zn	0.940810	-0.560770	-0.435837
Zn8	Zn	1.440810	-0.060770	0.064163
O9	O	1.001920	-0.466443	-0.379480
O10	O	1.501920	0.033557	0.120520
O11	O	1.157283	-0.395973	-0.428987
O12	O	1.657283	0.104027	0.071013
O13	O	1.051342	-0.518479	-0.224145
O14	O	1.551342	-0.018479	0.275855
O15	O	0.960542	-0.232647	-0.334607
O16	O	1.460542	0.267353	0.165393
O17	O	1.160705	-0.519012	-0.342661
O18	O	1.660705	-0.019012	0.157339
O19	O	1.043404	-0.233051	-0.424405
O20	O	1.543404	0.266949	0.075595
O21	O	0.965058	-0.395035	-0.220673
O22	O	1.465058	0.104965	0.279327
O23	O	0.846586	-0.408551	-0.329987
O24	O	1.346586	0.091449	0.170013
O25	O	0.952468	-0.542769	-0.534800
O26	O	1.452468	-0.042769	-0.034800
O27	O	0.843105	-0.542236	-0.416284
O28	O	1.343105	-0.042236	0.083716
O29	O	1.038811	-0.409489	-0.538301
O30	O	1.538811	0.090511	-0.038301
O31	O	1.046749	-0.694917	-0.338041
O32	O	1.546749	-0.194917	0.161959
O33	O	0.956984	-0.705158	-0.420866
O34	O	1.456984	-0.205158	0.079134
C35	C	0.819349	-0.476847	-0.372106
C36	C	1.319349	0.023153	0.127894
C37	C	0.741243	-0.481324	-0.368968
C38	C	1.241243	0.018676	0.131032
C39	C	0.301783	-0.513393	-0.346495
C40	C	0.801783	-0.013393	0.153505
C41	C	0.375172	-0.509180	-0.349438
C42	C	0.875172	-0.009180	0.150562
C43	C	0.410084	-0.443128	-0.395928
C44	C	0.910084	0.056872	0.104072
C45	C	0.371603	-0.381276	-0.439473
C46	C	0.871603	0.118724	0.060527
C47	C	0.298216	-0.385484	-0.436526
C48	C	0.798216	0.114516	0.063474
C49	C	0.629376	-0.423681	-0.409566
C50	C	1.129376	0.076319	0.090434
C51	C	0.702768	-0.419480	-0.412511
C52	C	1.202768	0.080520	0.087489
C53	C	0.706332	-0.547383	-0.322475
C54	C	1.206332	-0.047383	0.177525
C55	C	0.632943	-0.551589	-0.319535
C56	C	1.132943	-0.051589	0.180465
C57	C	0.594469	-0.489734	-0.363077
C58	C	1.094469	0.010266	0.136923
N59	N	0.485098	-0.438823	-0.398939
N60	N	0.985098	0.061177	0.101061
N61	N	0.519456	-0.494034	-0.360062
N62	N	1.019456	0.005966	0.139938
C63	C	1.001876	-0.737955	-0.379466
C64	C	1.501876	-0.237955	0.120534
C65	C	1.001921	-0.854106	-0.379486
C66	C	1.501921	-0.354106	0.120514
C67	C	1.046388	-0.900789	-0.338551
C68	C	1.546388	-0.400789	0.161449
C69	C	1.046435	-1.020838	-0.338570
C70	C	1.546435	-0.520838	0.161430
C71	C	1.185204	-0.455999	-0.386883
C72	C	1.685204	0.044001	0.113117
C73	C	1.263308	-0.451548	-0.390038
C74	C	1.763308	0.048452	0.109962
C75	C	0.994591	-0.477745	-0.562759
C76	C	1.494591	0.022255	-0.062759
C77	C	0.991468	-0.482562	-0.640862
C78	C	1.491468	0.017438	-0.140862
C79	C	1.001982	-0.193871	-0.379510
C80	C	1.501982	0.306129	0.120490
C81	C	1.002008	-0.077717	-0.379523
C82	C	1.502008	0.422283	0.120477
C83	C	1.034953	-0.415436	-0.679379
C84	C	1.534953	0.084564	-0.179379
C85	C	1.032010	-0.419958	-0.752764
C86	C	1.532010	0.080042	-0.252764
C87	C	0.985586	-0.491612	-0.787632
C88	C	1.485586	0.008388	-0.287632
C89	C	0.942096	-0.558740	-0.749110
C90	C	1.442096	-0.058740	-0.249110
C91	C	0.945036	-0.554213	-0.675726
C92	C	1.445036	-0.054213	-0.175726
C93	C	0.971970	-0.512589	-1.006912
C94	C	1.471970	-0.012589	-0.506912
C95	C	0.969035	-0.517114	-1.080302
C96	C	1.469035	-0.017114	-0.580302
C97	C	1.058948	-0.378330	-1.083950
C98	C	1.558948	0.121670	-0.583950
C99	C	1.061886	-0.373813	-1.010565
C100	C	1.561886	0.126187	-0.510565
C101	C	1.018395	-0.440938	-0.972049
C102	C	1.518395	0.059062	-0.472049
N103	N	0.982578	-0.496238	-0.862644
N104	N	1.482578	0.003762	-0.362644
N105	N	1.021399	-0.436306	-0.897039
N106	N	1.521399	0.063694	-0.397039
C107	C	1.009260	-0.455107	-0.196915
C108	C	1.509260	0.044893	0.303085
C109	C	1.012519	-0.449988	-0.118818
C110	C	1.512519	0.050012	0.381182
H111	H	0.737665	-0.597741	-0.287025
H112	H	1.237665	-0.097741	0.212975
H113	H	0.266891	-0.335120	-0.471981
H114	H	0.766891	0.164880	0.028019
C115	C	0.594542	-0.624254	-0.268402
C116	C	1.094542	-0.124254	0.231598
H117	H	0.545324	-0.617912	-0.272891
H118	H	1.045324	-0.117912	0.227109
H119	H	0.608441	-0.605261	-0.221687
H120	H	1.108441	-0.105261	0.278313
H121	H	0.606161	-0.694432	-0.279098
H122	H	1.106161	-0.194432	0.220902
H123	H	0.731191	-0.365685	-0.450368
H124	H	1.231191	0.134315	0.049632
H125	H	1.084426	-0.851882	-0.303492
H126	H	1.584426	-0.351882	0.196508
H127	H	1.094355	-0.323679	-1.115318
H128	H	1.594355	0.176321	-0.615318
H129	H	0.963889	-0.903015	-0.414549
H130	H	1.463889	-0.403015	0.085451
C131	C	0.410004	-0.308621	-0.490611
C132	C	0.910004	0.191379	0.009389
H133	H	0.459221	-0.314980	-0.486137
H134	H	0.959221	0.185020	0.013863
H135	H	0.398390	-0.238443	-0.479930
H136	H	0.898390	0.261557	0.020070
H137	H	0.396098	-0.327637	-0.537325
H138	H	0.896098	0.172363	-0.037325
C139	C	1.086017	-0.336611	-0.641030
C140	C	1.586017	0.163389	-0.141030
H141	H	1.111487	-0.297274	-0.674482
H142	H	1.611487	0.202726	-0.174482
H143	H	1.117774	-0.373068	-0.613635
H144	H	1.617774	0.126932	-0.113635
H145	H	1.060286	-0.290842	-0.611324
H146	H	1.560286	0.209158	-0.111324
H147	H	1.099692	-0.315467	-0.982181
H148	H	1.599692	0.184533	-0.482181
C149	C	0.950575	-1.023477	-0.426873
C150	C	1.450575	-0.523477	0.073127
H151	H	0.922705	-1.074736	-0.452566
H152	H	1.422705	-0.574736	0.047434
H153	H	0.976215	-0.981199	-0.458563
H154	H	1.476215	-0.481199	0.041437
H155	H	0.921061	-0.981040	-0.398697
H156	H	1.421061	-0.481040	0.101303
H157	H	0.273364	-0.567185	-0.308641
H158	H	0.773364	-0.067185	0.191359
C159	C	1.097867	-1.075084	-0.291222
C160	C	1.597867	-0.575084	0.208778
H161	H	1.125730	-1.023825	-0.265522
H162	H	1.625730	-0.523825	0.234478
H163	H	1.127376	-1.117527	-0.319392
H164	H	1.627376	-0.617527	0.180608
H165	H	1.072221	-1.117357	-0.259527
H166	H	1.572221	-0.617357	0.240473
H167	H	0.909619	-0.608864	-0.644366
H168	H	1.409619	-0.108864	-0.144366
C169	C	0.417495	-0.577213	-0.301545
C170	C	0.917495	-0.077213	0.198455
H171	H	0.466202	-0.565241	-0.309952
H172	H	0.966202	-0.065241	0.190048
H173	H	0.405057	-0.648768	-0.311267
H174	H	0.905057	-0.148768	0.188733
H175	H	0.407343	-0.559585	-0.253865
H176	H	0.907343	-0.059585	0.246135
H177	H	0.598059	-0.373319	-0.445024
H178	H	1.098059	0.126681	0.054976
C179	C	1.079847	-0.346124	-0.795130
C180	C	1.579847	0.153876	-0.295130
H181	H	1.107923	-0.302811	-0.763854
H182	H	1.607923	0.197189	-0.263854
H183	H	1.051834	-0.303884	-0.822675
H184	H	1.551834	0.196116	-0.322675
H185	H	1.109308	-0.386131	-0.824990
H186	H	1.609308	0.113869	-0.324990
C187	C	0.917964	-0.595934	-1.118655
C188	C	1.417964	-0.095934	-0.618655
H189	H	0.892478	-0.635257	-1.085207
H190	H	1.392478	-0.135257	-0.585207
H191	H	0.943687	-0.641703	-1.148363
H192	H	1.443687	-0.141703	-0.648363
H193	H	0.886210	-0.559459	-1.146050
H194	H	1.386210	-0.059459	-0.646050
C195	C	0.924116	-0.586403	-0.964553
C196	C	1.424116	-0.086403	-0.464553
H197	H	0.896048	-0.629724	-0.995832
H198	H	1.396048	-0.129724	-0.495832
H199	H	0.894659	-0.546383	-0.934703
H200	H	1.394659	-0.046383	-0.434703
H201	H	0.952118	-0.628654	-0.936998
H202	H	1.452118	-0.128654	-0.436998
H203	H	0.904294	-0.617079	-0.777505
H204	H	1.404294	-0.117079	-0.277505
