data_functionalizedCrystal
_audit_creation_method	'MofGen! by Chris Wilmer'
_symmetry_space_group_name_H-M	'P1'
_symmetry_Int_Tables_number	1
_symmetry_cell_setting	triclinic
loop_
_symmetry_equiv_pos_as_xyz
  x,y,z
_cell_length_a	12.759401
_cell_length_b	19.121063
_cell_length_c	12.759393
_cell_angle_alpha	92.402917
_cell_angle_beta	89.981504
_cell_angle_gamma	92.469017
loop_
_atom_site_label
_atom_site_type_symbol
_atom_site_fract_x
_atom_site_fract_y
_atom_site_fract_z
Zn1	Zn	1.588321	-0.279568	-0.611771
Zn2	Zn	2.088321	0.220432	-0.111771
Zn3	Zn	1.580680	-0.397037	-0.443567
Zn4	Zn	2.080680	0.102963	0.056433
Zn5	Zn	1.412621	-0.279605	-0.436113
Zn6	Zn	1.912621	0.220395	0.063887
Zn7	Zn	1.405080	-0.396983	-0.619205
Zn8	Zn	1.905080	0.103017	-0.119205
O9	O	1.496676	-0.338298	-0.527664
O10	O	1.996676	0.161702	-0.027664
O11	O	1.734328	-0.295158	-0.589467
O12	O	2.234328	0.204842	-0.089467
O13	O	1.558345	-0.381497	-0.295559
O14	O	2.058345	0.118503	0.204441
O15	O	1.442282	-0.181316	-0.453184
O16	O	1.942282	0.318684	0.046816
O17	O	1.728714	-0.381462	-0.465888
O18	O	2.228714	0.118538	0.034112
O19	O	1.571368	-0.181289	-0.582240
O20	O	2.071368	0.318711	-0.082240
O21	O	1.434872	-0.295221	-0.290083
O22	O	1.934872	0.204779	0.209917
O23	O	1.264600	-0.295168	-0.460392
O24	O	1.764600	0.204832	0.039608
O25	O	1.429429	-0.381370	-0.765237
O26	O	1.929429	0.118630	-0.265237
O27	O	1.259060	-0.381405	-0.594909
O28	O	1.759060	0.118595	-0.094909
O29	O	1.564056	-0.295106	-0.759776
O30	O	2.064056	0.204894	-0.259776
O31	O	1.551032	-0.495314	-0.473095
O32	O	2.051032	0.004686	0.026905
O33	O	1.422020	-0.495274	-0.602136
O34	O	1.922020	0.004726	-0.102136
C35	C	1.223709	-0.338285	-0.527649
C36	C	1.723709	0.161715	-0.027649
C37	C	1.106932	-0.338297	-0.527668
C38	C	1.606932	0.161703	-0.027668
C39	C	1.049208	-0.383272	-0.597605
C40	C	1.549208	0.116728	-0.097605
C41	C	0.939483	-0.383281	-0.597616
C42	C	1.439483	0.116719	-0.097616
C43	C	0.945216	-0.293337	-0.457747
C44	C	1.445216	0.206663	0.042253
C45	C	1.054939	-0.293325	-0.457741
C46	C	1.554939	0.206675	0.042259
C47	C	1.045897	-0.435203	-0.678354
C48	C	1.545897	0.064797	-0.178354
C49	C	0.936172	-0.435212	-0.678366
C50	C	1.436172	0.064788	-0.178366
C51	C	1.484907	-0.520778	-0.539254
C52	C	1.984907	-0.020778	-0.039254
C53	C	1.479969	-0.598844	-0.544247
C54	C	1.979969	-0.098844	-0.044247
C55	C	1.544871	-0.635516	-0.479464
C56	C	2.044871	-0.135516	0.020536
C57	C	1.540233	-0.708867	-0.484167
C58	C	2.040233	-0.208867	0.015833
C59	C	1.470686	-0.745544	-0.553648
C60	C	1.970686	-0.245544	-0.053648
C61	C	1.405781	-0.708866	-0.618438
C62	C	1.905781	-0.208866	-0.118438
C63	C	1.410426	-0.635517	-0.613740
C64	C	1.910426	-0.135517	-0.113740
C65	C	1.453305	-0.967013	-0.571195
C66	C	1.953305	-0.467013	-0.071195
C67	C	1.448663	-1.040368	-0.575886
C68	C	1.948663	-0.540368	-0.075886
C69	C	1.583116	-1.040364	-0.441616
C70	C	2.083116	-0.540364	0.058384
C71	C	1.587750	-0.967013	-0.436920
C72	C	2.087750	-0.467013	0.063080
C73	C	1.522849	-0.930341	-0.501714
C74	C	2.022849	-0.430341	-0.001714
C75	C	1.465941	-0.820521	-0.558454
C76	C	1.965941	-0.320521	-0.058454
C77	C	1.527600	-0.855366	-0.496912
C78	C	2.027600	-0.355366	0.003088
C79	C	1.770708	-0.338312	-0.527680
C80	C	2.270708	0.161688	-0.027680
C81	C	1.887484	-0.338318	-0.527686
C82	C	2.387484	0.161682	-0.027686
C83	C	1.496754	-0.338227	-0.801693
C84	C	1.996754	0.161773	-0.301693
C85	C	1.496787	-0.338197	-0.918468
C86	C	1.996787	0.161803	-0.418468
C87	C	1.508518	-0.155106	-0.516052
C88	C	2.008518	0.344894	-0.016052
C89	C	1.513565	-0.077040	-0.511103
C90	C	2.013565	0.422960	-0.011103
C91	C	1.566897	-0.293275	-0.970488
C92	C	2.066897	0.206725	-0.470488
C93	C	1.566923	-0.293250	-1.080210
C94	C	2.066923	0.206750	-0.580210
C95	C	1.426727	-0.383075	-1.085884
C96	C	1.926727	0.116925	-0.585884
C97	C	1.426696	-0.383096	-0.976163
C98	C	1.926696	0.116904	-0.476163
C99	C	1.647841	-0.241418	-0.967213
C100	C	2.147841	0.258582	-0.467213
C101	C	1.647867	-0.241392	-1.076936
C102	C	2.147867	0.258608	-0.576936
C103	C	1.496661	-0.338318	-0.254698
C104	C	1.996661	0.161682	0.245302
C105	C	1.496844	-0.338151	-0.137911
C106	C	1.996844	0.161849	0.362089
H107	H	0.902888	-0.489594	-0.659894
H108	H	1.402888	0.010406	-0.159894
Cl109	Cl	1.621831	-0.754967	-0.402724
Cl110	Cl	2.121831	-0.254967	0.097276
H111	H	1.622069	-0.189711	-1.107695
H112	H	2.122069	0.310289	-0.607695
Cl113	Cl	1.615031	-0.809257	-0.409572
Cl114	Cl	2.115031	-0.309257	0.090428
Cl115	Cl	1.765211	-0.271519	-0.916571
Cl116	Cl	2.265211	0.228481	-0.416571
H117	H	1.101934	-0.256697	-0.400799
H118	H	1.601934	0.243303	0.099201
H119	H	1.728304	-0.255961	-1.107641
H120	H	2.228304	0.244039	-0.607641
H121	H	1.076598	-0.486846	-0.652356
H122	H	1.576598	0.013154	-0.152356
Cl123	Cl	0.885596	-0.405236	-0.795879
Cl124	Cl	1.385596	0.094764	-0.295879
H125	H	0.902870	-0.256722	-0.400815
H126	H	1.402870	0.243278	0.099185
H127	H	1.076635	-0.420697	-0.758838
H128	H	1.576635	0.079303	-0.258838
H129	H	1.392042	-1.070228	-0.632484
H130	H	1.892042	-0.570228	-0.132484
H131	H	1.644380	-0.937152	-0.380343
H132	H	2.144380	-0.437152	0.119657
Cl133	Cl	1.632299	-0.589416	-0.392106
Cl134	Cl	2.132299	-0.089416	0.107894
H135	H	1.409314	-0.850391	-0.615023
H136	H	1.909314	-0.350391	-0.115023
Cl137	Cl	1.338538	-0.439560	-0.910769
Cl138	Cl	1.838538	0.060440	-0.410769
Cl139	Cl	1.371712	-0.920921	-0.652649
Cl140	Cl	1.871712	-0.420921	-0.152649
Cl141	Cl	1.318357	-0.754975	-0.705792
Cl142	Cl	1.818357	-0.254975	-0.205792
H143	H	1.635956	-1.070229	-0.388866
H144	H	2.135956	-0.570229	0.111134
H145	H	1.357577	-0.605658	-0.666494
H146	H	1.857577	-0.105658	-0.166494
Cl147	Cl	1.338619	-0.439515	-1.158422
Cl148	Cl	1.838619	0.060485	-0.658422
H149	H	1.629561	-0.187026	-0.933996
H150	H	2.129561	0.312974	-0.433996
