data_functionalizedCrystal
_audit_creation_method	'MofGen! by Chris Wilmer'
_symmetry_space_group_name_H-M	'P1'
_symmetry_Int_Tables_number	1
_symmetry_cell_setting	triclinic
loop_
_symmetry_equiv_pos_as_xyz
  x,y,z
_cell_length_a	10.489741
_cell_length_b	14.421503
_cell_length_c	10.489741
_cell_angle_alpha	89.991141
_cell_angle_beta	84.539174
_cell_angle_gamma	89.996595
loop_
_atom_site_label
_atom_site_type_symbol
_atom_site_fract_x
_atom_site_fract_y
_atom_site_fract_z
O1	O	1.694056	-0.077054	0.179976
O2	O	1.322860	-0.077068	0.196869
O3	O	1.516904	-0.077055	0.002824
O4	O	1.500012	-0.077067	0.374020
O5	O	1.516883	0.077168	0.002802
O6	O	1.322839	0.077155	0.196847
O7	O	1.694035	0.077170	0.179954
Cu8	Cu	1.508435	0.091244	0.188398
Cu9	Cu	1.508460	-0.091143	0.188424
O10	O	1.499990	0.077157	0.373998
C11	C	1.275318	0.000042	0.195582
C12	C	1.133688	0.000036	0.191765
C13	C	1.065548	0.000049	0.068300
C14	C	0.973432	-0.075991	0.126634
C15	C	0.973445	0.076061	0.126642
C16	C	1.043437	-0.076067	0.250150
C17	C	1.043460	0.076054	0.250140
C18	C	0.951371	-0.000005	0.308564
N19	N	1.508479	-0.219424	0.188433
C20	C	1.598386	-0.469041	0.098836
C21	C	1.623909	-0.530881	0.214404
C22	C	1.508461	-0.408585	0.188418
C23	C	1.482982	-0.530839	0.072835
C24	C	1.508448	-0.591307	0.188393
C25	C	1.534041	-0.469065	0.304045
C26	C	1.393064	-0.469017	0.162400
C27	C	1.418538	-0.530830	0.278050
C28	C	1.508473	-0.303324	0.188431
C29	C	1.508435	-0.696566	0.188393
C30	C	1.741577	0.000058	0.181241
C31	C	1.883206	0.000057	0.185058
C32	C	1.515618	0.000056	-0.044718
C33	C	1.511801	0.000054	-0.186348
N34	N	1.508426	0.219526	0.188379
C35	C	1.388336	0.000043	-0.254488
C36	C	1.446649	0.076085	-0.346621
C37	C	1.446699	-0.075967	-0.346574
C38	C	1.570165	0.076159	-0.276616
C39	C	1.570198	-0.075961	-0.276559
C40	C	1.628600	0.000100	-0.368665
C41	C	1.501277	0.000043	0.421541
C42	C	1.505094	0.000039	0.563170
H43	H	1.074274	-0.140425	0.302359
H44	H	1.721492	-0.558055	0.236409
C45	C	1.377021	-0.161610	-0.388119
C46	C	1.375339	-0.160898	-0.521420
C47	C	1.311138	-0.239766	-0.559728
H48	H	1.419981	-0.215674	-0.363095
H49	H	1.291635	-0.161517	-0.348717
H50	H	1.460710	-0.161000	-0.560807
H51	H	1.332371	-0.106852	-0.546477
H52	H	1.225752	-0.239673	-0.520327
H53	H	1.354105	-0.293823	-0.534696
H54	H	1.309979	-0.239289	-0.650175
H55	H	1.555692	-0.442043	0.401807
H56	H	1.461436	-0.557976	-0.024901
H57	H	1.342481	-0.557788	0.353880
C58	C	1.263046	-0.432798	0.132751
C59	C	1.236876	-0.464023	0.011579
C60	C	1.117125	-0.430665	-0.015799
H61	H	1.198866	-0.454852	0.195420
H62	H	1.263757	-0.366927	0.133684
H63	H	1.236154	-0.529881	0.010656
H64	H	1.301025	-0.441971	-0.051116
H65	H	1.117835	-0.364793	-0.014866
H66	H	1.052954	-0.452721	0.046878
H67	H	1.099357	-0.451839	-0.098020
C68	C	1.639826	-0.161597	-0.234889
C69	C	1.643501	-0.159976	-0.101833
C70	C	1.707635	-0.238849	-0.063398
H71	H	1.595945	-0.215645	-0.258456
H72	H	1.724736	-0.162143	-0.275496
H73	H	1.558606	-0.159439	-0.061240
H74	H	1.687391	-0.105945	-0.078232
H75	H	1.792545	-0.239395	-0.104005
H76	H	1.663747	-0.292891	-0.086973
H77	H	1.710147	-0.237756	0.026882
H78	H	1.286824	0.000115	-0.204837
C79	C	1.376842	0.161687	-0.388156
C80	C	1.270719	0.134487	-0.450555
C81	C	1.206383	0.213313	-0.488842
H82	H	1.348920	0.197800	-0.315061
H83	H	1.433112	0.197490	-0.444920
H84	H	1.214459	0.098698	-0.393794
H85	H	1.298604	0.098384	-0.523664
H86	H	1.262653	0.249117	-0.545606
H87	H	1.178470	0.249421	-0.415740
H88	H	1.134379	0.194869	-0.531193
C89	C	1.131707	-0.000240	-0.067072
C90	C	1.096429	-0.080045	-0.131110
C91	C	1.157369	-0.080356	-0.255804
H92	H	1.106796	0.053169	-0.111549
H93	H	1.221896	0.000257	-0.063738
H94	H	1.006260	-0.080534	-0.134451
H95	H	1.121342	-0.133467	-0.086672
H96	H	1.247558	-0.079858	-0.252470
H97	H	1.132453	-0.026943	-0.300269
H98	H	1.133451	-0.134506	-0.299265
H99	H	1.622351	0.140519	-0.245793
H100	H	1.074497	0.140341	0.302329
C101	C	0.932252	-0.161821	0.057137
C102	C	0.969466	-0.241256	0.120822
C103	C	0.931580	-0.320337	0.056820
H104	H	0.841828	-0.161620	0.055864
H105	H	0.971757	-0.161789	-0.028210
H106	H	0.929956	-0.241289	0.206146
H107	H	1.059884	-0.241488	0.122096
H108	H	0.971086	-0.320304	-0.028527
H109	H	0.841157	-0.320127	0.055551
H110	H	0.956834	-0.374243	0.100014
C111	C	0.885524	-0.000251	0.444062
C112	C	0.921020	-0.080011	0.508103
C113	C	0.860372	-0.080280	0.632917
H114	H	0.910513	0.053189	0.488398
H115	H	0.795305	0.000215	0.440949
H116	H	1.011219	-0.080468	0.511224
H117	H	0.896029	-0.133464	0.463807
H118	H	0.770153	-0.079814	0.629804
H119	H	0.885366	-0.026837	0.677241
H120	H	0.884438	-0.134400	0.676381
C121	C	0.932323	0.161750	0.056751
C122	C	0.990686	0.161391	-0.068970
C123	C	0.952852	0.240312	-0.133396
H124	H	0.841912	0.161511	0.055364
H125	H	0.957505	0.215772	0.099710
H126	H	0.965497	0.107383	-0.111919
H127	H	1.081096	0.161644	-0.067621
H128	H	0.978033	0.294335	-0.090436
H129	H	0.862441	0.240067	-0.134773
H130	H	0.992454	0.240084	-0.218700
H131	H	1.674490	-0.441912	0.023177
H132	H	1.730204	0.000146	-0.418089
