data_functionalizedCrystal
_audit_creation_method	'MofGen! by Chris Wilmer'
_symmetry_space_group_name_H-M	'P1'
_symmetry_Int_Tables_number	1
_symmetry_cell_setting	triclinic
loop_
_symmetry_equiv_pos_as_xyz
  x,y,z
_cell_length_a	16.120530
_cell_length_b	12.645330
_cell_length_c	16.120297
_cell_angle_alpha	87.123238
_cell_angle_beta	89.871860
_cell_angle_gamma	87.113442
loop_
_atom_site_label
_atom_site_type_symbol
_atom_site_fract_x
_atom_site_fract_y
_atom_site_fract_z
Zn1	Zn	1.247482	-0.537081	0.534595
Zn2	Zn	1.580815	-0.203748	0.867929
Zn3	Zn	1.914148	0.129586	1.201262
Zn4	Zn	1.254445	-0.705843	0.395547
Zn5	Zn	1.587779	-0.372509	0.728881
Zn6	Zn	1.921112	-0.039176	1.062214
Zn7	Zn	1.115471	-0.519167	0.388512
Zn8	Zn	1.448804	-0.185834	0.721846
Zn9	Zn	1.782137	0.147500	1.055179
Zn10	Zn	1.108402	-0.704866	0.527517
Zn11	Zn	1.441735	-0.371533	0.860850
Zn12	Zn	1.775068	-0.038200	1.194183
O13	O	1.181450	-0.616739	0.461543
O14	O	1.514783	-0.283406	0.794876
O15	O	1.848116	0.049927	1.128210
O16	O	1.364772	-0.567373	0.522057
O17	O	1.698106	-0.234040	0.855390
O18	O	2.031439	0.099293	1.188724
O19	O	1.241883	-0.673991	0.278248
O20	O	1.575216	-0.340658	0.611582
O21	O	1.908549	-0.007325	0.944915
O22	O	1.133026	-0.373200	0.407909
O23	O	1.466359	-0.039867	0.741242
O24	O	1.799693	0.293467	1.074575
O25	O	1.369888	-0.691362	0.419899
O26	O	1.703222	-0.358028	0.753232
O27	O	2.036555	-0.024695	1.086566
O28	O	1.230014	-0.386361	0.515235
O29	O	1.563347	-0.053028	0.848569
O30	O	1.896681	0.280305	1.181902
O31	O	1.139779	-0.536842	0.273080
O32	O	1.473112	-0.203508	0.606413
O33	O	1.806445	0.129825	0.939746
O34	O	0.998166	-0.535895	0.401045
O35	O	1.331499	-0.202562	0.734378
O36	O	1.664833	0.130772	1.067711
O37	O	1.120978	-0.689698	0.644821
O38	O	1.454312	-0.356364	0.978155
O39	O	1.787645	-0.023031	1.311488
O40	O	0.992972	-0.672327	0.503171
O41	O	1.326306	-0.338994	0.836504
O42	O	1.659639	-0.005661	1.169837
O43	O	1.223160	-0.566427	0.650022
O44	O	1.556493	-0.233093	0.983355
O45	O	1.889826	0.100240	1.316689
O46	O	1.235028	-0.854056	0.413035
O47	O	1.568362	-0.520723	0.746368
O48	O	1.901695	-0.187390	1.079702
O49	O	1.127731	-0.853339	0.509992
O50	O	1.461064	-0.520006	0.843326
O51	O	1.794397	-0.186673	1.176659
C52	C	0.965397	-0.602062	0.450577
C53	C	1.298730	-0.268729	0.783910
C54	C	1.632063	0.064605	1.117243
C55	C	0.872967	-0.595810	0.445905
C56	C	1.206300	-0.262477	0.779238
C57	C	1.539634	0.070857	1.112572
C58	C	0.703737	-0.584371	0.437383
C59	C	1.037070	-0.251037	0.770716
C60	C	1.370403	0.082296	1.104050
C61	C	0.660000	-0.649190	0.485763
C62	C	0.993334	-0.315856	0.819097
C63	C	1.326667	0.017477	1.152430
C64	C	0.565835	-0.642825	0.481022
C65	C	0.899168	-0.309492	0.814355
C66	C	1.232501	0.023842	1.147688
C67	C	0.797911	-0.590734	0.442124
C68	C	1.131244	-0.257401	0.775457
C69	C	1.464577	0.075933	1.108790
C70	C	1.181390	-0.892164	0.461528
C71	C	1.514723	-0.558831	0.794861
C72	C	1.848056	-0.225498	1.128195
C73	C	1.181439	-1.009999	0.461554
C74	C	1.514772	-0.676666	0.794887
C75	C	1.848105	-0.343332	1.128220
C76	C	1.114193	-1.177186	0.522761
C77	C	1.447526	-0.843853	0.856094
C78	C	1.780859	-0.510519	1.189428
C79	C	1.113876	-1.054592	0.522537
C80	C	1.447209	-0.721258	0.855870
C81	C	1.780542	-0.387925	1.189204
C82	C	1.162161	-1.047614	0.372717
C83	C	1.495494	-0.714281	0.706050
C84	C	1.828828	-0.380947	1.039383
C85	C	1.161751	-1.170210	0.373088
C86	C	1.495084	-0.836876	0.706422
C87	C	1.828417	-0.503543	1.039755
C88	C	1.268390	-1.184441	0.488492
C89	C	1.601723	-0.851108	0.821825
C90	C	1.935056	-0.517774	1.155159
C91	C	1.267753	-1.061915	0.490381
C92	C	1.601086	-0.728582	0.823714
C93	C	1.934420	-0.395248	1.157048
C94	C	1.398347	-0.631475	0.472552
C95	C	1.731680	-0.298141	0.805886
C96	C	2.065013	0.035192	1.139219
C97	C	1.490775	-0.637754	0.477244
C98	C	1.824108	-0.304421	0.810577
C99	C	2.157442	0.028913	1.143911
C100	C	1.170504	-0.629952	0.678438
C101	C	1.503837	-0.296618	1.011771
C102	C	1.837170	0.036715	1.345104
C103	C	1.165839	-0.635582	0.770865
C104	C	1.499172	-0.302248	1.104199
C105	C	1.832506	0.031085	1.437532
C106	C	1.181532	-0.340242	0.461577
C107	C	1.514865	-0.006908	0.794910
C108	C	1.848198	0.326425	1.128244
C109	C	1.181567	-0.222415	0.461592
C110	C	1.514900	0.110919	0.794925
C111	C	1.848233	0.444252	1.128258
C112	C	1.192401	-0.603505	0.245494
C113	C	1.525735	-0.270172	0.578827
C114	C	1.859068	0.063161	0.912161
C115	C	1.197227	-0.597587	0.153075
C116	C	1.530560	-0.264254	0.486408
C117	C	1.863894	0.069079	0.819742
C118	C	1.157292	-0.645836	0.940091
C119	C	1.490625	-0.312502	1.273424
C120	C	1.823959	0.020831	1.606757
C121	C	1.205771	-0.587337	0.983855
C122	C	1.539105	-0.254003	1.317188
C123	C	1.872438	0.079330	1.650522
C124	C	1.201016	-0.593042	1.078018
C125	C	1.534349	-0.259708	1.411351
C126	C	1.867682	0.073625	1.744685
C127	C	1.162047	-0.640132	0.845919
C128	C	1.495380	-0.306798	1.179253
C129	C	1.828713	0.026535	1.512586
H130	H	0.693277	-0.709462	0.530745
H131	H	1.026611	-0.376129	0.864079
H132	H	1.359944	-0.042795	1.197412
H133	H	1.050134	-1.202791	0.504798
H134	H	1.383467	-0.869458	0.838132
H135	H	1.716801	-0.536125	1.171465
Cl136	Cl	1.275385	-0.503422	0.932524
Cl137	Cl	1.608718	-0.170089	1.265857
Cl138	Cl	1.942051	0.163245	1.599190
Cl139	Cl	1.087706	-0.729775	0.991424
Cl140	Cl	1.421039	-0.396442	1.324758
Cl141	Cl	1.754373	-0.063108	1.658091
Cl142	Cl	0.652362	-0.491320	0.367938
Cl143	Cl	0.985696	-0.157987	0.701272
Cl144	Cl	1.319029	0.175347	1.034605
Cl145	Cl	1.296882	-1.240268	0.587170
Cl146	Cl	1.630215	-0.906934	0.920504
Cl147	Cl	1.963549	-0.573601	1.253837
Cl148	Cl	1.348790	-1.015738	0.427156
Cl149	Cl	1.682123	-0.682405	0.760490
Cl150	Cl	2.015456	-0.349071	1.093823
H151	H	1.125422	-1.029426	0.588270
H152	H	1.458755	-0.696093	0.921603
H153	H	1.792089	-0.362760	1.254936
H154	H	1.099513	-1.011500	0.350136
H155	H	1.432846	-0.678167	0.683470
H156	H	1.766179	-0.344834	1.016803
Cl157	Cl	1.131785	-1.230307	0.624569
Cl158	Cl	1.465119	-0.896974	0.957902
Cl159	Cl	1.798452	-0.563640	1.291235
H160	H	1.049419	-1.020022	0.504364
H161	H	1.382753	-0.686689	0.837697
H162	H	1.716086	-0.353356	1.171031
Cl163	Cl	1.345807	-1.229782	0.419805
Cl164	Cl	1.679141	-0.896449	0.753138
Cl165	Cl	2.012474	-0.563116	1.086472
Cl166	Cl	1.063965	-1.205979	0.338705
Cl167	Cl	1.397298	-0.872646	0.672038
Cl168	Cl	1.730632	-0.539312	1.005372
H169	H	1.208935	-1.199856	0.325719
H170	H	1.542268	-0.866522	0.659052
H171	H	1.875601	-0.533189	0.992385
H172	H	1.209874	-1.018501	0.325700
H173	H	1.543207	-0.685168	0.659033
H174	H	1.876541	-0.351834	0.992367
Cl175	Cl	1.290327	-1.024886	0.591355
Cl176	Cl	1.623661	-0.691552	0.924689
Cl177	Cl	1.956994	-0.358219	1.258022
