data_functionalizedCrystal
_audit_creation_method	'MofGen! by Chris Wilmer'
_symmetry_space_group_name_H-M	'P1'
_symmetry_Int_Tables_number	1
_symmetry_cell_setting	triclinic
loop_
_symmetry_equiv_pos_as_xyz
  x,y,z
_cell_length_a	14.044220
_cell_length_b	14.519731
_cell_length_c	13.596369
_cell_angle_alpha	89.994584
_cell_angle_beta	90.004689
_cell_angle_gamma	91.561135
loop_
_atom_site_label
_atom_site_type_symbol
_atom_site_fract_x
_atom_site_fract_y
_atom_site_fract_z
O1	O	-0.124370	1.233888	-0.081792
O2	O	0.208964	1.567221	0.251542
O3	O	0.542297	1.900555	0.584875
O4	O	-0.138983	0.966592	-0.081793
O5	O	0.194350	1.299926	0.251540
O6	O	0.527684	1.633259	0.584874
O7	O	0.006315	1.096228	-0.081788
O8	O	0.339649	1.429561	0.251545
O9	O	0.672982	1.762895	0.584879
O10	O	-0.269668	1.104252	-0.081797
O11	O	0.063665	1.437586	0.251537
O12	O	0.396999	1.770919	0.584870
O13	O	0.006323	1.096213	0.081795
O14	O	0.339656	1.429547	0.415128
O15	O	0.672990	1.762880	0.748462
O16	O	-0.138975	0.966578	0.081790
O17	O	0.194358	1.299911	0.415123
O18	O	0.527691	1.633244	0.748457
O19	O	-0.124362	1.233873	0.081791
O20	O	0.208971	1.567207	0.415125
O21	O	0.542305	1.900540	0.748458
Zn22	Zn	-0.131667	1.100223	0.107763
Zn23	Zn	0.201666	1.433556	0.441096
Zn24	Zn	0.534999	1.766890	0.774430
Zn25	Zn	-0.131678	1.100242	-0.107765
Zn26	Zn	0.201656	1.433576	0.225569
Zn27	Zn	0.534989	1.766909	0.558902
O28	O	-0.269660	1.104238	0.081786
O29	O	0.063673	1.437571	0.415120
O30	O	0.397006	1.770904	0.748453
C31	C	-0.138295	0.932170	-0.000002
C32	C	0.195039	1.265504	0.333332
C33	C	0.528372	1.598837	0.666665
C34	C	-0.136243	0.829625	-0.000002
C35	C	0.197091	1.162958	0.333331
C36	C	0.530424	1.496291	0.666665
C37	C	-0.134575	0.746346	-0.000006
C38	C	0.198758	1.079679	0.333327
C39	C	0.532091	1.413013	0.666661
C40	C	-0.132492	0.641869	-0.000006
C41	C	0.200841	0.975203	0.333327
C42	C	0.534175	1.308536	0.666660
C43	C	-0.130839	0.558597	-0.000006
C44	C	0.202495	0.891930	0.333327
C45	C	0.535828	1.225263	0.666661
C46	C	-0.128756	0.454113	-0.000008
C47	C	0.204578	0.787447	0.333325
C48	C	0.537911	1.120780	0.666658
C49	C	-0.304985	1.107757	-0.000006
C50	C	0.028348	1.441091	0.333327
C51	C	0.361682	1.774424	0.666660
C52	C	-0.410229	1.118234	-0.000010
C53	C	-0.076896	1.451568	0.333324
C54	C	0.256437	1.784901	0.666657
C55	C	-0.602925	1.137389	-0.000005
C56	C	-0.269591	1.470722	0.333328
C57	C	0.063742	1.804055	0.666661
C58	C	-0.660426	1.063081	-0.000005
C59	C	-0.327093	1.396414	0.333329
C60	C	0.006241	1.729748	0.666662
C61	C	-0.767648	1.073739	-0.000002
C62	C	-0.434315	1.407072	0.333331
C63	C	-0.100982	1.740405	0.666664
C64	C	-0.495692	1.126732	-0.000008
C65	C	-0.162359	1.460066	0.333326
C66	C	0.170974	1.793399	0.666659
C67	C	0.041640	1.092708	0.000003
C68	C	0.374973	1.426042	0.333336
C69	C	0.708307	1.759375	0.666669
C70	C	0.146884	1.082231	-0.000000
C71	C	0.480218	1.415564	0.333333
C72	C	0.813551	1.748898	0.666666
C73	C	-0.125050	1.268295	-0.000002
C74	C	0.208283	1.601629	0.333331
C75	C	0.541616	1.934962	0.666665
C76	C	-0.127102	1.370841	-0.000008
C77	C	0.206231	1.704174	0.333325
C78	C	0.539564	2.037508	0.666659
N79	N	-0.131660	1.100217	0.254855
N80	N	0.201673	1.433550	0.588188
N81	N	0.535007	1.766883	0.921522
N82	N	-0.131678	1.100256	-0.254856
N83	N	0.201656	1.433589	0.078477
N84	N	0.534989	1.766922	0.411810
C85	C	-0.131679	1.100241	0.656146
C86	C	0.201655	1.433575	0.989479
C87	C	0.534988	1.766908	1.322812
C88	C	-0.131677	1.100232	0.544494
C89	C	0.201657	1.433565	0.877828
C90	C	0.534990	1.766899	1.211161
C91	C	-0.131670	1.100229	0.455504
C92	C	0.201663	1.433563	0.788837
C93	C	0.534997	1.766896	1.122171
C94	C	-0.131667	1.100219	0.343845
C95	C	0.201667	1.433552	0.677179
C96	C	0.535000	1.766886	1.010512
H97	H	-0.629128	0.991460	-0.000004
H98	H	-0.295795	1.324793	0.333329
H99	H	0.037539	1.658126	0.666662
O100	O	-0.644370	1.232257	0.000006
O101	O	-0.311037	1.565591	0.333339
O102	O	0.022296	1.898924	0.666673
H103	H	-0.723305	1.225845	0.000017
H104	H	-0.389971	1.559178	0.333351
H105	H	-0.056638	1.892511	0.666684
