data_functionalizedCrystal
_audit_creation_method	'MofGen! by Chris Wilmer'
_symmetry_space_group_name_H-M	'P1'
_symmetry_Int_Tables_number	1
_symmetry_cell_setting	triclinic
loop_
_symmetry_equiv_pos_as_xyz
  x,y,z
_cell_length_a	13.033293
_cell_length_b	13.032868
_cell_length_c	13.034296
_cell_angle_alpha	89.135208
_cell_angle_beta	76.645775
_cell_angle_gamma	74.808508
loop_
_atom_site_label
_atom_site_type_symbol
_atom_site_fract_x
_atom_site_fract_y
_atom_site_fract_z
Zn1	Zn	1.689338	0.097706	-0.818224
Zn2	Zn	2.189338	0.597706	-0.318224
Zn3	Zn	1.644043	0.297934	-0.663120
Zn4	Zn	2.144043	0.797934	-0.163120
Zn5	Zn	1.483375	0.148594	-0.623742
Zn6	Zn	1.983375	0.648594	-0.123742
Zn7	Zn	1.489069	0.297835	-0.818092
Zn8	Zn	1.989069	0.797835	-0.318092
O9	O	1.576456	0.210517	-0.730794
O10	O	2.076456	0.710517	-0.230794
O11	O	1.834382	0.103012	-0.814185
O12	O	2.334382	0.603012	-0.314185
O13	O	1.601390	0.299462	-0.511648
O14	O	2.101390	0.799462	-0.011648
O15	O	1.527270	-0.004410	-0.633116
O16	O	2.027270	0.495590	-0.133116
O17	O	1.801104	0.250119	-0.700230
O18	O	2.301104	0.750119	-0.200230
O19	O	1.678590	-0.041797	-0.776001
O20	O	2.178590	0.458203	-0.276001
O21	O	1.483349	0.189743	-0.482717
O22	O	1.983349	0.689743	0.017283
O23	O	1.333078	0.189646	-0.632987
O24	O	1.833078	0.689646	-0.132987
O25	O	1.536975	0.249949	-0.964357
O26	O	2.036975	0.749949	-0.464357
O27	O	1.337261	0.299293	-0.775775
O28	O	1.837261	0.799293	-0.275775
O29	O	1.684111	0.102916	-0.964455
O30	O	2.184111	0.602916	-0.464455
O31	O	1.606912	0.444175	-0.700102
O32	O	2.106912	0.944175	-0.200102
O33	O	1.493054	0.444102	-0.813959
O34	O	1.993054	0.944102	-0.313959
C35	C	1.296003	0.249982	-0.700094
C36	C	1.796003	0.749982	-0.200094
C37	C	1.176025	0.266886	-0.686989
C38	C	1.676025	0.766886	-0.186989
C39	C	1.139004	0.201721	-0.737637
C40	C	1.639004	0.701721	-0.237637
C41	C	1.015000	0.219191	-0.724093
C42	C	1.515000	0.719191	-0.224093
C43	C	1.545718	0.482053	-0.761315
C44	C	2.045718	0.982053	-0.261315
C45	C	1.532672	0.598198	-0.774418
C46	C	2.032672	1.098198	-0.274418
C47	C	1.583255	0.649966	-0.723979
C48	C	2.083255	1.149966	-0.223979
C49	C	1.569773	0.770008	-0.737520
C50	C	2.069773	1.270008	-0.237520
C51	C	1.858004	0.170900	-0.761615
C52	C	2.358004	0.670900	-0.261615
C53	C	1.977983	0.154017	-0.774749
C54	C	2.477983	0.654017	-0.274749
C55	C	1.607310	0.937921	-0.700165
C56	C	2.107310	1.437921	-0.200165
C57	C	1.620363	0.821773	-0.687074
C58	C	2.120363	1.321773	-0.187074
C59	C	1.616231	0.170745	-1.003387
C60	C	2.116231	0.670745	-0.503387
C61	C	1.633180	0.153796	-1.119549
C62	C	2.133180	0.653796	-0.619549
C63	C	1.567937	0.218989	-1.171290
C64	C	2.067937	0.718989	-0.671290
C65	C	1.585453	0.201474	-1.291350
C66	C	2.085453	0.701474	-0.791350
C67	C	1.536907	0.250051	-0.459261
C68	C	2.036907	0.750051	0.040739
C69	C	1.520200	0.266676	-0.343088
C70	C	2.020200	0.766676	0.156912
H71	H	0.954895	0.287917	-0.670697
H72	H	1.454895	0.787917	-0.170697
H73	H	1.499115	0.287774	-1.126704
H74	H	1.999115	0.787774	-0.626704
H75	H	1.702008	0.085018	-1.164137
H76	H	2.202008	0.585018	-0.664137
H77	H	1.199111	0.132995	-0.791023
H78	H	1.699111	0.632995	-0.291023
H79	H	1.636548	0.605417	-0.670775
H80	H	2.136548	1.105417	-0.170775
H81	H	1.451373	0.335466	-1.298508
H82	H	1.951373	0.835466	-0.798508
H83	H	1.516486	0.814553	-0.790736
H84	H	2.016486	1.314553	-0.290736
H85	H	1.115917	0.335607	-0.633597
H86	H	1.615917	0.835607	-0.133597
H87	H	1.654286	0.132690	-1.335934
H88	H	2.154286	0.632690	-0.835934
H89	H	1.038087	0.085284	-0.828137
H90	H	1.538087	0.585284	-0.328137
H91	H	1.479389	0.642748	-0.827630
H92	H	1.979389	1.142748	-0.327630
H93	H	1.673659	0.777227	-0.633867
H94	H	2.173659	1.277227	-0.133867
