data_functionalizedCrystal
_audit_creation_method	'MofGen! by Chris Wilmer'
_symmetry_space_group_name_H-M	'P1'
_symmetry_Int_Tables_number	1
_symmetry_cell_setting	triclinic
loop_
_symmetry_equiv_pos_as_xyz
  x,y,z
_cell_length_a	12.759401
_cell_length_b	21.295417
_cell_length_c	12.759401
_cell_angle_alpha	90.015514
_cell_angle_beta	90.006940
_cell_angle_gamma	90.032032
loop_
_atom_site_label
_atom_site_type_symbol
_atom_site_fract_x
_atom_site_fract_y
_atom_site_fract_z
Zn1	Zn	1.606006	-0.250693	0.593964
Zn2	Zn	1.605891	-0.355934	0.418261
Zn3	Zn	1.430347	-0.250685	0.418299
Zn4	Zn	1.430248	-0.355932	0.593898
O5	O	1.518123	-0.303311	0.506106
O6	O	1.753012	-0.264658	0.570668
O7	O	1.582599	-0.341970	0.271245
O8	O	1.453738	-0.162597	0.441645
O9	O	1.752927	-0.341978	0.441580
O10	O	1.582794	-0.162603	0.570705
O11	O	1.453627	-0.264645	0.271273
O12	O	1.283313	-0.264642	0.441581
O13	O	1.453569	-0.341974	0.740928
O14	O	1.283240	-0.341966	0.570593
O15	O	1.582697	-0.264656	0.740976
O16	O	1.582502	-0.444023	0.441516
O17	O	1.453458	-0.444021	0.570556
C18	C	1.245156	-0.303303	0.506085
C19	C	1.128379	-0.303315	0.506101
C20	C	1.073507	-0.343639	0.573171
C21	C	0.963783	-0.343641	0.573192
C22	C	0.963813	-0.262995	0.439063
C23	C	1.073535	-0.262989	0.439048
C24	C	0.813846	-0.366258	0.697048
C25	C	0.758970	-0.406592	0.764109
C26	C	0.794535	-0.468028	0.780043
C27	C	0.884975	-0.489143	0.728901
C28	C	0.939846	-0.448813	0.661832
C29	C	0.904282	-0.387368	0.645917
C30	C	1.223474	-0.240379	0.315191
C31	C	1.278346	-0.200052	0.248116
C32	C	1.242783	-0.138614	0.232171
C33	C	1.152340	-0.117501	0.283295
C34	C	1.097467	-0.157829	0.350370
C35	C	1.133038	-0.219266	0.366317
C36	C	1.517985	-0.466863	0.506048
C37	C	1.518023	-0.536831	0.506058
C38	C	1.585276	-0.569678	0.438936
C39	C	1.585325	-0.635420	0.438959
C40	C	1.518102	-0.668313	0.506094
C41	C	1.450844	-0.635459	0.573229
C42	C	1.450805	-0.569717	0.573211
N43	N	1.426193	-0.771582	0.514096
N44	N	1.426234	-0.834033	0.514107
C45	C	1.518220	-0.866388	0.506154
N46	N	1.610165	-0.833932	0.498169
N47	N	1.610123	-0.771475	0.498152
C48	C	1.518139	-0.739599	0.506122
C49	C	1.585532	-0.970520	0.439054
C50	C	1.585583	-1.036264	0.439085
C51	C	1.451093	-1.036301	0.573350
C52	C	1.451052	-0.970559	0.573324
C53	C	1.518270	-0.937672	0.506171
C54	C	1.792156	-0.303319	0.506127
C55	C	1.908933	-0.303323	0.506136
C56	C	1.518135	-0.303315	0.780139
C57	C	1.518140	-0.303317	0.896916
C58	C	1.518290	-0.139121	0.506187
C59	C	1.518361	-0.069153	0.506222
C60	C	1.585368	-0.263064	0.951804
C61	C	1.585359	-0.263063	1.061528
C62	C	1.450890	-0.343573	1.061465
C63	C	1.450894	-0.343571	0.951743
C64	C	1.622969	-0.188829	1.211523
C65	C	1.690214	-0.148581	1.266415
C66	C	1.792740	-0.138920	1.230826
C67	C	1.828042	-0.169515	1.140346
C68	C	1.760802	-0.209767	1.085459
C69	C	1.658262	-0.219417	1.121047
C70	C	1.413296	-0.417806	0.801747
C71	C	1.346061	-0.458062	0.746858
C72	C	1.243533	-0.467730	0.782445
C73	C	1.208235	-0.437145	0.872928
C74	C	1.275470	-0.396890	0.927817
C75	C	1.377997	-0.387221	0.892223
C76	C	1.518111	-0.303321	1.233138
C77	C	1.518126	-0.303318	1.116362
H78	H	0.913919	-0.539174	0.741871
H79	H	1.640011	-0.542903	0.384258
C80	C	1.378004	-0.387255	1.121184
C81	C	1.392409	-0.378655	1.229023
C82	C	1.325295	-0.418892	1.284066
H83	H	1.307381	-0.378079	1.103324
H84	H	1.393347	-0.429564	1.103242
H85	H	1.377059	-0.336356	1.246958
H86	H	1.463018	-0.387836	1.246915
H87	H	1.340637	-0.461201	1.266124
H88	H	1.254676	-0.409712	1.266197
H89	H	1.335066	-0.413066	1.357240
C90	C	0.904076	-0.219284	0.366303
C91	C	0.796241	-0.227929	0.380651
C92	C	0.741182	-0.187679	0.313632
H93	H	0.921970	-0.176978	0.381746
H94	H	0.921971	-0.228432	0.295658
H95	H	0.778353	-0.218777	0.451280
H96	H	0.778316	-0.270227	0.365200
H97	H	0.759077	-0.196827	0.242986
H98	H	0.759084	-0.145376	0.329080
H99	H	0.668010	-0.193544	0.323350
C100	C	1.799305	-0.243017	0.987334
C101	C	1.885392	-0.280853	1.012555
C102	C	1.920897	-0.311482	0.922181
H103	H	1.744686	-0.268416	0.959663
H104	H	1.819631	-0.212725	0.936595
H105	H	1.865063	-0.311142	1.063276
H106	H	1.940031	-0.255470	1.040213
H107	H	1.941224	-0.281190	0.871442
H108	H	1.866273	-0.336878	0.894517
H109	H	1.979317	-0.337153	0.939278
H110	H	1.023828	-0.140632	0.392005
C111	C	1.378151	-1.072119	0.646131
C112	C	1.392565	-1.136724	0.631768
C113	C	1.325382	-1.169742	0.698793
H114	H	1.393402	-1.061392	0.716774
H115	H	1.307542	-1.061427	0.630681
H116	H	1.463158	-1.147412	0.647225
H117	H	1.377306	-1.147470	0.561140
H118	H	1.254772	-1.159049	0.683343
H119	H	1.340639	-1.159009	0.769431
H120	H	1.335145	-1.213579	0.689050
C121	C	1.096864	-0.447696	0.911378
C122	C	1.045529	-0.489482	0.843928
C123	C	0.942928	-0.499214	0.879306
H124	H	1.098512	-0.464840	0.980078
H125	H	1.060432	-0.408805	0.912412
H126	H	1.081951	-0.528366	0.842905
H127	H	1.043851	-0.472350	0.775225
H128	H	0.906496	-0.460323	0.880339
H129	H	0.944588	-0.516356	0.948006
H130	H	0.908082	-0.527562	0.833541
C131	C	1.237063	-0.363795	1.026131
C132	C	1.207263	-0.408594	1.100708
C133	C	1.171866	-0.378131	1.191281
H134	H	1.291709	-0.338440	1.053858
H135	H	1.178601	-0.338103	1.009256
H136	H	1.265718	-0.434275	1.117584
H137	H	1.152607	-0.433952	1.073016
H138	H	1.113404	-0.352440	1.174405
H139	H	1.226518	-0.352777	1.218997
H140	H	1.151634	-0.408523	1.241888
C141	C	1.170676	-0.511440	0.722680
C142	C	1.223521	-0.536152	0.635813
C143	C	1.156435	-0.576411	0.580731
H144	H	1.149062	-0.544735	0.767255
H145	H	1.110938	-0.488685	0.699648
H146	H	1.283241	-0.558907	0.658846
H147	H	1.245133	-0.502872	0.591213
H148	H	1.096696	-0.553656	0.557699
H149	H	1.134824	-0.609702	0.625314
H150	H	1.192277	-0.593179	0.521780
H151	H	1.640355	-1.063007	0.384428
H152	H	1.911533	-0.161650	1.111382
H153	H	1.396283	-0.943813	0.627977
C154	C	1.133242	-0.387390	0.645864
C155	C	1.241078	-0.378769	0.631479
C156	C	1.296135	-0.419067	0.698420
H157	H	1.115411	-0.378284	0.716527
H158	H	1.115282	-0.429686	0.630351
H159	H	1.259031	-0.336484	0.647000
H160	H	1.258940	-0.387880	0.560830
H161	H	1.278175	-0.461362	0.682907
H162	H	1.278296	-0.409957	0.769079
H163	H	1.369307	-0.413227	0.688662
H164	H	1.013480	-0.466005	0.620192
H165	H	1.640121	-0.230286	0.907167
C166	C	1.865583	-0.095185	1.290550
C167	C	1.812723	-0.070456	1.377395
C168	C	1.879784	-0.030163	1.432438
H169	H	1.925335	-0.117900	1.313615
H170	H	1.887164	-0.061903	1.245912
H171	H	1.791157	-0.103734	1.422026
H172	H	1.752975	-0.047731	1.354361
H173	H	1.901365	0.003120	1.387800
H174	H	1.939534	-0.052882	1.455495
H175	H	1.843925	-0.013375	1.491363
H176	H	1.661462	-0.123670	1.340085
H177	H	1.396038	-0.542973	0.627871
H178	H	1.640269	-0.943743	0.384377
H179	H	1.123371	-0.067478	0.270296
H180	H	1.287465	-0.105782	0.177544
H181	H	1.539482	-0.196686	1.240503
H182	H	0.749847	-0.500868	0.834647
H183	H	1.496780	-0.409933	0.772757
H184	H	1.374813	-0.482971	0.673188
H185	H	0.685334	-0.389394	0.805750
C186	C	1.658381	-0.670979	0.365960
C187	C	1.717221	-0.628107	0.307130
C188	C	1.784518	-0.660838	0.239862
H189	H	1.704238	-0.696593	0.406074
H190	H	1.618255	-0.696643	0.320104
H191	H	1.757344	-0.602453	0.352980
H192	H	1.671392	-0.602491	0.266994
H193	H	1.744392	-0.686503	0.194005
H194	H	1.830368	-0.686452	0.279984
H195	H	1.824442	-0.631755	0.199931
C196	C	1.377898	-0.671282	0.646004
C197	C	1.392305	-0.735886	0.631633
C198	C	1.325117	-0.768905	0.698651
H199	H	1.393148	-0.660558	0.716648
H200	H	1.307290	-0.660586	0.630553
H201	H	1.462897	-0.746578	0.647091
H202	H	1.377048	-0.746628	0.561003
H203	H	1.254509	-0.758209	0.683200
H204	H	1.340372	-0.758176	0.769291
H205	H	1.334876	-0.812742	0.688903
C206	C	1.376424	-0.222968	0.192388
C207	C	1.361614	-0.219066	0.083855
C208	C	1.451931	-0.240173	0.032476
H209	H	1.434373	-0.197563	0.212128
H210	H	1.389776	-0.265346	0.211406
H211	H	1.348274	-0.176696	0.064844
H212	H	1.303681	-0.244473	0.064083
H213	H	1.465283	-0.282551	0.051494
H214	H	1.509874	-0.214765	0.052225
H215	H	1.441891	-0.237534	-0.041168
H216	H	0.784887	-0.316230	0.684091
H217	H	1.252445	-0.290405	0.328178
