data_functionalizedCrystal
_audit_creation_method	'MofGen! by Chris Wilmer'
_symmetry_space_group_name_H-M	'P1'
_symmetry_Int_Tables_number	1
_symmetry_cell_setting	triclinic
loop_
_symmetry_equiv_pos_as_xyz
  x,y,z
_cell_length_a	14.519709
_cell_length_b	19.188930
_cell_length_c	13.596369
_cell_angle_alpha	89.988893
_cell_angle_beta	90.000291
_cell_angle_gamma	83.412464
loop_
_atom_site_label
_atom_site_type_symbol
_atom_site_fract_x
_atom_site_fract_y
_atom_site_fract_z
O1	O	1.223300	0.091524	-0.081675
O2	O	0.954756	0.102302	-0.081706
O3	O	1.096778	-0.004715	-0.081670
O4	O	1.081278	0.198542	-0.081711
O5	O	1.096763	-0.004720	0.081912
O6	O	0.954742	0.102297	0.081877
O7	O	1.223286	0.091519	0.081908
Zn8	Zn	1.089012	0.096907	0.107865
Zn9	Zn	1.089030	0.096914	-0.107663
O10	O	1.081264	0.198536	0.081872
C11	C	0.920392	0.101797	0.000081
C12	C	0.818020	0.100292	0.000070
C13	C	0.443159	0.094751	0.000116
C14	C	0.547457	0.096290	0.000103
C15	C	0.630586	0.097521	0.000092
C16	C	0.734891	0.099060	0.000081
C17	C	1.096269	-0.030730	0.000124
C18	C	1.094762	-0.108240	0.000132
C19	C	1.178095	-0.152867	0.000146
C20	C	1.176680	-0.225696	0.000131
C21	C	1.091926	-0.253895	0.000120
C22	C	1.008582	-0.209257	0.000100
C23	C	1.009999	-0.136430	0.000106
N24	N	1.027137	-0.362132	0.055783
N25	N	1.025796	-0.431316	0.055779
C26	C	1.087649	-0.473318	0.000100
N27	N	1.150908	-0.443526	-0.055564
N28	N	1.152252	-0.374336	-0.055556
C29	C	1.090379	-0.332863	0.000113
C30	C	1.169454	-0.596916	0.000095
C31	C	1.168035	-0.669745	0.000073
C32	C	0.999934	-0.653305	0.000053
C33	C	1.001355	-0.580477	0.000065
C34	C	1.086118	-0.552287	0.000091
C35	C	1.257649	0.092024	0.000118
C36	C	1.360021	0.093529	0.000123
C37	C	1.081773	0.224551	0.000076
C38	C	1.083280	0.302061	0.000061
N39	N	1.089006	0.096901	0.254956
N40	N	1.089043	0.096914	-0.254755
C41	C	1.089029	0.096915	0.656247
C42	C	1.089020	0.096914	0.544596
C43	C	1.089018	0.096909	0.455605
C44	C	1.089008	0.096906	0.343947
H45	H	1.247116	-0.129920	0.000164
H46	H	0.930926	-0.676263	0.000039
O47	O	0.928960	-0.093175	0.000141
C48	C	0.853847	-0.133676	0.000097
H49	H	0.877470	-0.188006	0.031062
H50	H	0.827862	-0.138877	-0.078387
C51	C	0.745974	-0.030771	0.026210
C52	C	0.774986	-0.097498	0.064249
H53	H	0.697326	-0.008454	0.065778
H54	H	0.796578	-0.003484	0.026236
H55	H	0.724326	-0.035114	-0.039193
H56	H	0.796644	-0.093153	0.129646
H57	H	0.724383	-0.124784	0.064236
H58	H	1.238472	-0.573962	0.000112
O59	O	1.257574	-0.269127	0.000282
C60	C	1.261773	-0.311743	0.085016
H61	H	1.188581	-0.315519	0.113241
H62	H	1.303784	-0.287741	0.144353
C63	C	1.398375	-0.380982	0.024628
C64	C	1.308479	-0.385624	0.059289
H65	H	1.427190	-0.426554	0.008760
H66	H	1.395549	-0.352269	-0.032458
H67	H	1.433373	-0.360977	0.074081
H68	H	1.273480	-0.405620	0.009832
H69	H	1.311300	-0.414342	0.116366
O70	O	1.249075	-0.712999	0.000130
C71	C	1.324186	-0.672497	0.000131
H72	H	1.300552	-0.618180	0.031103
H73	H	1.350194	-0.667263	-0.078340
C74	C	1.432055	-0.775411	0.026257
C75	C	1.403029	-0.708699	0.064305
H76	H	1.480691	-0.797743	0.065838
H77	H	1.381452	-0.802699	0.026252
H78	H	1.453723	-0.771040	-0.039136
H79	H	1.381351	-0.713071	0.129691
H80	H	1.453630	-0.681412	0.064322
H81	H	0.933496	-0.544140	0.000058
H82	H	0.939574	-0.232221	0.000089
