data_functionalizedCrystal
_audit_creation_method	'MofGen! by Chris Wilmer'
_symmetry_space_group_name_H-M	'P1'
_symmetry_Int_Tables_number	1
_symmetry_cell_setting	triclinic
loop_
_symmetry_equiv_pos_as_xyz
  x,y,z
_cell_length_a	10.654550
_cell_length_b	19.188930
_cell_length_c	9.730223
_cell_angle_alpha	89.990488
_cell_angle_beta	89.999957
_cell_angle_gamma	83.814856
loop_
_atom_site_label
_atom_site_type_symbol
_atom_site_fract_x
_atom_site_fract_y
_atom_site_fract_z
O1	O	1.665764	0.098062	-0.114205
O2	O	1.300088	0.107404	-0.114232
O3	O	1.493479	0.001147	-0.114191
O4	O	1.472373	0.204320	-0.114246
O5	O	1.493466	0.001144	0.114389
O6	O	1.300076	0.107402	0.114348
O7	O	1.665752	0.098059	0.114375
Zn8	Zn	1.482912	0.102730	0.150654
Zn9	Zn	1.482928	0.102734	-0.150510
O10	O	1.472361	0.204317	0.114334
C11	C	1.253298	0.106717	0.000055
C12	C	1.113898	0.104665	0.000046
C13	C	1.033089	0.167228	0.000033
C14	C	0.902109	0.165295	0.000058
C15	C	0.932761	0.038231	0.000103
C16	C	1.063738	0.040164	0.000088
C17	C	1.492789	-0.024870	0.000103
C18	C	1.490737	-0.102388	0.000115
C19	C	1.604213	-0.146570	0.000130
C20	C	1.602285	-0.219407	0.000108
C21	C	1.486876	-0.248058	0.000098
C22	C	1.373386	-0.203866	0.000076
C23	C	1.375316	-0.131032	0.000084
N24	N	1.398655	-0.356641	0.077882
N25	N	1.396829	-0.425831	0.077877
C26	C	1.481052	-0.467505	0.000070
N27	N	1.567189	-0.437375	-0.077714
N28	N	1.569019	-0.368178	-0.077703
C29	C	1.484770	-0.327034	0.000088
C30	C	1.592445	-0.590665	0.000059
C31	C	1.590513	-0.663502	0.000028
C32	C	1.361610	-0.647960	0.000010
C33	C	1.363545	-0.575124	0.000027
C34	C	1.478966	-0.546481	0.000058
C35	C	1.712541	0.098746	0.000085
C36	C	1.851941	0.100799	0.000085
C37	C	1.473051	0.230334	0.000037
C38	C	1.475102	0.307852	0.000017
N39	N	1.482910	0.102727	0.356190
N40	N	1.482940	0.102731	-0.356047
C41	C	1.568572	0.055696	0.428134
C42	C	1.568584	0.055696	0.572017
C43	C	1.397269	0.149764	0.571999
C44	C	1.397251	0.149760	0.428119
H45	H	0.891904	-0.014283	0.000145
O46	O	1.651572	0.009947	0.358141
C47	C	1.584507	-0.033485	0.275016
H48	H	1.486114	-0.006160	0.253430
H49	H	1.636969	-0.044308	0.173849
H50	H	1.576208	-0.085107	0.330547
H51	H	1.073924	0.219748	0.000010
H52	H	1.694693	-0.255386	0.000114
H53	H	1.327529	0.188059	0.630578
O54	O	0.823790	0.226134	-0.000021
C55	C	0.896155	0.283474	-0.000023
H56	H	0.994008	0.266225	-0.043306
H57	H	0.847587	0.327348	-0.066398
H58	H	0.905387	0.303217	0.109628
O59	O	1.264998	-0.088181	-0.000106
C60	C	1.194924	-0.101223	-0.118517
H61	H	1.226064	-0.156309	-0.157995
H62	H	1.090157	-0.096609	-0.091903
H63	H	1.211883	-0.061296	-0.201403
O64	O	1.704478	-0.562751	-0.000112
C65	C	1.712455	-0.521083	-0.118503
H66	H	1.613377	-0.503423	-0.157972
H67	H	1.762246	-0.473155	-0.091866
H68	H	1.768193	-0.552974	-0.201404
O69	O	1.253198	-0.532302	0.000091
C70	C	1.150918	-0.573206	0.000044
H71	H	1.183091	-0.627408	0.043312
H72	H	1.071430	-0.546735	0.066405
H73	H	1.115527	-0.578549	-0.109621
H74	H	1.682922	-0.699475	0.000033
H75	H	1.129537	-0.010785	0.000102
O76	O	1.313915	0.195354	0.358160
C77	C	1.236671	0.157558	0.274935
H78	H	1.234860	0.102488	0.318327
H79	H	1.136703	0.185529	0.273294
H80	H	1.275986	0.154096	0.165890
O81	O	1.716439	-0.118863	0.000090
C82	C	1.816183	-0.173484	0.000135
H83	H	1.781257	-0.223120	-0.043150
H84	H	1.896793	-0.157868	-0.066214
H85	H	1.851154	-0.183631	0.109801
H86	H	1.279418	-0.227199	0.000065
O87	O	1.249610	-0.675899	0.000055
C88	C	1.272235	-0.749659	0.000007
H89	H	1.370324	-0.766291	0.043294
H90	H	1.198402	-0.772387	0.066352
H91	H	1.266275	-0.769945	-0.109661
O92	O	1.651921	0.009986	0.641690
C93	C	1.727492	-0.031538	0.547345
H94	H	1.728737	-0.002905	0.444771
H95	H	1.827840	-0.041668	0.588907
H96	H	1.687013	-0.083616	0.532067
