data_functionalizedCrystal
_audit_creation_method	'MofGen! by Chris Wilmer'
_symmetry_space_group_name_H-M	'P1'
_symmetry_Int_Tables_number	1
_symmetry_cell_setting	triclinic
loop_
_symmetry_equiv_pos_as_xyz
  x,y,z
_cell_length_a	14.971486
_cell_length_b	16.992695
_cell_length_c	13.448316
_cell_angle_alpha	89.993283
_cell_angle_beta	89.998199
_cell_angle_gamma	87.141176
loop_
_atom_site_label
_atom_site_type_symbol
_atom_site_fract_x
_atom_site_fract_y
_atom_site_fract_z
O1	O	1.194127	0.102190	-0.082578
O2	O	0.934587	0.114427	-0.082605
O3	O	1.063317	-0.005835	-0.082584
O4	O	1.065398	0.222452	-0.082599
O5	O	1.063299	-0.005843	0.082800
O6	O	0.934569	0.114420	0.082779
O7	O	1.194110	0.102182	0.082806
Cu8	Cu	1.064338	0.108300	0.097893
Cu9	Cu	1.064359	0.108309	-0.097692
O10	O	1.065380	0.222445	0.082785
C11	C	0.901215	0.113876	0.000083
C12	C	0.801803	0.112236	0.000073
C13	C	1.060631	-0.035054	0.000108
C14	C	1.052644	-0.122105	0.000107
C15	C	0.749541	0.182887	0.000070
C16	C	0.656133	0.181341	0.000085
C17	C	0.614988	0.109144	0.000096
C18	C	0.667257	0.038488	0.000102
C19	C	0.760663	0.040034	0.000095
C20	C	0.472568	0.035269	0.000116
C21	C	0.379155	0.033723	0.000122
C22	C	0.368038	0.176577	0.000106
C23	C	0.461445	0.178123	0.000099
C24	C	0.513707	0.107466	0.000103
C25	C	1.129708	-0.172274	0.000116
C26	C	1.122198	-0.254067	0.000106
C27	C	1.037623	-0.285691	0.000093
C28	C	0.960553	-0.235517	0.000081
C29	C	0.968064	-0.153724	0.000084
C30	C	1.006493	-0.529318	0.000076
C31	C	0.998988	-0.611117	0.000076
C32	C	1.160634	-0.629662	0.000099
C33	C	1.168138	-0.547867	0.000108
C34	C	1.091068	-0.497700	0.000090
N35	N	1.029945	-0.369297	0.000086
N36	N	1.098747	-0.414095	0.000091
C37	C	1.227482	0.102733	0.000115
C38	C	1.326894	0.104373	0.000119
C39	C	1.068066	0.251664	0.000091
C40	C	1.076053	0.338715	0.000085
N41	N	1.064329	0.108294	0.235457
N42	N	1.064374	0.108310	-0.235257
C43	C	1.121351	0.055064	0.287507
C44	C	1.121357	0.055063	0.391611
C45	C	1.064344	0.108297	0.443662
C46	C	1.007316	0.161530	0.391605
C47	C	1.007307	0.161526	0.287504
C48	C	1.007341	0.161535	0.608585
C49	C	1.007352	0.161540	0.712694
C50	C	1.121392	0.055072	0.712692
C51	C	1.121382	0.055068	0.608591
C52	C	1.064355	0.108302	0.556541
H53	H	0.783034	0.241679	0.000060
H54	H	0.960901	0.204881	0.566209
N55	N	1.259358	-0.513760	0.000127
H56	H	1.307040	-0.557954	0.000131
H57	H	1.266004	-0.480220	-0.061179
H58	H	0.930114	-0.636861	0.000082
N59	N	1.182869	-0.002347	0.552443
H60	H	1.224608	0.027678	0.509239
H61	H	1.218937	-0.036059	0.601272
H62	H	1.167781	0.011718	0.245134
N63	N	0.311707	0.252804	0.000176
H64	H	0.325519	0.284326	-0.061118
H65	H	0.246304	0.240837	0.000247
N66	N	1.182892	-0.002331	0.447736
H67	H	1.168643	-0.058009	0.429634
H68	H	1.246984	0.006892	0.429561
H69	H	0.960891	0.204871	0.433991
H70	H	1.167825	0.011727	0.755077
H71	H	1.223380	-0.670517	0.000111
N72	N	0.599765	0.257543	0.000193
H73	H	0.640003	0.303514	0.000216
H74	H	0.560718	0.260074	-0.061075
H75	H	0.943737	-0.488481	0.000063
N76	N	0.334777	-0.044147	0.000166
H77	H	0.267675	-0.034402	0.000171
H78	H	0.353524	-0.075081	-0.061132
N79	N	0.945800	0.218934	0.231359
H80	H	0.909684	0.252659	0.280128
H81	H	0.982512	0.253650	0.188150
H82	H	0.515117	-0.022267	0.000121
N83	N	0.945871	0.218962	0.768839
H84	H	0.909741	0.252683	0.720071
H85	H	0.904190	0.188888	0.812052
N86	N	0.622874	-0.039379	0.000126
H87	H	0.584366	-0.043205	-0.061178
H88	H	0.670206	-0.083859	0.000169
H89	H	0.494942	0.236912	0.000080
H90	H	1.198578	-0.146533	0.000132
N91	N	0.817035	-0.036167	0.000106
H92	H	0.776798	-0.082139	0.000113
H93	H	0.856033	-0.038638	-0.061204
H94	H	1.184952	-0.294912	0.000115
N95	N	0.869331	-0.269620	0.000062
H96	H	0.876265	-0.329048	0.000065
H97	H	0.835343	-0.251278	0.061367
H98	H	0.905310	-0.112878	0.000077
