data_functionalizedCrystal
_audit_creation_method	'MofGen! by Chris Wilmer'
_symmetry_space_group_name_H-M	'P1'
_symmetry_Int_Tables_number	1
_symmetry_cell_setting	triclinic
loop_
_symmetry_equiv_pos_as_xyz
  x,y,z
_cell_length_a	19.188930
_cell_length_b	14.853559
_cell_length_c	13.930277
_cell_angle_alpha	89.997639
_cell_angle_beta	89.978906
_cell_angle_gamma	83.388118
loop_
_atom_site_label
_atom_site_type_symbol
_atom_site_fract_x
_atom_site_fract_y
_atom_site_fract_z
O1	O	0.926520	0.112552	-0.080135
O2	O	1.426520	0.612552	0.419865
O3	O	0.723259	0.127704	-0.080069
O4	O	1.223259	0.627704	0.419931
O5	O	0.830322	-0.011132	-0.080103
O6	O	1.330322	0.488868	0.419897
O7	O	0.819457	0.251389	-0.080101
O8	O	1.319457	0.751389	0.419899
O9	O	0.830307	-0.011135	0.079559
O10	O	1.330307	0.488865	0.579559
O11	O	0.723244	0.127701	0.079593
O12	O	1.223244	0.627701	0.579593
O13	O	0.926505	0.112550	0.079527
O14	O	1.426505	0.612550	0.579527
Zn15	Zn	0.824873	0.120125	0.104910
Zn16	Zn	1.324873	0.620125	0.604910
Zn17	Zn	0.824892	0.120129	-0.105452
Zn18	Zn	1.324892	0.620129	0.394548
O19	O	0.819442	0.251386	0.079561
O20	O	1.319442	0.751386	0.579561
C21	C	0.697239	0.127212	-0.000229
C22	C	1.197239	0.627212	0.499771
C23	C	0.619730	0.125739	-0.000204
C24	C	1.119730	0.625739	0.499796
C25	C	0.829824	-0.044720	-0.000273
C26	C	1.329824	0.455280	0.499727
C27	C	0.828352	-0.144796	-0.000278
C28	C	1.328352	0.355204	0.499722
C29	C	0.822115	-0.567934	-0.087308
C30	C	1.322115	-0.067934	0.412692
C31	C	0.822098	-0.567932	0.086762
C32	C	1.322098	-0.067932	0.586762
C33	C	0.823487	-0.473907	0.086762
C34	C	1.323487	0.026093	0.586762
C35	C	0.824189	-0.426891	-0.000274
C36	C	1.324189	0.073109	0.499726
C37	C	0.823502	-0.473900	-0.087310
C38	C	1.323502	0.026100	0.412690
C39	C	0.824168	-0.426889	0.173797
C40	C	1.324168	0.073111	0.673797
C41	C	0.825556	-0.332858	0.173801
C42	C	1.325556	0.167142	0.673801
C43	C	0.826262	-0.285841	0.086764
C44	C	1.326262	0.214159	0.586764
C45	C	0.825576	-0.332856	-0.000276
C46	C	1.325576	0.167144	0.499724
C47	C	0.826277	-0.285840	-0.087312
C48	C	1.326277	0.214160	0.412688
C49	C	0.825596	-0.332854	-0.174353
C50	C	1.325596	0.167146	0.325647
C51	C	0.824208	-0.426883	-0.174347
C52	C	1.324208	0.073117	0.325653
C53	C	0.827650	-0.191812	0.086758
C54	C	1.327650	0.308188	0.586758
C55	C	0.827664	-0.191805	-0.087314
C56	C	1.327664	0.308195	0.412686
C57	C	0.575076	0.207204	-0.000219
C58	C	1.075076	0.707204	0.499781
C59	C	0.502247	0.205820	-0.000229
C60	C	1.002247	0.705820	0.499771
C61	C	0.474076	0.122967	-0.000244
C62	C	0.974076	0.622967	0.499756
C63	C	0.518740	0.041492	-0.000224
C64	C	1.018740	0.541492	0.499776
C65	C	0.591567	0.042878	-0.000204
C66	C	1.091567	0.542878	0.499796
N67	N	0.365891	0.059637	-0.054623
N68	N	0.865891	0.559637	0.445377
N69	N	0.296708	0.058326	-0.054645
N70	N	0.796708	0.558326	0.445355
C71	C	0.254654	0.118786	-0.000303
C72	C	0.754654	0.618786	0.499697
N73	N	0.284394	0.180620	0.054048
N74	N	0.784394	0.680620	0.554048
N75	N	0.353583	0.181934	0.054065
N76	N	0.853583	0.681934	0.554065
C77	C	0.395109	0.121455	-0.000266
C78	C	0.895109	0.621455	0.499734
C79	C	0.131030	0.198756	-0.000328
C80	C	0.631030	0.698756	0.499672
C81	C	0.058201	0.197368	-0.000332
C82	C	0.558201	0.697368	0.499668
C83	C	0.074696	0.033038	-0.000337
C84	C	0.574696	0.533038	0.499663
C85	C	0.147523	0.034427	-0.000323
C86	C	0.647523	0.534427	0.499677
C87	C	0.175686	0.117289	-0.000323
C88	C	0.675686	0.617289	0.499677
C89	C	0.952526	0.113042	-0.000315
C90	C	1.452526	0.613042	0.499685
C91	C	1.030035	0.114515	-0.000346
C92	C	1.530035	0.614515	0.499654
C93	C	0.819941	0.284973	-0.000271
C94	C	1.319941	0.784973	0.499729
C95	C	0.821413	0.385049	-0.000272
C96	C	1.321413	0.885049	0.499728
N97	N	0.824864	0.120122	0.248476
N98	N	1.324864	0.620122	0.748476
N99	N	0.824906	0.120125	-0.249018
N100	N	1.324906	0.620125	0.250982
C101	C	0.777483	0.181581	0.700760
C102	C	1.277483	0.681581	1.200760
C103	C	0.872321	0.058669	0.700699
C104	C	1.372321	0.558669	1.200699
C105	C	0.872312	0.058666	0.600204
C106	C	1.372312	0.558666	1.100204
C107	C	0.824889	0.120123	0.549982
C108	C	1.324889	0.620123	1.049982
C109	C	0.777474	0.181582	0.600255
C110	C	1.277474	0.681582	1.100255
C111	C	0.919731	-0.002786	0.549923
C112	C	1.419731	0.497214	1.049923
C113	C	0.919725	-0.002791	0.449421
C114	C	1.419725	0.497209	0.949421
C115	C	0.872298	0.058662	0.399197
C116	C	1.372298	0.558662	0.899197
C117	C	0.824881	0.120124	0.449477
C118	C	1.324881	0.620124	0.949477
C119	C	0.777458	0.181580	0.399254
C120	C	1.277458	0.681580	0.899254
C121	C	0.730036	0.243038	0.449532
C122	C	1.230036	0.743038	0.949532
C123	C	0.730047	0.243035	0.550031
C124	C	1.230047	0.743035	1.050031
C125	C	0.872287	0.058665	0.298698
C126	C	1.372287	0.558665	0.798698
C127	C	0.777449	0.181581	0.298749
C128	C	1.277449	0.681581	0.798749
H129	H	0.828239	-0.153532	-0.158191
H130	H	1.328239	0.346468	0.341809
Cl131	Cl	0.979336	-0.080052	0.386221
Cl132	Cl	1.479336	0.419948	0.886221
Cl133	Cl	0.002062	0.299791	-0.000346
Cl134	Cl	0.502062	0.799791	0.499654
H135	H	0.910900	0.008631	0.257766
H136	H	1.410900	0.508631	0.757766
H137	H	0.910935	0.008637	0.741594
H138	H	1.410935	0.508637	1.241594
H139	H	0.051760	-0.034423	-0.000409
H140	H	0.551760	0.465577	0.499591
Cl141	Cl	0.203663	-0.067992	-0.000311
Cl142	Cl	0.703663	0.432008	0.499689
Cl143	Cl	0.483326	-0.062667	-0.000238
Cl144	Cl	0.983326	0.437333	0.499762
Cl145	Cl	0.610476	0.311372	-0.000214
Cl146	Cl	1.110476	0.811372	0.499786
H147	H	0.465883	0.272160	-0.000238
H148	H	0.965883	0.772160	0.499762
Cl149	Cl	0.821204	-0.627037	0.196172
Cl150	Cl	1.321204	-0.127037	0.696172
H151	H	0.823593	-0.465176	0.244656
H152	H	1.323593	0.034824	0.744656
Cl153	Cl	0.717824	0.258841	0.235621
Cl154	Cl	1.217824	0.758841	0.735621
Cl155	Cl	0.828505	-0.132712	0.196171
Cl156	Cl	1.328505	0.367288	0.696171
Cl157	Cl	0.826481	-0.273737	-0.283765
Cl158	Cl	1.326481	0.226263	0.216235
H159	H	0.691427	0.293080	0.408630
H160	H	1.191427	0.793080	0.908630
H161	H	0.691439	0.293073	0.590974
H162	H	1.191439	0.793073	1.090974
Cl163	Cl	0.717867	0.258836	0.763961
Cl164	Cl	1.217867	0.758836	1.263961
H165	H	0.627925	-0.023463	-0.000193
H166	H	1.127925	0.476537	0.499807
Cl167	Cl	0.979351	-0.080037	0.613056
Cl168	Cl	1.479351	0.419963	1.113056
H169	H	0.823653	-0.465170	-0.245211
H170	H	1.323653	0.034830	0.254789
H171	H	0.821562	-0.606218	-0.158174
H172	H	1.321562	-0.106218	0.341826
H173	H	0.826113	-0.294587	0.244674
H174	H	1.326113	0.205413	0.744674
H175	H	0.153961	0.266226	-0.000314
H176	H	0.653961	0.766226	0.499686
