data_functionalizedCrystal
_audit_creation_method	'MofGen! by Chris Wilmer'
_symmetry_space_group_name_H-M	'P1'
_symmetry_Int_Tables_number	1
_symmetry_cell_setting	triclinic
loop_
_symmetry_equiv_pos_as_xyz
  x,y,z
_cell_length_a	16.109301
_cell_length_b	15.625429
_cell_length_c	15.186229
_cell_angle_alpha	71.919106
_cell_angle_beta	89.999006
_cell_angle_gamma	83.866959
loop_
_atom_site_label
_atom_site_type_symbol
_atom_site_fract_x
_atom_site_fract_y
_atom_site_fract_z
O1	O	1.103292	0.115880	-0.110177
O2	O	0.861250	0.130301	-0.114794
O3	O	0.988738	-0.008148	-0.070579
O4	O	0.975804	0.254328	-0.154392
O5	O	0.988729	-0.008150	0.075879
O6	O	0.861241	0.130299	0.031664
O7	O	1.103283	0.115878	0.036281
Zn8	Zn	0.982261	0.123088	0.057226
Zn9	Zn	0.982272	0.123090	-0.135739
O10	O	0.975795	0.254327	-0.007934
C11	C	0.830270	0.129715	-0.041380
C12	C	0.737972	0.127964	-0.040825
C13	C	0.429080	0.204391	-0.065215
C14	C	0.515803	0.206045	-0.065748
C15	C	0.535447	0.041781	-0.013307
C16	C	0.448726	0.040128	-0.012780
C17	C	0.395545	0.121436	-0.038731
C18	C	0.568988	0.124743	-0.039790
C19	C	0.663017	0.126535	-0.040368
C20	C	0.301510	0.119643	-0.038154
C21	C	0.988148	-0.041736	0.013373
C22	C	0.986394	-0.141815	0.045324
C23	C	0.980624	-0.470959	-0.248731
C24	C	0.978972	-0.564998	-0.218681
C25	C	0.978963	-0.564987	-0.059022
C26	C	0.980619	-0.470946	-0.089059
C27	C	0.981448	-0.423940	-0.183914
C28	C	0.981444	-0.423927	-0.024243
C29	C	0.983095	-0.329894	-0.054278
C30	C	0.983922	-0.282881	-0.149129
C31	C	0.983100	-0.329907	-0.213949
C32	C	0.980608	-0.470934	0.070612
C33	C	0.981433	-0.423915	0.135428
C34	C	0.983090	-0.329881	0.105394
C35	C	0.983918	-0.282868	0.010543
C36	C	0.983913	-0.282855	0.170214
C37	C	0.985564	-0.188822	0.140180
C38	C	0.985569	-0.188835	-0.019492
C39	C	1.134263	0.116463	-0.037135
C40	C	1.226561	0.118214	-0.037696
C41	C	0.976385	0.287915	-0.091888
C42	C	0.978139	0.387994	-0.123845
N43	N	0.982259	0.123086	0.188919
N44	N	0.982280	0.123086	-0.267430
C45	C	1.038730	0.061801	0.434214
C46	C	1.038733	0.061799	0.526404
C47	C	0.925803	0.184373	0.487268
C48	C	0.925797	0.184370	0.395081
C49	C	0.982265	0.123085	0.368556
C50	C	0.982274	0.123086	0.552933
C51	C	0.982276	0.123084	0.652890
C52	C	0.982262	0.123086	0.268593
H53	H	0.986252	-0.150560	-0.096732
N54	N	0.864912	0.250474	0.515886
H55	H	0.874558	0.314461	0.479404
H56	H	0.805920	0.239996	0.503179
N57	N	0.551971	0.295520	-0.094302
H58	H	0.614978	0.284234	-0.090702
H59	H	0.532521	0.331105	-0.159953
H60	H	0.421423	-0.027429	0.008785
N61	N	0.981496	-0.420188	-0.351026
H62	H	1.032700	-0.443830	-0.378413
H63	H	0.929669	-0.429222	-0.382972
H64	H	0.578758	-0.024417	0.007823
N65	N	1.099643	-0.004293	0.597216
H66	H	1.091079	0.005003	0.659644
H67	H	1.089971	-0.068253	0.601528
H68	H	0.983783	-0.291632	-0.291189
N69	N	0.978080	-0.615691	0.043282
H70	H	0.925901	-0.647385	0.056973
H71	H	1.028932	-0.661979	0.061561
H72	H	0.985258	-0.206312	-0.173582
N73	N	0.864890	0.250478	0.324263
H74	H	0.896701	0.290402	0.273258
H75	H	0.828053	0.215948	0.297098
H76	H	0.385781	0.270598	-0.086346
N77	N	0.978050	-0.615710	-0.288596
H78	H	0.978816	-0.571658	-0.353242
H79	H	1.028855	-0.662061	-0.277292
H80	H	0.979254	-0.547500	0.095063
H81	H	0.980754	-0.462200	0.212660
H82	H	0.983229	-0.321140	0.247445
N83	N	0.986449	-0.138099	0.210083
H84	H	0.985674	-0.182146	0.274731
H85	H	1.038632	-0.106407	0.203438
H86	H	1.084709	0.011898	0.412621
