data_functionalizedCrystal
_audit_creation_method	'MofGen! by Chris Wilmer'
_symmetry_space_group_name_H-M	'P1'
_symmetry_Int_Tables_number	1
_symmetry_cell_setting	triclinic
loop_
_symmetry_equiv_pos_as_xyz
  x,y,z
_cell_length_a	25.639242
_cell_length_b	25.639240
_cell_length_c	19.076919
_cell_angle_alpha	92.266161
_cell_angle_beta	87.727009
_cell_angle_gamma	89.961937
loop_
_atom_site_label
_atom_site_type_symbol
_atom_site_fract_x
_atom_site_fract_y
_atom_site_fract_z
Zn1	Zn	0.787342	0.220113	0.398079
Zn2	Zn	1.287342	0.720113	0.898079
Zn3	Zn	0.790768	0.304035	0.280377
Zn4	Zn	1.290768	0.804035	0.780377
Zn5	Zn	0.703427	0.216607	0.280383
Zn6	Zn	1.203427	0.716607	0.780383
Zn7	Zn	0.699859	0.307509	0.398015
Zn8	Zn	1.199859	0.807509	0.898015
O9	O	0.745349	0.262066	0.339214
O10	O	1.245349	0.762066	0.839214
O11	O	0.860961	0.231258	0.382491
O12	O	1.360961	0.731258	0.882491
O13	O	0.782108	0.289516	0.181890
O14	O	1.282108	0.789516	0.681890
O15	O	0.714618	0.143908	0.296024
O16	O	1.214618	0.643908	0.796024
O17	O	0.863478	0.292915	0.296016
O18	O	1.363478	0.792915	0.796016
O19	O	0.776271	0.146483	0.382496
O20	O	1.276271	0.646483	0.882496
O21	O	0.717940	0.225283	0.181894
O22	O	1.217940	0.725283	0.681894
O23	O	0.629789	0.228653	0.295962
O24	O	1.129789	0.728653	0.795962
O25	O	0.708537	0.298837	0.496511
O26	O	1.208537	0.798837	0.996511
O27	O	0.627168	0.295438	0.382386
O28	O	1.127168	0.795438	0.882386
O29	O	0.772811	0.234627	0.496559
O30	O	1.272811	0.734627	0.996559
O31	O	0.778648	0.377660	0.295953
O32	O	1.278648	0.877660	0.795953
O33	O	0.711858	0.380213	0.382381
O34	O	1.211858	0.880213	0.882381
C35	C	0.609508	0.262043	0.339168
C36	C	1.109508	0.762043	0.839168
C37	C	0.551394	0.262046	0.339165
C38	C	1.051394	0.762046	0.839165
C39	C	0.301553	0.227237	0.294290
C40	C	0.801553	0.727237	0.794290
C41	C	0.356157	0.227232	0.294282
C42	C	0.856157	0.727232	0.794282
O43	O	0.385545	0.197605	0.256088
O44	O	0.885545	0.697605	0.756088
N45	N	0.382119	0.262053	0.339200
N46	N	0.882119	0.762053	0.839200
C47	C	0.353473	0.296878	0.384136
C48	C	0.853473	0.796878	0.884136
O49	O	0.380569	0.326495	0.422342
O50	O	0.880569	0.826495	0.922342
C51	C	0.298869	0.296880	0.384148
C52	C	0.798869	0.796880	0.884148
C53	C	0.272911	0.262060	0.339221
C54	C	0.772911	0.762060	0.839221
C55	C	0.275594	0.192420	0.249368
C56	C	0.775594	0.692420	0.749368
C57	C	0.220994	0.192426	0.249376
C58	C	0.720994	0.692426	0.749376
C59	C	0.192351	0.227249	0.294307
C60	C	0.692351	0.727249	0.794307
C61	C	0.218310	0.262066	0.339229
C62	C	0.718310	0.762066	0.839229
C63	C	0.270224	0.331702	0.429086
C64	C	0.770224	0.831702	0.929086
C65	C	0.215616	0.331700	0.429095
C66	C	0.715616	0.831700	0.929095
C67	C	0.189658	0.296881	0.384168
C68	C	0.689658	0.796881	0.884168
C69	C	0.135067	0.296895	0.384168
C70	C	0.635067	0.796895	0.884168
N71	N	0.109105	0.262074	0.339249
N72	N	0.609105	0.762074	0.839249
C73	C	0.137748	0.227251	0.294319
C74	C	0.637748	0.727251	0.794319
C75	C	0.468144	0.296870	0.384108
C76	C	0.968144	0.796870	0.884108
C77	C	0.522747	0.296871	0.384093
C78	C	1.022747	0.796871	0.884093
C79	C	0.525428	0.227224	0.294240
C80	C	1.025428	0.727224	0.794240
C81	C	0.470824	0.227227	0.294252
C82	C	0.970824	0.727227	0.794252
C83	C	0.442183	0.262049	0.339189
C84	C	0.942183	0.762049	0.839189
C85	C	0.023082	0.227267	0.294339
C86	C	0.523082	0.727267	0.794339
C87	C	-0.031524	0.227277	0.294349
C88	C	0.468476	0.727277	0.794349
C89	C	-0.034200	0.296921	0.384205
C90	C	0.465800	0.796921	0.884205
C91	C	0.020401	0.296913	0.384193
C92	C	0.520401	0.796913	0.884193
C93	C	0.049041	0.262081	0.339257
C94	C	0.549041	0.762081	0.839257
O95	O	0.105645	0.326506	0.422344
O96	O	0.605645	0.826506	0.922344
O97	O	0.110644	0.197635	0.256125
O98	O	0.610644	0.697635	0.756125
C99	C	0.745252	0.397907	0.339175
C100	C	1.245252	0.897907	0.839175
C101	C	0.745257	0.456022	0.339182
C102	C	1.245257	0.956022	0.839182
C103	C	0.780169	0.815045	0.294260
C104	C	1.280169	1.315045	0.794260
C105	C	0.780185	0.869650	0.294267
C106	C	1.280185	1.369650	0.794267
O107	O	0.809800	0.896747	0.256052
O108	O	1.309800	1.396747	0.756052
N109	N	0.745391	0.898305	0.339229
N110	N	1.245391	1.398305	0.839229
C111	C	0.710582	0.872354	0.384193
C112	C	1.210582	1.372354	0.884193
O113	O	0.680989	0.901742	0.422437
O114	O	1.180989	1.401742	0.922437
C115	C	0.710569	0.817751	0.384189
C116	C	1.210569	1.317751	0.884189
C117	C	0.745362	0.789098	0.339219
C118	C	1.245362	1.289098	0.839219
C119	C	0.814960	0.786392	0.249295
C120	C	1.314960	1.286392	0.749295
C121	C	0.814943	0.731791	0.249287
C122	C	1.314943	1.231791	0.749287
C123	C	0.780136	0.705844	0.294245
C124	C	1.280136	1.205844	0.794245
C125	C	0.745345	0.734497	0.339211
C126	C	1.245345	1.234497	0.839211
C127	C	0.675763	0.791800	0.429155
C128	C	1.175763	1.291800	0.929155
C129	C	0.675754	0.737193	0.429148
C130	C	1.175754	1.237193	0.929148
C131	C	0.710547	0.708540	0.384178
C132	C	1.210547	1.208540	0.884178
C133	C	0.710522	0.653948	0.384162
C134	C	1.210522	1.153948	0.884162
N135	N	0.745316	0.625293	0.339200
N136	N	1.245316	1.125293	0.839200
C137	C	0.780123	0.651240	0.294242
C138	C	1.280123	1.151240	0.794242
C139	C	0.710612	0.987025	0.384198
C140	C	1.210612	1.487025	0.884198
C141	C	0.710622	1.041627	0.384199
C142	C	1.210622	1.541627	0.884199
C143	C	0.780226	1.038919	0.294274
C144	C	1.280226	1.538919	0.794274
C145	C	0.780213	0.984316	0.294270
C146	C	1.280213	1.484316	0.794270
C147	C	0.745406	0.958369	0.339236
C148	C	1.245406	1.458369	0.839236
C149	C	0.780085	0.536575	0.294229
C150	C	1.280085	1.036575	0.794229
C151	C	0.780064	0.481969	0.294223
C152	C	1.280064	0.981969	0.794223
C153	C	0.710463	0.484682	0.384150
C154	C	1.210463	0.984682	0.884150
C155	C	0.710482	0.539283	0.384153
C156	C	1.210482	1.039283	0.884153
C157	C	0.745297	0.565228	0.339190
C158	C	1.245297	1.065228	0.839190
O159	O	0.680924	0.626816	0.422360
O160	O	1.180924	1.126816	0.922360
O161	O	0.809716	0.621846	0.256010
O162	O	1.309716	1.121846	0.756010
C163	C	0.881721	0.262090	0.339260
C164	C	1.381721	0.762090	0.839260
C165	C	0.939834	0.262100	0.339280
C166	C	1.439834	0.762100	0.839280
C167	C	0.739894	0.267511	0.522786
C168	C	1.239894	0.767511	1.022786
C169	C	0.737569	0.269831	0.601014
C170	C	1.237569	0.769831	1.101014
C171	C	0.745441	1.125694	0.339256
C172	C	1.245441	1.625694	0.839256
C173	C	0.745431	1.067580	0.339242
C174	C	1.245431	1.567580	0.839242
C175	C	0.750813	0.256605	0.156355
C176	C	1.250813	0.756605	0.656355
C177	C	0.753239	0.254137	0.078128
C178	C	1.253239	0.754137	0.578128
C179	C	0.769939	0.237492	0.637791
C180	C	1.269939	0.737492	1.137791
C181	C	0.767748	0.239670	0.711294
C182	C	1.267748	0.739670	1.211294
C183	C	0.733190	0.274191	0.748019
C184	C	1.233190	0.774191	1.248019
C185	C	0.700816	0.306531	0.711236
C186	C	1.200816	0.806531	1.211236
C187	C	0.703005	0.304350	0.637735
C188	C	1.203005	0.804350	1.137735
C189	C	0.723054	0.284296	0.967843
C190	C	1.223054	0.784296	1.467843
C191	C	0.720869	0.286476	1.041350
C192	C	1.220869	0.786476	1.541350
C193	C	0.787801	0.219614	1.041403
C194	C	1.287801	0.719614	1.541403
C195	C	0.789988	0.217439	0.967900
C196	C	1.289988	0.717439	1.467900
C197	C	0.757613	0.249777	0.931124
C198	C	1.257613	0.749777	1.431124
N199	N	0.730951	0.276419	0.823151
N200	N	1.230951	0.776419	1.323151
N201	N	0.759849	0.247545	0.855993
N202	N	1.259849	0.747545	1.355993
H203	H	0.298909	0.164060	0.212780
H204	H	0.798909	0.664060	0.712780
H205	H	0.676640	0.330678	0.607791
H206	H	1.176640	0.830678	1.107791
O207	O	0.848859	0.811519	0.205652
O208	O	1.348859	1.311519	0.705652
C209	C	0.900486	0.798566	0.221141
C210	C	1.400486	1.298566	0.721141
H211	H	0.900710	0.759725	0.248222
H212	H	1.400710	1.259725	0.748222
H213	H	0.917021	0.830348	0.257336
H214	H	1.417021	1.330348	0.757336
C215	C	0.933968	0.841658	0.119322
C216	C	1.433968	1.341658	0.619322
C217	C	0.934243	0.793950	0.152578
C218	C	1.434243	1.293950	0.652578
H219	H	0.954792	0.838813	0.077031
H220	H	1.454792	1.338813	0.577031
H221	H	0.899186	0.850386	0.108888
H222	H	1.399186	1.350386	0.608888
H223	H	0.947746	0.868138	0.149493
H224	H	1.447746	1.368138	0.649493
H225	H	0.920459	0.767473	0.122412
H226	H	1.420459	1.267473	0.622412
H227	H	0.969023	0.785217	0.163006
H228	H	1.469023	1.285217	0.663006
O229	O	0.440270	0.330727	0.427659
O230	O	0.940270	0.830727	0.927659
C231	C	0.409856	0.363272	0.387513
C232	C	0.909856	0.863272	0.887513
H233	H	0.403248	0.343189	0.334227
H234	H	0.903248	0.843189	0.834227
H235	H	0.431111	0.401772	0.379674
H236	H	0.931111	0.901772	0.879674
C237	C	0.364964	0.398609	0.491678
C238	C	0.864964	0.898609	0.991678
C239	C	0.356844	0.373940	0.426233
C240	C	0.856844	0.873940	0.926233
H241	H	0.332264	0.405192	0.515562
H242	H	0.832264	0.905192	1.015562
H243	H	0.385455	0.376684	0.518726
H244	H	0.885455	0.876684	1.018726
H245	H	0.382678	0.430690	0.485135
H246	H	0.882678	0.930690	0.985135
H247	H	0.339136	0.341857	0.432776
H248	H	0.839136	0.841857	0.932776
H249	H	0.336348	0.395860	0.399187
H250	H	0.836348	0.895860	0.899187
O251	O	0.547986	0.330750	0.427630
O252	O	1.047986	0.830750	0.927630
C253	C	0.580745	0.363273	0.387477
C254	C	1.080745	0.863273	0.887477
H255	H	0.565924	0.364796	0.332038
H256	H	1.065924	0.864796	0.832038
H257	H	0.622208	0.347032	0.385091
H258	H	1.122208	0.847032	0.885091
C259	C	0.598742	0.416810	0.489819
C260	C	1.098742	0.916810	0.989819
C261	C	0.580536	0.418684	0.421729
C262	C	1.080536	0.918684	0.921729
H263	H	0.598615	0.450990	0.510948
H264	H	1.098615	0.950990	1.010948
H265	H	0.576673	0.394898	0.516871
H266	H	1.076673	0.894898	1.016871
H267	H	0.633293	0.403274	0.487821
H268	H	1.133293	0.903274	0.987821
H269	H	0.545983	0.432214	0.423728
H270	H	1.045983	0.932214	0.923728
H271	H	0.602599	0.440600	0.394678
H272	H	1.102599	0.940600	0.894678
H273	H	0.046394	0.198901	0.257752
H274	H	0.546394	0.698901	0.757752
O275	O	-0.056658	0.193401	0.250684
O276	O	0.443342	0.693401	0.750684
C277	C	-0.019663	0.162673	0.211017
C278	C	0.480337	0.662673	0.711017
H279	H	0.018411	0.161749	0.239845
H280	H	0.518411	0.661749	0.739845
H281	H	-0.012291	0.180170	0.157516
H282	H	0.487709	0.680170	0.657516
C283	C	-0.087408	0.107853	0.165606
C284	C	0.412592	0.607853	0.665606
C285	C	-0.040646	0.106716	0.201017
C286	C	0.459354	0.606716	0.701017
H287	H	-0.100351	0.073337	0.159435
H288	H	0.399649	0.573337	0.659435
H289	H	-0.112332	0.128556	0.192329
H290	H	0.387668	0.628556	0.692329
H291	H	-0.081258	0.122437	0.121026
H292	H	0.418742	0.622437	0.621026
H293	H	-0.046798	0.092139	0.245600
H294	H	0.453202	0.592139	0.745600
H295	H	-0.015723	0.086009	0.174302
H296	H	0.484277	0.586009	0.674302
H297	H	0.449693	0.198872	0.257671
H298	H	0.949693	0.698872	0.757671
H299	H	0.814158	0.193286	1.071354
H300	H	1.314158	0.693286	1.571354
O301	O	0.676744	0.961904	0.427897
O302	O	1.176744	1.461904	0.927897
C303	C	0.646049	0.998910	0.467590
C304	C	1.146049	1.498910	0.967590
H305	H	0.645128	1.036986	0.438757
H306	H	1.145128	1.536986	0.938757
H307	H	0.663575	1.006274	0.521070
H308	H	1.163575	1.506274	1.021070
C309	C	0.591222	0.931189	0.513065
C310	C	1.091222	1.431189	1.013065
C311	C	0.590086	0.977952	0.477649
C312	C	1.090086	1.477952	0.977649
H313	H	0.556702	0.918261	0.519274
H314	H	1.056702	1.418261	1.019274
H315	H	0.611902	0.906256	0.486325
H316	H	1.111902	1.406256	0.986325
H317	H	0.605829	0.937332	0.557628
H318	H	1.105829	1.437332	1.057628
H319	H	0.575486	0.971808	0.433084
H320	H	1.075486	1.471808	0.933084
H321	H	0.569402	1.002883	0.504382
H322	H	1.069402	1.502883	1.004382
H323	H	-0.057530	0.325275	0.420784
H324	H	0.442470	0.825275	0.920784
O325	O	0.553315	0.193465	0.250561
O326	O	1.053315	0.693465	0.750561
C327	C	0.586214	0.221827	0.205014
C328	C	1.086214	0.721827	0.705014
H329	H	0.593638	0.262213	0.229734
H330	H	1.093638	0.762213	0.729734
H331	H	0.566705	0.225960	0.152844
H332	H	1.066705	0.725960	0.652844
C333	C	0.629356	0.143066	0.161983
C334	C	1.129356	0.643066	0.661983
C335	C	0.638478	0.192667	0.192346
C336	C	1.138478	0.692667	0.692346
H337	H	0.661594	0.125078	0.154165
H338	H	1.161594	0.625078	0.654165
H339	H	0.607190	0.123957	0.192666
H340	H	1.107190	0.623957	0.692666
H341	H	0.613098	0.146518	0.118511
H342	H	1.113098	0.646518	0.618511
H343	H	0.654730	0.189214	0.235821
H344	H	1.154730	0.689214	0.735821
H345	H	0.660648	0.211774	0.161669
H346	H	1.160648	0.711774	0.661669
O347	O	0.187768	0.365456	0.472823
O348	O	0.687768	0.865456	0.972823
C349	C	0.154850	0.337093	0.518346
C350	C	0.654850	0.837093	1.018346
H351	H	0.171198	0.296049	0.522790
H352	H	0.671198	0.796049	1.022790
H353	H	0.114109	0.334627	0.496597
H354	H	0.614109	0.834627	0.996597
C355	C	0.131768	0.415297	0.585992
C356	C	0.631768	0.915297	1.085992
C357	C	0.151849	0.364887	0.591454
C358	C	0.651849	0.864887	1.091454
H359	H	0.129914	0.432443	0.631087
H360	H	0.629914	0.932443	1.131087
H361	H	0.153943	0.434406	0.555321
H362	H	0.653943	0.934406	1.055321
H363	H	0.097818	0.413235	0.567865
H364	H	0.597818	0.913235	1.067865
H365	H	0.185800	0.366950	0.609572
H366	H	0.685800	0.866950	1.109572
H367	H	0.129679	0.345779	0.622130
H368	H	0.629679	0.845779	1.122130
O369	O	0.813914	0.454216	0.250516
O370	O	1.313914	0.954216	0.750516
C371	C	0.844630	0.488832	0.210827
C372	C	1.344630	0.988832	0.710827
H373	H	0.845576	0.528599	0.239665
H374	H	1.345576	1.028599	0.739665
H375	H	0.827107	0.493088	0.157348
H376	H	1.327107	0.993088	0.657348
C377	C	0.899415	0.418332	0.165339
C378	C	1.399415	0.918332	0.665339
C379	C	0.900580	0.467174	0.200762
C380	C	1.400580	0.967174	0.700762
H381	H	0.933926	0.404972	0.159127
H382	H	1.433926	0.904972	0.659127
H383	H	0.878720	0.395010	0.192076
H384	H	1.378720	0.895010	0.692076
H385	H	0.884809	0.421886	0.120777
H386	H	1.384809	0.921886	0.620777
H387	H	0.915179	0.463618	0.245326
H388	H	1.415179	0.963618	0.745326
H389	H	0.921279	0.490494	0.174032
H390	H	1.421279	0.990494	0.674032
H391	H	0.808569	1.060056	0.257669
H392	H	1.308569	1.560056	0.757669
H393	H	0.672676	0.334636	0.741143
H394	H	1.172676	0.834636	1.241143
O395	O	0.641948	0.819547	0.472909
O396	O	1.141948	1.319547	0.972909
C397	C	0.611223	0.784924	0.512573
C398	C	1.111223	1.284924	1.012573
H399	H	0.632558	0.746056	0.515024
H400	H	1.132558	1.246056	1.015024
H401	H	0.572293	0.778394	0.486748
H402	H	1.072293	1.278394	0.986748
C403	C	0.575221	0.856171	0.584467
C404	C	1.075221	1.356171	1.084467
C405	C	0.601428	0.808433	0.587482
C406	C	1.101428	1.308433	1.087482
H407	H	0.569176	0.870673	0.630673
H408	H	1.069176	1.370673	1.130673
H409	H	0.595920	0.879498	0.557743
H410	H	1.095920	1.379498	1.057743
H411	H	0.542783	0.850723	0.562943
H412	H	1.042783	1.350723	1.062943
H413	H	0.633868	0.813884	0.608998
H414	H	1.133868	1.313884	1.108998
H415	H	0.580734	0.785109	0.614212
H416	H	1.080734	1.285109	1.114212
H417	H	0.647411	0.716070	0.465767
H418	H	1.147411	1.216070	0.965767
O419	O	0.691655	0.315783	0.932164
O420	O	1.191655	0.815783	1.432164
C421	C	0.702487	0.368429	0.950121
C422	C	1.202487	0.868429	1.450121
H423	H	0.743656	0.371684	0.970326
H424	H	1.243656	0.871684	1.470326
H425	H	0.673180	0.383348	0.992780
H426	H	1.173180	0.883348	1.492780
C427	C	0.647730	0.397388	0.859998
C428	C	1.147730	0.897388	1.359998
C429	C	0.698296	0.401386	0.884809
C430	C	1.198296	0.901386	1.384809
H431	H	0.645143	0.417718	0.819712
H432	H	1.145143	0.917718	1.319712
H433	H	0.640430	0.361919	0.847901
H434	H	1.140430	0.861919	1.347901
H435	H	0.623314	0.409820	0.895553
H436	H	1.123314	0.909820	1.395553
H437	H	0.722711	0.388948	0.849257
H438	H	1.222711	0.888948	1.349257
H439	H	0.705600	0.436853	0.896898
H440	H	1.205600	0.936853	1.396898
O441	O	0.813835	0.561834	0.250526
O442	O	1.313835	1.061834	0.750526
C443	C	0.785465	0.592105	0.205015
C444	C	1.285465	1.092105	0.705015
H445	H	0.745092	0.601053	0.229774
H446	H	1.245092	1.101053	0.729774
H447	H	0.781300	0.569538	0.152845
H448	H	1.281300	1.069538	0.652845
C449	C	0.864225	0.632581	0.161920
C450	C	1.364225	1.132581	0.661920
C451	C	0.814639	0.643574	0.192332
C452	C	1.314639	1.143574	0.692332
H453	H	0.882222	0.664328	0.154094
H454	H	1.382222	1.164328	0.654094
H455	H	0.883339	0.612185	0.192580
H456	H	1.383339	1.112185	0.692580
H457	H	0.860747	0.613773	0.118448
H458	H	1.360747	1.113773	0.618448
H459	H	0.818118	0.662376	0.235807
H460	H	1.318118	1.162376	0.735807
H461	H	0.795526	0.663975	0.161680
H462	H	1.295526	1.163975	0.661680
O463	O	0.676664	0.567041	0.427900
O464	O	1.176664	1.067041	0.927900
C465	C	0.645929	0.532426	0.467564
C466	C	1.145929	1.032426	0.967564
H467	H	0.667256	0.493553	0.470019
H468	H	1.167256	0.993553	0.970019
H469	H	0.607000	0.525904	0.441736
H470	H	1.107000	1.025904	0.941736
C471	C	0.609940	0.603683	0.539452
C472	C	1.109940	1.103683	1.039452
C473	C	0.636136	0.555939	0.542471
C474	C	1.136136	1.055939	1.042471
H475	H	0.603897	0.618187	0.585657
H476	H	1.103897	1.118187	1.085657
H477	H	0.630645	0.627004	0.512728
H478	H	1.130645	1.127004	1.012728
H479	H	0.577502	0.598241	0.517925
H480	H	1.077502	1.098241	1.017925
H481	H	0.668576	0.561382	0.563989
H482	H	1.168576	1.061382	1.063989
H483	H	0.615436	0.532619	0.569201
H484	H	1.115436	1.032619	1.069201
O485	O	0.814062	0.956564	0.250567
O486	O	1.314062	1.456564	0.750567
C487	C	0.844773	0.991182	0.210874
C488	C	1.344773	1.491182	0.710874
H489	H	0.845715	1.030950	0.239710
H490	H	1.345715	1.530950	0.739710
H491	H	0.827247	0.995435	0.157396
H492	H	1.327247	1.495435	0.657396
C493	C	0.899564	0.920687	0.165387
C494	C	1.399564	1.420687	0.665387
C495	C	0.900725	0.969530	0.200807
C496	C	1.400725	1.469530	0.700807
H497	H	0.934077	0.907331	0.159174
H498	H	1.434077	1.407331	0.659174
H499	H	0.878872	0.897364	0.192126
H500	H	1.378872	1.397364	0.692126
H501	H	0.884956	0.924238	0.120826
H502	H	1.384956	1.424238	0.620826
H503	H	0.915325	0.965978	0.245370
H504	H	1.415325	1.465978	0.745370
H505	H	0.921420	0.992852	0.174075
H506	H	1.421420	1.492852	0.674075
H507	H	0.818131	0.189330	0.938004
H508	H	1.318131	0.689330	1.438004
O509	O	0.676893	1.069516	0.427913
O510	O	1.176893	1.569516	0.927913
C511	C	0.705287	1.102397	0.473433
C512	C	1.205287	1.602397	0.973433
H513	H	0.745662	1.109818	0.448669
H514	H	1.245662	1.609818	0.948669
H515	H	0.709446	1.082876	0.525591
H516	H	1.209446	1.582876	1.025591
C517	C	0.626556	1.145549	0.516566
C518	C	1.126556	1.645549	1.016566
C519	C	0.676144	1.154666	0.486147
C520	C	1.176144	1.654666	0.986147
H521	H	0.608579	1.177790	0.524412
H522	H	1.108579	1.677790	1.024412
H523	H	0.607426	1.123395	0.485900
H524	H	1.107426	1.623395	0.985900
H525	H	0.630029	1.129280	0.560028
H526	H	1.130029	1.629280	1.060028
H527	H	0.672671	1.170929	0.442682
H528	H	1.172671	1.670929	0.942682
H529	H	0.695274	1.176825	0.516806
H530	H	1.195274	1.676825	1.016806
H531	H	0.199863	0.164072	0.212792
H532	H	0.699863	0.664072	0.712792
H533	H	0.692726	0.314588	1.071250
H534	H	1.192726	0.814588	1.571250
O535	O	0.803453	0.203884	0.602153
O536	O	1.303453	0.703884	1.102153
C537	C	0.791540	0.152308	0.620147
C538	C	1.291540	0.652308	1.120147
H539	H	0.749172	0.150262	0.640333
H540	H	1.249172	0.650262	1.140333
H541	H	0.818311	0.139913	0.662832
H542	H	1.318311	0.639913	1.162832
C543	C	0.851635	0.117988	0.530080
C544	C	1.351635	0.617988	1.030080
C545	C	0.799596	0.115474	0.554868
C546	C	1.299596	0.615474	1.054868
H547	H	0.856606	0.095266	0.489814
H548	H	1.356606	0.595266	0.989814
H549	H	0.859663	0.152735	0.517958
H550	H	1.359663	0.652735	1.017958
H551	H	0.873938	0.107660	0.565657
H552	H	1.373938	0.607660	1.065657
H553	H	0.777295	0.125808	0.519294
H554	H	1.277295	0.625808	1.019294
H555	H	0.791565	0.080727	0.566982
H556	H	1.291565	0.580727	1.066982
O557	O	0.799116	0.208197	0.747046
O558	O	1.299116	0.708197	1.247046
C559	C	0.768109	0.175689	0.789568
C560	C	1.268109	0.675689	1.289568
H561	H	0.727592	0.171802	0.767401
H562	H	1.227592	0.671802	1.267401
H563	H	0.764638	0.193499	0.845271
H564	H	1.264638	0.693499	1.345271
C565	C	0.843422	0.126146	0.817942
C566	C	1.343422	0.626146	1.317942
C567	C	0.793659	0.121368	0.790713
C568	C	1.293659	0.621368	1.290713
H569	H	0.859183	0.092639	0.818651
H570	H	1.359183	0.592639	1.318651
H571	H	0.864312	0.148048	0.789297
H572	H	1.364312	0.648048	1.289297
H573	H	0.840523	0.140990	0.864359
H574	H	1.340523	0.640990	1.364359
H575	H	0.796560	0.106531	0.744294
H576	H	1.296560	0.606531	1.244294
H577	H	0.772770	0.099462	0.819351
H578	H	1.272770	0.599462	1.319351
H579	H	0.041537	0.325270	0.420770
H580	H	0.541537	0.825270	0.920770
H581	H	0.291349	0.360056	0.465670
H582	H	0.791349	0.860056	0.965670
H583	H	0.843276	0.708465	0.212671
H584	H	1.343276	1.208465	0.712671
H585	H	0.682121	0.463547	0.420753
H586	H	1.182121	0.963547	0.920753
