data_functionalizedCrystal
_audit_creation_method	'MofGen! by Chris Wilmer'
_symmetry_space_group_name_H-M	'P1'
_symmetry_Int_Tables_number	1
_symmetry_cell_setting	triclinic
loop_
_symmetry_equiv_pos_as_xyz
  x,y,z
_cell_length_a	12.759401
_cell_length_b	13.897449
_cell_length_c	12.759399
_cell_angle_alpha	89.992101
_cell_angle_beta	89.984607
_cell_angle_gamma	90.001883
loop_
_atom_site_label
_atom_site_type_symbol
_atom_site_fract_x
_atom_site_fract_y
_atom_site_fract_z
Zn1	Zn	1.606080	0.545339	0.418446
Zn2	Zn	2.106080	1.045339	0.918446
Zn3	Zn	1.606024	0.384044	0.594091
Zn4	Zn	2.106024	0.884044	1.094091
Zn5	Zn	1.430433	0.384063	0.418428
Zn6	Zn	1.930433	0.884063	0.918428
Zn7	Zn	1.430369	0.545302	0.594085
Zn8	Zn	1.930369	1.045302	1.094085
O9	O	1.518226	0.464687	0.506262
O10	O	2.018226	0.964687	1.006262
O11	O	1.753093	0.523950	0.441756
O12	O	2.253093	1.023950	0.941756
O13	O	1.582735	0.249065	0.570784
O14	O	2.082735	0.749065	1.070784
O15	O	1.453783	0.405479	0.271409
O16	O	1.953783	0.905479	0.771409
O17	O	1.753052	0.405448	0.570802
O18	O	2.253052	0.905448	1.070802
O19	O	1.582830	0.523968	0.271423
O20	O	2.082830	1.023968	0.771423
O21	O	1.453728	0.249079	0.441725
O22	O	1.953728	0.749079	0.941725
O23	O	1.283403	0.405444	0.441719
O24	O	1.783403	0.905444	0.941719
O25	O	1.453674	0.680289	0.570791
O26	O	1.953674	1.180289	1.070791
O27	O	1.283356	0.523906	0.570773
O28	O	1.783356	1.023906	1.070773
O29	O	1.582768	0.680315	0.441750
O30	O	2.082768	1.180315	0.941750
O31	O	1.582673	0.405412	0.741111
O32	O	2.082673	0.905412	1.241111
O33	O	1.453620	0.523888	0.741107
O34	O	1.953620	1.023888	1.241107
C35	C	1.245259	0.464674	0.506244
C36	C	1.745259	0.964674	1.006244
C37	C	1.128482	0.464691	0.506261
C38	C	1.628482	0.964691	1.006261
C39	C	0.963892	0.526283	0.573578
C40	C	1.463892	1.026283	1.073578
C41	C	1.073616	0.526273	0.573566
C42	C	1.573616	1.026273	1.073566
C43	C	1.073618	0.403107	0.438971
C44	C	1.573618	0.903107	0.938971
C45	C	0.963896	0.403113	0.438989
C46	C	1.463896	0.903113	0.938989
C47	C	1.518220	0.716280	0.506272
C48	C	2.018220	1.216280	1.006272
C49	C	1.518218	0.823494	0.506276
C50	C	2.018218	1.323494	1.006276
C51	C	1.518215	0.910563	0.506280
C52	C	2.018215	1.410563	1.006280
C53	C	1.518214	1.019796	0.506275
C54	C	2.018214	1.519796	1.006275
C55	C	1.792259	0.464701	0.506282
C56	C	2.292259	0.964701	1.006282
C57	C	1.909036	0.464707	0.506290
C58	C	2.409036	0.964707	1.006290
C59	C	1.518162	0.464665	0.779230
C60	C	2.018162	0.964665	1.279230
C61	C	1.518230	0.464688	0.896006
C62	C	2.018230	0.964688	1.396006
C63	C	1.518222	1.214073	0.506275
C64	C	2.018222	1.714073	1.006275
C65	C	1.518219	1.106859	0.506265
C66	C	2.018219	1.606859	1.006265
C67	C	1.518320	0.464730	0.232229
C68	C	2.018320	0.964730	0.732229
C69	C	1.518359	0.464748	0.115453
C70	C	2.018359	0.964748	0.615453
C71	C	1.585505	0.403068	0.950836
C72	C	2.085505	0.903068	1.450836
C73	C	1.585572	0.403100	1.060560
C74	C	2.085572	0.903100	1.560560
C75	C	1.451082	0.526375	1.060615
C76	C	1.951082	1.026375	1.560615
C77	C	1.451020	0.526347	0.950893
C78	C	1.951020	1.026347	1.450893
H79	H	1.118299	0.352961	0.384175
H80	H	1.618299	0.852961	0.884175
H81	H	1.640233	0.352862	0.906150
H82	H	2.140233	0.852862	1.406150
H83	H	1.640355	0.352924	1.105198
H84	H	2.140355	0.852924	1.605198
O85	O	0.910713	0.586243	0.638903
O86	O	1.410713	1.086243	1.138903
C87	C	0.937519	0.682415	0.616086
C88	C	1.437519	1.182415	1.116086
H89	H	1.017191	0.684473	0.575692
H90	H	1.517191	1.184473	1.075692
H91	H	0.875778	0.714993	0.562134
H92	H	1.375778	1.214993	1.062134
C93	C	0.844727	0.738155	0.768221
C94	C	1.344727	1.238155	1.268221
C95	C	0.942585	0.740683	0.718616
C96	C	1.442585	1.240683	1.218616
H97	H	0.847847	0.774100	0.831464
H98	H	1.347847	1.274100	1.331464
H99	H	0.826663	0.673363	0.783591
H100	H	1.326663	1.173363	1.283591
H101	H	0.793286	0.765302	0.723250
H102	H	1.293286	1.265302	1.223250
H103	H	0.994021	0.713526	0.763581
H104	H	1.494021	1.213526	1.263581
H105	H	0.960657	0.805473	0.703255
H106	H	1.460657	1.305473	1.203255
H107	H	1.118275	0.576414	0.628359
H108	H	1.618275	1.076414	1.128359
O109	O	0.910764	0.343264	0.373522
O110	O	1.410764	0.843264	0.873522
C111	C	0.982711	0.288887	0.314128
C112	C	1.482711	0.788887	0.814128
H113	H	1.060930	0.328396	0.310540
H114	H	1.560930	0.828396	0.810540
H115	H	0.994369	0.215568	0.352474
H116	H	1.494369	0.715568	0.852474
C117	C	0.843822	0.226638	0.206703
C118	C	1.343822	0.726638	0.706703
C119	C	0.939889	0.275167	0.202289
C120	C	1.439889	0.775167	0.702289
H121	H	0.817407	0.218170	0.137717
H122	H	1.317407	0.718170	0.637717
H123	H	0.795349	0.263269	0.246720
H124	H	1.295349	0.763269	0.746720
H125	H	0.853550	0.165543	0.238663
H126	H	1.353550	0.665543	0.738663
H127	H	0.930158	0.336264	0.170342
H128	H	1.430158	0.836264	0.670342
H129	H	0.988360	0.238545	0.162264
H130	H	1.488360	0.738545	0.662264
H131	H	1.396360	0.576575	1.105317
H132	H	1.896360	1.076575	1.605317
H133	H	1.396237	0.576530	0.906248
H134	H	1.896237	1.076530	1.406248
