data_functionalizedCrystal
_audit_creation_method	'MofGen! by Chris Wilmer'
_symmetry_space_group_name_H-M	'P1'
_symmetry_Int_Tables_number	1
_symmetry_cell_setting	triclinic
loop_
_symmetry_equiv_pos_as_xyz
  x,y,z
_cell_length_a	11.169417
_cell_length_b	16.625539
_cell_length_c	11.169416
_cell_angle_alpha	89.976662
_cell_angle_beta	90.011398
_cell_angle_gamma	89.983071
loop_
_atom_site_label
_atom_site_type_symbol
_atom_site_fract_x
_atom_site_fract_y
_atom_site_fract_z
Zn1	Zn	1.834933	-0.455859	-0.477765
Zn2	Zn	2.334933	0.044141	0.022235
Zn3	Zn	1.834832	-0.321038	-0.678477
Zn4	Zn	2.334832	0.178962	-0.178477
Zn5	Zn	1.634228	-0.321048	-0.477811
Zn6	Zn	2.134228	0.178952	0.022189
Zn7	Zn	1.634227	-0.455836	-0.678409
Zn8	Zn	2.134227	0.044164	-0.178409
O9	O	1.734555	-0.388445	-0.578116
O10	O	2.234555	0.111555	-0.078116
O11	O	2.002870	-0.437980	-0.504399
O12	O	2.502870	0.062020	-0.004399
O13	O	1.808180	-0.208207	-0.651907
O14	O	2.308180	0.291793	-0.151907
O15	O	1.660895	-0.338945	-0.309856
O16	O	2.160895	0.161055	0.190144
O17	O	2.002795	-0.338927	-0.651862
O18	O	2.502795	0.161073	-0.151862
O19	O	1.808352	-0.437990	-0.309821
O20	O	2.308352	0.062010	0.190179
O21	O	1.660797	-0.208214	-0.504478
O22	O	2.160797	0.291786	-0.004478
O23	O	1.466278	-0.338923	-0.504412
O24	O	1.966278	0.161077	-0.004412
O25	O	1.660893	-0.568672	-0.651745
O26	O	2.160893	-0.068672	-0.151745
O27	O	1.466278	-0.437951	-0.651790
O28	O	1.966278	0.062049	-0.151790
O29	O	1.808351	-0.568688	-0.504333
O30	O	2.308351	-0.068688	-0.004333
O31	O	1.808179	-0.338905	-0.846418
O32	O	2.308179	0.161095	-0.346418
O33	O	1.660795	-0.437941	-0.846368
O34	O	2.160795	0.062059	-0.346368
C35	C	1.422731	-0.388436	-0.578100
C36	C	1.922731	0.111564	-0.078100
C37	C	1.289331	-0.388451	-0.578122
C38	C	1.789331	0.111549	-0.078122
C39	C	1.734633	-0.598754	-0.578026
C40	C	2.234633	-0.098754	-0.078026
C41	C	1.734667	-0.688375	-0.577988
C42	C	2.234667	-0.188375	-0.077988
C43	C	1.734722	-1.016551	-0.577854
C44	C	2.234722	-0.516551	-0.077854
C45	C	1.734703	-0.925243	-0.577895
C46	C	2.234703	-0.425243	-0.077895
C47	C	1.734695	-0.852466	-0.577922
C48	C	2.234695	-0.352466	-0.077922
C49	C	1.734675	-0.761152	-0.577961
C50	C	2.234675	-0.261152	-0.077961
C51	C	2.047598	-0.388455	-0.578133
C52	C	2.547598	0.111545	-0.078133
C53	C	2.180998	-0.388459	-0.578140
C54	C	2.680998	0.111541	-0.078140
C55	C	1.734509	-0.388437	-0.889940
C56	C	2.234509	0.111563	-0.389940
C57	C	1.734599	-0.388461	-1.023340
C58	C	2.234599	0.111539	-0.523340
C59	C	1.734547	-0.178954	-0.578118
C60	C	2.234547	0.321046	-0.078118
C61	C	1.734746	-0.089334	-0.577818
C62	C	2.234746	0.410666	-0.077818
C63	C	1.734635	-0.388471	-0.265073
C64	C	2.234635	0.111529	0.234927
C65	C	1.734669	-0.388482	-0.131673
C66	C	2.234669	0.111518	0.368327
