data_functionalizedCrystal
_audit_creation_method	'MofGen! by Chris Wilmer'
_symmetry_space_group_name_H-M	'P1'
_symmetry_Int_Tables_number	1
_symmetry_cell_setting	triclinic
loop_
_symmetry_equiv_pos_as_xyz
  x,y,z
_cell_length_a	16.625548
_cell_length_b	12.645330
_cell_length_c	16.625539
_cell_angle_alpha	90.026386
_cell_angle_beta	90.020568
_cell_angle_gamma	90.013714
loop_
_atom_site_label
_atom_site_type_symbol
_atom_site_fract_x
_atom_site_fract_y
_atom_site_fract_z
Zn1	Zn	1.232735	-0.422007	0.455920
Zn2	Zn	1.232662	-0.599293	0.321092
Zn3	Zn	1.097897	-0.422048	0.321101
Zn4	Zn	1.097891	-0.599232	0.455882
O5	O	1.165296	-0.510645	0.388499
O6	O	1.345558	-0.445533	0.438047
O7	O	1.214757	-0.575824	0.208261
O8	O	1.115817	-0.273695	0.339004
O9	O	1.345504	-0.575784	0.338990
O10	O	1.214882	-0.273665	0.438056
O11	O	1.115746	-0.445602	0.208267
O12	O	0.985064	-0.445543	0.338967
O13	O	1.115806	-0.575681	0.568719
O14	O	0.985059	-0.575720	0.437990
O15	O	1.214876	-0.445474	0.568747
O16	O	1.214751	-0.747632	0.338952
O17	O	1.115735	-0.747588	0.437982
C18	C	0.955806	-0.510630	0.388476
C19	C	0.866184	-0.510649	0.388486
C20	C	0.538009	-0.510656	0.388520
C21	C	0.629317	-0.510651	0.388508
C22	C	0.702094	-0.510653	0.388502
C23	C	0.793408	-0.510647	0.388491
C24	C	1.165256	-0.786075	0.388480
C25	C	1.165312	-0.903905	0.388498
C26	C	1.227503	-1.071453	0.326072
C27	C	1.227706	-0.948893	0.326225
C28	C	1.188356	-0.948288	0.473491
C29	C	1.188849	-1.070886	0.473160
C30	C	1.080054	-1.071234	0.366769
C31	C	1.080463	-0.948630	0.364863
C32	C	1.375605	-0.510661	0.388522
C33	C	1.465226	-0.510668	0.388532
C34	C	1.165349	-0.510566	0.598808
C35	C	1.165371	-0.510532	0.688429
C36	C	1.165359	-0.234140	0.388535
C37	C	1.165386	-0.116310	0.388551
C38	C	1.165291	-0.510647	0.179008
C39	C	1.165424	-0.510382	0.089387
C40	C	1.165408	-0.510414	1.016605
C41	C	1.165396	-0.510450	0.925296
C42	C	1.165390	-0.510474	0.852520
C43	C	1.165377	-0.510509	0.761205
H44	H	1.213289	-0.918889	0.263205
H45	H	1.031683	-0.918017	0.407033
C46	C	1.208357	-1.111517	0.240706
H47	H	1.162303	-1.155950	0.242399
H48	H	1.198045	-1.052981	0.206432
H49	H	1.252931	-1.150398	0.220632
H50	H	1.290366	-1.102182	0.340318
H51	H	1.033771	-1.100244	0.412275
C52	C	1.313083	-0.909155	0.345693
H53	H	1.347776	-0.967940	0.353547
H54	H	1.332415	-0.867466	0.302289
H55	H	1.311732	-0.867556	0.393269
H56	H	1.063088	-0.919632	0.302316
H57	H	1.251222	-1.099397	0.491610
C58	C	1.130396	-1.110973	0.538198
H59	H	1.106458	-1.052328	0.564709
H60	H	1.089650	-1.152784	0.513804
H61	H	1.159031	-1.152521	0.576220
H62	H	1.144489	-0.919144	0.521290
H63	H	1.250024	-0.917498	0.492249
C64	C	1.051747	-1.113111	0.284500
H65	H	1.091711	-1.158480	0.262664
H66	H	1.002996	-1.151339	0.291040
H67	H	1.043091	-1.055340	0.249031
