data_functionalizedCrystal
_audit_creation_method	'MofGen! by Chris Wilmer'
_symmetry_space_group_name_H-M	'P1'
_symmetry_Int_Tables_number	1
_symmetry_cell_setting	triclinic
loop_
_symmetry_equiv_pos_as_xyz
  x,y,z
_cell_length_a	11.026607
_cell_length_b	10.868271
_cell_length_c	10.967829
_cell_angle_alpha	102.133011
_cell_angle_beta	96.380563
_cell_angle_gamma	90.003487
loop_
_atom_site_label
_atom_site_type_symbol
_atom_site_fract_x
_atom_site_fract_y
_atom_site_fract_z
O1	O	1.614528	0.213326	0.523517
O2	O	1.260725	0.200688	0.463904
O3	O	1.445785	0.168874	0.313892
O4	O	1.429468	0.245140	0.673529
O5	O	1.445770	-0.035773	0.313881
O6	O	1.260709	-0.003959	0.463893
O7	O	1.614513	0.008679	0.523506
Zn8	Zn	1.437609	-0.030132	0.493698
Zn9	Zn	1.437629	0.239499	0.493712
O10	O	1.429452	0.040493	0.673518
C11	C	1.215415	0.096033	0.452901
C12	C	1.080427	0.089082	0.420117
N13	N	1.437604	-0.214148	0.493689
C14	C	1.007376	0.108279	0.510639
C15	C	0.867860	0.101096	0.476758
C16	C	1.437622	-0.465150	0.493708
C17	C	1.437608	-0.325474	0.493700
C18	C	1.659823	0.113337	0.534509
C19	C	1.794810	0.120296	0.567293
C20	C	1.444589	0.056637	0.267130
C21	C	1.441033	0.027100	0.127806
N22	N	1.437643	0.423513	0.493713
C23	C	1.439456	0.119945	0.065703
C24	C	1.435781	0.089419	-0.078296
C25	C	1.430649	0.152732	0.720280
C26	C	1.434204	0.182278	0.859604
H27	H	0.827118	0.079372	0.374168
C28	C	1.025400	0.059693	0.281533
H29	H	1.089324	0.048572	0.229134
H30	H	0.976474	0.127545	0.264983
H31	H	0.976471	-0.015193	0.264980
C32	C	1.441309	0.257860	0.137880
H33	H	1.443545	0.260284	0.225196
H34	H	1.369995	0.297840	0.110109
H35	H	1.511552	0.300537	0.122876
H36	H	1.434403	-0.012676	-0.131729
C37	C	1.439178	-0.110817	0.055634
H38	H	1.440635	-0.165109	0.113269
H39	H	1.508645	-0.124868	0.010939
H40	H	1.367088	-0.127566	-0.001818
C41	C	1.062409	0.137669	0.649221
H42	H	1.148961	0.138650	0.653813
H43	H	1.036108	0.074886	0.689673
H44	H	1.036121	0.217623	0.689671
H45	H	0.835550	0.142043	0.669882
C46	C	1.436064	0.320200	-0.068226
H47	H	1.438302	0.322628	0.019091
H48	H	1.364753	0.360185	-0.095995
H49	H	1.506310	0.362871	-0.083233
