data_functionalizedCrystal
_audit_creation_method	'MofGen! by Chris Wilmer'
_symmetry_space_group_name_H-M	'P1'
_symmetry_Int_Tables_number	1
_symmetry_cell_setting	triclinic
loop_
_symmetry_equiv_pos_as_xyz
  x,y,z
_cell_length_a	12.827893
_cell_length_b	18.050589
_cell_length_c	12.827885
_cell_angle_alpha	90.029551
_cell_angle_beta	90.019462
_cell_angle_gamma	90.028191
loop_
_atom_site_label
_atom_site_type_symbol
_atom_site_fract_x
_atom_site_fract_y
_atom_site_fract_z
Zn1	Zn	1.597578	-0.295624	0.590850
Zn2	Zn	1.847578	-0.045624	0.840850
Zn3	Zn	2.097578	0.204376	1.090850
Zn4	Zn	2.347578	0.454376	1.340850
Zn5	Zn	1.597433	-0.419832	0.416111
Zn6	Zn	1.847433	-0.169832	0.666111
Zn7	Zn	2.097433	0.080168	0.916111
Zn8	Zn	2.347433	0.330168	1.166111
Zn9	Zn	1.422819	-0.295660	0.416124
Zn10	Zn	1.672819	-0.045660	0.666124
Zn11	Zn	1.922819	0.204340	0.916124
Zn12	Zn	2.172819	0.454340	1.166124
Zn13	Zn	1.422766	-0.419777	0.590811
Zn14	Zn	1.672766	-0.169777	0.840811
Zn15	Zn	1.922766	0.080223	1.090811
Zn16	Zn	2.172766	0.330223	1.340811
O17	O	1.510149	-0.357723	0.503474
O18	O	1.760149	-0.107723	0.753474
O19	O	2.010149	0.142277	1.003474
O20	O	2.260149	0.392277	1.253474
O21	O	1.743795	-0.312109	0.567682
O22	O	1.993795	-0.062109	0.817682
O23	O	2.243795	0.187891	1.067682
O24	O	2.493795	0.437891	1.317682
O25	O	1.574231	-0.403399	0.269877
O26	O	1.824231	-0.153399	0.519877
O27	O	2.074231	0.096601	0.769877
O28	O	2.324231	0.346601	1.019877
O29	O	1.446085	-0.191731	0.439323
O30	O	1.696085	0.058269	0.689323
O31	O	1.946085	0.308269	0.939323
O32	O	2.196085	0.558269	1.189323
O33	O	1.743688	-0.403364	0.439302
O34	O	1.993688	-0.153364	0.689302
O35	O	2.243688	0.096636	0.939302
O36	O	2.493688	0.346636	1.189302
O37	O	1.574479	-0.191704	0.567694
O38	O	1.824479	0.058296	0.817694
O39	O	2.074479	0.308296	1.067694
O40	O	2.324479	0.558296	1.317694
O41	O	1.445943	-0.312170	0.269886
O42	O	1.695943	-0.062170	0.519886
O43	O	1.945943	0.187830	0.769886
O44	O	2.195943	0.437830	1.019886
O45	O	1.276576	-0.312117	0.439286
O46	O	1.526576	-0.062117	0.689286
O47	O	1.776576	0.187883	0.939286
O48	O	2.026576	0.437883	1.189286
O49	O	1.445994	-0.403269	0.737053
O50	O	1.695994	-0.153269	0.987053
O51	O	1.945994	0.096731	1.237053
O52	O	2.195994	0.346731	1.487053
O53	O	1.276537	-0.403304	0.567628
O54	O	1.526537	-0.153304	0.817628
O55	O	1.776537	0.096696	1.067628
O56	O	2.026537	0.346696	1.317628
O57	O	1.574428	-0.312055	0.737081
O58	O	1.824428	-0.062055	0.987081
O59	O	2.074428	0.187945	1.237081
O60	O	2.324428	0.437945	1.487081
O61	O	1.574180	-0.523749	0.439264
O62	O	1.824180	-0.273749	0.689264
O63	O	2.074180	-0.023749	0.939264
O64	O	2.324180	0.226251	1.189264
O65	O	1.445853	-0.523709	0.567615
O66	O	1.695853	-0.273709	0.817615
O67	O	1.945853	-0.023709	1.067615
O68	O	2.195853	0.226291	1.317615
C69	C	1.238639	-0.357709	0.503454
C70	C	1.488639	-0.107709	0.753454
C71	C	1.738639	0.142291	1.003454
C72	C	1.988639	0.392291	1.253454
C73	C	1.122486	-0.357721	0.503471
C74	C	1.372486	-0.107721	0.753471
C75	C	1.622486	0.142279	1.003471
C76	C	1.872486	0.392279	1.253471
C77	C	1.070710	-0.402914	0.566880
C78	C	1.320710	-0.152914	0.816880
C79	C	1.570710	0.097086	1.066880
C80	C	1.820710	0.347086	1.316880
C81	C	0.950659	-0.402927	0.566899
C82	C	1.200659	-0.152927	0.816899
C83	C	1.450659	0.097073	1.066899
C84	C	1.700659	0.347073	1.316899
C85	C	1.510023	-0.550675	0.503457
C86	C	1.760023	-0.300675	0.753457
C87	C	2.010023	-0.050675	1.003457
C88	C	2.260023	0.199325	1.253457
C89	C	1.510065	-0.633221	0.503484
C90	C	1.760065	-0.383221	0.753484
C91	C	2.010065	-0.133221	1.003484
C92	C	2.260065	0.116779	1.253484
C93	C	1.440349	-0.832677	0.573257
C94	C	1.690349	-0.582677	0.823257
C95	C	1.940349	-0.332677	1.073257
C96	C	2.190349	-0.082677	1.323257
C97	C	1.414872	-0.882124	0.477900
C98	C	1.664872	-0.632124	0.727900
C99	C	1.914872	-0.382124	0.977900
C100	C	2.164872	-0.132124	1.227900
C101	C	1.510167	-0.784351	0.503498
C102	C	1.760167	-0.534351	0.753498
C103	C	2.010167	-0.284351	1.003498
C104	C	2.260167	-0.034351	1.253498
C105	C	1.535696	-0.881986	0.598866
C106	C	1.785696	-0.631986	0.848866
C107	C	2.035696	-0.381986	1.098866
C108	C	2.285696	-0.131986	1.348866
C109	C	1.510264	-0.930337	0.503520
C110	C	1.760264	-0.680337	0.753520
C111	C	2.010264	-0.430337	1.003520
C112	C	2.260264	-0.180337	1.253520
C113	C	1.484640	-0.832712	0.408091
C114	C	1.734640	-0.582712	0.658091
C115	C	1.984640	-0.332712	0.908091
C116	C	2.234640	-0.082712	1.158091
C117	C	1.605508	-0.832569	0.529120
C118	C	1.855508	-0.582569	0.779120
C119	C	2.105508	-0.332569	1.029120
C120	C	2.355508	-0.082569	1.279120
C121	C	1.580067	-0.881994	0.433698
C122	C	1.830067	-0.631994	0.683698
C123	C	2.080067	-0.381994	0.933698
C124	C	2.330067	-0.131994	1.183698
C125	C	1.510109	-0.700253	0.503487
C126	C	1.760109	-0.450253	0.753487
C127	C	2.010109	-0.200253	1.003487
C128	C	2.260109	0.049747	1.253487
C129	C	1.510323	-1.014433	0.503520
C130	C	1.760323	-0.764433	0.753520
C131	C	2.010323	-0.514433	1.003520
C132	C	2.260323	-0.264433	1.253520
C133	C	1.782719	-0.357738	0.503495
C134	C	2.032719	-0.107738	0.753495
C135	C	2.282719	0.142262	1.003495
C136	C	2.532719	0.392262	1.253495
C137	C	1.898872	-0.357745	0.503504
C138	C	2.148872	-0.107745	0.753504
C139	C	2.398872	0.142255	1.003504
C140	C	2.648872	0.392255	1.253504
C141	C	1.510221	-0.357652	0.776045
C142	C	1.760221	-0.107652	1.026045
C143	C	2.010221	0.142348	1.276045
C144	C	2.260221	0.392348	1.526045
C145	C	1.510252	-0.357622	0.892198
C146	C	1.760252	-0.107622	1.142198
C147	C	2.010252	0.142378	1.392198
C148	C	2.260252	0.392378	1.642198
C149	C	1.510304	-0.164018	0.503515
C150	C	1.760304	0.085982	0.753515
C151	C	2.010304	0.335982	1.003515
C152	C	2.260304	0.585982	1.253515
C153	C	1.510370	-0.081472	0.503532
C154	C	1.760370	0.168528	0.753532
C155	C	2.010370	0.418528	1.003532
C156	C	2.260370	0.668528	1.253532
C157	C	1.510137	-0.357741	0.231964
C158	C	1.760137	-0.107741	0.481964
C159	C	2.010137	0.142259	0.731964
C160	C	2.260137	0.392259	0.981964
C161	C	1.510309	-0.357562	0.115812
C162	C	1.760309	-0.107562	0.365812
C163	C	2.010309	0.142438	0.615812
C164	C	2.260309	0.392438	0.865812
C165	C	1.573770	-0.402713	1.064022
C166	C	1.823770	-0.152713	1.314022
C167	C	2.073770	0.097287	1.564022
C168	C	2.323770	0.347287	1.814022
C169	C	1.573740	-0.402746	0.943972
C170	C	1.823740	-0.152746	1.193972
C171	C	2.073740	0.097254	1.443972
C172	C	2.323740	0.347254	1.693972
H173	H	0.943392	-0.319054	0.449210
H174	H	1.193392	-0.069054	0.699210
H175	H	1.443392	0.180946	0.949210
H176	H	1.693392	0.430946	1.199210
H177	H	1.077937	-0.319036	0.449201
H178	H	1.327937	-0.069036	0.699201
H179	H	1.577937	0.180964	0.949201
H180	H	1.827937	0.430964	1.199201
Br181	Br	1.341803	-0.796581	0.671448
Br182	Br	1.591803	-0.546581	0.921448
Br183	Br	1.841803	-0.296581	1.171448
Br184	Br	2.091803	-0.046581	1.421448
Br185	Br	1.664309	-0.467173	0.869747
Br186	Br	1.914309	-0.217173	1.119747
Br187	Br	2.164309	0.032827	1.369747
Br188	Br	2.414309	0.282827	1.619747
Br189	Br	1.280558	-0.918400	0.441779
Br190	Br	1.530558	-0.668400	0.691779
Br191	Br	1.780558	-0.418400	0.941779
Br192	Br	2.030558	-0.168400	1.191779
H193	H	0.906133	-0.441621	0.621183
H194	H	1.156133	-0.191621	0.871183
H195	H	1.406133	0.058379	1.121183
H196	H	1.656133	0.308379	1.371183
Br197	Br	1.144950	-0.467392	0.657343
Br198	Br	1.394950	-0.217392	0.907343
Br199	Br	1.644950	0.032608	1.157343
Br200	Br	1.894950	0.282608	1.407343
Br201	Br	1.664358	-0.467114	1.138244
Br202	Br	1.914358	-0.217114	1.388244
Br203	Br	2.164358	0.032886	1.638244
Br204	Br	2.414358	0.282886	1.888244
H205	H	1.557249	-0.903630	0.679509
H206	H	1.807249	-0.653630	0.929509
H207	H	2.057249	-0.403630	1.179509
H208	H	2.307249	-0.153630	1.429509
Br209	Br	1.739788	-0.796263	0.565283
Br210	Br	1.989788	-0.546263	0.815283
Br211	Br	2.239788	-0.296263	1.065283
Br212	Br	2.489788	-0.046263	1.315283
Br213	Br	1.448566	-0.796791	0.273640
Br214	Br	1.698566	-0.546791	0.523640
Br215	Br	1.948566	-0.296791	0.773640
Br216	Br	2.198566	-0.046791	1.023640
H217	H	1.455953	-0.318932	1.071274
H218	H	1.705953	-0.068932	1.321274
H219	H	1.955953	0.181068	1.571274
H220	H	2.205953	0.431068	1.821274
H221	H	1.639152	-0.903512	0.374645
H222	H	1.889152	-0.653512	0.624645
H223	H	2.139152	-0.403512	0.874645
H224	H	2.389152	-0.153512	1.124645
H225	H	1.455923	-0.318960	0.936729
H226	H	1.705923	-0.068960	1.186729
H227	H	1.955923	0.181040	1.436729
H228	H	2.205923	0.431040	1.686729
