data_functionalizedCrystal
_audit_creation_method	'MofGen! by Chris Wilmer'
_symmetry_space_group_name_H-M	'P1'
_symmetry_Int_Tables_number	1
_symmetry_cell_setting	triclinic
loop_
_symmetry_equiv_pos_as_xyz
  x,y,z
_cell_length_a	16.109301
_cell_length_b	10.654550
_cell_length_c	15.186229
_cell_angle_alpha	89.996404
_cell_angle_beta	89.999362
_cell_angle_gamma	83.973206
loop_
_atom_site_label
_atom_site_type_symbol
_atom_site_fract_x
_atom_site_fract_y
_atom_site_fract_z
O1	O	1.104090	0.161419	-0.073173
O2	O	0.862148	0.181507	-0.073187
O3	O	0.988682	-0.011352	-0.073174
O4	O	0.977556	0.354278	-0.073185
O5	O	0.988673	-0.011354	0.073284
O6	O	0.862139	0.181504	0.073271
O7	O	1.104082	0.161416	0.073285
Zn8	Zn	0.983109	0.171460	0.096531
Zn9	Zn	0.983120	0.171463	-0.096433
O10	O	0.977548	0.354275	0.073272
C11	C	0.831164	0.180692	0.000040
C12	C	0.738854	0.178253	0.000035
C13	C	0.517228	0.287019	0.000042
C14	C	0.430494	0.284717	0.000048
C15	C	0.449008	0.055896	0.000051
C16	C	0.535741	0.058199	0.000052
C17	C	0.569848	0.173764	0.000043
C18	C	0.396382	0.169159	0.000048
C19	C	0.302341	0.166662	0.000054
C20	C	0.663895	0.176262	0.000038
C21	C	0.987861	-0.058140	0.000054
C22	C	0.985417	-0.197550	0.000053
C23	C	1.059918	-0.278046	0.000057
C24	C	1.057616	-0.409036	0.000046
C25	C	0.906306	-0.379020	0.000031
C26	C	0.908608	-0.248033	0.000035
C27	C	1.145364	-0.606070	-0.051264
C28	C	1.219869	-0.686572	-0.051245
C29	C	1.287407	-0.657317	0.000083
C30	C	1.280443	-0.547563	0.051414
C31	C	1.205937	-0.467068	0.051402
C32	C	1.138402	-0.496322	0.000054
C33	C	0.820866	-0.050997	0.051353
C34	C	0.746359	0.029500	0.051348
C35	C	0.678814	0.000249	0.000025
C36	C	0.685769	-0.109507	-0.051292
C37	C	0.760277	-0.190004	-0.051287
C38	C	0.827822	-0.160745	0.000034
C39	C	1.135066	0.162231	0.000056
C40	C	1.227376	0.164671	0.000055
C41	C	0.978369	0.401063	0.000042
C42	C	0.980813	0.540473	0.000037
N43	N	0.983108	0.171457	0.228224
N44	N	0.983129	0.171457	-0.228126
C45	C	1.039156	0.086088	0.453952
C46	C	1.039159	0.086085	0.546142
C47	C	0.927074	0.256830	0.546140
C48	C	0.927068	0.256826	0.453952
C49	C	0.983114	0.171456	0.407860
C50	C	0.983122	0.171457	0.592238
C51	C	0.983125	0.171455	0.692194
C52	C	0.983111	0.171457	0.307898
H53	H	0.544996	0.381119	0.000041
O54	O	0.872671	0.339931	0.590815
C55	C	0.886910	0.464254	0.568293
H56	H	0.918954	0.464108	0.501357
H57	H	0.824773	0.526070	0.565136
H58	H	0.928517	0.503114	0.620172
O59	O	0.872741	0.339816	0.409076
C60	C	0.917710	0.417326	0.355759
H61	H	0.982476	0.367333	0.341948
H62	H	0.883121	0.437175	0.290932
H63	H	0.923895	0.510146	0.391279
O64	O	0.767178	-0.296570	-0.101195
C65	C	0.832608	-0.291849	-0.162378
H66	H	0.878121	-0.225079	-0.137186
H67	H	0.866751	-0.390332	-0.171026
H68	H	0.805862	-0.256320	-0.228393
O69	O	0.379499	0.394848	0.000005
C70	C	0.428206	0.497335	0.000021
H71	H	0.492745	0.465435	-0.027708
H72	H	0.396673	0.576688	-0.042502
H73	H	0.434586	0.532756	0.070282
O74	O	0.620132	-0.138096	-0.101047
C75	C	0.595760	-0.255482	-0.074179
H76	H	0.617081	-0.275680	-0.003539
H77	H	0.524912	-0.252669	-0.077959
H78	H	0.625578	-0.333017	-0.119313
H79	H	0.618142	0.065794	0.000037
O80	O	0.415736	-0.056248	0.000014
C81	C	0.327900	-0.033999	0.000033
H82	H	0.308100	0.064013	-0.027695
H83	H	0.300851	-0.107938	-0.042488
H84	H	0.303724	-0.040082	0.070295
H85	H	0.578586	-0.034032	0.000055
O86	O	0.739750	0.136093	0.101224
C87	C	0.815338	0.144643	0.146540
H88	H	0.868400	0.087152	0.110257
H89	H	0.828536	0.247582	0.149863
H90	H	0.810201	0.106113	0.216142
H91	H	1.348071	-0.722871	0.000097
H92	H	1.122460	-0.236948	0.000069
H93	H	1.200266	-0.377712	0.093198
H94	H	1.335439	-0.523762	0.093216
O95	O	1.226646	-0.793048	-0.101245
C96	C	1.214170	-0.760231	-0.190570
H97	H	1.228301	-0.658697	-0.201140
H98	H	1.257546	-0.826088	-0.233342
H99	H	1.146577	-0.769372	-0.209456
H100	H	0.843771	-0.420140	0.000018
O101	O	0.886516	-0.022800	0.101243
C102	C	0.907275	-0.120609	0.162429
H103	H	0.884068	-0.211489	0.137255
H104	H	0.977926	-0.135338	0.171055
H105	H	0.876621	-0.094092	0.228452
O106	O	1.079787	-0.634317	-0.101241
C107	C	1.059036	-0.536479	-0.162407
H108	H	1.115567	-0.482560	-0.173879
H109	H	1.039519	-0.578436	-0.227306
H110	H	1.005241	-0.469328	-0.135498
O111	O	1.093622	0.003034	0.409315
C112	C	1.143099	-0.072294	0.469770
H113	H	1.109009	-0.073721	0.535488
H114	H	1.155202	-0.172583	0.443142
H115	H	1.205095	-0.031494	0.479567
O116	O	1.093485	0.003036	0.590954
C117	C	1.048522	-0.074444	0.644302
H118	H	0.982944	-0.076595	0.616525
H119	H	1.081870	-0.174247	0.645349
H120	H	1.044394	-0.035144	0.714169
