data_functionalizedCrystal
_audit_creation_method	'MofGen! by Chris Wilmer'
_symmetry_space_group_name_H-M	'P1'
_symmetry_Int_Tables_number	1
_symmetry_cell_setting	triclinic
loop_
_symmetry_equiv_pos_as_xyz
  x,y,z
_cell_length_a	18.101398
_cell_length_b	18.101395
_cell_length_c	16.625548
_cell_angle_alpha	90.010657
_cell_angle_beta	90.013579
_cell_angle_gamma	90.026371
loop_
_atom_site_label
_atom_site_type_symbol
_atom_site_fract_x
_atom_site_fract_y
_atom_site_fract_z
Zn1	Zn	1.132042	-0.295046	0.456028
Zn2	Zn	1.632042	0.204954	0.956028
Zn3	Zn	1.131962	-0.418858	0.321196
Zn4	Zn	1.631962	0.081142	0.821196
Zn5	Zn	1.008225	-0.295025	0.321196
Zn6	Zn	1.508225	0.204975	0.821196
Zn7	Zn	1.008152	-0.418840	0.455974
Zn8	Zn	1.508152	0.081160	0.955974
O9	O	1.070095	-0.356942	0.388598
O10	O	1.570095	0.143058	0.888598
O11	O	1.235665	-0.311486	0.438165
O12	O	1.735665	0.188514	0.938165
O13	O	1.115544	-0.402430	0.208364
O14	O	1.615544	0.097570	0.708364
O15	O	1.024713	-0.191395	0.339104
O16	O	1.524713	0.308605	0.839104
O17	O	1.235605	-0.402451	0.339105
O18	O	1.735605	0.097549	0.839105
O19	O	1.115682	-0.191410	0.438164
O20	O	1.615682	0.308590	0.938164
O21	O	1.024635	-0.311451	0.208363
O22	O	1.524635	0.188549	0.708363
O23	O	0.904582	-0.311433	0.339051
O24	O	1.404582	0.188567	0.839051
O25	O	1.024590	-0.402420	0.568813
O26	O	1.524590	0.097580	1.068813
O27	O	0.904529	-0.402399	0.438072
O28	O	1.404529	0.097601	0.938072
O29	O	1.115612	-0.311469	0.568853
O30	O	1.615612	0.188531	1.068853
O31	O	1.115474	-0.522489	0.339053
O32	O	1.615474	-0.022489	0.839053
O33	O	1.024511	-0.522475	0.438073
O34	O	1.524511	-0.022475	0.938073
C35	C	0.877685	-0.356912	0.388556
C36	C	1.377685	0.143088	0.888556
C37	C	0.795371	-0.356917	0.388557
C38	C	1.295371	0.143083	0.888557
C39	C	0.496280	-0.356963	0.388625
C40	C	0.996280	0.143037	0.888625
C41	C	0.527613	-0.299444	0.326628
C42	C	1.027613	0.200556	0.826628
C43	C	0.613232	-0.299598	0.326363
C44	C	1.113232	0.200402	0.826363
C45	C	0.644662	-0.356940	0.388592
C46	C	1.144662	0.143060	0.888592
C47	C	0.613548	-0.434946	0.365376
C48	C	1.113548	0.065054	0.865376
C49	C	0.527903	-0.434626	0.364945
C50	C	1.027903	0.065374	0.864945
C51	C	0.527879	-0.337156	0.473983
C52	C	1.027879	0.162844	0.973983
C53	C	0.613530	-0.335418	0.473518
C54	C	1.113530	0.164582	0.973518
C55	C	0.728522	-0.356931	0.388574
C56	C	1.228522	0.143069	0.888574
C57	C	0.412420	-0.356977	0.388641
C58	C	0.912420	0.143023	0.888641
C59	C	1.069996	-0.549353	0.388575
C60	C	1.569996	-0.049353	0.888575
C61	C	1.070021	-0.631667	0.388591
C62	C	1.570021	-0.131667	0.888591
C63	C	1.070184	-0.930758	0.388635
C64	C	1.570184	-0.430758	0.888635
C65	C	1.013086	-0.899455	0.451090
C66	C	1.513086	-0.399455	0.951090
C67	C	1.012814	-0.813837	0.450895
C68	C	1.512814	-0.313837	0.950895
C69	C	1.070103	-0.782375	0.388614
C70	C	1.570103	-0.282375	0.888614
C71	C	1.048989	-0.813502	0.303634
C72	C	1.548989	-0.313502	0.803634
C73	C	1.048621	-0.899148	0.304008
C74	C	1.548621	-0.399148	0.804008
C75	C	1.148522	-0.899114	0.410411
C76	C	1.648522	-0.399114	0.910411
C77	C	1.148061	-0.813463	0.412275
C78	C	1.648061	-0.313463	0.912275
C79	C	1.070059	-0.698516	0.388597
C80	C	1.570059	-0.198516	0.888597
C81	C	1.070226	-1.014617	0.388646
C82	C	1.570226	-0.514617	0.888646
C83	C	1.263257	-0.356973	0.388641
C84	C	1.763257	0.143027	0.888641
C85	C	1.345571	-0.356986	0.388659
C86	C	1.845571	0.143014	0.888659
C87	C	1.070102	-0.356944	0.598907
C88	C	1.570102	0.143056	1.098907
C89	C	1.070104	-0.356945	0.688528
C90	C	1.570104	0.143055	1.188528
C91	C	1.070215	-0.163780	0.388640
C92	C	1.570215	0.336220	0.888640
C93	C	1.070266	-0.081466	0.388657
C94	C	1.570266	0.418534	0.888657
C95	C	1.070074	-0.356952	1.016704
C96	C	1.570074	0.143048	1.516704
C97	C	1.070080	-0.356952	0.925396
C98	C	1.570080	0.143048	1.425396
C99	C	1.070089	-0.356949	0.852619
C100	C	1.570089	0.143051	1.352619
C101	C	1.070095	-0.356949	0.761305
C102	C	1.570095	0.143051	1.261305
C103	C	1.070082	-0.356955	1.179108
C104	C	1.570082	0.143045	1.679108
C105	C	1.070074	-0.356950	1.089486
C106	C	1.570074	0.143050	1.589486
H107	H	0.634973	-0.452038	0.303649
H108	H	1.134973	0.047962	0.803649
Br109	Br	0.647348	-0.321414	0.220941
Br110	Br	1.147348	0.178586	0.720941
Br111	Br	0.954554	-0.777849	0.272335
Br112	Br	1.454554	-0.277849	0.772335
H113	H	0.954748	-0.793405	0.436470
H114	H	1.454748	-0.293405	0.936470
Br115	Br	1.174604	-0.779557	0.516515
Br116	Br	1.674604	-0.279557	1.016515
Br117	Br	1.116123	-0.779540	0.223954
Br118	Br	1.616123	-0.279540	0.723954
Br119	Br	0.953178	-0.932542	0.273262
Br120	Br	1.453178	-0.432542	0.773262
Br121	Br	1.034828	-0.778754	0.555919
Br122	Br	1.534828	-0.278754	1.055919
Br123	Br	1.222721	-0.777756	0.341991
Br124	Br	1.722721	-0.277756	0.841991
Br125	Br	0.494562	-0.462627	0.260940
Br126	Br	0.994562	0.037373	0.760940
Br127	Br	0.493348	-0.508474	0.436920
Br128	Br	0.993348	-0.008474	0.936920
Br129	Br	0.647463	-0.508290	0.438290
Br130	Br	1.147463	-0.008290	0.938290
H131	H	0.506304	-0.281265	0.495091
H132	H	1.006304	0.218735	0.995091
Br133	Br	1.034876	-0.933733	0.556459
Br134	Br	1.534876	-0.433733	1.056459
Br135	Br	1.219429	-0.932865	0.334608
Br136	Br	1.719429	-0.432865	0.834608
Br137	Br	0.647446	-0.239749	0.502707
Br138	Br	1.147446	0.260251	1.002707
Br139	Br	0.494106	-0.406982	0.550977
Br140	Br	0.994106	0.093018	1.050977
Br141	Br	1.114922	-0.933667	0.223798
Br142	Br	1.614922	-0.433667	0.723798
H143	H	0.955372	-0.921033	0.436847
H144	H	1.455372	-0.421033	0.936847
H145	H	1.167775	-0.920680	0.471323
H146	H	1.667775	-0.420680	0.971323
H147	H	0.507041	-0.241422	0.341019
H148	H	1.007041	0.258578	0.841019
Br149	Br	0.648301	-0.203185	0.350616
Br150	Br	1.148301	0.296815	0.850616
H151	H	0.506075	-0.312389	0.263746
H152	H	1.006075	0.187611	0.763746
Br153	Br	0.649187	-0.400162	0.554638
Br154	Br	1.149187	0.099838	1.054638
