data_functionalizedCrystal
_audit_creation_method	'MofGen! by Chris Wilmer'
_symmetry_space_group_name_H-M	'P1'
_symmetry_Int_Tables_number	1
_symmetry_cell_setting	triclinic
loop_
_symmetry_equiv_pos_as_xyz
  x,y,z
_cell_length_a	12.759400
_cell_length_b	14.908783
_cell_length_c	14.908308
_cell_angle_alpha	83.240477
_cell_angle_beta	86.730859
_cell_angle_gamma	86.721374
loop_
_atom_site_label
_atom_site_type_symbol
_atom_site_fract_x
_atom_site_fract_y
_atom_site_fract_z
Zn1	Zn	-0.538215	1.354265	0.431812
Zn2	Zn	-0.704331	1.362916	0.280462
Zn3	Zn	-0.519095	1.211638	0.289216
Zn4	Zn	-0.704272	1.202889	0.440522
O5	O	-0.616478	1.282927	0.360503
O6	O	-0.568277	1.482074	0.404426
O7	O	-0.671782	1.350131	0.154961
O8	O	-0.374614	1.230599	0.308150
O9	O	-0.690321	1.488430	0.293230
O10	O	-0.388662	1.335386	0.412915
O11	O	-0.535690	1.238988	0.161392
O12	O	-0.535633	1.083817	0.316596
O13	O	-0.690221	1.215687	0.566029
O14	O	-0.671682	1.077389	0.427760
O15	O	-0.568220	1.326902	0.559630
O16	O	-0.851340	1.341647	0.301676
O17	O	-0.851297	1.224076	0.419271
C18	C	-0.601577	1.047761	0.374074
C19	C	-0.595229	0.947154	0.379900
C20	C	-0.889441	1.282874	0.360487
C21	C	-1.006223	1.282933	0.360506
C22	C	-0.631347	1.269354	0.596590
C23	C	-0.637683	1.263570	0.697196
C24	C	-1.061080	1.344213	0.299334
C25	C	-1.170810	1.344267	0.299359
C26	C	-1.170814	1.221753	0.421730
C27	C	-1.061087	1.221704	0.421709
C28	C	-1.006216	1.405441	0.238131
C29	C	-1.061074	1.466725	0.176954
C30	C	-1.170803	1.466779	0.176979
C31	C	-1.225675	1.405549	0.238181
C32	C	-0.342452	1.283003	0.360537
C33	C	-0.225679	1.283036	0.360552
C34	C	-0.631438	1.519012	0.346880
C35	C	-0.637813	1.619617	0.341075
C36	C	-0.522712	1.802047	0.445976
C37	C	-0.528699	1.896574	0.440524
C38	C	-0.655779	1.903200	0.324726
C39	C	-0.649792	1.808673	0.330177
C40	C	-0.583255	1.758099	0.390803
C41	C	-0.577263	1.663571	0.396250
C42	C	-0.704348	1.670198	0.280456
C43	C	-0.710335	1.764726	0.275005
C44	C	-0.601595	1.296500	0.125331
C45	C	-0.594974	1.302459	0.024716
C46	C	-0.522524	1.368506	0.879585
C47	C	-0.528474	1.363074	0.974113
C48	C	-0.655526	1.247270	0.980784
C49	C	-0.649576	1.252702	0.886255
C50	C	-0.583074	1.313323	0.835659
C51	C	-0.577131	1.318759	0.741128
C52	C	-0.704176	1.202951	0.747801
C53	C	-0.710126	1.197519	0.842329
H54	H	-0.916869	1.405402	0.238102
H55	H	-1.016392	1.516582	0.127130
H56	H	-0.522983	1.368121	0.699934
H57	H	-0.479399	1.932352	0.485452
O58	O	-0.457845	1.427414	0.830568
C59	C	-0.405702	1.474978	0.889608
H60	H	-0.403953	1.434035	0.959133
H61	H	-0.321820	1.486228	0.861745
H62	H	-0.449165	1.543132	0.895689
H63	H	-0.709668	1.197915	1.021995
H64	H	-0.523081	1.622395	0.445610
H65	H	-1.215466	1.516686	0.127171
H66	H	-0.479165	1.408008	1.009874
H67	H	-0.753649	1.634407	0.235532
O68	O	-0.720321	1.952474	0.265862
C69	C	-0.712643	2.045327	0.272906
H70	H	-0.634252	2.056549	0.301821
H71	H	-0.717771	2.085159	0.203037
H72	H	-0.779696	2.069359	0.319552
H73	H	-1.315025	1.405605	0.238203
O74	O	-0.774846	1.138763	0.891516
C75	C	-0.849384	1.187137	0.943233
H76	H	-0.858591	1.260061	0.910631
H77	H	-0.928233	1.154323	0.946190
H78	H	-0.821604	1.186144	1.014697
O79	O	-0.458061	1.753049	0.504939
C80	C	-0.405882	1.812111	0.552449
H81	H	-0.453376	1.879304	0.551691
H82	H	-0.397438	1.780698	0.625340
H83	H	-0.324639	1.824089	0.518733
O84	O	-0.763154	1.149429	0.705170
C85	C	-0.870569	1.167838	0.727139
H86	H	-0.882089	1.238654	0.748946
H87	H	-0.918070	1.163595	0.665422
H88	H	-0.898405	1.116152	0.784812
O89	O	-1.224271	1.162308	0.481086
C90	C	-1.332884	1.175506	0.468001
H91	H	-1.345356	1.209228	0.396461
H92	H	-1.370739	1.107372	0.478004
H93	H	-1.370385	1.220588	0.518955
H94	H	-1.016422	1.171806	0.471521
H95	H	-0.764510	1.805916	0.225647
