data_functionalizedCrystal
_audit_creation_method	'MofGen! by Chris Wilmer'
_symmetry_space_group_name_H-M	'P1'
_symmetry_Int_Tables_number	1
_symmetry_cell_setting	triclinic
loop_
_symmetry_equiv_pos_as_xyz
  x,y,z
_cell_length_a	12.645323
_cell_length_b	16.120530
_cell_length_c	16.120444
_cell_angle_alpha	89.831599
_cell_angle_beta	92.868836
_cell_angle_gamma	92.919534
loop_
_atom_site_label
_atom_site_type_symbol
_atom_site_fract_x
_atom_site_fract_y
_atom_site_fract_z
Zn1	Zn	-0.705684	-1.254493	-0.395599
Zn2	Zn	-0.205684	-0.754493	0.104401
Zn3	Zn	-0.536909	-1.247327	-0.534661
Zn4	Zn	-0.036909	-0.747327	-0.034661
Zn5	Zn	-0.519021	-1.115426	-0.388568
Zn6	Zn	-0.019021	-0.615426	0.111432
Zn7	Zn	-0.704716	-1.108343	-0.527552
Zn8	Zn	-0.204716	-0.608343	-0.027552
O9	O	-0.616583	-1.181397	-0.461595
O10	O	-0.116583	-0.681397	0.038405
O11	O	-0.691187	-1.369908	-0.419963
O12	O	-0.191187	-0.869908	0.080037
O13	O	-0.386189	-1.229796	-0.515314
O14	O	0.113811	-0.729796	-0.015314
O15	O	-0.536701	-1.139836	-0.273137
O16	O	-0.036701	-0.639836	0.226863
O17	O	-0.567189	-1.364643	-0.522132
O18	O	-0.067189	-0.864643	-0.022132
O19	O	-0.673842	-1.242008	-0.278303
O20	O	-0.173842	-0.742008	0.221697
O21	O	-0.373046	-1.132888	-0.407981
O22	O	0.126954	-0.632888	0.092019
O23	O	-0.535762	-0.998120	-0.401087
O24	O	-0.035762	-0.498120	0.098913
O25	O	-0.853192	-1.127764	-0.510015
O26	O	-0.353192	-0.627764	-0.010015
O27	O	-0.672192	-0.992917	-0.503198
O28	O	-0.172192	-0.492917	-0.003198
O29	O	-0.853903	-1.235140	-0.413070
O30	O	-0.353903	-0.735140	0.086930
O31	O	-0.566250	-1.222928	-0.650082
O32	O	-0.066250	-0.722928	-0.150082
O33	O	-0.689538	-1.120816	-0.644859
O34	O	-0.189538	-0.620816	-0.144859
C35	C	-0.601932	-0.965346	-0.450609
C36	C	-0.101932	-0.465346	0.049391
C37	C	-0.595690	-0.872917	-0.445929
C38	C	-0.095690	-0.372917	0.054071
C39	C	-0.629755	-1.170348	-0.677643
C40	C	-0.129755	-0.670348	-0.177643
C41	C	-0.635430	-1.165698	-0.770073
C42	C	-0.135430	-0.665698	-0.270073
C43	C	-0.893088	-1.181462	-0.461534
C44	C	-0.393088	-0.681462	0.038466
C45	C	-1.010918	-1.181489	-0.461508
C46	C	-0.510918	-0.681489	0.038492
C47	C	-1.178003	-1.113756	-0.522184
C48	C	-0.678003	-0.613756	-0.022184
C49	C	-1.055474	-1.113909	-0.522509
C50	C	-0.555474	-0.613909	-0.022509
C51	C	-1.062819	-1.267899	-0.489739
C52	C	-0.562819	-0.767899	0.010261
C53	C	-1.185418	-1.267525	-0.490122
C54	C	-0.685418	-0.767525	0.009878
C55	C	-1.171228	-1.163659	-0.372285
C56	C	-0.671228	-0.663659	0.127715
C57	C	-1.048522	-1.161678	-0.372714
C58	C	-0.548522	-0.661678	0.127286
C59	C	-0.341152	-1.181384	-0.461598
C60	C	0.158848	-0.681384	0.038402
C61	C	-0.223319	-1.181529	-0.461398
C62	C	0.276681	-0.681529	0.038602
C63	C	-0.631291	-1.398292	-0.472624
C64	C	-0.131291	-0.898292	0.027376
C65	C	-0.637560	-1.490719	-0.477325
C66	C	-0.137560	-0.990719	0.022675
C67	C	-0.584303	-0.703690	-0.437366
C68	C	-0.084303	-0.203690	0.062634
C69	C	-0.648943	-0.659941	-0.485886
C70	C	-0.148943	-0.159941	0.014114
C71	C	-0.642607	-0.565778	-0.481121
C72	C	-0.142607	-0.065778	0.018879
C73	C	-0.590637	-0.797863	-0.442130
C74	C	-0.090637	-0.297863	0.057870
C75	C	-0.587382	-1.205726	-0.983047
C76	C	-0.087382	-0.705726	-0.483047
C77	C	-0.645805	-1.157222	-0.939300
C78	C	-0.145805	-0.657222	-0.439300
C79	C	-0.640031	-1.161939	-0.845133
C80	C	-0.140031	-0.661939	-0.345133
C81	C	-0.593154	-1.201010	-1.077222
C82	C	-0.093154	-0.701010	-0.577222
C83	C	-0.603384	-1.192512	-0.244705
C84	C	-0.103384	-0.692512	0.255295
C85	C	-0.597759	-1.197248	-0.152279
C86	C	-0.097759	-0.697248	0.347721
H87	H	-1.202167	-1.049340	-0.504136
H88	H	-0.702167	-0.549340	-0.004136
H89	H	-0.524208	-0.670427	-0.392253
H90	H	-0.024208	-0.170427	0.107747
O91	O	-1.221771	-1.329470	-0.439903
O92	O	-0.721771	-0.829470	0.060097
C93	C	-1.333279	-1.329741	-0.439790
C94	C	-0.833279	-0.829741	0.060210
H95	H	-1.360613	-1.265619	-0.458108
H96	H	-0.860613	-0.765619	0.041892
H97	H	-1.360087	-1.346040	-0.374999
H98	H	-0.860087	-0.846040	0.125001
H99	H	-1.369306	-1.377783	-0.486170
H100	H	-0.869306	-0.877783	0.013830
H101	H	-0.709043	-0.693207	-0.531002
H102	H	-0.209043	-0.193207	-0.031002
H103	H	-0.700159	-1.112153	-0.972567
H104	H	-0.200159	-0.612153	-0.472567
H105	H	-0.533030	-1.250791	-0.949783
H106	H	-0.033030	-0.750791	-0.449783
H107	H	-1.213768	-1.125066	-0.587740
H108	H	-0.713768	-0.625066	-0.087740
O109	O	-1.013112	-1.037304	-0.500937
O110	O	-0.513112	-0.537304	-0.000937
C111	C	-0.953518	-1.004587	-0.566183
C112	C	-0.453518	-0.504587	-0.066183
H113	H	-0.928101	-1.057586	-0.606116
H114	H	-0.428101	-0.557586	-0.106116
H115	H	-0.880226	-0.968077	-0.539243
H116	H	-0.380226	-0.468077	-0.039243
H117	H	-1.004035	-0.961643	-0.605948
H118	H	-0.504035	-0.461643	-0.105948
O119	O	-1.026571	-1.127496	-0.601256
O120	O	-0.526571	-0.627496	-0.101256
C121	C	-1.063408	-1.063961	-0.653817
C122	C	-0.563408	-0.563961	-0.153817
H123	H	-1.133329	-1.034731	-0.625299
H124	H	-0.633329	-0.534731	-0.125299
H125	H	-1.089764	-1.091274	-0.717110
H126	H	-0.589764	-0.591274	-0.217110
H127	H	-0.996919	-1.014504	-0.661546
H128	H	-0.496919	-0.514504	-0.161546
H129	H	-1.219237	-1.283193	-0.555397
H130	H	-0.719237	-0.783193	-0.055397
H131	H	-1.034265	-1.319554	-0.447062
H132	H	-0.534265	-0.819554	0.052938
H133	H	-1.037320	-1.283926	-0.554357
H134	H	-0.537320	-0.783926	-0.054357
H135	H	-1.196561	-1.101983	-0.347419
H136	H	-0.696561	-0.601983	0.152581
O137	O	-1.007422	-1.085845	-0.347291
O138	O	-0.507422	-0.585845	0.152709
C139	C	-1.041676	-1.068725	-0.267509
C140	C	-0.541676	-0.568725	0.232491
H141	H	-1.117909	-1.107169	-0.256627
H142	H	-0.617909	-0.607169	0.243373
H143	H	-1.057003	-0.999870	-0.262690
H144	H	-0.557003	-0.499870	0.237310
H145	H	-0.977816	-1.085293	-0.218698
H146	H	-0.477816	-0.585293	0.281302
H147	H	-1.017780	-1.207790	-0.324673
H148	H	-0.517780	-0.707790	0.175327
O149	O	-1.206331	-1.222543	-0.318188
O150	O	-0.706331	-0.722543	0.181812
C151	C	-1.317488	-1.221232	-0.315309
C152	C	-0.817488	-0.721232	0.184691
H153	H	-1.344405	-1.157671	-0.336044
H154	H	-0.844405	-0.657671	0.163956
H155	H	-1.341625	-1.233890	-0.249081
H156	H	-0.841625	-0.733890	0.250919
H157	H	-1.356319	-1.271073	-0.358471
H158	H	-0.856319	-0.771073	0.141529
