data_functionalizedCrystal
_audit_creation_method	'MofGen! by Chris Wilmer'
_symmetry_space_group_name_H-M	'P1'
_symmetry_Int_Tables_number	1
_symmetry_cell_setting	triclinic
loop_
_symmetry_equiv_pos_as_xyz
  x,y,z
_cell_length_a	19.805407
_cell_length_b	19.805405
_cell_length_c	19.805399
_cell_angle_alpha	90.029301
_cell_angle_beta	90.019573
_cell_angle_gamma	90.026410
loop_
_atom_site_label
_atom_site_type_symbol
_atom_site_fract_x
_atom_site_fract_y
_atom_site_fract_z
Zn1	Zn	1.034736	-0.269479	0.382712
Zn2	Zn	1.034651	-0.382667	0.269520
Zn3	Zn	0.921550	-0.269498	0.269536
Zn4	Zn	0.921514	-0.382631	0.382667
O5	O	0.978113	-0.326069	0.326109
O6	O	1.129441	-0.284501	0.367708
O7	O	1.019627	-0.367678	0.174805
O8	O	0.936616	-0.174778	0.284575
O9	O	1.129378	-0.367660	0.284547
O10	O	1.019772	-0.174765	0.367724
O11	O	0.936533	-0.284533	0.174817
O12	O	0.826829	-0.284498	0.284531
O13	O	0.936553	-0.367598	0.477389
O14	O	0.826802	-0.367617	0.367648
O15	O	1.019737	-0.284466	0.477422
O16	O	1.019592	-0.477379	0.284503
O17	O	0.936471	-0.477353	0.367632
C18	C	0.802257	-0.326056	0.326087
C19	C	0.727025	-0.326067	0.326093
C20	C	0.691684	-0.369412	0.369302
C21	C	0.620996	-0.369413	0.369312
C22	C	0.585649	-0.326072	0.326109
C23	C	0.620994	-0.282722	0.282898
C24	C	0.691681	-0.282718	0.282892
C25	C	0.335921	-0.282737	0.282920
C26	C	0.265229	-0.282746	0.282928
C27	C	0.265235	-0.369432	0.369340
C28	C	0.335922	-0.369428	0.369334
C29	C	0.371262	-0.326076	0.326126
C30	C	0.447910	-0.326074	0.326117
C31	C	0.509002	-0.326076	0.326114
C32	C	0.978036	-0.501925	0.326076
C33	C	0.978066	-0.577157	0.326084
C34	C	1.021389	-0.612492	0.282845
C35	C	1.021418	-0.683181	0.282860
C36	C	0.978119	-0.718532	0.326111
C37	C	0.934794	-0.683192	0.369356
C38	C	0.934769	-0.612505	0.369344
C39	C	0.934894	-0.968265	0.369406
C40	C	0.934921	-1.038957	0.369413
C41	C	1.021542	-1.038941	0.282922
C42	C	1.021517	-0.968254	0.282910
C43	C	0.978195	-0.932920	0.326157
C44	C	0.978166	-0.856271	0.326141
C45	C	0.978145	-0.795179	0.326124
C46	C	1.154655	-0.326082	0.326131
C47	C	1.229887	-0.326088	0.326140
C48	C	0.978151	-0.326026	0.502651
C49	C	0.978167	-0.326008	0.577883
C50	C	0.978207	-0.149526	0.326156
C51	C	0.978248	-0.074294	0.326177
C52	C	0.978114	-0.326062	0.150253
C53	C	0.978229	-0.325890	0.075021
C54	C	1.021481	-0.282719	0.613246
C55	C	1.021488	-0.282699	0.683934
C56	C	0.978184	-0.325973	0.719259
C57	C	0.934864	-0.369264	0.683892
C58	C	0.934854	-0.369279	0.613204
C59	C	0.934902	-0.369201	0.968965
C60	C	0.934917	-0.369183	1.039657
C61	C	1.021536	-0.282620	1.039695
C62	C	1.021527	-0.282636	0.969008
C63	C	0.978205	-0.325924	0.933647
C64	C	0.978197	-0.325944	0.856998
C65	C	0.978194	-0.325957	0.795906
H66	H	0.236452	-0.247448	0.247747
H67	H	0.364686	-0.247442	0.247733
H68	H	0.592225	-0.404709	0.404496
H69	H	1.056792	-0.247400	0.940250
O70	O	1.063521	-0.717401	0.240791
C71	C	1.101740	-0.671041	0.202622
H72	H	1.073998	-0.620678	0.200245
H73	H	1.153130	-0.663462	0.227451
C74	C	1.145617	-0.760526	0.133517
C75	C	1.111541	-0.698671	0.130593
H76	H	1.151666	-0.777570	0.089087
H77	H	1.119871	-0.791760	0.159233
H78	H	1.188438	-0.754202	0.154211
H79	H	1.068718	-0.704997	0.109907
H80	H	1.137281	-0.667438	0.104872
O81	O	0.892911	-0.411199	1.074078
C82	C	0.902203	-0.401891	1.144050
H83	H	0.954453	-0.379728	1.153715
H84	H	0.862081	-0.365838	1.164117
C85	C	0.831796	-0.497588	1.168451
C86	C	0.895973	-0.470371	1.180322
H87	H	0.827950	-0.539829	1.190827
H88	H	0.825533	-0.503858	1.121309
H89	H	0.798369	-0.467537	1.185173
H90	H	0.929399	-0.500418	1.163593
H91	H	0.902241	-0.464108	1.227462
O92	O	0.892700	-0.411228	0.718173
C93	C	0.825247	-0.396446	0.700879
H94	H	0.821855	-0.342377	0.681465
H95	H	0.807529	-0.432740	0.659833
C96	C	0.784245	-0.470716	0.787506
C97	C	0.780079	-0.404306	0.763666
H98	H	0.756382	-0.475568	0.826235
H99	H	0.829690	-0.480678	0.799156
H100	H	0.769482	-0.500954	0.753295
H101	H	0.794850	-0.374070	0.797874
H102	H	0.734636	-0.394339	0.752024
H103	H	0.364698	-0.404723	0.404512
H104	H	0.592209	-0.247430	0.247724
H105	H	0.720458	-0.404707	0.404481
O106	O	0.892792	-0.411305	0.934726
C107	C	0.854558	-0.449478	0.981065
H108	H	0.882298	-0.451826	1.031452
H109	H	0.803177	-0.424670	0.988593
C110	C	0.810661	-0.518629	0.891563
C111	C	0.844733	-0.521519	0.953448
H112	H	0.804597	-0.563067	0.874527
H113	H	0.836417	-0.492910	0.860343
H114	H	0.767846	-0.497953	0.897845
H115	H	0.887550	-0.542187	0.947163
H116	H	0.818984	-0.547243	0.984666
H117	H	1.056809	-0.247370	1.068495
O118	O	1.063622	-1.073370	0.240990
C119	C	1.054359	-1.143341	0.250268
H120	H	1.032152	-1.152977	0.302479
H121	H	1.018360	-1.163469	0.210083
C122	C	1.150143	-1.167735	0.180032
C123	C	1.122873	-1.179570	0.244160
H124	H	1.192404	-1.190083	0.176261
H125	H	1.156382	-1.120594	0.173779
H126	H	1.120137	-1.184508	0.146551
H127	H	1.152874	-1.162789	0.277639
H128	H	1.116640	-1.226709	0.250418
O129	O	0.892859	-0.411433	0.578877
C130	C	0.907612	-0.478888	0.596146
H131	H	0.961683	-0.482299	0.615594
H132	H	0.871317	-0.496574	0.637159
C133	C	0.833305	-0.519882	0.509449
C134	C	0.899718	-0.524073	0.533330
H135	H	0.828432	-0.547756	0.470702
H136	H	0.823363	-0.474437	0.497816
H137	H	0.803067	-0.534620	0.543632
H138	H	0.929954	-0.509328	0.499150
H139	H	0.909665	-0.569517	0.544956
H140	H	0.899492	-0.583735	0.404555
H141	H	0.236454	-0.404729	0.404524
O142	O	1.063631	-0.240629	0.718180
C143	C	1.101842	-0.202430	0.671844
H144	H	1.104161	-0.230167	0.621449
H145	H	1.077087	-0.151022	0.664334
C146	C	1.171041	-0.158613	0.761345
C147	C	1.173894	-0.192683	0.699450
H148	H	1.215485	-0.152597	0.778374
H149	H	1.145296	-0.184346	0.792563
H150	H	1.150409	-0.115777	0.755078
H151	H	1.194518	-0.235521	0.705719
H152	H	1.199644	-0.166957	0.668234
O153	O	0.725909	-0.240595	0.240851
C154	C	0.679555	-0.202331	0.202730
H155	H	0.629154	-0.230054	0.200341
H156	H	0.672070	-0.150957	0.227608
C157	C	0.769019	-0.158434	0.133642
C158	C	0.707117	-0.192486	0.130703
H159	H	0.786022	-0.152358	0.089213
H160	H	0.800249	-0.184210	0.159326
H161	H	0.762773	-0.115626	0.154376
H162	H	0.713366	-0.235296	0.109976
H163	H	0.675889	-0.166716	0.105013
O164	O	1.063352	-0.578124	0.240757
C165	C	1.024830	-0.537284	0.197007
H166	H	0.971531	-0.558633	0.192779
H167	H	1.022467	-0.483699	0.217923
C168	C	1.123402	-0.510000	0.131869
C169	C	1.057942	-0.536224	0.126671
H170	H	1.143828	-0.509343	0.088483
H171	H	1.149356	-0.537512	0.161345
H172	H	1.121424	-0.465348	0.149301
H173	H	1.059921	-0.580877	0.109247
H174	H	1.031989	-0.508719	0.097190
H175	H	1.056773	-0.939473	0.247688
O176	O	0.892739	-0.934052	0.411426
C177	C	0.854537	-0.980415	0.449607
H178	H	0.852238	-1.030824	0.421889
H179	H	0.879286	-0.987875	0.501042
C180	C	0.785303	-0.890974	0.493321
C181	C	0.782475	-0.952885	0.459275
H182	H	0.740853	-0.873991	0.499288
H183	H	0.811042	-0.859737	0.467600
H184	H	0.805931	-0.897199	0.536180
H185	H	0.761855	-0.946658	0.416414
H186	H	0.756731	-0.984120	0.484989
O187	O	0.892885	-1.073404	0.411372
C188	C	0.902210	-1.143370	0.402117
H189	H	0.924405	-1.153038	0.349901
H190	H	0.938244	-1.163375	0.442295
C191	C	0.806477	-1.167844	0.472401
C192	C	0.833732	-1.179718	0.408266
H193	H	0.764238	-1.190266	0.476197
H194	H	0.800196	-1.120706	0.478638
H195	H	0.836512	-1.184514	0.505876
H196	H	0.803702	-1.163040	0.374793
H197	H	0.840007	-1.226854	0.402023
O198	O	0.892807	-0.717501	0.411469
C199	C	0.907543	-0.700159	0.478938
H200	H	0.961607	-0.680681	0.482403
H201	H	0.871230	-0.659146	0.496592
C202	C	0.833261	-0.786853	0.519857
C203	C	0.899665	-0.762935	0.524113
H204	H	0.828399	-0.825575	0.547724
H205	H	0.823331	-0.798535	0.474402
H206	H	0.803008	-0.752670	0.534567
H207	H	0.929916	-0.797115	0.509395
H208	H	0.909600	-0.751260	0.569567
O209	O	1.063453	-0.240646	0.578861
C210	C	1.024933	-0.196925	0.537992
H211	H	0.973627	-0.220798	0.527383
H212	H	1.017523	-0.146761	0.565251
C213	C	1.125187	-0.155359	0.483890
C214	C	1.062173	-0.184683	0.470855
H215	H	1.148159	-0.147805	0.442478
H216	H	1.151139	-0.184813	0.511426
H217	H	1.119003	-0.113559	0.506607
H218	H	1.068358	-0.226486	0.448146
H219	H	1.036223	-0.155236	0.443313
