data_functionalizedCrystal
_audit_creation_method	'MofGen! by Chris Wilmer'
_symmetry_space_group_name_H-M	'P1'
_symmetry_Int_Tables_number	1
_symmetry_cell_setting	triclinic
loop_
_symmetry_equiv_pos_as_xyz
  x,y,z
_cell_length_a	8.497374
_cell_length_b	8.497365
_cell_length_c	10.686220
_cell_angle_alpha	94.338480
_cell_angle_beta	85.618240
_cell_angle_gamma	90.037770
loop_
_atom_site_label
_atom_site_type_symbol
_atom_site_fract_x
_atom_site_fract_y
_atom_site_fract_z
Zn1	Zn	0.442454	-0.707312	1.929329
Zn2	Zn	0.706409	-0.443590	1.929206
Zn3	Zn	0.462885	-0.463754	1.718276
Zn4	Zn	0.726438	-0.727517	1.718359
O5	O	0.584547	-0.585543	1.823792
O6	O	0.460536	-0.655434	2.105879
O7	O	0.674274	-0.225510	1.901139
O8	O	0.239411	-0.496047	1.746289
O9	O	0.654463	-0.461678	2.105789
O10	O	0.224400	-0.674987	1.901349
O11	O	0.495358	-0.240325	1.746169
O12	O	0.514779	-0.515638	1.541720
O13	O	0.688598	-0.945591	1.746431
O14	O	0.708410	-0.709423	1.541781
O15	O	0.479956	-0.930747	1.901430
O16	O	0.929830	-0.481270	1.901219
O17	O	0.944545	-0.689870	1.746311
C18	C	0.615986	-0.616912	1.495969
C19	C	0.629474	-0.630369	1.355725
C20	C	0.994428	-0.585568	1.823777
C21	C	1.173069	-0.585539	1.823810
C22	C	0.584727	-0.175672	1.823701
C23	C	0.584386	0.002989	1.823881
C24	C	0.552986	-0.554053	2.152896
C25	C	0.539537	-0.540634	2.293140
H26	H	0.452220	-0.453512	1.346850
C27	C	0.747444	-0.748067	1.283170
H28	H	0.741338	-0.741984	1.195266
H29	H	0.851374	-0.722787	1.304708
H30	H	0.722374	-0.852056	1.304761
