data_functionalizedCrystal
_audit_creation_method	'MofGen! by Chris Wilmer'
_symmetry_space_group_name_H-M	'P1'
_symmetry_Int_Tables_number	1
_symmetry_cell_setting	triclinic
loop_
_symmetry_equiv_pos_as_xyz
  x,y,z
_cell_length_a	12.759401
_cell_length_b	12.759400
_cell_length_c	11.169409
_cell_angle_alpha	90.033794
_cell_angle_beta	90.020610
_cell_angle_gamma	90.014328
loop_
_atom_site_label
_atom_site_type_symbol
_atom_site_fract_x
_atom_site_fract_y
_atom_site_fract_z
Zn1	Zn	1.606271	-0.418191	0.678556
Zn2	Zn	1.606161	-0.593917	0.477868
Zn3	Zn	1.430568	-0.418251	0.477887
Zn4	Zn	1.430562	-0.593828	0.678510
O5	O	1.518390	-0.506047	0.578205
O6	O	1.753277	-0.441514	0.651945
O7	O	1.582825	-0.570677	0.309920
O8	O	1.453925	-0.271222	0.504534
O9	O	1.753196	-0.570619	0.504500
O10	O	1.583013	-0.271178	0.651964
O11	O	1.453818	-0.441616	0.309935
O12	O	1.283546	-0.441530	0.504489
O13	O	1.453913	-0.570466	0.846466
O14	O	1.283541	-0.570525	0.651886
O15	O	1.583006	-0.441427	0.846499
O16	O	1.582818	-0.740926	0.504456
O17	O	1.453806	-0.740860	0.651866
C18	C	1.245423	-0.506025	0.578185
C19	C	1.128646	-0.506041	0.578205
C20	C	0.964031	-0.438808	0.501603
C21	C	1.073755	-0.438786	0.501591
C22	C	1.073808	-0.573315	0.654845
C23	C	0.964086	-0.573331	0.654862
C24	C	0.909146	-0.371555	0.424975
C25	C	0.963977	-0.304279	0.348337
C26	C	1.073701	-0.304257	0.348325
C27	C	1.128594	-0.371511	0.424952
C28	C	1.518328	-0.779014	0.578180
C29	C	1.518397	-0.895791	0.578209
C30	C	1.585649	-0.950652	0.501537
C31	C	1.585713	-1.060376	0.501574
C32	C	1.451266	-1.060368	0.654959
C33	C	1.451208	-0.950646	0.654927
C34	C	1.652838	-0.895797	0.424820
C35	C	1.720094	-0.950658	0.348141
C36	C	1.720158	-1.060382	0.348178
C37	C	1.652967	-1.115245	0.424894
C38	C	1.792424	-0.506069	0.578226
C39	C	1.909200	-0.506079	0.578234
C40	C	1.518471	-0.505930	0.891248
C41	C	1.518505	-0.505880	1.024648
C42	C	1.518482	-0.232013	0.578256
C43	C	1.518520	-0.115237	0.578278
C44	C	1.518370	-0.506087	0.266380
C45	C	1.518540	-0.505841	0.132981
H46	H	0.919276	-0.249517	0.285958
C47	C	1.652774	-0.775105	0.424780
H48	H	1.702425	-0.750291	0.368117
H49	H	1.584969	-0.750353	0.403960
H50	H	1.670907	-0.750213	0.502243
H51	H	1.217939	-0.371478	0.424947
H52	H	1.774805	-0.905984	0.285688
C53	C	1.134018	-0.230255	0.264038
H54	H	1.207225	-0.239866	0.275009
H55	H	1.116002	-0.245555	0.183371
H56	H	1.116046	-0.159681	0.281750
C57	C	1.134187	-0.647301	0.739110
H58	H	1.207387	-0.637665	0.728113
H59	H	1.116249	-0.632017	0.819785
H60	H	1.116187	-0.717878	0.721393
C61	C	0.903768	-0.647258	0.739234
H62	H	0.952168	-0.687297	0.784882
H63	H	0.861030	-0.607055	0.791581
H64	H	0.860903	-0.693024	0.693311
C65	C	1.794135	-1.120727	0.263838
H66	H	1.834134	-1.072340	0.218141
H67	H	1.839919	-1.163460	0.309800
H68	H	1.753982	-1.163599	0.211517
C69	C	1.653043	-1.235939	0.424939
H70	H	1.702718	-1.260758	0.368286
H71	H	1.671189	-1.260686	0.502415
H72	H	1.585265	-1.260832	0.404117
H73	H	1.396562	-1.105046	0.717416
H74	H	1.396447	-0.905977	0.717362
H75	H	0.819803	-0.371568	0.424974
