data_functionalizedCrystal
_audit_creation_method	'MofGen! by Chris Wilmer'
_symmetry_space_group_name_H-M	'P1'
_symmetry_Int_Tables_number	1
_symmetry_cell_setting	triclinic
loop_
_symmetry_equiv_pos_as_xyz
  x,y,z
_cell_length_a	16.992694
_cell_length_b	10.723024
_cell_length_c	15.455313
_cell_angle_alpha	92.691723
_cell_angle_beta	87.142206
_cell_angle_gamma	87.568046
loop_
_atom_site_label
_atom_site_type_symbol
_atom_site_fract_x
_atom_site_fract_y
_atom_site_fract_z
O1	O	1.045219	0.259622	-0.072018
O2	O	0.816920	0.256716	-0.072044
O3	O	0.936335	0.077046	-0.072027
O4	O	0.925803	0.439291	-0.072035
O5	O	0.929506	0.087275	0.072234
O6	O	0.810091	0.266945	0.072217
O7	O	1.038390	0.269851	0.072243
Cu8	Cu	0.923617	0.269332	0.085402
Cu9	Cu	0.931693	0.257235	-0.085203
O10	O	0.918974	0.449520	0.072226
C11	C	0.784273	0.258094	0.000083
C12	C	0.697169	0.246945	0.000074
C13	C	0.647507	0.354505	0.000072
C14	C	0.565663	0.344024	0.000084
C15	C	0.533484	0.225982	0.000092
C16	C	0.583152	0.118414	0.000096
C17	C	0.664993	0.128896	0.000090
C18	C	0.289651	0.182535	0.000116
C19	C	0.207803	0.172061	0.000119
C20	C	0.190320	0.397673	0.000109
C21	C	0.272165	0.408144	0.000098
C22	C	0.321825	0.300577	0.000107
N23	N	0.449827	0.215266	0.000102
N24	N	0.405480	0.311295	0.000103
C25	C	0.932154	0.035595	0.000102
C26	C	0.929861	-0.103157	0.000099
C27	C	0.996680	-0.172386	0.000105
C28	C	0.994312	-0.315793	0.000102
C29	C	1.071037	0.268473	0.000114
C30	C	1.158141	0.279621	0.000118
C31	C	0.923155	0.490971	0.000095
C32	C	0.925449	0.629723	0.000093
N33	N	0.917942	0.277840	0.205397
N34	N	0.937374	0.248717	-0.205198
C35	C	0.968692	0.201542	0.250798
C36	C	0.964408	0.207989	0.341605
C37	C	0.909377	0.290741	0.387010
C38	C	0.858622	0.367042	0.341602
C39	C	0.862903	0.360588	0.250797
C40	C	0.890899	0.318564	0.658589
C41	C	0.886624	0.325015	0.749401
C42	C	0.992409	0.165960	0.749398
C43	C	0.996689	0.159518	0.658590
C44	C	0.945931	0.235815	0.613191
N45	N	0.904999	0.297335	0.479830
N46	N	0.950306	0.229213	0.520373
H47	H	0.298359	0.504266	0.000082
H48	H	1.055640	-0.125486	0.000117
H49	H	1.051514	-0.375300	0.000111
H50	H	0.673701	0.450628	0.000065
H51	H	0.841809	0.392407	0.786365
H52	H	0.870902	-0.150057	0.000087
C53	C	1.028469	0.111569	0.201663
C54	C	1.071981	0.046107	0.260864
C55	C	1.127046	-0.036803	0.215635
H56	H	1.063110	0.157109	0.166227
H57	H	1.001659	0.054173	0.166268
H58	H	1.098789	0.103494	0.296244
H59	H	1.037360	0.000542	0.296302
H60	H	1.100236	-0.094199	0.180241
H61	H	1.161682	0.008746	0.180201
H62	H	1.156570	-0.081238	0.255796
H63	H	0.556944	0.022302	0.000115
C64	C	0.343528	0.065690	-0.000060
C65	C	0.332409	-0.010160	-0.074288
C66	C	0.382037	-0.117806	-0.074486
H67	H	0.331376	0.021045	0.050189
H68	H	0.396895	0.088771	-0.000108
H69	H	0.279055	-0.033241	-0.074232
H70	H	0.344567	0.034448	-0.124550
H71	H	0.435404	-0.094726	-0.074534
H72	H	0.369881	-0.162440	-0.024234
H73	H	0.374505	-0.169278	-0.124853
C74	C	0.849201	-0.290900	-0.000095
C75	C	0.849833	-0.220880	-0.074323
C76	C	0.779603	-0.147746	-0.074531
H77	H	0.844659	-0.236050	0.050154
H78	H	0.805670	-0.343648	-0.000149
H79	H	0.893351	-0.168137	-0.074261
H80	H	0.854362	-0.275698	-0.124584
H81	H	0.736072	-0.200494	-0.074585
H82	H	0.775067	-0.092904	-0.024279
H83	H	0.780019	-0.100238	-0.124898
H84	H	0.525232	0.431612	0.000082
C85	C	1.019387	0.124999	0.390939
C86	C	0.974742	0.048033	0.443065
C87	C	1.025364	-0.028449	0.488511
H88	H	1.050629	0.175576	0.426425
H89	H	1.052762	0.074730	0.350915
H90	H	0.941380	0.098298	0.483084
H91	H	0.943502	-0.002570	0.407600
H92	H	1.058740	-0.078719	0.448487
H93	H	1.056604	0.022137	0.523992
H94	H	0.995081	-0.080688	0.523877
H95	H	1.041499	0.092135	0.621624
H96	H	1.033733	0.103841	0.786370
C97	C	0.835755	0.401554	0.609462
C98	C	0.786664	0.475430	0.668665
C99	C	0.735860	0.551911	0.623437
H100	H	0.804452	0.350979	0.574047
H101	H	0.865901	0.453918	0.574047
H102	H	0.756521	0.423072	0.704065
H103	H	0.817945	0.526031	0.704082
H104	H	0.766006	0.604275	0.588022
H105	H	0.704562	0.501326	0.588023
H106	H	0.702551	0.602053	0.663599
C107	C	0.798829	0.456691	0.391010
C108	C	0.748008	0.389058	0.443174
C109	C	0.692924	0.471605	0.488707
H110	H	0.769133	0.501243	0.351064
H111	H	0.825635	0.514005	0.426472
H112	H	0.721204	0.331766	0.407714
H113	H	0.777681	0.344510	0.483135
H114	H	0.719731	0.528919	0.524170
H115	H	0.663235	0.516153	0.448756
H116	H	0.658441	0.425729	0.524112
H117	H	0.149878	0.485248	0.000104
C118	C	0.807763	0.443578	0.201657
C119	C	0.758667	0.517456	0.260854
C120	C	0.707865	0.593932	0.215620
H121	H	0.776463	0.392999	0.166241
H122	H	0.837910	0.495941	0.166243
H123	H	0.728522	0.465099	0.296253
H124	H	0.789945	0.568061	0.296272
H125	H	0.738013	0.646295	0.180205
H126	H	0.676571	0.543342	0.180204
H127	H	0.674553	0.644075	0.255777
H128	H	0.181606	0.075931	0.000125
H129	H	0.705428	0.041309	0.000091
