data_functionalizedCrystal
_audit_creation_method	'MofGen! by Chris Wilmer'
_symmetry_space_group_name_H-M	'P1'
_symmetry_Int_Tables_number	1
_symmetry_cell_setting	triclinic
loop_
_symmetry_equiv_pos_as_xyz
  x,y,z
_cell_length_a	14.395555
_cell_length_b	14.395555
_cell_length_c	14.395555
_cell_angle_alpha	119.996993
_cell_angle_beta	90.000013
_cell_angle_gamma	60.003201
loop_
_atom_site_label
_atom_site_type_symbol
_atom_site_fract_x
_atom_site_fract_y
_atom_site_fract_z
Zr1	Zr	0.894912	1.016817	0.121934
O2	O	0.746604	1.210587	0.270251
O3	O	0.940373	0.823029	0.076465
O4	O	0.940391	1.016800	0.270253
O5	O	0.746576	1.016835	-0.076397
O6	O	1.093258	1.016807	0.270256
O7	O	0.746585	1.016816	0.076463
O8	O	1.093225	0.670186	-0.076395
O9	O	0.746608	1.363456	0.270254
O10	O	1.073849	0.902748	0.057078
O11	O	0.959759	0.902758	-0.057003
O12	O	0.959780	1.130898	0.171157
O13	O	0.845690	1.130908	0.057076
Zr14	Zr	1.138702	1.016859	-0.121856
Zr15	Zr	1.138718	1.016828	0.121940
Zr16	Zr	0.894897	1.016848	-0.121861
Zr17	Zr	0.894919	1.260626	0.121938
Zr18	Zr	1.138695	0.773050	-0.121859
O19	O	1.093242	1.210647	-0.076386
O20	O	1.093264	1.210603	0.270259
O21	O	0.746582	1.210631	-0.076395
O22	O	1.287011	0.823089	-0.270173
O23	O	1.287033	0.823044	0.076473
O24	O	0.940351	0.823073	-0.270181
O25	O	1.287038	1.016840	0.076476
O26	O	1.093224	1.016876	-0.270174
O27	O	0.940356	1.016869	-0.270178
O28	O	1.287029	1.016860	-0.076385
O29	O	0.940401	1.363465	0.270258
O30	O	1.093213	0.670210	-0.270179
O31	O	1.287006	0.670219	-0.270175
O32	O	1.287018	0.670194	-0.076390
O33	O	0.746596	1.363481	0.076469
O34	O	0.940389	1.363490	0.076473
O35	O	1.073834	0.902777	-0.171079
O36	O	1.187925	0.902768	-0.056998
O37	O	1.073856	1.130918	0.057082
O38	O	0.959765	1.130927	-0.056999
C39	C	1.016798	0.711870	0.000035
C40	C	1.016795	0.608366	0.000033
C41	C	0.954591	0.547779	-0.062172
C42	C	0.909518	0.562020	0.045097
C43	C	1.061841	0.409730	-0.107204
C44	C	0.971659	0.624033	0.107366
C45	C	1.124041	0.471680	-0.045012
C46	C	1.078995	0.485968	0.062321
C47	C	0.711844	1.016824	0.000032
C48	C	0.608342	1.016819	0.000030
C49	C	0.609948	0.892422	-0.062169
C50	C	0.516932	0.954618	-0.107252
C51	C	0.516930	0.954628	0.045079
C52	C	0.516688	1.079016	-0.045115
C53	C	0.516701	1.079008	0.107275
C54	C	0.423667	1.141296	0.062220
C55	C	1.321771	1.016852	0.000047
C56	C	1.425273	1.016856	0.000049
C57	C	1.016826	1.016799	0.304990
C58	C	1.016833	1.016786	0.408488
C59	C	1.016816	1.321806	0.000044
C60	C	1.016819	1.425309	0.000046
C61	C	1.079037	0.892383	0.406873
C62	C	0.971773	0.954561	0.499889
C63	C	1.124081	0.954597	0.499892
C64	C	0.909505	1.078964	0.500141
C65	C	1.061891	1.078983	0.500130
C66	C	0.954562	1.141252	0.593163
C67	C	1.016802	1.016856	0.695078
C68	C	1.016837	1.016807	0.591550
C69	C	1.321762	0.711883	0.000042
C70	C	1.425260	0.608385	0.000043
C71	C	1.016779	0.711909	-0.304916
C72	C	1.016769	0.608418	-0.408415
C73	C	1.321742	0.711922	-0.304909
C74	C	1.425234	0.608437	-0.408406
C75	C	0.711872	1.321753	0.304988
C76	C	0.608380	1.425239	0.408484
C77	C	0.711853	1.321792	0.000037
C78	C	0.608354	1.425291	0.000036
C79	C	1.016836	1.321767	0.304995
C80	C	1.016845	1.425257	0.408494
C81	C	1.548044	0.547842	-0.062122
C82	C	1.578897	0.409741	-0.107174
C83	C	1.578817	0.562126	0.045160
C84	C	1.454750	0.471584	-0.045072
C85	C	1.454673	0.624043	0.107321
C86	C	1.485453	0.485951	0.062296
C87	C	0.954562	0.547831	-0.406804
C88	C	1.061827	0.409746	-0.499817
C89	C	0.909524	0.562072	-0.499825
C90	C	1.124098	0.471634	-0.500066
C91	C	0.971717	0.624034	-0.500060
C92	C	1.079046	0.485959	-0.593091
C93	C	1.423611	0.547843	-0.531191
C94	C	1.516592	0.409756	-0.561983
C95	C	1.516665	0.562028	-0.562019
C96	C	1.516853	0.471650	-0.437834
C97	C	1.516911	0.623996	-0.437874
C98	C	1.609910	0.485918	-0.468593
H99	H	1.099927	0.318135	-0.197897
O100	O	0.921298	0.884905	0.501126
H101	H	0.832788	0.935584	0.500585
O102	O	0.921054	0.745301	0.227561
H103	H	0.921397	0.821752	0.226607
H104	H	1.214782	0.902003	0.500792
H105	H	1.214836	0.434263	-0.499240
H106	H	0.901887	1.246525	0.672788
O107	O	1.649657	0.611442	0.095650
H108	H	1.598407	0.700495	0.184147
O109	O	0.515724	0.884950	0.095543
H110	H	0.438735	0.954122	0.172004
O111	O	1.515728	0.422181	-0.367118
H112	H	1.592565	0.396633	-0.340977
O113	O	1.581720	0.583733	-0.131895
H114	H	1.632227	0.495578	-0.220881
H115	H	1.517654	0.599063	-0.615646
H116	H	0.517677	1.131530	0.197945
H117	H	1.632425	0.318116	-0.197849
H118	H	1.459799	0.458926	0.114904
H119	H	0.902045	0.574902	-0.327050
O120	O	0.715589	0.753091	-0.131932
H121	H	0.766397	0.736295	-0.077043
O122	O	1.148597	0.753055	0.301227
H123	H	1.237232	0.700995	0.301081
H124	H	0.818830	0.599196	0.083208
O125	O	0.517777	1.148611	-0.095721
H126	H	0.518007	1.097285	-0.184475
H127	H	1.131596	0.459020	0.115005
O128	O	0.789308	1.148530	0.499052
H129	H	0.790255	1.147922	0.421648
H130	H	0.344045	1.246571	0.114815
O131	O	1.515659	0.745366	-0.367025
H132	H	1.438652	0.821321	-0.289857
O133	O	1.112315	0.288374	-0.501066
H134	H	1.060534	0.313281	-0.424677
H135	H	1.214709	0.434523	-0.083149
H136	H	1.401148	0.715691	0.197976
O137	O	0.884828	0.583865	-0.131748
H138	H	0.795830	0.622372	-0.094087
O139	O	1.112404	1.148573	0.498827
H140	H	1.201474	1.096723	0.497660
O141	O	1.148816	0.450157	-0.698575
H142	H	1.237765	0.411809	-0.699290
H143	H	0.933575	0.715686	-0.499074
H144	H	1.689538	0.458878	-0.442936
O145	O	0.515672	0.884997	-0.227371
H146	H	0.592058	0.781744	-0.278842
O147	O	0.789387	0.611336	-0.501038
H148	H	0.737934	0.635941	-0.424633
O149	O	1.384114	0.422001	-0.095699
H150	H	1.307324	0.499710	-0.095392
H151	H	1.343852	0.574938	-0.556631
H152	H	1.517489	0.318156	-0.615463
