data_functionalizedCrystal
_audit_creation_method	'MofGen! by Chris Wilmer'
_symmetry_space_group_name_H-M	'P1'
_symmetry_Int_Tables_number	1
_symmetry_cell_setting	triclinic
loop_
_symmetry_equiv_pos_as_xyz
  x,y,z
_cell_length_a	16.109301
_cell_length_b	16.109301
_cell_length_c	7.540329
_cell_angle_alpha	90.004610
_cell_angle_beta	89.998886
_cell_angle_gamma	83.461481
loop_
_atom_site_label
_atom_site_type_symbol
_atom_site_fract_x
_atom_site_fract_y
_atom_site_fract_z
O1	O	1.103129	0.106866	0.147376
O2	O	0.861067	0.120165	0.147405
O3	O	0.988747	-0.007516	0.147372
O4	O	0.975448	0.234546	0.147409
O5	O	0.988743	-0.007517	-0.147594
O6	O	0.861062	0.120164	-0.147560
O7	O	1.103124	0.106865	-0.147589
Cu8	Cu	0.982093	0.113514	-0.174507
Cu9	Cu	0.982098	0.113515	0.174323
O10	O	0.975444	0.234545	-0.147556
C11	C	0.830090	0.119626	-0.000074
C12	C	0.737794	0.118011	-0.000064
C13	C	0.515522	0.190018	-0.000073
C14	C	0.428801	0.188494	-0.000085
C15	C	0.448676	0.037006	-0.000101
C16	C	0.535394	0.038530	-0.000102
C17	C	0.568815	0.115039	-0.000079
C18	C	0.395376	0.111990	-0.000090
C19	C	0.301350	0.110337	-0.000102
C20	C	0.662847	0.116693	-0.000070
C21	C	0.988206	-0.038491	-0.000112
C22	C	0.986591	-0.130786	-0.000114
C23	C	1.058599	-0.353059	-0.000095
C24	C	1.057075	-0.439779	-0.000080
C25	C	0.905586	-0.419905	-0.000069
C26	C	0.907111	-0.333186	-0.000071
C27	C	0.983620	-0.299766	-0.000093
C28	C	0.980571	-0.473205	-0.000076
C29	C	0.978918	-0.567231	-0.000060
C30	C	0.985273	-0.205734	-0.000105
C31	C	1.134101	0.107404	-0.000106
C32	C	1.226397	0.109019	-0.000105
C33	C	0.975984	0.265521	-0.000069
C34	C	0.977600	0.357816	-0.000055
N35	N	0.982095	0.113513	-0.419856
N36	N	0.982102	0.113510	0.419672
H37	H	0.385413	0.249550	-0.000083
H38	H	1.118130	-0.483168	-0.000078
H39	H	0.843295	-0.447127	-0.000054
O40	O	0.548087	0.264283	-0.000299
C41	C	0.634422	0.353941	-0.153154
C42	C	0.597617	0.269798	-0.153095
H43	H	0.674461	0.358435	-0.276695
H44	H	0.674577	0.358459	-0.029793
H45	H	0.581420	0.407255	-0.153067
H46	H	0.650566	0.216436	-0.153244
H47	H	0.557440	0.265353	-0.276445
H48	H	0.421454	-0.025285	-0.000130
H49	H	0.578788	-0.022530	-0.000112
O50	O	0.834195	-0.281530	-0.000149
C51	C	0.683777	-0.270961	-0.000026
C52	C	0.766287	-0.329556	0.000011
H53	H	0.628852	-0.309766	0.000141
H54	H	0.680647	-0.229883	-0.123495
H55	H	0.680754	-0.229844	0.123389
H56	H	0.769365	-0.370725	-0.123321
H57	H	0.769382	-0.370577	0.123562
H58	H	1.120897	-0.325851	-0.000109
