data_functionalizedCrystal
_audit_creation_method	'MofGen! by Chris Wilmer'
_symmetry_space_group_name_H-M	'P1'
_symmetry_Int_Tables_number	1
_symmetry_cell_setting	triclinic
loop_
_symmetry_equiv_pos_as_xyz
  x,y,z
_cell_length_a	33.592126
_cell_length_b	33.591377
_cell_length_c	33.588093
_cell_angle_alpha	60.004089
_cell_angle_beta	60.008299
_cell_angle_gamma	59.994549
loop_
_atom_site_label
_atom_site_type_symbol
_atom_site_fract_x
_atom_site_fract_y
_atom_site_fract_z
O1	O	0.055297	-0.581666	0.486338
O2	O	0.020882	-0.452873	0.391864
O3	O	0.102445	-0.534352	0.391775
O4	O	-0.026266	-0.500187	0.486427
O5	O	0.129510	-0.507292	0.418747
O6	O	0.047947	-0.425814	0.418835
O7	O	0.082362	-0.554606	0.513309
Cu8	Cu	0.067626	-0.487739	0.468535
Cu9	Cu	0.035618	-0.519740	0.436638
O10	O	0.000799	-0.473128	0.513398
N11	N	0.090139	-0.465235	0.490972
N12	N	0.013110	-0.542249	0.414202
C13	C	0.124394	-0.431229	0.734914
C14	C	0.334265	-0.431145	0.524799
C15	C	0.124204	-0.431200	0.524965
C16	C	0.124184	-0.221175	0.524955
C17	C	0.158017	-0.322536	0.558710
C18	C	0.158027	-0.397406	0.558711
C19	C	0.176763	-0.378688	0.577408
C20	C	0.258412	-0.364594	0.534386
C21	C	0.309454	-0.381596	0.517340
C22	C	0.309485	-0.464188	0.548836
C23	C	0.258444	-0.447186	0.565883
C24	C	0.170304	-0.297002	0.508532
C25	C	0.153260	-0.245956	0.491537
C26	C	0.111648	-0.245983	0.574901
C27	C	0.128691	-0.297029	0.591896
C28	C	0.107841	-0.385091	0.571080
C29	C	0.090813	-0.402108	0.554078
C30	C	0.174153	-0.443755	0.512351
C31	C	0.191183	-0.426739	0.529347
C32	C	0.107923	-0.385106	0.659111
C33	C	0.090955	-0.402138	0.710156
C34	C	0.174335	-0.443795	0.710087
C35	C	0.191302	-0.426764	0.659041
C36	C	0.158095	-0.397418	0.633555
C37	C	0.232909	-0.397388	0.558656
C38	C	0.105069	-0.449619	0.791057
C39	C	0.390406	-0.449193	0.505789
C40	C	0.104813	-0.449599	0.506607
C41	C	0.105125	-0.165028	0.506915
C42	C	-0.020560	-0.576246	0.169890
C43	C	-0.020889	-0.786183	0.379970
C44	C	-0.020859	-0.576235	0.380063
C45	C	-0.230772	-0.576015	0.379658
C46	C	-0.129417	-0.609898	0.346025
C47	C	-0.054587	-0.609979	0.346172
C48	C	-0.073269	-0.628671	0.327396
C49	C	-0.087401	-0.710299	0.370335
C50	C	-0.070424	-0.761345	0.387369
C51	C	0.012165	-0.761428	0.356003
C52	C	-0.004813	-0.710383	0.338967
C53	C	-0.155001	-0.622196	0.396191
C54	C	-0.206043	-0.605128	0.413125
C55	C	-0.205914	-0.563467	0.329724
C56	C	-0.154872	-0.580535	0.312790
C57	C	-0.066886	-0.559797	0.333828
C58	C	-0.049903	-0.542809	0.350903
C59	C	-0.008321	-0.626180	0.392654
C60	C	-0.025304	-0.643170	0.375585
C61	C	-0.066758	-0.559805	0.245702
C62	C	-0.049671	-0.542819	0.194658
C63	C	-0.008026	-0.626194	0.194706
C64	C	-0.025111	-0.643179	0.245752
C65	C	-0.054479	-0.609983	0.271248
C66	C	-0.054597	-0.684821	0.346135
C67	C	-0.002109	-0.556901	0.113746
C68	C	-0.002869	-0.842328	0.398966
C69	C	-0.002496	-0.556887	0.398501
C70	C	-0.286914	-0.556929	0.397631
N71	N	0.436349	-0.465146	0.490703
O72	O	0.592194	-0.469605	0.374236
O73	O	0.592389	-0.564393	0.502890
O74	O	0.592305	-0.564176	0.421300
O75	O	0.592277	-0.469822	0.455826
O76	O	0.511216	-0.537214	0.448415
O77	O	0.511300	-0.537431	0.530004
O78	O	0.511104	-0.442643	0.401350
Cu79	Cu	0.503798	-0.487575	0.468153
Cu80	Cu	0.599695	-0.519461	0.436087
O81	O	0.511188	-0.442860	0.482940
N82	N	0.667145	-0.541890	0.413532
N83	N	0.090108	-0.119085	0.490958
O84	O	-0.026275	0.036848	0.486394
O85	O	0.102381	0.036888	0.391584
O86	O	0.020751	0.036852	0.391854
O87	O	0.055356	0.036884	0.486124
O88	O	0.047821	-0.044242	0.418876
O89	O	0.129452	-0.044207	0.418606
O90	O	0.000796	-0.044246	0.513417
Cu91	Cu	0.067596	-0.051631	0.468479
Cu92	Cu	0.035582	0.044273	0.436522
O93	O	0.082426	-0.044211	0.513146
N94	N	0.013063	0.111726	0.414043
N95	N	0.090453	-0.465282	0.837001
O96	O	0.085913	-0.581648	0.992925
O97	O	-0.008857	-0.452947	0.992970
O98	O	-0.008635	-0.534562	0.992946
O99	O	0.085691	-0.500033	0.992949
O100	O	0.018365	-0.507512	0.911855
O101	O	0.018143	-0.425898	0.911878
O102	O	0.112912	-0.554598	0.911834
Cu103	Cu	0.067993	-0.487778	0.904452
Cu104	Cu	0.036063	-0.519767	1.000352
O105	O	0.112691	-0.472984	0.911857
N106	N	0.013602	-0.542269	1.067803
C107	C	0.031188	-0.423114	0.392334
C108	C	0.132194	-0.524016	0.392223
C109	C	0.072056	-0.584366	0.512840
C110	C	-0.028950	-0.483464	0.512950
C111	C	0.551868	-0.563965	0.532655
C112	C	0.551766	-0.563697	0.431617
C113	C	0.551623	-0.443070	0.371586
C114	C	0.551728	-0.443339	0.472623
C115	C	0.132090	-0.003555	0.392006
C116	C	0.031035	-0.003698	0.392374
C117	C	-0.028947	-0.003703	0.512961
C118	C	0.072143	-0.003661	0.512626
C119	C	-0.008408	-0.423209	0.952430
C120	C	-0.008128	-0.524272	0.952385
C121	C	0.112464	-0.584336	0.952374
C122	C	0.112190	-0.483267	0.952401
H123	H	0.080878	-0.361206	0.638363
O124	O	0.147901	-0.628464	0.952377
C125	C	0.130356	-0.658803	0.952355
H126	H	0.088826	-0.645602	0.967718
H127	H	0.142737	-0.657475	0.913447
C128	C	0.201578	-0.727784	0.965269
C129	C	0.150569	-0.711573	0.984142
H130	H	0.214047	-0.760335	0.984875
H131	H	0.213399	-0.707344	0.965282
H132	H	0.211888	-0.726673	0.932846
H133	H	0.140259	-0.712678	1.016561
H134	H	0.138746	-0.732015	0.984135
O135	O	0.551692	-0.599016	0.422813
C136	C	0.509673	-0.582245	0.411371
H137	H	0.480313	-0.551986	0.427133
H138	H	0.519118	-0.567523	0.370084
C139	C	0.526737	-0.661853	0.413994
C140	C	0.490675	-0.624691	0.433357
H141	H	0.515019	-0.688036	0.427554
H142	H	0.555047	-0.673152	0.421701
H143	H	0.534605	-0.649578	0.379589
H144	H	0.482813	-0.636965	0.467761
H145	H	0.462364	-0.613395	0.425657
H146	H	0.168963	-0.003318	0.362168
O147	O	-0.043511	-0.533074	0.952430
C148	C	-0.084640	-0.527652	0.994414
H149	H	-0.072986	-0.532951	1.023793
H150	H	-0.112263	-0.489573	0.984923
C151	C	-0.122311	-0.559501	0.977329
C152	C	-0.107996	-0.566013	1.013413
H153	H	-0.136719	-0.583162	0.989047
H154	H	-0.094602	-0.563152	0.949042
H155	H	-0.145327	-0.527767	0.969423
H156	H	-0.084975	-0.597744	1.021315
H157	H	-0.135701	-0.562368	1.041702
H158	H	0.023834	-0.386116	0.362662
O159	O	-0.043859	-0.379094	0.952467
C160	C	-0.026304	-0.348746	0.952461
H161	H	0.005004	-0.372191	0.967804
H162	H	-0.012781	-0.324117	0.913560
C163	C	-0.106143	-0.288400	0.965430
C164	C	-0.067692	-0.317196	0.984280
H165	H	-0.131673	-0.268937	0.985056
H166	H	-0.117970	-0.308845	0.965433
H167	H	-0.094867	-0.267880	0.933013
H168	H	-0.078967	-0.337719	1.016694
H169	H	-0.055868	-0.296753	0.984284
H170	H	0.079554	-0.003651	0.542242
H171	H	0.023621	-0.003702	0.362756
O172	O	-0.073061	-0.003686	0.548408
C173	C	-0.103422	-0.003711	0.530886
H174	H	-0.090239	0.011635	0.489353
H175	H	-0.102100	-0.042619	0.543293
C176	C	-0.172369	0.009243	0.602100
C177	C	-0.156180	0.028095	0.551089
H178	H	-0.204913	0.028860	0.614564
H179	H	-0.151914	0.009258	0.613906
H180	H	-0.171263	-0.023180	0.612433
H181	H	-0.157280	0.060515	0.540757
H182	H	-0.176636	0.028086	0.539281
O183	O	0.206660	-0.472305	0.734765
C184	C	0.254581	-0.479505	0.701260
H185	H	0.254454	-0.473798	0.664886
H186	H	0.269195	-0.452326	0.695818
C187	C	0.287511	-0.538802	0.765821
C188	C	0.287356	-0.531797	0.721148
H189	H	0.307729	-0.571057	0.778090
H190	H	0.255226	-0.533951	0.788395
H191	H	0.299688	-0.516149	0.761280
H192	H	0.275173	-0.554445	0.725690
H193	H	0.319640	-0.536654	0.698575
H194	H	-0.090673	-0.532769	0.266460
O195	O	-0.061904	-0.494067	0.338992
C196	C	-0.087642	-0.481697	0.381863
H197	H	-0.104958	-0.510442	0.412509
H198	H	-0.061425	-0.480025	0.392665
C199	C	-0.106515	-0.396311	0.335065
C200	C	-0.127785	-0.431613	0.372703
H201	H	-0.131275	-0.365416	0.329415
H202	H	-0.089173	-0.404644	0.306182
H203	H	-0.084668	-0.394924	0.344072
H204	H	-0.149627	-0.433004	0.363694
H205	H	-0.145132	-0.423279	0.401585
O206	O	0.042199	-0.390105	0.734901
C207	C	0.016532	-0.360562	0.701457
H208	H	0.040851	-0.341997	0.665061
H209	H	0.005516	-0.384110	0.696041
C210	C	-0.059345	-0.344360	0.766108
C211	C	-0.029477	-0.321555	0.721408
H212	H	-0.087727	-0.320300	0.778415
H213	H	-0.042054	-0.364265	0.788640
H214	H	-0.068520	-0.363983	0.761589
H215	H	-0.020298	-0.301937	0.725929
H216	H	-0.046769	-0.301645	0.698877
O217	O	0.042047	-0.390123	0.566157
C218	C	0.016432	-0.360578	0.595713
H219	H	0.040801	-0.367087	0.614243
H220	H	0.005390	-0.320592	0.572184
C221	C	-0.059482	-0.365534	0.611995
C222	C	-0.029552	-0.373531	0.634756
H223	H	-0.087848	-0.373522	0.636077
H224	H	-0.042225	-0.385437	0.592080
H225	H	-0.068678	-0.332212	0.592388
H226	H	-0.020352	-0.406854	0.654358
H227	H	-0.046809	-0.353634	0.654675
H228	H	0.551560	-0.413310	0.334638
O229	O	0.551695	-0.408023	0.481520
C230	C	0.551770	-0.425792	0.529429
H231	H	0.536460	-0.457114	0.552505
H232	H	0.590687	-0.439364	0.528670
C233	C	0.538769	-0.346088	0.523275
C234	C	0.519960	-0.384556	0.551618
H235	H	0.519149	-0.320651	0.536962
H236	H	0.538720	-0.334116	0.490997
H237	H	0.571199	-0.357404	0.522644
H238	H	0.487533	-0.373240	0.552243
H239	H	0.520003	-0.396524	0.583897
H240	H	0.141823	-0.475877	0.952395
H241	H	0.232159	-0.436796	0.638236
H242	H	0.080840	-0.361208	0.594989
H243	H	0.232048	-0.436761	0.519270
O244	O	0.206388	-0.472174	0.483757
C245	C	0.235870	-0.446379	0.440949
H246	H	0.216136	-0.405545	0.433873
H247	H	0.271739	-0.457234	0.445565
C248	C	0.270514	-0.508855	0.406202
C249	C	0.246275	-0.458701	0.397508
H250	H	0.276935	-0.516457	0.379406
H251	H	0.250653	-0.526235	0.435043
H252	H	0.300403	-0.517894	0.410049
H253	H	0.216384	-0.449664	0.393667
H254	H	0.266131	-0.441320	0.368665
O255	O	0.233691	-0.479051	0.589379
C256	C	0.246150	-0.502958	0.558145
H257	H	0.260148	-0.479710	0.518629
H258	H	0.275795	-0.539792	0.566354
C259	C	0.183610	-0.539275	0.614853
C260	C	0.200799	-0.510719	0.566319
H261	H	0.155636	-0.544064	0.619896
H262	H	0.175217	-0.523170	0.635897
H263	H	0.208319	-0.569967	0.621688
H264	H	0.176092	-0.480026	0.559486
H265	H	0.209186	-0.526819	0.545274
O266	O	0.334369	-0.512544	0.555793
C267	C	0.384889	-0.520519	0.535554
H268	H	0.391833	-0.485385	0.506295
H269	H	0.399403	-0.532281	0.565414
C270	C	0.402556	-0.603956	0.548573
C271	C	0.411086	-0.560805	0.512633
H272	H	0.418717	-0.628807	0.534436
H273	H	0.368521	-0.598584	0.562210
H274	H	0.414652	-0.613751	0.573453
H275	H	0.398985	-0.551008	0.487757
H276	H	0.445121	-0.566176	0.498991
O277	O	0.334154	-0.349672	0.493754
C278	C	0.300670	-0.302074	0.491041
H279	H	0.264278	-0.300094	0.494410
H280	H	0.295267	-0.292547	0.521961
C281	C	0.365251	-0.268058	0.437618
C282	C	0.320555	-0.265625	0.441753
H283	H	0.377517	-0.245574	0.407216
H284	H	0.387810	-0.300126	0.439448
H285	H	0.360742	-0.260120	0.463388
H286	H	0.325066	-0.273569	0.415987
H287	H	0.297997	-0.233558	0.439918
H288	H	0.237625	-0.324046	0.528499
H289	H	0.194180	-0.317769	0.481510
O290	O	0.165255	-0.221224	0.442776
C291	C	0.194782	-0.254684	0.417130
H292	H	0.213370	-0.291071	0.441454
H293	H	0.171219	-0.260117	0.406147
C294	C	0.210928	-0.190047	0.341221
C295	C	0.233761	-0.234738	0.371095
H296	H	0.234971	-0.177744	0.312823
H297	H	0.191033	-0.167504	0.358498
H298	H	0.191293	-0.194581	0.332073
H299	H	0.253391	-0.230203	0.380247
H300	H	0.253660	-0.257280	0.353818
O301	O	0.083153	-0.221278	0.607201
C302	C	0.075983	-0.254762	0.655136
H303	H	0.081691	-0.291150	0.655047
H304	H	0.103174	-0.260181	0.669727
C305	C	0.016696	-0.190169	0.688019
C306	C	0.023703	-0.234861	0.687909
H307	H	-0.015552	-0.177893	0.708236
H308	H	0.021528	-0.167610	0.655724
H309	H	0.039359	-0.194691	0.700177
H310	H	0.001044	-0.230337	0.675746
H311	H	0.018866	-0.257419	0.720203
H312	H	-0.059677	-0.501957	0.173865
O313	O	0.020506	-0.658507	0.170018
C314	C	0.027665	-0.706438	0.203514
H315	H	0.021913	-0.706336	0.239916
H316	H	0.000496	-0.721024	0.208889
C317	C	0.087020	-0.739351	0.138960
C318	C	0.079959	-0.739227	0.183668
H319	H	0.119277	-0.759578	0.126718
H320	H	0.082196	-0.707060	0.116393
H321	H	0.064376	-0.751505	0.143446
H322	H	0.102599	-0.727067	0.179181
H323	H	0.084789	-0.771518	0.206235
O324	O	-0.095346	-0.527489	0.305282
C325	C	-0.102551	-0.479556	0.298044
H326	H	-0.096897	-0.479652	0.328854
H327	H	-0.075341	-0.464965	0.261713
C328	C	-0.161758	-0.446657	0.259751
C329	C	-0.154819	-0.446774	0.297596
H330	H	-0.193999	-0.426435	0.259473
H331	H	-0.156903	-0.478950	0.264626
H332	H	-0.139080	-0.434499	0.229480
H333	H	-0.177492	-0.458938	0.327867
H334	H	-0.159679	-0.414482	0.292726
H335	H	0.118680	-0.317820	0.632757
O336	O	0.551914	-0.599515	0.576714
C337	C	0.551956	-0.641499	0.576693
H338	H	0.536565	-0.630698	0.547844
H339	H	0.590873	-0.667976	0.568138
C340	C	0.539123	-0.679451	0.662631
C341	C	0.520217	-0.666184	0.627200
H342	H	0.519547	-0.694680	0.693787
H343	H	0.539097	-0.651167	0.662645
H344	H	0.571554	-0.701513	0.655496
H345	H	0.487790	-0.644118	0.634333
H346	H	0.520237	-0.694466	0.627189
H347	H	0.079411	-0.621363	0.542512
H348	H	-0.015108	-0.684041	0.266548
O349	O	-0.073029	-0.474732	0.548424
C350	C	-0.081753	-0.435264	0.559672
H351	H	-0.045549	-0.431339	0.548876
H352	H	-0.105292	-0.400313	0.538747
C353	C	-0.152857	-0.449485	0.628072
C354	C	-0.108390	-0.444667	0.614815
H355	H	-0.169290	-0.455284	0.662086
H356	H	-0.146981	-0.476074	0.620493
H357	H	-0.172467	-0.420357	0.610630
H358	H	-0.088779	-0.473797	0.632252
H359	H	-0.114264	-0.418083	0.622398
O360	O	0.020104	-0.658489	0.421234
C361	C	0.027327	-0.706422	0.428452
H362	H	-0.003423	-0.706297	0.422682
H363	H	0.063710	-0.721080	0.401326
C364	C	0.065377	-0.739303	0.487858
C365	C	0.027606	-0.739150	0.480776
H366	H	0.065551	-0.759492	0.520133
H367	H	0.060512	-0.707010	0.482994
H368	H	0.095692	-0.751517	0.465249
H369	H	-0.002708	-0.726930	0.503379
H370	H	0.032465	-0.771441	0.485644
H371	H	0.021903	-0.689639	0.319262
O372	O	0.060540	-0.786242	0.348956
C373	C	0.086936	-0.773792	0.298574
H374	H	0.061895	-0.759737	0.277431
H375	H	0.101606	-0.744189	0.287200
C376	C	0.160531	-0.836430	0.313435
C377	C	0.129777	-0.819171	0.287466
H378	H	0.186959	-0.864421	0.306583
H379	H	0.142749	-0.844816	0.347379
H380	H	0.172752	-0.811757	0.303954
H381	H	0.117553	-0.843842	0.296952
H382	H	0.147559	-0.810790	0.253524
O383	O	-0.102367	-0.786021	0.410943
C384	C	-0.149951	-0.752513	0.413637
H385	H	-0.151902	-0.716120	0.410238
H386	H	-0.159487	-0.747116	0.382726
C387	C	-0.184014	-0.817058	0.467105
C388	C	-0.186412	-0.772361	0.462933
H389	H	-0.206506	-0.829302	0.497511
H390	H	-0.151956	-0.839634	0.465288
H391	H	-0.191960	-0.812556	0.441343
H392	H	-0.178460	-0.776866	0.488691
H393	H	-0.218470	-0.749787	0.464755
H394	H	-0.015291	-0.684031	0.385637
H395	H	-0.134277	-0.646110	0.423254
O396	O	-0.230824	-0.617140	0.461875
C397	C	-0.197412	-0.646708	0.487578
H398	H	-0.161008	-0.665294	0.463273
H399	H	-0.192002	-0.623176	0.498621
C400	C	-0.262108	-0.662862	0.563417
C401	C	-0.217397	-0.685693	0.533568
H402	H	-0.274436	-0.686909	0.591787
H403	H	-0.284619	-0.642940	0.546102
H404	H	-0.257594	-0.643253	0.572615
H405	H	-0.221913	-0.705297	0.524366
H406	H	-0.194887	-0.705619	0.550883
H407	H	-0.127938	-0.689491	0.376175
H408	H	0.169160	-0.531297	0.362501
H409	H	-0.134040	-0.570516	0.271939
O410	O	-0.230568	-0.534937	0.297376
C411	C	-0.197041	-0.527762	0.249464
H412	H	-0.160672	-0.533501	0.249618
H413	H	-0.191602	-0.554932	0.234835
C414	C	-0.261564	-0.468419	0.216492
C415	C	-0.216896	-0.475464	0.216681
H416	H	-0.273812	-0.436160	0.196269
H417	H	-0.284153	-0.473254	0.248771
H418	H	-0.257026	-0.491064	0.204302
H419	H	-0.221436	-0.452823	0.228876
H420	H	-0.194309	-0.470623	0.184404
