data_functionalizedCrystal
_audit_creation_method	'MofGen! by Chris Wilmer'
_symmetry_space_group_name_H-M	'P1'
_symmetry_Int_Tables_number	1
_symmetry_cell_setting	triclinic
loop_
_symmetry_equiv_pos_as_xyz
  x,y,z
_cell_length_a	12.759401
_cell_length_b	12.759400
_cell_length_c	19.076919
_cell_angle_alpha	87.725144
_cell_angle_beta	87.716999
_cell_angle_gamma	90.013799
loop_
_atom_site_label
_atom_site_type_symbol
_atom_site_fract_x
_atom_site_fract_y
_atom_site_fract_z
Zn1	Zn	1.582345	-0.442178	0.397930
Zn2	Zn	1.589311	-0.610814	0.280242
Zn3	Zn	1.413718	-0.435147	0.280253
Zn4	Zn	1.406638	-0.617811	0.397902
O5	O	1.498003	-0.526488	0.339082
O6	O	1.730290	-0.464562	0.382326
O7	O	1.571897	-0.581641	0.181754
O8	O	1.436135	-0.289060	0.295879
O9	O	1.735408	-0.588458	0.295861
O10	O	1.560025	-0.294225	0.382336
O11	O	1.442889	-0.452579	0.181762
O12	O	1.265758	-0.459364	0.295852
O13	O	1.424067	-0.600383	0.496395
O14	O	1.260556	-0.593566	0.382288
O15	O	1.553159	-0.471347	0.496416
O16	O	1.565031	-0.758762	0.295834
O17	O	1.430822	-0.763903	0.382278
C18	C	1.225037	-0.526462	0.339068
C19	C	1.108259	-0.526478	0.339079
C20	C	1.056070	-0.456516	0.294155
C21	C	0.946345	-0.456541	0.294164
C22	C	0.941009	-0.596495	0.384028
C23	C	1.050731	-0.596473	0.384015
C24	C	1.113598	-0.386520	0.249219
C25	C	1.061409	-0.316551	0.204291
C26	C	0.951684	-0.316577	0.204300
C27	C	0.894149	-0.386571	0.249237
C28	C	1.497942	-0.799454	0.339067
C29	C	1.498010	-0.916232	0.339084
C30	C	1.567964	-0.968385	0.294123
C31	C	1.568028	-1.078110	0.294144
C32	C	1.428173	-1.083519	0.384091
C33	C	1.428116	-0.973796	0.384073
C34	C	1.637859	-0.910820	0.249134
C35	C	1.707818	-0.962974	0.204168
C36	C	1.707881	-1.072699	0.204190
C37	C	1.637985	-1.130271	0.249178
C38	C	1.772036	-0.526514	0.339096
C39	C	1.888812	-0.526525	0.339101
C40	C	1.487046	-0.537430	0.522657
C41	C	1.482377	-0.542093	0.600885
C42	C	1.498093	-0.252456	0.339112
C43	C	1.498131	-0.135680	0.339125
C44	C	1.508978	-0.515512	0.156221
C45	C	1.513850	-0.510553	0.077993
C46	C	1.547391	-0.477104	0.637649
C47	C	1.542991	-0.481481	0.711153
C48	C	1.473582	-0.550853	0.747892
C49	C	1.408561	-0.615845	0.711123
C50	C	1.412956	-0.611461	0.637620
C51	C	1.453224	-0.571162	0.967721
C52	C	1.448836	-0.575542	1.041229
C53	C	1.583266	-0.441177	1.041254
C54	C	1.587660	-0.436804	0.967750
C55	C	1.522635	-0.501791	0.930987
N56	N	1.469085	-0.555332	0.823025
N57	N	1.527127	-0.497307	0.855855
H58	H	1.093225	-0.653442	0.420597
C59	C	1.055663	-0.178229	0.115456
C60	C	1.124646	-0.239625	0.154892
H61	H	1.094704	-0.130745	0.084955
H62	H	1.011050	-0.139951	0.146170
H63	H	1.014463	-0.222357	0.088491
H64	H	1.165841	-0.195497	0.181862
H65	H	1.169277	-0.277906	0.124174
H66	H	1.202941	-0.386489	0.249208
C67	C	1.365938	-0.807997	0.423979
C68	C	1.351221	-0.916460	0.433494
H69	H	1.318471	-0.772602	0.454495
H70	H	1.353428	-0.787245	0.376684
H71	H	1.435895	-0.790585	0.434317
H72	H	1.281266	-0.933872	0.423151
H73	H	1.363723	-0.937219	0.480800
C74	C	1.759832	-0.391366	1.063909
C75	C	1.654731	-0.369738	1.081666
H76	H	1.803949	-0.347262	1.088862
H77	H	1.772374	-0.378825	1.014882
H78	H	1.774453	-0.462677	1.075953
H79	H	1.640107	-0.298429	1.069617
H80	H	1.642183	-0.382271	1.130704
H81	H	1.371266	-1.130403	0.420717
C82	C	1.566973	-0.330856	0.555008
C83	C	1.623686	-0.400843	0.597269
H84	H	1.614076	-0.283777	0.530079
H85	H	1.519504	-0.292382	0.583684
H86	H	1.528891	-0.368947	0.522593
H87	H	1.661762	-0.362753	0.629688
H88	H	1.671173	-0.439321	0.568590
C89	C	0.946749	-0.734823	0.472860
C90	C	0.877769	-0.673417	0.433429
H91	H	0.907706	-0.782312	0.503357
H92	H	0.987950	-0.690709	0.499824
H93	H	0.991362	-0.773105	0.442138
H94	H	0.833160	-0.635129	0.464151
H95	H	0.836550	-0.717537	0.406463
H96	H	1.637812	-0.821476	0.249110
C97	C	1.316380	-0.707911	1.033825
C98	C	1.372531	-0.651798	1.081614
H99	H	1.269274	-0.754981	1.058759
H100	H	1.363849	-0.746396	1.005155
H101	H	1.277924	-0.660409	1.005159
H102	H	1.410994	-0.699299	1.110277
H103	H	1.325056	-0.613311	1.110296
C104	C	1.676324	-0.348244	0.703795
C105	C	1.614465	-0.410050	0.751564
H106	H	1.720454	-0.304149	0.728745
H107	H	1.632281	-0.306341	0.675128
H108	H	1.718203	-0.392331	0.675124
H109	H	1.572580	-0.365964	0.780232
H110	H	1.658512	-0.451958	0.780243
C111	C	0.785860	-0.254510	0.164385
C112	C	0.894316	-0.239699	0.154898
H113	H	0.750447	-0.207055	0.133878
H114	H	0.765063	-0.242045	0.211682
H115	H	0.768516	-0.324473	0.154016
H116	H	0.911661	-0.169738	0.165272
H117	H	0.915121	-0.252156	0.107590
C118	C	1.640216	-0.257546	0.945177
C119	C	1.663948	-0.360522	0.927384
H120	H	1.687312	-0.210450	0.920258
H121	H	1.646894	-0.250883	0.994211
H122	H	1.570349	-0.241466	0.933117
H123	H	1.733813	-0.376605	0.939448
H124	H	1.657280	-0.367189	0.878339
H125	H	1.400292	-0.624095	0.937798
H126	H	1.764731	-0.916093	0.167545
H127	H	1.764853	-1.115159	0.167582
H128	H	0.804804	-0.386591	0.249238
C129	C	1.388973	-0.762097	0.793761
C130	C	1.332264	-0.692101	0.751505
H131	H	1.341870	-0.809179	0.818686
H132	H	1.427055	-0.724019	0.826174
H133	H	1.436445	-0.800574	0.765078
H134	H	1.284797	-0.653618	0.780189
H135	H	1.294165	-0.730183	0.719088
C136	C	1.279667	-0.744744	0.644974
C137	C	1.341509	-0.682917	0.597207
H138	H	1.235564	-0.788865	0.620023
H139	H	1.237770	-0.700680	0.673638
H140	H	1.323730	-0.786632	0.673648
H141	H	1.297446	-0.641024	0.568536
H142	H	1.383409	-0.726987	0.568530
H143	H	1.638050	-1.219617	0.249197
