data_functionalizedCrystal
_audit_creation_method	'MofGen! by Chris Wilmer'
_symmetry_space_group_name_H-M	'P1'
_symmetry_Int_Tables_number	1
_symmetry_cell_setting	triclinic
loop_
_symmetry_equiv_pos_as_xyz
  x,y,z
_cell_length_a	19.805399
_cell_length_b	19.805407
_cell_length_c	19.805405
_cell_angle_alpha	90.026410
_cell_angle_beta	90.029301
_cell_angle_gamma	90.019573
loop_
_atom_site_label
_atom_site_type_symbol
_atom_site_fract_x
_atom_site_fract_y
_atom_site_fract_z
Zn1	Zn	-0.382712	-1.034736	0.269479
Zn2	Zn	0.117288	-0.534736	0.769479
Zn3	Zn	-0.269520	-1.034651	0.382667
Zn4	Zn	0.230480	-0.534651	0.882667
Zn5	Zn	-0.269536	-0.921550	0.269498
Zn6	Zn	0.230464	-0.421550	0.769498
Zn7	Zn	-0.382667	-0.921514	0.382631
Zn8	Zn	0.117333	-0.421514	0.882631
O9	O	-0.326109	-0.978113	0.326069
O10	O	0.173891	-0.478113	0.826069
O11	O	-0.367708	-1.129441	0.284501
O12	O	0.132292	-0.629441	0.784501
O13	O	-0.174805	-1.019627	0.367678
O14	O	0.325195	-0.519627	0.867678
O15	O	-0.284575	-0.936616	0.174778
O16	O	0.215425	-0.436616	0.674778
O17	O	-0.284547	-1.129378	0.367660
O18	O	0.215453	-0.629378	0.867660
O19	O	-0.367724	-1.019772	0.174765
O20	O	0.132276	-0.519772	0.674765
O21	O	-0.174817	-0.936533	0.284533
O22	O	0.325183	-0.436533	0.784533
O23	O	-0.284531	-0.826829	0.284498
O24	O	0.215469	-0.326829	0.784498
O25	O	-0.477389	-0.936553	0.367598
O26	O	0.022611	-0.436553	0.867598
O27	O	-0.367648	-0.826802	0.367617
O28	O	0.132352	-0.326802	0.867617
O29	O	-0.477422	-1.019737	0.284466
O30	O	0.022578	-0.519737	0.784466
O31	O	-0.284503	-1.019592	0.477379
O32	O	0.215497	-0.519592	0.977379
O33	O	-0.367632	-0.936471	0.477353
O34	O	0.132368	-0.436471	0.977353
C35	C	-0.326087	-0.802257	0.326056
C36	C	0.173913	-0.302257	0.826056
C37	C	-0.326093	-0.727025	0.326067
C38	C	0.173907	-0.227025	0.826067
C39	C	-0.326076	-0.978036	0.501925
C40	C	0.173924	-0.478036	1.001925
C41	C	-0.326084	-0.978066	0.577157
C42	C	0.173916	-0.478066	1.077157
C43	C	-0.502651	-0.978151	0.326026
C44	C	-0.002651	-0.478151	0.826026
C45	C	-0.577883	-0.978167	0.326008
C46	C	-0.077883	-0.478167	0.826008
C47	C	-0.613246	-1.021481	0.282719
C48	C	-0.113246	-0.521481	0.782719
C49	C	-0.683934	-1.021488	0.282699
C50	C	-0.183934	-0.521488	0.782699
C51	C	-0.719259	-0.978184	0.325973
C52	C	-0.219259	-0.478184	0.825973
C53	C	-0.683892	-0.934864	0.369264
C54	C	-0.183892	-0.434864	0.869264
C55	C	-0.613204	-0.934854	0.369279
C56	C	-0.113204	-0.434854	0.869279
C57	C	-0.968965	-0.934902	0.369201
C58	C	-0.468965	-0.434902	0.869201
C59	C	-1.039657	-0.934917	0.369183
C60	C	-0.539657	-0.434917	0.869183
C61	C	-1.039695	-1.021536	0.282620
C62	C	-0.539695	-0.521536	0.782620
C63	C	-0.969008	-1.021527	0.282636
C64	C	-0.469008	-0.521527	0.782636
C65	C	-0.933647	-0.978205	0.325924
C66	C	-0.433647	-0.478205	0.825924
C67	C	-0.856998	-0.978197	0.325944
C68	C	-0.356998	-0.478197	0.825944
C69	C	-0.795906	-0.978194	0.325957
C70	C	-0.295906	-0.478194	0.825957
C71	C	-0.150253	-0.978114	0.326062
C72	C	0.349747	-0.478114	0.826062
C73	C	-0.075021	-0.978229	0.325890
C74	C	0.424979	-0.478229	0.825890
C75	C	-0.326131	-1.154655	0.326082
C76	C	0.173869	-0.654655	0.826082
C77	C	-0.326140	-1.229887	0.326088
C78	C	0.173860	-0.729887	0.826088
C79	C	-0.369302	-0.691684	0.369412
C80	C	0.130698	-0.191684	0.869412
C81	C	-0.369312	-0.620996	0.369413
C82	C	0.130688	-0.120996	0.869413
C83	C	-0.326109	-0.585649	0.326072
C84	C	0.173891	-0.085649	0.826072
C85	C	-0.282898	-0.620994	0.282722
C86	C	0.217102	-0.120994	0.782722
C87	C	-0.282892	-0.691681	0.282718
C88	C	0.217108	-0.191681	0.782718
C89	C	-0.282920	-0.335921	0.282737
C90	C	0.217080	0.164079	0.782737
C91	C	-0.282928	-0.265229	0.282746
C92	C	0.217072	0.234771	0.782746
C93	C	-0.369340	-0.265235	0.369432
C94	C	0.130660	0.234765	0.869432
C95	C	-0.369334	-0.335922	0.369428
C96	C	0.130666	0.164078	0.869428
C97	C	-0.326126	-0.371262	0.326076
C98	C	0.173874	0.128738	0.826076
C99	C	-0.326117	-0.447910	0.326074
C100	C	0.173883	0.052090	0.826074
C101	C	-0.326114	-0.509002	0.326076
C102	C	0.173886	-0.009002	0.826076
C103	C	-0.326156	-0.978207	0.149526
C104	C	0.173844	-0.478207	0.649526
C105	C	-0.326177	-0.978248	0.074294
C106	C	0.173823	-0.478248	0.574294
C107	C	-0.282845	-1.021389	0.612492
C108	C	0.217155	-0.521389	1.112492
C109	C	-0.282860	-1.021418	0.683181
C110	C	0.217140	-0.521418	1.183181
C111	C	-0.326111	-0.978119	0.718532
C112	C	0.173889	-0.478119	1.218532
C113	C	-0.369356	-0.934794	0.683192
C114	C	0.130644	-0.434794	1.183192
C115	C	-0.369344	-0.934769	0.612505
C116	C	0.130656	-0.434769	1.112505
C117	C	-0.369406	-0.934894	0.968265
C118	C	0.130594	-0.434894	1.468265
C119	C	-0.369413	-0.934921	1.038957
C120	C	0.130587	-0.434921	1.538957
C121	C	-0.282922	-1.021542	1.038941
C122	C	0.217078	-0.521542	1.538941
C123	C	-0.282910	-1.021517	0.968254
C124	C	0.217090	-0.521517	1.468254
C125	C	-0.326157	-0.978195	0.932920
C126	C	0.173843	-0.478195	1.432920
C127	C	-0.326141	-0.978166	0.856271
C128	C	0.173859	-0.478166	1.356271
C129	C	-0.326124	-0.978145	0.795179
C130	C	0.173876	-0.478145	1.295179
H131	H	-0.584489	-1.056747	0.247482
H132	H	-0.084489	-0.556747	0.747482
Br133	Br	-0.224271	-0.573025	0.223895
Br134	Br	0.275729	-0.073025	0.723895
Br135	Br	-0.731924	-1.080307	0.223978
Br136	Br	-0.231924	-0.580307	0.723978
Br137	Br	-0.224253	-0.739645	0.223886
Br138	Br	0.275747	-0.239645	0.723886
Br139	Br	-0.921070	-1.080303	0.223909
Br140	Br	-0.421070	-0.580303	0.723909
H141	H	-1.068495	-1.056809	0.247370
H142	H	-0.568495	-0.556809	0.747370
Br143	Br	-0.224136	-1.080148	0.564522
Br144	Br	0.275864	-0.580148	1.064522
Br145	Br	-0.428098	-0.876100	0.920320
Br146	Br	0.071902	-0.376100	1.420320
H147	H	-0.940183	-0.899637	0.404459
H148	H	-0.440183	-0.399637	0.904459
Br149	Br	-0.224208	-1.080280	0.920280
Br150	Br	0.275792	-0.580280	1.420280
Br151	Br	-0.427979	-0.217271	0.428270
Br152	Br	0.072021	0.282729	0.928270
H153	H	-1.068417	-0.899650	0.404423
H154	H	-0.568417	-0.399650	0.904423
Br155	Br	-0.427933	-0.739648	0.428240
Br156	Br	0.072067	-0.239648	0.928240
Br157	Br	-0.731832	-0.876088	0.427989
Br158	Br	-0.231832	-0.376088	0.927989
H159	H	-0.247733	-0.364686	0.247442
H160	H	0.252267	0.135314	0.747442
H161	H	-0.584413	-0.899576	0.404523
H162	H	-0.084413	-0.399576	0.904523
Br163	Br	-0.427956	-0.573036	0.428239
Br164	Br	0.072044	-0.073036	0.928239
Br165	Br	-0.224179	-1.080220	0.731134
Br166	Br	0.275821	-0.580220	1.231134
Br167	Br	-0.224231	-1.080340	1.086898
Br168	Br	0.275769	-0.580340	1.586898
Br169	Br	-0.427965	-0.383890	0.428254
Br170	Br	0.072035	0.116110	0.928254
H171	H	-0.247747	-0.236452	0.247448
H172	H	0.252253	0.263548	0.747448
Br173	Br	-0.428061	-0.876037	0.731168
Br174	Br	0.071939	-0.376037	1.231168
H175	H	-0.404639	-0.899663	1.067739
H176	H	0.095361	-0.399663	1.567739
H177	H	-0.404555	-0.899492	0.583735
H178	H	0.095445	-0.399492	1.083735
