data_functionalizedCrystal
_audit_creation_method	'MofGen! by Chris Wilmer'
_symmetry_space_group_name_H-M	'P1'
_symmetry_Int_Tables_number	1
_symmetry_cell_setting	triclinic
loop_
_symmetry_equiv_pos_as_xyz
  x,y,z
_cell_length_a	14.044190
_cell_length_b	10.868271
_cell_length_c	11.792241
_cell_angle_alpha	90.000107
_cell_angle_beta	91.307403
_cell_angle_gamma	89.990065
loop_
_atom_site_label
_atom_site_type_symbol
_atom_site_fract_x
_atom_site_fract_y
_atom_site_fract_z
O1	O	0.129987	-0.102217	-1.519115
O2	O	0.463320	0.231116	-1.185782
O3	O	0.796654	0.564450	-0.852448
O4	O	0.143384	-0.102247	-1.190032
O5	O	0.476717	0.231086	-0.856699
O6	O	0.810050	0.564420	-0.523365
O7	O	-0.001325	-0.102208	-1.349630
O8	O	0.332008	0.231125	-1.016297
O9	O	0.665342	0.564459	-0.682963
O10	O	0.274696	-0.102256	-1.359517
O11	O	0.608029	0.231078	-1.026184
O12	O	0.941362	0.564411	-0.692851
O13	O	-0.001331	0.102436	-1.349615
O14	O	0.332003	0.435770	-1.016282
O15	O	0.665336	0.769103	-0.682948
O16	O	0.143378	0.102398	-1.190017
O17	O	0.476711	0.435731	-0.856684
O18	O	0.810045	0.769064	-0.523351
O19	O	0.129981	0.102428	-1.519100
O20	O	0.463315	0.435761	-1.185767
O21	O	0.796648	0.769094	-0.852434
Zn22	Zn	0.136679	0.134904	-1.354556
Zn23	Zn	0.470012	0.468238	-1.021223
Zn24	Zn	0.803345	0.801571	-0.687890
Zn25	Zn	0.136686	-0.134724	-1.354576
Zn26	Zn	0.470020	0.198610	-1.021243
Zn27	Zn	0.803353	0.531943	-0.687909
O28	O	0.274690	0.102389	-1.359502
O29	O	0.608023	0.435722	-1.026169
O30	O	0.941357	0.769056	-0.692836
C31	C	0.142539	0.000072	-1.147655
C32	C	0.475873	0.333405	-0.814321
C33	C	0.809206	0.666738	-0.480988
C34	C	0.140021	0.000061	-1.021404
C35	C	0.473354	0.333395	-0.688071
C36	C	0.806687	0.666728	-0.354738
C37	C	-0.036664	0.000117	-1.345297
C38	C	0.296669	0.333451	-1.011964
C39	C	0.630002	0.666784	-0.678630
C40	C	-0.141957	0.000127	-1.332395
C41	C	0.191377	0.333460	-0.999062
C42	C	0.524710	0.666794	-0.665728
N43	N	0.136673	0.318919	-1.354551
N44	N	0.470006	0.652252	-1.021218
N45	N	0.803340	0.985585	-0.687885
C46	C	-0.391894	0.000085	-1.400312
C47	C	-0.058561	0.333418	-1.066979
C48	C	0.274773	0.666752	-0.733645
C49	C	-0.334735	0.000085	-1.308825
C50	C	-0.001402	0.333418	-0.975492
C51	C	0.331931	0.666752	-0.642159
C52	C	-0.227463	0.000108	-1.321943
C53	C	0.105870	0.333442	-0.988609
C54	C	0.439203	0.666775	-0.655276
C55	C	-0.499176	0.000062	-1.387197
C56	C	-0.165843	0.333395	-1.053863
C57	C	0.167491	0.666728	-0.720530
C58	C	0.310029	0.000061	-1.363835
C59	C	0.643363	0.333394	-1.030502
C60	C	0.976696	0.666727	-0.697169
C61	C	0.415322	0.000043	-1.376737
C62	C	0.748655	0.333376	-1.043404
C63	C	1.081988	0.666710	-0.710071
N64	N	0.136684	-0.318738	-1.354589
N65	N	0.470018	0.014596	-1.021256
N66	N	0.803351	0.347929	-0.687923
C67	C	0.136684	0.569925	-1.354570
C68	C	0.470018	0.903258	-1.021236
C69	C	0.803351	1.236591	-0.687903
C70	C	0.136681	0.430247	-1.354556
C71	C	0.470014	0.763580	-1.021223
C72	C	0.803347	1.096914	-0.687889
C73	C	0.130826	0.000106	-1.561478
C74	C	0.464159	0.333440	-1.228144
C75	C	0.797492	0.666773	-0.894811
C76	C	0.133344	0.000109	-1.687728
C77	C	0.466678	0.333442	-1.354395
C78	C	0.800011	0.666775	-1.021061
C79	C	0.135389	0.000097	-0.790257
C80	C	0.468722	0.333431	-0.456924
C81	C	0.802056	0.666764	-0.123591
C82	C	0.137962	0.000078	-0.918884
C83	C	0.471296	0.333411	-0.585551
C84	C	0.804629	0.666744	-0.252217
H85	H	-0.360267	0.000106	-1.488481
H86	H	-0.026934	0.333439	-1.155148
H87	H	0.306399	0.666772	-0.821814
O88	O	-0.372570	-0.000091	-1.203687
O89	O	-0.039236	0.333242	-0.870354
O90	O	0.294097	0.666575	-0.537021
C91	C	-0.429126	-0.106104	-1.190651
C92	C	-0.095793	0.227230	-0.857318
C93	C	0.237540	0.560563	-0.523984
H94	H	-0.453176	-0.141443	-1.277702
H95	H	-0.119843	0.191891	-0.944368
H96	H	0.213490	0.525224	-0.611035
H97	H	-0.494213	-0.082278	-1.138953
H98	H	-0.160880	0.251055	-0.805620
H99	H	0.172453	0.584388	-0.472287
H100	H	-0.385725	-0.180313	-1.144756
H101	H	-0.052391	0.153020	-0.811423
H102	H	0.280942	0.486354	-0.478090
