data_functionalizedCrystal
_audit_creation_method	'MofGen! by Chris Wilmer'
_symmetry_space_group_name_H-M	'P1'
_symmetry_Int_Tables_number	1
_symmetry_cell_setting	triclinic
loop_
_symmetry_equiv_pos_as_xyz
  x,y,z
_cell_length_a	12.759401
_cell_length_b	19.077114
_cell_length_c	19.077569
_cell_angle_alpha	90.066337
_cell_angle_beta	92.312889
_cell_angle_gamma	87.670160
loop_
_atom_site_label
_atom_site_type_symbol
_atom_site_fract_x
_atom_site_fract_y
_atom_site_fract_z
Zn1	Zn	1.614785	0.263779	0.408517
Zn2	Zn	1.600555	0.386009	0.295727
Zn3	Zn	1.431770	0.268521	0.291027
Zn4	Zn	1.432268	0.381256	0.413198
O5	O	1.519844	0.324891	0.352117
O6	O	1.759919	0.279998	0.393563
O7	O	1.572002	0.374398	0.196772
O8	O	1.461795	0.169559	0.302686
O9	O	1.749464	0.369800	0.310697
O10	O	1.596255	0.166075	0.389005
O11	O	1.447997	0.288080	0.193319
O12	O	1.284815	0.283471	0.307225
O13	O	1.462642	0.361698	0.510909
O14	O	1.285180	0.366297	0.396984
O15	O	1.596737	0.275389	0.507470
O16	O	1.572484	0.483712	0.315236
O17	O	1.448844	0.480220	0.401542
C18	C	1.246877	0.324883	0.352103
C19	C	1.130100	0.324896	0.352114
C20	C	1.075447	0.368095	0.398784
C21	C	0.965724	0.368097	0.398798
C22	C	0.965315	0.281700	0.305467
C23	C	1.075037	0.281695	0.305457
C24	C	1.509203	0.507462	0.359422
C25	C	1.504749	0.585566	0.362571
C26	C	1.567083	0.624053	0.319153
C27	C	1.562900	0.697439	0.322118
C28	C	1.496376	0.732338	0.368499
C29	C	1.434039	0.693846	0.411922
C30	C	1.438228	0.620460	0.408959
C31	C	1.476942	0.951623	0.382177
C32	C	1.472754	1.025014	0.385135
C33	C	1.601617	1.028602	0.295332
C34	C	1.605796	0.955216	0.292370
C35	C	1.543464	0.916730	0.335796
N36	N	1.492095	0.807350	0.371530
N37	N	1.547750	0.841718	0.332768
C38	C	1.793878	0.324900	0.352132
C39	C	1.910655	0.324904	0.352138
C40	C	1.531332	0.317484	0.535399
C41	C	1.536228	0.314328	0.613503
C42	C	1.530548	1.141607	0.344808
C43	C	1.535089	1.063500	0.341717
C44	C	1.508465	0.332219	0.169547
C45	C	1.503784	0.335177	0.091436
C46	C	1.468713	0.357779	0.651987
C47	C	1.473322	0.354813	0.725374
C48	C	1.545441	0.308392	0.760274
C49	C	1.612962	0.264940	0.721784
C50	C	1.608358	0.267910	0.648399
C51	C	1.566702	0.294695	0.979560
C52	C	1.571299	0.291727	1.052951
C53	C	1.431659	0.381601	1.056536
C54	C	1.427057	0.384564	0.983149
C55	C	1.494582	0.341114	0.944665
N56	N	1.550151	0.305358	0.835287
N57	N	1.489877	0.344152	0.869654
H58	H	1.120277	0.403270	0.436777
O59	O	0.912795	0.410127	0.444156
C60	C	0.984929	0.448239	0.485345
H61	H	1.061188	0.451786	0.456645
H62	H	1.001462	0.420433	0.537728
C63	C	0.844717	0.518283	0.533595
C64	C	0.938376	0.522645	0.498342
H65	H	0.816001	0.564180	0.541616
H66	H	0.796118	0.492605	0.505848
H67	H	0.858507	0.495109	0.577244
H68	H	0.924583	0.545812	0.454691
H69	H	0.986972	0.548330	0.526083
H70	H	1.613658	0.728772	0.286762
O71	O	0.911660	0.239803	0.260170
C72	C	0.803098	0.249057	0.270197
H73	H	0.786394	0.302398	0.295290
H74	H	0.776750	0.205924	0.306028
C75	C	0.763185	0.179860	0.168035
C76	C	0.742667	0.245377	0.198849
H77	H	0.725906	0.177588	0.124025
H78	H	0.836325	0.173623	0.161281
H79	H	0.741227	0.143923	0.197901
H80	H	0.764637	0.281312	0.168988
H81	H	0.669529	0.251620	0.205597
O82	O	1.128076	0.239809	0.260021
C83	C	1.095949	0.257875	0.190572
H84	H	1.062285	0.314155	0.189178
H85	H	1.033306	0.220914	0.170763
C86	C	1.232296	0.182392	0.145067
C87	C	1.190958	0.251517	0.143353
H88	H	1.290900	0.178467	0.115938
H89	H	1.253939	0.170218	0.191855
H90	H	1.180084	0.151599	0.128560
H91	H	1.243165	0.282308	0.159868
H92	H	1.169326	0.263697	0.096567
H93	H	1.663335	0.232527	0.617065
H94	H	1.376684	0.416975	1.087877
H95	H	1.387471	0.589125	0.444316
H96	H	1.409974	0.395571	0.623577
H97	H	1.659965	0.926803	0.254604
O98	O	1.632331	0.252414	0.942290
C99	C	1.696983	0.210818	0.988833
H100	H	1.657368	0.206269	1.041044
H101	H	1.775761	0.236236	0.997672
C102	C	1.763356	0.142775	0.893080
C103	C	1.714696	0.137183	0.957204
H104	H	1.774288	0.097354	0.873569
H105	H	1.719803	0.170801	0.861722
H106	H	1.829000	0.163960	0.900454
H107	H	1.649049	0.116007	0.949828
H108	H	1.758240	0.109152	0.988560
H109	H	1.621249	0.595643	0.281382
H110	H	1.652366	1.059945	0.259978
O111	O	1.408113	1.058804	0.430258
C112	C	1.353978	1.009101	0.467942
H113	H	1.400147	0.956663	0.468287
H114	H	1.273038	1.002394	0.441857
C115	C	1.285110	1.099106	0.543449
C116	C	1.341819	1.034702	0.543879
H117	H	1.277604	1.114898	0.590290
H118	H	1.321578	1.132592	0.518060
H119	H	1.217665	1.093508	0.521708
H120	H	1.409266	1.040302	0.565611
H121	H	1.305362	1.001217	0.569274
O122	O	1.416540	0.914214	0.424428
C123	C	1.481561	0.869864	0.468129
H124	H	1.563322	0.891747	0.473410
H125	H	1.487012	0.815129	0.444167
C126	C	1.334358	0.838918	0.534614
C127	C	1.434776	0.865799	0.541105
H128	H	1.305498	0.836407	0.579628
H129	H	1.290551	0.868795	0.505171
H130	H	1.338915	0.793308	0.514643
H131	H	1.430217	0.911411	0.561067
H132	H	1.478582	0.835929	0.570553
O133	O	1.369274	0.727667	0.456940
C134	C	1.264632	0.710435	0.440791
H135	H	1.263837	0.658258	0.411626
H136	H	1.224661	0.753233	0.406312
C137	C	1.206374	0.768366	0.544941
C138	C	1.205397	0.704278	0.509126
H139	H	1.169833	0.764571	0.587092
H140	H	1.276873	0.779978	0.555820
H141	H	1.173066	0.804025	0.516202
H142	H	1.238716	0.668622	0.537861
H143	H	1.134902	0.692659	0.498253
O144	O	1.407627	0.397045	0.762650
C145	C	1.342999	0.438661	0.716111
H146	H	1.337765	0.411994	0.662649
H147	H	1.377857	0.492349	0.710439
C148	C	1.238814	0.480375	0.810815
C149	C	1.232378	0.447618	0.745154
H150	H	1.170579	0.485903	0.828731
H151	H	1.282357	0.452339	0.842170
H152	H	1.267866	0.525111	0.806079
H153	H	1.203339	0.402880	0.749892
H154	H	1.188828	0.475647	0.713800
H155	H	1.368346	0.422375	0.954739
H156	H	1.630023	0.253919	1.081364
H157	H	1.671687	0.227146	0.750206
