data_functionalizedCrystal
_audit_creation_method	'MofGen! by Chris Wilmer'
_symmetry_space_group_name_H-M	'P1'
_symmetry_Int_Tables_number	1
_symmetry_cell_setting	triclinic
loop_
_symmetry_equiv_pos_as_xyz
  x,y,z
_cell_length_a	8.965430
_cell_length_b	10.489741
_cell_length_c	10.489741
_cell_angle_alpha	95.460826
_cell_angle_beta	90.000707
_cell_angle_gamma	90.001157
loop_
_atom_site_label
_atom_site_type_symbol
_atom_site_fract_x
_atom_site_fract_y
_atom_site_fract_z
O1	O	-0.123946	-1.694053	0.179958
O2	O	-0.123969	-1.322858	0.196851
O3	O	-0.123948	-1.516902	0.002807
O4	O	-0.123967	-1.500009	0.374003
O5	O	0.124130	-1.516886	0.002820
O6	O	0.124110	-1.322841	0.196864
O7	O	0.124133	-1.694037	0.179971
Cu8	Cu	0.146773	-1.508438	0.188419
Cu9	Cu	-0.146609	-1.508457	0.188404
O10	O	0.124112	-1.499993	0.374016
C11	C	0.000067	-1.275318	0.195582
C12	C	0.000059	-1.133688	0.191765
N13	N	0.353122	-1.508433	0.188429
C14	C	0.000090	-1.515618	-0.044718
C15	C	0.000087	-1.511801	-0.186348
N16	N	-0.352958	-1.508471	0.188384
C17	C	0.450418	-1.418666	0.278138
C18	C	0.549838	-1.534163	0.303949
C19	C	0.549830	-1.392986	0.162629
C20	C	0.450352	-1.623988	0.214298
C21	C	0.450336	-1.482735	0.072927
C22	C	0.549711	-1.598314	0.098690
C23	C	0.000093	-1.741577	0.181241
C24	C	0.000092	-1.883206	0.185058
C25	C	0.000079	-1.065548	0.068300
C26	C	-0.122237	-0.973430	0.126617
C27	C	0.122349	-0.973447	0.126659
C28	C	-0.122358	-1.043435	0.250133
C29	C	0.122338	-1.043462	0.250158
C30	C	-0.000007	-0.951371	0.308564
C31	C	0.000069	-1.388336	-0.254488
C32	C	0.122388	-1.446652	-0.346604
C33	C	-0.122198	-1.446697	-0.346591
C34	C	0.122508	-1.570167	-0.276599
C35	C	-0.122189	-1.570195	-0.276576
C36	C	0.000161	-1.628600	-0.368665
C37	C	0.000070	-1.501277	0.421541
C38	C	0.000063	-1.505094	0.563170
H39	H	0.406821	-1.342824	0.354072
C40	C	0.697021	-1.461344	0.487833
C41	C	0.608857	-1.563538	0.435777
H42	H	0.733458	-1.479477	0.569216
H43	H	0.638741	-1.385416	0.497234
H44	H	0.778670	-1.449846	0.432358
H45	H	0.527201	-1.575030	0.491247
H46	H	0.667140	-1.639488	0.426382
H47	H	0.000185	-1.286824	-0.204837
H48	H	0.225749	-1.074502	0.302361
C49	C	-0.127914	-1.784636	-0.511130
C50	C	0.000218	-1.765773	-0.435354
H51	H	-0.127884	-1.869327	-0.552283
H52	H	-0.128759	-1.725068	-0.573887
H53	H	-0.213999	-1.772325	-0.458603
H54	H	0.086304	-1.778075	-0.487883
H55	H	0.001077	-1.825359	-0.372590
H56	H	-0.225600	-1.622398	-0.245537
H57	H	-0.225620	-1.394447	-0.377561
H58	H	0.406840	-1.721659	0.236216
H59	H	0.593034	-1.674327	0.022803
H60	H	-0.000079	-0.901947	0.410168
C61	C	0.261701	-0.989810	-0.069677
C62	C	0.261953	-0.931618	0.056123
H63	H	0.347886	-0.963993	-0.113224
H64	H	0.174855	-0.964665	-0.112702
H65	H	0.262217	-1.080240	-0.068417
H66	H	0.261426	-0.841188	0.054863
H67	H	0.348822	-0.956755	0.099159
C68	C	0.441394	-1.332282	-0.085663
C69	C	0.391269	-1.453310	-0.058861
H70	H	0.404917	-1.314105	-0.167020
H71	H	0.547326	-1.331308	-0.086416
H72	H	0.405911	-1.269351	-0.021737
H73	H	0.426762	-1.516242	-0.122782
H74	H	0.285315	-1.454294	-0.058119
H75	H	0.593530	-1.295338	0.140828
H76	H	-0.000069	-1.115238	-0.033196
C77	C	-0.261602	-0.989729	-0.069715
C78	C	-0.261825	-0.931554	0.056091
H79	H	-0.347770	-0.963872	-0.113260
H80	H	-0.262160	-1.080148	-0.068471
H81	H	-0.174732	-0.964599	-0.112741
H82	H	-0.348690	-0.956692	0.099120
H83	H	-0.261282	-0.841115	0.054854
H84	H	-0.225883	-1.074270	0.302327
H85	H	0.225794	-1.394404	-0.377610
H86	H	0.226035	-1.622355	-0.245761
