data_functionalizedCrystal
_audit_creation_method	'MofGen! by Chris Wilmer'
_symmetry_space_group_name_H-M	'P1'
_symmetry_Int_Tables_number	1
_symmetry_cell_setting	triclinic
loop_
_symmetry_equiv_pos_as_xyz
  x,y,z
_cell_length_a	8.597340
_cell_length_b	15.944493
_cell_length_c	7.681187
_cell_angle_alpha	84.264453
_cell_angle_beta	88.174630
_cell_angle_gamma	84.409319
loop_
_atom_site_label
_atom_site_type_symbol
_atom_site_fract_x
_atom_site_fract_y
_atom_site_fract_z
O1	O	2.065445	0.134297	-0.166970
O2	O	1.615435	0.140265	-0.098691
O3	O	1.852777	0.015204	-0.134688
O4	O	1.828103	0.259357	-0.130973
O5	O	1.823527	0.030619	-0.423122
O6	O	1.586186	0.155680	-0.387125
O7	O	2.036195	0.149711	-0.455404
Zn8	Zn	1.806547	0.155143	-0.467060
Zn9	Zn	1.845084	0.134833	-0.087035
O10	O	1.798854	0.274772	-0.419408
C11	C	1.543226	0.146472	-0.234171
C12	C	1.371641	0.141993	-0.208135
C13	C	1.837145	-0.008400	-0.278744
C14	C	1.834124	-0.101699	-0.278264
C15	C	1.973824	-0.335164	-0.299494
C16	C	1.912908	-0.394569	-0.145851
C17	C	1.828520	-0.272511	-0.277435
C18	C	1.884037	-0.379348	-0.430219
C19	C	1.823117	-0.437508	-0.276644
C20	C	1.767656	-0.330694	-0.123681
C21	C	1.738792	-0.315462	-0.408180
C22	C	1.677774	-0.374838	-0.254486
C23	C	1.831637	-0.177461	-0.277890
C24	C	1.819990	-0.532556	-0.276175
C25	C	2.108405	0.143504	-0.319921
C26	C	2.279991	0.147983	-0.345945
C27	C	1.814486	0.298376	-0.275347
C28	C	1.817508	0.391675	-0.275816
N29	N	1.780257	0.169004	-0.726418
N30	N	1.871386	0.120966	0.172321
H31	H	2.099001	-0.317488	-0.318341
H32	H	1.332792	0.156532	-0.483855
H33	H	1.318834	0.133437	-0.070217
H34	H	1.986465	-0.428933	-0.034930
H35	H	1.933241	-0.400846	-0.559756
N36	N	1.706038	-0.303867	0.038977
N37	N	1.698505	-0.227406	0.064904
H38	H	1.654992	-0.208457	0.179780
N39	N	1.520646	-0.396820	-0.230537
N40	N	1.444339	-0.380404	-0.094863
H41	H	1.333369	-0.395930	-0.077940
H42	H	1.964367	0.071935	-0.766535
N43	N	1.646566	-0.272342	-0.547342
N44	N	1.579301	-0.313744	-0.647204
H45	H	1.514173	-0.283292	-0.745503
N46	N	1.663605	0.230496	-0.803125
N47	N	1.647343	0.239074	-0.965254
H48	H	1.564954	0.282504	-1.019440
