data_functionalizedCrystal
_audit_creation_method	'MofGen! by Chris Wilmer'
_symmetry_space_group_name_H-M	'P1'
_symmetry_Int_Tables_number	1
_symmetry_cell_setting	triclinic
loop_
_symmetry_equiv_pos_as_xyz
  x,y,z
_cell_length_a	13.339070
_cell_length_b	10.489741
_cell_length_c	11.804365
_cell_angle_alpha	101.953620
_cell_angle_beta	74.875130
_cell_angle_gamma	100.084234
loop_
_atom_site_label
_atom_site_type_symbol
_atom_site_fract_x
_atom_site_fract_y
_atom_site_fract_z
O1	O	1.367264	0.622515	-0.099068
O2	O	1.072122	0.538369	-0.099061
O3	O	1.226407	0.397145	-0.099058
O4	O	1.212978	0.763739	-0.099072
O5	O	1.185789	0.434272	0.098997
O6	O	1.031504	0.575496	0.098994
O7	O	1.326646	0.659642	0.098987
Cu8	Cu	1.175366	0.620959	0.117074
Cu9	Cu	1.223401	0.577052	-0.117149
O10	O	1.172361	0.800866	0.098983
C11	C	1.014020	0.542719	-0.000033
C12	C	0.901409	0.500350	-0.000030
C13	C	0.539023	0.829782	-0.000062
C14	C	0.644827	0.869592	-0.000068
C15	C	0.708977	0.777285	-0.000058
C16	C	0.667314	0.645161	-0.000043
C17	C	0.561501	0.605345	-0.000046
C18	C	0.731456	0.552848	-0.000042
C19	C	0.689793	0.420724	-0.000027
C20	C	0.583990	0.380914	-0.000029
C21	C	0.519840	0.473222	-0.000039
C22	C	0.837269	0.592664	-0.000039
C23	C	0.859747	0.368227	-0.000024
C24	C	0.753943	0.328417	-0.000017
C25	C	1.205084	0.367829	-0.000031
C26	C	1.202049	0.225160	-0.000033
C27	C	1.103883	0.123412	-0.000040
C28	C	1.130230	0.065470	0.097611
C29	C	1.170299	0.028899	-0.097656
C30	C	1.228420	0.169113	0.097698
C31	C	1.268494	0.132530	-0.097657
C32	C	1.294907	0.074645	0.000017
C33	C	1.384748	0.655292	-0.000044
C34	C	1.497361	0.697659	-0.000055
C35	C	1.193684	0.830182	-0.000046
C36	C	1.196721	0.972849	-0.000052
N37	N	1.141588	0.651843	0.281814
N38	N	1.257187	0.546161	-0.281889
C39	C	1.338301	0.471974	0.655767
C40	C	1.363852	0.448605	0.531106
C41	C	1.308288	0.499412	0.468777
C42	C	1.227169	0.573593	0.531121
C43	C	1.201620	0.596973	0.655794
C44	C	1.171607	0.624411	0.468804
C45	C	1.090488	0.698592	0.531148
C46	C	1.064942	0.721968	0.655809
C47	C	1.120506	0.671160	0.718139
C48	C	1.197156	0.601031	0.344131
C49	C	1.060475	0.726030	0.344158
C50	C	1.034923	0.749399	0.468819
H51	H	0.486785	0.904922	-0.000080
H52	H	1.099700	0.690183	0.819648
H53	H	1.263204	0.540633	0.293381
C54	C	1.279161	0.166584	0.277909
C55	C	1.261563	0.250817	0.209274
H56	H	1.299625	0.217029	0.346786
H57	H	1.216682	0.109556	0.301242
H58	H	1.333125	0.116055	0.232249
H59	H	1.207594	0.301339	0.254931
H60	H	1.324050	0.307867	0.185942
C61	C	0.932403	0.843174	0.643312
C62	C	0.975782	0.803518	0.724340
H63	H	0.877356	0.893514	0.685621
H64	H	0.984917	0.895022	0.594676
H65	H	0.905501	0.767876	0.594699
H66	H	1.002691	0.878817	0.772948
H67	H	0.923258	0.751668	0.772997
C68	C	1.419295	0.397867	0.290187
C69	C	1.336365	0.473712	0.331747
H70	H	1.436622	0.381989	0.205587
H71	H	1.478457	0.443652	0.318363
H72	H	1.399037	0.316509	0.318412
H73	H	1.356625	0.555075	0.303529
H74	H	1.277191	0.427927	0.303559
H75	H	0.871179	0.700241	-0.000047
C76	C	1.496379	0.327394	0.543611
C77	C	1.453008	0.367060	0.462581
H78	H	1.551418	0.277041	0.501303
H79	H	1.523282	0.402677	0.592220
H80	H	1.443852	0.275543	0.592251
H81	H	1.505534	0.418919	0.413947
H82	H	1.426106	0.291765	0.413952
H83	H	1.023150	0.145450	0.000061
H84	H	0.433684	0.440814	-0.000033
C85	C	1.316778	0.101002	-0.311274
C86	C	1.347375	0.172745	-0.209109
H87	H	1.365470	0.125836	-0.380085
H88	H	1.314967	0.009817	-0.312473
H89	H	1.249152	0.118717	-0.310557
H90	H	1.414998	0.155022	-0.209822
H91	H	1.349198	0.263950	-0.207911
C92	C	1.010383	0.919092	0.305775
C93	C	0.999392	0.781886	0.275659
H94	H	0.972682	0.953572	0.263475
H95	H	0.983558	0.943622	0.388933
H96	H	1.082365	0.953131	0.285320
H97	H	0.927410	0.747846	0.296122
H98	H	1.026212	0.757345	0.192483
H99	H	0.795128	0.809707	-0.000066
C100	C	0.616837	0.163068	-0.000001
C101	C	0.538193	0.235682	-0.000017
H102	H	0.588560	0.073410	0.000015
H103	H	0.671801	0.170310	-0.069063
H104	H	0.643472	0.196226	0.069070
H105	H	0.511563	0.202530	-0.069092
H106	H	0.483210	0.228432	0.069053
H107	H	0.720008	0.220837	-0.000015
C108	C	1.031917	0.329600	-0.000002
C109	C	0.930251	0.266751	-0.000009
H110	H	1.075444	0.266957	0.000011
H111	H	1.058798	0.369276	-0.069065
H112	H	1.030457	0.395177	0.069068
H113	H	0.931710	0.201180	-0.069084
H114	H	0.903364	0.227055	0.069061
H115	H	1.071762	0.035715	0.180169
H116	H	0.968874	0.809800	0.519595
C117	C	0.797050	1.030258	-0.000143
C118	C	0.690630	1.014808	-0.000121
H119	H	0.825329	1.119910	-0.000194
H120	H	0.804845	1.003665	0.068935
H121	H	0.833153	0.977689	-0.069198
H122	H	0.654526	1.067369	0.068939
H123	H	0.682827	1.041416	-0.069206
C124	C	1.439937	-0.044512	-0.102242
C125	C	1.403967	0.045301	0.000054
H126	H	1.507272	-0.062608	-0.102224
H127	H	1.392711	-0.123609	-0.102913
H128	H	1.444239	-0.008216	-0.170968
H129	H	1.399658	0.009001	0.068780
H130	H	1.451204	0.124413	0.000736
H131	H	1.145682	-0.031766	-0.180220
H132	H	1.383539	0.430622	0.706524
