data_functionalizedCrystal
_audit_creation_method	'MofGen! by Chris Wilmer'
_symmetry_space_group_name_H-M	'P1'
_symmetry_Int_Tables_number	1
_symmetry_cell_setting	triclinic
loop_
_symmetry_equiv_pos_as_xyz
  x,y,z
_cell_length_a	17.640112
_cell_length_b	29.839131
_cell_length_c	17.639306
_cell_angle_alpha	101.185564
_cell_angle_beta	87.804122
_cell_angle_gamma	101.266684
loop_
_atom_site_label
_atom_site_type_symbol
_atom_site_fract_x
_atom_site_fract_y
_atom_site_fract_z
Zn1	Zn	1.247707	-0.057749	-0.195067
Zn2	Zn	1.747707	0.442251	0.304933
Zn3	Zn	1.221926	-0.121255	-0.068093
Zn4	Zn	1.721926	0.378745	0.431907
Zn5	Zn	1.095056	-0.063678	-0.093720
Zn6	Zn	1.595056	0.436322	0.406280
Zn7	Zn	1.120620	-0.150413	-0.220665
Zn8	Zn	1.620620	0.349587	0.279335
O9	O	1.171327	-0.098274	-0.144387
O10	O	1.671327	0.401726	0.355613
O11	O	1.350569	-0.051489	-0.156786
O12	O	1.850569	0.448511	0.343214
O13	O	1.183607	-0.103896	0.034774
O14	O	1.683607	0.396104	0.534774
O15	O	1.115396	-0.000015	-0.107176
O16	O	1.615396	0.499985	0.392824
O17	O	1.331627	-0.098147	-0.063499
O18	O	1.831627	0.401853	0.436501
O19	O	1.227549	0.004341	-0.181636
O20	O	1.727549	0.504341	0.318364
O21	O	1.090396	-0.061594	0.015946
O22	O	1.590396	0.438406	0.515946
O23	O	0.992165	-0.089867	-0.131997
O24	O	1.492165	0.410133	0.368003
O25	O	1.158967	-0.147842	-0.323536
O26	O	1.658967	0.352158	0.176464
O27	O	1.010947	-0.153591	-0.225264
O28	O	1.510947	0.346409	0.274736
O29	O	1.252338	-0.079762	-0.304729
O30	O	1.752338	0.420238	0.195271
O31	O	1.208396	-0.187999	-0.088320
O32	O	1.708396	0.312001	0.411680
O33	O	1.133968	-0.209421	-0.200414
O34	O	1.633968	0.290579	0.299586
C35	C	0.973998	-0.125537	-0.184189
C36	C	1.473998	0.374463	0.315811
C37	C	0.889584	-0.137212	-0.201235
C38	C	1.389584	0.362788	0.298765
C39	C	0.563031	-0.009567	-0.014897
C40	C	1.063031	0.490433	0.485103
C41	C	0.483712	-0.020548	-0.030925
C42	C	0.983712	0.479452	0.469075
C43	C	0.503291	-0.086967	-0.127875
C44	C	1.003291	0.413033	0.372125
C45	C	0.582613	-0.075990	-0.111858
C46	C	1.082613	0.424010	0.388142
C47	C	0.612476	-0.037290	-0.055368
C48	C	1.112476	0.462710	0.444632
C49	C	0.632058	-0.103713	-0.152329
C50	C	1.132058	0.396287	0.347671
C51	C	0.711373	-0.092739	-0.136311
C52	C	1.211373	0.407261	0.363689
C53	C	0.741242	-0.054041	-0.079821
C54	C	1.241242	0.445959	0.420179
C55	C	0.691790	-0.026315	-0.039350
C56	C	1.191790	0.473685	0.460650
C57	C	0.602193	-0.142415	-0.208816
C58	C	1.102193	0.357585	0.291184
C59	C	0.651638	-0.170138	-0.249287
C60	C	1.151638	0.329862	0.250713
C61	C	0.730955	-0.159162	-0.233272
C62	C	1.230955	0.340838	0.266728
C63	C	0.760824	-0.120464	-0.176783
C64	C	1.260824	0.379536	0.323217
C65	C	0.780406	-0.186888	-0.273744
C66	C	1.280406	0.313112	0.226256
C67	C	0.859721	-0.175913	-0.257726
C68	C	1.359721	0.324087	0.242274
C69	C	0.840139	-0.109489	-0.160764
C70	C	1.340139	0.390511	0.339236
C71	C	1.171182	-0.215012	-0.144377
C72	C	1.671182	0.284988	0.355623
C73	C	1.171195	-0.264945	-0.144384
C74	C	1.671195	0.235055	0.355616
C75	C	1.210185	-0.563401	-0.086072
C76	C	1.710185	-0.063401	0.413928
C77	C	1.210284	-0.751064	-0.086083
C78	C	1.710284	-0.251064	0.413917
O79	O	1.243320	-0.765829	-0.036497
O80	O	1.743320	-0.265829	0.463503
N81	N	1.171496	-0.785699	-0.144412
N82	N	1.671496	-0.285699	0.355588
C83	C	1.132685	-0.773416	-0.202746
C84	C	1.632685	-0.273416	0.297254
O85	O	1.099702	-0.807181	-0.252363
O86	O	1.599702	-0.307181	0.247637
C87	C	1.132590	-0.585754	-0.202737
C88	C	1.632590	-0.085754	0.297263
C89	C	1.171374	-0.551121	-0.144400
C90	C	1.671374	-0.051121	0.355600
C91	C	1.248967	-0.528769	-0.027740
C92	C	1.748967	-0.028769	0.472260
C93	C	1.248938	-0.481856	-0.027736
C94	C	1.748938	0.018144	0.472264
C95	C	1.210127	-0.469576	-0.086064
C96	C	1.710127	0.030424	0.413936
C97	C	1.171345	-0.504208	-0.144396
C98	C	1.671345	-0.004208	0.355604
C99	C	1.093783	-0.573472	-0.261073
C100	C	1.593783	-0.073472	0.238927
C101	C	1.093765	-0.526552	-0.261067
C102	C	1.593765	-0.026552	0.238933
C103	C	1.132549	-0.491919	-0.202730
C104	C	1.632549	0.008081	0.297270
C105	C	1.132506	-0.445015	-0.202719
C106	C	1.632506	0.054985	0.297281
N107	N	1.171294	-0.410380	-0.144390
N108	N	1.671294	0.089620	0.355610
C109	C	1.210105	-0.422660	-0.086062
C110	C	1.710105	0.077340	0.413938
C111	C	1.132736	-0.871941	-0.202745
C112	C	1.632736	-0.371941	0.297255
C113	C	1.132758	-0.918856	-0.202746
C114	C	1.632758	-0.418856	0.297254
C115	C	1.210359	-0.896501	-0.086084
C116	C	1.710359	-0.396501	0.413916
C117	C	1.210332	-0.849585	-0.086080
C118	C	1.710332	-0.349585	0.413920
C119	C	1.171524	-0.837306	-0.144416
C120	C	1.671524	-0.337306	0.355584
C121	C	1.210041	-0.324141	-0.086057
C122	C	1.710041	0.175859	0.413943
C123	C	1.210006	-0.277226	-0.086056
C124	C	1.710006	0.222774	0.413944
C125	C	1.132408	-0.299585	-0.202720
C126	C	1.632408	0.200415	0.297280
C127	C	1.132439	-0.346497	-0.202719
C128	C	1.632439	0.153503	0.297281
C129	C	1.171261	-0.358773	-0.144384
C130	C	1.671261	0.141227	0.355616
O131	O	1.099495	-0.430216	-0.252283
O132	O	1.599495	0.069784	0.247717
O133	O	1.243097	-0.388888	-0.036462
O134	O	1.743097	0.111112	0.463538
C135	C	1.210214	-0.610314	-0.086077
C136	C	1.710214	-0.110314	0.413923
C137	C	1.171432	-0.644946	-0.144409
C138	C	1.671432	-0.144946	0.355591
C139	C	1.132621	-0.632666	-0.202736
C140	C	1.632621	-0.132666	0.297264
C141	C	1.171454	-0.691862	-0.144410
C142	C	1.671454	-0.191862	0.355590
C143	C	1.210265	-0.704142	-0.086082
C144	C	1.710265	-0.204142	0.413918
C145	C	1.249053	-0.669507	-0.027753
C146	C	1.749053	-0.169507	0.472247
C147	C	1.249024	-0.622594	-0.027749
C148	C	1.749024	-0.122594	0.472251
C149	C	1.093833	-0.667301	-0.261066
C150	C	1.593833	-0.167301	0.238934
C151	C	1.093864	-0.714213	-0.261065
C152	C	1.593864	-0.214213	0.238935
C153	C	1.132675	-0.726493	-0.202737
C154	C	1.632675	-0.226493	0.297263
C155	C	1.369427	-0.070904	-0.104429
C156	C	1.869427	0.429096	0.395571
C157	C	1.453845	-0.059241	-0.087401
C158	C	1.953845	0.440759	0.412599
C159	C	1.211380	-0.116393	-0.342457
C160	C	1.711380	0.383607	0.157543
C161	C	1.228448	-0.124115	-0.426862
C162	C	1.728448	0.375885	0.073138
C163	C	1.171497	0.018922	-0.144409
C164	C	1.671497	0.518922	0.355591
C165	C	1.171569	0.068863	-0.144419
C166	C	1.671569	0.568863	0.355581
C167	C	1.041958	-0.039406	-0.753494
C168	C	1.541958	0.460594	-0.253494
C169	C	1.058013	-0.046668	-0.832803
C170	C	1.558013	0.453332	-0.332803
C171	C	1.155063	-0.090712	-0.813179
C172	C	1.655063	0.409288	-0.313179
C173	C	1.139019	-0.083451	-0.733867
C174	C	1.639019	0.416549	-0.233867
C175	C	1.082465	-0.057798	-0.704031
C176	C	1.582465	0.442202	-0.204031
C177	C	1.179526	-0.101844	-0.684404
C178	C	1.679526	0.398156	-0.184404
C179	C	1.163480	-0.094586	-0.605099
C180	C	1.663480	0.405414	-0.105099
C181	C	1.106926	-0.068935	-0.575257
C182	C	1.606926	0.431065	-0.075257
C183	C	1.066418	-0.050540	-0.624726
C184	C	1.566418	0.449460	-0.124726
C185	C	1.236076	-0.127500	-0.714242
C186	C	1.736076	0.372500	-0.214242
C187	C	1.276583	-0.145893	-0.664779
C188	C	1.776583	0.354107	-0.164779
C189	C	1.260541	-0.138632	-0.585472
C190	C	1.760541	0.361368	-0.085472
C191	C	1.203987	-0.112981	-0.555630
C192	C	1.703987	0.387019	-0.055630
C193	C	1.301049	-0.157026	-0.536003
C194	C	1.801049	0.342974	-0.036003
C195	C	1.285002	-0.149768	-0.456698
C196	C	1.785002	0.350232	0.043302
C197	C	1.187941	-0.105722	-0.476325
C198	C	1.687941	0.394278	0.023675
C199	C	1.131474	-0.080186	0.052922
C200	C	1.631474	0.419814	0.552922
C201	C	1.114553	-0.072317	0.137357
C202	C	1.614553	0.427683	0.637357
H203	H	0.756078	-0.218400	-0.319733
H204	H	1.256078	0.281600	0.180267
Cl205	Cl	1.335922	-0.172893	-0.394513
Cl206	Cl	1.835922	0.327107	0.105487
H207	H	0.864457	-0.077970	-0.114776
H208	H	1.364457	0.422030	0.385224
Cl209	Cl	0.921884	-0.210766	-0.308602
Cl210	Cl	1.421884	0.289234	0.191398
Cl211	Cl	1.083941	-0.856513	-0.276087
Cl212	Cl	1.583941	-0.356513	0.223913
Cl213	Cl	0.600580	0.039089	0.056116
Cl214	Cl	1.100580	0.539089	0.556116
H215	H	1.020374	-0.029645	-0.600431
H216	H	1.520374	0.470355	-0.100431
H217	H	1.280522	-0.453659	0.019766
H218	H	1.780522	0.046341	0.519766
Cl219	Cl	1.083988	-0.962390	-0.276081
Cl220	Cl	1.583988	-0.462390	0.223919
Cl221	Cl	1.259148	-0.911947	-0.012757
Cl222	Cl	1.759148	-0.411947	0.487243
Cl223	Cl	1.347674	-0.178143	-0.702296
Cl224	Cl	1.847674	0.321857	-0.202296
H225	H	1.347089	-0.177917	-0.560309
H226	H	1.847089	0.322083	-0.060309
Cl227	Cl	1.045033	-0.617000	-0.334424
Cl228	Cl	1.545033	-0.117000	0.165576
H229	H	1.241588	-0.249027	-0.038548
H230	H	1.741588	0.250973	0.461452
Cl231	Cl	1.259092	-0.806050	-0.012740
Cl232	Cl	1.759092	-0.306050	0.487260
Cl233	Cl	1.083663	-0.390038	-0.276046
Cl234	Cl	1.583663	0.109962	0.223954
Cl235	Cl	1.044975	-0.511120	-0.334409
Cl236	Cl	1.544975	-0.011120	0.165591
H237	H	1.100806	-0.289579	-0.250208
H238	H	1.600806	0.210421	0.249792
H239	H	0.537609	-0.151350	-0.221856
H240	H	1.037609	0.348650	0.278144
H241	H	0.995914	-0.018510	-0.729199
H242	H	1.495914	0.481490	-0.229199
H243	H	0.805825	-0.045107	-0.066779
H244	H	1.305825	0.454893	0.433221
Cl245	Cl	1.258844	-0.339566	-0.012719
Cl246	Cl	1.758844	0.160434	0.487281
Cl247	Cl	0.465739	-0.135622	-0.198880
Cl248	Cl	0.965739	0.364378	0.301120
Cl249	Cl	0.421552	0.014306	0.019965
Cl250	Cl	0.921552	0.514306	0.519965
Cl251	Cl	1.297788	-0.579061	0.045591
Cl252	Cl	1.797788	-0.079061	0.545591
H253	H	0.716109	0.005204	0.006639
H254	H	1.216109	0.505204	0.506639
H255	H	1.280575	-0.538760	0.019758
H256	H	1.780575	-0.038760	0.519758
H257	H	1.062275	-0.742409	-0.308571
H258	H	1.562275	-0.242409	0.191429
Cl259	Cl	0.614086	-0.218793	-0.320292
Cl260	Cl	1.114086	0.281207	0.179708
H261	H	1.280652	-0.679513	0.019741
H262	H	1.780652	-0.179513	0.519741
Cl263	Cl	1.045037	-0.651872	-0.334400
Cl264	Cl	1.545037	-0.151872	0.165600
H265	H	1.141897	-0.084827	-0.452030
H266	H	1.641897	0.415173	0.047970
H267	H	1.201107	-0.111601	-0.837483
H268	H	1.701107	0.388399	-0.337483
H269	H	1.093857	-0.063029	-0.510683
H270	H	1.593857	0.436971	-0.010683
Cl271	Cl	1.007107	-0.023526	-0.894979
Cl272	Cl	1.507107	0.476474	-0.394979
Cl273	Cl	1.256250	-0.136623	-0.813941
Cl274	Cl	1.756250	0.363377	-0.313941
