data_functionalizedCrystal
_audit_creation_method	'MofGen! by Chris Wilmer'
_symmetry_space_group_name_H-M	'P1'
_symmetry_Int_Tables_number	1
_symmetry_cell_setting	triclinic
loop_
_symmetry_equiv_pos_as_xyz
  x,y,z
_cell_length_a	14.044202
_cell_length_b	12.503572
_cell_length_c	10.723024
_cell_angle_alpha	86.442056
_cell_angle_beta	91.169715
_cell_angle_gamma	86.162225
loop_
_atom_site_label
_atom_site_type_symbol
_atom_site_fract_x
_atom_site_fract_y
_atom_site_fract_z
O1	O	-1.265084	0.089261	0.294497
O2	O	-0.931751	0.422594	0.627830
O3	O	-0.598418	0.755928	0.961164
O4	O	-0.989045	0.089275	0.283620
O5	O	-0.655712	0.422609	0.616954
O6	O	-0.322379	0.755942	0.950287
O7	O	-1.133432	0.089264	0.108120
O8	O	-0.800099	0.422597	0.441453
O9	O	-0.466765	0.755930	0.774787
O10	O	-1.120698	0.089272	0.469997
O11	O	-0.787364	0.422606	0.803331
O12	O	-0.454031	0.755939	1.136664
O13	O	-1.122573	-0.089377	0.121343
O14	O	-0.789240	0.243956	0.454676
O15	O	-0.455907	0.577289	0.788009
O16	O	-0.978187	-0.089366	0.296843
O17	O	-0.644853	0.243967	0.630176
O18	O	-0.311520	0.577301	0.963510
O19	O	-1.254226	-0.089380	0.307720
O20	O	-0.920892	0.243953	0.641053
O21	O	-0.587559	0.577286	0.974386
Cu22	Cu	-1.115215	-0.105684	0.303489
Cu23	Cu	-0.781881	0.227649	0.636822
Cu24	Cu	-0.448548	0.560982	0.970155
Cu25	Cu	-1.128056	0.105579	0.287851
Cu26	Cu	-0.794723	0.438913	0.621185
Cu27	Cu	-0.461390	0.772246	0.954518
O28	O	-1.109839	-0.089369	0.483220
O29	O	-0.776506	0.243965	0.816553
O30	O	-0.443173	0.577298	1.149886
C31	C	-0.948271	-0.000044	0.285475
C32	C	-0.614937	0.333290	0.618808
C33	C	-0.281604	0.666623	0.952141
C34	C	-0.842953	-0.000038	0.271285
C35	C	-0.509620	0.333295	0.604618
C36	C	-0.176286	0.666629	0.937952
C37	C	-0.593152	-0.000047	0.345969
C38	C	-0.259819	0.333287	0.679302
C39	C	0.073515	0.666620	1.012635
C40	C	-0.650127	-0.000047	0.245365
C41	C	-0.316793	0.333286	0.578699
C42	C	0.016540	0.666619	0.912032
C43	C	-0.757425	-0.000042	0.259791
C44	C	-0.424092	0.333291	0.593124
C45	C	-0.090758	0.666625	0.926457
C46	C	-0.485843	-0.000052	0.331545
C47	C	-0.152510	0.333282	0.664879
C48	C	0.180823	0.666615	0.998212
N49	N	-1.106190	-0.254276	0.314487
N50	N	-0.772856	0.079057	0.647820
N51	N	-0.439523	0.412391	0.981154
C52	C	-1.092913	-0.473390	0.330676
C53	C	-0.759580	-0.140057	0.664010
C54	C	-0.426247	0.193277	0.997343
C55	C	-1.150362	-0.526722	0.260658
C56	C	-0.817029	-0.193388	0.593992
C57	C	-0.483695	0.139945	0.927325
C58	C	-1.142975	-0.648644	0.269666
C59	C	-0.809642	-0.315311	0.603000
C60	C	-0.476308	0.018022	0.936333
C61	C	-1.100299	-0.351456	0.321670
C62	C	-0.766966	-0.018123	0.655003
C63	C	-0.433633	0.315210	0.988336
C64	C	-0.295001	-0.000059	0.305862
C65	C	0.038333	0.333275	0.639196
C66	C	0.371666	0.666608	0.972529
C67	C	-0.400320	-0.000056	0.320043
C68	C	-0.066986	0.333278	0.653377
C69	C	0.266347	0.666611	0.986710
C70	C	-1.127076	-0.000055	0.068139
C71	C	-0.793743	0.333278	0.401472
C72	C	-0.460409	0.666611	0.734806
C73	C	-1.124303	-0.000052	-0.070693
C74	C	-0.790970	0.333282	0.262640
C75	C	-0.457637	0.666615	0.595974
N76	N	-1.137089	0.254171	0.276844
N77	N	-0.803756	0.587504	0.610177
N78	N	-0.470422	0.920838	0.943511
C79	C	-1.205095	-0.000054	-0.137589
C80	C	-0.871762	0.333279	0.195744
C81	C	-0.538428	0.666612	0.529078
C82	C	-1.202231	-0.000050	-0.281079
C83	C	-0.868898	0.333283	0.052254
C84	C	-0.535565	0.666616	0.385587
C85	C	-1.116195	-0.000047	0.523201
C86	C	-0.782862	0.333286	0.856534
C87	C	-0.449529	0.666620	1.189867
C88	C	-1.118968	-0.000044	0.662032
C89	C	-0.785635	0.333289	0.995366
C90	C	-0.452302	0.666623	1.328699
H91	H	-0.624956	-0.000041	0.442924
H92	H	-0.291623	0.333292	0.776257
H93	H	0.041710	0.666626	1.109591
C94	C	-1.018960	-0.535395	0.420764
C95	C	-0.685627	-0.202062	0.754098
C96	C	-0.352293	0.131271	1.087431
H97	H	-0.983873	-0.485903	0.463501
H98	H	-0.650540	-0.152570	0.796834
H99	H	-0.317207	0.180763	1.130168
H100	H	-1.050855	-0.579279	0.479688
H101	H	-0.717521	-0.245945	0.813022
H102	H	-0.384188	0.087388	1.146355
H103	H	-0.976508	-0.579255	0.374662
H104	H	-0.643175	-0.245922	0.707995
H105	H	-0.309842	0.087412	1.041329
C106	C	-1.025523	-0.000042	-0.260300
C107	C	-0.692190	0.333292	0.073033
C108	C	-0.358857	0.666625	0.406367
H109	H	-0.972914	-0.000045	-0.314605
H110	H	-0.639581	0.333289	0.018728
H111	H	-0.306247	0.666622	0.352062
H112	H	-1.026786	0.062251	-0.213795
H113	H	-0.693453	0.395584	0.119538
H114	H	-0.360120	0.728918	0.452872
H115	H	-1.019214	-0.062349	-0.204589
H116	H	-0.685881	0.270984	0.128745
H117	H	-0.352547	0.604318	0.462078
H118	H	-1.205094	-0.480813	0.193949
H119	H	-0.871761	-0.147480	0.527283
H120	H	-0.538427	0.185853	0.860616
C121	C	-1.295672	-0.000055	-0.358755
C122	C	-0.962339	0.333279	-0.025421
C123	C	-0.629005	0.666612	0.307912
H124	H	-1.348281	-0.000066	-0.304449
H125	H	-1.014947	0.333267	0.028885
H126	H	-0.681614	0.666600	0.362218
H127	H	-1.301983	0.062241	-0.414473
H128	H	-0.968649	0.395574	-0.081140
H129	H	-0.635316	0.728907	0.252193
H130	H	-1.294407	-0.062359	-0.405251
H131	H	-0.961073	0.270974	-0.071917
H132	H	-0.627740	0.604307	0.261416
H133	H	-1.276383	-0.000065	-0.088631
H134	H	-0.943050	0.333269	0.244702
H135	H	-0.609716	0.666602	0.578036
H136	H	-1.053015	-0.000041	-0.119651
H137	H	-0.719682	0.333292	0.213682
H138	H	-0.386349	0.666626	0.547015
H139	H	-0.618325	0.000026	0.148397
H140	H	-0.284992	0.333359	0.481730
H141	H	0.048341	0.666693	0.815063
