data_functionalizedCrystal
_audit_creation_method	'MofGen! by Chris Wilmer'
_symmetry_space_group_name_H-M	'P1'
_symmetry_Int_Tables_number	1
_symmetry_cell_setting	triclinic
loop_
_symmetry_equiv_pos_as_xyz
  x,y,z
_cell_length_a	10.540539
_cell_length_b	10.654550
_cell_length_c	9.130313
_cell_angle_alpha	90.002883
_cell_angle_beta	89.999544
_cell_angle_gamma	84.505197
loop_
_atom_site_label
_atom_site_type_symbol
_atom_site_fract_x
_atom_site_fract_y
_atom_site_fract_z
O1	O	-0.178296	-1.667895	-0.121912
O2	O	-0.195283	-1.302423	-0.121888
O3	O	-0.002080	-1.493497	-0.121899
O4	O	-0.371499	-1.476821	-0.121902
O5	O	-0.002083	-1.493498	0.121700
O6	O	-0.195287	-1.302424	0.121711
O7	O	-0.178299	-1.667896	0.121686
Cu8	Cu	-0.186793	-1.485160	0.143941
Cu9	Cu	-0.186789	-1.485159	-0.144143
O10	O	-0.371502	-1.476822	0.121697
C11	C	0.045221	-1.492247	-0.000102
C12	C	0.186168	-1.488505	-0.000110
C13	C	-0.194038	-1.255625	-0.000086
C14	C	-0.190306	-1.116180	-0.000077
C15	C	-0.418803	-1.478072	-0.000103
C16	C	-0.559750	-1.481813	-0.000105
C17	C	0.369543	-1.345134	-0.000647
C18	C	0.222926	-1.348927	-0.000099
C19	C	0.247848	-1.555677	0.138993
C20	C	0.394390	-1.550914	0.139110
C21	C	0.394913	-1.553751	-0.137907
C22	C	0.247932	-1.555037	-0.139747
C23	C	-0.179545	-1.714694	-0.000119
C24	C	-0.183276	-1.854139	-0.000138
N25	N	-0.186795	-1.485170	0.346564
C26	C	-0.304061	-1.036734	-0.000099
C27	C	-0.300547	-0.905712	-0.000124
C28	C	-0.069513	-0.933595	-0.000111
C29	C	-0.073028	-1.064614	-0.000075
C30	C	-0.437446	-1.020636	-0.000113
C31	C	-0.433932	-0.889614	-0.000138
C32	C	-0.264499	-1.562020	0.576574
C33	C	-0.264505	-1.562021	0.423237
C34	C	-0.109084	-1.408303	0.423236
C35	C	-0.109085	-1.408295	0.576570
C36	C	-0.354226	-1.650772	0.576573
C37	C	-0.354232	-1.650774	0.423236
N38	N	-0.186790	-1.485161	0.653235
H39	H	0.398125	-1.289997	-0.100399
H40	H	0.442176	-1.654568	-0.138850
H41	H	-0.479917	-1.056306	-0.105285
N42	N	-0.315055	-1.775022	0.371053
N43	N	-0.388254	-1.831498	0.292363
H44	H	-0.360571	-1.919249	0.255530
H45	H	-0.314324	-1.745336	0.624133
N46	N	0.050277	-0.880917	-0.000148
N47	N	0.127231	-0.904903	-0.102829
H48	H	0.211836	-0.867702	-0.102858
N49	N	-0.474154	-1.601234	0.363601
N50	N	-0.572747	-1.652970	0.392345
H51	H	-0.657440	-1.617974	0.350232
N52	N	0.169468	-1.282615	-0.125190
N53	N	0.240437	-1.233202	-0.213507
H54	H	0.202689	-1.186359	-0.301854
N55	N	-0.484491	-0.832347	0.131803
N56	N	-0.525295	-0.899024	0.230630
H57	H	-0.560997	-0.858580	0.323815
N58	N	-0.029720	-1.329760	0.654855
N59	N	0.039648	-1.261138	0.586382
H60	H	0.095702	-1.205666	0.641670
H61	H	-0.045821	-1.345720	0.360796
N62	N	-0.496965	-0.837266	-0.128035
N63	N	-0.591994	-0.758328	-0.115498
H64	H	-0.636506	-0.721362	-0.205826
N65	N	0.170506	-1.282190	0.125226
N66	N	0.109626	-1.337961	0.218450
H67	H	0.072603	-1.290829	0.306968
H68	H	0.019602	-1.129295	-0.000036
N69	N	0.429731	-1.488637	0.269566
N70	N	0.346205	-1.448985	0.359889
H71	H	0.371157	-1.404998	0.452027
H72	H	-0.454334	-1.619879	0.618184
H73	H	0.399729	-1.290222	0.098554
H74	H	0.442395	-1.651297	0.145414
H75	H	0.225530	-1.658180	0.144158
N76	N	-0.502841	-1.057505	0.127795
N77	N	-0.446725	-1.131735	0.217885
H78	H	-0.492897	-1.157789	0.308220
N79	N	0.194399	-1.497119	0.268853
N80	N	0.204548	-1.382933	0.292337
H81	H	0.166803	-1.341567	0.384048
H82	H	0.426452	-1.508576	-0.243339
H83	H	0.223747	-1.656800	-0.148154
N84	N	0.196556	-1.493450	-0.268835
N85	N	0.114753	-1.400903	-0.258148
H86	H	0.078462	-1.357404	-0.349314
