data_functionalizedCrystal
_audit_creation_method	'MofGen! by Chris Wilmer'
_symmetry_space_group_name_H-M	'P1'
_symmetry_Int_Tables_number	1
_symmetry_cell_setting	triclinic
loop_
_symmetry_equiv_pos_as_xyz
  x,y,z
_cell_length_a	17.639617
_cell_length_b	16.120444
_cell_length_c	17.640618
_cell_angle_alpha	97.806434
_cell_angle_beta	109.670355
_cell_angle_gamma	104.620503
loop_
_atom_site_label
_atom_site_type_symbol
_atom_site_fract_x
_atom_site_fract_y
_atom_site_fract_z
Zn1	Zn	1.358870	0.110298	0.716884
Zn2	Zn	1.323884	-0.064486	0.586005
Zn3	Zn	1.190313	0.039637	0.553964
Zn4	Zn	1.213986	-0.064402	0.695890
O5	O	1.271763	0.005262	0.638186
O6	O	1.470764	0.116649	0.721717
O7	O	1.281616	-0.080281	0.467585
O8	O	1.217407	0.165699	0.570952
O9	O	1.445059	-0.011764	0.625561
O10	O	1.341245	0.217613	0.690649
O11	O	1.183482	-0.003782	0.444045
O12	O	1.076919	-0.003701	0.550596
O13	O	1.257755	-0.011620	0.812845
O14	O	1.094311	-0.080137	0.654868
O15	O	1.364200	0.116731	0.828269
O16	O	1.304571	-0.181163	0.605205
O17	O	1.223829	-0.181101	0.685937
C18	C	1.055399	-0.049578	0.596978
C19	C	0.962841	-0.073054	0.579369
C20	C	0.725376	0.183674	0.772159
C21	C	0.638399	0.161590	0.755597
C22	C	0.611630	0.028012	0.655313
C23	C	0.698607	0.050082	0.671869
C24	C	0.755473	0.127915	0.730293
C25	C	0.728704	-0.005677	0.630003
C26	C	0.815673	0.016395	0.646555
C27	C	0.872544	0.094226	0.704974
C28	C	0.842442	0.149987	0.746845
C29	C	0.671835	-0.083506	0.571575
C30	C	0.701932	-0.139265	0.529708
C31	C	0.788903	-0.117197	0.546265
C32	C	0.845775	-0.039366	0.604683
C33	C	0.819005	-0.172958	0.504393
C34	C	0.905974	-0.150887	0.520946
C35	C	0.932744	-0.017295	0.621236
C36	C	1.262999	-0.211378	0.646792
C37	C	1.259331	-0.304031	0.650515
C38	C	1.291029	-0.514926	0.619084
C39	C	1.252653	-0.473658	0.657325
C40	C	1.256370	-0.379269	0.653535
C41	C	1.287313	-0.609324	0.622873
C42	C	1.488972	0.060315	0.679555
C43	C	1.581534	0.083775	0.697184
C44	C	1.317521	0.060447	0.850987
C45	C	1.337020	0.083963	0.941671
C46	C	1.280588	0.222758	0.629568
C47	C	1.284349	0.315442	0.625896
C48	C	1.226234	-0.049636	0.426219
C49	C	1.206905	-0.072877	0.335557
C50	C	1.419918	0.183929	1.077516
C51	C	1.401589	0.161823	0.992304
C52	C	1.290750	0.028180	0.976235
C53	C	1.309067	0.050276	1.061447
C54	C	1.373652	0.128151	1.112081
C55	C	1.262801	-0.005502	1.096012
C56	C	1.281120	0.016591	1.181217
C57	C	1.345704	0.094461	1.231856
C58	C	1.391971	0.150244	1.197285
C59	C	1.198220	-0.083380	1.045378
C60	C	1.151955	-0.139157	1.079943
C61	C	1.170269	-0.117062	1.165148
C62	C	1.234853	-0.039192	1.215787
C63	C	1.124002	-0.172845	1.199719
C64	C	1.142320	-0.150752	1.284923
C65	C	1.253171	-0.017099	1.300992
H66	H	0.655620	-0.202635	0.482138
F67	F	1.337617	-0.468453	0.572572
H68	H	1.305754	0.046322	1.342219
F69	F	0.758473	-0.255785	0.442209
H70	H	1.099371	-0.202565	1.038706
H71	H	0.771682	0.247052	0.819737
H72	H	0.565317	-0.035358	0.607742
H73	H	0.930479	-0.196291	0.486854
F74	F	0.579274	-0.106992	0.553955
F75	F	1.206058	-0.520133	0.703837
H76	H	1.360619	0.112446	1.301235
H77	H	0.979049	0.046083	0.668813
H78	H	1.444553	0.213665	1.238512
F79	F	1.093078	-0.210116	1.321712
H80	H	1.238167	-0.035228	0.934999
F81	F	1.488631	0.266833	1.131402
F82	F	1.450839	0.221195	0.955521
H83	H	1.183311	-0.101367	0.976000
H84	H	0.943359	0.112197	0.718446
F85	F	0.902970	0.232822	0.809032
H86	H	1.071422	-0.236255	1.158482
H87	H	0.613899	0.207005	0.789691
