data_functionalizedCrystal
_audit_creation_method	'MofGen! by Chris Wilmer'
_symmetry_space_group_name_H-M	'P1'
_symmetry_Int_Tables_number	1
_symmetry_cell_setting	triclinic
loop_
_symmetry_equiv_pos_as_xyz
  x,y,z
_cell_length_a	15.186229
_cell_length_b	16.992701
_cell_length_c	16.109301
_cell_angle_alpha	87.064325
_cell_angle_beta	89.998295
_cell_angle_gamma	89.994051
loop_
_atom_site_label
_atom_site_type_symbol
_atom_site_fract_x
_atom_site_fract_y
_atom_site_fract_z
O1	O	-0.073240	1.040348	0.176274
O2	O	-0.073240	0.812063	0.174342
O3	O	-0.073231	0.932477	0.054695
O4	O	-0.073249	0.919935	0.295920
O5	O	0.073226	0.932463	0.054701
O6	O	0.073217	0.812049	0.174348
O7	O	0.073218	1.040334	0.176280
Zn8	Zn	0.096471	0.926189	0.175315
Zn9	Zn	-0.096493	0.926208	0.175307
O10	O	0.073208	0.919920	0.295927
C11	C	-0.000011	0.782844	0.171857
C12	C	-0.000011	0.695802	0.164435
N13	N	0.228163	0.926182	0.175321
N14	N	-0.228186	0.926221	0.175295
C15	C	-0.000011	0.206855	0.114561
C16	C	-0.000006	0.288640	0.121542
C17	C	-0.000016	0.320163	0.200149
C18	C	-0.000021	0.269897	0.271780
C19	C	-0.000020	0.188114	0.264799
C20	C	-0.000015	0.563753	0.229084
C21	C	-0.000019	0.645542	0.236060
C22	C	-0.000002	0.664280	0.085821
C23	C	-0.000006	0.582494	0.078847
C24	C	-0.000007	0.532235	0.150478
N25	N	-0.000014	0.403760	0.207287
N26	N	-0.000003	0.448640	0.143340
C27	C	0.453882	0.973736	0.228921
C28	C	0.546072	0.973745	0.228916
C29	C	0.546089	0.878665	0.121688
C30	C	0.453901	0.878662	0.121690
C31	C	0.407800	0.926196	0.175311
C32	C	0.592178	0.926208	0.175304
C33	C	0.692134	0.926217	0.175298
C34	C	0.307837	0.926188	0.175317
C35	C	-0.000013	1.069553	0.178764
C36	C	-0.000019	1.156595	0.186187
C37	C	-0.000002	0.931962	0.023690
C38	C	-0.000001	0.930439	-0.068707
C39	C	-0.000014	0.998348	-0.286449
C40	C	-0.000022	0.996911	-0.373265
C41	C	-0.000018	0.854044	-0.362923
C42	C	-0.000017	0.855482	-0.276108
C43	C	-0.000011	0.927636	-0.237874
C44	C	-0.000019	0.924761	-0.411505
C45	C	-0.000027	0.923202	-0.505635
C46	C	-0.000005	0.929196	-0.143738
C47	C	-0.000023	0.920436	0.326932
C48	C	-0.000030	0.921959	0.419329
H49	H	-0.000008	0.181196	0.050551
H50	H	-0.000015	0.671205	0.300075
Cl51	Cl	-0.000009	1.089056	-0.238385
H52	H	0.583635	0.839964	0.078032
Cl53	Cl	0.395964	0.818890	0.054290
Cl54	Cl	-0.000021	0.766580	-0.215037
H55	H	-0.000021	0.522841	0.287412
H56	H	-0.000026	1.054491	-0.412812
H57	H	0.000002	0.556835	0.014837
Cl58	Cl	0.000010	0.351821	0.031494
Cl59	Cl	0.000006	0.727467	-0.004223
H60	H	0.583588	1.012458	0.272570
Cl61	Cl	0.395930	1.033500	0.296324
H62	H	-0.000022	0.795298	-0.394064
H63	H	-0.000024	0.147192	0.323124
Cl64	Cl	-0.000032	0.309526	0.370602
