data_functionalizedCrystal
_audit_creation_method	'MofGen! by Chris Wilmer'
_symmetry_space_group_name_H-M	'P1'
_symmetry_Int_Tables_number	1
_symmetry_cell_setting	triclinic
loop_
_symmetry_equiv_pos_as_xyz
  x,y,z
_cell_length_a	16.109301
_cell_length_b	15.072220
_cell_length_c	16.109301
_cell_angle_alpha	89.989200
_cell_angle_beta	96.538519
_cell_angle_gamma	90.001237
loop_
_atom_site_label
_atom_site_type_symbol
_atom_site_fract_x
_atom_site_fract_y
_atom_site_fract_z
O1	O	1.103131	0.073729	-0.106873
O2	O	0.861069	0.073744	-0.120172
O3	O	0.988749	0.073727	0.007508
O4	O	0.975450	0.073746	-0.234553
O5	O	0.988741	-0.073838	0.007524
O6	O	0.861060	-0.073821	-0.120157
O7	O	1.103122	-0.073836	-0.106857
Zn8	Zn	0.982090	-0.097258	-0.113505
Zn9	Zn	0.982101	0.097166	-0.113525
O10	O	0.975442	-0.073819	-0.234538
C11	C	0.830090	-0.000037	-0.119626
C12	C	0.737794	-0.000032	-0.118011
N13	N	0.982088	-0.229947	-0.113490
C14	C	0.515522	-0.000037	-0.190018
C15	C	0.428801	-0.000042	-0.188494
C16	C	0.448676	-0.000051	-0.037006
C17	C	0.535394	-0.000051	-0.038530
C18	C	0.568815	-0.000040	-0.115039
C19	C	0.395376	-0.000045	-0.111990
C20	C	0.301350	-0.000051	-0.110337
C21	C	0.662847	-0.000035	-0.116693
C22	C	0.982102	-0.589148	-0.113519
C23	C	1.050642	-0.551522	-0.045427
C24	C	1.050464	-0.448697	-0.045176
C25	C	0.982096	-0.410944	-0.113504
C26	C	0.895359	-0.448284	-0.094582
C27	C	0.895765	-0.551141	-0.094101
C28	C	0.999516	-0.551219	-0.200734
C29	C	1.001485	-0.448355	-0.200149
C30	C	0.982087	-0.310231	-0.113498
C31	C	0.982105	-0.689861	-0.113523
C32	C	1.134101	-0.000053	-0.107404
C33	C	1.226397	-0.000052	-0.109019
C34	C	0.988206	-0.000056	0.038491
C35	C	0.986591	-0.000057	0.130786
N36	N	0.982109	0.229854	-0.113533
C37	C	0.975984	-0.000034	-0.265521
C38	C	0.977600	-0.000027	-0.357816
C39	C	1.058599	-0.000047	0.353059
C40	C	1.057075	-0.000040	0.439779
C41	C	0.905586	-0.000034	0.419905
C42	C	0.907111	-0.000035	0.333186
C43	C	0.983620	-0.000046	0.299766
C44	C	0.980571	-0.000038	0.473205
C45	C	0.978918	-0.000030	0.567231
C46	C	0.985273	-0.000053	0.205734
H47	H	0.542730	-0.000034	-0.252317
C48	C	0.938403	-0.413649	-0.271805
C49	C	0.930124	-0.313225	-0.288325
C50	C	0.867031	-0.278521	-0.359978
C51	C	0.812217	-0.344241	-0.415111
C52	C	0.820495	-0.444671	-0.398593
C53	C	0.883588	-0.479375	-0.326940
H54	H	0.970702	-0.264570	-0.247511
H55	H	0.860904	-0.204176	-0.372206
H56	H	0.765512	-0.318552	-0.468153
H57	H	0.779917	-0.493326	-0.439407
H58	H	0.889715	-0.553720	-0.314712
H59	H	0.578788	-0.000056	0.022530
H60	H	0.843231	-0.576032	-0.141811
C61	C	1.083133	-0.586251	-0.225315
C62	C	1.136673	-0.649758	-0.166500
C63	C	1.220293	-0.684792	-0.191071
C64	C	1.250372	-0.656319	-0.274456
C65	C	1.196831	-0.592808	-0.333276
C66	C	1.113211	-0.557774	-0.308706
H67	H	1.114407	-0.670838	-0.104768
H68	H	1.259927	-0.731806	-0.147528
H69	H	1.312273	-0.682253	-0.292645
H70	H	1.219097	-0.571728	-0.395008
H71	H	1.073577	-0.510760	-0.352249
H72	H	1.114940	-0.423451	-0.056440
C73	C	0.931997	-0.584092	-0.269192
C74	C	0.861404	-0.645045	-0.246124
C75	C	0.793884	-0.677923	-0.314574
C76	C	0.796956	-0.649848	-0.406091
C77	C	0.867552	-0.588892	-0.429163
C78	C	0.935072	-0.556014	-0.360713
H79	H	0.859127	-0.665831	-0.178374
H80	H	0.741624	-0.723047	-0.297494
H81	H	0.746973	-0.674187	-0.456762
H82	H	0.869829	-0.568106	-0.496913
H83	H	0.987332	-0.510890	-0.377793
H84	H	0.421454	-0.000065	0.025285
H85	H	1.118130	-0.000039	0.483168
H86	H	0.843295	-0.000027	0.447127
C87	C	0.875034	-0.583577	-0.008175
C88	C	0.858224	-0.515888	0.059528
C89	C	0.837494	-0.548318	0.145457
C90	C	0.833575	-0.648438	0.163682
C91	C	0.850385	-0.716133	0.095978
C92	C	0.871114	-0.683703	0.010049
H93	H	0.861125	-0.441768	0.046038
H94	H	0.825050	-0.498205	0.195576
H95	H	0.818229	-0.672445	0.227292
H96	H	0.847484	-0.790253	0.109468
H97	H	0.883558	-0.733816	-0.040070
C98	C	1.035418	-0.415469	0.042257
C99	C	1.096883	-0.440591	0.118950
C100	C	1.081829	-0.407367	0.206387
C101	C	1.005312	-0.349022	0.217130
C102	C	0.943842	-0.323897	0.140434
C103	C	0.958896	-0.357121	0.052998
H104	H	1.153530	-0.483785	0.111000
H105	H	1.127333	-0.425966	0.263162
H106	H	0.994168	-0.324427	0.281855
H107	H	0.887195	-0.280703	0.148385
H108	H	0.913392	-0.338522	-0.003777
C109	C	0.874106	-0.413512	-0.009632
C110	C	0.794628	-0.357854	-0.004861
C111	C	0.773380	-0.323085	0.080091
C112	C	0.831611	-0.343972	0.160273
C113	C	0.911095	-0.399633	0.155505
C114	C	0.932342	-0.434402	0.070552
H115	H	0.751517	-0.342389	-0.064219
H116	H	0.714541	-0.281881	0.083621
H117	H	0.815883	-0.318234	0.223159
H118	H	0.954206	-0.415098	0.214862
H119	H	0.991182	-0.475606	0.067023
H120	H	1.115335	-0.576255	-0.056509
H121	H	1.039681	-0.577385	0.018929
C122	C	0.824628	-0.000037	0.274557
C123	C	0.761931	0.076590	0.278267
C124	C	0.679452	0.076593	0.219639
C125	C	0.659670	-0.000032	0.157300
C126	C	0.722369	-0.076665	0.153587
C127	C	0.804848	-0.076667	0.212216
H128	H	0.776573	0.133318	0.324417
H129	H	0.633039	0.133322	0.222388
H130	H	0.598615	-0.000030	0.113900
H131	H	0.707727	-0.133392	0.107438
H132	H	0.851261	-0.133396	0.209467
C133	C	0.370179	-0.000037	-0.270973
C134	C	0.406944	-0.000027	-0.355125
C135	C	0.348321	-0.000025	-0.437608
C136	C	0.252933	-0.000032	-0.435938
C137	C	0.216163	-0.000042	-0.351782
C138	C	0.274786	-0.000045	-0.269299
H139	H	0.477560	-0.000022	-0.356365
H140	H	0.375541	-0.000017	-0.499906
H141	H	0.209537	-0.000030	-0.496996
H142	H	0.145546	-0.000047	-0.350543
H143	H	0.247565	-0.000052	-0.207002
C144	C	0.824792	-0.415248	-0.159791
C145	C	0.808143	-0.315077	-0.170675
C146	C	0.737577	-0.282040	-0.235886
C147	C	0.683660	-0.349174	-0.290214
C148	C	0.700308	-0.449352	-0.279332
C149	C	0.770873	-0.482389	-0.214121
H150	H	0.848056	-0.265374	-0.130457
H151	H	0.725254	-0.207882	-0.243941
H152	H	0.631423	-0.324719	-0.338487
H153	H	0.660394	-0.499055	-0.319550
H154	H	0.783197	-0.556547	-0.206065
C155	C	1.087678	-0.415378	-0.219556
C156	C	1.166518	-0.438469	-0.160215
C157	C	1.252711	-0.405483	-0.179618
C158	C	1.260064	-0.349406	-0.258364
C159	C	1.181222	-0.326312	-0.317710
C160	C	1.095029	-0.359298	-0.298306
H161	H	1.161077	-0.479984	-0.101918
H162	H	1.311075	-0.422579	-0.135686
H163	H	1.323869	-0.324988	-0.272727
H164	H	1.186662	-0.284797	-0.376006
H165	H	1.036664	-0.342202	-0.342238
H166	H	1.120897	-0.000054	0.325851
