data_functionalizedCrystal
_audit_creation_method	'MofGen! by Chris Wilmer'
_symmetry_space_group_name_H-M	'P1'
_symmetry_Int_Tables_number	1
_symmetry_cell_setting	triclinic
loop_
_symmetry_equiv_pos_as_xyz
  x,y,z
_cell_length_a	16.120484
_cell_length_b	12.759401
_cell_length_c	12.759393
_cell_angle_alpha	90.020938
_cell_angle_beta	87.135992
_cell_angle_gamma	92.926992
loop_
_atom_site_label
_atom_site_type_symbol
_atom_site_fract_x
_atom_site_fract_y
_atom_site_fract_z
Zn1	Zn	-0.331832	1.584985	0.615183
Zn2	Zn	-0.471268	1.575933	0.448395
Zn3	Zn	-0.331877	1.409280	0.439521
Zn4	Zn	-0.471209	1.400336	0.624029
O5	O	-0.401546	1.492634	0.531782
O6	O	-0.350334	1.730804	0.593070
O7	O	-0.452820	1.553781	0.300200
O8	O	-0.215205	1.440119	0.455406
O9	O	-0.452777	1.724154	0.470532
O10	O	-0.215173	1.569208	0.584465
O11	O	-0.350410	1.431342	0.293680
O12	O	-0.350354	1.261073	0.463984
O13	O	-0.452678	1.424875	0.769874
O14	O	-0.452721	1.254502	0.599541
O15	O	-0.350278	1.560535	0.763375
O16	O	-0.587925	1.545108	0.479110
O17	O	-0.587883	1.416098	0.608147
C18	C	-0.401536	1.219667	0.531760
C19	C	-0.401552	1.102889	0.531777
C20	C	-0.454936	1.044628	0.602261
C21	C	-0.454939	0.934904	0.602282
C22	C	-0.348172	0.941712	0.461326
C23	C	-0.348166	1.051434	0.461311
C24	C	-0.618154	1.478679	0.545574
C25	C	-0.710820	1.472805	0.551509
C26	C	-0.880481	1.462088	0.562368
C27	C	-0.921772	1.523367	0.501213
C28	C	-1.016177	1.517404	0.507255
C29	C	-0.786067	1.468050	0.556327
C30	C	-0.184093	1.506671	0.517959
C31	C	-0.091427	1.512653	0.512068
C32	C	-0.401466	1.492717	0.805810
C33	C	-0.401432	1.492753	0.922585
C34	C	-0.401557	1.766666	0.531804
C35	C	-0.401562	1.883442	0.531814
C36	C	-0.401566	1.492614	0.258816
C37	C	-0.401365	1.492797	0.142027
C38	C	-0.348104	1.563397	0.974064
C39	C	-0.348068	1.563417	1.083786
C40	C	-0.454696	1.422146	1.090540
C41	C	-0.454727	1.422122	0.980820
H42	H	-0.498404	1.086519	0.659642
H43	H	-0.886221	1.580308	0.444319
O44	O	-0.922848	1.394269	0.630381
C45	C	-0.949591	1.341460	0.810714
C46	C	-0.901560	1.418349	0.733813
H47	H	-0.932384	1.360887	0.894353
H48	H	-1.019285	1.348701	0.803639
H49	H	-0.932617	1.257812	0.791062
H50	H	-0.918464	1.502030	0.753414
H51	H	-0.831877	1.411017	0.740902
O52	O	-0.296252	1.632037	0.917650
C53	C	-0.190519	1.772196	0.922538
C54	C	-0.249189	1.694502	0.986549
H55	H	-0.152466	1.822735	0.978216
H56	H	-0.146883	1.726818	0.868417
H57	H	-0.228824	1.824605	0.873584
H58	H	-0.210951	1.642075	1.035564
H59	H	-0.292827	1.739946	1.040604
O60	O	-0.296175	1.631896	1.133830
C61	C	-0.183603	1.653325	1.250589
C62	C	-0.242314	1.575656	1.193960
H63	H	-0.140054	1.607886	1.299235
H64	H	-0.145459	1.703780	1.190156
H65	H	-0.221880	1.705820	1.304359
H66	H	-0.204101	1.523093	1.140193
H67	H	-0.280461	1.525274	1.254450
O68	O	-0.296422	1.108144	0.392792
C69	C	-0.285068	1.232643	0.250194
C70	C	-0.343758	1.168498	0.327739
H71	H	-0.323316	1.281438	0.197564
H72	H	-0.241532	1.286910	0.295687
H73	H	-0.246898	1.177003	0.199874
H74	H	-0.381982	1.224059	0.378078
H75	H	-0.387239	1.114219	0.282182
O76	O	-0.506496	1.353445	1.146952
C77	C	-0.612300	1.213370	1.142072
C78	C	-0.553661	1.291099	1.078061
H79	H	-0.650461	1.162958	1.086402
H80	H	-0.574050	1.160845	1.190976
H81	H	-0.655845	1.258825	1.196242
H82	H	-0.510104	1.245730	1.023834
H83	H	-0.591963	1.343624	1.029227
O84	O	-0.296243	0.891893	0.392833
C85	C	-0.190385	0.910225	0.252974
C86	C	-0.249136	0.966775	0.330507
H87	H	-0.152296	0.970741	0.202548
H88	H	-0.146785	0.861714	0.298477
H89	H	-0.228628	0.856340	0.200446
H90	H	-0.210961	1.020713	0.383054
H91	H	-0.292739	1.015220	0.284939
O92	O	-0.506876	0.878466	0.670787
C93	C	-0.612740	0.883302	0.810634
C94	C	-0.553976	0.947343	0.733088
H95	H	-0.650823	0.938963	0.861039
H96	H	-0.656344	0.829127	0.765143
H97	H	-0.574507	0.834398	0.863181
H98	H	-0.592143	0.996309	0.680522
H99	H	-0.510370	1.001453	0.778644
O100	O	-0.506575	1.353639	0.930693
C101	C	-0.619196	1.332212	0.814008
C102	C	-0.560525	1.409881	0.870696
H103	H	-0.662841	1.377654	0.765504
H104	H	-0.580974	1.279754	0.760131
H105	H	-0.657248	1.281719	0.874493
H106	H	-0.522460	1.460444	0.810287
H107	H	-0.598794	1.462267	0.924592
