data_functionalizedCrystal
_audit_creation_method	'MofGen! by Chris Wilmer'
_symmetry_space_group_name_H-M	'P1'
_symmetry_Int_Tables_number	1
_symmetry_cell_setting	triclinic
loop_
_symmetry_equiv_pos_as_xyz
  x,y,z
_cell_length_a	9.065218
_cell_length_b	10.540539
_cell_length_c	8.140239
_cell_angle_alpha	89.998610
_cell_angle_beta	89.997198
_cell_angle_gamma	84.770688
loop_
_atom_site_label
_atom_site_type_symbol
_atom_site_fract_x
_atom_site_fract_y
_atom_site_fract_z
O1	O	1.959468	0.186143	-0.136609
O2	O	1.530107	0.201412	-0.136611
O3	O	1.754583	0.009107	-0.136608
O4	O	1.734992	0.378448	-0.136612
O5	O	1.754571	0.009105	0.136619
O6	O	1.530095	0.201409	0.136616
O7	O	1.959456	0.186141	0.136618
Zn8	Zn	1.744773	0.193775	0.179998
Zn9	Zn	1.744790	0.193778	-0.179991
O10	O	1.734980	0.378446	0.136615
C11	C	1.475122	0.199943	0.000003
C12	C	1.311301	0.195556	0.000002
C13	C	1.753108	-0.038202	0.000003
C14	C	1.748712	-0.179167	-0.000006
C15	C	1.580278	-0.363216	-0.000620
C16	C	1.584734	-0.216582	-0.000005
C17	C	1.827619	-0.240534	0.156020
C18	C	1.822022	-0.387099	0.156152
C19	C	1.825372	-0.387602	-0.154558
C20	C	1.826882	-0.240615	-0.156621
C21	C	2.014441	0.187610	0.000001
C22	C	2.178262	0.191997	-0.000009
C23	C	1.736455	0.425755	0.000001
C24	C	1.740851	0.566719	-0.000001
N25	N	1.744773	0.193772	0.425681
N26	N	1.744802	0.193771	-0.425673
H27	H	1.515508	-0.392055	-0.112509
H28	H	1.943812	-0.434390	-0.155607
O29	O	1.758352	-0.191995	-0.294452
C30	C	1.782593	-0.076374	-0.546941
C31	C	1.860396	-0.131413	-0.390946
H32	H	1.865053	-0.027358	-0.624983
H33	H	1.738310	-0.156713	-0.620590
H34	H	1.686773	-0.004224	-0.510668
H35	H	1.956274	-0.203547	-0.427074
H36	H	1.904574	-0.051006	-0.317337
O37	O	1.752663	-0.421099	0.295391
C38	C	1.770904	-0.543923	0.545414
C39	C	1.849649	-0.505509	0.387812
H40	H	1.849272	-0.612195	0.620164
H41	H	1.736987	-0.455248	0.621528
H42	H	1.668102	-0.592834	0.511156
H43	H	1.952502	-0.456626	0.421922
H44	H	1.883456	-0.594228	0.311739
O45	O	1.510790	-0.165817	-0.133398
C46	C	1.430823	0.024925	-0.284081
C47	C	1.514630	-0.032391	-0.132956
H48	H	1.433873	0.132809	-0.283755
H49	H	1.485598	-0.016363	-0.400827
H50	H	1.310850	0.000754	-0.279480
H51	H	1.634610	-0.008242	-0.137398
H52	H	1.459738	0.008897	-0.016275
H53	H	1.948040	-0.217735	0.161822
H54	H	1.946435	-0.215951	-0.166043
H55	H	1.772796	-0.198138	0.272130
H56	H	1.515761	-0.393663	0.110642
O57	O	1.510156	-0.167249	0.133777
C58	C	1.370494	-0.210470	0.376106
C59	C	1.454934	-0.266507	0.224671
H60	H	1.325797	-0.290690	0.449618
H61	H	1.448684	-0.158577	0.456415
H62	H	1.274393	-0.140631	0.334323
H63	H	1.551034	-0.336398	0.266307
H64	H	1.376646	-0.318322	0.144397
H65	H	1.772305	-0.419350	-0.272816
H66	H	1.939953	-0.434632	0.163231
