data_functionalizedCrystal
_audit_creation_method	'MofGen! by Chris Wilmer'
_symmetry_space_group_name_H-M	'P1'
_symmetry_Int_Tables_number	1
_symmetry_cell_setting	triclinic
loop_
_symmetry_equiv_pos_as_xyz
  x,y,z
_cell_length_a	10.540539
_cell_length_b	10.540510
_cell_length_c	11.892095
_cell_angle_alpha	93.930478
_cell_angle_beta	86.063735
_cell_angle_gamma	84.519401
loop_
_atom_site_label
_atom_site_type_symbol
_atom_site_fract_x
_atom_site_fract_y
_atom_site_fract_z
O1	O	1.693907	0.170866	-0.093943
O2	O	2.193907	0.670866	0.406057
O3	O	1.324493	0.187721	-0.093957
O4	O	1.824493	0.687721	0.406043
O5	O	1.517648	-0.005416	-0.093949
O6	O	2.017648	0.494584	0.406051
O7	O	1.500753	0.364002	-0.093951
O8	O	2.000753	0.864002	0.406049
O9	O	1.501543	0.010663	0.094058
O10	O	2.001543	0.510663	0.594058
O11	O	1.308388	0.203799	0.094050
O12	O	1.808388	0.703799	0.594050
O13	O	1.677802	0.186944	0.094064
O14	O	2.177802	0.686944	0.594064
Zn15	Zn	1.490538	0.197924	0.123907
Zn16	Zn	1.990538	0.697924	0.623907
Zn17	Zn	1.511757	0.176740	-0.123800
Zn18	Zn	2.011757	0.676740	0.376200
O19	O	1.484648	0.380080	0.094056
O20	O	1.984648	0.880080	0.594056
C21	C	1.269138	0.194496	0.000045
C22	C	1.769138	0.694496	0.500045
C23	C	1.128191	0.190713	0.000040
C24	C	1.628191	0.690713	0.500040
C25	C	1.508337	-0.044680	0.000052
C26	C	2.008337	0.455320	0.500052
C27	C	1.504570	-0.185631	0.000045
C28	C	2.004570	0.314369	0.500045
C29	C	1.638717	-0.403049	0.000480
C30	C	2.138717	0.096951	0.500480
C31	C	1.642772	-0.256490	0.000051
C32	C	2.142772	0.243510	0.500051
C33	C	1.443021	-0.239571	-0.107316
C34	C	1.943021	0.260429	0.392684
C35	C	1.439989	-0.386339	-0.107401
C36	C	1.939989	0.113661	0.392599
C37	C	1.418796	-0.367864	0.106398
C38	C	1.918796	0.132136	0.606398
C39	C	1.425231	-0.221402	0.107812
C40	C	1.925231	0.278598	0.607812
C41	C	0.944742	0.045832	0.000479
C42	C	1.444742	0.545832	0.500479
C43	C	1.091397	0.049628	0.000044
C44	C	1.591397	0.549628	0.500044
C45	C	1.075708	0.249428	-0.107317
C46	C	1.575708	0.749428	0.392683
C47	C	0.929170	0.244606	-0.107396
C48	C	1.429170	0.744606	0.392604
C49	C	0.910367	0.265761	0.106403
C50	C	1.410367	0.765761	0.606403
C51	C	1.057228	0.267180	0.107811
C52	C	1.557228	0.767180	0.607811
C53	C	1.733158	0.180169	0.000059
C54	C	2.233158	0.680169	0.500059
C55	C	1.874105	0.183951	0.000057
C56	C	2.374105	0.683951	0.500057
C57	C	1.493959	0.419345	0.000053
C58	C	1.993959	0.919345	0.500053
C59	C	1.497726	0.560295	0.000052
C60	C	1.997726	1.060295	0.500052
N61	N	1.476066	0.212381	0.292961
N62	N	1.976066	0.712381	0.792961
N63	N	1.526239	0.162274	-0.292854
N64	N	2.026239	0.662274	0.207146
C65	C	1.626943	0.061604	0.529614
C66	C	2.126943	0.561604	1.029614
C67	C	1.616837	0.071719	0.647956
C68	C	2.116837	0.571719	1.147956
C69	C	1.445741	0.242717	0.647987
C70	C	1.945741	0.742717	1.147987
C71	C	1.455847	0.232603	0.529646
C72	C	1.955847	0.732603	1.029646
C73	C	1.546453	0.142045	0.470463
C74	C	2.046453	0.642045	0.970463
C75	C	1.556565	0.131937	0.352120
C76	C	2.056565	0.631937	0.852120
C77	C	1.385464	0.302929	0.352153
C78	C	1.885464	0.802929	0.852153
C79	C	1.375357	0.313043	0.470495
C80	C	1.875357	0.813043	0.970495
H81	H	1.691534	-0.220565	0.077010
H82	H	2.191534	0.279435	0.577010
F83	F	1.702503	-0.013900	0.710905
F84	F	2.202503	0.486100	1.210905
F85	F	1.138491	-0.011599	0.100633
F86	F	1.638491	0.488401	0.600633
H87	H	1.125145	0.195430	-0.187215
H88	H	1.625145	0.695430	0.312785
F89	F	1.305431	-0.416946	-0.113780
F90	F	1.805431	0.083054	0.386220
F91	F	1.283091	-0.396736	0.107341
F92	F	1.783091	0.103264	0.607341
H93	H	1.301584	0.386771	0.518695
H94	H	1.801584	0.886771	1.018695
F95	F	1.466708	-0.414318	0.212762
F96	F	1.966708	0.085682	0.712762
F97	F	0.860035	0.215175	0.212769
F98	F	1.360035	0.715175	0.712769
H99	H	1.371963	0.316439	0.696189
H100	H	1.871963	0.816439	1.196189
F101	F	1.101756	0.211123	0.211621
F102	F	1.601756	0.711123	0.711621
F103	F	0.848545	0.399038	0.107352
F104	F	1.348545	0.899038	0.607352
H105	H	1.685964	-0.438420	0.077475
H106	H	2.185964	0.061580	0.577475
F107	F	1.292620	-0.156547	0.116282
F108	F	1.792620	0.343453	0.616282
H109	H	1.700726	-0.012123	0.481427
H110	H	2.200726	0.487877	0.981427
F111	F	1.088145	0.402355	0.116282
F112	F	1.588145	0.902355	0.616282
H113	H	1.341621	-0.192524	-0.111312
H114	H	1.841621	0.307476	0.388688
F115	F	1.717262	-0.468468	-0.099582
F116	F	2.217262	0.031532	0.400418
H117	H	1.705051	-0.234677	-0.077039
H118	H	2.205051	0.265323	0.422961
H119	H	1.630343	0.058204	0.303934
H120	H	2.130343	0.558204	0.803934
H121	H	1.495211	-0.433418	-0.187651
H122	H	1.995211	0.066582	0.312349
H123	H	0.881608	0.345656	-0.112269
H124	H	1.381608	0.845656	0.387731
H125	H	1.319926	0.368433	0.303979
H126	H	1.819926	0.868433	0.803979
H127	H	1.469904	-0.185997	0.187237
H128	H	1.969904	0.314003	0.687237
F129	F	1.105388	0.384395	-0.112561
F130	F	1.605388	0.884395	0.387439
H131	H	0.921099	-0.016217	-0.076083
H132	H	1.421099	0.483783	0.423917
H133	H	1.498996	-0.215547	-0.187211
H134	H	1.998996	0.284453	0.312789
F135	F	0.898760	-0.018414	0.101114
F136	F	1.398760	0.481586	0.601114
H137	H	1.139752	-0.010765	-0.077047
H138	H	1.639752	0.489235	0.422953
H139	H	0.907840	0.187562	-0.187646
H140	H	1.407840	0.687562	0.312354
