data_functionalizedCrystal
_audit_creation_method	'MofGen! by Chris Wilmer'
_symmetry_space_group_name_H-M	'P1'
_symmetry_Int_Tables_number	1
_symmetry_cell_setting	triclinic
loop_
_symmetry_equiv_pos_as_xyz
  x,y,z
_cell_length_a	15.072220
_cell_length_b	12.837943
_cell_length_c	12.837942
_cell_angle_alpha	94.828940
_cell_angle_beta	90.011557
_cell_angle_gamma	89.992138
loop_
_atom_site_label
_atom_site_type_symbol
_atom_site_fract_x
_atom_site_fract_y
_atom_site_fract_z
O1	O	-0.073766	-1.402320	-0.272150
O2	O	-0.073771	-1.099186	-0.258707
O3	O	-0.073763	-1.244031	-0.113862
O4	O	-0.073774	-1.257475	-0.416995
O5	O	0.073802	-1.244049	-0.113836
O6	O	0.073794	-1.099204	-0.258681
O7	O	0.073799	-1.402337	-0.272124
Zn8	Zn	0.097226	-1.250774	-0.265398
Zn9	Zn	-0.097198	-1.250750	-0.265433
O10	O	0.073791	-1.257492	-0.416969
C11	C	0.000011	-1.060126	-0.254153
C12	C	0.000009	-0.943711	-0.240608
N13	N	-0.229886	-1.250734	-0.265449
C14	C	0.000019	-1.239499	-0.074780
C15	C	0.000017	-1.225954	0.041635
C16	C	-0.589088	-1.250776	-0.265399
C17	C	-0.551485	-1.173373	-0.343005
C18	C	-0.448659	-1.173034	-0.342768
C19	C	-0.410884	-1.250755	-0.265425
C20	C	-0.448187	-1.216387	-0.153779
C21	C	-0.551045	-1.215832	-0.154209
C22	C	-0.551172	-1.362705	-0.298487
C23	C	-0.448309	-1.362206	-0.300912
C24	C	-0.310171	-1.250745	-0.265432
C25	C	-0.689801	-1.250783	-0.265384
N26	N	0.229915	-1.250797	-0.265375
C27	C	0.000015	-1.441398	-0.276679
C28	C	0.000011	-1.557813	-0.290223
C29	C	0.000016	-0.718837	-0.403437
C30	C	0.000015	-0.609454	-0.390716
C31	C	0.000012	-0.615562	-0.202445
C32	C	0.000013	-0.724944	-0.215166
C33	C	0.000014	-0.776578	-0.315666
C34	C	0.000008	-0.885962	-0.328386
C35	C	0.000012	-0.892067	-0.140116
C36	C	0.000011	-0.782685	-0.127395
C37	C	0.000007	-1.262025	-0.456051
C38	C	0.000003	-1.275569	-0.572467
C39	C	0.000001	-1.388784	0.266510
C40	C	-0.000000	-1.376062	0.375892
C41	C	0.000006	-1.187791	0.369785
C42	C	0.000007	-1.200513	0.260402
C43	C	0.000007	-1.301012	0.208769
C44	C	0.000015	-1.313732	0.099384
C45	C	0.000014	-1.125462	0.093279
C46	C	0.000013	-1.112741	0.202661
H47	H	-0.423440	-1.195057	-0.425400
H48	H	-0.000003	-1.105969	0.411844
H49	H	0.000004	-0.939092	-0.068646
C50	C	0.000013	-0.942757	-0.438937
N51	N	0.000022	-0.985533	-0.522206
H52	H	0.000010	-1.030917	0.244717
C53	C	-0.413575	-1.444763	-0.230653
N54	N	-0.387414	-1.506942	-0.177724
H55	H	-0.577336	-1.091009	-0.320966
H56	H	-0.576240	-1.195195	-0.425879
H57	H	-0.424057	-1.090188	-0.320487
H58	H	-0.000007	-1.447536	0.422901
C59	C	0.000011	-0.775636	-0.513986
N60	N	0.000008	-0.818416	-0.597254
H61	H	0.000017	-1.395564	0.057346
H62	H	-0.575039	-1.133881	-0.126742
C63	C	0.000005	-1.499332	0.209710
N64	N	0.000007	-1.582600	0.166930
C65	C	-0.415367	-1.397117	-0.411937
N66	N	-0.390547	-1.423411	-0.495560
H67	H	-0.575918	-1.269518	-0.094154
C68	C	0.000021	-0.558745	-0.091904
N69	N	0.000028	-0.515950	-0.008643
H70	H	-0.423716	-1.270820	-0.094187
H71	H	-0.422423	-1.135306	-0.125933
C72	C	-0.584028	-1.440690	-0.222212
N73	N	-0.608782	-1.499421	-0.164760
H74	H	0.000020	-0.740630	-0.045571
C75	C	-0.586240	-1.403812	-0.406918
N76	N	-0.612653	-1.434763	-0.488592
H77	H	0.000019	-0.562446	-0.462189
H78	H	0.000026	-1.053992	0.046254
