data_functionalizedCrystal
_audit_creation_method	'MofGen! by Chris Wilmer'
_symmetry_space_group_name_H-M	'P1'
_symmetry_Int_Tables_number	1
_symmetry_cell_setting	triclinic
loop_
_symmetry_equiv_pos_as_xyz
  x,y,z
_cell_length_a	12.759401
_cell_length_b	16.959454
_cell_length_c	12.759393
_cell_angle_alpha	89.971064
_cell_angle_beta	90.018773
_cell_angle_gamma	89.977082
loop_
_atom_site_label
_atom_site_type_symbol
_atom_site_fract_x
_atom_site_fract_y
_atom_site_fract_z
Zn1	Zn	1.606192	0.314642	0.594011
Zn2	Zn	1.606062	0.446841	0.418337
Zn3	Zn	1.430495	0.314681	0.418349
Zn4	Zn	1.430457	0.446782	0.593977
O5	O	1.518302	0.380736	0.506168
O6	O	1.753196	0.332187	0.570717
O7	O	1.582734	0.429351	0.271317
O8	O	1.453872	0.204065	0.441670
O9	O	1.753100	0.429313	0.441650
O10	O	1.582955	0.204036	0.570729
O11	O	1.453746	0.332253	0.271326
O12	O	1.283469	0.332196	0.441637
O13	O	1.453808	0.429212	0.741002
O14	O	1.283441	0.429250	0.570670
O15	O	1.582919	0.332129	0.741028
O16	O	1.582698	0.557444	0.441616
O17	O	1.453682	0.557401	0.570658
C18	C	1.245334	0.380721	0.506151
C19	C	1.128558	0.380734	0.506169
C20	C	0.964015	0.330261	0.573487
C21	C	1.073739	0.330251	0.573478
C22	C	1.073646	0.431237	0.438873
C23	C	0.963924	0.431251	0.438888
C24	C	0.909203	0.279769	0.640793
C25	C	0.964107	0.229267	0.708090
C26	C	1.073831	0.229256	0.708081
C27	C	1.128651	0.279747	0.640774
C28	C	1.518200	0.586103	0.506155
C29	C	1.518253	0.673959	0.506185
C30	C	1.451176	1.045442	0.573368
C31	C	1.585631	1.045428	0.439105
C32	C	1.585600	0.962882	0.439094
C33	C	1.518355	0.921612	0.506219
C34	C	1.451141	0.962889	0.573356
C35	C	1.652805	0.921599	0.371951
C36	C	1.652776	0.839048	0.371936
C37	C	1.585535	0.797777	0.439067
C38	C	1.518319	0.839059	0.506208
C39	C	1.451074	0.797789	0.573333
C40	C	1.383863	0.839069	0.640480
C41	C	1.383900	0.921618	0.640488
C42	C	1.585498	0.715229	0.439059
C43	C	1.451038	0.715236	0.573322
C44	C	1.792335	0.380752	0.506186
C45	C	1.909111	0.380759	0.506194
C46	C	1.518374	0.380660	0.780202
C47	C	1.518404	0.380627	0.896979
C48	C	1.518416	1.174568	0.506210
C49	C	1.518422	1.086712	0.506242
C50	C	1.518290	0.380756	0.233201
C51	C	1.518463	0.380566	0.116425
C52	C	1.451230	0.431128	1.061554
C53	C	1.451198	0.431157	0.951830
C54	C	1.585640	0.330059	0.951857
C55	C	1.585667	0.330027	1.061579
C56	C	1.384026	0.481667	1.116400
C57	C	1.316789	0.532234	1.061529
C58	C	1.316756	0.532263	0.951804
C59	C	1.383961	0.481725	0.896951
H60	H	1.118531	0.188140	0.762885
C61	C	0.903815	0.173735	0.782131
H62	H	0.952232	0.143666	0.822216
H63	H	0.861005	0.139263	0.742028
H64	H	0.861025	0.204024	0.827848
C65	C	1.383913	0.481749	0.776257
H66	H	1.334246	0.519100	0.751431
H67	H	1.365771	0.430745	0.751453
H68	H	1.451697	0.495432	0.751429
H69	H	0.819860	0.279769	0.640803
H70	H	1.261999	0.573430	0.907131
C71	C	1.384065	0.481636	1.237092
H72	H	1.433738	0.444288	1.261917
H73	H	1.316283	0.467964	1.261920
H74	H	1.402223	0.532642	1.261897
H75	H	1.217996	0.279729	0.640764
H76	H	0.919220	0.472373	0.384094
C77	C	1.659568	0.274480	0.891521
H78	H	1.649930	0.281747	0.818316
H79	H	1.644235	0.221364	0.909506
H80	H	1.730158	0.286054	0.909509
C81	C	1.133945	0.486765	0.364833
H82	H	1.207155	0.479518	0.374455
H83	H	1.115958	0.539891	0.380087
H84	H	1.115932	0.475129	0.294268
H85	H	1.640409	0.288851	1.106256
C86	C	1.377246	1.090845	0.647220
H87	H	1.386891	1.145919	0.637614
H88	H	1.392574	1.077272	0.717822
H89	H	1.306655	1.077362	0.631770
H90	H	1.396283	0.681639	0.627988
H91	H	1.707503	0.805443	0.317263
H92	H	1.329106	0.805458	0.695129
H93	H	1.329179	0.955235	0.695154
H94	H	1.262065	0.573375	1.106197
C95	C	1.659600	1.090821	0.365280
H96	H	1.650000	1.145897	0.374908
H97	H	1.644269	1.077335	0.294671
H98	H	1.730178	1.077248	0.380732
H99	H	1.707545	0.955207	0.317293
C100	C	1.659420	0.669824	0.365208
H101	H	1.699476	0.706226	0.325235
H102	H	1.619242	0.637661	0.319396
H103	H	1.705170	0.637583	0.405440
