data_functionalizedCrystal
_audit_creation_method	'MofGen! by Chris Wilmer'
_symmetry_space_group_name_H-M	'P1'
_symmetry_Int_Tables_number	1
_symmetry_cell_setting	triclinic
loop_
_symmetry_equiv_pos_as_xyz
  x,y,z
_cell_length_a	6.817900
_cell_length_b	13.168018
_cell_length_c	14.858572
_cell_angle_alpha	99.381526
_cell_angle_beta	104.524003
_cell_angle_gamma	105.756000
loop_
_atom_site_label
_atom_site_type_symbol
_atom_site_fract_x
_atom_site_fract_y
_atom_site_fract_z
V1	V	-4.058289	-0.149602	-0.302870
V2	V	-3.558289	0.350398	0.197130
O3	O	-4.024746	0.006492	-0.283880
O4	O	-3.524746	0.506492	0.216120
O5	O	-4.029265	-0.295964	-0.313516
O6	O	-3.529265	0.204036	0.186484
O7	O	-4.014663	-0.147606	-0.429159
O8	O	-3.514663	0.352394	0.070841
O9	O	-4.039449	-0.142893	-0.167437
O10	O	-3.539449	0.357107	0.332563
V11	V	-4.538788	-0.130895	-0.285126
V12	V	-4.038788	0.369105	0.214874
O13	O	-4.326182	-0.190636	-0.341792
O14	O	-3.826182	0.309364	0.158208
O15	O	-4.721093	-0.089860	-0.246203
O16	O	-4.221093	0.410140	0.253797
O17	O	-4.344606	0.015468	-0.274479
O18	O	-3.844606	0.515468	0.225521
O19	O	-4.689729	-0.286988	-0.304115
O20	O	-4.189729	0.213012	0.195885
O21	O	-4.675025	-0.137603	-0.420558
O22	O	-4.175025	0.362397	0.079442
O23	O	-4.359208	-0.132890	-0.158836
O24	O	-3.859208	0.367110	0.341164
C25	C	-3.878825	-0.331635	-0.312020
C26	C	-3.378825	0.168365	0.187980
C27	C	-3.936413	-0.451290	-0.321567
C28	C	-3.436413	0.048710	0.178433
C29	C	-4.063293	-0.635506	-0.421527
C30	C	-3.563293	-0.135506	0.078473
C31	C	-4.009190	-0.523080	-0.412561
C32	C	-3.509190	-0.023080	0.087439
C33	C	-3.917745	-0.491933	-0.239534
C34	C	-3.417745	0.008067	0.260466
C35	C	-3.971848	-0.604359	-0.248501
C36	C	-3.471848	-0.104359	0.251499
C37	C	-4.044618	-0.676142	-0.339500
C38	C	-3.544618	-0.176142	0.160500
C39	C	-4.098707	-0.788570	-0.348465
C40	C	-3.598707	-0.288570	0.151535
C41	C	-4.007276	-0.757421	-0.175440
C42	C	-3.507276	-0.257421	0.324560
C43	C	-3.953174	-0.644995	-0.166473
C44	C	-3.453174	-0.144995	0.333527
C45	C	-3.860197	-0.142388	-0.459533
C46	C	-3.360197	0.357612	0.040467
C47	C	-3.905940	-0.141725	-0.562858
C48	C	-3.405940	0.358275	-0.062858
C49	C	-4.073358	-0.139302	-0.941217
C50	C	-3.573358	0.360698	-0.441217
C51	C	-4.026769	-0.139976	-0.835946
C52	C	-3.526769	0.360024	-0.335946
C53	C	-3.989651	-0.140515	-0.752042
C54	C	-3.489651	0.359485	-0.252042
C55	C	-3.943058	-0.141187	-0.646763
C56	C	-3.443058	0.358813	-0.146763
C57	C	-4.158388	0.051133	-0.275973
C58	C	-3.658388	0.551133	0.224027
C59	C	-4.080039	0.170787	-0.266432
C60	C	-3.580039	0.670787	0.233568
C61	C	-4.177016	-0.138112	-0.128458
C62	C	-3.677016	0.361888	0.371542
C63	C	-4.110511	-0.138769	-0.025131
C64	C	-3.610511	0.361231	0.474869
H65	H	-3.893927	-0.586535	-0.092384
H66	H	-3.393927	-0.086535	0.407616
H67	H	-4.024414	-0.490001	-0.479356
H68	H	-3.524414	0.009999	0.020644
H69	H	-3.992057	-0.790517	-0.108647
H70	H	-3.492057	-0.290517	0.391353
H71	H	-4.122522	-0.693953	-0.495622
H72	H	-3.622522	-0.193953	0.004378
H73	H	-3.858513	-0.433469	-0.165447
H74	H	-3.358513	0.066531	0.334553
H75	H	-4.157949	-0.847015	-0.422562
H76	H	-3.657949	-0.347015	0.077438
