data_functionalizedCrystal
_audit_creation_method	'MofGen! by Chris Wilmer'
_symmetry_space_group_name_H-M	'P1'
_symmetry_Int_Tables_number	1
_symmetry_cell_setting	triclinic
loop_
_symmetry_equiv_pos_as_xyz
  x,y,z
_cell_length_a	21.295418
_cell_length_b	21.295417
_cell_length_c	21.295411
_cell_angle_alpha	89.978356
_cell_angle_beta	90.043738
_cell_angle_gamma	89.953681
loop_
_atom_site_label
_atom_site_type_symbol
_atom_site_fract_x
_atom_site_fract_y
_atom_site_fract_z
Zn1	Zn	0.962356	0.250415	0.356234
Zn2	Zn	1.295689	0.583749	0.689567
Zn3	Zn	1.629022	0.917082	1.022900
Zn4	Zn	0.962258	0.355667	0.250959
Zn5	Zn	1.295592	0.689000	0.584292
Zn6	Zn	1.628925	1.022334	0.917626
Zn7	Zn	0.857079	0.250445	0.250943
Zn8	Zn	1.190412	0.583778	0.584277
Zn9	Zn	1.523746	0.917111	0.917610
Zn10	Zn	0.857048	0.355680	0.356155
Zn11	Zn	1.190382	0.689013	0.689489
Zn12	Zn	1.523715	1.022346	1.022822
O13	O	0.909685	0.303052	0.303573
O14	O	1.243019	0.636385	0.636906
O15	O	1.576352	0.969718	0.970240
O16	O	1.050432	0.264360	0.342308
O17	O	1.383766	0.597693	0.675641
O18	O	1.717099	0.931026	1.008975
O19	O	0.948278	0.341716	0.162867
O20	O	1.281611	0.675050	0.496201
O21	O	1.614945	1.008383	0.829534
O22	O	0.871098	0.162351	0.264937
O23	O	1.204431	0.495685	0.598270
O24	O	1.537764	0.829018	0.931603
O25	O	1.050361	0.341688	0.264963
O26	O	1.383694	0.675021	0.598296
O27	O	1.717027	1.008354	0.931630
O28	O	0.948444	0.162330	0.342293
O29	O	1.281778	0.495663	0.675626
O30	O	1.615111	0.828996	1.008960
O31	O	0.871003	0.264410	0.162856
O32	O	1.204337	0.597743	0.496189
O33	O	1.537670	0.931077	0.829523
O34	O	0.768985	0.264422	0.264861
O35	O	1.102319	0.597755	0.598194
O36	O	1.435652	0.931089	0.931527
O37	O	0.871046	0.341709	0.444255
O38	O	1.204379	0.675042	0.777589
O39	O	1.537712	1.008376	1.110922
O40	O	0.768963	0.341738	0.342160
O41	O	1.102296	0.675071	0.675493
O42	O	1.435630	1.008404	1.008826
O43	O	0.948415	0.264372	0.444313
O44	O	1.281748	0.597705	0.777646
O45	O	1.615081	0.931038	1.110979
O46	O	0.948248	0.443758	0.264887
O47	O	1.281582	0.777091	0.598221
O48	O	1.614915	1.110425	0.931554
O49	O	0.870951	0.443767	0.342175
O50	O	1.204284	0.777101	0.675508
O51	O	1.537618	1.110434	1.008841
C52	C	0.909603	0.466603	0.303538
C53	C	1.242936	0.799937	0.636871
C54	C	1.576269	1.133270	0.970205
C55	C	0.909625	0.536571	0.303544
C56	C	1.242958	0.869905	0.636877
C57	C	1.576292	1.203238	0.970211
C58	C	0.746134	0.303085	0.303500
C59	C	1.079467	0.636418	0.636834
C60	C	1.412800	0.969751	0.970167
C61	C	0.676166	0.303114	0.303484
C62	C	1.009499	0.636447	0.636818
C63	C	1.342832	0.969781	0.970151
C64	C	0.909738	0.303038	0.467763
C65	C	1.243071	0.636372	0.801097
C66	C	1.576404	0.969705	1.134430
C67	C	0.909760	0.303033	0.537731
C68	C	1.243093	0.636366	0.871065
C69	C	1.576427	0.969699	1.204398
C70	C	0.643304	0.343426	0.343674
C71	C	0.976637	0.676759	0.677007
C72	C	1.309970	1.010092	1.010340
C73	C	0.577561	0.343410	0.343702
C74	C	0.910894	0.676743	0.677035
C75	C	1.244228	1.010077	1.010369
C76	C	0.544683	0.303090	0.303530
C77	C	0.878016	0.636423	0.636863
C78	C	1.211350	0.969756	0.970196
C79	C	0.577553	0.262770	0.263337
C80	C	0.910886	0.596104	0.596671
C81	C	1.244220	0.929437	0.930004
C82	C	0.643294	0.262783	0.263315
C83	C	0.976627	0.596116	0.596648
C84	C	1.309961	0.929449	0.929982
N85	N	0.441407	0.298163	0.248472
N86	N	0.774740	0.631496	0.581805
N87	N	1.108074	0.964829	0.915139
N88	N	0.378956	0.298155	0.248495
N89	N	0.712289	0.631488	0.581829
N90	N	1.045622	0.964821	0.915162
C91	C	0.346608	0.303050	0.303596
C92	C	0.679942	0.636383	0.636930
C93	C	1.013275	0.969716	0.970263
N94	N	0.379072	0.307965	0.358675
N95	N	0.712405	0.641298	0.692008
N96	N	1.045739	0.974632	1.025341
N97	N	0.441529	0.307976	0.358650
N98	N	0.774862	0.641309	0.691984
N99	N	1.108196	0.974643	1.025317
C100	C	0.473398	0.303072	0.303550
C101	C	0.806731	0.636405	0.636883
C102	C	1.140064	0.969738	0.970217
C103	C	0.242461	0.343346	0.343820
C104	C	0.575794	0.676680	0.677153
C105	C	0.909128	1.010013	1.010486
C106	C	0.176717	0.343326	0.343849
C107	C	0.510051	0.676660	0.677182
C108	C	0.843384	1.009993	1.010516
C109	C	0.176710	0.262690	0.263479
C110	C	0.510044	0.596023	0.596812
C111	C	0.843377	0.929357	0.930146
C112	C	0.242453	0.262707	0.263455
C113	C	0.575786	0.596040	0.596789
C114	C	0.909119	0.929373	0.930122
C115	C	0.275324	0.303038	0.303625
C116	C	0.608657	0.636372	0.636958
C117	C	0.941991	0.969705	0.970291
C118	C	1.073876	0.303019	0.303646
C119	C	1.407209	0.636352	0.636979
C120	C	1.740542	0.969686	0.970313
C121	C	1.143844	0.303005	0.303677
C122	C	1.477177	0.636338	0.637010
C123	C	1.810510	0.969672	0.970344
C124	C	0.909785	0.138861	0.303622
C125	C	1.243119	0.472195	0.636955
C126	C	1.576452	0.805528	0.970288
C127	C	0.909828	0.068893	0.303642
C128	C	1.243161	0.402227	0.636976
C129	C	1.576495	0.735560	0.970309
C130	C	0.949910	0.569412	0.263342
C131	C	1.283243	0.902746	0.596675
C132	C	1.616576	1.236079	0.930009
C133	C	0.949939	0.635155	0.263356
C134	C	1.283272	0.968488	0.596689
C135	C	1.616606	1.301822	0.930023
C136	C	0.909673	0.668054	0.303566
C137	C	1.243006	1.001387	0.636899
C138	C	1.576340	1.334721	0.970233
C139	C	0.869386	0.635205	0.343776
C140	C	1.202719	0.968538	0.677109
C141	C	1.536052	1.301872	1.010443
C142	C	0.869362	0.569464	0.343765
C143	C	1.202695	0.902797	0.677098
C144	C	1.536028	1.236130	1.010432
N145	N	0.854606	0.771336	0.308340
N146	N	1.187939	1.104669	0.641674
N147	N	1.521272	1.438002	0.975007
N148	N	0.854630	0.833787	0.308347
N149	N	1.187964	1.167120	0.641680
N150	N	1.521297	1.500454	0.975014
C151	C	0.909743	0.866129	0.303602
C152	C	1.243077	1.199462	0.636935
C153	C	1.576410	1.532795	0.970269
N154	N	0.964832	0.833659	0.298838
N155	N	1.298166	1.166993	0.632171
N156	N	1.631499	1.500326	0.965504
N157	N	0.964807	0.771202	0.298828
N158	N	1.298140	1.104535	0.632161
N159	N	1.631474	1.437869	0.965494
C160	C	0.909695	0.739339	0.303582
C161	C	1.243028	1.072673	0.636916
C162	C	1.576361	1.406006	0.970249
C163	C	0.950063	0.970255	0.263413
C164	C	1.283397	1.303588	0.596746
C165	C	1.616730	1.636922	0.930080
C166	C	0.950094	1.035999	0.263431
C167	C	1.283427	1.369332	0.596765
C168	C	1.616760	1.702665	0.930098
C169	C	0.869535	1.036048	0.343848
C170	C	1.202868	1.369381	0.677181
C171	C	1.536201	1.702714	1.010515
C172	C	0.869510	0.970305	0.343833
C173	C	1.202843	1.303638	0.677166
C174	C	1.536176	1.636972	1.010500
C175	C	0.909773	0.937413	0.303612
C176	C	1.243106	1.270746	0.636945
C177	C	1.576440	1.604079	0.970279
C178	C	0.909670	0.303019	0.140021
C179	C	1.243003	0.636353	0.473355
C180	C	1.576336	0.969686	0.806688
C181	C	0.909769	0.302848	0.070054
C182	C	1.243103	0.636181	0.403387
C183	C	1.576436	0.969514	0.736720
C184	C	0.950044	0.262761	0.570629
C185	C	1.283377	0.596095	0.903962
C186	C	1.616711	0.929428	1.237296
C187	C	0.950043	0.262734	0.636371
C188	C	1.283377	0.596067	0.969705
C189	C	1.616710	0.929401	1.303038
C190	C	0.909765	0.302989	0.669214
C191	C	1.243098	0.636323	1.002547
C192	C	1.576431	0.969656	1.335881
C193	C	0.869473	0.343263	0.636308
C194	C	1.202806	0.676597	0.969642
C195	C	1.536139	1.009930	1.302975
C196	C	0.869470	0.343285	0.570567
C197	C	1.202804	0.676618	0.903900
C198	C	1.536137	1.009952	1.237234
N199	N	0.904908	0.358058	0.772428
N200	N	1.238241	0.691392	1.105761
N201	N	1.571575	1.024725	1.439094
N202	N	0.904914	0.358036	0.834879
N203	N	1.238247	0.691369	1.168213
N204	N	1.571581	1.024703	1.501546
C205	C	0.909769	0.302926	0.867289
C206	C	1.243102	0.636259	1.200622
C207	C	1.576435	0.969592	1.533955
N208	N	0.914629	0.247837	0.834888
N209	N	1.247963	0.581170	1.168221
N210	N	1.581296	0.914504	1.501554
N211	N	0.914627	0.247860	0.772430
N212	N	1.247960	0.581193	1.105764
N213	N	1.581293	0.914527	1.439097
C214	C	0.909763	0.302970	0.740499
C215	C	1.243096	0.636303	1.073833
C216	C	1.576429	0.969637	1.407166
C217	C	0.950054	0.262621	0.971472
C218	C	1.283388	0.595955	1.304805
C219	C	1.616721	0.929288	1.638139
C220	C	0.950049	0.262593	1.037216
C221	C	1.283382	0.595926	1.370549
C222	C	1.616716	0.929260	1.703882
C223	C	0.869482	0.343128	1.037151
C224	C	1.202815	0.676461	1.370485
C225	C	1.536148	1.009795	1.703818
C226	C	0.869484	0.343151	0.971409
C227	C	1.202817	0.676484	1.304742
C228	C	1.536150	1.009817	1.638076
C229	C	0.909773	0.302898	0.938573
C230	C	1.243107	0.636231	1.271906
C231	C	1.576440	0.969565	1.605240
H232	H	0.670063	0.376266	0.376384
H233	H	1.003397	0.709599	0.709717
H234	H	1.336730	1.042932	1.043050
Br235	Br	1.004720	0.208131	0.526069
Br236	Br	1.338053	0.541464	0.859402
Br237	Br	1.671387	0.874798	1.192735
Br238	Br	0.814686	0.524891	0.398331
Br239	Br	1.148020	0.858224	0.731664
Br240	Br	1.481353	1.191557	1.064997
H241	H	0.269226	0.376183	0.376531
H242	H	0.602560	0.709517	0.709865
H243	H	0.935893	1.042850	1.043198
H244	H	0.836602	0.661996	0.376516
H245	H	1.169935	0.995329	0.709850
H246	H	1.503268	1.328662	1.043183
H247	H	0.982846	0.229937	0.663162
H248	H	1.316180	0.563270	0.996495
H249	H	1.649513	0.896604	1.329829
Br250	Br	1.004777	1.080570	0.208873
Br251	Br	1.338110	1.413904	0.542206
Br252	Br	1.671444	1.747237	0.875539
Br253	Br	0.814804	0.397892	0.680878
Br254	Br	1.148137	0.731225	1.014212
Br255	Br	1.481471	1.064558	1.347545
Br256	Br	1.004561	0.524775	0.208765
Br257	Br	1.337894	0.858109	0.542099
Br258	Br	1.671228	1.191442	0.875432
H259	H	0.269209	0.229884	0.230726
H260	H	0.602543	0.563217	0.564059
H261	H	0.935876	0.896550	0.897392
H262	H	0.982746	0.661899	0.230619
H263	H	1.316079	0.995233	0.563952
H264	H	1.649412	1.328566	0.897285
H265	H	0.670050	0.229954	0.230588
H266	H	1.003383	0.563287	0.563921
H267	H	1.336717	0.896621	0.897254
Br268	Br	0.132117	0.398035	0.398402
Br269	Br	0.465451	0.731368	0.731736
Br270	Br	0.798784	1.064701	1.065069
Br271	Br	1.004703	0.925612	0.208827
Br272	Br	1.338036	1.258945	0.542160
Br273	Br	1.671369	1.592278	0.875494
Br274	Br	0.532935	0.208044	0.208823
Br275	Br	0.866268	0.541377	0.542156
Br276	Br	1.199601	0.874711	0.875489
H277	H	0.149942	0.229857	0.230773
H278	H	0.483275	0.563191	0.564106
H279	H	0.816608	0.896524	0.897440
H280	H	0.836663	0.376078	0.543782
H281	H	1.169996	0.709411	0.877116
H282	H	1.503330	1.042745	1.210449
Br283	Br	0.814809	0.397753	1.081716
Br284	Br	1.148142	0.731087	1.415049
Br285	Br	1.481475	1.064420	1.748383
Br286	Br	0.814893	1.080689	0.398426
Br287	Br	1.148226	1.414022	0.731760
Br288	Br	1.481560	1.747356	1.065093
H289	H	0.836704	0.943564	0.376567
H290	H	1.170037	1.276898	0.709900
H291	H	1.503370	1.610231	1.043233
Br292	Br	0.814810	0.397809	0.926759
Br293	Br	1.148143	0.731142	1.260092
Br294	Br	1.481477	1.064476	1.593426
Br295	Br	1.004729	0.207992	0.926905
Br296	Br	1.338063	0.541326	1.260238
Br297	Br	1.671396	0.874659	1.593572
H298	H	0.550800	0.376236	0.376431
H299	H	0.884133	0.709570	0.709765
H300	H	1.217466	1.042903	1.043098
Br301	Br	1.004735	0.207943	1.081864
Br302	Br	1.338068	0.541277	1.415197
Br303	Br	1.671402	0.874610	1.748531
