data_functionalizedCrystal
_audit_creation_method	'MofGen! by Chris Wilmer'
_symmetry_space_group_name_H-M	'P1'
_symmetry_Int_Tables_number	1
_symmetry_cell_setting	triclinic
loop_
_symmetry_equiv_pos_as_xyz
  x,y,z
_cell_length_a	17.077404
_cell_length_b	17.077402
_cell_length_c	17.077396
_cell_angle_alpha	90.030619
_cell_angle_beta	90.019200
_cell_angle_gamma	90.021987
loop_
_atom_site_label
_atom_site_type_symbol
_atom_site_fract_x
_atom_site_fract_y
_atom_site_fract_z
Zn1	Zn	-1.200037	0.312520	-0.443877
Zn2	Zn	-1.199949	0.443797	-0.312608
Zn3	Zn	-1.068774	0.312547	-0.312620
Zn4	Zn	-1.068737	0.443746	-0.443827
O5	O	-1.134374	0.378153	-0.378233
O6	O	-1.309872	0.329945	-0.426479
O7	O	-1.182528	0.426419	-0.202762
O8	O	-1.086239	0.202697	-0.330058
O9	O	-1.309808	0.426393	-0.330036
O10	O	-1.182677	0.202677	-0.426491
O11	O	-1.086154	0.329991	-0.202771
O12	O	-0.958922	0.329941	-0.330009
O13	O	-1.086175	0.426306	-0.553680
O14	O	-0.958895	0.426332	-0.426406
O15	O	-1.182641	0.329895	-0.553717
O16	O	-1.182492	0.553637	-0.329988
O17	O	-1.086090	0.553600	-0.426394
C18	C	-0.930427	0.378135	-0.378204
C19	C	-0.843177	0.378146	-0.378210
C20	C	-0.802193	0.428412	-0.428322
C21	C	-0.720212	0.428412	-0.428332
C22	C	-0.679217	0.378149	-0.378225
C23	C	-0.720207	0.327878	-0.328111
C24	C	-0.802186	0.327874	-0.328106
C25	C	-0.549337	0.327890	-0.328124
C26	C	-0.467352	0.327894	-0.328128
C27	C	-0.467363	0.428427	-0.428350
C28	C	-0.549342	0.428424	-0.428345
C29	C	-0.590326	0.378153	-0.378230
C30	C	-1.134299	0.582101	-0.378201
C31	C	-1.134338	0.669350	-0.378214
C32	C	-1.134414	0.378092	-0.582977
C33	C	-1.134431	0.378066	-0.670227
C34	C	-0.339119	0.378167	-0.378253
C35	C	-0.426368	0.378160	-0.378240
C36	C	-1.134472	0.173408	-0.378281
C37	C	-1.134513	0.086159	-0.378302
C38	C	-1.184585	0.710334	-0.328069
C39	C	-1.184624	0.792314	-0.328089
C40	C	-1.134410	0.833310	-0.378251
C41	C	-1.084161	0.792320	-0.428401
C42	C	-1.084127	0.710342	-0.428385
C43	C	-1.084233	0.963190	-0.428431
C44	C	-1.084266	1.045175	-0.428447
C45	C	-1.184730	1.045163	-0.328136
C46	C	-1.184697	0.963184	-0.328119
C47	C	-1.134446	0.922201	-0.378269
C48	C	-1.084264	0.327850	-0.711221
C49	C	-1.084277	0.327832	-0.793202
C50	C	-1.134461	0.378027	-0.834186
C51	C	-1.184630	0.428249	-0.793186
C52	C	-1.184612	0.428270	-0.711207
C53	C	-1.184664	0.428200	-0.964057
C54	C	-1.184682	0.428178	-1.046041
C55	C	-1.084328	0.327762	-1.046051
C56	C	-1.084311	0.327783	-0.964072
C57	C	-1.134481	0.378004	-0.923077
C58	C	-1.134380	0.378157	-0.174285
C59	C	-1.134516	0.377961	-0.087036
H60	H	-0.433976	0.286957	-0.287336
H61	H	-1.043279	0.825705	-0.469247
H62	H	-1.225472	0.676961	-0.287219
O63	O	-1.035452	0.279106	-0.924294
C64	C	-0.957212	0.296233	-0.944324
H65	H	-0.953221	0.358936	-0.966845
H66	H	-0.936722	0.254131	-0.991916
C67	C	-0.909717	0.210102	-0.843833
C68	C	-0.904815	0.287116	-0.871487
H69	H	-0.877395	0.204475	-0.798906
H70	H	-0.962429	0.198560	-0.830340
H71	H	-0.892644	0.175025	-0.883500
H72	H	-0.921897	0.322190	-0.831824
H73	H	-0.852105	0.298664	-0.884972
H74	H	-1.043211	0.676973	-0.469218
O75	O	-1.233509	0.923272	-0.279501
C76	C	-1.284172	0.875793	-0.324234
H77	H	-1.256445	0.863497	-0.383695
H78	H	-1.342354	0.907330	-0.332917
C79	C	-1.332426	0.813040	-0.208018
C80	C	-1.298368	0.797932	-0.281046
H81	H	-1.341186	0.765012	-0.181376
H82	H	-1.298296	0.845029	-0.177879
H83	H	-1.380907	0.839322	-0.215263
H84	H	-1.249883	0.771659	-0.273799
H85	H	-1.332491	0.765936	-0.311182
O86	O	-1.035496	0.279096	-1.085898
C87	C	-0.984793	0.323774	-1.133304
H88	H	-0.979921	0.385605	-1.108581
H89	H	-1.009063	0.326461	-1.195442
C90	C	-0.909189	0.209483	-1.164913
C91	C	-0.903199	0.285423	-1.134544
H92	H	-0.858859	0.185825	-1.165682
H93	H	-0.943350	0.179381	-1.132978
H94	H	-0.929417	0.211733	-1.216692
H95	H	-0.882981	0.283171	-1.082763
H96	H	-0.869033	0.315523	-1.166471
O97	O	-1.233469	0.477013	-0.924355
C98	C	-1.277753	0.521327	-0.978106
H99	H	-1.280503	0.489158	-1.036552
H100	H	-1.248977	0.580937	-0.986807
C101	C	-1.357906	0.572172	-0.874332
C102	C	-1.361289	0.532659	-0.946114
H103	H	-1.409434	0.579166	-0.854597
H104	H	-1.328070	0.542320	-0.838118
H105	H	-1.333923	0.621843	-0.881592
H106	H	-1.385263	0.482986	-0.938851
H107	H	-1.391132	0.562504	-0.982326
H108	H	-1.043403	0.286970	-0.677857
O109	O	-1.035650	0.279022	-0.833117
C110	C	-1.080368	0.228305	-0.880553
H111	H	-1.139849	0.255986	-0.892830
H112	H	-1.089006	0.170134	-0.848989
C113	C	-0.964142	0.180092	-0.943347
C114	C	-1.037195	0.214094	-0.958431
H115	H	-0.937510	0.171322	-0.991384
H116	H	-0.934014	0.214259	-0.911386
H117	H	-0.971350	0.131620	-0.917041
H118	H	-1.029985	0.262569	-0.984727
H119	H	-1.067321	0.179934	-0.990398
O120	O	-1.233417	0.477077	-0.671504
C121	C	-1.277700	0.521392	-0.725255
H122	H	-1.280452	0.489222	-0.783700
H123	H	-1.248921	0.581001	-0.733958
C124	C	-1.357849	0.572243	-0.621480
C125	C	-1.361235	0.532729	-0.693262
H126	H	-1.409376	0.579240	-0.601745
H127	H	-1.328013	0.542390	-0.585266
H128	H	-1.333863	0.621913	-0.628743
H129	H	-1.385211	0.483057	-0.685997
H130	H	-1.391077	0.562574	-0.729474
O131	O	-1.233500	0.476834	-1.085896
C132	C	-1.284222	0.432147	-1.133355
H133	H	-1.289119	0.370334	-1.108663
H134	H	-1.259954	0.429412	-1.195478
C135	C	-1.359779	0.546450	-1.164962
C136	C	-1.365800	0.470531	-1.134631
H137	H	-1.410100	0.570128	-1.165753
H138	H	-1.325605	0.576557	-1.132990
H139	H	-1.339553	0.544160	-1.216729
H140	H	-1.386016	0.472823	-1.082863
H141	H	-1.399979	0.440425	-1.166594
H142	H	-1.225486	0.469123	-0.826563
H143	H	-0.686847	0.469344	-0.469138
O144	O	-0.841891	0.477262	-0.477072
C145	C	-0.788134	0.521640	-0.521291
H146	H	-0.729708	0.489493	-0.524067
H147	H	-0.779383	0.581222	-0.492441
C148	C	-0.891914	0.572538	-0.601404
C149	C	-0.820157	0.533051	-0.604820
H150	H	-0.911668	0.579581	-0.652927
H151	H	-0.928132	0.542643	-0.571611
H152	H	-0.884612	0.622186	-0.577359
H153	H	-0.827462	0.483401	-0.628855
H154	H	-0.783941	0.562939	-0.634618
H155	H	-0.582718	0.469356	-0.469142
H156	H	-1.225649	1.078536	-0.287305
H157	H	-1.043392	1.078551	-0.469307
H158	H	-0.582703	0.286947	-0.287322
O159	O	-0.680471	0.279091	-0.279330
C160	C	-0.700451	0.296157	-0.201060
H161	H	-0.759963	0.326325	-0.199374
H162	H	-0.654289	0.336485	-0.174552
C163	C	-0.631147	0.182517	-0.155722
C164	C	-0.704245	0.219565	-0.153650
H165	H	-0.633484	0.135273	-0.126475
H166	H	-0.617683	0.171021	-0.208453
H167	H	-0.592687	0.216132	-0.133633
H168	H	-0.742702	0.185954	-0.175747
H169	H	-0.717715	0.231054	-0.100921
H170	H	-0.433990	0.469357	-0.469159
H171	H	-1.225540	0.825680	-0.287256
O172	O	-1.035351	0.923499	-0.477175
C173	C	-0.991052	0.977260	-0.521468
H174	H	-0.988373	1.035722	-0.489323
H175	H	-1.019769	0.985915	-0.581112
C176	C	-0.910781	0.873516	-0.572185
C177	C	-0.907484	0.945318	-0.532701
H178	H	-0.859233	0.853812	-0.579117
H179	H	-0.940627	0.837295	-0.542347
H180	H	-0.934715	0.880738	-0.621884
H181	H	-0.883559	0.938093	-0.482999
H182	H	-0.877632	0.981536	-0.562531
H183	H	-0.835554	0.286939	-0.287304
