data_functionalizedCrystal
_audit_creation_method	'MofGen! by Chris Wilmer'
_symmetry_space_group_name_H-M	'P1'
_symmetry_Int_Tables_number	1
_symmetry_cell_setting	triclinic
loop_
_symmetry_equiv_pos_as_xyz
  x,y,z
_cell_length_a	16.974800
_cell_length_b	16.992695
_cell_length_c	17.766277
_cell_angle_alpha	89.993690
_cell_angle_beta	93.647453
_cell_angle_gamma	87.021674
loop_
_atom_site_label
_atom_site_type_symbol
_atom_site_fract_x
_atom_site_fract_y
_atom_site_fract_z
O1	O	1.055459	0.099873	0.001724
O2	O	1.555459	0.599873	0.501724
O3	O	0.826059	0.112614	-0.012258
O4	O	1.326059	0.612614	0.487742
O5	O	0.939839	-0.007898	-0.005317
O6	O	1.439839	0.492102	0.494683
O7	O	0.941679	0.220385	-0.005217
O8	O	1.441679	0.720385	0.494783
O9	O	0.939818	-0.007904	0.119870
O10	O	1.439818	0.492096	0.619870
O11	O	0.826037	0.112608	0.112930
O12	O	1.326037	0.612608	0.612930
O13	O	1.055437	0.099867	0.126911
O14	O	1.555437	0.599867	0.626911
Cu15	Cu	0.940735	0.106237	0.131351
Cu16	Cu	1.440735	0.606237	0.631351
Cu17	Cu	0.940761	0.106244	-0.016698
Cu18	Cu	1.440761	0.606244	0.483302
O19	O	0.941657	0.220379	0.119970
O20	O	1.441657	0.720379	0.619970
C21	C	0.796559	0.112128	0.048539
C22	C	1.296559	0.612128	0.548539
C23	C	0.708691	0.110681	0.043184
C24	C	1.208691	0.610681	0.543184
C25	C	0.937462	-0.037111	0.057132
C26	C	1.437462	0.462889	0.557132
C27	C	0.930403	-0.124147	0.056702
C28	C	1.430403	0.375853	0.556702
C29	C	0.667404	0.109996	0.108909
C30	C	1.167404	0.609996	0.608909
C31	C	0.584843	0.108624	0.103880
C32	C	1.084843	0.608624	0.603880
C33	C	0.543572	0.107942	0.033124
C34	C	1.043572	0.607942	0.533124
C35	C	0.584865	0.108625	-0.032606
C36	C	1.084865	0.608625	0.467394
C37	C	0.667425	0.109992	-0.027576
C38	C	1.167425	0.609992	0.472424
C39	C	0.296658	0.103850	0.010763
C40	C	0.796658	0.603850	0.510763
C41	C	0.214093	0.102485	0.005737
C42	C	0.714093	0.602485	0.505737
C43	C	0.214076	0.102482	0.142224
C44	C	0.714076	0.602482	0.642224
C45	C	0.296637	0.103854	0.147248
C46	C	0.796637	0.603854	0.647248
C47	C	0.337923	0.104532	0.081518
C48	C	0.837923	0.604532	0.581518
N49	N	0.459182	0.106542	0.027982
N50	N	0.959182	0.606542	0.527982
N51	N	0.422312	0.105927	0.086661
N52	N	0.922312	0.605927	0.586661
C53	C	0.998518	-0.174465	0.060854
C54	C	1.498518	0.325535	0.560854
C55	C	0.991880	-0.256244	0.060442
C56	C	1.491880	0.243756	0.560442
C57	C	0.917126	-0.287704	0.055884
C58	C	1.417126	0.212296	0.555884
C59	C	0.849006	-0.237380	0.051729
C60	C	1.349006	0.262620	0.551729
C61	C	0.855645	-0.155602	0.052135
C62	C	1.355645	0.344398	0.552135
C63	C	0.889612	-0.531270	0.054196
C64	C	1.389612	-0.031270	0.554196
C65	C	0.882978	-0.613054	0.053793
C66	C	1.382978	-0.113054	0.553793
C67	C	1.025853	-0.631913	0.062504
C68	C	1.525853	-0.131913	0.562504
C69	C	1.032485	-0.550133	0.062915
C70	C	1.532485	-0.050133	0.562915
C71	C	0.964365	-0.499816	0.058756
C72	C	1.464365	0.000184	0.558756
N73	N	0.910340	-0.371295	0.055465
N74	N	1.410340	0.128705	0.555465
N75	N	0.971152	-0.416226	0.059170
N76	N	1.471152	0.083774	0.559170
C77	C	1.084937	0.100353	0.066113
C78	C	1.584937	0.600353	0.566113
C79	C	1.172805	0.101800	0.071463
C80	C	1.672805	0.601800	0.571463
C81	C	0.944034	0.249592	0.057519
C82	C	1.444034	0.749592	0.557519
C83	C	0.951093	0.336628	0.057945
C84	C	1.451093	0.836628	0.557945
N85	N	0.940723	0.106231	0.235480
N86	N	1.440723	0.606231	0.735480
N87	N	0.940779	0.106244	-0.120827
N88	N	1.440779	0.606244	0.379173
C89	C	0.991124	0.052895	0.277942
C90	C	1.491124	0.552895	0.777942
C91	C	0.991128	0.052891	0.356744
C92	C	1.491128	0.552891	0.856744
C93	C	0.940740	0.106238	0.393082
C94	C	1.440740	0.606238	0.893082
C95	C	0.890329	0.159578	0.350611
C96	C	1.390329	0.659578	0.850611
C97	C	0.890320	0.159575	0.271810
C98	C	1.390320	0.659575	0.771810
C99	C	0.934893	0.177655	0.517560
C100	C	1.434893	0.677655	1.017560
C101	C	0.934907	0.177659	0.596360
C102	C	1.434907	0.677659	1.096360
C103	C	0.940762	0.106247	0.636130
C104	C	1.440762	0.606247	1.136130
C105	C	0.946619	0.034828	0.597091
C106	C	1.446619	0.534828	1.097091
C107	C	0.946611	0.034824	0.518291
C108	C	1.446611	0.534824	1.018291
C109	C	0.940743	0.106247	0.478528
C110	C	1.440743	0.606247	0.978528
C111	C	0.991170	0.052902	0.764037
C112	C	1.491170	0.552902	1.264037
C113	C	0.991169	0.052897	0.842840
C114	C	1.491169	0.552897	1.342840
C115	C	0.890374	0.159591	0.836706
C116	C	1.390374	0.659591	1.336706
C117	C	0.890371	0.159589	0.757904
C118	C	1.390371	0.659589	1.257904
C119	C	0.940773	0.106245	0.721575
C120	C	1.440773	0.606245	1.221575
H121	H	0.551231	0.108053	0.157401
H122	H	1.051231	0.608053	0.657401
O123	O	0.810342	-0.643580	0.049223
O124	O	1.310342	-0.143580	0.549223
C125	C	0.768515	-0.617844	-0.018158
C126	C	1.268515	-0.117844	0.481842
H127	H	0.812149	-0.600872	-0.060811
H128	H	1.312149	-0.100872	0.439189
H129	H	0.731761	-0.667350	-0.042165
H130	H	1.231761	-0.167350	0.457835
H131	H	0.727814	-0.564502	-0.005986
H132	H	1.227814	-0.064502	0.494014
H133	H	0.180452	0.101928	0.195738
H134	H	0.680452	0.601928	0.695738
O135	O	0.336816	0.104404	0.215940
O136	O	0.836816	0.604404	0.715940
C137	C	0.389226	0.037312	0.223228
C138	C	0.889226	0.537312	0.723228
H139	H	0.403164	0.014895	0.164828
H140	H	0.903164	0.514895	0.664828
H141	H	0.446226	0.053533	0.255586
H142	H	0.946226	0.553533	0.755586
H143	H	0.360671	-0.010743	0.255164
H144	H	0.860671	0.489257	0.755164
H145	H	0.180491	0.101932	-0.051883
H146	H	0.680491	0.601932	0.448117
O147	O	0.789502	-0.106688	0.047972
O148	O	1.289502	0.393312	0.547972
C149	C	0.789091	-0.058801	-0.016880
C150	C	1.289091	0.441199	0.483120
H151	H	0.827638	-0.088794	-0.059846
H152	H	1.327638	0.411206	0.440154
H153	H	0.725990	-0.049527	-0.042491
H154	H	1.225990	0.450473	0.457509
H155	H	0.813313	0.000641	-0.000745
H156	H	1.313313	0.500641	0.499255
O157	O	0.707466	0.110517	0.177660
O158	O	1.207466	0.610517	0.677660
C159	C	0.691940	0.042319	0.218239
C160	C	1.191940	0.542319	0.718239
H161	H	0.672516	-0.005491	0.177127
H162	H	1.172516	0.494509	0.677127
H163	H	0.747797	0.020433	0.252599
H164	H	1.247797	0.520433	0.752599
H165	H	0.642954	0.056867	0.257804
H166	H	1.142954	0.556867	0.757804
O167	O	1.105040	-0.519445	0.067365
O168	O	1.605040	-0.019445	0.567365
C169	C	1.096293	-0.436476	0.066813
C170	C	1.596293	0.063524	0.566813
H171	H	1.035804	-0.417205	0.086830
H172	H	1.535804	0.082795	0.586830
H173	H	1.144434	-0.411422	0.106089
H174	H	1.644434	0.088578	0.606089
H175	H	1.101569	-0.413710	0.007075
H176	H	1.601569	0.086290	0.507075
H177	H	0.330263	0.104400	-0.042760
H178	H	0.830263	0.604400	0.457240
H179	H	0.849343	0.203024	0.866292
H180	H	1.349343	0.703024	1.366292
H181	H	1.047347	-0.297210	0.063825
H182	H	1.547347	0.202790	0.563825
H183	H	1.081312	-0.672889	0.065889
H184	H	1.581312	-0.172889	0.565889
O185	O	0.823464	-0.482370	0.050030
O186	O	1.323464	0.017630	0.550030
C187	C	0.823043	-0.434483	-0.014824
C188	C	1.323043	0.065517	0.485176
H189	H	0.861593	-0.464471	-0.057790
H190	H	1.361593	0.035529	0.442210
H191	H	0.759941	-0.425221	-0.040433
H192	H	1.259941	0.074779	0.459567
H193	H	0.847254	-0.375037	0.001310
H194	H	1.347254	0.124963	0.501310
O195	O	1.071091	-0.143815	0.065179
O196	O	1.571091	0.356185	0.565179
C197	C	1.079224	-0.097083	0.000829
C198	C	1.579224	0.402917	0.500829
H199	H	1.018198	-0.076640	-0.024504
H200	H	1.518198	0.423360	0.475496
H201	H	1.114124	-0.043571	0.017539
H202	H	1.614124	0.456429	0.517539
H203	H	1.111924	-0.133249	-0.042580
H204	H	1.611924	0.366751	0.457420
H205	H	1.032209	0.009460	0.877413
H206	H	1.532209	0.509460	1.377413
O207	O	0.776451	-0.268067	0.047338
O208	O	1.276451	0.231933	0.547338
C209	C	0.785195	-0.351036	0.047853
C210	C	1.285195	0.148964	0.547853
H211	H	0.845677	-0.370314	0.075240
H212	H	1.345677	0.129686	0.575240
H213	H	0.737043	-0.376096	0.081264
H214	H	1.237043	0.123904	0.581264
H215	H	0.779936	-0.373791	-0.012527
H216	H	1.279936	0.126209	0.487473
H217	H	0.551256	0.108065	-0.090217
H218	H	1.051256	0.608065	0.409783
O219	O	0.841392	0.211483	0.716768
O220	O	1.341392	0.711483	1.216768
C221	C	0.796903	0.258555	0.765735
C222	C	1.296903	0.758555	1.265735
H223	H	0.829379	0.259425	0.823878
H224	H	1.329379	0.759425	1.323878
H225	H	0.788793	0.321177	0.742466
H226	H	1.288793	0.821177	1.242466
H227	H	0.736564	0.233130	0.770457
H228	H	1.236564	0.733130	1.270457
O229	O	1.040102	0.000997	0.242770
O230	O	1.540102	0.500997	0.742770
C231	C	1.084603	-0.046068	0.297154
C232	C	1.584603	0.453932	0.797154
H233	H	1.052138	-0.046931	0.351356
H234	H	1.552138	0.453069	0.851356
H235	H	1.092709	-0.108692	0.274890
H236	H	1.592709	0.391308	0.774890
H237	H	1.144943	-0.020640	0.309190
H238	H	1.644943	0.479360	0.809190
H239	H	0.701040	0.110551	-0.081097
H240	H	1.201040	0.610551	0.418903
H241	H	0.951378	-0.023328	0.486509
H242	H	1.451378	0.476672	0.986509
O243	O	1.040133	0.001185	0.398084
O244	O	1.540133	0.501185	0.898084
C245	C	1.091575	0.043156	0.446764
C246	C	1.591575	0.543156	0.946764
H247	H	1.063955	0.104524	0.456885
H248	H	1.563955	0.604524	0.956885
H249	H	1.102027	0.010426	0.502816
H250	H	1.602027	0.510426	1.002816
H251	H	1.150339	0.048455	0.419959
H252	H	1.650339	0.548455	0.919959
H253	H	0.951386	-0.023323	0.629470
H254	H	1.451386	0.476677	1.129470
H255	H	1.032209	0.009464	0.734457
H256	H	1.532209	0.509464	1.234457
O257	O	0.929179	0.247102	0.634159
O258	O	1.429179	0.747102	1.134159
C259	C	0.924017	0.310131	0.582162
C260	C	1.424017	0.810131	1.082162
H261	H	0.900920	0.288454	0.524593
H262	H	1.400920	0.788454	1.024593
H263	H	0.881880	0.358946	0.602368
H264	H	1.381880	0.858946	1.102368
H265	H	0.985075	0.333961	0.577480
H266	H	1.485075	0.833961	1.077480
H267	H	0.930111	0.235811	0.485185
H268	H	1.430111	0.735811	0.985185
O269	O	0.841343	0.211292	0.385987
O270	O	1.341343	0.711292	0.885987
C271	C	0.789912	0.169329	0.428442
C272	C	1.289912	0.669329	0.928442
H273	H	0.817531	0.107960	0.441931
H274	H	1.317531	0.607960	0.941931
H275	H	0.779478	0.202064	0.483217
H276	H	1.279478	0.702064	0.983217
H277	H	0.731138	0.164031	0.394509
H278	H	1.231138	0.664031	0.894509
H279	H	0.849277	0.203009	0.237237
H280	H	1.349277	0.703009	0.737237
