data_functionalizedCrystal
_audit_creation_method	'MofGen! by Chris Wilmer'
_symmetry_space_group_name_H-M	'P1'
_symmetry_Int_Tables_number	1
_symmetry_cell_setting	triclinic
loop_
_symmetry_equiv_pos_as_xyz
  x,y,z
_cell_length_a	12.827893
_cell_length_b	13.897447
_cell_length_c	13.897441
_cell_angle_alpha	90.026528
_cell_angle_beta	89.980094
_cell_angle_gamma	89.978644
loop_
_atom_site_label
_atom_site_type_symbol
_atom_site_fract_x
_atom_site_fract_y
_atom_site_fract_z
Zn1	Zn	1.597634	0.383980	-0.545387
Zn2	Zn	1.930967	0.717313	-0.212054
Zn3	Zn	2.264301	1.050647	0.121280
Zn4	Zn	1.597508	0.545302	-0.384100
Zn5	Zn	1.930842	0.878635	-0.050767
Zn6	Zn	2.264175	1.211968	0.282567
Zn7	Zn	1.422873	0.384023	-0.384108
Zn8	Zn	1.756207	0.717356	-0.050775
Zn9	Zn	2.089540	1.050689	0.282559
Zn10	Zn	1.422843	0.545235	-0.545355
Zn11	Zn	1.756176	0.878569	-0.212022
Zn12	Zn	2.089510	1.211902	0.121312
O13	O	1.510215	0.464635	-0.464737
O14	O	1.843548	0.797968	-0.131404
O15	O	2.176881	1.131302	0.201929
O16	O	1.743853	0.405390	-0.524002
O17	O	2.077187	0.738723	-0.190669
O18	O	2.410520	1.072056	0.142664
O19	O	1.574303	0.523953	-0.249119
O20	O	1.907636	0.857287	0.084214
O21	O	2.240970	1.190620	0.417547
O22	O	1.446121	0.249035	-0.405519
O23	O	1.779454	0.582369	-0.072185
O24	O	2.112788	0.915702	0.261148
O25	O	1.743761	0.523912	-0.405505
O26	O	2.077094	0.857245	-0.072172
O27	O	2.410428	1.190579	0.261161
O28	O	1.574517	0.249004	-0.524010
O29	O	1.907850	0.582337	-0.190677
O30	O	2.241184	0.915671	0.142657
O31	O	1.445999	0.405463	-0.249125
O32	O	1.779333	0.738796	0.084208
O33	O	2.112666	1.072129	0.417542
O34	O	1.276633	0.405398	-0.405487
O35	O	1.609967	0.738731	-0.072154
O36	O	1.943300	1.072065	0.261179
O37	O	1.446069	0.523799	-0.680341
O38	O	1.779402	0.857132	-0.347008
O39	O	2.112736	1.190465	-0.013674
O40	O	1.276611	0.523840	-0.523955
O41	O	1.609944	0.857173	-0.190622
O42	O	1.943278	1.190507	0.142712
O43	O	1.574487	0.405325	-0.680365
O44	O	1.907821	0.738658	-0.347031
O45	O	2.241154	1.071992	-0.013698
O46	O	1.574273	0.680275	-0.405474
O47	O	1.907607	1.013608	-0.072141
O48	O	2.240940	1.346941	0.261193
O49	O	1.445947	0.680226	-0.523947
O50	O	1.779281	1.013559	-0.190614
O51	O	2.112614	1.346892	0.142719
C52	C	1.238705	0.464617	-0.464719
C53	C	1.572038	0.797950	-0.131386
C54	C	1.905371	1.131284	0.201948
C55	C	1.122552	0.464633	-0.464734
C56	C	1.455885	0.797966	-0.131401
C57	C	1.789218	1.131299	0.201933
C58	C	1.070812	0.406088	-0.523462
C59	C	1.404146	0.739421	-0.190128
C60	C	1.737479	1.072755	0.143205
C61	C	0.950762	0.406103	-0.523478
C62	C	1.284095	0.739436	-0.190145
C63	C	1.617429	1.072770	0.143188
C64	C	1.510122	0.715249	-0.464727
C65	C	1.843455	1.048583	-0.131394
C66	C	2.176789	1.381916	0.201939
C67	C	1.510178	0.822463	-0.464755
C68	C	1.843511	1.155797	-0.131422
C69	C	2.176844	1.489130	0.201911
C70	C	1.510226	0.909533	-0.464782
C71	C	1.843559	1.242866	-0.131448
C72	C	2.176892	1.576200	0.201885
C73	C	1.510295	1.018765	-0.464812
C74	C	1.843629	1.352099	-0.131478
C75	C	2.176962	1.685432	0.201855
C76	C	1.782785	0.464653	-0.464756
C77	C	2.116118	0.797987	-0.131423
C78	C	2.449451	1.131320	0.201910
C79	C	1.898938	0.464661	-0.464765
C80	C	2.232271	0.797995	-0.131431
C81	C	2.565605	1.131328	0.201902
C82	C	1.510289	0.464550	-0.716331
C83	C	1.843622	0.797883	-0.382997
C84	C	2.176956	1.131216	-0.049664
C85	C	1.510320	0.464513	-0.823545
C86	C	1.843654	0.797847	-0.490211
C87	C	2.176987	1.131180	-0.156878
C88	C	1.510329	1.213042	-0.464781
C89	C	1.843662	1.546375	-0.131448
C90	C	2.176995	1.879709	0.201886
C91	C	1.510357	1.105828	-0.464831
C92	C	1.843690	1.439161	-0.131498
C93	C	2.177023	1.772495	0.201836
C94	C	1.510349	0.464448	-1.019840
C95	C	1.843682	0.797781	-0.686507
C96	C	2.177016	1.131115	-0.353173
C97	C	1.510330	0.464487	-0.910607
C98	C	1.843663	0.797820	-0.577274
C99	C	2.176997	1.131154	-0.243941
C100	C	1.510201	0.464650	-0.214123
C101	C	1.843534	0.797984	0.119210
C102	C	2.176868	1.131317	0.452544
C103	C	1.510372	0.464415	-0.106910
C104	C	1.843705	0.797748	0.226424
C105	C	2.177039	1.131082	0.559757
H106	H	1.077971	0.514764	-0.414466
H107	H	1.411304	0.848097	-0.081133
H108	H	1.744638	1.181431	0.252201
H109	H	0.943426	0.514791	-0.414489
H110	H	1.276759	0.848125	-0.081155
H111	H	1.610093	1.181458	0.252178
H112	H	1.115393	0.355952	-0.573724
H113	H	1.448727	0.689285	-0.240391
H114	H	1.782060	1.022618	0.092942
H115	H	0.906267	0.355984	-0.573760
H116	H	1.239601	0.689317	-0.240427
H117	H	1.572934	1.022651	0.092906
