data_functionalizedCrystal
_audit_creation_method	'MofGen! by Chris Wilmer'
_symmetry_space_group_name_H-M	'P1'
_symmetry_Int_Tables_number	1
_symmetry_cell_setting	triclinic
loop_
_symmetry_equiv_pos_as_xyz
  x,y,z
_cell_length_a	13.339070
_cell_length_b	17.699077
_cell_length_c	16.776229
_cell_angle_alpha	89.993415
_cell_angle_beta	89.996888
_cell_angle_gamma	99.454935
loop_
_atom_site_label
_atom_site_type_symbol
_atom_site_fract_x
_atom_site_fract_y
_atom_site_fract_z
O1	O	0.127834	1.031102	-0.066275
O2	O	0.627834	1.531102	0.433725
O3	O	0.144476	0.814241	-0.066278
O4	O	0.644476	1.314241	0.433722
O5	O	-0.011047	0.897783	-0.066274
O6	O	0.488953	1.397783	0.433726
O7	O	0.283356	0.947560	-0.066278
O8	O	0.783356	1.447560	0.433722
O9	O	-0.011056	0.897766	0.066302
O10	O	0.488944	1.397766	0.566302
O11	O	0.144466	0.814224	0.066298
O12	O	0.644466	1.314224	0.566298
O13	O	0.127824	1.031085	0.066302
O14	O	0.627824	1.531085	0.566302
Zn15	Zn	0.136144	0.922652	0.087349
Zn16	Zn	0.636144	1.422652	0.587349
Zn17	Zn	0.136156	0.922674	-0.087326
Zn18	Zn	0.636156	1.422674	0.412674
O19	O	0.283347	0.947543	0.066298
O20	O	0.783347	1.447543	0.566298
C21	C	0.143875	0.785909	0.000010
C22	C	0.643875	1.285909	0.500010
C23	C	0.142090	0.701514	0.000008
C24	C	0.642090	1.201514	0.500008
C25	C	0.141243	0.661859	0.072276
C26	C	0.641243	1.161859	0.572276
C27	C	0.139549	0.582558	0.072277
C28	C	0.639549	1.082558	0.572277
C29	C	0.138709	0.542915	0.000009
C30	C	0.638709	1.042915	0.500009
C31	C	0.139552	0.582575	-0.072265
C32	C	0.639552	1.082575	0.427735
C33	C	0.141239	0.661873	-0.072265
C34	C	0.641239	1.161873	0.427735
C35	C	0.132748	0.262773	-0.072266
C36	C	0.632748	0.762773	0.427734
C37	C	0.131064	0.183469	-0.072261
C38	C	0.631064	0.683469	0.427739
C39	C	0.131058	0.183458	0.072276
C40	C	0.631058	0.683458	0.572276
C41	C	0.132745	0.262757	0.072276
C42	C	0.632745	0.762757	0.572276
C43	C	0.133583	0.302409	0.000003
C44	C	0.633583	0.802409	0.500003
C45	C	0.135418	0.388396	0.000002
C46	C	0.635418	0.888396	0.500002
C47	C	0.136881	0.456930	0.000008
C48	C	0.636881	0.956930	0.500008
C49	C	-0.048720	0.889366	0.000013
C50	C	0.451280	1.389366	0.500013
C51	C	-0.160959	0.864303	0.000009
C52	C	0.339041	1.364303	0.500009
C53	C	-0.526237	1.059182	0.000013
C54	C	-0.026237	1.559182	0.500013
C55	C	-0.420783	1.082733	0.000020
C56	C	0.079217	1.582733	0.500020
C57	C	-0.355822	1.028127	0.000017
C58	C	0.144178	1.528127	0.500017
C59	C	-0.396325	0.949967	0.000007
C60	C	0.103675	1.449967	0.500007
C61	C	-0.501790	0.926414	0.000005
C62	C	-0.001790	1.426414	0.500005
C63	C	-0.331375	0.895359	0.000010
C64	C	0.168625	1.395359	0.500010
C65	C	-0.371878	0.817199	-0.000001
C66	C	0.128122	1.317199	0.499999
C67	C	-0.477333	0.793650	-0.000003
C68	C	0.022667	1.293650	0.499997
C69	C	-0.542293	0.848255	0.000000
C70	C	-0.042293	1.348255	0.500000
C71	C	-0.225910	0.918912	0.000011
C72	C	0.274090	1.418912	0.500011
C73	C	-0.201463	0.786144	0.000004
C74	C	0.298537	1.286144	0.500004
C75	C	-0.306917	0.762593	-0.000004
C76	C	0.193083	1.262593	0.499996
C77	C	0.321020	0.955960	0.000009
C78	C	0.821020	1.455960	0.500009
C79	C	0.433259	0.981023	0.000008
C80	C	0.933259	1.481023	0.500008
C81	C	0.128425	1.059417	0.000012
C82	C	0.628425	1.559417	0.500012
C83	C	0.130210	1.143812	0.000008
C84	C	0.630210	1.643812	0.500008
N85	N	0.136135	0.922641	0.206561
N86	N	0.636135	1.422641	0.706561
N87	N	0.136157	0.922689	-0.206537
N88	N	0.636157	1.422689	0.293463
C89	C	0.067297	0.959655	0.248279
C90	C	0.567297	1.459655	0.748279
C91	C	0.067297	0.959659	0.331732
C92	C	0.567297	1.459659	0.831732
C93	C	0.136138	0.922654	0.373464
C94	C	0.636138	1.422654	0.873464
C95	C	0.204979	0.885635	0.331739
C96	C	0.704979	1.385635	0.831739
C97	C	0.204974	0.885626	0.248288
C98	C	0.704974	1.385626	0.748288
C99	C	0.204999	0.885666	0.668286
C100	C	0.704999	1.385666	1.168286
C101	C	0.205000	0.885679	0.751743
C102	C	0.705000	1.385679	1.251743
C103	C	0.067321	0.959699	0.751729
C104	C	0.567321	1.459699	1.251729
C105	C	0.067316	0.959691	0.668279
C106	C	0.567316	1.459691	1.168279
C107	C	0.136153	0.922669	0.626561
C108	C	0.636153	1.422669	1.126561
C109	C	0.136152	0.922664	0.536073
C110	C	0.636152	1.422664	1.036073
C111	C	0.136145	0.922663	0.463950
C112	C	0.636145	1.422663	0.963950
H113	H	0.130371	0.151163	0.131124
H114	H	0.630371	0.651163	0.631124
H115	H	0.011267	0.989842	0.785705
H116	H	0.511267	1.489842	1.285705
N117	N	0.279222	0.845710	0.203285
N118	N	0.779222	1.345710	0.703285
H119	H	0.240635	0.804096	0.168675
H120	H	0.740635	1.304096	0.668675
H121	H	0.322820	0.822316	0.242431
H122	H	0.822820	1.322316	0.742431
N123	N	0.138632	0.539784	0.150222
N124	N	0.638632	1.039784	0.650222
H125	H	0.138708	0.576847	0.196004
H126	H	0.638708	1.076847	0.696004
H127	H	0.200950	0.514340	0.153611
H128	H	0.700950	1.014340	0.653611
H129	H	-0.628164	0.829084	-0.000009
H130	H	-0.128164	1.329084	0.499991
H131	H	0.261049	0.855523	0.634326
H132	H	0.761049	1.355523	1.134326
H133	H	0.133428	0.295048	-0.131116
H134	H	0.633428	0.795048	0.368884
N135	N	0.130155	0.140708	-0.150210
N136	N	0.630155	0.640708	0.349790
H137	H	0.130938	0.177859	-0.195996
H138	H	0.630938	0.677859	0.304004
H139	H	0.066801	0.100787	-0.153348
H140	H	0.566801	0.600787	0.346652
N141	N	0.138634	0.539819	-0.150213
N142	N	0.638634	1.039819	0.349787
H143	H	0.137438	0.483566	-0.139249
H144	H	0.637438	0.983566	0.360751
H145	H	0.201583	0.560702	-0.181777
H146	H	0.701583	1.060702	0.318223
N147	N	0.279243	0.845751	0.796754
N148	N	0.779243	1.345751	1.296754
H149	H	0.268800	0.851378	0.855949
H150	H	0.768800	1.351378	1.355949
H151	H	0.350961	0.869541	0.782159
H152	H	0.850961	1.369541	1.282159
N153	N	0.133658	0.305510	0.150226
N154	N	0.633658	0.805510	0.650226
H155	H	0.070708	0.284688	0.181822
H156	H	0.570708	0.784688	0.681822
H157	H	0.134896	0.361753	0.139196
H158	H	0.634896	0.861753	0.639196
H159	H	0.141931	0.694159	-0.131113
H160	H	0.641931	1.194159	0.368887
H161	H	0.011243	0.989794	0.214307
H162	H	0.511243	1.489794	0.714307
H163	H	0.261028	0.855499	0.365722
H164	H	0.761028	1.355499	0.865722
H165	H	-0.192943	0.982550	0.000020
H166	H	0.307057	1.482550	0.500020
N167	N	-0.596307	1.118065	0.000027
N168	N	-0.096307	1.618065	0.500027
H169	H	-0.640606	1.111261	-0.049117
H170	H	-0.140606	1.611261	0.450883
H171	H	-0.554584	1.171127	0.000062
H172	H	-0.054584	1.671127	0.500062
H173	H	-0.269957	1.047307	0.000024
H174	H	0.230043	1.547307	0.500024
N175	N	-0.131412	0.727240	0.000010
N176	N	0.368588	1.227240	0.500010
H177	H	-0.058458	0.754020	0.000012
H178	H	0.441542	1.254020	0.500012
H179	H	-0.144497	0.694139	-0.049136
H180	H	0.355503	1.194139	0.450864
N181	N	-0.377098	1.167027	0.000036
N182	N	0.122902	1.667027	0.500036
H183	H	-0.434249	1.198046	0.000036
H184	H	0.065751	1.698046	0.500036
H185	H	-0.333866	1.179701	-0.049109
H186	H	0.166134	1.679701	0.450891
H187	H	0.141935	0.694132	0.131126
H188	H	0.641935	1.194132	0.631126
H189	H	-0.510306	0.730007	-0.000005
H190	H	-0.010306	1.230007	0.499995
H191	H	0.011244	0.989798	0.365699
H192	H	0.511244	1.489798	0.865699
N193	N	-0.350601	0.678293	-0.000010
N194	N	0.149399	1.178293	0.499990
H195	H	-0.393806	0.665572	-0.049156
H196	H	0.106194	1.165572	0.450844
H197	H	-0.393767	0.665612	0.049168
H198	H	0.106233	1.165612	0.549168
N199	N	-0.006929	0.999608	0.623268
N200	N	0.493071	1.499608	1.123268
H201	H	-0.050540	1.023056	0.662360
H202	H	0.449460	1.523056	1.162360
H203	H	-0.051581	0.961254	0.588655
H204	H	0.448419	1.461254	1.088655
