data_functionalizedCrystal
_audit_creation_method	'MofGen! by Chris Wilmer'
_symmetry_space_group_name_H-M	'P1'
_symmetry_Int_Tables_number	1
_symmetry_cell_setting	triclinic
loop_
_symmetry_equiv_pos_as_xyz
  x,y,z
_cell_length_a	21.295420
_cell_length_b	12.759399
_cell_length_c	12.759393
_cell_angle_alpha	90.028363
_cell_angle_beta	90.022717
_cell_angle_gamma	90.012947
loop_
_atom_site_label
_atom_site_type_symbol
_atom_site_fract_x
_atom_site_fract_y
_atom_site_fract_z
Zn1	Zn	-0.962403	0.418277	-0.594123
Zn2	Zn	-0.462403	0.918277	-0.094123
Zn3	Zn	-0.962338	0.593996	-0.418453
Zn4	Zn	-0.462338	1.093996	0.081547
Zn5	Zn	-0.857132	0.418323	-0.418449
Zn6	Zn	-0.357132	0.918323	0.081551
Zn7	Zn	-0.857123	0.593906	-0.594081
Zn8	Zn	-0.357123	1.093906	-0.094081
O9	O	-0.909749	0.506125	-0.506277
O10	O	-0.409749	1.006125	-0.006277
O11	O	-1.050484	0.441604	-0.570839
O12	O	-0.550484	0.941604	-0.070839
O13	O	-0.948359	0.570749	-0.271431
O14	O	-0.448359	1.070749	0.228569
O15	O	-0.871127	0.271296	-0.441769
O16	O	-0.371127	0.771296	0.058231
O17	O	-1.050436	0.570704	-0.441775
O18	O	-0.550436	1.070704	0.058225
O19	O	-0.948469	0.271262	-0.570835
O20	O	-0.448469	0.771262	-0.070835
O21	O	-0.871064	0.441683	-0.271429
O22	O	-0.371064	0.941683	0.228571
O23	O	-0.769041	0.441597	-0.441729
O24	O	-0.269041	0.941597	0.058271
O25	O	-0.871113	0.570552	-0.741108
O26	O	-0.371113	1.070552	-0.241108
O27	O	-0.769035	0.570597	-0.570765
O28	O	-0.269035	1.070597	-0.070765
O29	O	-0.948461	0.441518	-0.741139
O30	O	-0.448461	0.941518	-0.241139
O31	O	-0.948351	0.741005	-0.441735
O32	O	-0.448351	1.241005	0.058265
O33	O	-0.871050	0.740939	-0.570768
O34	O	-0.371050	1.240939	-0.070768
C35	C	-0.746197	0.506093	-0.506242
C36	C	-0.246197	1.006093	-0.006242
C37	C	-0.676229	0.506105	-0.506253
C38	C	-0.176229	1.006105	-0.006253
C39	C	-0.909709	0.779093	-0.506270
C40	C	-0.409709	1.279093	-0.006270
C41	C	-0.909750	0.895869	-0.506302
C42	C	-0.409750	1.395869	-0.006302
C43	C	-0.176785	0.573402	-0.573382
C44	C	0.323215	1.073402	-0.073382
C45	C	-0.242527	0.573404	-0.573373
C46	C	0.257473	1.073404	-0.073373
C47	C	-0.275390	0.506134	-0.506294
C48	C	0.224610	1.006134	-0.006294
C49	C	-0.242505	0.438876	-0.439200
C50	C	0.257495	0.938876	0.060800
C51	C	-0.176763	0.438884	-0.439204
C52	C	0.323237	0.938884	0.060796
N53	N	-0.378617	0.414148	-0.498380
N54	N	0.121383	0.914148	0.001620
N55	N	-0.441068	0.414144	-0.498383
N56	N	0.058932	0.914144	0.001617
C57	C	-0.473465	0.506109	-0.506276
C58	C	0.026535	1.006109	-0.006276
N59	N	-0.441051	0.598081	-0.514188
N60	N	0.058949	1.098081	-0.014188
N61	N	-0.378593	0.598084	-0.514191
N62	N	0.121407	1.098084	-0.014191
C63	C	-0.346675	0.506119	-0.506281
C64	C	0.153325	1.006119	-0.006281
C65	C	-0.577628	0.573370	-0.573350
C66	C	-0.077628	1.073370	-0.073350
C67	C	-0.643371	0.573374	-0.573334
C68	C	-0.143371	1.073374	-0.073334
C69	C	-0.643347	0.438837	-0.439166
C70	C	-0.143347	0.938837	0.060834
C71	C	-0.577605	0.438842	-0.439178
C72	C	-0.077605	0.938842	0.060822
C73	C	-0.544749	0.506108	-0.506275
C74	C	-0.044749	1.006108	-0.006275
C75	C	-0.073939	0.506153	-0.506305
C76	C	0.426061	1.006153	-0.006305
C77	C	-0.143907	0.506149	-0.506301
C78	C	0.356093	1.006149	-0.006301
C79	C	-0.950045	0.950731	-0.439192
C80	C	-0.450045	1.450731	0.060808
C81	C	-0.950082	1.060455	-0.439230
C82	C	-0.450082	1.560455	0.060770
C83	C	-0.869525	1.060447	-0.573493
C84	C	-0.369525	1.560447	-0.073493
C85	C	-0.869491	0.950725	-0.573459
C86	C	-0.369491	1.450725	-0.073459
C87	C	-0.990304	0.895876	-0.372036
C88	C	-0.490304	1.395876	0.127964
C89	C	-1.030601	0.950737	-0.304919
C90	C	-0.530601	1.450737	0.195081
C91	C	-1.030639	1.060461	-0.304957
C92	C	-0.530639	1.560461	0.195043
C93	C	-0.990379	1.115324	-0.372113
C94	C	-0.490379	1.615324	0.127887
C95	C	-0.909793	0.506019	-0.780310
C96	C	-0.409793	1.006019	-0.280310
C97	C	-0.909812	0.505974	-0.897087
C98	C	-0.409812	1.005974	-0.397087
C99	C	-0.909804	1.232092	-0.506320
C100	C	-0.409804	1.732092	-0.006320
C101	C	-0.909822	1.115316	-0.506375
C102	C	-0.409822	1.615316	-0.006375
C103	C	-0.950093	0.438780	-0.951967
C104	C	-0.450093	0.938780	-0.451967
C105	C	-0.950108	0.438742	-1.061691
C106	C	-0.450108	0.938742	-0.561691
C107	C	-0.869559	0.573102	-1.061646
C108	C	-0.369559	1.073102	-0.561646
C109	C	-0.869541	0.573134	-0.951924
C110	C	-0.369541	1.073134	-0.451924
C111	C	-0.990363	0.371620	-0.897130
C112	C	-0.490363	0.871620	-0.397130
C113	C	-1.030648	0.304421	-0.952009
C114	C	-0.530648	0.804421	-0.452009
C115	C	-1.030663	0.304383	-1.061734
C116	C	-0.530663	0.804383	-0.561734
C117	C	-0.990393	0.371544	-1.116578
C118	C	-0.490393	0.871544	-0.616578
C119	C	-0.909741	0.506155	-0.233309
C120	C	-0.409741	1.006155	0.266691
C121	C	-0.909845	0.505904	-0.116533
C122	C	-0.409845	1.005904	0.383467
H123	H	-0.150037	0.628178	-0.628014
H124	H	0.349963	1.128178	-0.128014
H125	H	-1.063460	0.249659	-1.106414
H126	H	-0.563460	0.749659	-0.606414
H127	H	-0.550875	0.628142	-0.627984
H128	H	-0.050875	1.128142	-0.127984
H129	H	-1.063456	1.105126	-0.250315
H130	H	-0.563456	1.605126	0.249685
F131	F	-0.542613	0.367254	-0.367787
F132	F	-0.042613	0.867254	0.132213
H133	H	-0.990418	1.204668	-0.372147
H134	H	-0.490418	1.704668	0.127853
H135	H	-0.990276	0.806533	-0.371994
H136	H	-0.490276	1.306533	0.128006
F137	F	-0.826669	0.644649	-0.893513
F138	F	-0.326669	1.144649	-0.393513
H139	H	-0.836747	1.105124	-0.628166
H140	H	-0.336747	1.605124	-0.128166
F141	F	-0.826606	0.892334	-0.644887
F142	F	-0.326606	1.392334	-0.144887
F143	F	-0.678318	0.367251	-0.367767
F144	F	-0.178318	0.867251	0.132233
F145	F	-1.073451	0.892347	-0.233460
F146	F	-0.573451	1.392347	0.266540
H147	H	-0.269301	0.628169	-0.628001
H148	H	0.230699	1.128169	-0.128001
F149	F	-0.277480	0.367286	-0.367806
F150	F	0.222520	0.867286	0.132194
H151	H	-0.990357	0.371646	-0.807787
H152	H	-0.490357	0.871646	-0.307787
F153	F	-1.073495	0.232934	-0.893639
F154	F	-0.573495	0.732934	-0.393639
F155	F	-0.990404	0.371487	-1.233358
F156	F	-0.490404	0.871487	-0.733358
H157	H	-0.149995	0.384115	-0.384578
H158	H	0.350005	0.884115	0.115422
F159	F	-0.678362	0.644964	-0.644727
F160	F	-0.178362	1.144964	-0.144727
F161	F	-0.826706	0.644577	-1.120019
F162	F	-0.326706	1.144577	-0.620019
