data_functionalizedCrystal
_audit_creation_method	'MofGen! by Chris Wilmer'
_symmetry_space_group_name_H-M	'P1'
_symmetry_Int_Tables_number	1
_symmetry_cell_setting	triclinic
loop_
_symmetry_equiv_pos_as_xyz
  x,y,z
_cell_length_a	14.519731
_cell_length_b	12.996460
_cell_length_c	14.519709
_cell_angle_alpha	90.007122
_cell_angle_beta	96.315501
_cell_angle_gamma	89.998888
loop_
_atom_site_label
_atom_site_type_symbol
_atom_site_fract_x
_atom_site_fract_y
_atom_site_fract_z
O1	O	1.223850	-0.085571	-0.120987
O2	O	0.955376	-0.085573	-0.135203
O3	O	1.096732	-0.085563	0.006143
O4	O	1.082495	-0.085582	-0.262333
O5	O	1.096729	0.085571	0.006152
O6	O	0.955374	0.085561	-0.135194
O7	O	1.223848	0.085563	-0.120978
Cu8	Cu	1.089611	0.101187	-0.128085
Cu9	Cu	1.089614	-0.101198	-0.128096
O10	O	1.082493	0.085552	-0.262324
C11	C	0.921016	-0.000006	-0.134532
C12	C	0.818635	-0.000007	-0.132536
C13	C	0.735491	-0.000011	-0.130915
C14	C	0.631182	-0.000011	-0.128888
C15	C	0.548043	-0.000011	-0.127280
C16	C	0.443728	-0.000013	-0.125253
N17	N	1.089616	-0.243545	-0.128097
C18	C	1.089612	-0.663360	-0.128088
C19	C	1.089610	-0.546554	-0.128093
C20	C	1.089613	-0.453456	-0.128092
C21	C	1.089613	-0.336644	-0.128098
C22	C	1.258209	-0.000007	-0.121649
C23	C	1.360589	-0.000013	-0.123645
C24	C	1.096067	0.000004	0.040507
C25	C	1.094079	0.000005	0.142889
N26	N	1.089615	0.243535	-0.128077
C27	C	1.083157	-0.000017	-0.296688
C28	C	1.085146	-0.000024	-0.399070
C29	C	1.086759	-0.000022	0.517785
C30	C	1.088792	-0.000014	0.413477
C31	C	1.090419	-0.000008	0.330340
C32	C	1.092452	-0.000002	0.226025
