data_functionalizedCrystal
_audit_creation_method	'MofGen! by Chris Wilmer'
_symmetry_space_group_name_H-M	'P1'
_symmetry_Int_Tables_number	1
_symmetry_cell_setting	triclinic
loop_
_symmetry_equiv_pos_as_xyz
  x,y,z
_cell_length_a	9.016244
_cell_length_b	16.992694
_cell_length_c	16.992700
_cell_angle_alpha	89.332302
_cell_angle_beta	90.009188
_cell_angle_gamma	89.998176
loop_
_atom_site_label
_atom_site_type_symbol
_atom_site_fract_x
_atom_site_fract_y
_atom_site_fract_z
O1	O	0.123194	-1.050852	0.166913
O2	O	0.623194	-0.550852	0.666913
O3	O	0.123237	-0.822452	0.165082
O4	O	0.623237	-0.322452	0.665082
O5	O	0.123178	-0.935738	0.051798
O6	O	0.623178	-0.435738	0.551798
O7	O	0.123253	-0.937567	0.280198
O8	O	0.623253	-0.437567	0.780198
O9	O	-0.123503	-0.935720	0.051800
O10	O	0.376497	-0.435720	0.551800
O11	O	-0.123444	-0.822435	0.165084
O12	O	0.376556	-0.322435	0.665084
O13	O	-0.123487	-1.050835	0.166915
O14	O	0.376513	-0.550835	0.666915
Cu15	Cu	-0.145989	-0.936633	0.166000
Cu16	Cu	0.354011	-0.436633	0.666000
Cu17	Cu	0.145739	-0.936654	0.165998
Cu18	Cu	0.645739	-0.436654	0.665998
O19	O	-0.123428	-0.937550	0.280200
O20	O	0.376572	-0.437550	0.780200
C21	C	-0.000099	-0.793084	0.162727
C22	C	0.499901	-0.293084	0.662727
C23	C	-0.000084	-0.705599	0.155699
C24	C	0.499916	-0.205599	0.655699
N25	N	-0.351176	-0.936625	0.166001
N26	N	0.148824	-0.436625	0.666001
C27	C	-0.000169	-0.933374	0.022439
C28	C	0.499831	-0.433374	0.522439
C29	C	-0.000187	-0.926346	-0.065046
C30	C	0.499813	-0.426346	0.434954
C31	C	-0.586177	-0.875816	0.226375
C32	C	-0.086177	-0.375816	0.726375
C33	C	-0.414285	-0.875971	0.226622
C34	C	0.085715	-0.375971	0.726622
C35	C	-0.413522	-1.019887	0.189089
C36	C	0.086478	-0.519887	0.689089
C37	C	-0.585467	-1.019561	0.189522
C38	C	-0.085467	-0.519561	0.689522
C39	C	-0.585742	-0.914976	0.082373
C40	C	-0.085742	-0.414976	0.582373
C41	C	-0.413788	-0.913117	0.082808
C42	C	0.086212	-0.413117	0.582808
N43	N	0.350925	-0.936669	0.165991
N44	N	0.850925	-0.436669	0.665991
C45	C	-0.000148	-1.080204	0.169270
C46	C	0.499852	-0.580204	0.669270
C47	C	-0.000154	-1.167688	0.176299
C48	C	0.499846	-0.667688	0.676299
C49	C	-0.000063	-0.659608	0.223517
C50	C	0.499937	-0.159608	0.723517
C51	C	-0.000085	-0.577407	0.216908
C52	C	0.499915	-0.077407	0.716908
C53	C	-0.000118	-0.541199	0.142480
C54	C	0.499882	-0.041199	0.642480
C55	C	-0.000144	-0.587197	0.074657
C56	C	0.499856	-0.087197	0.574657
C57	C	-0.000132	-0.669396	0.081267
C58	C	0.499868	-0.169396	0.581267
C59	C	-0.000167	-0.295885	0.115086
C60	C	0.499833	0.204115	0.615086
C61	C	-0.000175	-0.213680	0.108481
C62	C	0.499825	0.286320	0.608481
C63	C	-0.000119	-0.203896	0.250732
C64	C	0.499881	0.296104	0.750732
C65	C	-0.000098	-0.286097	0.257335
C66	C	0.499902	0.213903	0.757335
C67	C	-0.000131	-0.332087	0.189512
C68	C	0.499869	0.167913	0.689512
N69	N	-0.000137	-0.457177	0.135723
N70	N	0.499863	0.042823	0.635723
N71	N	-0.000123	-0.416108	0.196270
N72	N	0.499877	0.083892	0.696270
C73	C	-0.000043	-0.879124	-0.556965
C74	C	0.499957	-0.379124	-0.056965
C75	C	-0.000058	-0.885734	-0.474764
C76	C	0.499942	-0.385734	0.025236
C77	C	-0.000093	-0.960162	-0.438557
C78	C	0.499907	-0.460162	0.061443
C79	C	-0.000096	-1.027984	-0.484555
C80	C	0.499904	-0.527984	0.015445
C81	C	-0.000070	-1.021374	-0.566754
C82	C	0.499930	-0.521374	-0.066754
C83	C	-0.000164	-0.987558	-0.193243
C84	C	0.499836	-0.487558	0.306757
C85	C	-0.000195	-0.994163	-0.111038
C86	C	0.499805	-0.494163	0.388962
C87	C	-0.000154	-0.851912	-0.101253
C88	C	0.499846	-0.351912	0.398747
C89	C	-0.000137	-0.845308	-0.183454
C90	C	0.499863	-0.345308	0.316546
C91	C	-0.000132	-0.913131	-0.229445
C92	C	0.499868	-0.413131	0.270555
N93	N	-0.000113	-0.966919	-0.354535
N94	N	0.499887	-0.466919	0.145465
N95	N	-0.000101	-0.906372	-0.313465
N96	N	0.499899	-0.406372	0.186535
C97	C	-0.000078	-0.939914	0.309559
C98	C	0.499922	-0.439914	0.809559
C99	C	-0.000050	-0.946942	0.397043
C100	C	0.499950	-0.446942	0.897043
H101	H	-0.372134	-0.814247	0.212107
H102	H	0.127866	-0.314247	0.712107
H103	H	-0.000095	-0.166442	0.305950
H104	H	0.499905	0.333558	0.805950
H105	H	-0.000224	-1.054774	-0.081561
H106	H	0.499776	-0.554774	0.418439
O107	O	-0.000150	-0.719007	0.008122
O108	O	0.499850	-0.219007	0.508122
H109	H	-0.000162	-0.680022	-0.044744
H110	H	0.499838	-0.180022	0.455256
O111	O	-0.359823	-0.831949	0.059760
O112	O	0.140177	-0.331949	0.559760
H113	H	-0.294708	-0.835424	0.004482
H114	H	0.205292	-0.335424	0.504482
O115	O	-0.000005	-0.798848	-0.596016
O116	O	0.499995	-0.298848	-0.096016
H117	H	0.000013	-0.752801	-0.550221
H118	H	0.500013	-0.252801	-0.050221
H119	H	-0.000156	-0.796695	-0.063798
H120	H	0.499844	-0.296695	0.436202
O121	O	-0.000193	-1.060706	-0.242844
O122	O	0.499807	-0.560706	0.257156
H123	H	-0.000246	-1.113568	-0.203854
H124	H	0.499754	-0.613568	0.296146
O125	O	-0.356470	-1.044569	0.269200
O126	O	0.143530	-0.544569	0.769200
H127	H	-0.283727	-0.997674	0.292700
H128	H	0.216273	-0.497674	0.792700
H129	H	-0.000200	-0.184203	0.047870
H130	H	0.499800	0.315797	0.547870
O131	O	-0.641012	-0.793814	0.207368
O132	O	-0.141012	-0.293814	0.707368
H133	H	-0.544846	-0.754712	0.195341
H134	H	-0.044846	-0.254712	0.695341
O135	O	-0.000095	-0.765029	-0.222500
O136	O	0.499905	-0.265029	0.277500
H137	H	-0.000093	-0.771827	-0.287385
H138	H	0.499907	-0.271827	0.212615
O139	O	-0.000132	-1.108263	-0.445509
O140	O	0.499868	-0.608263	0.054491
H141	H	-0.000165	-1.101468	-0.380624
H142	H	0.499835	-0.601468	0.119376
O143	O	-0.000093	-1.094519	-0.616366
O144	O	0.499907	-0.594519	-0.116366
H145	H	-0.000138	-1.147384	-0.577381
H146	H	0.499862	-0.647384	-0.077381
O147	O	-0.000078	-0.812589	-0.425155
O148	O	0.499922	-0.312589	0.074845
H149	H	-0.000079	-0.759724	-0.464142
H150	H	0.499921	-0.259724	0.035858
H151	H	-0.629186	-0.855305	0.061449
H152	H	-0.129186	-0.355305	0.561449
O153	O	-0.000206	-0.345482	0.041935
O154	O	0.499794	0.154518	0.541935
H155	H	0.100327	-0.332056	0.006561
H156	H	0.600327	0.167944	0.506561
O157	O	-0.643345	-0.894648	0.307963
O158	O	-0.143345	-0.394648	0.807963
H159	H	-0.716358	-0.947162	0.305694
H160	H	-0.216358	-0.447162	0.805694
H161	H	-0.000192	-0.557710	0.014056
H162	H	0.499808	-0.057710	0.514056
O163	O	-0.359736	-0.895028	0.308671
O164	O	0.140264	-0.395028	0.808671
H165	H	-0.456170	-0.904176	0.348326
H166	H	0.043830	-0.404176	0.848326
H167	H	-0.000054	-0.315571	0.317942
H168	H	0.499946	0.184429	0.817942
H169	H	-0.626418	-0.959292	0.037377
H170	H	-0.126418	-0.459292	0.537377
O171	O	-0.638563	-1.043842	0.270504
O172	O	-0.138563	-0.543842	0.770504
H173	H	-0.596008	-1.001674	0.314500
H174	H	-0.096008	-0.501674	0.814500
O175	O	-0.640594	-1.081700	0.133846
O176	O	-0.140594	-0.581700	0.633846
H177	H	-0.599377	-1.068501	0.073578
H178	H	-0.099377	-0.568501	0.573578
O179	O	-0.359380	-1.081587	0.132674
O180	O	0.140620	-0.581587	0.632674
H181	H	-0.287280	-1.053495	0.087476
H182	H	0.212720	-0.553495	0.587476
H183	H	-0.000035	-0.689081	0.284123
H184	H	0.499965	-0.189081	0.784123
O185	O	-0.356920	-0.967497	0.019974
O186	O	0.143080	-0.467497	0.519974
H187	H	-0.234016	-0.964393	0.017873
H188	H	0.265984	-0.464393	0.517873
H189	H	-0.000066	-0.539964	0.272132
H190	H	0.499934	-0.039964	0.772132
