data_functionalizedCrystal
_audit_creation_method	'MofGen! by Chris Wilmer'
_symmetry_space_group_name_H-M	'P1'
_symmetry_Int_Tables_number	1
_symmetry_cell_setting	triclinic
loop_
_symmetry_equiv_pos_as_xyz
  x,y,z
_cell_length_a	19.805407
_cell_length_b	14.908520
_cell_length_c	19.805398
_cell_angle_alpha	93.269215
_cell_angle_beta	89.986879
_cell_angle_gamma	93.320773
loop_
_atom_site_label
_atom_site_type_symbol
_atom_site_fract_x
_atom_site_fract_y
_atom_site_fract_z
Zn1	Zn	1.019159	-0.359172	-0.398269
Zn2	Zn	1.352492	-0.025838	-0.064936
Zn3	Zn	1.685826	0.307495	0.268398
Zn4	Zn	1.012562	-0.510040	-0.291612
Zn5	Zn	1.345895	-0.176707	0.041721
Zn6	Zn	1.679229	0.156627	0.375055
Zn7	Zn	0.905985	-0.359199	-0.285095
Zn8	Zn	1.239319	-0.025866	0.048239
Zn9	Zn	1.572652	0.307467	0.381572
Zn10	Zn	0.899415	-0.509989	-0.404757
Zn11	Zn	1.232748	-0.176656	-0.071423
Zn12	Zn	1.566081	0.156677	0.261910
O13	O	0.959280	-0.434600	-0.344933
O14	O	1.292614	-0.101267	-0.011600
O15	O	1.625947	0.232067	0.321734
O16	O	1.113000	-0.379194	-0.384133
O17	O	1.446333	-0.045861	-0.050800
O18	O	1.779667	0.287472	0.282534
O19	O	0.998413	-0.490063	-0.196032
O20	O	1.331747	-0.156730	0.137301
O21	O	1.665080	0.176603	0.470634
O22	O	0.926509	-0.232951	-0.294665
O23	O	1.259842	0.100383	0.038668
O24	O	1.593175	0.433716	0.372002
O25	O	1.108153	-0.490037	-0.305773
O26	O	1.441487	-0.156703	0.027561
O27	O	1.774820	0.176630	0.360894
O28	O	1.009657	-0.232930	-0.377813
O29	O	1.342990	0.100403	-0.044480
O30	O	1.676324	0.433736	0.288853
O31	O	0.920112	-0.379241	-0.191244
O32	O	1.253445	-0.045908	0.142089
O33	O	1.586778	0.287425	0.475423
O34	O	0.810398	-0.379192	-0.300956
O35	O	1.143731	-0.045859	0.032378
O36	O	1.477064	0.287474	0.365711
O37	O	0.915310	-0.489950	-0.498611
O38	O	1.248644	-0.156617	-0.165278
O39	O	1.581977	0.176716	0.168055
O40	O	0.805570	-0.489977	-0.388871
O41	O	1.138904	-0.156644	-0.055538
O42	O	1.472237	0.176690	0.277796
O43	O	1.003286	-0.379145	-0.493845
O44	O	1.336619	-0.045812	-0.160511
O45	O	1.669953	0.287521	0.172822
O46	O	0.992042	-0.636278	-0.312064
O47	O	1.325375	-0.302945	0.021270
O48	O	1.658709	0.030388	0.354603
O49	O	0.908913	-0.636241	-0.395191
O50	O	1.242247	-0.302908	-0.061857
O51	O	1.575580	0.030426	0.271476
C52	C	0.783425	-0.434583	-0.344911
C53	C	1.116758	-0.101249	-0.011577
C54	C	1.450092	0.232084	0.321756
C55	C	0.708192	-0.434597	-0.344918
C56	C	1.041526	-0.101264	-0.011585
C57	C	1.374859	0.232070	0.321749
C58	C	0.670349	-0.492370	-0.390629
C59	C	1.003682	-0.159036	-0.057296
C60	C	1.337015	0.174297	0.276038
C61	C	0.599660	-0.492371	-0.390639
C62	C	0.932993	-0.159038	-0.057305
C63	C	1.266327	0.174295	0.276028
C64	C	0.566817	-0.434604	-0.344933
C65	C	0.900150	-0.101271	-0.011600
C66	C	1.233483	0.232063	0.321733
C67	C	0.604666	-0.376825	-0.299220
C68	C	0.937999	-0.043492	0.034113
C69	C	1.271332	0.289841	0.367447
C70	C	0.675353	-0.376820	-0.299214
C71	C	1.008686	-0.043486	0.034119
C72	C	1.342020	0.289847	0.367452
C73	C	0.319591	-0.376845	-0.299243
C74	C	0.652925	-0.043512	0.034090
C75	C	0.986258	0.289821	0.367423
C76	C	0.248899	-0.376857	-0.299251
C77	C	0.582232	-0.043524	0.034082
C78	C	0.915565	0.289810	0.367415
C79	C	0.243899	-0.492397	-0.390668
C80	C	0.577232	-0.159063	-0.057334
C81	C	0.910565	0.174270	0.275999
C82	C	0.314586	-0.492391	-0.390662
C83	C	0.647919	-0.159058	-0.057328
C84	C	0.981253	0.174276	0.276005
C85	C	0.352429	-0.434609	-0.344951
C86	C	0.685762	-0.101276	-0.011618
C87	C	1.019096	0.232057	0.321715
C88	C	0.429077	-0.434607	-0.344942
C89	C	0.762411	-0.101274	-0.011609
C90	C	1.095744	0.232060	0.321724
C91	C	0.490169	-0.434610	-0.344939
C92	C	0.823502	-0.101277	-0.011605
C93	C	1.156836	0.232056	0.321728
C94	C	0.949067	-0.668994	-0.355053
C95	C	1.282400	-0.335660	-0.021720
C96	C	1.615734	-0.002327	0.311614
C97	C	0.944760	-0.769268	-0.359405
C98	C	1.278093	-0.435935	-0.026072
C99	C	1.611426	-0.102601	0.307262
C100	C	1.023317	-0.957672	-0.281093
C101	C	1.356650	-0.624339	0.052241
C102	C	1.689983	-0.291006	0.385574
C103	C	1.019272	-1.051889	-0.285180
C104	C	1.352605	-0.718556	0.048154
C105	C	1.685939	-0.385223	0.381487
C106	C	0.932629	-1.051920	-0.371669
C107	C	1.265962	-0.718587	-0.038335
C108	C	1.599296	-0.385254	0.294998
C109	C	0.936674	-0.957704	-0.367582
C110	C	1.270007	-0.624370	-0.034249
C111	C	1.603341	-0.291037	0.299085
C112	C	0.982019	-0.910583	-0.322292
C113	C	1.315352	-0.577249	0.011042
C114	C	1.648685	-0.243916	0.344375
C115	C	0.986060	-0.816364	-0.318202
C116	C	1.319393	-0.483031	0.015132
C117	C	1.652726	-0.149698	0.348465
C118	C	0.899421	-0.816397	-0.404694
C119	C	1.232754	-0.483064	-0.071360
C120	C	1.566087	-0.149731	0.261973
C121	C	0.895376	-0.910614	-0.408781
C122	C	1.228709	-0.577281	-0.075447
C123	C	1.562042	-0.243947	0.257886
C124	C	1.135822	-0.434618	-0.344956
C125	C	1.469156	-0.101285	-0.011623
C126	C	1.802489	0.232049	0.321710
C127	C	1.211054	-0.434626	-0.344966
C128	C	1.544387	-0.101292	-0.011633
C129	C	1.877720	0.232041	0.321701
C130	C	0.959301	-0.434539	-0.521473
C131	C	1.292634	-0.101206	-0.188140
C132	C	1.625968	0.232128	0.145193
C133	C	0.959310	-0.434513	-0.596704
C134	C	1.292643	-0.101180	-0.263371
C135	C	1.625976	0.232154	0.069962
C136	C	0.969552	-0.199291	-0.334788
C137	C	1.302885	0.134042	-0.001455
C138	C	1.636218	0.467375	0.331878
C139	C	0.973929	-0.099017	-0.330465
C140	C	1.307262	0.234317	0.002868
C141	C	1.640596	0.567650	0.336201
C142	C	1.000194	-0.492075	-1.060980
C143	C	1.333528	-0.158741	-0.727647
C144	C	1.666861	0.174592	-0.394313
C145	C	1.000175	-0.492099	-0.990293
C146	C	1.333508	-0.158766	-0.656959
C147	C	1.666841	0.174568	-0.323626
C148	C	0.959398	-0.434411	-0.952462
C149	C	1.292732	-0.101078	-0.619128
C150	C	1.626065	0.232255	-0.285795
C151	C	0.918634	-0.376702	-0.985322
C152	C	1.251967	-0.043368	-0.651989
C153	C	1.585301	0.289965	-0.318655
C154	C	0.918651	-0.376682	-1.056008
C155	C	1.251984	-0.043349	-0.722675
C156	C	1.585317	0.289984	-0.389342
C157	C	0.918565	-0.376779	-0.700252
C158	C	1.251899	-0.043446	-0.366919
C159	C	1.585232	0.289888	-0.033585
C160	C	0.918553	-0.376801	-0.629561
C161	C	1.251887	-0.043467	-0.296227
C162	C	1.585220	0.289866	0.037106
C163	C	1.000089	-0.492196	-0.634536
C164	C	1.333423	-0.158862	-0.301203
C165	C	1.666756	0.174471	0.032130
C166	C	1.000106	-0.492176	-0.705223
C167	C	1.333439	-0.158843	-0.371889
C168	C	1.666773	0.174490	-0.038556
C169	C	0.959339	-0.434471	-0.738077
C170	C	1.292673	-0.101137	-0.404743
C171	C	1.626006	0.232196	-0.071410
C172	C	0.959360	-0.434446	-0.814724
C173	C	1.292694	-0.101113	-0.481391
C174	C	1.626027	0.232221	-0.148058
C175	C	0.959380	-0.434431	-0.875815
C176	C	1.292714	-0.101097	-0.542482
C177	C	1.626047	0.232236	-0.209149
C178	C	0.959301	-0.434596	-0.169077
C179	C	1.292635	-0.101262	0.164256
C180	C	1.625968	0.232071	0.497590
C181	C	0.959435	-0.434368	-0.093836
C182	C	1.292768	-0.101034	0.239498
C183	C	1.626101	0.232299	0.572831
H184	H	0.568850	-0.539416	-0.427861
H185	H	0.902184	-0.206083	-0.094527
H186	H	1.235517	0.127250	0.238806
H187	H	1.022980	-0.777999	-0.281323
H188	H	1.356313	-0.444666	0.052011
H189	H	1.689646	-0.111333	0.385344
H190	H	0.885370	-0.329793	-0.726993
H191	H	1.218703	0.003541	-0.393660
H192	H	1.552036	0.336874	-0.060327
H193	H	0.865791	-0.778046	-0.438239
H194	H	1.199124	-0.444713	-0.104905
H195	H	1.532457	-0.111380	0.228428
Cl196	Cl	0.867382	-0.304167	-0.937762
Cl197	Cl	1.200715	0.029166	-0.604429
Cl198	Cl	1.534049	0.362500	-0.271096
Cl199	Cl	1.051338	-0.564744	-0.593230
Cl200	Cl	1.384671	-0.231411	-0.259896
Cl201	Cl	1.718004	0.101923	0.073437
H202	H	0.895716	-1.090302	-0.408546
H203	H	1.229050	-0.756969	-0.075213
H204	H	1.562383	-0.423636	0.258120
Cl205	Cl	0.563377	-0.304197	-0.241766
Cl206	Cl	0.896710	0.029136	0.091568
Cl207	Cl	1.230043	0.362469	0.424901
H208	H	1.033402	-0.539047	-1.091777
H209	H	1.366736	-0.205713	-0.758444
H210	H	1.700069	0.127620	-0.425110
H211	H	0.885346	-0.329822	-0.598760
H212	H	1.218680	0.003512	-0.265427
H213	H	1.552013	0.336845	0.067906
H214	H	0.885461	-0.329690	-1.082758
H215	H	1.218794	0.003643	-0.749425
H216	H	1.552127	0.336976	-0.416091
Cl217	Cl	1.051370	-0.564700	-0.752778
Cl218	Cl	1.384703	-0.231367	-0.419444
Cl219	Cl	1.718037	0.101967	-0.086111
H220	H	1.060234	-0.919306	-0.244211
H221	H	1.393567	-0.585973	0.089122
H222	H	1.726900	-0.252639	0.422456
Cl223	Cl	0.722928	-0.304186	-0.241748
Cl224	Cl	1.056262	0.029147	0.091585
Cl225	Cl	1.389595	0.362481	0.424919
H226	H	0.213078	-0.539442	-0.427890
H227	H	0.546412	-0.206109	-0.094556
H228	H	0.879745	0.127225	0.238777
Cl229	Cl	0.711630	-0.565000	-0.448087
Cl230	Cl	1.044964	-0.231666	-0.114754
Cl231	Cl	1.378297	0.101667	0.218579
Cl232	Cl	1.051419	-0.564647	-0.948992
Cl233	Cl	1.384752	-0.231313	-0.615658
Cl234	Cl	1.718086	0.102020	-0.282325
H235	H	0.341323	-0.539434	-0.427878
H236	H	0.674657	-0.206101	-0.094544
H237	H	1.007990	0.127233	0.238789
Cl238	Cl	0.207611	-0.304228	-0.241790
Cl239	Cl	0.540944	0.029105	0.091543
Cl240	Cl	0.874277	0.362438	0.424877
H241	H	0.350395	-0.329803	-0.262018
H242	H	0.683728	0.003531	0.071315
H243	H	1.017061	0.336864	0.404649
H244	H	1.052903	-1.090226	-0.251633
H245	H	1.386236	-0.756893	0.081701
H246	H	1.719569	-0.423559	0.415034
Cl247	Cl	0.838376	-0.969860	-0.465716
Cl248	Cl	1.171710	-0.636527	-0.132382
Cl249	Cl	1.505043	-0.303193	0.200951
