data_functionalizedCrystal
_audit_creation_method	'MofGen! by Chris Wilmer'
_symmetry_space_group_name_H-M	'P1'
_symmetry_Int_Tables_number	1
_symmetry_cell_setting	triclinic
loop_
_symmetry_equiv_pos_as_xyz
  x,y,z
_cell_length_a	16.992694
_cell_length_b	17.699083
_cell_length_c	16.776229
_cell_angle_alpha	89.998433
_cell_angle_beta	89.998281
_cell_angle_gamma	86.975619
loop_
_atom_site_label
_atom_site_type_symbol
_atom_site_fract_x
_atom_site_fract_y
_atom_site_fract_z
O1	O	-1.040089	-0.160463	0.066191
O2	O	-0.540089	0.339537	0.566191
O3	O	-0.811807	-0.158702	0.066215
O4	O	-0.311807	0.341298	0.566215
O5	O	-0.932398	-0.049795	0.066195
O6	O	-0.432398	0.450205	0.566195
O7	O	-0.919499	-0.269370	0.066211
O8	O	-0.419499	0.230630	0.566211
O9	O	-0.932380	-0.049800	-0.066381
O10	O	-0.432380	0.450200	0.433619
O11	O	-0.811790	-0.158707	-0.066362
O12	O	-0.311790	0.341293	0.433638
O13	O	-1.040072	-0.160468	-0.066385
O14	O	-0.540072	0.339532	0.433615
Zn15	Zn	-0.925928	-0.159588	-0.087423
Zn16	Zn	-0.425928	0.340412	0.412577
Zn17	Zn	-0.925951	-0.159582	0.087252
Zn18	Zn	-0.425951	0.340418	0.587252
O19	O	-0.919481	-0.269375	-0.066366
O20	O	-0.419481	0.230625	0.433634
C21	C	-0.782590	-0.156440	-0.000071
C22	C	-0.282590	0.343560	0.499929
C23	C	-0.695559	-0.149683	-0.000062
C24	C	-0.195559	0.350317	0.499938
C25	C	-0.931927	-0.021572	-0.000093
C26	C	-0.431927	0.478428	0.499907
C27	C	-0.930540	0.062533	-0.000093
C28	C	-0.430540	0.562533	0.499907
C29	C	-1.069289	-0.162730	-0.000098
C30	C	-0.569289	0.337270	0.499902
C31	C	-1.156320	-0.169487	-0.000102
C32	C	-0.656320	0.330513	0.499898
C33	C	-0.645194	-0.214881	-0.000058
C34	C	-0.145194	0.285119	0.499942
C35	C	-0.563420	-0.208527	-0.000069
C36	C	-0.063420	0.291473	0.499931
C37	C	-0.532012	-0.136975	-0.000079
C38	C	-0.032012	0.363025	0.499921
C39	C	-0.582383	-0.071773	-0.000085
C40	C	-0.082383	0.428227	0.499915
C41	C	-0.664156	-0.078127	-0.000080
C42	C	-0.164156	0.421873	0.499920
C43	C	-0.288464	-0.110639	-0.000102
C44	C	0.211536	0.389361	0.499898
C45	C	-0.206685	-0.104290	-0.000106
C46	C	0.293315	0.395710	0.499894
C47	C	-0.187727	-0.241045	-0.000091
C48	C	0.312273	0.258955	0.499909
C49	C	-0.269503	-0.247393	-0.000081
C50	C	0.230497	0.252607	0.499919
C51	C	-0.319867	-0.182190	-0.000091
C52	C	0.180133	0.317810	0.499909
N53	N	-0.448425	-0.130479	-0.000088
N54	N	0.051575	0.369521	0.499912
N55	N	-0.403451	-0.188687	-0.000088
N56	N	0.096549	0.311313	0.499912
C57	C	-0.919952	-0.297598	-0.000076
C58	C	-0.419952	0.202402	0.499924
C59	C	-0.921339	-0.381703	-0.000070
C60	C	-0.421339	0.118297	0.499930
N61	N	-0.925918	-0.159593	-0.206634
N62	N	-0.425918	0.340407	0.293366
C63	C	-1.001324	0.106747	-0.000102
C64	C	-0.501324	0.606747	0.499898
C65	C	-1.000017	0.185771	-0.000094
C66	C	-0.500017	0.685771	0.499906
C67	C	-0.927924	0.220581	-0.000085
C68	C	-0.427924	0.720581	0.499915
C69	C	-0.857135	0.176361	-0.000074
C70	C	-0.357135	0.676361	0.499926
C71	C	-0.858443	0.097338	-0.000075
C72	C	-0.358443	0.597338	0.499925
C73	C	-0.851857	0.495053	-0.000067
C74	C	-0.351857	0.995053	0.499933
C75	C	-0.850554	0.574082	-0.000068
C76	C	-0.350554	1.074082	0.499932
C77	C	-0.993430	0.583486	-0.000086
C78	C	-0.493430	1.083486	0.499914
C79	C	-0.994739	0.504463	-0.000087
C80	C	-0.494739	1.004463	0.499913
C81	C	-0.923950	0.460250	-0.000072
C82	C	-0.423950	0.960250	0.499928
C83	C	-0.925368	0.374563	-0.000079
C84	C	-0.425368	0.874563	0.499921
C85	C	-0.926505	0.306267	-0.000084
C86	C	-0.426505	0.806267	0.499916
C87	C	-0.979371	-0.111366	-0.751808
C88	C	-0.479371	0.388634	-0.251808
C89	C	-0.979367	-0.111372	-0.668355
C90	C	-0.479367	0.388628	-0.168355
C91	C	-0.925955	-0.159579	-0.626634
C92	C	-0.425955	0.340421	-0.126634
C93	C	-0.872549	-0.207789	-0.668368
C94	C	-0.372549	0.292211	-0.168368
C95	C	-0.872557	-0.207787	-0.751819
C96	C	-0.372557	0.292213	-0.251819
C97	C	-0.872515	-0.207798	-0.331821
C98	C	-0.372515	0.292202	0.168179
C99	C	-0.872510	-0.207795	-0.248365
C100	C	-0.372510	0.292205	0.251635
C101	C	-0.979326	-0.111383	-0.248357
C102	C	-0.479326	0.388617	0.251643
C103	C	-0.979334	-0.111381	-0.331808
C104	C	-0.479334	0.388619	0.168192
C105	C	-0.925930	-0.159594	-0.373536
C106	C	-0.425930	0.340406	0.126464
C107	C	-0.925936	-0.159589	-0.464024
C108	C	-0.425936	0.340411	0.035976
C109	C	-0.925945	-0.159580	-0.536147
C110	C	-0.425945	0.340420	-0.036147
N111	N	-0.925967	-0.159572	0.206464
N112	N	-0.425967	0.340428	0.706464
H113	H	-0.522415	-0.261618	-0.000065
H114	H	-0.022415	0.238382	0.499935
H115	H	-0.329461	-0.057546	-0.000112
H116	H	0.170539	0.442454	0.499888
O117	O	-0.820734	-0.254670	-0.207748
O118	O	-0.320734	0.245330	0.292252
C119	C	-0.862632	-0.303926	-0.159484
C120	C	-0.362632	0.196074	0.340516
H121	H	-0.924033	-0.277521	-0.146978
H122	H	-0.424033	0.222479	0.353022
H123	H	-0.829884	-0.313902	-0.100803
H124	H	-0.329884	0.186098	0.399197
H125	H	-0.867859	-0.360183	-0.191641
H126	H	-0.367859	0.139817	0.308359
O127	O	-0.783148	0.452028	-0.000163
O128	O	-0.283148	0.952028	0.499837
C129	C	-0.779610	0.406049	-0.068834
C130	C	-0.279610	0.906049	0.431166
H131	H	-0.841829	0.398295	-0.091733
H132	H	-0.341829	0.898295	0.408267
H133	H	-0.750296	0.348489	-0.053385
H134	H	-0.250296	0.848489	0.446615
H135	H	-0.743844	0.434182	-0.116910
H136	H	-0.243844	0.934182	0.383090
H137	H	-0.181116	-0.046020	-0.000113
H138	H	0.318884	0.453980	0.499887
H139	H	-0.295069	-0.305658	-0.000063
H140	H	0.204931	0.194342	0.499937
O141	O	-0.820646	-0.254505	-0.792446
O142	O	-0.320646	0.245495	-0.292446
C143	C	-0.772353	-0.211022	-0.840711
C144	C	-0.272353	0.288978	-0.340711
H145	H	-0.803694	-0.153708	-0.853207
H146	H	-0.303694	0.346292	-0.353207
H147	H	-0.759898	-0.241851	-0.899396
H148	H	-0.259898	0.258149	-0.399396
H149	H	-0.714418	-0.202345	-0.808559
H150	H	-0.214418	0.297655	-0.308559
H151	H	-0.800803	0.061339	-0.000068
H152	H	-0.300803	0.561339	0.499932
H153	H	-0.798436	0.204709	-0.000061
H154	H	-0.298436	0.704709	0.499939
O155	O	-0.675570	-0.284445	-0.000083
O156	O	-0.175570	0.215555	0.499917
C157	C	-0.613577	-0.340627	-0.000063
C158	C	-0.113577	0.159373	0.499937
H159	H	-0.558068	-0.316052	-0.025169
H160	H	-0.058068	0.183948	0.474831
H161	H	-0.630573	-0.390287	-0.038548
H162	H	-0.130573	0.109713	0.461452
H163	H	-0.601963	-0.360972	0.063541
H164	H	-0.101963	0.139028	0.563541
H165	H	-1.022862	-0.072108	-0.785772
H166	H	-0.522862	0.427892	-0.285772
O167	O	-1.031162	-0.064311	-0.628004
O168	O	-0.531162	0.435689	-0.128004
C169	C	-1.018404	0.011295	-0.648624
C170	C	-0.518404	0.511295	-0.148624
H171	H	-0.955584	0.015328	-0.671475
H172	H	-0.455584	0.515328	-0.171475
H173	H	-1.027525	0.048893	-0.593874
H174	H	-0.527525	0.548893	-0.093874
H175	H	-1.061783	0.030803	-0.697194
H176	H	-0.561783	0.530803	-0.197194
H177	H	-0.556804	-0.013513	-0.000105
H178	H	-0.056804	0.486487	0.499895
O179	O	-0.712971	-0.014717	-0.000044
O180	O	-0.212971	0.485283	0.499956
C181	C	-0.667716	0.049800	-0.000072
C182	C	-0.167716	0.549800	0.499928
H183	H	-0.606646	0.034286	0.025026
H184	H	-0.106646	0.534286	0.525026
H185	H	-0.697974	0.095788	0.038417
H186	H	-0.197974	0.595788	0.538417
H187	H	-0.661937	0.071497	-0.063677
H188	H	-0.161937	0.571497	0.436323
O189	O	-1.031295	-0.064529	-0.372212
O190	O	-0.531295	0.435471	0.127788
C191	C	-1.078419	-0.021969	-0.317485
C192	C	-0.578419	0.478031	0.182515
H193	H	-1.079237	-0.053050	-0.257997
H194	H	-0.579237	0.446950	0.242003
H195	H	-1.141052	-0.014249	-0.341589
H196	H	-0.641052	0.485751	0.158411
H197	H	-1.053075	0.035805	-0.308616
H198	H	-0.553075	0.535805	0.191384
H199	H	-1.060030	0.078411	-0.000115
H200	H	-0.560030	0.578411	0.499885
H201	H	-0.829031	-0.247053	-0.365789
H202	H	-0.329031	0.252947	0.134211
O203	O	-0.138724	-0.304323	0.000018
O204	O	0.361276	0.195677	0.500018
C205	C	-0.090866	-0.304749	0.068687
C206	C	0.409134	0.195251	0.568687
H207	H	-0.086845	-0.244430	0.091575
H208	H	0.413155	0.255570	0.591575
H209	H	-0.029352	-0.329222	0.053241
H210	H	0.470648	0.170778	0.553241
H211	H	-0.117701	-0.340939	0.116771
H212	H	0.382299	0.159061	0.616771
O213	O	-1.068849	0.228608	-0.000144
O214	O	-0.568849	0.728608	0.499856
C215	C	-1.132759	0.180939	-0.000140
C216	C	-0.632759	0.680939	0.499860
H217	H	-1.112741	0.123231	-0.025237
H218	H	-0.612741	0.623231	0.474763
H219	H	-1.182337	0.207063	-0.038640
H220	H	-0.682337	0.707063	0.461360
H221	H	-1.154880	0.173978	0.063459
H222	H	-0.654880	0.673978	0.563459
O223	O	-1.064838	0.470772	-0.000061
O224	O	-0.564838	0.970772	0.499939
C225	C	-1.127035	0.526743	-0.000086
C226	C	-0.627035	1.026743	0.499914
H227	H	-1.105164	0.581694	0.025015
H228	H	-0.605164	1.081694	0.525015
H229	H	-1.177381	0.507199	0.038401
H230	H	-0.677381	1.007199	0.538401
H231	H	-1.148856	0.536594	-0.063691
H232	H	-0.648856	1.036594	0.436309
O233	O	-1.031087	-0.064485	-0.207751
O234	O	-0.531087	0.435515	0.292249
C235	C	-0.989163	-0.015225	-0.159523
C236	C	-0.489163	0.484775	0.340477
H237	H	-0.927773	-0.041650	-0.147008
H238	H	-0.427773	0.458350	0.352992
H239	H	-1.021905	-0.005204	-0.100845
H240	H	-0.521905	0.494796	0.399155
H241	H	-0.983909	0.041012	-0.191715
H242	H	-0.483909	0.541012	0.308285
O243	O	-0.780450	0.607775	-0.000016
O244	O	-0.280450	1.107775	0.499984
C245	C	-0.718250	0.551807	-0.000020
C246	C	-0.218250	1.051807	0.499980
H247	H	-0.740127	0.496854	0.025075
H248	H	-0.240127	0.996854	0.525075
H249	H	-0.667919	0.571353	0.038481
H250	H	-0.167919	1.071353	0.538481
H251	H	-0.696405	0.541958	-0.063619
H252	H	-0.196405	1.041958	0.436381
O253	O	-0.820693	-0.254546	-0.627719
O254	O	-0.320693	0.245454	-0.127719
C255	C	-0.832147	-0.244224	-0.545114
C256	C	-0.332147	0.255776	-0.045114
H257	H	-0.861565	-0.185846	-0.533714
H258	H	-0.361565	0.314154	-0.033714
H259	H	-0.772756	-0.249018	-0.513408
H260	H	-0.272756	0.250982	-0.013408
H261	H	-0.871379	-0.289460	-0.521425
H262	H	-0.371379	0.210540	-0.021425
H263	H	-1.051070	0.619494	-0.000094
H264	H	-0.551070	1.119494	0.499906
