data_functionalizedCrystal
_audit_creation_method	'MofGen! by Chris Wilmer'
_symmetry_space_group_name_H-M	'P1'
_symmetry_Int_Tables_number	1
_symmetry_cell_setting	triclinic
loop_
_symmetry_equiv_pos_as_xyz
  x,y,z
_cell_length_a	10.723024
_cell_length_b	10.868271
_cell_length_c	10.723023
_cell_angle_alpha	90.004123
_cell_angle_beta	84.467709
_cell_angle_gamma	90.004005
loop_
_atom_site_label
_atom_site_type_symbol
_atom_site_fract_x
_atom_site_fract_y
_atom_site_fract_z
O1	O	1.657188	0.102311	0.175028
O2	O	1.294035	0.102315	0.191781
O3	O	1.483989	0.102308	0.001828
O4	O	1.467234	0.102318	0.364981
O5	O	1.483973	-0.102336	0.001821
O6	O	1.294019	-0.102329	0.191774
O7	O	1.657172	-0.102333	0.175021
Zn8	Zn	1.475593	-0.134823	0.183396
Zn9	Zn	1.475614	0.134805	0.183406
O10	O	1.467218	-0.102326	0.364973
C11	C	1.247528	-0.000007	0.190558
C12	C	1.108973	-0.000005	0.186911
N13	N	1.475588	-0.318837	0.183388
C14	C	1.033991	-0.000001	0.293198
C15	C	0.890787	0.000000	0.289431
C16	C	1.475607	-0.569843	0.183403
C17	C	1.475593	-0.430166	0.183399
C18	C	1.703679	-0.000009	0.176243
C19	C	1.842234	-0.000002	0.179891
C20	C	1.482762	-0.000013	-0.044675
C21	C	1.479114	-0.000009	-0.183229
N22	N	1.475629	0.318819	0.183404
C23	C	1.473710	-0.106012	-0.388207
C24	C	1.477480	-0.106019	-0.245004
C25	C	1.468445	-0.000002	0.411477
C26	C	1.472093	0.000002	0.550031
H27	H	1.075812	-0.000006	0.386984
H28	H	0.826354	0.000009	0.380421
H29	H	1.473488	0.090759	-0.396827
H30	H	1.478878	-0.196781	-0.191891
C31	C	1.477253	0.122616	-0.254960
H32	H	1.478781	0.189124	-0.197627
H33	H	1.403279	0.127204	-0.296867
H34	H	1.548578	0.127179	-0.314635
H35	H	1.472298	-0.196769	-0.441347
C36	C	0.929255	-0.000000	0.056957
H37	H	0.880215	0.000008	-0.012255
H38	H	0.980616	-0.071361	0.053631
H39	H	0.980614	0.071376	0.053645
H40	H	1.067152	0.000024	0.093125
