data_functionalizedCrystal
_audit_creation_method	'MofGen! by Chris Wilmer'
_symmetry_space_group_name_H-M	'P1'
_symmetry_Int_Tables_number	1
_symmetry_cell_setting	triclinic
loop_
_symmetry_equiv_pos_as_xyz
  x,y,z
_cell_length_a	16.959455
_cell_length_b	16.959454
_cell_length_c	11.169409
_cell_angle_alpha	89.967057
_cell_angle_beta	89.971901
_cell_angle_gamma	90.017095
loop_
_atom_site_label
_atom_site_type_symbol
_atom_site_fract_x
_atom_site_fract_y
_atom_site_fract_z
Zn1	Zn	1.208444	-0.314680	-0.678803
Zn2	Zn	1.208349	-0.446887	-0.478117
Zn3	Zn	1.076255	-0.314720	-0.478108
Zn4	Zn	1.076237	-0.446814	-0.678733
O5	O	1.142321	-0.380775	-0.578440
O6	O	1.319042	-0.332232	-0.652214
O7	O	1.190794	-0.429402	-0.310166
O8	O	1.093837	-0.204103	-0.504756
O9	O	1.318972	-0.429364	-0.504772
O10	O	1.190956	-0.204075	-0.652205
O11	O	1.093745	-0.332299	-0.310159
O12	O	0.965642	-0.332228	-0.504688
O13	O	1.093807	-0.429239	-0.846692
O14	O	0.965629	-0.429277	-0.652087
O15	O	1.190939	-0.332161	-0.846743
O16	O	1.190777	-0.557488	-0.504704
O17	O	1.093715	-0.557434	-0.652096
C18	C	0.936955	-0.380749	-0.578380
C19	C	0.849098	-0.380757	-0.578382
C20	C	0.477576	-0.431302	-0.501628
C21	C	0.477670	-0.330314	-0.655399
C22	C	0.560216	-0.330301	-0.655370
C23	C	0.601445	-0.380790	-0.578470
C24	C	0.560129	-0.431292	-0.501599
C25	C	0.601538	-0.279806	-0.732248
C26	C	0.684089	-0.279792	-0.732223
C27	C	0.725320	-0.330277	-0.655316
C28	C	0.683999	-0.380780	-0.578441
C29	C	0.725229	-0.431269	-0.501541
C30	C	0.683909	-0.481769	-0.424659
C31	C	0.601360	-0.481777	-0.424692
C32	C	0.807869	-0.330269	-0.655282
C33	C	0.807782	-0.431259	-0.501512
C34	C	1.142255	-0.586141	-0.578420
C35	C	1.142299	-0.673998	-0.578451
C36	C	1.091854	-1.045476	-0.655179
C37	C	1.193008	-1.045472	-0.501824
C38	C	1.192981	-0.962926	-0.501813
C39	C	1.142388	-0.921651	-0.578485
C40	C	1.091824	-0.962922	-0.655168
C41	C	1.243539	-0.921649	-0.425123
C42	C	1.243512	-0.839098	-0.425108
C43	C	1.192923	-0.797821	-0.501787
C44	C	1.142357	-0.839097	-0.578474
C45	C	1.091765	-0.797823	-0.655145
C46	C	1.041203	-0.839097	-0.731839
C47	C	1.041235	-0.921646	-0.731847
C48	C	1.192891	-0.715273	-0.501779
C49	C	1.091734	-0.715269	-0.655134
C50	C	1.348489	-0.380802	-0.578502
C51	C	1.436346	-0.380813	-0.578528
C52	C	1.142382	-0.380687	-0.891483
C53	C	1.142408	-0.380650	-1.024883
C54	C	1.142409	-0.174607	-0.578487
C55	C	1.142447	-0.086750	-0.578507
C56	C	1.142306	-0.380806	-0.266616
C57	C	1.142434	-0.380620	-0.133216
H58	H	0.717725	-0.238671	-0.794824
H59	H	0.717489	-0.522881	-0.362053
C60	C	1.036087	-0.669873	-0.739496
N61	N	0.994176	-0.635682	-0.803041
C62	C	0.432315	-0.274768	-0.739966
N63	N	0.398149	-0.232921	-0.803655
H64	H	0.567710	-0.522891	-0.362098
C65	C	1.299175	-0.967055	-0.340772
N66	N	1.341079	-1.001260	-0.277233
C67	C	1.248649	-1.090877	-0.417478
N68	N	1.290558	-1.125079	-0.353944
H69	H	0.443929	-0.472415	-0.439029
H70	H	1.284684	-0.805497	-0.362661
H71	H	0.567963	-0.238706	-0.794863
H72	H	1.000006	-0.805482	-0.794261
H73	H	0.841508	-0.289154	-0.717881
C74	C	1.248508	-0.669875	-0.417423
N75	N	1.290403	-0.635681	-0.353885
C76	C	1.036235	-1.090878	-0.739533
N77	N	0.994340	-1.125076	-0.803067
C78	C	0.985612	-0.967054	-0.816188
N79	N	0.943713	-1.001259	-0.879708
H80	H	0.841345	-0.472371	-0.438885
