data_functionalizedCrystal
_audit_creation_method	'MofGen! by Chris Wilmer'
_symmetry_space_group_name_H-M	'P1'
_symmetry_Int_Tables_number	1
_symmetry_cell_setting	triclinic
loop_
_symmetry_equiv_pos_as_xyz
  x,y,z
_cell_length_a	19.805407
_cell_length_b	17.637651
_cell_length_c	19.805399
_cell_angle_alpha	101.242610
_cell_angle_beta	90.019573
_cell_angle_gamma	101.218564
loop_
_atom_site_label
_atom_site_type_symbol
_atom_site_fract_x
_atom_site_fract_y
_atom_site_fract_z
Zn1	Zn	0.980303	-0.314779	0.328177
Zn2	Zn	1.480303	0.185221	0.828177
Zn3	Zn	0.957355	-0.446994	0.192080
Zn4	Zn	1.457355	0.053006	0.692080
Zn5	Zn	0.867114	-0.314800	0.214998
Zn6	Zn	1.367114	0.185200	0.714998
Zn7	Zn	0.844226	-0.446952	0.305234
Zn8	Zn	1.344226	0.053048	0.805234
O9	O	0.912250	-0.380881	0.260122
O10	O	1.412250	0.119119	0.760122
O11	O	1.071974	-0.332326	0.310134
O12	O	1.571974	0.167674	0.810134
O13	O	0.945360	-0.429485	0.100399
O14	O	1.445360	0.070515	0.600399
O15	O	0.901312	-0.204159	0.249205
O16	O	1.401312	0.295841	0.749205
O17	O	1.055114	-0.429464	0.210144
O18	O	1.555114	0.070536	0.710144
O19	O	0.984471	-0.204143	0.332357
O20	O	1.484471	0.295857	0.832357
O21	O	0.879060	-0.332363	0.117237
O22	O	1.379060	0.167637	0.617237
O23	O	0.769363	-0.332322	0.226958
O24	O	1.269363	0.167678	0.726958
O25	O	0.862302	-0.429392	0.402999
O26	O	1.362302	0.070608	0.902999
O27	O	0.752547	-0.429413	0.293254
O28	O	1.252547	0.070587	0.793254
O29	O	0.962277	-0.332285	0.419855
O30	O	1.462277	0.167715	0.919855
O31	O	0.923166	-0.557627	0.187897
O32	O	1.423166	-0.057627	0.687897
O33	O	0.840050	-0.557596	0.271031
O34	O	1.340050	-0.057596	0.771031
C35	C	0.736396	-0.380866	0.260103
C36	C	1.236396	0.119134	0.760103
C37	C	0.661162	-0.380879	0.260108
C38	C	1.161162	0.119121	0.760108
C39	C	0.617066	-0.431510	0.294545
C40	C	1.117066	0.068490	0.794545
C41	C	0.546378	-0.431512	0.294554
C42	C	1.046378	0.068488	0.794554
C43	C	0.519785	-0.380885	0.260122
C44	C	1.019785	0.119115	0.760122
C45	C	0.563887	-0.330248	0.225684
C46	C	1.063887	0.169752	0.725684
C47	C	0.634575	-0.330243	0.225679
C48	C	1.134575	0.169757	0.725679
C49	C	0.278811	-0.330265	0.225703
C50	C	0.778811	0.169735	0.725703
C51	C	0.208117	-0.330276	0.225709
C52	C	0.708117	0.169724	0.725709
C53	C	0.190613	-0.431534	0.294578
C54	C	0.690613	0.068466	0.794578
C55	C	0.261301	-0.431529	0.294573
C56	C	0.761301	0.068471	0.794573
C57	C	0.305397	-0.380889	0.260139
C58	C	0.805397	0.119111	0.760139
C59	C	0.382046	-0.380887	0.260130
C60	C	0.882046	0.119113	0.760130
C61	C	0.443137	-0.380890	0.260126
C62	C	0.943137	0.119110	0.760126
C63	C	0.876652	-0.586299	0.224502
C64	C	1.376652	-0.086299	0.724502
C65	C	0.861485	-0.674177	0.209286
C66	C	1.361485	-0.174177	0.709286
C67	C	1.027910	-0.962863	0.375930
C68	C	1.527910	-0.462863	0.875930
C69	C	1.013637	-1.045438	0.361620
C70	C	1.513637	-0.545438	0.861620
C71	C	0.927101	-1.045562	0.274950
C72	C	1.427101	-0.545562	0.774950
C73	C	0.941369	-0.962985	0.289250
C74	C	1.441369	-0.462985	0.789250
C75	C	0.991774	-0.921642	0.339741
C76	C	1.491774	-0.421642	0.839741
C77	C	0.905232	-0.921764	0.253061
C78	C	1.405232	-0.421764	0.753061
C79	C	0.919497	-0.839195	0.267363
C80	C	1.419497	-0.339195	0.767363
C81	C	0.969898	-0.797846	0.317853
C82	C	1.469898	-0.297846	0.817853
C83	C	1.006039	-0.839072	0.354043
C84	C	1.506039	-0.339072	0.854043
C85	C	0.854824	-0.963109	0.202574
C86	C	1.354824	-0.463109	0.702574
C87	C	0.818688	-0.921888	0.166385
C88	C	1.318688	-0.421888	0.666385
C89	C	0.832956	-0.839317	0.180683
C90	C	1.332956	-0.339317	0.680683
C91	C	0.883357	-0.797968	0.231173
C92	C	1.383357	-0.297968	0.731173
C93	C	0.796816	-0.798090	0.144494
C94	C	1.296816	-0.298090	0.644494
C95	C	0.811080	-0.715521	0.158795
C96	C	1.311080	-0.215521	0.658795
C97	C	0.897622	-0.715398	0.245475
C98	C	1.397622	-0.215398	0.745475
C99	C	1.088790	-0.380897	0.260142
C100	C	1.588790	0.119103	0.760142
C101	C	1.164020	-0.380904	0.260150
C102	C	1.664020	0.119096	0.760150
C103	C	0.912296	-0.380831	0.436674
C104	C	1.412296	0.119169	0.936674
C105	C	0.912316	-0.380810	0.511910
C106	C	1.412316	0.119190	1.011910
C107	C	0.948005	-0.174661	0.295897
C108	C	1.448005	0.325339	0.795897
C109	C	0.963241	-0.086783	0.311142
C110	C	1.463241	0.413217	0.811142
C111	C	0.912252	-0.380874	0.084268
C112	C	1.412252	0.119126	0.584268
C113	C	0.912402	-0.380672	0.009071
C114	C	1.412402	0.119328	0.509071
C115	C	0.964375	-0.330244	0.556032
C116	C	1.464375	0.169756	1.056032
C117	C	0.964386	-0.330221	0.626725
C118	C	1.464386	0.169779	1.126725
C119	C	0.912340	-0.380769	0.653292
C120	C	1.412340	0.119231	1.153292
C121	C	0.860276	-0.431337	0.609164
C122	C	1.360276	0.068663	1.109164
C123	C	0.860263	-0.431356	0.538474
C124	C	1.360263	0.068644	1.038474
C125	C	0.860327	-0.431264	0.894250
C126	C	1.360327	0.068736	1.394250
C127	C	0.860345	-0.431243	0.964946
C128	C	1.360345	0.068757	1.464946
C129	C	0.964450	-0.330129	0.982501
C130	C	1.464450	0.169871	1.482501
C131	C	0.964437	-0.330147	0.911811
C132	C	1.464437	0.169853	1.411811
C133	C	0.912371	-0.380712	0.867690
C134	C	1.412371	0.119288	1.367690
C135	C	0.912359	-0.380736	0.791037
C136	C	1.412359	0.119264	1.291037
C137	C	0.912354	-0.380750	0.729943
C138	C	1.412354	0.119250	1.229943
H139	H	0.282948	-0.472757	0.322609
H140	H	0.782948	0.027243	0.822609
H141	H	0.777647	-0.955561	0.125277
H142	H	1.277647	-0.455561	0.625277
N143	N	1.060407	-0.794464	0.408495
N144	N	1.560407	-0.294464	0.908495
H145	H	1.106298	-0.808799	0.395545
H146	H	1.606298	-0.308799	0.895545
H147	H	1.047332	-0.808822	0.454343
H148	H	1.547332	-0.308822	0.954343
H149	H	0.781654	-0.681958	0.129327
H150	H	1.281654	-0.181958	0.629327
N151	N	1.020598	-0.275582	1.030098
N152	N	1.520598	0.224418	1.530098
H153	H	1.019878	-0.219095	1.027591
H154	H	1.519878	0.280905	1.527591
H155	H	1.066797	-0.287936	1.015652
H156	H	1.566797	0.212064	1.515652
H157	H	1.006819	-0.288989	0.890184
H158	H	1.506819	0.211011	1.390184
N159	N	0.804208	-0.485757	0.993611
N160	N	1.304208	0.014243	1.493611
H161	H	0.804914	-0.542254	0.971513
H162	H	1.304914	-0.042254	1.471513
H163	H	0.758005	-0.473403	0.983435
H164	H	1.258005	0.026597	1.483435
N165	N	1.020533	-0.275690	0.674323
N166	N	1.520533	0.224310	1.174323
H167	H	0.999381	-0.239041	0.710001
H168	H	1.499381	0.260959	1.210001
H169	H	1.053490	-0.243722	0.646722
H170	H	1.553490	0.256278	1.146722
N171	N	0.645747	-0.486114	0.331683
N172	N	1.145747	0.013886	0.831683
H173	H	0.668721	-0.522710	0.297776
H174	H	1.168721	-0.022710	0.797776
H175	H	0.607051	-0.518135	0.353501
H176	H	1.107051	-0.018135	0.853501
N177	N	0.804119	-0.485897	0.490876
N178	N	1.304119	0.014103	0.990876
H179	H	0.778321	-0.453767	0.467118
H180	H	1.278321	0.046233	0.967118
H181	H	0.771196	-0.517909	0.518472
H182	H	1.271196	-0.017909	1.018472
H183	H	0.981512	-0.730612	0.329496
H184	H	1.481512	-0.230612	0.829496
N185	N	0.804183	-0.485795	0.846653
N186	N	1.304183	0.014205	1.346653
H187	H	0.778390	-0.453659	0.822898
H188	H	1.278390	0.046341	1.322898
H189	H	0.771256	-0.517812	0.874242
H190	H	1.271256	-0.017812	1.374242
N191	N	0.535202	-0.275658	0.188533
N192	N	1.035202	0.224342	0.688533
H193	H	0.512216	-0.239063	0.222429
H194	H	1.012216	0.260937	0.722429
H195	H	0.500336	-0.307817	0.151563
H196	H	1.000336	0.192183	0.651563
N197	N	0.498815	-0.486132	0.331685
N198	N	0.998815	0.013868	0.831685
H199	H	0.526386	-0.518211	0.353489
H200	H	1.026386	-0.018211	0.853489
H201	H	0.463147	-0.522673	0.297736
H202	H	0.963147	-0.022673	0.797736
N203	N	0.804145	-0.485851	0.637829
N204	N	1.304145	0.014149	1.137829
H205	H	0.804855	-0.542347	0.615731
H206	H	1.304855	-0.042347	1.115731
H207	H	0.757941	-0.473501	0.627650
H208	H	1.257941	0.026499	1.127650
H209	H	0.154702	-0.472764	0.322620
H210	H	0.654702	0.027236	0.822620
H211	H	0.314705	-0.289037	0.197658
H212	H	0.814705	0.210963	0.697658
H213	H	1.068960	-0.929200	0.417040
H214	H	1.568960	-0.429200	0.917040
H215	H	1.006758	-0.289084	0.534407
H216	H	1.506758	0.210916	1.034407
H217	H	0.186469	-0.289044	0.197671
H218	H	0.686469	0.210956	0.697671
N219	N	1.052620	-1.089899	0.400650
N220	N	1.552620	-0.589899	0.900650
H221	H	1.086716	-1.051177	0.434803
H222	H	1.586716	-0.551177	0.934803
H223	H	1.078042	-1.124148	0.367191
H224	H	1.578042	-0.624148	0.867191
H225	H	0.843205	-1.030342	0.190938
H226	H	1.343205	-0.530342	0.690938
H227	H	0.938672	-0.681735	0.286585
H228	H	1.438672	-0.181735	0.786585
N229	N	0.682140	-0.275628	0.188542
N230	N	1.182140	0.224372	0.688542
H231	H	0.654569	-0.243556	0.166730
H232	H	1.154569	0.256444	0.666730
H233	H	0.705892	-0.307756	0.151600
H234	H	1.205892	0.192244	0.651600
H235	H	0.886059	-1.079235	0.233842
H236	H	1.386059	-0.579235	0.733842
H237	H	0.755772	-0.831764	0.103389
H238	H	1.255772	-0.331764	0.603389
