data_functionalizedCrystal
_audit_creation_method	'MofGen! by Chris Wilmer'
_symmetry_space_group_name_H-M	'P1'
_symmetry_Int_Tables_number	1
_symmetry_cell_setting	triclinic
loop_
_symmetry_equiv_pos_as_xyz
  x,y,z
_cell_length_a	25.639239
_cell_length_b	21.395362
_cell_length_c	21.395355
_cell_angle_alpha	89.956060
_cell_angle_beta	90.019334
_cell_angle_gamma	89.945436
loop_
_atom_site_label
_atom_site_type_symbol
_atom_site_fract_x
_atom_site_fract_y
_atom_site_fract_z
Zn1	Zn	-0.207990	-0.957825	0.354582
Zn2	Zn	0.292010	-0.457825	0.854582
Zn3	Zn	-0.295409	-0.957713	0.249803
Zn4	Zn	0.204591	-0.457713	0.749803
Zn5	Zn	-0.208014	-0.853040	0.249783
Zn6	Zn	0.291986	-0.353040	0.749783
Zn7	Zn	-0.295420	-0.852994	0.354508
Zn8	Zn	0.204580	-0.352994	0.854508
O9	O	-0.251708	-0.905393	0.302169
O10	O	0.248292	-0.405393	0.802169
O11	O	-0.219571	-1.045488	0.340722
O12	O	0.280429	-0.545488	0.840722
O13	O	-0.283822	-0.943800	0.162122
O14	O	0.216178	-0.443800	0.662122
O15	O	-0.134846	-0.867006	0.263708
O16	O	0.365154	-0.367006	0.763708
O17	O	-0.283798	-1.045405	0.263742
O18	O	0.216202	-0.545405	0.763742
O19	O	-0.134828	-0.943991	0.340703
O20	O	0.365172	-0.443991	0.840703
O21	O	-0.219613	-0.866897	0.162108
O22	O	0.280387	-0.366897	0.662108
O23	O	-0.219623	-0.765356	0.263636
O24	O	0.280377	-0.265356	0.763636
O25	O	-0.283817	-0.866928	0.442196
O26	O	0.216183	-0.366928	0.942196
O27	O	-0.283840	-0.765322	0.340576
O28	O	0.216160	-0.265322	0.840576
O29	O	-0.219582	-0.943947	0.442250
O30	O	0.280418	-0.443947	0.942250
O31	O	-0.368576	-0.943756	0.263669
O32	O	0.131424	-0.443756	0.763669
O33	O	-0.368584	-0.866820	0.340596
O34	O	0.131416	-0.366820	0.840596
C35	C	-0.251736	-0.742605	0.302096
C36	C	0.248264	-0.242605	0.802096
C37	C	-0.251760	-0.672964	0.302080
C38	C	0.248240	-0.172964	0.802080
C39	C	-0.251698	-0.905445	0.465592
C40	C	0.248302	-0.405445	0.965592
C41	C	-0.251693	-0.905467	0.535234
C42	C	0.248307	-0.405467	1.035234
C43	C	-0.387551	-0.905288	0.302140
C44	C	0.112449	-0.405288	0.802140
C45	C	-0.445665	-0.905300	0.302149
C46	C	0.054335	-0.405300	0.802149
C47	C	-0.806011	-0.945558	0.262182
C48	C	-0.306011	-0.445558	0.762182
C49	C	-0.860616	-0.945582	0.262190
C50	C	-0.360616	-0.445582	0.762190
O51	O	-0.888838	-0.979702	0.228177
O52	O	-0.388838	-0.479702	0.728177
N53	N	-0.887947	-0.905503	0.302211
N54	N	-0.387947	-0.405503	0.802211
C55	C	-0.860672	-0.865401	0.342230
C56	C	-0.360672	-0.365401	0.842230
O57	O	-0.888934	-0.831313	0.376271
O58	O	-0.388934	-0.331313	0.876271
C59	C	-0.806069	-0.865381	0.342224
C60	C	-0.306069	-0.365381	0.842224
C61	C	-0.778740	-0.905458	0.302196
C62	C	-0.278740	-0.405458	0.802196
C63	C	-0.778682	-0.985633	0.222158
C64	C	-0.278682	-0.485633	0.722158
C65	C	-0.724082	-0.985608	0.222149
C66	C	-0.224082	-0.485608	0.722149
C67	C	-0.696810	-0.945508	0.262164
C68	C	-0.196810	-0.445508	0.762164
C69	C	-0.724139	-0.905433	0.302187
C70	C	-0.224139	-0.405433	0.802187
C71	C	-0.778794	-0.825282	0.382246
C72	C	-0.278794	-0.325282	0.882246
C73	C	-0.724187	-0.825266	0.382237
C74	C	-0.224187	-0.325266	0.882237
C75	C	-0.696858	-0.865343	0.342209
C76	C	-0.196858	-0.365343	0.842209
C77	C	-0.642267	-0.865308	0.342193
C78	C	-0.142267	-0.365308	0.842193
N79	N	-0.614935	-0.905387	0.302173
N80	N	-0.114935	-0.405387	0.802173
C81	C	-0.642207	-0.945487	0.262158
C82	C	-0.142207	-0.445487	0.762158
C83	C	-0.975343	-0.865448	0.342239
C84	C	-0.475343	-0.365448	0.842239
C85	C	-1.029945	-0.865465	0.342242
C86	C	-0.529945	-0.365465	0.842242
C87	C	-1.029885	-0.945648	0.262204
C88	C	-0.529885	-0.445648	0.762204
C89	C	-0.975281	-0.945627	0.262198
C90	C	-0.475281	-0.445627	0.762198
C91	C	-0.948011	-0.905528	0.302219
C92	C	-0.448011	-0.405528	0.802219
C93	C	-0.527542	-0.945430	0.262142
C94	C	-0.027542	-0.445430	0.762142
C95	C	-0.472937	-0.945400	0.262134
C96	C	0.027063	-0.445400	0.762134
C97	C	-0.473002	-0.865220	0.342175
C98	C	0.026998	-0.365220	0.842175
C99	C	-0.527602	-0.865248	0.342180
C100	C	-0.027602	-0.365248	0.842180
C101	C	-0.554871	-0.905358	0.302162
C102	C	-0.054871	-0.405358	0.802162
O103	O	-0.614010	-0.831207	0.376190
O104	O	-0.114010	-0.331207	0.876190
O105	O	-0.613939	-0.979575	0.228128
O106	O	-0.113939	-0.479575	0.728128
C107	C	-0.115335	-0.905516	0.302212
C108	C	0.384665	-0.405516	0.802212
C109	C	-0.057221	-0.905568	0.302230
C110	C	0.442779	-0.405568	0.802230
C111	C	-0.251681	-1.068816	0.302242
C112	C	0.248319	-0.568816	0.802242
C113	C	-0.251669	-1.138458	0.302274
C114	C	0.248331	-0.638458	0.802274
C115	C	-0.285243	-0.640250	0.342083
C116	C	0.214757	-0.140250	0.842083
C117	C	-0.285230	-0.574814	0.342111
C118	C	0.214770	-0.074814	0.842111
C119	C	-0.251740	-0.542096	0.302125
C120	C	0.248260	-0.042096	0.802125
C121	C	-0.218252	-0.574818	0.262119
C122	C	0.281748	-0.074818	0.762119
C123	C	-0.218262	-0.640252	0.262097
C124	C	0.281738	-0.140252	0.762097
C125	C	-0.247528	-0.438372	0.245720
C126	C	0.252472	0.061628	0.745720
C127	C	-0.247522	-0.372939	0.245741
C128	C	0.252478	0.127061	0.745741
C129	C	-0.251706	-0.340275	0.302194
C130	C	0.248294	0.159725	0.802194
C131	C	-0.255908	-0.373052	0.358627
C132	C	0.244092	0.126948	0.858627
C133	C	-0.255918	-0.438486	0.358605
C134	C	0.244082	0.061514	0.858605
C135	C	-0.251725	-0.471143	0.302145
C136	C	0.248275	0.028857	0.802145
C137	C	-0.285176	-0.236608	0.342231
C138	C	0.214824	0.263392	0.842231
C139	C	-0.285160	-0.171172	0.342260
C140	C	0.214840	0.328828	0.842260
C141	C	-0.218185	-0.171176	0.262262
C142	C	0.281815	0.328824	0.762262
C143	C	-0.218198	-0.236612	0.262239
C144	C	0.281802	0.263388	0.762239
C145	C	-0.251697	-0.269324	0.302222
C146	C	0.248303	0.230676	0.802222
C147	C	-0.251681	-0.905377	0.139381
C148	C	0.248319	-0.405377	0.639381
C149	C	-0.251538	-0.905476	0.069741
C150	C	0.248462	-0.405476	0.569741
C151	C	-0.218245	-0.945569	0.567976
C152	C	0.281755	-0.445569	1.067976
C153	C	-0.218222	-0.945568	0.633412
C154	C	0.281778	-0.445568	1.133412
C155	C	-0.251658	-0.905472	0.666102
C156	C	0.248342	-0.405472	1.166102
C157	C	-0.285108	-0.865362	0.633352
C158	C	0.214892	-0.365362	1.133352
C159	C	-0.285126	-0.865360	0.567917
C160	C	0.214874	-0.365360	1.067917
C161	C	-0.298736	-0.900488	0.769765
C162	C	0.201264	-0.400488	1.269765
C163	C	-0.298719	-0.900495	0.835198
C164	C	0.201281	-0.400495	1.335198
C165	C	-0.251602	-0.905476	0.867923
C166	C	0.248398	-0.405476	1.367923
C167	C	-0.204501	-0.910463	0.835207
C168	C	0.295499	-0.410463	1.335207
C169	C	-0.204519	-0.910461	0.769773
C170	C	0.295481	-0.410461	1.269773
C171	C	-0.251642	-0.905470	0.737054
C172	C	0.248358	-0.405470	1.237054
C173	C	-0.218127	-0.945579	0.971618
C174	C	0.281873	-0.445579	1.471618
C175	C	-0.218103	-0.945574	1.037055
C176	C	0.281897	-0.445574	1.537055
C177	C	-0.284994	-0.865371	1.036993
C178	C	0.215006	-0.365371	1.536993
C179	C	-0.285013	-0.865373	0.971558
C180	C	0.214987	-0.365373	1.471558
C181	C	-0.251580	-0.905480	0.938874
C182	C	0.248420	-0.405480	1.438874
H183	H	-0.450687	-0.978036	0.229537
H184	H	0.049313	-0.478036	0.729537
Br185	Br	-0.172713	-1.000012	1.081493
Br186	Br	0.327287	-0.500012	1.581493
Br187	Br	-0.564541	-0.999866	0.207830
Br188	Br	-0.064541	-0.499866	0.707830
Br189	Br	-0.362642	-0.893735	0.879592
Br190	Br	0.137358	-0.393735	1.379592
H191	H	-0.191020	-0.978227	0.541369
H192	H	0.308980	-0.478227	1.041369
H193	H	-0.801036	-0.792644	0.414837
H194	H	-0.301036	-0.292644	0.914837
Br195	Br	-0.564693	-0.810842	0.396488
Br196	Br	-0.064693	-0.310842	0.896488
Br197	Br	-0.435980	-0.810804	0.396480
Br198	Br	0.064020	-0.310804	0.896480
Br199	Br	-0.172812	-0.999980	0.677858
Br200	Br	0.327188	-0.499980	1.177858
Br201	Br	-0.330703	-0.684642	0.396348
Br202	Br	0.169297	-0.184642	0.896348
Br203	Br	-0.938198	-1.000019	0.207873
Br204	Br	-0.438198	-0.500019	0.707873
Br205	Br	-0.687180	-0.770844	0.436557
Br206	Br	-0.187180	-0.270844	0.936557
Br207	Br	-0.261618	-0.482968	0.435189
Br208	Br	0.238382	0.017032	0.935189
Br209	Br	-0.362688	-0.893747	0.725360
Br210	Br	0.137312	-0.393747	1.225360
H211	H	-0.166167	-0.914520	0.743138
H212	H	0.333833	-0.414520	1.243138
H213	H	-1.052099	-0.978301	0.229624
H214	H	-0.552099	-0.478301	0.729624
Br215	Br	-0.938338	-0.811019	0.396555
Br216	Br	-0.438338	-0.311019	0.896555
H217	H	-0.190984	-0.548174	0.229563
H218	H	0.309016	-0.048174	0.729563
H219	H	-0.312330	-0.832714	0.659972
H220	H	0.187670	-0.332714	1.159972
H221	H	-0.312450	-0.263244	0.374791
H222	H	0.187550	0.236756	0.874791
Br223	Br	-0.140552	-0.917228	0.879610
Br224	Br	0.359448	-0.417228	1.379610
H225	H	-0.312253	-0.832722	0.944899
H226	H	0.187747	-0.332722	1.444899
H227	H	-0.312495	-0.548173	0.374689
H228	H	0.187505	-0.048173	0.874689
Br229	Br	-0.330599	-0.126772	0.396560
Br230	Br	0.169401	0.373228	0.896560
H231	H	-0.800881	-1.018290	0.189573
H232	H	-0.300881	-0.518290	0.689573
Br233	Br	-0.330365	-0.810946	1.081352
Br234	Br	0.169635	-0.310946	1.581352
Br235	Br	-0.261585	-0.328732	0.435248
Br236	Br	0.238415	0.171268	0.935248
H237	H	-0.701834	-1.018244	0.189557
H238	H	-0.201834	-0.518244	0.689557
H239	H	-0.312363	-0.832701	0.541259
H240	H	0.187637	-0.332701	1.041259
H241	H	-0.190914	-0.144537	0.229707
H242	H	0.309086	0.355463	0.729707
Br243	Br	-0.241821	-0.328462	0.169154
Br244	Br	0.258179	0.171538	0.669154
H245	H	-0.190936	-0.263248	0.229661
H246	H	0.309064	0.236752	0.729661
H247	H	-0.244119	-0.464961	0.199746
H248	H	0.255881	0.035039	0.699746
Br249	Br	-1.067027	-0.811063	0.396558
Br250	Br	-0.567027	-0.311063	0.896558
H251	H	-0.190995	-0.666887	0.229521
H252	H	0.309005	-0.166887	0.729521
H253	H	-0.190901	-0.978233	0.945006
H254	H	0.309099	-0.478233	1.445006
