data_functionalizedCrystal
_audit_creation_method	'MofGen! by Chris Wilmer'
_symmetry_space_group_name_H-M	'P1'
_symmetry_Int_Tables_number	1
_symmetry_cell_setting	triclinic
loop_
_symmetry_equiv_pos_as_xyz
  x,y,z
_cell_length_a	14.971487
_cell_length_b	7.088906
_cell_length_c	14.971494
_cell_angle_alpha	83.771035
_cell_angle_beta	96.384020
_cell_angle_gamma	83.783395
loop_
_atom_site_label
_atom_site_type_symbol
_atom_site_fract_x
_atom_site_fract_y
_atom_site_fract_z
O1	O	-1.177793	-0.158709	0.125733
O2	O	-0.917390	-0.158772	0.139694
O3	O	-1.054567	-0.158734	0.002514
O4	O	-1.040616	-0.158746	0.262914
O5	O	-1.072897	0.159246	-0.015858
O6	O	-0.935720	0.159208	0.121322
O7	O	-1.196123	0.159271	0.107361
Cu8	Cu	-1.067595	0.188274	0.112664
Cu9	Cu	-1.045918	-0.187774	0.134391
O10	O	-1.058946	0.159234	0.244541
C11	C	-0.893230	0.000210	0.129885
C12	C	-0.793931	0.000186	0.128015
N13	N	-1.082848	0.452766	0.097382
C14	C	-0.736708	0.000183	0.208604
C15	C	-0.643410	0.000207	0.206839
C16	C	-0.607336	0.000221	0.124485
C17	C	-0.664567	0.000230	0.043890
C18	C	-0.757864	0.000219	0.045655
C19	C	-0.470105	0.000248	0.040217
C20	C	-0.376802	0.000255	0.038452
C21	C	-0.355651	0.000235	0.201402
C22	C	-0.448948	0.000225	0.203167
C23	C	-0.506173	0.000230	0.122571
C24	C	-0.220282	0.000274	0.117171
C25	C	-0.319579	0.000252	0.119041
C26	C	-1.063107	0.000253	-0.039997
C27	C	-1.061233	0.000243	-0.139293
N28	N	-1.030664	0.547733	0.149673
C29	C	-1.050363	-0.173090	-0.175923
C30	C	-1.048596	-0.173093	-0.269222
C31	C	-1.057706	0.000240	-0.325890
C32	C	-1.068574	0.173587	-0.289254
C33	C	-1.070334	0.173587	-0.195956
C34	C	-1.064908	0.173573	-0.483716
C35	C	-1.063149	0.173573	-0.577021
C36	C	-1.043169	-0.173107	-0.556982
C37	C	-1.044929	-0.173107	-0.463684
C38	C	-1.055799	0.000241	-0.427055
C39	C	-1.050406	0.000243	0.287052
C40	C	-1.052279	0.000240	0.386349
H41	H	-0.766072	0.000170	0.275666
N42	N	-0.959025	0.439581	0.221454
H43	H	-0.960101	0.297631	0.220368
H44	H	-0.897538	0.474477	0.209105
H45	H	-1.136940	0.534437	0.043197
H46	H	-1.037518	-0.314249	-0.417547
H47	H	-1.034317	-0.314253	-0.586810
H48	H	-1.042949	-0.314238	-0.129790
H49	H	-0.635190	0.000269	-0.023166
H50	H	-0.309055	0.000239	0.267025
H51	H	-1.070560	0.314716	-0.623158
H52	H	-1.039748	-0.314238	-0.299041
N53	N	-1.082060	0.360531	-0.156437
H54	H	-1.030717	0.436298	-0.169862
H55	H	-1.141555	0.436177	-0.184256
N56	N	-1.078411	0.360542	-0.350372
H57	H	-1.022728	0.368266	-0.382346
H58	H	-1.133568	0.368148	-0.396658
N59	N	-0.819589	0.000238	-0.041266
H60	H	-0.782581	0.000247	-0.093706
H61	H	-0.851959	-0.117641	-0.037277
H62	H	-0.478315	0.000195	0.270227
H63	H	-1.073740	0.314731	-0.453894
H64	H	-0.596822	0.000202	0.272463
H65	H	-0.347434	0.000269	-0.028607
H66	H	-0.516696	0.000255	-0.025413
