data_functionalizedCrystal
_audit_creation_method	'MofGen! by Chris Wilmer'
_symmetry_space_group_name_H-M	'P1'
_symmetry_Int_Tables_number	1
_symmetry_cell_setting	triclinic
loop_
_symmetry_equiv_pos_as_xyz
  x,y,z
_cell_length_a	12.759401
_cell_length_b	12.759400
_cell_length_c	12.759393
_cell_angle_alpha	90.029805
_cell_angle_beta	90.019596
_cell_angle_gamma	90.014922
loop_
_atom_site_label
_atom_site_type_symbol
_atom_site_fract_x
_atom_site_fract_y
_atom_site_fract_z
Zn1	Zn	1.606267	-0.418208	0.593988
Zn2	Zn	2.106267	0.081792	1.093988
Zn3	Zn	1.606158	-0.593923	0.418310
Zn4	Zn	2.106158	-0.093923	0.918310
Zn5	Zn	1.430565	-0.418260	0.418327
Zn6	Zn	1.930565	0.081740	0.918327
Zn7	Zn	1.430558	-0.593846	0.593951
Zn8	Zn	1.930558	-0.093846	1.093951
O9	O	1.518387	-0.506059	0.506144
O10	O	2.018387	-0.006059	1.006144
O11	O	1.753273	-0.441527	0.570692
O12	O	2.253273	0.058473	1.070692
O13	O	1.582823	-0.570675	0.271291
O14	O	2.082823	-0.070675	0.771291
O15	O	1.453921	-0.271232	0.441651
O16	O	1.953921	0.228768	0.941651
O17	O	1.753193	-0.570625	0.441622
O18	O	2.253193	-0.070625	0.941622
O19	O	1.583008	-0.271194	0.570708
O20	O	2.083008	0.228806	1.070708
O21	O	1.453816	-0.441616	0.271303
O22	O	1.953816	0.058384	0.771303
O23	O	1.283543	-0.441541	0.441616
O24	O	1.783543	0.058459	0.941616
O25	O	1.453908	-0.570493	0.740977
O26	O	1.953908	-0.070493	1.240977
O27	O	1.283538	-0.570544	0.570646
O28	O	1.783538	-0.070544	1.070646
O29	O	1.583001	-0.441452	0.741004
O30	O	2.083001	0.058548	1.241004
O31	O	1.582815	-0.740934	0.441587
O32	O	2.082815	-0.240934	0.941587
O33	O	1.453802	-0.740877	0.570630
O34	O	1.953802	-0.240877	1.070630
C35	C	1.245420	-0.506040	0.506129
C36	C	1.745420	-0.006040	1.006129
C37	C	1.128643	-0.506058	0.506148
C38	C	1.628643	-0.006058	1.006148
C39	C	0.964074	-0.573347	0.573236
C40	C	1.464074	-0.073347	1.073236
C41	C	1.073798	-0.573336	0.573225
C42	C	1.573798	-0.073336	1.073225
C43	C	1.073758	-0.438794	0.439070
C44	C	1.573758	0.061206	0.939070
C45	C	0.964036	-0.438812	0.439077
C46	C	1.464036	0.061188	0.939077
C47	C	1.518325	-0.779027	0.506125
C48	C	2.018325	-0.279027	1.006125
C49	C	1.518394	-0.895803	0.506152
C50	C	2.018394	-0.395803	1.006152
C51	C	1.585581	-0.950555	0.573410
C52	C	2.085581	-0.450555	1.073410
C53	C	1.585640	-1.060279	0.573438
C54	C	2.085640	-0.560279	1.073438
C55	C	1.451323	-1.060489	0.438943
C56	C	1.951323	-0.560489	0.938943
C57	C	1.451260	-0.950767	0.438921
C58	C	1.951260	-0.450767	0.938921
C59	C	1.792420	-0.506079	0.506159
C60	C	2.292420	-0.006079	1.006159
C61	C	1.909197	-0.506087	0.506165
C62	C	2.409197	-0.006087	1.006165
C63	C	1.518466	-0.505958	0.780177
C64	C	2.018466	-0.005958	1.280177
C65	C	1.518499	-0.505915	0.896954
C66	C	2.018499	-0.005915	1.396954
C67	C	1.518478	-0.232026	0.506186
C68	C	2.018478	0.267974	1.006186
C69	C	1.518517	-0.115249	0.506203
C70	C	2.018517	0.384751	1.006203
C71	C	1.518369	-0.506084	0.233176
C72	C	2.018369	-0.006084	0.733176
C73	C	1.518539	-0.505831	0.116400
C74	C	2.018539	-0.005831	0.616400
C75	C	1.585723	-0.438713	0.951832
C76	C	2.085723	0.061287	1.451832
C77	C	1.585740	-0.438668	1.061556
C78	C	2.085740	0.061332	1.561556
C79	C	1.451308	-0.573036	1.061515
C80	C	1.951308	-0.073036	1.561515
C81	C	1.451286	-0.573075	0.951793
C82	C	1.951286	-0.073075	1.451793
H83	H	1.118421	-0.384020	0.384451
H84	H	1.618421	0.115980	0.884451
H85	H	1.396588	-0.627718	1.106178
H86	H	1.896588	-0.127718	1.606178
H87	H	1.640449	-0.384024	0.907185
H88	H	2.140449	0.115976	1.407185
O89	O	1.378771	-0.645561	0.892600
O90	O	1.878771	-0.145561	1.392600
H91	H	1.390039	-0.634294	0.807091
H92	H	1.890039	-0.134294	1.307091
O93	O	1.658101	-1.119334	0.645985
O94	O	2.158101	-0.619334	1.145985
H95	H	1.711599	-1.169325	0.599022
H96	H	2.211599	-0.669325	1.099022
H97	H	1.396666	-1.105255	0.384204
H98	H	1.896666	-0.605255	0.884204
O99	O	0.904969	-0.645950	0.645584
O100	O	1.404969	-0.145950	1.145584
H101	H	0.855005	-0.599041	0.699156
H102	H	1.355005	-0.099041	1.199156
H103	H	1.396543	-0.906185	0.384152
H104	H	1.896543	-0.406185	0.884152
O105	O	1.132992	-0.645872	0.645572
O106	O	1.632992	-0.145872	1.145572
H107	H	1.076422	-0.692646	0.692227
H108	H	1.576422	-0.192646	1.192227
H109	H	1.640244	-0.905806	0.628155
H110	H	2.140244	-0.405806	1.128155
H111	H	0.919353	-0.384039	0.384455
H112	H	1.419353	0.115961	0.884455
H113	H	1.640479	-0.383943	1.106232
H114	H	2.140479	0.116057	1.606232
