data_functionalizedCrystal
_audit_creation_method	'MofGen! by Chris Wilmer'
_symmetry_space_group_name_H-M	'P1'
_symmetry_Int_Tables_number	1
_symmetry_cell_setting	triclinic
loop_
_symmetry_equiv_pos_as_xyz
  x,y,z
_cell_length_a	16.109301
_cell_length_b	12.837942
_cell_length_c	15.186229
_cell_angle_alpha	89.996774
_cell_angle_beta	89.999362
_cell_angle_gamma	89.145211
loop_
_atom_site_label
_atom_site_type_symbol
_atom_site_fract_x
_atom_site_fract_y
_atom_site_fract_z
O1	O	1.113716	0.133240	-0.073172
O2	O	0.872971	0.149822	-0.073186
O3	O	0.988005	-0.009370	-0.073174
O4	O	0.998681	0.292432	-0.073184
O5	O	0.987996	-0.009372	0.073283
O6	O	0.872962	0.149820	0.073271
O7	O	1.113707	0.133238	0.073285
Zn8	Zn	0.993333	0.141528	0.096532
Zn9	Zn	0.993345	0.141531	-0.096432
O10	O	0.998673	0.292430	0.073273
C11	C	0.841938	0.149149	0.000041
C12	C	0.749483	0.147135	0.000036
C13	C	0.534343	0.236914	0.000043
C14	C	0.447471	0.235014	0.000049
C15	C	0.452341	0.046138	0.000051
C16	C	0.539211	0.048040	0.000052
C17	C	0.580209	0.143431	0.000043
C18	C	0.406468	0.139629	0.000048
C19	C	0.312278	0.137568	0.000055
C20	C	0.674405	0.145492	0.000039
C21	C	0.984394	-0.047991	0.000054
C22	C	0.973637	-0.163064	0.000052
C23	C	1.102954	-0.404066	0.000041
C24	C	1.092851	-0.512188	0.000039
C25	C	0.943328	-0.487433	0.000040
C26	C	0.953431	-0.379311	0.000042
C27	C	1.033247	-0.337632	0.000044
C28	C	1.043349	-0.229507	0.000052
C29	C	0.893827	-0.204754	0.000046
C30	C	0.883724	-0.312876	0.000044
C31	C	1.144739	0.133911	0.000056
C32	C	1.237195	0.135924	0.000056
C33	C	1.002284	0.331050	0.000043
C34	C	1.013041	0.446124	0.000040
N35	N	0.993331	0.141526	0.228224
N36	N	0.993352	0.141526	-0.228125
C37	C	1.044289	0.071059	0.453952
C38	C	1.044292	0.071057	0.546142
C39	C	0.942388	0.211996	0.546141
C40	C	0.942382	0.211992	0.453953
C41	C	0.993337	0.141525	0.407861
C42	C	0.993346	0.141526	0.592239
C43	C	0.993348	0.141524	0.692195
C44	C	0.993334	0.141526	0.307898
H45	H	0.567721	0.314588	0.000043
C46	C	0.407872	-0.057456	0.000230
C47	C	0.430452	-0.113965	0.075590
C48	C	0.389498	-0.209398	0.075786
H49	H	0.423081	-0.096066	-0.050783
H50	H	0.349559	-0.045247	0.000274
H51	H	0.488752	-0.126177	0.075538
H52	H	0.415242	-0.075387	0.126616
H53	H	0.331185	-0.197188	0.075830
H54	H	0.404710	-0.247998	0.024770
H55	H	0.404806	-0.247746	0.126920
H56	H	0.410130	0.311138	0.000050
H57	H	0.878346	-0.521388	0.000028
H58	H	1.108339	-0.195574	0.000057
H59	H	0.900903	0.269370	0.583678
C60	C	0.588972	-0.053497	-0.000131
C61	C	0.569331	-0.110919	-0.075491
C62	C	0.615163	-0.204447	-0.075692
H63	H	0.575775	-0.092738	0.050882
H64	H	0.646589	-0.038744	-0.000176
H65	H	0.511727	-0.125674	-0.075437
H66	H	0.582531	-0.071709	-0.126516
H67	H	0.672780	-0.189695	-0.075737
H68	H	0.601962	-0.243679	-0.024675
H69	H	0.601849	-0.243415	-0.126826
C70	C	1.099493	-0.005644	0.403979
C71	C	1.077904	-0.107494	0.426425
C72	C	1.128730	-0.178195	0.380412
H73	H	1.155897	0.005483	0.419052
H74	H	1.092198	0.004350	0.342460
H75	H	1.085206	-0.117483	0.487930
H76	H	1.021509	-0.118654	0.411350
H77	H	1.121435	-0.168202	0.318893
H78	H	1.185131	-0.167059	0.395488
H79	H	1.114084	-0.247308	0.395628
H80	H	1.167943	-0.370130	0.000051
H81	H	1.085781	0.013676	0.583667
H82	H	1.149614	-0.566277	0.000034
H83	H	0.900887	0.269374	0.416422
C84	C	0.797140	-0.358335	0.000090
C85	C	0.803210	-0.467243	0.000108
C86	C	0.723464	-0.509152	0.000165
H87	H	0.768002	-0.335638	-0.050966
H88	H	0.768069	-0.335594	0.051187
H89	H	0.832268	-0.489975	-0.050983
H90	H	0.832333	-0.489969	0.051160
H91	H	0.694393	-0.486411	0.051262
H92	H	0.694333	-0.486448	-0.050891
H93	H	0.727572	-0.583050	0.000186
C94	C	0.818167	-0.132575	-0.000135
C95	C	0.819586	-0.069786	-0.075491
C96	C	0.749898	-0.003294	-0.075691
H97	H	0.818926	-0.089791	0.050881
H98	H	0.769169	-0.172853	-0.000184
H99	H	0.868572	-0.029512	-0.075434
H100	H	0.818816	-0.112542	-0.126519
H101	H	0.700899	-0.043572	-0.075740
H102	H	0.750663	0.039483	-0.024672
H103	H	0.750847	0.039310	-0.126823
