data_functionalizedCrystal
_audit_creation_method	'MofGen! by Chris Wilmer'
_symmetry_space_group_name_H-M	'P1'
_symmetry_Int_Tables_number	1
_symmetry_cell_setting	triclinic
loop_
_symmetry_equiv_pos_as_xyz
  x,y,z
_cell_length_a	14.560438
_cell_length_b	12.970454
_cell_length_c	12.970454
_cell_angle_alpha	59.999776
_cell_angle_beta	90.001163
_cell_angle_gamma	60.001474
loop_
_atom_site_label
_atom_site_type_symbol
_atom_site_fract_x
_atom_site_fract_y
_atom_site_fract_z
Zr1	Zr	0.884754	1.128537	-0.135289
O2	O	0.738109	1.343624	-0.299917
O3	O	0.929708	0.913447	-0.084821
O4	O	0.929710	1.128537	-0.299912
O5	O	0.738106	1.128536	0.084841
O6	O	1.080848	1.128540	-0.299909
O7	O	0.738107	1.128535	-0.084826
O8	O	1.080845	0.743784	0.084849
O9	O	0.738109	1.513292	-0.299917
O10	O	1.061674	1.001920	-0.063296
O11	O	0.948880	1.001919	0.063322
O12	O	0.948882	1.255159	-0.189920
O13	O	0.836088	1.255157	-0.063301
Zr14	Zr	1.125800	1.128543	0.135314
Zr15	Zr	1.125802	1.128542	-0.135285
Zr16	Zr	0.884752	1.128539	0.135309
Zr17	Zr	0.884754	1.399137	-0.135290
Zr18	Zr	1.125800	0.857943	0.135315
O19	O	1.080845	1.343633	0.084846
O20	O	1.080848	1.343631	-0.299910
O21	O	0.738106	1.343626	0.084840
O22	O	1.272445	0.913456	0.299941
O23	O	1.272447	0.913454	-0.084815
O24	O	0.929706	0.913450	0.299935
O25	O	1.272448	1.128545	-0.084816
O26	O	1.080844	1.128543	0.299937
O27	O	0.929706	1.128540	0.299934
O28	O	1.272446	1.128546	0.084850
O29	O	0.929710	1.513295	-0.299914
O30	O	1.080844	0.743785	0.299939
O31	O	1.272445	0.743789	0.299942
O32	O	1.272446	0.743788	0.084852
O33	O	0.738107	1.513293	-0.084828
O34	O	0.929708	1.513297	-0.084824
O35	O	1.061672	1.001921	0.189944
O36	O	1.174466	1.001923	0.063326
O37	O	1.061674	1.255162	-0.063297
O38	O	0.948880	1.255160	0.063321
C39	C	1.005277	0.790061	0.000014
C40	C	1.005277	0.675184	0.000015
C41	C	0.703762	1.128534	0.000007
C42	C	0.601431	1.128532	0.000005
C43	C	0.612229	0.996347	0.066101
C44	C	0.516074	0.996354	0.066112
C45	C	0.398327	1.260744	-0.066078
C46	C	0.494481	1.260735	-0.066081
C47	C	0.719180	0.864144	0.132187
C48	C	0.729982	0.731948	0.198288
C49	C	0.633827	0.731955	0.198299
C50	C	0.526870	0.864158	0.132210
C51	C	1.306791	1.128546	0.000018
C52	C	1.409122	1.128548	0.000020
C53	C	1.005279	1.128538	-0.338465
C54	C	1.005280	1.128538	-0.453341
C55	C	1.005277	1.467019	0.000011
C56	C	1.005277	1.581896	0.000010
C57	C	1.005275	1.128542	0.338490
C58	C	1.005274	1.128543	0.453366
C59	C	1.306791	0.790067	0.000020
C60	C	1.409122	0.675192	0.000022
C61	C	1.005275	0.790063	0.338492
C62	C	1.005274	0.675187	0.453368
C63	C	1.306789	0.790069	0.338497
C64	C	1.409119	0.675194	0.453376
C65	C	0.703765	1.467012	-0.338472
C66	C	0.601434	1.581886	-0.453351
C67	C	0.703763	1.467014	0.000005
C68	C	0.601431	1.581888	0.000003
C69	C	1.005279	1.467018	-0.338467
C70	C	1.005280	1.581894	-0.453344
C71	C	1.457179	0.527760	0.093499
C72	C	1.553320	0.419808	0.093506
C73	C	1.601408	0.459291	0.000039
C74	C	1.553343	0.606737	-0.093448
C75	C	1.457199	0.714686	-0.093458
C76	C	1.457183	0.527763	0.507323
C77	C	1.553344	0.419810	0.615252
C78	C	1.601435	0.459291	0.669236
C79	C	1.553367	0.606737	0.615278
C80	C	1.457213	0.714687	0.507347
C81	C	0.553379	1.729317	-0.507308
C82	C	0.457239	1.837270	-0.615261
C83	C	0.409152	1.797789	-0.669249
C84	C	0.457215	1.650343	-0.615286
C85	C	0.553358	1.542393	-0.507341
C86	C	0.553374	1.542360	0.093486
C87	C	0.457232	1.650283	0.093510
C88	C	0.409146	1.797732	0.000043
C89	C	0.457212	1.837259	-0.093445
C90	C	0.553356	1.729338	-0.093462
H91	H	0.817071	0.624313	0.252103
H92	H	0.592474	1.761544	-0.169593
H93	H	0.485685	1.368372	-0.119878
H94	H	0.592517	1.761492	-0.463362
H95	H	0.797480	0.864124	0.132183
H96	H	1.418038	0.495585	0.169615
C97	C	1.606257	0.650154	-0.196247
C98	C	1.712022	0.531398	-0.196208
C99	C	1.764945	0.574811	-0.298999
C100	C	1.712104	0.736979	-0.401827
C101	C	1.606334	0.855745	-0.401870
C102	C	1.553410	0.812333	-0.299079
H103	H	1.751143	0.411342	-0.120084
H104	H	1.843244	0.486892	-0.298967
H105	H	1.751282	0.769116	-0.477919
H106	H	1.567212	0.975801	-0.477993
H107	H	1.475111	0.900252	-0.299111
H108	H	1.418082	0.834730	-0.169577
C109	C	1.404300	0.484311	0.447949
C110	C	1.473611	0.392375	0.399814
C111	C	1.420740	0.348909	0.340442
C112	C	1.298557	0.397381	0.329205
C113	C	1.229239	0.489322	0.377342
C114	C	1.282110	0.532788	0.436714
H115	H	1.564064	0.356489	0.408131
H116	H	1.472054	0.280848	0.304808
H117	H	1.259419	0.365205	0.285254
H118	H	1.138786	0.525208	0.369025
H119	H	1.230795	0.600849	0.472348
C120	C	0.404376	1.999451	-0.674595
C121	C	0.473702	2.061707	-0.722674
C122	C	0.420841	2.223883	-0.782003
C123	C	0.298654	2.323803	-0.793252
C124	C	0.229320	2.261548	-0.745172
C125	C	0.282181	2.099373	-0.685844
H126	H	0.564159	1.987739	-0.714347
H127	H	0.472167	2.269967	-0.817594
H128	H	0.259523	2.443855	-0.837171
H129	H	0.138863	2.335516	-0.753499
H130	H	0.230855	2.053288	-0.650252
H131	H	0.642628	0.624314	0.252131
H132	H	0.448578	0.864153	0.132232
H133	H	0.311237	1.368377	-0.119887
C134	C	1.606196	0.257629	0.674598
C135	C	1.649025	0.195375	0.596773
C136	C	1.701873	0.033200	0.656116
C137	C	1.711891	-0.066722	0.793284
C138	C	1.669061	-0.004470	0.871117
C139	C	1.616214	0.157706	0.811774
H140	H	1.641610	0.269345	0.495227
H141	H	1.733579	-0.012883	0.598499
H142	H	1.751012	-0.186775	0.837213
H143	H	1.676476	-0.078439	0.972663
H144	H	1.584508	0.203789	0.869391
C145	C	0.404290	1.999462	-0.196259
C146	C	0.282092	2.099327	-0.284891
C147	C	0.229157	2.261534	-0.387710
C148	C	0.298419	2.323876	-0.401897
C149	C	0.420624	2.224009	-0.313262
C150	C	0.473560	2.061802	-0.210443
H151	H	0.230814	2.053180	-0.274391
H152	H	0.138692	2.335462	-0.453323
H153	H	0.259233	2.443951	-0.478009
H154	H	0.471903	2.270157	-0.323762
H155	H	0.564025	1.987875	-0.144830
H156	H	1.592442	0.299759	0.169638
H157	H	1.679692	0.371377	0.000060
H158	H	0.592472	1.422349	-0.463411
H159	H	1.679730	0.371376	0.757122
H160	H	1.592539	0.638863	0.659248
H161	H	1.418083	0.834731	0.463435
H162	H	0.330866	1.885703	-0.757145
H163	H	0.418047	1.618216	-0.659259
H164	H	0.592510	1.422307	0.169597
H165	H	0.418108	1.618070	0.169639
H166	H	0.330858	1.885594	0.000071
