data_functionalizedCrystal
_audit_creation_method	'MofGen! by Chris Wilmer'
_symmetry_space_group_name_H-M	'P1'
_symmetry_Int_Tables_number	1
_symmetry_cell_setting	triclinic
loop_
_symmetry_equiv_pos_as_xyz
  x,y,z
_cell_length_a	12.784905
_cell_length_b	27.731996
_cell_length_c	11.295483
_cell_angle_alpha	94.054077
_cell_angle_beta	86.327249
_cell_angle_gamma	77.864353
loop_
_atom_site_label
_atom_site_type_symbol
_atom_site_fract_x
_atom_site_fract_y
_atom_site_fract_z
O1	O	1.417484	-0.000528	-0.099032
O2	O	1.107680	0.020187	-0.099038
O3	O	1.272231	-0.060941	-0.099009
O4	O	1.252933	0.080600	-0.099061
O5	O	1.257778	-0.053826	0.099039
O6	O	1.093228	0.027303	0.099010
O7	O	1.403031	0.006587	0.099016
Cu8	Cu	1.246810	0.017595	0.117097
Cu9	Cu	1.263902	0.009180	-0.117118
O10	O	1.238481	0.087715	0.098987
C11	C	1.060832	0.025092	-0.000014
C12	C	0.942771	0.029101	-0.000015
C13	C	0.747761	-0.052571	-0.000007
C14	C	0.636833	-0.048807	-0.000008
C15	C	0.609985	0.040392	-0.000027
C16	C	0.720913	0.036628	-0.000026
C17	C	0.789798	-0.009855	-0.000014
C18	C	0.900727	-0.013619	-0.000004
C19	C	0.873878	0.075580	-0.000032
C20	C	0.762950	0.079344	-0.000034
C21	C	1.264608	-0.075375	0.000019
C22	C	1.263413	-0.128985	0.000031
C23	C	1.263781	-0.465292	-0.107983
C24	C	1.259248	-0.666776	-0.108004
O25	O	1.265316	-0.696120	-0.199817
N26	N	1.250806	-0.688092	-0.000049
C27	C	1.243491	-0.659034	0.107919
O28	O	1.236196	-0.681787	0.199741
C29	C	1.248017	-0.457550	0.107939
C30	C	1.256470	-0.436238	-0.000023
C31	C	1.272232	-0.443979	-0.215936
C32	C	1.273371	-0.393611	-0.215930
C33	C	1.266059	-0.364557	-0.107970
C34	C	1.257609	-0.385870	-0.000017
C35	C	1.240694	-0.428492	0.215906
C36	C	1.241823	-0.378118	0.215901
C37	C	1.250276	-0.356805	0.107939
C38	C	1.251436	-0.306449	0.107949
N39	N	1.259877	-0.285132	-0.000006
C40	C	1.267189	-0.314186	-0.107966
C41	C	1.241118	-0.764816	0.107901
C42	C	1.239988	-0.815187	0.107896
C43	C	1.255743	-0.822925	-0.108027
C44	C	1.256880	-0.772554	-0.108021
C45	C	1.249559	-0.743499	-0.000054
C46	C	1.269581	-0.208411	-0.107944
C47	C	1.270724	-0.158039	-0.107928
C48	C	1.254964	-0.150305	0.107994
C49	C	1.253827	-0.200673	0.107979
C50	C	1.261133	-0.229725	0.000000
O51	O	1.245360	-0.277073	0.199714
O52	O	1.274459	-0.291421	-0.199774
C53	C	1.262642	-0.515659	-0.107989
C54	C	1.254191	-0.536972	-0.000036
C55	C	1.246880	-0.507918	0.107924
C56	C	1.253062	-0.587343	-0.000041
C57	C	1.260374	-0.616397	-0.108000
C58	C	1.268815	-0.595081	-0.215955
C59	C	1.269954	-0.544713	-0.215949
C60	C	1.238438	-0.529235	0.215879
C61	C	1.237301	-0.579603	0.215864
C62	C	1.244613	-0.608657	0.107904
C63	C	1.449880	0.001682	-0.000010
C64	C	1.567941	-0.002327	-0.000016
C65	C	1.246104	0.102149	-0.000043
C66	C	1.247300	0.155759	-0.000063
N67	N	1.234796	0.023513	0.281831
N68	N	1.275924	0.003257	-0.281852
C69	C	1.362406	-0.039371	0.531143
C70	C	1.353335	-0.034896	0.655805
C71	C	1.207577	0.036937	0.655819
C72	C	1.216649	0.032461	0.531157
C73	C	1.294067	-0.005694	0.468823
C74	C	1.303143	-0.010167	0.344159
C75	C	1.157381	0.061663	0.344176
C76	C	1.148309	0.066139	0.468838
H77	H	0.803848	-0.090420	0.000011
O78	O	1.419756	-0.067541	0.716472
C79	C	1.479713	-0.041793	0.788535
H80	H	1.435358	-0.001500	0.807213
H81	H	1.561761	-0.043517	0.740469
C82	C	1.548766	-0.115254	0.884012
C83	C	1.494284	-0.065767	0.906960
H84	H	1.557759	-0.130043	0.957060
H85	H	1.508375	-0.132601	0.835459
H86	H	1.617134	-0.116684	0.843954
H87	H	1.425913	-0.064337	0.947004
H88	H	1.534664	-0.048419	0.955523
H89	H	1.275525	-0.232059	-0.195871
H90	H	1.085274	0.097203	0.519604
O91	O	1.091089	0.094446	0.283695
C92	C	1.105343	0.142700	0.314173
H93	H	1.188002	0.140604	0.348422
H94	H	1.040887	0.161968	0.386547
C95	C	0.994803	0.174789	0.161368
C96	C	1.096330	0.172215	0.203424
H97	H	0.989238	0.192996	0.093056
H98	H	0.985196	0.142279	0.140837
H99	H	0.941101	0.190844	0.221690
H100	H	1.150029	0.156154	0.143108
H101	H	1.105946	0.204722	0.223943
O102	O	0.967617	-0.058789	-0.000209
C103	C	0.956140	-0.088684	-0.102764
H104	H	0.923022	-0.064126	-0.174456
H105	H	0.898429	-0.113476	-0.079573
C106	C	1.106976	-0.151190	-0.061219
C107	C	1.066308	-0.121026	-0.149276
H108	H	1.174930	-0.171141	-0.089908
H109	H	1.114706	-0.131049	0.007877
H110	H	1.058873	-0.171845	-0.041901
H111	H	1.114403	-0.100367	-0.168581
H112	H	1.058588	-0.141163	-0.218377
O113	O	0.596171	-0.090349	0.000055
C114	C	0.680764	-0.132182	0.000033
H115	H	0.753167	-0.120444	0.037526
H116	H	0.703623	-0.149706	-0.094979
C117	C	0.555563	-0.184478	0.031657
C118	C	0.644486	-0.170062	0.077717
H119	H	0.533184	-0.207846	0.079571
H120	H	0.498570	-0.156295	0.031668
H121	H	0.574623	-0.199079	-0.047518
H122	H	0.625420	-0.155457	0.156884
H123	H	0.701474	-0.198244	0.077721
H124	H	0.908114	0.110363	-0.000032
O125	O	1.279071	-0.137317	-0.212762
C126	C	1.372316	-0.117738	-0.219244
H127	H	1.431962	-0.137264	-0.158037
H128	H	1.350211	-0.076414	-0.190190
C129	C	1.350202	-0.101818	-0.423428
C130	C	1.423465	-0.125803	-0.348260
H131	H	1.381752	-0.106790	-0.503011
H132	H	1.287379	-0.115007	-0.419061
H133	H	1.331787	-0.067383	-0.399202
H134	H	1.441868	-0.160238	-0.372477
H135	H	1.486293	-0.112620	-0.352634
H136	H	1.144538	0.067998	0.706588
H137	H	1.425450	-0.070435	0.480390
H138	H	1.263761	-0.755205	-0.195934
H139	H	1.261697	-0.846590	-0.195932
H140	H	0.553882	0.078236	-0.000053
H141	H	1.233813	-0.445836	0.303820
H142	H	0.706850	0.117190	-0.000048
H143	H	1.280250	-0.376263	-0.303844
H144	H	1.278183	-0.467629	-0.303855
H145	H	1.233121	-0.832537	0.195810
O146	O	1.277952	-0.524028	-0.320873
C147	C	1.190314	-0.529370	-0.386522
H148	H	1.120999	-0.534404	-0.323317
H149	H	1.215394	-0.563150	-0.453799
C150	C	1.239472	-0.476592	-0.530362
C151	C	1.154335	-0.482771	-0.452730
H152	H	1.217280	-0.447849	-0.571207
H153	H	1.298518	-0.472994	-0.486136
H154	H	1.260364	-0.504745	-0.586415
H155	H	1.133454	-0.454621	-0.396670
H156	H	1.095284	-0.486363	-0.496949
O157	O	1.234860	-0.349862	0.320712
C158	C	1.327208	-0.329856	0.327213
H159	H	1.364949	-0.328782	0.233487
H160	H	1.387407	-0.353910	0.380489
C161	C	1.249429	-0.278276	0.504073
C162	C	1.295778	-0.276954	0.388957
H163	H	1.230043	-0.245645	0.542164
H164	H	1.187213	-0.291756	0.499697
H165	H	1.299602	-0.298324	0.548454
H166	H	1.245600	-0.256912	0.344573
H167	H	1.357984	-0.263470	0.393327
H168	H	1.246954	-0.218027	0.195891
O169	O	1.234165	-0.736560	0.212710
C170	C	1.326514	-0.716554	0.219191
H171	H	1.364240	-0.715480	0.125458
H172	H	1.386724	-0.740608	0.272455
C173	C	1.248761	-0.664975	0.396061
C174	C	1.295091	-0.663653	0.280936
H175	H	1.229380	-0.632344	0.434153
H176	H	1.186545	-0.678455	0.391699
H177	H	1.298943	-0.685023	0.440433
H178	H	1.244905	-0.643610	0.236562
H179	H	1.357299	-0.650168	0.285293
O180	O	1.247667	-0.122033	0.212825
C181	C	1.155711	-0.083309	0.219233
H182	H	1.095443	-0.094158	0.157963
H183	H	1.179522	-0.048291	0.190211
C184	C	1.178531	-0.060329	0.423457
C185	C	1.104505	-0.073656	0.348211
H186	H	1.146947	-0.054372	0.503017
H187	H	1.240486	-0.086416	0.419140
H188	H	1.198368	-0.031149	0.399258
H189	H	1.084680	-0.102839	0.372402
H190	H	1.042545	-0.047573	0.352536
H191	H	1.274773	-0.618746	-0.303860
H192	H	1.230426	-0.596951	0.303786
H193	H	1.232486	-0.505584	0.303794
H194	H	1.366183	-0.041233	0.293408
