data_functionalizedCrystal
_audit_creation_method	'MofGen! by Chris Wilmer'
_symmetry_space_group_name_H-M	'P1'
_symmetry_Int_Tables_number	1
_symmetry_cell_setting	triclinic
loop_
_symmetry_equiv_pos_as_xyz
  x,y,z
_cell_length_a	19.077105
_cell_length_b	13.897448
_cell_length_c	19.076919
_cell_angle_alpha	92.272955
_cell_angle_beta	90.076224
_cell_angle_gamma	87.714101
loop_
_atom_site_label
_atom_site_type_symbol
_atom_site_fract_x
_atom_site_fract_y
_atom_site_fract_z
Zn1	Zn	1.058310	-0.466652	-0.440425
Zn2	Zn	1.062963	-0.621745	-0.322920
Zn3	Zn	0.945527	-0.453730	-0.318218
Zn4	Zn	0.940785	-0.621164	-0.435673
O5	O	1.001896	-0.540823	-0.379309
O6	O	1.157260	-0.492877	-0.428794
O7	O	1.051317	-0.594293	-0.223965
O8	O	0.960525	-0.320466	-0.334450
O9	O	1.160678	-0.606823	-0.342464
O10	O	1.043386	-0.329960	-0.424235
O11	O	0.965037	-0.470854	-0.220510
O12	O	0.846566	-0.470290	-0.329842
O13	O	0.952443	-0.605832	-0.534635
O14	O	0.843082	-0.593302	-0.416136
O15	O	1.038788	-0.492313	-0.538126
O16	O	1.046719	-0.756647	-0.337856
O17	O	0.956955	-0.756219	-0.420695
C18	C	0.819327	-0.530331	-0.371963
C19	C	0.741223	-0.525867	-0.368837
C20	C	1.001846	-0.791433	-0.379287
C21	C	1.001888	-0.898650	-0.379303
C22	C	0.702736	-0.587905	-0.412227
C23	C	0.629349	-0.583698	-0.409293
C24	C	0.594449	-0.517456	-0.362966
C25	C	0.632940	-0.455412	-0.319575
C26	C	0.706327	-0.459615	-0.322513
C27	C	0.375160	-0.498004	-0.349373
C28	C	0.301769	-0.493807	-0.346437
C29	C	0.298182	-0.622092	-0.436157
C30	C	0.371570	-0.626293	-0.439087
C31	C	0.410055	-0.564245	-0.395699
N32	N	0.519435	-0.513157	-0.359965
N33	N	0.485067	-0.568541	-0.398704
C34	C	1.001960	-1.094952	-0.379350
C35	C	1.001918	-0.985716	-0.379326
C36	C	1.185178	-0.551356	-0.386684
C37	C	1.263282	-0.555845	-0.389826
C38	C	0.994568	-0.550449	-0.562589
C39	C	0.991445	-0.554551	-0.640692
C40	C	1.001966	-0.289236	-0.379348
C41	C	1.001995	-0.182024	-0.379364
C42	C	1.034931	-0.497377	-0.679204
C43	C	1.031988	-0.501227	-0.752590
C44	C	0.985562	-0.562257	-0.787463
C45	C	0.942071	-0.619432	-0.748946
C46	C	0.945011	-0.615576	-0.675561
C47	C	0.971945	-0.580121	-1.006744
C48	C	0.969010	-0.583975	-1.080134
C49	C	1.058926	-0.465768	-1.083773
C50	C	1.061865	-0.461922	-1.010387
C51	C	1.018372	-0.519094	-0.971877
N52	N	0.982554	-0.566196	-0.862475
N53	N	1.021376	-0.515149	-0.896866
C54	C	1.009237	-0.531167	-0.196743
C55	C	1.012496	-0.526801	-0.118646
H56	H	0.731147	-0.641849	-0.449949
H57	H	1.072738	-0.447684	-0.650816
O58	O	0.902697	-0.670978	-0.638118
C59	C	0.859036	-0.611231	-0.593836
H60	H	0.853831	-0.536172	-0.615785
H61	H	0.804983	-0.642967	-0.590823
H62	H	0.882988	-0.606239	-0.539094
H63	H	0.737661	-0.409092	-0.287184
H64	H	0.604519	-0.401473	-0.281858
O65	O	0.591933	-0.643833	-0.451514
C66	C	0.547674	-0.588981	-0.495266
H67	H	0.569623	-0.514519	-0.500593
H68	H	0.544692	-0.626782	-0.549263
H69	H	0.492918	-0.581288	-0.471323
O70	O	0.405508	-0.690730	-0.483995
C71	C	0.449557	-0.753253	-0.445612
H72	H	0.429640	-0.754930	-0.389377
H73	H	0.449377	-0.828915	-0.470969
H74	H	0.505273	-0.726476	-0.445451
O75	O	0.260689	-0.682257	-0.478279
C76	C	0.188434	-0.664364	-0.465743
H77	H	0.179334	-0.588099	-0.442421
H78	H	0.158450	-0.672184	-0.517253
H79	H	0.169089	-0.718339	-0.427418
H80	H	0.273355	-0.439855	-0.308716
O81	O	1.106883	-0.402477	-0.976556
C82	C	1.090830	-0.306416	-0.993917
H83	H	1.033884	-0.299399	-1.011820
H84	H	1.098832	-0.256554	-0.945920
H85	H	1.126793	-0.285615	-1.038048
O86	O	1.101097	-0.410261	-1.121289
C87	C	1.088562	-0.426764	-1.193539
H88	H	1.033925	-0.455767	-1.201372
H89	H	1.092229	-0.356252	-1.221631
H90	H	1.129396	-0.481616	-1.216036
O91	O	1.074202	-0.445547	-0.789916
C92	C	1.059579	-0.347589	-0.771385
H93	H	1.034698	-0.341247	-0.717015
H94	H	1.110407	-0.307124	-0.770917
H95	H	1.021811	-0.315184	-0.811235
O96	O	0.412432	-0.437692	-0.307157
C97	C	0.365888	-0.378311	-0.265652
H98	H	0.313672	-0.414697	-0.261071
H99	H	0.389296	-0.366199	-0.211151
H100	H	0.357062	-0.306023	-0.291171
O101	O	0.923846	-0.643281	-1.113900
C102	C	0.886100	-0.692934	-1.064174
H103	H	0.885769	-0.650538	-1.011771
H104	H	0.829886	-0.701152	-1.083150
H105	H	0.912122	-0.767262	-1.057392
O106	O	0.897071	-0.678825	-0.782855
C107	C	0.935359	-0.745640	-0.826918
H108	H	0.991586	-0.753619	-0.807032
H109	H	0.909889	-0.818453	-0.826715
H110	H	0.935561	-0.718878	-0.882638
H111	H	0.936540	-0.626689	-0.975398
