data_functionalizedCrystal
_audit_creation_method	'MofGen! by Chris Wilmer'
_symmetry_space_group_name_H-M	'P1'
_symmetry_Int_Tables_number	1
_symmetry_cell_setting	triclinic
loop_
_symmetry_equiv_pos_as_xyz
  x,y,z
_cell_length_a	18.215407
_cell_length_b	17.077402
_cell_length_c	17.077396
_cell_angle_alpha	90.030530
_cell_angle_beta	89.982723
_cell_angle_gamma	89.970027
loop_
_atom_site_label
_atom_site_type_symbol
_atom_site_fract_x
_atom_site_fract_y
_atom_site_fract_z
Zn1	Zn	1.125032	0.312562	-0.443785
Zn2	Zn	1.124924	0.443837	-0.312514
Zn3	Zn	1.001965	0.312583	-0.312538
Zn4	Zn	1.001914	0.443784	-0.443743
O5	O	1.063459	0.378191	-0.378145
O6	O	1.228002	0.329989	-0.426379
O7	O	1.108590	0.426457	-0.202670
O8	O	1.018356	0.202733	-0.329976
O9	O	1.227923	0.426436	-0.329935
O10	O	1.108773	0.202718	-0.426402
O11	O	1.018252	0.330025	-0.202688
O12	O	0.898974	0.329974	-0.329935
O13	O	1.018270	0.426346	-0.553595
O14	O	0.898937	0.426366	-0.426331
O15	O	1.108724	0.329938	-0.553626
O16	O	1.108540	0.553677	-0.329894
O17	O	1.018165	0.553638	-0.426308
C18	C	0.872253	0.378167	-0.378131
C19	C	0.790454	0.378176	-0.378144
C20	C	0.602300	0.328059	-0.428442
C21	C	0.525441	0.328066	-0.428444
C22	C	0.525370	0.428345	-0.327862
C23	C	0.602227	0.428334	-0.327856
C24	C	0.640690	0.378192	-0.378150
C25	C	0.486974	0.378210	-0.378159
C26	C	0.403640	0.378218	-0.378161
C27	C	0.724029	0.378183	-0.378147
C28	C	1.063356	0.582139	-0.378111
C29	C	1.063379	0.669389	-0.378123
C30	C	1.110540	1.045132	-0.428429
C31	C	1.110517	0.963151	-0.428412
C32	C	1.063465	0.922238	-0.378163
C33	C	1.016439	0.963309	-0.327921
C34	C	1.016466	1.045288	-0.327934
C35	C	1.016383	0.792439	-0.327898
C36	C	1.016355	0.710455	-0.327886
C37	C	1.110434	0.710302	-0.428377
C38	C	1.110461	0.792281	-0.428390
C39	C	1.063434	0.833347	-0.378149
C40	C	1.255412	0.378216	-0.378159
C41	C	1.337211	0.378227	-0.378165
C42	C	1.063553	1.173447	-0.378190
C43	C	1.063516	1.086197	-0.378192
C44	C	1.063503	0.378133	-0.582889
C45	C	1.063522	0.378109	-0.670139
C46	C	1.110624	0.327905	-0.711147
C47	C	1.110633	0.327879	-0.793127
C48	C	1.063543	0.378061	-0.834099
C49	C	1.016437	0.428267	-0.793085
C50	C	1.016425	0.428289	-0.711106
C51	C	1.016467	0.428220	-0.963956
C52	C	1.016479	0.428200	-1.045940
C53	C	1.110674	0.327810	-1.045976
C54	C	1.110662	0.327832	-0.963997
C55	C	1.063557	0.378039	-0.922990
C56	C	1.063457	0.378192	-0.174197
C57	C	1.063581	0.377996	-0.086948
H58	H	0.494044	0.469170	-0.286915
O59	O	0.639410	0.477111	-0.278975
C60	C	0.631235	0.576542	-0.179178
C61	C	0.589034	0.521362	-0.234507
H62	H	0.590525	0.612322	-0.143199
H63	H	0.667197	0.617678	-0.215104
H64	H	0.667236	0.540432	-0.138229
H65	H	0.552994	0.557410	-0.275467
H66	H	0.553119	0.480225	-0.198532
H67	H	1.148808	0.929716	-0.469318
O68	O	0.639697	0.279461	-0.477374
C69	C	0.726545	0.269013	-0.583335
C70	C	0.684228	0.324142	-0.527982
H71	H	0.762570	0.305114	-0.624255
H72	H	0.685935	0.233195	-0.619337
H73	H	0.762498	0.227904	-0.547348
H74	H	0.648274	0.365299	-0.563908
H75	H	0.724878	0.359905	-0.491978
O76	O	0.488263	0.279343	-0.477373
C77	C	0.496450	0.179849	-0.577106
C78	C	0.538645	0.235003	-0.521746
H79	H	0.537165	0.143973	-0.612984
H80	H	0.460487	0.215905	-0.618142
H81	H	0.460452	0.138795	-0.541131
H82	H	0.574683	0.276068	-0.557658
H83	H	0.574562	0.198897	-0.480709
H84	H	1.148848	1.078437	-0.469355
O85	O	0.970854	1.085303	-0.279162
C86	C	0.929171	1.211666	-0.234678
C87	C	0.980875	1.166449	-0.289943
H88	H	0.937244	1.277280	-0.243388
H89	H	0.942122	1.195637	-0.171374
H90	H	0.869825	1.195548	-0.248398
H91	H	1.040238	1.182543	-0.276294
H92	H	0.967860	1.182481	-0.353231
O93	O	0.970588	0.476932	-0.832847
C94	C	0.845388	0.515047	-0.857863
C95	C	0.897226	0.459870	-0.812803
H96	H	0.786065	0.501283	-0.841662
H97	H	0.853423	0.506409	-0.923510
H98	H	0.858309	0.578343	-0.841736
H99	H	0.884337	0.396553	-0.828865
H100	H	0.889181	0.468575	-0.747167
H101	H	0.978097	0.469092	-0.930570
H102	H	0.978041	0.677147	-0.286967
H103	H	1.148972	0.287043	-0.677794
H104	H	0.978063	0.469162	-0.677719
O105	O	0.970630	0.832210	-0.279071
C106	C	0.877337	0.823715	-0.179372
C107	C	0.929104	0.778577	-0.234635
H108	H	0.843761	0.780372	-0.143419
H109	H	0.838804	0.862084	-0.215348
H110	H	0.911168	0.862115	-0.138395
H111	H	0.895333	0.740134	-0.275622
H112	H	0.967640	0.740257	-0.198609
O113	O	1.156459	0.279089	-0.832840
C114	C	1.249861	0.179492	-0.824225
C115	C	1.198010	0.234722	-0.779153
H116	H	1.283458	0.143596	-0.780838
H117	H	1.288372	0.215491	-0.862581
H118	H	1.216095	0.138462	-0.862631
H119	H	1.231717	0.275764	-0.740705
H120	H	1.159497	0.198675	-0.740846
O121	O	1.156355	0.279052	-1.085928
C122	C	1.198135	0.234539	-1.212238
C123	C	1.146357	0.289781	-1.167086
H124	H	1.190081	0.243206	-1.277862
H125	H	1.185241	0.171232	-1.196184
H126	H	1.257460	0.248322	-1.196084
H127	H	1.087014	0.276069	-1.183215
H128	H	1.159314	0.353072	-1.183144
O129	O	0.970665	0.476967	-1.085620
C130	C	0.877259	0.576568	-1.076938
C131	C	0.929093	0.521365	-1.031904
H132	H	0.843645	0.612489	-1.033528
H133	H	0.838763	0.540545	-1.115303
H134	H	0.911038	0.617576	-1.115333
H135	H	0.895373	0.480346	-0.993467
H136	H	0.967591	0.557436	-0.993588
H137	H	1.148773	0.825591	-0.469310
H138	H	1.148725	0.676862	-0.469285
H139	H	0.978131	0.929993	-0.287002
H140	H	1.149010	0.286973	-0.930641
