data_functionalizedCrystal
_audit_creation_method	'MofGen! by Chris Wilmer'
_symmetry_space_group_name_H-M	'P1'
_symmetry_Int_Tables_number	1
_symmetry_cell_setting	triclinic
loop_
_symmetry_equiv_pos_as_xyz
  x,y,z
_cell_length_a	21.606444
_cell_length_b	18.760487
_cell_length_c	21.606444
_cell_angle_alpha	90.036891
_cell_angle_beta	59.991153
_cell_angle_gamma	60.023339
loop_
_atom_site_label
_atom_site_type_symbol
_atom_site_fract_x
_atom_site_fract_y
_atom_site_fract_z
Zr1	Zr	0.677512	0.686683	-0.080969
O2	O	0.806647	0.572861	-0.179879
O3	O	0.548381	0.721574	-0.050633
O4	O	0.677517	0.721568	-0.179777
O5	O	0.677507	0.572874	0.051120
O6	O	0.677517	0.838871	-0.179715
O7	O	0.677511	0.572868	-0.050734
O8	O	0.446516	0.838883	0.051301
O9	O	0.908507	0.572862	-0.179896
O10	O	0.601493	0.823998	-0.037667
O11	O	0.601490	0.736460	0.038299
O12	O	0.753531	0.736453	-0.113751
O13	O	0.753528	0.648915	-0.037786
Zr14	Zr	0.677505	0.873777	0.081576
Zr15	Zr	0.677512	0.873767	-0.080869
Zr16	Zr	0.677505	0.686692	0.081476
Zr17	Zr	0.839968	0.686684	-0.080996
Zr18	Zr	0.515050	0.873776	0.081603
O19	O	0.806637	0.838885	0.051240
O20	O	0.806647	0.838871	-0.179736
O21	O	0.806637	0.572875	0.051098
O22	O	0.548371	0.987598	0.180485
O23	O	0.548381	0.987585	-0.050491
O24	O	0.548371	0.721588	0.180343
O25	O	0.677511	0.987585	-0.050513
O26	O	0.677501	0.838892	0.180384
O27	O	0.677501	0.721589	0.180322
O28	O	0.677506	0.987591	0.051341
O29	O	0.908507	0.721569	-0.179816
O30	O	0.446511	0.838890	0.180423
O31	O	0.446511	0.987597	0.180502
O32	O	0.446516	0.987590	0.051380
O33	O	0.908502	0.572869	-0.050773
O34	O	0.908502	0.721577	-0.050694
O35	O	0.601487	0.824007	0.114358
O36	O	0.601490	0.911544	0.038393
O37	O	0.753528	0.823999	-0.037692
O38	O	0.753524	0.736461	0.038274
C39	C	0.474302	0.780228	0.000337
C40	C	0.405336	0.780228	0.000349
C41	C	0.429073	0.715599	-0.055814
C42	C	0.364284	0.715601	-0.055829
C43	C	0.275758	0.780230	0.000321
C44	C	0.252021	0.844865	0.056487
C45	C	0.316809	0.844865	0.056499
C46	C	-0.009266	0.844864	0.056439
C47	C	-0.074055	0.844857	0.056424
C48	C	0.038209	0.715600	-0.055889
C49	C	0.102997	0.715601	-0.055877
C50	C	0.079255	0.780238	0.000286
C51	C	0.149507	0.780236	0.000302
C52	C	0.205506	0.780229	0.000310
C53	C	0.677509	0.546215	0.000178
C54	C	0.677509	0.466793	0.000136
C55	C	0.756874	0.085278	-0.039280
C56	C	0.598144	0.176682	0.040154
C57	C	0.598143	0.251304	0.040089
C58	C	0.677508	0.242916	0.000338
C59	C	0.756875	0.159906	-0.039348
C60	C	0.518777	0.334318	0.079767
C61	C	0.518773	0.408947	0.079703
C62	C	0.598139	0.400560	0.039956
C63	C	0.677509	0.317543	0.000269
C64	C	0.756875	0.309155	-0.039482
C65	C	0.836246	0.226140	-0.079164
C66	C	0.836242	0.151519	-0.079095
C67	C	0.598144	0.475181	0.039887
C68	C	0.756876	0.383783	-0.039550
C69	C	0.880716	0.780231	0.000269
C70	C	0.949682	0.780231	0.000258
C71	C	0.677518	0.780218	-0.202891
C72	C	0.677521	0.780214	-0.271854
C73	C	0.677509	1.014244	0.000428
C74	C	0.677509	1.093666	0.000471
C75	C	0.756882	0.734516	-0.343968
C76	C	0.756880	0.734523	-0.408763
C77	C	0.677515	0.780224	-0.401442
C78	C	0.598147	0.825928	-0.329320
C79	C	0.598151	0.825925	-0.264527
C80	C	0.598132	0.825942	-0.590623
C81	C	0.598135	0.825939	-0.655424
C82	C	0.756861	0.734540	-0.734859
C83	C	0.756864	0.734537	-0.670066
C84	C	0.677497	0.780244	-0.597950
C85	C	0.677501	0.780237	-0.527692
C86	C	0.677510	0.780227	-0.471698
C87	C	0.677500	0.780241	0.203498
C88	C	0.677497	0.780246	0.272460
C89	C	0.474302	1.014243	0.000462
C90	C	0.405335	1.093665	0.000516
C91	C	0.474293	0.780240	0.203532
C92	C	0.405324	0.780244	0.272506
C93	C	0.474293	1.014255	0.203657
C94	C	0.405324	1.093680	0.272673
C95	C	0.880725	0.546205	-0.203050
C96	C	0.949694	0.466779	-0.272067
C97	C	0.880716	0.546217	0.000144
C98	C	0.949682	0.466795	0.000090
C99	C	0.880724	0.780219	-0.202925
C100	C	0.949694	0.780215	-0.271899
C101	C	0.372950	1.085264	-0.039167
C102	C	0.308157	1.159882	-0.039132
C103	C	0.275747	1.242900	0.000592
C104	C	0.308139	1.251299	0.040277
C105	C	0.372935	1.176682	0.040237
C106	C	0.372934	0.825944	0.344606
C107	C	0.308138	0.825944	0.409420
C108	C	0.275731	0.780248	0.402133
C109	C	0.308128	0.734543	0.330026
C110	C	0.372926	0.734538	0.265213
C111	C	0.372936	1.176681	0.265431
C112	C	0.308141	1.251317	0.330273
C113	C	0.275730	1.242951	0.402357
C114	C	0.308124	1.159942	0.409598
C115	C	0.372922	1.085307	0.344757
C116	C	0.982089	0.383778	-0.264824
C117	C	1.046904	0.309142	-0.329666
C118	C	1.079319	0.317508	-0.401750
C119	C	1.046921	0.400518	-0.408991
C120	C	0.982112	0.475152	-0.344150
C121	C	0.982075	0.475196	0.039767
C122	C	1.046885	0.400577	0.039714
C123	C	1.079298	0.317559	-0.000012
C124	C	1.046902	0.309160	-0.039694
C125	C	0.982098	0.383777	-0.039645
C126	C	0.982081	0.825920	-0.264588
C127	C	1.046876	0.825933	-0.329390
C128	C	1.079288	0.780237	-0.401503
C129	C	1.046894	0.734532	-0.408812
C130	C	0.982096	0.734524	-0.344011
H131	H	-0.028608	0.897497	0.102171
O132	O	1.081820	0.219620	-0.321841
H133	H	1.111315	0.212042	-0.290365
H134	H	0.179937	0.897490	0.102203
H135	H	0.399313	0.863155	0.350554
O136	O	0.389883	0.645893	-0.116403
H137	H	0.462325	0.600947	-0.155439
H138	H	0.399337	1.017673	-0.071525
H139	H	0.955726	0.376925	-0.071952
H140	H	0.281768	0.863166	0.468127
H141	H	1.132091	0.256729	-0.454542
H142	H	1.073245	0.863151	-0.323423
O143	O	0.205826	0.780278	0.472046
H144	H	0.230694	0.751700	0.506247
H145	H	0.399316	1.183510	0.206742
H146	H	0.399283	1.017727	0.350664
O147	O	1.149189	0.780236	-0.471394
H148	H	1.166269	0.819687	-0.454187
O149	O	0.947138	0.374735	-0.187083
H150	H	0.896621	0.440572	-0.143203
H151	H	0.281773	1.318900	0.324364
H152	H	0.281742	1.318903	0.072619
H153	H	0.821496	0.017685	-0.071586
O154	O	1.081864	0.685236	-0.486593
H155	H	1.132372	0.692916	-0.530418
H156	H	1.073322	0.407319	-0.467689
O157	O	0.512550	0.564715	0.082677
H158	H	0.474488	0.572397	0.143693
O159	O	0.273230	1.150805	-0.081936
H160	H	0.222737	1.216633	-0.075249
H161	H	0.955733	0.697302	-0.349975
O162	O	0.063821	0.645884	-0.116473
H163	H	0.103195	0.649054	-0.173048
H164	H	0.281725	1.153142	0.468297
H165	H	0.222967	1.303730	0.455149
H166	H	0.281732	0.697339	0.324104
O167	O	0.198480	0.645903	-0.116445
H168	H	0.204102	0.600969	-0.155509
H169	H	0.955736	0.542733	-0.350056
H170	H	0.454162	0.341140	0.112130
H171	H	0.501153	0.662962	-0.101531
H172	H	0.900865	0.219320	-0.111534
H173	H	-0.146140	0.897489	0.102151
H174	H	0.955702	0.863131	-0.205876
O175	O	1.149192	0.237086	-0.000057
H176	H	1.166298	0.177941	-0.034350
O177	O	0.842476	0.685232	-0.486545
H178	H	0.897663	0.653443	-0.480750
O179	O	0.407775	0.685266	0.187476
H180	H	0.479257	0.634715	0.155958
O181	O	0.291213	0.914568	0.117077
H182	H	0.218771	0.959504	0.156125
O183	O	0.205858	1.323380	0.000637
H184	H	0.146814	1.323324	0.025477
H185	H	0.821506	0.376942	-0.071912
H186	H	0.955690	0.542787	0.072122
H187	H	1.073302	0.241557	-0.072038
O188	O	0.921844	0.061986	-0.121909
H189	H	0.908508	0.011507	-0.115193
H190	H	0.533528	0.183505	0.072514
O191	O	1.081808	0.409645	0.082526
H192	H	1.048365	0.479911	0.110170
O193	O	0.433172	0.498481	0.122505
H194	H	0.377985	0.491775	0.150160
O195	O	0.842483	0.685223	-0.351864
H196	H	0.897667	0.653454	-0.412898
H197	H	0.821491	0.697319	-0.676034
H198	H	0.821486	0.697325	-0.793585
O199	O	0.512531	0.875262	-0.647530
H200	H	0.457342	0.907061	-0.586498
O201	O	0.512534	0.875227	-0.512846
H202	H	0.457349	0.906994	-0.518644
O203	O	0.407847	1.185755	0.083054
H204	H	0.458351	1.119928	0.076358
O205	O	0.512540	0.875228	-0.321412
H206	H	0.508731	0.829097	-0.349049
O207	O	0.512555	0.875208	-0.186742
H208	H	0.457366	0.906980	-0.192535
