data_functionalizedCrystal
_audit_creation_method	'MofGen! by Chris Wilmer'
_symmetry_space_group_name_H-M	'P1'
_symmetry_Int_Tables_number	1
_symmetry_cell_setting	triclinic
loop_
_symmetry_equiv_pos_as_xyz
  x,y,z
_cell_length_a	21.295411
_cell_length_b	11.169417
_cell_length_c	11.169416
_cell_angle_alpha	89.988781
_cell_angle_beta	89.988881
_cell_angle_gamma	90.021194
loop_
_atom_site_label
_atom_site_type_symbol
_atom_site_fract_x
_atom_site_fract_y
_atom_site_fract_z
Zn1	Zn	-0.355901	-1.834978	-0.477916
Zn2	Zn	-0.250646	-1.834863	-0.678587
Zn3	Zn	-0.250652	-1.634260	-0.477920
Zn4	Zn	-0.355884	-1.634272	-0.678559
O5	O	-0.303271	-1.734593	-0.578245
O6	O	-0.341943	-2.002913	-0.504546
O7	O	-0.162557	-1.808199	-0.651982
O8	O	-0.264624	-1.660929	-0.309970
O9	O	-0.264613	-2.002828	-0.651978
O10	O	-0.341949	-1.808396	-0.309967
O11	O	-0.162562	-1.660817	-0.504552
O12	O	-0.264607	-1.466312	-0.504525
O13	O	-0.443975	-1.660949	-0.651929
O14	O	-0.341920	-1.466321	-0.651933
O15	O	-0.443988	-1.808408	-0.504518
O16	O	-0.264596	-1.808211	-0.846533
O17	O	-0.341914	-1.660838	-0.846512
C18	C	-0.303263	-1.422769	-0.578227
C19	C	-0.303274	-1.289369	-0.578248
C20	C	-0.303266	-1.734546	-0.890070
C21	C	-0.303285	-1.734635	-1.023470
C22	C	-0.467461	-1.734693	-0.578220
C23	C	-0.537429	-1.734735	-0.578209
C24	C	-0.570303	-1.811514	-0.501449
C25	C	-0.636046	-1.811512	-0.501397
C26	C	-0.668912	-1.734745	-0.578127
C27	C	-0.636029	-1.657951	-0.654892
C28	C	-0.570288	-1.657947	-0.654934
N29	N	-0.772137	-1.725522	-0.683118
N30	N	-0.834589	-1.725533	-0.683075
C31	C	-0.866986	-1.734752	-0.578005
N32	N	-0.834573	-1.743983	-0.472976
N33	N	-0.772116	-1.743977	-0.473020
C34	C	-0.740197	-1.734741	-0.578090
C35	C	-0.971146	-1.811533	-0.501181
C36	C	-1.036890	-1.811523	-0.501127
C37	C	-1.036872	-1.657968	-0.654634
C38	C	-0.971130	-1.657972	-0.654677
C39	C	-0.938271	-1.734761	-0.577953
C40	C	-0.139719	-1.734563	-0.578184
C41	C	-0.069751	-1.734753	-0.577857
C42	C	-0.303279	-2.047636	-0.578264
C43	C	-0.303283	-2.181036	-0.578273
C44	C	-0.303289	-1.734674	-0.265203
C45	C	-0.303297	-1.734708	-0.131803
H46	H	-0.662817	-1.874031	-0.438882
H47	H	-0.662793	-1.595443	-0.717363
H48	H	-0.944391	-1.874052	-0.438701
H49	H	-0.944363	-1.595458	-0.717191
H50	H	-0.543554	-1.874039	-0.438972
H51	H	-0.543522	-1.595419	-0.717440
C52	C	-1.072471	-1.895018	-0.417735
C53	C	-1.029620	-1.962283	-0.350581
C54	C	-1.062376	-2.039224	-0.273759
H55	H	-1.098106	-1.849261	-0.365310
H56	H	-1.098118	-1.947359	-0.463611
H57	H	-1.003985	-1.909949	-0.304709
H58	H	-1.003985	-2.008065	-0.402974
H59	H	-1.088022	-2.091565	-0.319635
H60	H	-1.088009	-1.993457	-0.221342
H61	H	-1.033306	-2.084880	-0.228194
C62	C	-1.072660	-1.574761	-0.737908
C63	C	-1.137271	-1.591219	-0.721469
C64	C	-1.170261	-1.514600	-0.798176
H65	H	-1.061949	-1.494072	-0.720434
H66	H	-1.061929	-1.592328	-0.818578
H67	H	-1.147998	-1.573643	-0.640818
H68	H	-1.148001	-1.671892	-0.738952
H69	H	-1.159530	-1.532168	-0.878845
H70	H	-1.159545	-1.433917	-0.780695
H71	H	-1.214103	-1.525765	-0.787040
