data_functionalizedCrystal
_audit_creation_method	'MofGen! by Chris Wilmer'
_symmetry_space_group_name_H-M	'P1'
_symmetry_Int_Tables_number	1
_symmetry_cell_setting	triclinic
loop_
_symmetry_equiv_pos_as_xyz
  x,y,z
_cell_length_a	16.120484
_cell_length_b	13.897449
_cell_length_c	13.897441
_cell_angle_alpha	90.020722
_cell_angle_beta	92.866498
_cell_angle_gamma	87.074557
loop_
_atom_site_label
_atom_site_type_symbol
_atom_site_fract_x
_atom_site_fract_y
_atom_site_fract_z
Zn1	Zn	-0.331892	-1.455159	-0.564880
Zn2	Zn	-0.471321	-1.446857	-0.411750
Zn3	Zn	-0.331926	-1.293852	-0.403594
Zn4	Zn	-0.471265	-1.285631	-0.572993
O5	O	-0.401601	-1.370375	-0.488304
O6	O	-0.350397	-1.589038	-0.544585
O7	O	-0.452867	-1.426526	-0.275688
O8	O	-0.215256	-1.322164	-0.418181
O9	O	-0.452835	-1.582939	-0.432081
O10	O	-0.215231	-1.440676	-0.536676
O11	O	-0.350454	-1.314114	-0.269697
O12	O	-0.350400	-1.157780	-0.426048
O13	O	-0.452739	-1.308153	-0.706896
O14	O	-0.452772	-1.151740	-0.550504
O15	O	-0.350342	-1.432704	-0.700936
O16	O	-0.587979	-1.418555	-0.439948
O17	O	-0.587938	-1.300103	-0.558412
C18	C	-0.401584	-1.119761	-0.488272
C19	C	-0.401597	-1.012547	-0.488282
C20	C	-0.401596	-0.816251	-0.488300
C21	C	-0.401594	-0.925484	-0.488287
C22	C	-0.618209	-1.357562	-0.500966
C23	C	-0.710874	-1.352169	-0.506416
C24	C	-0.880536	-1.342329	-0.516384
C25	C	-0.921826	-1.398593	-0.460240
C26	C	-1.016231	-1.393118	-0.465787
C27	C	-0.786122	-1.347803	-0.510839
C28	C	-0.184147	-1.383263	-0.475614
C29	C	-0.091482	-1.388756	-0.470206
C30	C	-0.401531	-1.370438	-0.739893
C31	C	-0.401501	-1.370465	-0.847106
C32	C	-0.401613	-0.621967	-0.488328
C33	C	-0.401604	-0.729181	-0.488313
C34	C	-0.401477	-1.370486	-0.934174
C35	C	-0.401440	-1.370516	-1.043404
C36	C	-0.401610	-1.370371	-0.237690
C37	C	-0.401405	-1.370544	-0.130465
H38	H	-0.886274	-1.450874	-0.408008
H39	H	-0.916085	-1.290051	-0.568611
