data_functionalizedCrystal
_audit_creation_method	'MofGen! by Chris Wilmer'
_symmetry_space_group_name_H-M	'P1'
_symmetry_Int_Tables_number	1
_symmetry_cell_setting	triclinic
loop_
_symmetry_equiv_pos_as_xyz
  x,y,z
_cell_length_a	14.519709
_cell_length_b	14.044220
_cell_length_c	12.503572
_cell_angle_alpha	86.156832
_cell_angle_beta	86.481314
_cell_angle_gamma	91.565489
loop_
_atom_site_label
_atom_site_type_symbol
_atom_site_fract_x
_atom_site_fract_y
_atom_site_fract_z
O1	O	-1.238751	0.118805	0.089169
O2	O	-0.905417	0.452138	0.422502
O3	O	-0.572084	0.785472	0.755835
O4	O	-0.971456	0.133437	0.089205
O5	O	-0.638123	0.466771	0.422538
O6	O	-0.304789	0.800104	0.755871
O7	O	-1.101091	-0.011870	0.089177
O8	O	-0.767757	0.321464	0.422510
O9	O	-0.434424	0.654797	0.755843
O10	O	-1.109116	0.264112	0.089197
O11	O	-0.775783	0.597445	0.422530
O12	O	-0.442449	0.930779	0.755863
O13	O	-1.091343	-0.000924	-0.089463
O14	O	-0.758009	0.332410	0.243870
O15	O	-0.424676	0.665743	0.577203
O16	O	-0.961708	0.144383	-0.089435
O17	O	-0.628375	0.477717	0.243898
O18	O	-0.295042	0.811050	0.577232
O19	O	-1.229003	0.129751	-0.089471
O20	O	-0.895669	0.463084	0.243862
O21	O	-0.562336	0.796418	0.577196
Cu22	Cu	-1.094465	0.138067	-0.105764
Cu23	Cu	-0.761132	0.471400	0.227569
Cu24	Cu	-0.427799	0.804733	0.560902
Cu25	Cu	-1.105993	0.125122	0.105498
Cu26	Cu	-0.772660	0.458455	0.438831
Cu27	Cu	-0.439327	0.791788	0.772165
O28	O	-1.099368	0.275058	-0.089443
O29	O	-0.766035	0.608391	0.243890
O30	O	-0.432701	0.941725	0.577224
C31	C	-0.932168	0.138228	-0.000111
C32	C	-0.598834	0.471561	0.333223
C33	C	-0.265501	0.804895	0.666556
C34	C	-0.829622	0.136183	-0.000097
C35	C	-0.496289	0.469517	0.333236
C36	C	-0.162956	0.802850	0.666569
C37	C	-1.092704	-0.041717	-0.000143
C38	C	-0.759371	0.291616	0.333190
C39	C	-0.426038	0.624950	0.666523
C40	C	-1.082227	-0.146961	-0.000143
C41	C	-0.748894	0.186373	0.333190
C42	C	-0.415560	0.519706	0.666524
C43	C	-0.454117	0.128662	-0.000143
C44	C	-0.120784	0.461995	0.333191
C45	C	0.212550	0.795329	0.666524
C46	C	-0.558594	0.130751	-0.000130
C47	C	-0.225261	0.464084	0.333204
C48	C	0.108072	0.797417	0.666537
C49	C	-0.641866	0.132422	-0.000119
C50	C	-0.308533	0.465756	0.333214
C51	C	0.024800	0.799089	0.666548
C52	C	-0.746350	0.134512	-0.000108
C53	C	-0.413017	0.467845	0.333225
C54	C	-0.079683	0.801178	0.666559
C55	C	-1.063074	-0.339655	-0.000125
C56	C	-0.729740	-0.006322	0.333208
C57	C	-0.396407	0.327011	0.666542
C58	C	-1.137381	-0.397162	-0.000132
C59	C	-0.804048	-0.063829	0.333202
C60	C	-0.470715	0.269504	0.666535
C61	C	-1.126724	-0.504384	-0.000122
C62	C	-0.793391	-0.171051	0.333212
C63	C	-0.460058	0.162282	0.666545
C64	C	-1.073730	-0.232423	-0.000135
C65	C	-0.740396	0.100910	0.333198
C66	C	-0.407063	0.434243	0.666532
C67	C	-0.268291	0.124960	-0.000151
C68	C	0.065042	0.458293	0.333183
C69	C	0.398375	0.791627	0.666516
C70	C	-0.370838	0.127004	-0.000149
C71	C	-0.037504	0.460337	0.333184
C72	C	0.295829	0.793670	0.666518
C73	C	-1.107755	0.304905	-0.000121
C74	C	-0.774421	0.638239	0.333213
C75	C	-0.441088	0.971572	0.666546
C76	C	-1.118232	0.410148	-0.000114
C77	C	-0.784899	0.743482	0.333220
C78	C	-0.451565	1.076815	0.666553
N79	N	-1.086364	0.147171	-0.254355
N80	N	-0.753031	0.480504	0.078978
N81	N	-0.419697	0.813838	0.412312
C82	C	-1.074447	0.160572	-0.473467
C83	C	-0.741114	0.493905	-0.140134
C84	C	-0.407780	0.827238	0.193199
C85	C	-1.126016	0.102612	-0.526806
C86	C	-0.792682	0.435946	-0.193472
C87	C	-0.459349	0.769279	0.139861
C88	C	-1.119385	0.110069	-0.648728
C89	C	-0.786052	0.443402	-0.315394
C90	C	-0.452718	0.776735	0.017939
C91	C	-1.081077	0.153116	-0.351535
C92	C	-0.747743	0.486450	-0.018201
C93	C	-0.414410	0.819783	0.315132
N94	N	-1.114101	0.116010	0.254088
N95	N	-0.780768	0.449343	0.587422
N96	N	-0.447435	0.782677	0.920755
H97	H	-1.209006	-0.365874	-0.000069
H98	H	-0.875673	-0.032540	0.333264
H99	H	-0.542340	0.300793	0.666597
H100	H	-0.991459	-0.370947	-0.000113
H101	H	-0.658125	-0.037614	0.333220
H102	H	-0.324792	0.295720	0.666554
C103	C	-0.943870	0.188710	-0.600102
C104	C	-0.610537	0.522043	-0.266769
C105	C	-0.277203	0.855377	0.066564
C106	C	-1.008135	0.235118	-0.535429
C107	C	-0.674802	0.568452	-0.202096
C108	C	-0.341468	0.901785	0.131237
H109	H	-0.902939	0.234735	-0.638369
H110	H	-0.569606	0.568068	-0.305036
H111	H	-0.236272	0.901402	0.028298
H112	H	-0.909723	0.146613	-0.556233
H113	H	-0.576390	0.479947	-0.222900
H114	H	-0.243056	0.813280	0.110434
H115	H	-0.975366	0.153320	-0.649578
H116	H	-0.642033	0.486653	-0.316245
H117	H	-0.308700	0.819987	0.017088
H118	H	-0.976639	0.270503	-0.485948
H119	H	-0.643305	0.603836	-0.152615
H120	H	-0.309972	0.937170	0.180719
H121	H	-1.042286	0.277232	-0.579302
H122	H	-0.708952	0.610565	-0.245969
H123	H	-0.375619	0.943898	0.087364
C124	C	-1.282872	0.044811	-0.491652
C125	C	-0.949538	0.378144	-0.158319
C126	C	-0.616205	0.711478	0.175014
C127	C	-1.192253	0.028060	-0.464717
C128	C	-0.858920	0.361394	-0.131384
C129	C	-0.525586	0.694727	0.201949
H130	H	-1.323734	-0.001218	-0.453283
H131	H	-0.990400	0.332116	-0.119949
H132	H	-0.657067	0.665449	0.213384
H133	H	-1.299195	0.106966	-0.473321
H134	H	-0.965862	0.440299	-0.139987
H135	H	-0.632528	0.773633	0.193346
H136	H	-1.287144	0.040029	-0.566622
H137	H	-0.953811	0.373362	-0.233288
H138	H	-0.620478	0.706695	0.100045
H139	H	-1.187979	0.032850	-0.389749
H140	H	-0.854645	0.366183	-0.056416
H141	H	-0.521312	0.699516	0.276918
H142	H	-1.175925	-0.034110	-0.483042
H143	H	-0.842592	0.299223	-0.149709
H144	H	-0.509258	0.632556	0.183625
