data_functionalizedCrystal
_audit_creation_method	'MofGen! by Chris Wilmer'
_symmetry_space_group_name_H-M	'P1'
_symmetry_Int_Tables_number	1
_symmetry_cell_setting	triclinic
loop_
_symmetry_equiv_pos_as_xyz
  x,y,z
_cell_length_a	12.759401
_cell_length_b	13.897448
_cell_length_c	13.897433
_cell_angle_alpha	89.928482
_cell_angle_beta	89.952141
_cell_angle_gamma	90.019217
loop_
_atom_site_label
_atom_site_type_symbol
_atom_site_fract_x
_atom_site_fract_y
_atom_site_fract_z
Zn1	Zn	1.606524	-0.383555	-0.545365
Zn2	Zn	1.606323	-0.544992	-0.384066
Zn3	Zn	1.430740	-0.383717	-0.384085
Zn4	Zn	1.430805	-0.544814	-0.545321
O5	O	1.518598	-0.464270	-0.464710
O6	O	1.753518	-0.404977	-0.523979
O7	O	1.582920	-0.523741	-0.249087
O8	O	1.454115	-0.248714	-0.405506
O9	O	1.753371	-0.523584	-0.405474
O10	O	1.583262	-0.248595	-0.523998
O11	O	1.453920	-0.405253	-0.249101
O12	O	1.283728	-0.405080	-0.405463
O13	O	1.454226	-0.523281	-0.680309
O14	O	1.283775	-0.523438	-0.523922
O15	O	1.583326	-0.404805	-0.680341
O16	O	1.582984	-0.679950	-0.405431
O17	O	1.454031	-0.679820	-0.523904
C18	C	1.245631	-0.464258	-0.464690
C19	C	1.128854	-0.464276	-0.464705
C20	C	1.074044	-0.525999	-0.526290
C21	C	0.964320	-0.526002	-0.526309
C22	C	0.964225	-0.402558	-0.403150
C23	C	1.073947	-0.402550	-0.403137
C24	C	1.518521	-0.714884	-0.464682
C25	C	1.518585	-0.822098	-0.464702
C26	C	1.518695	-1.018393	-0.464762
C27	C	1.518631	-0.909161	-0.464732
C28	C	1.792631	-0.464282	-0.464729
C29	C	1.909408	-0.464288	-0.464738
C30	C	1.518805	-0.464005	-0.716303
C31	C	1.518894	-0.463892	-0.823517
C32	C	1.518704	-0.212677	-0.464759
C33	C	1.518749	-0.105463	-0.464780
C34	C	1.518452	-0.464464	-0.214095
C35	C	1.518567	-0.464305	-0.106881
C36	C	1.518801	-0.464022	0.089413
C37	C	1.518674	-0.464182	-0.019819
H38	H	0.919699	-0.576262	-0.576459
N39	N	1.133081	-0.335981	-0.336710
H40	H	1.178656	-0.291302	-0.375991
H41	H	1.081591	-0.296946	-0.297713
N42	N	0.905004	-0.336011	-0.336722
H43	H	0.827178	-0.345390	-0.346064
H44	H	0.924123	-0.351011	-0.267812
H45	H	1.118746	-0.576258	-0.576425
