data_functionalizedCrystal
_audit_creation_method	'MofGen! by Chris Wilmer'
_symmetry_space_group_name_H-M	'P1'
_symmetry_Int_Tables_number	1
_symmetry_cell_setting	triclinic
loop_
_symmetry_equiv_pos_as_xyz
  x,y,z
_cell_length_a	19.077105
_cell_length_b	14.908520
_cell_length_c	19.076919
_cell_angle_alpha	84.570994
_cell_angle_beta	89.923776
_cell_angle_gamma	91.150228
loop_
_atom_site_label
_atom_site_type_symbol
_atom_site_fract_x
_atom_site_fract_y
_atom_site_fract_z
Zn1	Zn	1.037881	-0.436364	0.459234
Zn2	Zn	1.537881	0.063636	0.959234
Zn3	Zn	1.035744	-0.581390	0.347980
Zn4	Zn	1.535744	-0.081390	0.847980
Zn5	Zn	0.925663	-0.424281	0.336506
Zn6	Zn	1.425663	0.075719	0.836506
Zn7	Zn	0.913591	-0.580846	0.460710
Zn8	Zn	1.413591	-0.080846	0.960710
O9	O	0.978220	-0.505720	0.401107
O10	O	1.478220	-0.005720	0.901107
O11	O	1.135682	-0.460886	0.448660
O12	O	1.635682	0.039114	0.948660
O13	O	1.025299	-0.555720	0.247919
O14	O	1.525299	-0.055720	0.747919
O15	O	0.946495	-0.299666	0.347366
O16	O	1.446495	0.200334	0.847366
O17	O	1.134112	-0.567437	0.366923
O18	O	1.634112	-0.067437	0.866923
O19	O	1.028941	-0.308543	0.437534
O20	O	1.528941	0.191457	0.937534
O21	O	0.944423	-0.440292	0.239489
O22	O	1.444423	0.059708	0.739489
O23	O	0.825977	-0.439765	0.348797
O24	O	1.325977	0.060235	0.848797
O25	O	0.925920	-0.566510	0.559053
O26	O	1.425920	-0.066510	1.059053
O27	O	0.817107	-0.554793	0.440049
O28	O	1.317107	-0.054793	0.940049
O29	O	1.017235	-0.460359	0.557969
O30	O	1.517235	0.039641	1.057969
O31	O	1.013594	-0.707536	0.368354
O32	O	1.513594	-0.207536	0.868354
O33	O	0.923848	-0.707136	0.451175
O34	O	1.423848	-0.207136	0.951175
C35	C	0.796110	-0.495910	0.393339
C36	C	1.296110	0.004090	0.893339
C37	C	0.718201	-0.491735	0.390033
C38	C	1.218201	0.008265	0.890033
C39	C	0.676998	-0.549746	0.435923
C40	C	1.176998	-0.049746	0.935923
C41	C	0.603795	-0.545812	0.432820
C42	C	1.103795	-0.045812	0.932820
C43	C	0.571795	-0.483870	0.383823
C44	C	1.071795	0.016130	0.883823
C45	C	0.613003	-0.425853	0.337931
C46	C	1.113003	0.074147	0.837931
C47	C	0.686205	-0.429783	0.341038
C48	C	1.186205	0.070217	0.841038
C49	C	0.353358	-0.465680	0.369446
C50	C	0.853358	0.034320	0.869446
C51	C	0.280150	-0.461756	0.366341
C52	C	0.780150	0.038244	0.866341
C53	C	0.270947	-0.581715	0.461231
C54	C	0.770947	-0.081715	0.961231
C55	C	0.344151	-0.585643	0.464331
C56	C	0.844151	-0.085643	0.964331
C57	C	0.385353	-0.527623	0.418441
C58	C	0.885353	-0.027623	0.918441
N59	N	0.496969	-0.479850	0.380648
N60	N	0.996969	0.020150	0.880648
N61	N	0.460177	-0.531640	0.421620
N62	N	0.960177	-0.031640	0.921620
C63	C	0.967198	-0.740065	0.411186
C64	C	1.467198	-0.240065	0.911186
C65	C	0.962545	-0.840323	0.415524
C66	C	1.462545	-0.340323	0.915524
C67	C	1.047344	-1.029082	0.337510
C68	C	1.547344	-0.529082	0.837510
C69	C	1.042976	-1.123283	0.341584
C70	C	1.542976	-0.623283	0.841584
C71	C	0.949443	-1.122929	0.427749
C72	C	1.449443	-0.622929	0.927749
C73	C	0.953812	-1.028727	0.423675
C74	C	1.453812	-0.528727	0.923675
C75	C	1.002763	-0.981807	0.378553
C76	C	1.502763	-0.481807	0.878553
C77	C	1.007128	-0.887604	0.374476
C78	C	1.507128	-0.387604	0.874476
C79	C	0.913600	-0.887251	0.460644
C80	C	1.413600	-0.387251	0.960644
C81	C	0.909231	-0.981453	0.464718
C82	C	1.409231	-0.481453	0.964718
C83	C	1.161040	-0.515570	0.408907
C84	C	1.661040	-0.015570	0.908907
C85	C	1.238948	-0.519767	0.412230
C86	C	1.738948	-0.019767	0.912230
C87	C	0.970470	-0.514721	0.584776
C88	C	1.470470	-0.014721	1.084776
C89	C	0.967167	-0.518557	0.663044
C90	C	1.467167	-0.018557	1.163044
C91	C	0.989303	-0.270463	0.391006
C92	C	1.489303	0.229537	0.891006
C93	C	0.994026	-0.170210	0.386701
C94	C	1.494026	0.329790	0.886701
C95	C	0.985983	-0.496691	0.218153
C96	C	1.485983	0.003309	0.718153
C97	C	0.989433	-0.492609	0.139879
C98	C	1.489433	0.007391	0.639879
C99	C	1.013156	-0.465095	0.699251
C100	C	1.513156	0.034905	1.199251
C101	C	1.010044	-0.468695	0.772793
C102	C	1.510044	0.031305	1.272793
C103	C	0.960947	-0.525763	0.810125
C104	C	1.460947	-0.025763	1.310125
C105	C	0.914953	-0.579227	0.773913
C106	C	1.414953	-0.079227	1.273913
C107	C	0.918062	-0.575622	0.700373
C108	C	1.418062	-0.075622	1.200373
C109	C	0.946548	-0.542468	1.030127
C110	C	1.446548	-0.042468	1.530127
C111	C	0.943444	-0.546071	1.103672
C112	C	1.443444	-0.046071	1.603672
C113	C	1.038535	-0.435537	1.102547
C114	C	1.538535	0.064463	1.602547
C115	C	1.041642	-0.431941	1.029006
C116	C	1.541642	0.068059	1.529006
C117	C	0.995646	-0.485402	0.992799
C118	C	1.495646	0.014598	1.492799
N119	N	0.957767	-0.529446	0.885296
N120	N	1.457767	-0.029446	1.385296
N121	N	0.998824	-0.481713	0.917629
N122	N	1.498824	0.018287	1.417629
H123	H	0.254099	-0.411305	0.326445
H124	H	0.754099	0.088695	0.826445
H125	H	0.877297	-0.848750	0.494062
H126	H	1.377297	-0.348750	0.994062
O127	O	0.867197	-0.634684	0.810065
O128	O	1.367197	-0.134684	1.310065
C129	C	0.827284	-0.681115	0.762336
C130	C	1.327284	-0.181115	1.262336
H131	H	0.828811	-0.641468	0.708226
H132	H	1.328811	-0.141468	1.208226
H133	H	0.770708	-0.688806	0.781639
H134	H	1.270708	-0.188806	1.281639
H135	H	0.850056	-0.750616	0.758550
H136	H	1.350056	-0.250616	1.258550
O137	O	1.086391	-1.169098	0.301748
O138	O	1.586391	-0.669098	0.801748
C139	C	1.156649	-1.150502	0.319203
C140	C	1.656649	-0.650502	0.819203
H141	H	1.160089	-1.083501	0.343386
H142	H	1.660089	-0.583501	0.843386
H143	H	1.190424	-1.146448	0.269618
H144	H	1.690424	-0.646448	0.769618
H145	H	1.176247	-1.206520	0.358720
H146	H	1.676247	-0.706520	0.858720
H147	H	1.046985	-0.849402	0.337734
H148	H	1.546985	-0.349402	0.837734
O149	O	1.054696	-0.416628	0.807875
O150	O	1.554696	0.083372	1.307875
C151	C	1.044362	-0.325028	0.785394
C152	C	1.544362	0.174972	1.285394
H153	H	1.019759	-0.319098	0.730770
H154	H	1.519759	0.180902	1.230770
H155	H	1.096961	-0.287189	0.783296
H156	H	1.596961	0.212811	1.283296
H157	H	1.008012	-0.294727	0.823938
H158	H	1.508012	0.205273	1.323938
O159	O	1.094925	-0.983407	0.293773
O160	O	1.594925	-0.483407	0.793773
C161	C	1.141013	-0.933263	0.333471
C162	C	1.641013	-0.433263	0.833471
H163	H	1.114654	-0.920437	0.385149
H164	H	1.614654	-0.420437	0.885149
H165	H	1.154710	-0.866124	0.302332
H166	H	1.654710	-0.366124	0.802332
H167	H	1.190941	-0.972679	0.345031
H168	H	1.690941	-0.472679	0.845031
H169	H	0.903461	-0.592545	1.134066
H170	H	1.403461	-0.092545	1.634066
O171	O	0.873492	-0.627603	0.665123
O172	O	1.373492	-0.127603	1.165123
C173	C	0.912455	-0.685934	0.626804
C174	C	1.412455	-0.185934	1.126804
H175	H	0.967538	-0.656443	0.616698
H176	H	1.467538	-0.156443	1.116698
H177	H	0.885526	-0.693944	0.574387
H178	H	1.385526	-0.193944	1.074387
H179	H	0.915808	-0.754582	0.658341
H180	H	1.415808	-0.254582	1.158341
H181	H	0.570251	-0.593052	0.470187
H182	H	1.070251	-0.093052	0.970187
O183	O	0.707967	-0.609943	0.483583
O184	O	1.207967	-0.109943	0.983583
C185	C	0.655900	-0.660315	0.523409
C186	C	1.155900	-0.160315	1.023409
H187	H	0.605351	-0.620695	0.522089
H188	H	1.105351	-0.120695	1.022089
H189	H	0.674262	-0.673899	0.580195
H190	H	1.174262	-0.173899	1.080195
H191	H	0.645983	-0.727081	0.500150
H192	H	1.145983	-0.227081	1.000150
H193	H	1.081624	-0.385472	0.998614
H194	H	1.581624	0.114528	1.498614
H195	H	0.909594	-1.161148	0.464489
H196	H	1.409594	-0.661148	0.964489
O197	O	0.230955	-0.638191	0.505745
O198	O	0.730955	-0.138191	1.005745
C199	C	0.245281	-0.728259	0.494884
C200	C	0.745281	-0.228259	0.994884
H201	H	0.267551	-0.731033	0.439667
H202	H	0.767551	-0.231033	0.939667
H203	H	0.194794	-0.770543	0.500777
H204	H	0.694794	-0.270543	1.000777
H205	H	0.285081	-0.756034	0.535426
H206	H	0.785081	-0.256034	1.035426
H207	H	1.053138	-0.418626	0.668861
H208	H	1.553138	0.081374	1.168861
O209	O	0.393340	-0.409410	0.324770
O210	O	0.893340	0.090590	0.824770
C211	C	0.377466	-0.424564	0.254644
C212	C	0.877466	0.075436	0.754644
H213	H	0.354118	-0.495358	0.253240
H214	H	0.854118	0.004642	0.753240
H215	H	0.427433	-0.417592	0.221567
H216	H	0.927433	0.082408	0.721567
H217	H	0.338012	-0.372997	0.232419
H218	H	0.838012	0.127003	0.732419
O219	O	0.375199	-0.645720	0.512026
O220	O	0.875199	-0.145720	1.012026
C221	C	0.355268	-0.628643	0.580631
C222	C	0.855268	-0.128643	1.080631
H223	H	0.338381	-0.555691	0.580326
H224	H	0.838381	-0.055691	1.080326
H225	H	0.401578	-0.640774	0.617793
H226	H	0.901578	-0.140774	1.117793
H227	H	0.309730	-0.675652	0.599252
H228	H	0.809730	-0.175652	1.099252
H229	H	1.075982	-0.392011	1.132034
H230	H	1.575982	0.107989	1.632034
H231	H	0.586943	-0.375415	0.298039
H232	H	1.086943	0.124585	0.798039
O233	O	0.726127	-0.373398	0.296384
O234	O	1.226127	0.126602	0.796384
C235	C	0.682188	-0.317871	0.252481
C236	C	1.182188	0.182129	0.752481
H237	H	0.628374	-0.351885	0.249371
H238	H	1.128374	0.148115	0.749371
H239	H	0.706125	-0.306559	0.197491
H240	H	1.206125	0.193441	0.697491
H241	H	0.676536	-0.250268	0.275079
H242	H	1.176536	0.249732	0.775079
H243	H	0.909104	-0.586013	1.000657
H244	H	1.409104	-0.086013	1.500657
O245	O	0.861773	-1.027142	0.508588
O246	O	1.361773	-0.527142	1.008588
C247	C	0.897194	-1.085923	0.558172
C248	C	1.397194	-0.585923	1.058172
H249	H	0.950729	-1.101627	0.536262
H250	H	1.450729	-0.601627	1.036262
H251	H	0.865166	-1.151120	0.569229
H252	H	1.365166	-0.651120	1.069229
H253	H	0.904328	-1.052555	0.609118
H254	H	1.404328	-0.552555	1.109118
