data_functionalizedCrystal
_audit_creation_method	'MofGen! by Chris Wilmer'
_symmetry_space_group_name_H-M	'P1'
_symmetry_Int_Tables_number	1
_symmetry_cell_setting	triclinic
loop_
_symmetry_equiv_pos_as_xyz
  x,y,z
_cell_length_a	10.723023
_cell_length_b	11.026607
_cell_length_c	9.798715
_cell_angle_alpha	90.001395
_cell_angle_beta	90.002994
_cell_angle_gamma	96.526782
loop_
_atom_site_label
_atom_site_type_symbol
_atom_site_fract_x
_atom_site_fract_y
_atom_site_fract_z
O1	O	1.693991	0.170514	0.113473
O2	O	2.193991	0.670514	0.613473
O3	O	1.334362	0.186837	0.113478
O4	O	1.834362	0.686837	0.613478
O5	O	1.484371	0.001774	0.113471
O6	O	1.984371	0.501774	0.613471
O7	O	1.543982	0.355577	0.113480
O8	O	2.043982	0.855577	0.613480
O9	O	1.484357	0.001773	-0.113511
O10	O	1.984357	0.501773	0.386489
O11	O	1.334348	0.186836	-0.113504
O12	O	1.834348	0.686836	0.386496
O13	O	1.693978	0.170513	-0.113509
O14	O	2.193978	0.670513	0.386491
Zn15	Zn	1.514161	0.178674	-0.149545
Zn16	Zn	2.014161	0.678674	0.350455
Zn17	Zn	1.514179	0.178676	0.149514
Zn18	Zn	2.014179	0.678676	0.649514
O19	O	1.543969	0.355575	-0.113502
O20	O	2.043969	0.855575	0.386498
C21	C	1.287599	0.185649	-0.000012
C22	C	1.787599	0.685649	0.499988
C23	C	1.148278	0.182095	-0.000010
C24	C	1.648278	0.682095	0.499990
C25	C	1.086157	0.180510	-0.117593
C26	C	1.586157	0.680510	0.382407
C27	C	0.942161	0.176838	-0.117593
C28	C	1.442161	0.676838	0.382407
C29	C	1.473367	-0.043529	-0.000018
C30	C	1.973367	0.456471	0.499982
C31	C	1.440583	-0.178516	-0.000013
C32	C	1.940583	0.321484	0.499987
C33	C	1.531104	-0.251568	-0.000012
C34	C	2.031104	0.248432	0.499988
C35	C	1.497223	-0.391084	-0.000007
C36	C	1.997223	0.108916	0.499993
C37	C	1.740740	0.171701	-0.000016
C38	C	2.240740	0.671701	0.499984
C39	C	1.880062	0.175254	-0.000009
C40	C	2.380062	0.675254	0.499991
C41	C	1.554973	0.400878	-0.000010
C42	C	2.054973	0.900878	0.499990
C43	C	1.587756	0.535865	-0.000006
C44	C	2.087756	1.035865	0.499994
N45	N	1.514158	0.178672	-0.353645
N46	N	2.014158	0.678672	0.146355
C47	C	1.451262	0.256714	-0.421452
C48	C	1.951262	0.756714	0.078548
C49	C	1.451279	0.256713	-0.578615
C50	C	1.951279	0.756713	-0.078615
N51	N	1.514190	0.178668	0.353613
N52	N	2.014190	0.678668	0.853613
H53	H	0.888739	0.175481	-0.218260
H54	H	1.388739	0.675481	0.281740
Br55	Br	1.269603	-0.246413	0.000009
Br56	Br	1.769603	0.253587	0.500009
H57	H	1.397407	0.323536	-0.363155
H58	H	1.897407	0.823536	0.136845
H59	H	1.094857	0.180730	0.100656
H60	H	1.594857	0.680730	0.600656
Br61	Br	1.326235	-0.458976	0.000015
Br62	Br	1.826235	0.041024	0.500015
Br63	Br	0.969087	0.177540	0.167792
Br64	Br	1.469087	0.677540	0.667792
H65	H	1.397426	0.323524	-0.636926
H66	H	1.897426	0.823524	-0.136926
H67	H	1.633684	-0.210823	-0.000022
H68	H	2.133684	0.289177	0.499978
H69	H	1.568023	0.111860	-0.411943
H70	H	2.068023	0.611860	0.088057
H71	H	1.139576	0.181865	-0.218259
H72	H	1.639576	0.681865	0.281741
Br73	Br	1.758745	-0.396247	0.000003
Br74	Br	2.258745	0.103753	0.500003
Br75	Br	1.603944	0.067292	-0.549214
Br76	Br	2.103944	0.567292	-0.049214
