data_functionalizedCrystal
_audit_creation_method	'MofGen! by Chris Wilmer'
_symmetry_space_group_name_H-M	'P1'
_symmetry_Int_Tables_number	1
_symmetry_cell_setting	triclinic
loop_
_symmetry_equiv_pos_as_xyz
  x,y,z
_cell_length_a	18.101398
_cell_length_b	18.101395
_cell_length_c	18.101390
_cell_angle_alpha	89.968664
_cell_angle_beta	89.975319
_cell_angle_gamma	90.026371
loop_
_atom_site_label
_atom_site_type_symbol
_atom_site_fract_x
_atom_site_fract_y
_atom_site_fract_z
Zn1	Zn	1.132124	-0.294895	-0.418847
Zn2	Zn	1.465457	0.038439	-0.085514
Zn3	Zn	1.798790	0.371772	0.247820
Zn4	Zn	1.132019	-0.418752	-0.295009
Zn5	Zn	1.465352	-0.085418	0.038325
Zn6	Zn	1.798685	0.247915	0.371658
Zn7	Zn	1.008282	-0.294918	-0.295008
Zn8	Zn	1.341615	0.038415	0.038325
Zn9	Zn	1.674948	0.371748	0.371659
Zn10	Zn	1.008233	-0.418689	-0.418797
Zn11	Zn	1.341567	-0.085355	-0.085464
Zn12	Zn	1.674900	0.247978	0.247869
O13	O	1.070164	-0.356813	-0.356915
O14	O	1.403498	-0.023480	-0.023582
O15	O	1.736831	0.309853	0.309751
O16	O	1.235743	-0.311341	-0.402441
O17	O	1.569076	0.021992	-0.069107
O18	O	1.902409	0.355325	0.264226
O19	O	1.115581	-0.402361	-0.191376
O20	O	1.448914	-0.069028	0.141958
O21	O	1.782248	0.264305	0.475291
O22	O	1.024774	-0.191282	-0.311456
O23	O	1.358107	0.142051	0.021877
O24	O	1.691441	0.475384	0.355211
O25	O	1.235666	-0.402338	-0.311457
O26	O	1.568999	-0.069005	0.021876
O27	O	1.902332	0.264328	0.355210
O28	O	1.115760	-0.191265	-0.402440
O29	O	1.449093	0.142068	-0.069106
O30	O	1.782427	0.475402	0.264227
O31	O	1.024672	-0.311381	-0.191375
O32	O	1.358005	0.021952	0.141958
O33	O	1.691339	0.355285	0.475292
O34	O	0.904642	-0.311320	-0.311408
O35	O	1.237976	0.022013	0.021925
O36	O	1.571309	0.355346	0.355259
O37	O	1.024691	-0.402231	-0.522437
O38	O	1.358025	-0.068898	-0.189103
O39	O	1.691358	0.264436	0.144230
O40	O	0.904607	-0.402254	-0.402355
O41	O	1.237940	-0.068921	-0.069022
O42	O	1.571274	0.264413	0.264311
O43	O	1.115713	-0.311280	-0.522473
O44	O	1.449046	0.022053	-0.189140
O45	O	1.782380	0.355387	0.144193
O46	O	1.115534	-0.522376	-0.311409
O47	O	1.448867	-0.189043	0.021924
O48	O	1.782201	0.144290	0.355258
O49	O	1.024590	-0.522330	-0.402356
O50	O	1.357923	-0.188997	-0.069023
O51	O	1.691256	0.144337	0.264311
C52	C	0.877754	-0.356783	-0.356877
C53	C	1.211087	-0.023450	-0.023543
C54	C	1.544420	0.309883	0.309790
C55	C	0.795440	-0.356788	-0.356878
C56	C	1.128773	-0.023455	-0.023544
C57	C	1.462106	0.309878	0.309789
C58	C	1.070065	-0.549224	-0.356893
C59	C	1.403399	-0.215891	-0.023560
C60	C	1.736732	0.117443	0.309773
C61	C	1.070091	-0.631538	-0.356909
C62	C	1.403424	-0.298205	-0.023576
C63	C	1.736757	0.035129	0.309758
C64	C	0.496349	-0.356835	-0.356940
C65	C	0.829682	-0.023501	-0.023607
C66	C	1.163015	0.309832	0.309727
C67	C	0.527672	-0.299336	-0.299997
C68	C	0.861005	0.033998	0.033336
C69	C	1.194338	0.367331	0.366669
C70	C	0.613290	-0.299490	-0.299754
C71	C	0.946623	0.033843	0.033579
C72	C	1.279956	0.367177	0.366912
C73	C	0.644731	-0.356811	-0.356909
C74	C	0.978065	-0.023478	-0.023576
C75	C	1.311398	0.309856	0.309758
C76	C	0.613613	-0.434824	-0.335587
C77	C	0.946946	-0.101491	-0.002253
C78	C	1.280280	0.231842	0.331080
C79	C	0.527968	-0.434505	-0.335191
C80	C	0.861301	-0.101172	-0.001857
C81	C	1.194635	0.232162	0.331476
C82	C	0.527964	-0.336998	-0.435339
C83	C	0.861297	-0.003665	-0.102005
C84	C	1.194631	0.329668	0.231328
C85	C	0.613615	-0.335261	-0.434911
C86	C	0.946948	-0.001928	-0.101577
C87	C	1.280281	0.331405	0.231756
C88	C	0.728591	-0.356803	-0.356893
C89	C	1.061924	-0.023469	-0.023559
C90	C	1.395257	0.309864	0.309774
C91	C	0.412489	-0.356848	-0.356954
C92	C	0.745823	-0.023515	-0.023621
C93	C	1.079156	0.309818	0.309712
C94	C	1.070253	-0.930629	-0.356949
C95	C	1.403586	-0.597296	-0.023615
C96	C	1.736920	-0.263962	0.309718
C97	C	1.013166	-0.899306	-0.414312
C98	C	1.346499	-0.565972	-0.080979
C99	C	1.679833	-0.232639	0.252354
C100	C	1.012895	-0.813688	-0.414133
C101	C	1.346228	-0.480354	-0.080799
C102	C	1.679561	-0.147021	0.252534
C103	C	1.070172	-0.782247	-0.356930
C104	C	1.403506	-0.448913	-0.023596
C105	C	1.736839	-0.115580	0.309737
C106	C	1.049043	-0.813402	-0.278878
C107	C	1.382376	-0.480068	0.054455
C108	C	1.715709	-0.146735	0.387788
C109	C	1.048675	-0.899047	-0.279221
C110	C	1.382008	-0.565713	0.054112
C111	C	1.715341	-0.232380	0.387445
C112	C	1.148595	-0.898978	-0.376950
C113	C	1.481928	-0.565644	-0.043617
C114	C	1.815262	-0.232311	0.289717
C115	C	1.148134	-0.813327	-0.378661
C116	C	1.481468	-0.479993	-0.045328
C117	C	1.814801	-0.146660	0.288005
C118	C	1.070128	-0.698387	-0.356914
C119	C	1.403462	-0.365054	-0.023581
C120	C	1.736795	-0.031720	0.309753
C121	C	1.070296	-1.014488	-0.356959
C122	C	1.403629	-0.681155	-0.023626
C123	C	1.736962	-0.347822	0.309707
C124	C	1.263326	-0.356844	-0.356954
C125	C	1.596660	-0.023511	-0.023621
C126	C	1.929993	0.309822	0.309712
C127	C	1.345640	-0.356857	-0.356971
C128	C	1.678974	-0.023524	-0.023638
C129	C	2.012307	0.309809	0.309696
C130	C	1.070208	-0.356746	-0.550077
C131	C	1.403542	-0.023413	-0.216744
C132	C	1.736875	0.309921	0.116589
C133	C	1.070227	-0.356717	-0.632391
C134	C	1.403560	-0.023384	-0.299058
C135	C	1.736894	0.309950	0.034275
C136	C	1.070284	-0.163652	-0.356953
C137	C	1.403617	0.169682	-0.023620
C138	C	1.736951	0.503015	0.309713
C139	C	1.070335	-0.081337	-0.356970
C140	C	1.403668	0.251996	-0.023636
C141	C	1.737002	0.585329	0.309697
C142	C	1.070267	-0.356671	-0.931483
C143	C	1.403600	-0.023338	-0.598149
C144	C	1.736934	0.309996	-0.264816
C145	C	1.127724	-0.299648	-0.900180
C146	C	1.461057	0.033685	-0.566847
C147	C	1.794391	0.367018	-0.233514
C148	C	1.127545	-0.299437	-0.814562
C149	C	1.460878	0.033897	-0.481229
C150	C	1.794212	0.367230	-0.147895
C151	C	1.070248	-0.356694	-0.783100
C152	C	1.403581	-0.023360	-0.449767
C153	C	1.736915	0.309973	-0.116433
C154	C	0.992231	-0.335484	-0.814166
C155	C	1.325565	-0.002151	-0.480832
C156	C	1.658898	0.331183	-0.147499
C157	C	0.992575	-0.335057	-0.899811
C158	C	1.325908	-0.001723	-0.566478
C159	C	1.659242	0.331610	-0.233144
C160	C	1.090140	-0.435050	-0.899899
C161	C	1.423473	-0.101716	-0.566565
C162	C	1.756806	0.231617	-0.233232
C163	C	1.091852	-0.434650	-0.814249
C164	C	1.425185	-0.101317	-0.480915
C165	C	1.758519	0.232017	-0.147582
C166	C	1.070232	-0.356708	-0.699240
C167	C	1.403566	-0.023375	-0.365907
C168	C	1.736899	0.309959	-0.032574
C169	C	1.070278	-0.356655	-1.015342
C170	C	1.403611	-0.023322	-0.682009
C171	C	1.736944	0.310012	-0.348675
C172	C	1.070163	-0.356827	-0.164505
C173	C	1.403496	-0.023494	0.168829
C174	C	1.736830	0.309839	0.502162
C175	C	1.070288	-0.356648	-0.082191
C176	C	1.403621	-0.023314	0.251142
C177	C	1.736955	0.310019	0.584476
H178	H	0.634330	-0.241640	-0.313119
H179	H	0.967664	0.091693	0.020214
H180	H	1.300997	0.425027	0.353547
N181	N	0.499390	-0.262959	-0.461026
N182	N	0.832724	0.070374	-0.127693
N183	N	1.166057	0.403707	0.205641
H184	H	0.465657	-0.241525	-0.422098
H185	H	0.798990	0.091809	-0.088764
H186	H	1.132323	0.425142	0.244569
H187	H	0.542364	-0.228382	-0.469554
H188	H	0.875697	0.104952	-0.136221
H189	H	1.209030	0.438285	0.197112
N190	N	1.034707	-0.491328	-0.926709
N191	N	1.368040	-0.157995	-0.593376
N192	N	1.701374	0.175338	-0.260042
H193	H	1.035571	-0.493172	-0.982468
H194	H	1.368905	-0.159839	-0.649134
H195	H	1.702238	0.173495	-0.315801
H196	H	1.047784	-0.541541	-0.906192
H197	H	1.381117	-0.208208	-0.572858
H198	H	1.714450	0.125125	-0.239525
N199	N	1.204609	-0.317020	-0.927472
N200	N	1.537942	0.016314	-0.594139
N201	N	1.871276	0.349647	-0.260805
H202	H	1.202945	-0.362019	-0.960395
H203	H	1.536278	-0.028686	-0.627062
H204	H	1.869611	0.304647	-0.293728
H205	H	1.224367	-0.273531	-0.956353
H206	H	1.557700	0.059802	-0.623020
H207	H	1.891033	0.393135	-0.289686
H208	H	1.146032	-0.454361	-0.921548
H209	H	1.479365	-0.121028	-0.588215
H210	H	1.812699	0.212305	-0.254882
H211	H	0.507101	-0.241309	-0.313215
H212	H	0.840435	0.092024	0.020118
H213	H	1.173768	0.425358	0.353452
N214	N	0.973989	-0.785072	-0.256035
N215	N	1.307323	-0.451739	0.077299
N216	N	1.640656	-0.118405	0.410632
H217	H	0.935776	-0.801484	-0.293214
H218	H	1.269109	-0.468151	0.040119
H219	H	1.602443	-0.134817	0.373453
H220	H	0.960949	-0.805432	-0.205732
H221	H	1.294283	-0.472098	0.127602
H222	H	1.627616	-0.138765	0.460935
H223	H	0.506122	-0.312301	-0.242242
H224	H	0.839455	0.021032	0.091091
H225	H	1.172789	0.354365	0.424424
H226	H	1.114391	-0.241372	-0.794086
H227	H	1.447724	0.091961	-0.460753
H228	H	1.781057	0.425294	-0.127420
N229	N	1.110525	-0.223161	-0.928697
N230	N	1.443858	0.110172	-0.595364
N231	N	1.777191	0.443506	-0.262030
H232	H	1.065677	-0.225287	-0.961805
H233	H	1.399010	0.108046	-0.628471
H234	H	1.732343	0.441379	-0.295138
H235	H	1.100291	-0.189187	-0.885656
H236	H	1.433624	0.144146	-0.552323
H237	H	1.766957	0.477480	-0.218989
H238	H	1.026114	-0.792621	-0.472007
H239	H	1.359448	-0.459287	-0.138674
H240	H	1.692781	-0.125954	0.194660
H241	H	0.507956	-0.451326	-0.277877
H242	H	0.841289	-0.117993	0.055456
H243	H	1.174622	0.215340	0.388789
H244	H	1.149265	-0.450643	-0.793944
H245	H	1.482599	-0.117310	-0.460611
H246	H	1.815932	0.216023	-0.127278
H247	H	0.633743	-0.312604	-0.241661
H248	H	0.967076	0.020730	0.091672
H249	H	1.300410	0.354063	0.425005
N250	N	0.641965	-0.457503	-0.260487
N251	N	0.975298	-0.124170	0.072846
N252	N	1.308631	0.209164	0.406179
H253	H	0.697708	-0.459684	-0.261526
H254	H	1.031042	-0.126350	0.071807
H255	H	1.364375	0.206983	0.405140
H256	H	0.625498	-0.420228	-0.222396
H257	H	0.958831	-0.086895	0.110937
H258	H	1.292165	0.246438	0.444270
N259	N	0.936712	-0.927883	-0.396982
N260	N	1.270045	-0.594550	-0.063649
N261	N	1.603378	-0.261217	0.269685
H262	H	0.900380	-0.907498	-0.434086
H263	H	1.233713	-0.574165	-0.100752
H264	H	1.567046	-0.240832	0.232581
H265	H	0.936670	-0.983617	-0.399556
H266	H	1.270003	-0.650284	-0.066223
H267	H	1.603337	-0.316950	0.267111
N268	N	1.102374	-0.786425	-0.220710
N269	N	1.435707	-0.453092	0.112624
N270	N	1.769040	-0.119759	0.445957
H271	H	1.127421	-0.830122	-0.196708
H272	H	1.460755	-0.496789	0.136626
H273	H	1.794088	-0.163456	0.469959
H274	H	1.140795	-0.753659	-0.244500
H275	H	1.474129	-0.420326	0.088833
H276	H	1.807462	-0.086993	0.422167
N277	N	0.970257	-0.259168	-0.926295
N278	N	1.303590	0.074165	-0.592962
N279	N	1.636923	0.407499	-0.259629
H280	H	0.960289	-0.226307	-0.882335
H281	H	1.293622	0.107027	-0.549001
H282	H	1.626956	0.440360	-0.215668
H283	H	1.011462	-0.237294	-0.956944
H284	H	1.344795	0.096039	-0.623611
H285	H	1.678129	0.429373	-0.290277
H286	H	0.507708	-0.378878	-0.477766
H287	H	0.841041	-0.045545	-0.144433
H288	H	1.174374	0.287788	0.188900
H289	H	0.633959	-0.277852	-0.450989
H290	H	0.967292	0.055481	-0.117655
H291	H	1.300625	0.388815	0.215678
N292	N	0.641961	-0.386690	-0.494126
N293	N	0.975294	-0.053357	-0.160793
N294	N	1.308627	0.279976	0.172541
H295	H	0.675523	-0.424860	-0.471125
H296	H	1.008856	-0.091527	-0.137792
H297	H	1.342189	0.241807	0.195541
H298	H	0.598872	-0.412205	-0.518719
H299	H	0.932205	-0.078871	-0.185386
H300	H	1.265538	0.254462	0.147948
N301	N	0.500523	-0.493183	-0.387722
N302	N	0.833856	-0.159850	-0.054389
N303	N	1.167190	0.173483	0.278945
H304	H	0.469577	-0.530264	-0.359729
H305	H	0.802910	-0.196931	-0.026396
H306	H	1.136244	0.136403	0.306938
H307	H	0.469578	-0.469406	-0.427588
H308	H	0.802911	-0.136073	-0.094255
H309	H	1.136244	0.197261	0.239078
H310	H	1.167859	-0.920523	-0.432895
H311	H	1.501192	-0.587190	-0.099562
H312	H	1.834526	-0.253857	0.233771
H313	H	0.633978	-0.478814	-0.375763
H314	H	0.967311	-0.145480	-0.042430
H315	H	1.300644	0.187853	0.290904
H316	H	1.053046	-0.479420	-0.792829
H317	H	1.386380	-0.146086	-0.459496
H318	H	1.719713	0.187247	-0.126163
H319	H	1.026255	-0.919850	-0.472374
H320	H	1.359588	-0.586517	-0.139040
H321	H	1.692921	-0.253184	0.194293
H322	H	1.088451	-0.919770	-0.235023
H323	H	1.421784	-0.586437	0.098310
H324	H	1.755118	-0.253104	0.431643
H325	H	0.954826	-0.793261	-0.400884
H326	H	1.288159	-0.459927	-0.067550
H327	H	1.621492	-0.126594	0.265783
N328	N	0.972822	-0.925599	-0.256778
N329	N	1.306155	-0.592266	0.076556
N330	N	1.639488	-0.258932	0.409889
H331	H	0.939937	-0.881668	-0.246756
H332	H	1.273271	-0.548335	0.086577
H333	H	1.606604	-0.215002	0.419911
H334	H	0.950938	-0.956221	-0.297946
H335	H	1.284271	-0.622888	0.035387
H336	H	1.617604	-0.289555	0.368720
H337	H	1.164068	-0.792961	-0.436103
H338	H	1.497402	-0.459627	-0.102770
H339	H	1.830735	-0.126294	0.230564
N340	N	1.207461	-0.784972	-0.327361
N341	N	1.540795	-0.451638	0.005973
N342	N	1.874128	-0.118305	0.339306
H343	H	1.184539	-0.751430	-0.289132
H344	H	1.517872	-0.418096	0.044201
H345	H	1.851206	-0.084763	0.377534
H346	H	1.232134	-0.828056	-0.301911
H347	H	1.565467	-0.494723	0.031422
H348	H	1.898800	-0.161390	0.364756
H349	H	0.948309	-0.374782	-0.920516
H350	H	1.281643	-0.041449	-0.587183
H351	H	1.614976	0.291885	-0.253849
H352	H	0.948259	-0.375737	-0.793784
H353	H	1.281593	-0.042404	-0.460451
H354	H	1.614926	0.290929	-0.127117
N355	N	1.204937	-0.925804	-0.321611
N356	N	1.538271	-0.592471	0.011722
N357	N	1.871604	-0.259137	0.345056
H358	H	1.179880	-0.958300	-0.283765
H359	H	1.513213	-0.624967	0.049568
H360	H	1.846546	-0.291633	0.382901
H361	H	1.244444	-0.955023	-0.348021
H362	H	1.577777	-0.621690	-0.014688
H363	H	1.911110	-0.288357	0.318645
H364	H	1.185396	-0.312720	-0.793559
H365	H	1.518729	0.020614	-0.460226
H366	H	1.852063	0.353947	-0.126893
H367	H	0.975078	-0.278826	-0.792724
H368	H	1.308411	0.054507	-0.459391
H369	H	1.641744	0.387840	-0.126058
