data_functionalizedCrystal
_audit_creation_method	'MofGen! by Chris Wilmer'
_symmetry_space_group_name_H-M	'P1'
_symmetry_Int_Tables_number	1
_symmetry_cell_setting	triclinic
loop_
_symmetry_equiv_pos_as_xyz
  x,y,z
_cell_length_a	14.853567
_cell_length_b	16.992695
_cell_length_c	16.053802
_cell_angle_alpha	87.258926
_cell_angle_beta	92.581881
_cell_angle_gamma	87.151577
loop_
_atom_site_label
_atom_site_type_symbol
_atom_site_fract_x
_atom_site_fract_y
_atom_site_fract_z
O1	O	-1.207156	-0.099085	-0.069372
O2	O	-0.945559	-0.111280	-0.069386
O3	O	-1.075308	0.008961	-0.069373
O4	O	-1.077407	-0.219326	-0.069386
O5	O	-1.068165	0.002370	0.069485
O6	O	-0.938415	-0.117871	0.069472
O7	O	-1.200013	-0.105676	0.069486
Zn8	Zn	-1.068080	-0.112820	0.091526
Zn9	Zn	-1.077492	-0.104136	-0.091426
O10	O	-1.070263	-0.225917	0.069472
C11	C	-1.069038	0.034881	0.000056
C12	C	-1.060988	0.121934	0.000055
C13	C	-0.908359	-0.114023	0.000041
C14	C	-0.808159	-0.112366	0.000036
C15	C	-1.237212	-0.102933	0.000057
C16	C	-1.337413	-0.104589	0.000057
C17	C	-0.390086	-0.033941	0.000059
C18	C	-0.378892	-0.176791	0.000050
C19	C	-0.473036	-0.178348	0.000047
C20	C	-0.525709	-0.107700	0.000049
C21	C	-0.484239	-0.035496	0.000053
C22	C	-0.514514	-0.250550	0.000034
C23	C	-0.608663	-0.252110	0.000030
C24	C	-0.661338	-0.181462	0.000038
C25	C	-0.619862	-0.109255	0.000044
C26	C	-0.672536	-0.038607	0.000045
C27	C	-0.631061	0.033600	0.000057
C28	C	-0.536914	0.035152	0.000061
C29	C	-0.755485	-0.183014	0.000034
C30	C	-0.766689	-0.040162	0.000040
C31	C	-1.076533	-0.251837	0.000042
C32	C	-1.084584	-0.338889	0.000037
N33	N	-1.061662	-0.118746	0.216385
C34	C	-1.138663	0.172090	0.000061
C35	C	-1.131094	0.253885	0.000052
C36	C	-1.045849	0.285523	0.000045
C37	C	-0.968168	0.235361	0.000037
C38	C	-0.975738	0.153568	0.000039
C39	C	-1.014473	0.529155	0.000032
C40	C	-1.006908	0.610955	0.000032
C41	C	-1.169836	0.629474	0.000045
C42	C	-1.177398	0.547678	0.000053
C43	C	-1.099717	0.497523	0.000041
N44	N	-1.038110	0.369130	0.000039
N45	N	-1.107458	0.413918	0.000041
N46	N	-1.083915	-0.098203	-0.216286
C47	C	-1.116894	-0.067601	0.260085
C48	C	-1.112414	-0.071754	0.347491
C49	C	-1.052707	-0.127056	0.391196
C50	C	-0.997469	-0.178203	0.347490
C51	C	-1.001945	-0.174045	0.260086
C52	C	-1.033154	-0.145193	0.652604
C53	C	-1.028684	-0.149348	0.740015
C54	C	-1.143628	-0.042898	0.740010
C55	C	-1.148103	-0.038749	0.652603
C56	C	-1.092862	-0.089893	0.608905
N57	N	-1.048128	-0.131304	0.480539
N58	N	-1.097436	-0.085640	0.519563
H59	H	-0.809569	0.017369	0.000045
H60	H	-1.233078	0.670318	0.000054
Br61	Br	-0.891210	0.653891	0.000030
Br62	Br	-0.811770	-0.281001	0.000008
H63	H	-0.471621	-0.308067	0.000024
Br64	Br	-1.187369	-0.002340	0.406801
Br65	Br	-1.254359	0.129161	0.000083
H66	H	-0.673961	0.091122	0.000053
H67	H	-1.194346	0.294719	0.000058
Br68	Br	-0.958188	-0.214602	0.593304
H69	H	-0.356313	0.024848	0.000071
H70	H	-1.246814	0.521925	0.000059
Br71	Br	-0.480622	0.133139	0.000074
H72	H	-1.188602	-0.001258	0.775597
Br73	Br	-0.909049	0.461099	0.000010
Br74	Br	-0.852477	0.278297	0.000013
Br75	Br	-1.229138	0.036301	0.593288
Br76	Br	-0.947649	-0.224410	0.799323
Br77	Br	-0.870318	0.085498	0.000026
H78	H	-1.165518	-0.022572	0.224506
Br79	Br	-0.664942	-0.350103	0.000015
Br80	Br	-0.916429	-0.253251	0.406801
Br81	Br	-0.926978	-0.243454	0.200779
H82	H	-0.336000	-0.234308	0.000041
