data_functionalizedCrystal
_audit_creation_method	'MofGen! by Chris Wilmer'
_symmetry_space_group_name_H-M	'P1'
_symmetry_Int_Tables_number	1
_symmetry_cell_setting	triclinic
loop_
_symmetry_equiv_pos_as_xyz
  x,y,z
_cell_length_a	19.188905
_cell_length_b	18.266242
_cell_length_c	14.519709
_cell_angle_alpha	89.993935
_cell_angle_beta	96.592650
_cell_angle_gamma	90.016065
loop_
_atom_site_label
_atom_site_type_symbol
_atom_site_fract_x
_atom_site_fract_y
_atom_site_fract_z
O1	O	0.926570	0.061003	-0.115025
O2	O	0.723312	0.060978	-0.130549
O3	O	0.830330	0.060985	0.011486
O4	O	0.819552	0.060997	-0.257059
O5	O	0.830312	-0.060777	0.011490
O6	O	0.723293	-0.060784	-0.130545
O7	O	0.926552	-0.060759	-0.115021
Zn8	Zn	0.824920	-0.080104	-0.122782
Zn9	Zn	0.824944	0.080323	-0.122788
O10	O	0.819533	-0.060765	-0.257055
C11	C	0.697289	0.000094	-0.130048
C12	C	0.619779	0.000084	-0.128550
C13	C	0.583394	0.066459	-0.127833
C14	C	0.510565	0.066468	-0.126416
C15	C	0.474126	0.000099	-0.125697
C16	C	0.510518	-0.066284	-0.126420
C17	C	0.583345	-0.066292	-0.127846
N18	N	0.364903	-0.049296	-0.070975
N19	N	0.295721	-0.049284	-0.069617
C20	C	0.254704	0.000116	-0.121401
N21	N	0.285483	0.049516	-0.174581
N22	N	0.354671	0.049507	-0.175934
C23	C	0.395158	0.000099	-0.124151
C24	C	0.139350	0.066505	-0.119148
C25	C	0.066520	0.066511	-0.117737
C26	C	0.066475	-0.066243	-0.117731
C27	C	0.139303	-0.066247	-0.119152
C28	C	0.175737	0.000129	-0.119856
N29	N	0.824908	-0.189590	-0.122778
C30	C	0.867317	-0.227885	-0.178573
C31	C	0.867328	-0.304530	-0.178570
C32	C	0.824918	-0.342877	-0.122784
C33	C	0.782507	-0.304573	-0.066977
C34	C	0.782502	-0.227930	-0.066975
N35	N	0.763762	-0.463238	-0.120519
N36	N	0.763768	-0.536046	-0.120527
C37	C	0.824932	-0.573800	-0.122787
N38	N	0.886090	-0.535995	-0.125057
N39	N	0.886082	-0.463181	-0.125054
C40	C	0.824920	-0.425984	-0.122780
C41	C	0.867357	-0.695202	-0.178582
C42	C	0.867370	-0.771848	-0.178573
C43	C	0.782543	-0.771890	-0.066985
C44	C	0.782536	-0.695245	-0.066989
C45	C	0.824942	-0.656905	-0.122793
C46	C	0.952574	0.000127	-0.115522
C47	C	1.030085	0.000141	-0.117020
C48	C	0.829818	0.000104	0.045844
C49	C	0.828313	0.000103	0.148216
N50	N	0.824961	0.189810	-0.122784
C51	C	0.820045	0.000118	-0.291414
C52	C	0.821550	0.000123	-0.393786
C53	C	0.822772	0.000121	0.523077
C54	C	0.824311	0.000116	0.418779
C55	C	0.825542	0.000112	0.335650
C56	C	0.827081	0.000108	0.231345
H57	H	0.036806	-0.120282	-0.117152
H58	H	0.169015	0.120552	-0.119731
O59	O	0.908450	-0.657919	-0.232883
C60	C	0.865954	-0.613583	-0.295942
H61	H	0.810413	-0.636703	-0.306038
H62	H	0.888352	-0.612696	-0.365335
H63	H	0.864733	-0.555500	-0.267447
H64	H	0.901862	-0.335716	-0.224008
O65	O	0.618832	0.130914	-0.128365
C66	C	0.668794	0.134872	-0.049352
H67	H	0.652301	0.097207	0.006894
H68	H	0.672267	0.193576	-0.022569
H69	H	0.722212	0.117034	-0.068490
O70	O	0.741194	-0.190763	-0.012885
C71	C	0.670364	-0.209536	-0.038664
H72	H	0.663709	-0.230601	-0.113059
H73	H	0.636002	-0.159149	-0.033408
H74	H	0.654107	-0.254037	0.009628
O75	O	0.031108	0.130944	-0.116917
C76	C	-0.003188	0.134919	-0.036231
H77	H	-0.011512	0.077288	-0.009400
H78	H	-0.056148	0.163016	-0.053190
H79	H	0.030363	0.167666	0.019140
H80	H	0.901850	-0.196674	-0.224009
H81	H	0.480844	-0.120323	-0.125837
O82	O	0.174548	-0.130790	-0.119795
C83	C	0.126769	-0.189369	-0.118881
H84	H	0.077721	-0.169907	-0.088675
H85	H	0.152178	-0.235794	-0.074527
H86	H	0.111775	-0.209774	-0.192698
H87	H	0.901909	-0.803026	-0.224005
O88	O	0.741224	-0.658080	-0.012905
C89	C	0.670396	-0.676854	-0.038691
H90	H	0.663744	-0.697914	-0.113088
H91	H	0.636032	-0.626468	-0.033433
H92	H	0.654137	-0.721358	0.009596
O93	O	0.475163	0.130927	-0.125877
C94	C	0.425205	0.134901	-0.204890
H95	H	0.441674	0.097244	-0.261139
H96	H	0.421768	0.193610	-0.231669
H97	H	0.371775	0.117065	-0.185754
H98	H	0.612968	-0.120343	-0.128431
H99	H	0.747978	-0.335801	-0.021554
H100	H	0.748013	-0.803111	-0.021561
