data_functionalizedCrystal
_audit_creation_method	'MofGen! by Chris Wilmer'
_symmetry_space_group_name_H-M	'P1'
_symmetry_Int_Tables_number	1
_symmetry_cell_setting	triclinic
loop_
_symmetry_equiv_pos_as_xyz
  x,y,z
_cell_length_a	13.897448
_cell_length_b	19.805407
_cell_length_c	19.805399
_cell_angle_alpha	89.978936
_cell_angle_beta	90.025019
_cell_angle_gamma	89.983323
loop_
_atom_site_label
_atom_site_type_symbol
_atom_site_fract_x
_atom_site_fract_y
_atom_site_fract_z
Zn1	Zn	-0.384063	-1.034777	0.382759
Zn2	Zn	-0.545369	-1.034709	0.269575
Zn3	Zn	-0.384087	-0.921591	0.269580
Zn4	Zn	-0.545315	-0.921572	0.382719
O5	O	-0.464709	-0.978162	0.326158
O6	O	-0.405474	-1.129484	0.367759
O7	O	-0.524007	-1.019683	0.174859
O8	O	-0.249102	-0.936642	0.284612
O9	O	-0.523984	-1.129434	0.284604
O10	O	-0.249085	-1.019799	0.367764
O11	O	-0.405514	-0.936576	0.174863
O12	O	-0.405462	-0.826872	0.284574
O13	O	-0.523892	-0.936609	0.477441
O14	O	-0.523915	-0.826858	0.367697
O15	O	-0.405421	-1.019780	0.477470
O16	O	-0.680344	-1.019664	0.284566
O17	O	-0.680304	-0.936543	0.367692
C18	C	-0.715323	-0.978113	0.326139
C19	C	-0.822537	-0.978154	0.326153
C20	C	-0.464686	-0.802306	0.326132
C21	C	-0.464699	-0.727074	0.326137
C22	C	-0.464648	-0.978200	0.502701
C23	C	-0.464622	-0.978216	0.577933
C24	C	-1.018832	-0.978225	0.326196
C25	C	-0.909600	-0.978183	0.326174
C26	C	-0.213116	-0.978230	0.326193
C27	C	-0.105902	-0.978259	0.326208
C28	C	-0.526470	-0.691740	0.369348
C29	C	-0.526470	-0.621052	0.369355
C30	C	-0.464703	-0.585699	0.326148
C31	C	-0.402926	-0.621037	0.282935
C32	C	-0.402922	-0.691725	0.282931
C33	C	-0.402940	-0.335964	0.282950
C34	C	-0.402951	-0.265272	0.282956
C35	C	-0.526488	-0.265292	0.369374
C36	C	-0.526484	-0.335979	0.369370
C37	C	-0.464703	-0.371311	0.326160
C38	C	-0.464703	-0.447960	0.326153
C39	C	-0.464708	-0.509051	0.326151
C40	C	-0.464726	-0.154705	0.326179
C41	C	-0.464717	-0.229937	0.326171
C42	C	-0.464700	-0.978163	0.150302
C43	C	-0.464454	-0.978278	0.075071
C44	C	-0.402931	-1.021524	0.613294
C45	C	-0.402903	-1.021531	0.683982
C46	C	-0.464572	-0.978233	0.719309
C47	C	-0.526265	-0.934920	0.683944
C48	C	-0.526288	-0.934910	0.613256
C49	C	-0.526175	-0.934958	0.969017
C50	C	-0.526150	-0.934973	1.039709
C51	C	-0.402791	-1.021579	1.039743
C52	C	-0.402813	-1.021570	0.969055
C53	C	-0.464503	-0.978255	0.933696
C54	C	-0.464531	-0.978247	0.857048
C55	C	-0.464549	-0.978244	0.795956
H56	H	-0.576771	-0.720520	0.404530
Br57	Br	-0.319066	-1.080365	1.087734
H58	H	-0.576789	-0.236515	0.404560
H59	H	-0.352647	-0.236489	0.247771
H60	H	-0.352630	-0.592247	0.247758
H61	H	-0.576421	-0.899699	0.940236
H62	H	-0.576370	-0.899712	1.068470
H63	H	-0.576513	-0.899638	0.584467
Br64	Br	-0.319241	-1.080295	0.565357
H65	H	-0.352641	-0.364723	0.247761
Br66	Br	-0.610303	-0.573101	0.428003
H67	H	-0.352671	-1.056799	0.712769
Br68	Br	-0.319081	-0.739679	0.224289
Br69	Br	-0.610319	-0.383955	0.428007
Br70	Br	-0.319123	-1.080337	0.921115
H71	H	-0.576473	-0.899664	0.712712
