data_functionalizedCrystal
_audit_creation_method	'MofGen! by Chris Wilmer'
_symmetry_space_group_name_H-M	'P1'
_symmetry_Int_Tables_number	1
_symmetry_cell_setting	triclinic
loop_
_symmetry_equiv_pos_as_xyz
  x,y,z
_cell_length_a	17.077404
_cell_length_b	18.215405
_cell_length_c	18.215398
_cell_angle_alpha	90.028025
_cell_angle_beta	90.019224
_cell_angle_gamma	90.025110
loop_
_atom_site_label
_atom_site_type_symbol
_atom_site_fract_x
_atom_site_fract_y
_atom_site_fract_z
Zn1	Zn	1.200042	-0.293006	0.416098
Zn2	Zn	1.700042	0.206994	0.916098
Zn3	Zn	1.199945	-0.416072	0.293026
Zn4	Zn	1.699945	0.083928	0.793026
Zn5	Zn	1.068774	-0.293024	0.293046
Zn6	Zn	1.568774	0.206976	0.793046
Zn7	Zn	1.068737	-0.416036	0.416051
Zn8	Zn	1.568737	0.083964	0.916051
O9	O	1.134374	-0.354534	0.354555
O10	O	1.634374	0.145466	0.854555
O11	O	1.309876	-0.309338	0.399783
O12	O	1.809876	0.190662	0.899783
O13	O	1.182520	-0.399772	0.190044
O14	O	1.682520	0.100228	0.690044
O15	O	1.086243	-0.190037	0.309397
O16	O	1.586243	0.309963	0.809397
O17	O	1.309804	-0.399754	0.309363
O18	O	1.809804	0.100246	0.809363
O19	O	1.182685	-0.190024	0.399802
O20	O	1.682685	0.309976	0.899802
O21	O	1.086149	-0.309369	0.190059
O22	O	1.586149	0.190631	0.690059
O23	O	0.958922	-0.309334	0.309352
O24	O	1.458922	0.190666	0.809352
O25	O	1.086180	-0.399693	0.519042
O26	O	1.586180	0.100307	1.019042
O27	O	0.958895	-0.399710	0.399723
O28	O	1.458895	0.100290	0.899723
O29	O	1.182649	-0.309303	0.519076
O30	O	1.682649	0.190697	1.019076
O31	O	1.182484	-0.519051	0.309318
O32	O	1.682484	-0.019051	0.809318
O33	O	1.086086	-0.519025	0.399704
O34	O	1.586086	-0.019025	0.899704
C35	C	0.930426	-0.354521	0.354535
C36	C	1.430426	0.145479	0.854535
C37	C	0.843177	-0.354533	0.354544
C38	C	1.343177	0.145467	0.854544
C39	C	0.802193	-0.401663	0.401525
C40	C	1.302193	0.098337	0.901525
C41	C	0.720212	-0.401664	0.401537
C42	C	1.220212	0.098336	0.901537
C43	C	0.679217	-0.354539	0.354563
C44	C	1.179217	0.145461	0.854563
C45	C	0.720207	-0.307404	0.307580
C46	C	1.220207	0.192596	0.807580
C47	C	0.802186	-0.307399	0.307572
C48	C	1.302186	0.192601	0.807572
C49	C	0.549337	-0.307419	0.307598
C50	C	1.049337	0.192581	0.807598
C51	C	0.467352	-0.307424	0.307604
C52	C	0.967352	0.192576	0.807604
C53	C	0.467363	-0.401684	0.401562
C54	C	0.967363	0.098316	0.901562
C55	C	0.549342	-0.401679	0.401554
C56	C	1.049342	0.098321	0.901554
C57	C	0.590326	-0.354545	0.354570
C58	C	1.090326	0.145455	0.854570
C59	C	1.134291	-0.545741	0.354520
C60	C	1.634291	-0.045741	0.854520
C61	C	1.134328	-0.627539	0.354529
C62	C	1.634328	-0.127539	0.854529
C63	C	1.184640	-0.815723	0.307552
C64	C	1.684640	-0.315723	0.807552
C65	C	1.184675	-0.892581	0.307570
C66	C	1.684675	-0.392581	0.807570
C67	C	1.084209	-0.892594	0.401612
C68	C	1.584209	-0.392594	0.901612
C69	C	1.084178	-0.815736	0.401597
C70	C	1.584178	-0.315736	0.901597
C71	C	1.134393	-0.777303	0.354563
C72	C	1.634393	-0.277303	0.854563
C73	C	1.134458	-0.931019	0.354595
C74	C	1.634458	-0.431019	0.854595
C75	C	1.134496	-1.014353	0.354615
C76	C	1.634496	-0.514353	0.854615
C77	C	1.134356	-0.693964	0.354544
C78	C	1.634356	-0.193964	0.854544
C79	C	1.339118	-0.354548	0.354576
C80	C	1.839118	0.145452	0.854576
C81	C	1.426368	-0.354554	0.354585
C82	C	1.926368	0.145446	0.854585
C83	C	1.134421	-0.354492	0.546508
C84	C	1.634421	0.145508	1.046508
C85	C	1.134441	-0.354474	0.628307
C86	C	1.634441	0.145526	1.128307
C87	C	1.134479	-0.162581	0.354607
C88	C	1.634479	0.337419	0.854607
C89	C	1.134523	-0.080782	0.354629
C90	C	1.634523	0.419218	0.854629
C91	C	1.134373	-0.354523	0.163349
C92	C	1.634373	0.145477	0.663349
C93	C	1.134505	-0.354334	0.081551
C94	C	1.634505	0.145666	0.581551
C95	C	1.184657	-0.401456	0.893362
C96	C	1.684657	0.098544	1.393362
C97	C	1.184645	-0.401481	0.816503
C98	C	1.684645	0.098519	1.316503
C99	C	1.084284	-0.307350	0.816501
C100	C	1.584284	0.192650	1.316501
C101	C	1.084292	-0.307329	0.893359
C102	C	1.584292	0.192671	1.393359
C103	C	1.134483	-0.354381	0.931787
C104	C	1.634483	0.145619	1.431787
C105	C	1.134463	-0.354427	0.778071
C106	C	1.634463	0.145573	1.278071
C107	C	1.134449	-0.354455	0.694737
C108	C	1.634449	0.145545	1.194737
C109	C	1.134496	-0.354354	1.015126
C110	C	1.634496	0.145646	1.515126
H111	H	0.686847	-0.440043	0.439793
H112	H	1.186847	0.059957	0.939793
H113	H	1.043261	-0.784453	0.439882
H114	H	1.543261	-0.284453	0.939882
H115	H	1.043421	-0.269041	0.785204
H116	H	1.543421	0.230959	1.285204
H117	H	1.043325	-0.923896	0.439904
H118	H	1.543325	-0.423896	0.939904
C119	C	0.341704	-0.443540	0.443309
C120	C	0.841704	0.056460	0.943309
C121	C	0.422317	-0.453490	0.453214
C122	C	0.922317	0.046510	0.953214
H123	H	0.313894	-0.475520	0.475197
H124	H	0.813894	0.024480	0.975197
H125	H	0.328243	-0.454245	0.393850
H126	H	0.828243	0.045755	0.893850
H127	H	0.328305	-0.394106	0.454174
H128	H	0.828305	0.105894	0.954174
H129	H	0.435717	-0.502923	0.442343
H130	H	0.935717	-0.002923	0.942343
H131	H	0.435784	-0.442790	0.502684
H132	H	0.935784	0.057210	1.002684
H133	H	0.835554	-0.269018	0.269319
H134	H	1.335554	0.230982	0.769319
C135	C	0.978710	-0.297087	0.979762
C136	C	1.478710	0.202913	1.479762
C137	C	1.029131	-0.255583	0.935598
C138	C	1.529131	0.244417	1.435598
H139	H	0.944651	-0.265144	1.005834
H140	H	1.444651	0.234856	1.505834
H141	H	1.008599	-0.325098	1.013646
H142	H	1.508599	0.174902	1.513646
H143	H	0.948674	-0.329158	0.949755
H144	H	1.448674	0.170842	1.449755
H145	H	1.059171	-0.223515	0.965606
H146	H	1.559171	0.276485	1.465606
H147	H	0.999238	-0.227559	0.901710
H148	H	1.499238	0.272441	1.401710
H149	H	1.225529	-0.784432	0.269255
H150	H	1.725529	-0.284432	0.769255
H151	H	1.225593	-0.923859	0.269290
H152	H	1.725593	-0.423859	0.769290
H153	H	1.225524	-0.439769	0.924648
H154	H	1.725524	0.060231	1.424648
C155	C	0.541123	-0.494848	0.494432
C156	C	1.041123	0.005152	0.994432
C157	C	0.594406	-0.453479	0.453188
C158	C	1.094406	0.046521	0.953188
H159	H	0.568946	-0.526823	0.526312
H160	H	1.068946	-0.026823	1.026312
H161	H	0.509125	-0.522959	0.462321
H162	H	1.009125	-0.022959	0.962321
H163	H	0.509172	-0.462818	0.522644
H164	H	1.009172	0.037182	1.022644
H165	H	0.626354	-0.485510	0.424972
H166	H	1.126354	0.014490	0.924972
H167	H	0.626418	-0.425367	0.485303
H168	H	1.126418	0.074633	0.985303
C169	C	0.341677	-0.265546	0.265942
C170	C	0.841677	0.234454	0.765942
C171	C	0.422287	-0.255593	0.256002
C172	C	0.922287	0.244407	0.756002
H173	H	0.313858	-0.233542	0.234089
H174	H	0.813858	0.266458	0.734089
H175	H	0.328291	-0.254874	0.315414
H176	H	0.828291	0.245126	0.815414
H177	H	0.328214	-0.314972	0.255049
H178	H	0.828214	0.185028	0.755049
H179	H	0.435751	-0.206169	0.266900
H180	H	0.935751	0.293831	0.766900
H181	H	0.435679	-0.266260	0.206518
H182	H	0.935679	0.233740	0.706518
H183	H	0.582703	-0.269030	0.269344
H184	H	1.082703	0.230970	0.769344
H185	H	1.225501	-0.439814	0.785221
H186	H	1.725501	0.060186	1.285221
H187	H	0.835565	-0.440040	0.439774
H188	H	1.335565	0.059960	0.939774
H189	H	0.686822	-0.269031	0.269336
H190	H	1.186822	0.230969	0.769336
