data_functionalizedCrystal
_audit_creation_method	'MofGen! by Chris Wilmer'
_symmetry_space_group_name_H-M	'P1'
_symmetry_Int_Tables_number	1
_symmetry_cell_setting	triclinic
loop_
_symmetry_equiv_pos_as_xyz
  x,y,z
_cell_length_a	16.992694
_cell_length_b	16.992695
_cell_length_c	16.053802
_cell_angle_alpha	92.741074
_cell_angle_beta	87.249047
_cell_angle_gamma	90.668223
loop_
_atom_site_label
_atom_site_type_symbol
_atom_site_fract_x
_atom_site_fract_y
_atom_site_fract_z
O1	O	1.053959	0.163815	-0.069325
O2	O	1.387293	0.497148	0.264008
O3	O	1.720626	0.830482	0.597342
O4	O	0.825560	0.161983	-0.069350
O5	O	1.158894	0.495316	0.263984
O6	O	1.492227	0.828649	0.597317
O7	O	0.938844	0.048699	-0.069331
O8	O	1.272177	0.382032	0.264003
O9	O	1.605510	0.715366	0.597336
O10	O	0.940676	0.277099	-0.069344
O11	O	1.274009	0.610432	0.263989
O12	O	1.607342	0.943765	0.597323
O13	O	0.932607	0.054907	0.069527
O14	O	1.265940	0.388241	0.402860
O15	O	1.599273	0.721574	0.736194
O16	O	0.819323	0.168191	0.069508
O17	O	1.152656	0.501524	0.402842
O18	O	1.485990	0.834857	0.736175
O19	O	1.047722	0.170023	0.069533
O20	O	1.381055	0.503356	0.402866
O21	O	1.714389	0.836690	0.736200
Zn22	Zn	0.932532	0.170093	0.091567
Zn23	Zn	1.265866	0.503426	0.424901
Zn24	Zn	1.599199	0.836759	0.758234
Zn25	Zn	0.940750	0.161913	-0.091384
Zn26	Zn	1.274083	0.495247	0.241949
Zn27	Zn	1.607417	0.828580	0.575283
O28	O	0.934438	0.283307	0.069514
O29	O	1.267772	0.616640	0.402847
O30	O	1.601105	0.949973	0.736181
C31	C	0.793082	0.162731	0.000076
C32	C	1.126415	0.496064	0.333410
C33	C	1.459748	0.829398	0.666743
C34	C	0.705597	0.155702	0.000067
C35	C	1.038931	0.489035	0.333400
C36	C	1.372264	0.822368	0.666734
C37	C	0.659607	0.223520	0.000064
C38	C	0.992940	0.556853	0.333397
C39	C	1.326273	0.890186	0.666730
C40	C	0.577405	0.216911	0.000076
C41	C	0.910739	0.550244	0.333409
C42	C	1.244072	0.883578	0.666742
C43	C	0.541197	0.142484	0.000085
C44	C	0.874530	0.475817	0.333418
C45	C	1.207863	0.809151	0.666751
C46	C	0.587193	0.074661	0.000091
C47	C	0.920527	0.407994	0.333424
C48	C	1.253860	0.741328	0.666757
C49	C	0.669393	0.081270	0.000085
C50	C	1.002726	0.414604	0.333418
C51	C	1.336060	0.747937	0.666751
C52	C	0.295881	0.115090	0.000109
C53	C	0.629215	0.448424	0.333442
C54	C	0.962548	0.781757	0.666775
C55	C	0.213676	0.108486	0.000112
C56	C	0.547009	0.441819	0.333445
C57	C	0.880343	0.775153	0.666779
C58	C	0.203893	0.250737	0.000099
C59	C	0.537227	0.584070	0.333432
C60	C	0.870560	0.917403	0.666766
C61	C	0.286095	0.257339	0.000088
C62	C	0.619428	0.590673	0.333421
C63	C	0.952762	0.924006	0.666755
C64	C	0.332084	0.189517	0.000098
C65	C	0.665418	0.522850	0.333431
C66	C	0.998751	0.856183	0.666765
N67	N	0.457174	0.135727	0.000094
N68	N	0.790507	0.469060	0.333428
N69	N	1.123841	0.802394	0.666761
N70	N	0.416105	0.196275	0.000094
N71	N	0.749439	0.529608	0.333428
N72	N	1.082772	0.862941	0.666761
C73	C	0.933370	0.022443	0.000098
C74	C	1.266703	0.355776	0.333431
C75	C	1.600036	0.689110	0.666764
C76	C	0.926341	-0.065042	0.000097
C77	C	1.259674	0.268292	0.333430
C78	C	1.593007	0.601625	0.666763
C79	C	0.994158	-0.111032	0.000105
C80	C	1.327492	0.222301	0.333438
C81	C	1.660825	0.555634	0.666772
C82	C	0.987550	-0.193233	0.000096
C83	C	1.320883	0.140100	0.333430
C84	C	1.654216	0.473433	0.666763
C85	C	0.913123	-0.229442	0.000086
C86	C	1.246456	0.103891	0.333419
C87	C	1.579789	0.437225	0.666752
C88	C	0.845300	-0.183446	0.000075
C89	C	1.178633	0.149888	0.333408
C90	C	1.511967	0.483221	0.666742
C91	C	0.851910	-0.101246	0.000078
C92	C	1.185243	0.232087	0.333411
C93	C	1.518576	0.565420	0.666744
C94	C	0.885729	-0.474757	0.000071
C95	C	1.219062	-0.141424	0.333404
C96	C	1.552395	0.191910	0.666738
C97	C	0.879124	-0.556962	0.000071
C98	C	1.212458	-0.223629	0.333404
C99	C	1.545791	0.109704	0.666738
C100	C	1.021375	-0.566745	0.000091
C101	C	1.354708	-0.233411	0.333424
C102	C	1.688041	0.099922	0.666758
C103	C	1.027978	-0.484543	0.000099
C104	C	1.361311	-0.151210	0.333432
C105	C	1.694644	0.182124	0.666765
C106	C	0.960155	-0.438554	0.000083
C107	C	1.293488	-0.105221	0.333417
C108	C	1.626822	0.228113	0.666750
N109	N	0.906366	-0.313465	0.000079
N110	N	1.239699	0.019869	0.333413
N111	N	1.573032	0.353202	0.666746
N112	N	0.966913	-0.354533	0.000084
N113	N	1.300246	-0.021200	0.333417
N114	N	1.633580	0.312134	0.666750
C115	C	1.080201	0.169275	0.000105
C116	C	1.413534	0.502608	0.333439
C117	C	1.746867	0.835942	0.666772
C118	C	1.167685	0.176304	0.000109
C119	C	1.501018	0.509637	0.333442
C120	C	1.834352	0.842970	0.666776
C121	C	0.939913	0.309563	0.000084
C122	C	1.273246	0.642896	0.333417
C123	C	1.606579	0.976229	0.666750
C124	C	0.946942	0.397047	0.000079
C125	C	1.280275	0.730380	0.333412
C126	C	1.613608	1.063714	0.666746
N127	N	0.926930	0.175675	0.216427
N128	N	1.260263	0.509008	0.549760
N129	N	1.593596	0.842341	0.883093
N130	N	0.946358	0.156325	-0.216243
N131	N	1.279692	0.489659	0.117090
N132	N	1.613025	0.822992	0.450423
C133	C	0.975152	0.127492	0.260129
C134	C	1.308485	0.460825	0.593462
C135	C	1.641819	0.794158	0.926795
C136	C	0.971241	0.131404	0.347535
C137	C	1.304574	0.464738	0.680868
C138	C	1.637907	0.798071	1.014201
C139	C	0.919110	0.183504	0.391237
C140	C	1.252444	0.516838	0.724571
C141	C	1.585777	0.850171	1.057904
C142	C	0.870883	0.231689	0.347529
C143	C	1.204216	0.565023	0.680863
C144	C	1.537550	0.898356	1.014196
C145	C	0.874791	0.227772	0.260125
C146	C	1.208124	0.561105	0.593458
C147	C	1.541457	0.894439	0.926791
C148	C	0.902039	0.200593	0.652644
C149	C	1.235372	0.533926	0.985977
C150	C	1.568705	0.867260	1.319311
C151	C	0.898136	0.204508	0.740055
C152	C	1.231470	0.537842	1.073388
C153	C	1.564803	0.871175	1.406721
C154	C	0.998493	0.104222	0.740054
C155	C	1.331827	0.437555	1.073387
C156	C	1.665160	0.770888	1.406721
C157	C	1.002400	0.100313	0.652648
C158	C	1.335733	0.433646	0.985981
C159	C	1.669067	0.766979	1.319315
C160	C	0.954169	0.148494	0.608948
C161	C	1.287503	0.481828	0.942281
C162	C	1.620836	0.815161	1.275614
N163	N	0.915113	0.187507	0.480580
N164	N	1.248446	0.520840	0.813914
N165	N	1.581780	0.854174	1.147247
N166	N	0.958163	0.144487	0.519606
N167	N	1.291497	0.477821	0.852939
N168	N	1.624830	0.811154	1.186273
H169	H	0.539963	0.272136	0.000072
H170	H	0.873296	0.605469	0.333405
H171	H	1.206630	0.938802	0.666739
F172	F	0.548655	-0.004550	0.000106
F173	F	0.881988	0.328783	0.333439
F174	F	1.215322	0.662116	0.666772
F175	F	0.815397	0.287135	0.394041
F176	F	1.148731	0.620468	0.727375
F177	F	1.482064	0.953802	1.060708
F178	F	1.107194	-0.446014	0.000089
F179	F	1.440527	-0.112681	0.333422
F180	F	1.773861	0.220653	0.666756
F181	F	1.049818	0.052945	0.786568
F182	F	1.383152	0.386278	1.119902
F183	F	1.716485	0.719611	1.453235
H184	H	0.315571	0.317945	0.000071
H185	H	0.648904	0.651279	0.333404
H186	H	0.982237	0.984612	0.666737
F187	F	1.093551	-0.615695	0.000106
F188	F	1.426884	-0.282362	0.333439
F189	F	1.760217	0.050972	0.666772
H190	H	0.689081	0.284126	0.000056
H191	H	1.022415	0.617459	0.333389
H192	H	1.355748	0.950793	0.666722
F193	F	1.030640	0.072043	0.213625
F194	F	1.363974	0.405376	0.546959
F195	F	1.697307	0.738710	0.880292
F196	F	0.718339	0.009089	0.000091
F197	F	1.051673	0.342423	0.333424
F198	F	1.385006	0.675756	0.666758
H199	H	0.835522	0.267007	0.224543
H200	H	1.168855	0.600340	0.557877
H201	H	1.502189	0.933673	0.891210
H202	H	1.010506	0.092170	0.383116
H203	H	1.343840	0.425503	0.716450
H204	H	1.677173	0.758836	1.049783
F205	F	0.344816	0.042907	0.000119
F206	F	0.678150	0.376240	0.333453
F207	F	1.011483	0.709573	0.666786
H208	H	0.818513	-0.586440	0.000076
H209	H	1.151846	-0.253107	0.333409
H210	H	1.485180	0.080227	0.666742
H211	H	1.042774	-0.230676	0.000105
H212	H	1.376108	0.102658	0.333438
H213	H	1.709441	0.435991	0.666771
F214	F	0.813545	-0.425822	0.000053
F215	F	1.146879	-0.092489	0.333386
F216	F	1.480212	0.240844	0.666720
F217	F	1.073374	-0.072503	0.000125
F218	F	1.406708	0.260830	0.333458
F219	F	1.740041	0.594163	0.666791
F220	F	1.057883	0.044863	0.606138
F221	F	1.391216	0.378196	0.939471
F222	F	1.724550	0.711530	1.272804
H223	H	0.855683	0.246937	0.775633
H224	H	1.189017	0.580271	1.108967
H225	H	1.522350	0.913604	1.442300
H226	H	0.784700	-0.212933	0.000061
H227	H	1.118033	0.120400	0.333394
H228	H	1.451367	0.453733	0.666727
F229	F	0.779729	-0.052300	0.000066
F230	F	1.113062	0.281033	0.333400
F231	F	1.446395	0.614367	0.666733
F232	F	0.850711	0.251873	0.606142
F233	F	1.184045	0.585207	0.939475
F234	F	1.517378	0.918540	1.272808
F235	F	0.175141	0.029267	0.000136
F236	F	0.508475	0.362601	0.333470
F237	F	0.841808	0.695934	0.666803
H238	H	0.166440	0.305954	0.000092
H239	H	0.499774	0.639287	0.333426
H240	H	0.833107	0.972621	0.666759
