data_functionalizedCrystal
_audit_creation_method	'MofGen! by Chris Wilmer'
_symmetry_space_group_name_H-M	'P1'
_symmetry_Int_Tables_number	1
_symmetry_cell_setting	triclinic
loop_
_symmetry_equiv_pos_as_xyz
  x,y,z
_cell_length_a	12.594516
_cell_length_b	12.759401
_cell_length_c	12.759393
_cell_angle_alpha	90.018496
_cell_angle_beta	89.970876
_cell_angle_gamma	89.983786
loop_
_atom_site_label
_atom_site_type_symbol
_atom_site_fract_x
_atom_site_fract_y
_atom_site_fract_z
Zn1	Zn	-0.423675	-1.606246	-0.593999
Zn2	Zn	-0.601694	-1.606136	-0.418327
Zn3	Zn	-0.423730	-1.430547	-0.418339
Zn4	Zn	-0.601612	-1.430532	-0.593968
O5	O	-0.512678	-1.518365	-0.506158
O6	O	-0.447300	-1.753252	-0.570704
O7	O	-0.578144	-1.582804	-0.271307
O8	O	-0.274777	-1.453907	-0.441658
O9	O	-0.578090	-1.753171	-0.441638
O10	O	-0.274736	-1.582991	-0.570715
O11	O	-0.447395	-1.453800	-0.271316
O12	O	-0.447316	-1.283524	-0.441628
O13	O	-0.577951	-1.453880	-0.740993
O14	O	-0.578005	-1.283513	-0.570663
O15	O	-0.447221	-1.582976	-0.741016
O16	O	-0.750629	-1.582789	-0.441608
O17	O	-0.750569	-1.453774	-0.570651
C18	C	-0.512658	-1.245398	-0.506144
C19	C	-0.512676	-1.128621	-0.506163
C20	C	-0.789219	-1.518296	-0.506148
C21	C	-0.907524	-1.518363	-0.506179
C22	C	-0.512570	-1.518439	-0.780192
C23	C	-0.512525	-1.518470	-0.896968
C24	C	-0.976783	-1.448185	-0.576316
C25	C	-1.047654	-1.422585	-0.480449
C26	C	-1.047453	-1.544058	-0.602062
C27	C	-0.976836	-1.492713	-0.410261
C28	C	-0.976629	-1.614230	-0.531938
C29	C	-1.047468	-1.588667	-0.436006
C30	C	-0.235057	-1.518463	-0.506192
C31	C	-0.116752	-1.518505	-0.506206
C32	C	-0.512698	-1.792398	-0.506173
C33	C	-0.512707	-1.909175	-0.506179
C34	C	-0.580834	-1.073781	-0.573240
C35	C	-0.580848	-0.964057	-0.573251
C36	C	-0.444541	-0.964023	-0.439099
C37	C	-0.444523	-1.073745	-0.439094
C38	C	-0.659533	-1.073799	-0.650688
C39	C	-0.659547	-0.964075	-0.650700
C40	C	-0.444447	-1.585700	-0.951844
C41	C	-0.444409	-1.585725	-1.061568
C42	C	-0.580534	-1.451288	-1.061531
C43	C	-0.580567	-1.451258	-0.951809
C44	C	-0.365859	-1.663319	-0.951866
C45	C	-0.365821	-1.663344	-1.061590
C46	C	-0.512708	-1.518352	-0.233191
C47	C	-0.512454	-1.518525	-0.116415
H48	H	-0.945746	-1.388731	-0.635542
H49	H	-0.741961	-0.934278	-0.628771
O50	O	-0.620574	-0.919030	-0.753154
H51	H	-0.549234	-0.870095	-0.738613
O52	O	-0.653918	-1.378794	-1.120681
H53	H	-0.708067	-1.425802	-1.170662
O54	O	-0.404981	-1.765674	-0.906767
H55	H	-0.425693	-1.819965	-0.971591
O56	O	-0.262071	-1.624805	-1.106694
H57	H	-0.247284	-1.543379	-1.079780
O58	O	-0.653937	-1.378693	-0.892617
H59	H	-0.701232	-1.331954	-0.949187
O60	O	-0.395069	-1.771119	-1.101054
H61	H	-0.475349	-1.792246	-1.072027
O62	O	-0.256679	-1.634490	-0.912430
H63	H	-0.203202	-1.620386	-0.980141
H64	H	-0.389052	-0.919330	-0.384496
O65	O	-0.630410	-1.113296	-0.758513
H66	H	-0.557311	-1.161629	-0.753382
O67	O	-1.088980	-1.315281	-0.451584
H68	H	-1.060678	-1.257106	-0.509902
H69	H	-0.945945	-1.470943	-0.329163
H70	H	-1.078309	-1.648075	-0.376636
O71	O	-0.935511	-1.721594	-0.560845
H72	H	-0.885776	-1.715740	-0.632442
O73	O	-1.088539	-1.572780	-0.709454
H74	H	-1.060228	-1.514341	-0.767503
O75	O	-0.371013	-1.132885	-0.366733
H76	H	-0.287502	-1.111836	-0.384883
O77	O	-0.763198	-1.118869	-0.611909
H78	H	-0.818175	-1.054029	-0.591360
