data_functionalizedCrystal
_audit_creation_method	'MofGen! by Chris Wilmer'
_symmetry_space_group_name_H-M	'P1'
_symmetry_Int_Tables_number	1
_symmetry_cell_setting	triclinic
loop_
_symmetry_equiv_pos_as_xyz
  x,y,z
_cell_length_a	13.897449
_cell_length_b	19.121063
_cell_length_c	13.897441
_cell_angle_alpha	92.405670
_cell_angle_beta	89.979267
_cell_angle_gamma	92.470221
loop_
_atom_site_label
_atom_site_type_symbol
_atom_site_fract_x
_atom_site_fract_y
_atom_site_fract_z
Zn1	Zn	1.458257	-0.279567	-0.561726
Zn2	Zn	1.451242	-0.397031	-0.407294
Zn3	Zn	1.296944	-0.279601	-0.400446
Zn4	Zn	1.290021	-0.396984	-0.568544
O5	O	1.374116	-0.338296	-0.484503
O6	O	1.592308	-0.295154	-0.541253
O7	O	1.430735	-0.381487	-0.271406
O8	O	1.324176	-0.181312	-0.416120
O9	O	1.587154	-0.381454	-0.427793
O10	O	1.442692	-0.181287	-0.534612
O11	O	1.317374	-0.295211	-0.266375
O12	O	1.161045	-0.295166	-0.422732
O13	O	1.312377	-0.381375	-0.702620
O14	O	1.155958	-0.381408	-0.546233
O15	O	1.435979	-0.295109	-0.697610
O16	O	1.424022	-0.495309	-0.434404
O17	O	1.305574	-0.495275	-0.552874
C18	C	1.123502	-0.338286	-0.484480
C19	C	1.016288	-0.338299	-0.484494
C20	C	1.363311	-0.520776	-0.495143
C21	C	1.358777	-0.598842	-0.499727
C22	C	0.819992	-0.338302	-0.484520
C23	C	0.929225	-0.338298	-0.484503
C24	C	1.418365	-0.635512	-0.440252
C25	C	1.414106	-0.708863	-0.444569
C26	C	1.350255	-0.745543	-0.508358
C27	C	1.290665	-0.708868	-0.567840
C28	C	1.294929	-0.635518	-0.563527
C29	C	1.334297	-0.967012	-0.524468
C30	C	1.330035	-1.040367	-0.528775
C31	C	1.453478	-1.040357	-0.405504
C32	C	1.457733	-0.967006	-0.401192
C33	C	1.398147	-0.930337	-0.460678
C34	C	1.345898	-0.820519	-0.512770
C35	C	1.402509	-0.855362	-0.456270
C36	C	1.625708	-0.338306	-0.484526
C37	C	1.732922	-0.338310	-0.484536
C38	C	1.374188	-0.338234	-0.736092
C39	C	1.374219	-0.338207	-0.843305
C40	C	1.384989	-0.155103	-0.473842
C41	C	1.389623	-0.077037	-0.469299
C42	C	1.374248	-0.338160	-1.039597
C43	C	1.374229	-0.338188	-0.930366
C44	C	1.374103	-0.338307	-0.233889
C45	C	1.374271	-0.338135	-0.126665
H46	H	1.470355	-0.605652	-0.388304
C47	C	1.229385	-0.595178	-0.628948
H48	H	1.241076	-0.546240	-0.617252
H49	H	1.163880	-0.607244	-0.615488
H50	H	1.242781	-0.607155	-0.694478
H51	H	1.454500	-0.825495	-0.404337
H52	H	1.462628	-0.738716	-0.396136
H53	H	1.293908	-0.850392	-0.564705
H54	H	1.509726	-0.937142	-0.349250
H55	H	1.278051	-1.070230	-0.580736
C56	C	1.519024	-1.080694	-0.340083
H57	H	1.507348	-1.129631	-0.351790
H58	H	1.505642	-1.068718	-0.274556
H59	H	1.584530	-1.068624	-0.353558
C60	C	1.220428	-0.749214	-0.638004
H61	H	1.226414	-0.798151	-0.632048
H62	H	1.235207	-0.737150	-0.702119
H63	H	1.156319	-0.737238	-0.623116
C64	C	1.268738	-0.926686	-0.589883
H65	H	1.230091	-0.959038	-0.628478
H66	H	1.307267	-0.898022	-0.630266
H67	H	1.228389	-0.898123	-0.551253
