data_functionalizedCrystal
_audit_creation_method	'MofGen! by Chris Wilmer'
_symmetry_space_group_name_H-M	'P1'
_symmetry_Int_Tables_number	1
_symmetry_cell_setting	triclinic
loop_
_symmetry_equiv_pos_as_xyz
  x,y,z
_cell_length_a	19.188928
_cell_length_b	16.109295
_cell_length_c	15.186229
_cell_angle_alpha	89.997290
_cell_angle_beta	89.982786
_cell_angle_gamma	83.301500
loop_
_atom_site_label
_atom_site_type_symbol
_atom_site_fract_x
_atom_site_fract_y
_atom_site_fract_z
O1	O	-0.926382	-0.103790	0.073563
O2	O	-0.723103	-0.117765	0.073490
O3	O	-0.830329	0.010272	0.073530
O4	O	-0.819157	-0.231828	0.073523
O5	O	-0.830328	0.010280	-0.072928
O6	O	-0.723103	-0.117758	-0.072968
O7	O	-0.926382	-0.103783	-0.072894
Zn8	Zn	-0.824742	-0.110769	-0.096184
Zn9	Zn	-0.824743	-0.110779	0.096780
O10	O	-0.819156	-0.231820	-0.072934
C11	C	-0.697091	-0.117309	0.000252
C12	C	-0.619583	-0.115952	0.000224
C13	C	-0.574833	-0.191080	0.000233
C14	C	-0.502007	-0.189804	0.000238
C15	C	-0.473933	-0.113397	0.000252
C16	C	-0.518692	-0.038259	0.000237
C17	C	-0.591517	-0.039536	0.000223
N18	N	-0.365817	-0.054996	0.050128
N19	N	-0.296636	-0.053788	0.050143
C20	C	-0.254515	-0.109543	0.000292
N21	N	-0.284188	-0.166565	-0.049564
N22	N	-0.353375	-0.167776	-0.049575
C23	C	-0.394967	-0.112003	0.000266
C24	C	-0.130797	-0.183293	0.000306
C25	C	-0.057970	-0.182015	0.000305
C26	C	-0.074657	-0.030467	0.000314
C27	C	-0.147483	-0.031748	0.000305
C28	C	-0.175549	-0.108163	0.000305
C29	C	0.047606	-0.104241	0.000330
C30	C	-0.029901	-0.105606	0.000318
C31	C	-0.829877	0.041249	0.000303
C32	C	-0.828522	0.133541	0.000309
N33	N	-0.824744	-0.110780	0.228472
C34	C	-0.888997	0.356014	0.000363
C35	C	-0.887718	0.442731	0.000377
C36	C	-0.760501	0.422434	0.000327
C37	C	-0.761780	0.335719	0.000319
C38	C	-0.826030	0.302512	0.000333
C39	C	-0.823472	0.475943	0.000355
C40	C	-0.822086	0.569965	0.000370
C41	C	-0.827417	0.208484	0.000319
C42	C	-0.819612	0.737203	0.000316
C43	C	-0.820980	0.644914	0.000378
N44	N	-0.824746	-0.110761	-0.227877
C45	C	-0.872315	-0.054194	0.454213
C46	C	-0.872317	-0.054192	0.546403
C47	C	-0.777173	-0.167353	0.546376
C48	C	-0.777175	-0.167359	0.454188
C49	C	-0.824745	-0.110774	0.408109
C50	C	-0.824745	-0.110767	0.592487
C51	C	-0.824747	-0.110765	0.692443
C52	C	-0.824744	-0.110777	0.308147
H53	H	-0.465564	-0.250984	0.000243
C54	C	-0.725411	-0.228697	0.404172
C55	C	-0.656844	-0.215241	0.426544
C56	C	-0.609145	-0.271721	0.380478
H57	H	-0.732790	-0.284230	0.419251
H58	H	-0.732180	-0.220593	0.342661
H59	H	-0.650077	-0.223351	0.488042
H60	H	-0.649443	-0.159719	0.411463
H61	H	-0.615915	-0.263617	0.318967
H62	H	-0.616531	-0.327250	0.395561
H63	H	-0.562618	-0.262593	0.395645
C64	C	-0.488176	0.044674	0.000437
C65	C	-0.446898	0.049840	0.075808
C66	C	-0.418785	0.126233	0.076023
H67	H	-0.460045	0.048407	-0.050569
H68	H	-0.525241	0.089262	0.000477
H69	H	-0.409838	0.005265	0.075759
H70	H	-0.475013	0.046122	0.126825
H71	H	-0.455850	0.170821	0.076063
H72	H	-0.390657	0.129959	0.025014
H73	H	-0.390780	0.129751	0.127165
H74	H	-0.597679	-0.253303	0.000235
C75	C	-0.640142	0.042010	0.000040
C76	C	-0.682404	0.045717	-0.075324
C77	C	-0.727200	0.120830	-0.075525
H78	H	-0.668979	0.044737	0.051051
H79	H	-0.613020	0.087725	-0.000000
H80	H	-0.709524	0.000015	-0.075275
H81	H	-0.653586	0.043004	-0.126346
H82	H	-0.700078	0.166545	-0.075566
H83	H	-0.756032	0.123550	-0.024511
H84	H	-0.755875	0.123359	-0.126662
H85	H	-0.021534	-0.243195	0.000308
C86	C	-0.161140	-0.266339	0.000251
C87	C	-0.106358	-0.331863	0.000227
C88	C	-0.134279	-0.408377	0.000164
H89	H	-0.189207	-0.270111	0.051306
H90	H	-0.189166	-0.270028	-0.050847
H91	H	-0.078343	-0.328176	0.051319
H92	H	-0.078286	-0.328119	-0.050824
H93	H	-0.162306	-0.412065	-0.050933
H94	H	-0.162347	-0.412140	0.051221
H95	H	-0.097115	-0.452844	0.000141
H96	H	-0.051800	0.031746	0.000379
C97	C	-0.958823	0.320121	0.000436
C98	C	-1.013692	0.385541	0.000492
C99	C	-1.078027	0.352512	0.000575
H100	H	-0.962071	0.286735	-0.050624
H101	H	-0.961999	0.286734	0.051529
H102	H	-1.010517	0.418915	-0.050596
H103	H	-1.010466	0.418933	0.051548
H104	H	-1.081203	0.319124	0.051668
H105	H	-1.081268	0.319126	-0.050485
H106	H	-1.115263	0.396894	0.000622
C107	C	-0.195957	0.049912	0.000351
C108	C	-0.155787	0.117101	0.000386
C109	C	-0.200418	0.192342	0.000437
H110	H	-0.224712	0.052685	-0.050713
H111	H	-0.224721	0.052605	0.051439
H112	H	-0.127036	0.114409	-0.050697
H113	H	-0.127035	0.114355	0.051446
H114	H	-0.229181	0.195035	0.051525
H115	H	-0.229170	0.195107	-0.050628
H116	H	-0.173169	0.237939	0.000469
H117	H	-0.938992	0.486290	0.000404
C118	C	-0.690695	0.458373	0.000168
C119	C	-0.652625	0.431147	-0.075186
C120	C	-0.588311	0.464226	-0.075358
H121	H	-0.698849	0.517677	0.000130
H122	H	-0.664731	0.439961	0.051203
H123	H	-0.678583	0.449564	-0.126208
H124	H	-0.644452	0.371848	-0.075164
H125	H	-0.562348	0.445814	-0.024323
H126	H	-0.596472	0.523529	-0.075394
H127	H	-0.562470	0.445752	-0.126481
H128	H	-0.710501	0.292154	0.000297
H129	H	-0.738441	-0.213422	0.583903
C130	C	-0.924041	0.007274	0.404342
C131	C	-0.965713	0.056812	0.464455
C132	C	-1.013377	0.113439	0.418550
H133	H	-0.899079	0.041953	0.368365
H134	H	-0.953081	-0.022600	0.368412
H135	H	-0.936677	0.086684	0.500370
H136	H	-0.990690	0.022156	0.500435
H137	H	-1.042417	0.083565	0.382620
H138	H	-0.988410	0.148112	0.382573
H139	H	-1.041661	0.147051	0.459329
C140	C	-0.923796	0.007415	0.596492
C141	C	-0.886623	0.058272	0.649320
C142	C	-0.933999	0.115088	0.695446
H143	H	-0.952086	0.041184	0.555879
H144	H	-0.952852	-0.022316	0.632574
H145	H	-0.857579	0.088001	0.613240
H146	H	-0.858336	0.024526	0.689949
H147	H	-0.963055	0.085357	0.731529
H148	H	-0.962287	0.148851	0.654827
H149	H	-0.908784	0.149596	0.731302
