data_functionalizedCrystal
_audit_creation_method	'MofGen! by Chris Wilmer'
_symmetry_space_group_name_H-M	'P1'
_symmetry_Int_Tables_number	1
_symmetry_cell_setting	triclinic
loop_
_symmetry_equiv_pos_as_xyz
  x,y,z
_cell_length_a	15.944499
_cell_length_b	15.944551
_cell_length_c	15.021413
_cell_angle_alpha	89.990496
_cell_angle_beta	89.992397
_cell_angle_gamma	83.488174
loop_
_atom_site_label
_atom_site_type_symbol
_atom_site_fract_x
_atom_site_fract_y
_atom_site_fract_z
O1	O	1.114551	0.108130	-0.074087
O2	O	0.869996	0.121531	-0.074078
O3	O	0.998952	-0.007445	-0.074075
O4	O	0.985595	0.237107	-0.074090
O5	O	0.998940	-0.007459	0.073989
O6	O	0.869984	0.121518	0.073987
O7	O	1.114540	0.108117	0.073977
Zn8	Zn	0.992260	0.114815	0.097490
Zn9	Zn	0.992275	0.114833	-0.097591
O10	O	0.985584	0.237093	0.073974
C11	C	0.838695	0.120976	-0.000044
C12	C	0.745447	0.119331	-0.000040
C13	C	0.453911	0.194263	-0.000058
C14	C	0.514946	0.155318	-0.073061
C15	C	0.409810	0.113355	-0.000060
C16	C	0.514921	0.155283	0.072919
C17	C	0.574719	0.116296	-0.000049
C18	C	0.469617	0.074387	-0.073123
C19	C	0.469585	0.074364	0.072922
C20	C	0.530603	0.035360	-0.000098
C21	C	0.314810	0.111663	-0.000068
C22	C	0.669718	0.117981	-0.000048
C23	C	0.998392	-0.038746	-0.000042
C24	C	0.996729	-0.131992	-0.000042
C25	C	0.912823	-0.346833	-0.000051
C26	C	0.951781	-0.407864	0.072952
C27	C	0.993722	-0.302717	-0.000049
C28	C	0.951811	-0.407834	-0.073027
C29	C	0.990811	-0.467629	-0.000059
C30	C	1.032702	-0.362520	0.073015
C31	C	1.032721	-0.362484	-0.073031
C32	C	1.071737	-0.423497	-0.000010
C33	C	0.995397	-0.207715	-0.000042
C34	C	0.989143	-0.562630	-0.000059
C35	C	1.145840	0.108672	-0.000058
C36	C	1.239089	0.110317	-0.000068
C37	C	0.986144	0.268394	-0.000060
C38	C	0.987806	0.361640	-0.000067
N39	N	0.992256	0.114803	0.230628
N40	N	0.992286	0.114838	-0.230728
C41	C	1.051439	0.054691	0.529620
C42	C	1.068427	0.130358	0.470248
C43	C	0.992276	0.114828	0.587665
C44	C	0.975319	0.039151	0.470295
C45	C	0.992269	0.114812	0.412241
C46	C	1.009302	0.190534	0.529599
C47	C	0.916160	0.099277	0.529651
C48	C	0.933116	0.174999	0.470306
C49	C	0.992283	0.114837	0.688722
C50	C	0.992262	0.114812	0.311185
H51	H	0.534991	0.189513	0.134634
H52	H	1.066885	-0.342541	0.134801
O53	O	0.873511	0.235831	0.439465
C54	C	0.891694	0.315451	0.469865
H55	H	0.961745	0.312435	0.486421
H56	H	0.852846	0.333651	0.532053
C57	C	0.783370	0.385617	0.376366
C58	C	0.869409	0.381915	0.396693
H59	H	0.769620	0.426616	0.331233
H60	H	0.771117	0.331976	0.355887
H61	H	0.751007	0.400780	0.428196
H62	H	0.901770	0.366741	0.344867
H63	H	0.881667	0.435555	0.417162
O64	O	0.839429	0.083411	0.560770
C65	C	0.821791	0.003540	0.530589
H66	H	0.883430	-0.036839	0.513919
H67	H	0.780528	0.011566	0.468516
C68	C	0.699296	0.009589	0.624467
C69	C	0.775002	-0.040008	0.603999
H70	H	0.670431	-0.017273	0.669747
H71	H	0.711177	0.063401	0.644798
H72	H	0.664920	0.016274	0.572733
H73	H	0.809381	-0.046683	0.655730
H74	H	0.763126	-0.093823	0.583679
O75	O	0.958306	-0.037260	0.439322
C76	C	1.020858	-0.100456	0.469526
H77	H	1.051860	-0.077555	0.532002
H78	H	1.070611	-0.114748	0.415461
C79	C	0.942023	-0.209245	0.414426
C80	C	0.980095	-0.181120	0.491164
H81	H	0.916880	-0.259004	0.427770
H82	H	0.899882	-0.166669	0.394074
H83	H	0.983490	-0.221149	0.369379
H84	H	0.938626	-0.169208	0.536206
H85	H	1.022228	-0.223697	0.511524
O86	O	0.445887	0.033687	-0.146930
C87	C	0.469512	0.076184	-0.223686
H88	H	0.523541	0.114474	-0.206677
H89	H	0.413251	0.120317	-0.248859
C90	C	0.431974	-0.035767	-0.317392
C91	C	0.498338	0.011257	-0.296503
H92	H	0.449751	-0.075815	-0.362311
H93	H	0.416053	-0.064397	-0.265681
H94	H	0.385095	0.001020	-0.338365
H95	H	0.545211	-0.025529	-0.275520
H96	H	0.514267	0.039879	-0.348213
O97	O	0.570157	-0.044826	-0.000296
C98	C	0.547046	-0.087155	-0.077353
H99	H	0.525129	-0.038929	-0.130911
H100	H	0.493570	-0.126275	-0.060630
C101	C	0.650560	-0.204925	-0.045986
C102	C	0.623649	-0.145693	-0.111770
H103	H	0.697810	-0.241037	-0.067214
H104	H	0.666129	-0.176409	0.005931
H105	H	0.605990	-0.237517	-0.032056
H106	H	0.668215	-0.113096	-0.125690
H107	H	0.608089	-0.174205	-0.163690
H108	H	0.535049	0.189548	-0.134779
H109	H	1.023711	0.254542	0.555540
O110	O	0.414043	0.274324	-0.000261
C111	C	0.362625	0.286475	-0.076575
H112	H	0.346435	0.222780	-0.101652
H113	H	0.397845	0.318303	-0.130757
C114	C	0.300637	0.421026	-0.022072
C115	C	0.280746	0.342795	-0.052867
H116	H	0.250131	0.455770	-0.007450
H117	H	0.335280	0.412842	0.029341
H118	H	0.329988	0.447539	-0.067229
H119	H	0.251404	0.316280	-0.007706
H120	H	0.246095	0.350977	-0.104272
O121	O	0.445596	0.033687	0.146646
C122	C	0.468431	0.076544	0.223467
H123	H	0.475171	0.145031	0.205973
H124	H	0.531080	0.044781	0.250104
C125	C	0.391360	-0.010366	0.316517
C126	C	0.399632	0.073753	0.295032
H127	H	0.348925	-0.012091	0.360664
H128	H	0.375978	-0.039242	0.264762
H129	H	0.443572	-0.036826	0.338709
H130	H	0.347424	0.100207	0.272830
H131	H	0.415004	0.102633	0.346785
O132	O	0.910978	-0.431925	-0.146590
C133	C	0.910665	-0.520314	-0.146002
H134	H	0.918991	-0.544708	-0.074846
H135	H	0.964676	-0.550718	-0.189031
C136	C	0.815887	-0.512884	-0.270748
C137	C	0.826106	-0.542844	-0.183352
H138	H	0.763729	-0.526783	-0.293791
H139	H	0.816100	-0.453334	-0.271148
H140	H	0.860902	-0.538223	-0.306595
H141	H	0.781098	-0.517497	-0.147505
H142	H	0.825883	-0.602390	-0.182948
H143	H	0.845673	-0.313513	0.000025
O144	O	1.073400	-0.338345	-0.146688
C145	C	1.018154	-0.281233	-0.196716
H146	H	0.966344	-0.249969	-0.151463
H147	H	0.988561	-0.316687	-0.252284
C148	C	1.131404	-0.251585	-0.293013
C149	C	1.067774	-0.213181	-0.237431
H150	H	1.162011	-0.209609	-0.318132
H151	H	1.168624	-0.290065	-0.259311
H152	H	1.106733	-0.281129	-0.339312
H153	H	1.092446	-0.183647	-0.191127
H154	H	1.030559	-0.174694	-0.271127
O155	O	0.910823	-0.431801	0.146519
C156	C	0.827078	-0.392365	0.146277
H157	H	0.807589	-0.374109	0.075235
H158	H	0.822674	-0.333292	0.189543
C159	C	0.791812	-0.476172	0.270787
C160	C	0.767872	-0.453755	0.183531
H161	H	0.755291	-0.514038	0.293770
H162	H	0.848233	-0.502739	0.270952
H163	H	0.788142	-0.426938	0.306830
H164	H	0.771553	-0.502988	0.147486
H165	H	0.711450	-0.427198	0.183360
H166	H	1.101508	0.003898	0.555663
O167	O	1.145210	0.145932	0.439005
C168	C	1.179693	0.077520	0.386096
H169	H	1.126695	0.041836	0.360095
H170	H	1.225044	0.033214	0.427864
C171	C	1.292784	0.154675	0.338936
C172	C	1.227690	0.110850	0.306996
H173	H	1.322394	0.175232	0.290145
H174	H	1.269554	0.200764	0.374584
H175	H	1.330568	0.117746	0.373743
H176	H	1.189902	0.147782	0.272199
H177	H	1.250915	0.064768	0.271340
H178	H	1.138946	-0.456668	0.000029
