data_functionalizedCrystal
_audit_creation_method	'MofGen! by Chris Wilmer'
_symmetry_space_group_name_H-M	'P1'
_symmetry_Int_Tables_number	1
_symmetry_cell_setting	triclinic
loop_
_symmetry_equiv_pos_as_xyz
  x,y,z
_cell_length_a	11.026607
_cell_length_b	9.065218
_cell_length_c	7.540329
_cell_angle_alpha	89.998243
_cell_angle_beta	89.997535
_cell_angle_gamma	96.800951
loop_
_atom_site_label
_atom_site_type_symbol
_atom_site_fract_x
_atom_site_fract_y
_atom_site_fract_z
O1	O	1.616971	0.619586	-0.147471
O2	O	2.116971	1.119586	0.352529
O3	O	1.262889	0.549033	-0.147474
O4	O	1.762889	1.049033	0.352526
O5	O	1.447249	0.371492	-0.147469
O6	O	1.947249	0.871492	0.352531
O7	O	1.432611	0.797127	-0.147476
O8	O	1.932611	1.297127	0.352524
O9	O	1.447238	0.371486	0.147496
O10	O	1.947238	0.871486	0.647496
O11	O	1.262878	0.549027	0.147491
O12	O	1.762878	1.049027	0.647491
O13	O	1.616960	0.619580	0.147494
O14	O	2.116960	1.119580	0.647494
Cu15	Cu	1.439918	0.584303	0.174425
Cu16	Cu	1.939918	1.084303	0.674425
Cu17	Cu	1.439931	0.584310	-0.174405
Cu18	Cu	1.939931	1.084310	0.325595
O19	O	1.432600	0.797121	0.147489
O20	O	1.932600	1.297121	0.647489
C21	C	1.445836	0.316152	0.000011
C22	C	1.945836	0.816152	0.500011
C23	C	1.441630	0.151260	0.000002
C24	C	1.941630	0.651260	0.500002
C25	C	1.217530	0.536015	0.000008
C26	C	1.717530	1.036015	0.500008
C27	C	1.082389	0.497214	0.000006
C28	C	1.582389	0.997214	0.500006
C29	C	1.009761	0.604348	0.000003
C30	C	1.509761	1.104348	0.500003
C31	C	0.870086	0.564249	0.000001
C32	C	1.370086	1.064249	0.500001
C33	C	1.662319	0.632598	0.000008
C34	C	2.162319	1.132598	0.500008
C35	C	1.797460	0.671399	-0.000002
C36	C	2.297460	1.171399	0.499998
C37	C	1.434012	0.852461	0.000005
C38	C	1.934012	1.352461	0.500005
C39	C	1.438219	1.017353	0.000002
C40	C	1.938219	1.517353	0.500002
N41	N	1.439917	0.584300	0.419774
N42	N	1.939917	1.084300	0.919774
N43	N	1.439941	0.584304	-0.419754
N44	N	1.939941	1.084304	0.080246
H45	H	1.050987	0.725756	0.000011
H46	H	1.550987	1.225756	0.500011
H47	H	1.041163	0.375807	-0.000037
H48	H	1.541163	0.875807	0.499963
H49	H	0.828866	0.442833	-0.000042
H50	H	1.328866	0.942833	0.499958
H51	H	0.838678	0.792815	0.000008
H52	H	1.338678	1.292815	0.500008
