data_functionalizedCrystal
_audit_creation_method	'MofGen! by Chris Wilmer'
_symmetry_space_group_name_H-M	'P1'
_symmetry_Int_Tables_number	1
_symmetry_cell_setting	triclinic
loop_
_symmetry_equiv_pos_as_xyz
  x,y,z
_cell_length_a	11.026607
_cell_length_b	10.654549
_cell_length_c	9.482900
_cell_angle_alpha	99.426458
_cell_angle_beta	78.636152
_cell_angle_gamma	96.536467
loop_
_atom_site_label
_atom_site_type_symbol
_atom_site_fract_x
_atom_site_fract_y
_atom_site_fract_z
O1	O	1.633390	0.511464	-0.120894
O2	O	1.279578	0.451468	-0.120896
O3	O	1.464615	0.300493	-0.120889
O4	O	1.448353	0.662439	-0.120900
O5	O	1.427031	0.331317	0.120902
O6	O	1.241995	0.482292	0.120895
O7	O	1.595806	0.542288	0.120897
Cu8	Cu	1.415469	0.515104	0.142974
Cu9	Cu	1.459916	0.478651	-0.142972
O10	O	1.410770	0.693263	0.120891
C11	C	1.215482	0.455812	-0.000000
C12	C	1.080490	0.422817	-0.000001
C13	C	1.444628	0.268847	0.000005
C14	C	1.441052	0.128627	-0.000000
C15	C	1.007453	0.513920	-0.000005
C16	C	0.867932	0.479821	-0.000006
C17	C	1.655600	-0.114784	0.000009
C18	C	1.767914	-0.038867	0.000012
C19	C	1.771279	0.092881	0.000010
C20	C	1.662317	0.148714	0.000009
C21	C	1.550002	0.072797	0.000006
C22	C	1.546650	-0.058954	0.000003
C23	C	1.328738	0.052709	-0.000004
C24	C	1.325372	-0.079040	-0.000012
C25	C	1.219775	0.108542	-0.000005
C26	C	1.107459	0.032623	-0.000019
C27	C	1.104099	-0.099133	-0.000019
C28	C	1.213057	-0.154958	-0.000016
C29	C	1.659903	0.537944	-0.000001
C30	C	1.794896	0.570937	-0.000010
C31	C	1.430757	0.724908	-0.000006
C32	C	1.434334	0.865127	-0.000011
N33	N	1.384216	0.540744	0.344093
N34	N	1.491178	0.453003	-0.344091
C35	C	1.450689	0.486206	0.416295
C36	C	1.424695	0.507550	0.583711
H37	H	1.048215	0.617162	-0.000000
H38	H	1.222522	0.215821	0.000002
H39	H	1.567333	0.390499	0.593787
H40	H	0.827180	0.376568	-0.000040
H41	H	1.308057	0.603234	0.406220
H42	H	1.526840	0.423705	0.354169
H43	H	0.835650	0.674187	-0.000003
H44	H	1.018750	0.078095	-0.000010
H45	H	1.348531	0.570044	0.645833
H46	H	1.039733	0.319571	-0.000035
H47	H	1.862734	0.154695	0.000021
H48	H	1.856628	-0.084340	0.000018
H49	H	1.652874	-0.222062	-0.000009
H50	H	1.210333	-0.262234	-0.000024
H51	H	1.665064	0.255994	0.000025
H52	H	1.012637	-0.160936	-0.000006
