data_functionalizedCrystal
_audit_creation_method	'MofGen! by Chris Wilmer'
_symmetry_space_group_name_H-M	'P1'
_symmetry_Int_Tables_number	1
_symmetry_cell_setting	triclinic
loop_
_symmetry_equiv_pos_as_xyz
  x,y,z
_cell_length_a	19.077105
_cell_length_b	19.077068
_cell_length_c	19.077174
_cell_angle_alpha	94.657148
_cell_angle_beta	85.483752
_cell_angle_gamma	90.115316
loop_
_atom_site_label
_atom_site_type_symbol
_atom_site_fract_x
_atom_site_fract_y
_atom_site_fract_z
Zn1	Zn	1.080478	-0.341972	-0.455027
Zn2	Zn	1.071301	-0.454742	-0.341487
Zn3	Zn	0.958244	-0.332134	-0.332045
Zn4	Zn	0.958197	-0.454696	-0.454603
O5	O	1.017055	-0.395886	-0.395791
O6	O	1.177751	-0.361068	-0.444095
O7	O	1.052483	-0.434380	-0.241427
O8	O	0.978319	-0.234951	-0.344585
O9	O	1.171009	-0.443920	-0.360677
O10	O	1.068124	-0.242180	-0.434939
O11	O	0.969420	-0.344300	-0.234490
O12	O	0.859748	-0.344255	-0.344174
O13	O	0.978239	-0.443841	-0.553467
O14	O	0.859713	-0.434301	-0.434217
O15	O	1.068079	-0.361024	-0.553779
O16	O	1.052438	-0.553224	-0.360266
O17	O	0.969340	-0.553190	-0.443372
C18	C	0.834193	-0.388206	-0.388125
C19	C	0.755964	-0.384938	-0.384863
C20	C	0.719207	-0.430350	-0.430143
C21	C	0.645702	-0.427270	-0.427081
C22	C	0.608956	-0.378782	-0.378736
C23	C	0.645719	-0.333365	-0.333454
C24	C	0.719222	-0.336442	-0.336520
C25	C	0.389126	-0.364542	-0.364550
C26	C	0.315618	-0.361471	-0.361486
C27	C	0.315607	-0.455375	-0.455114
C28	C	0.389111	-0.458451	-0.458173
C29	C	0.425867	-0.413032	-0.412894
N30	N	0.533823	-0.375634	-0.375603
N31	N	0.500999	-0.416176	-0.416030
C32	C	1.009908	-0.578745	-0.402813
C33	C	1.006916	-0.656976	-0.405844
C34	C	1.048810	-0.693727	-0.364038
C35	C	1.046000	-0.767234	-0.366893
C36	C	1.001291	-0.803989	-0.411551
C37	C	0.959395	-0.767233	-0.453361
C38	C	0.962209	-0.693728	-0.450510
C39	C	0.988234	-1.023827	-0.424718
C40	C	0.985422	-1.097337	-0.427565
C41	C	1.072029	-1.097333	-0.341097
C42	C	1.074836	-1.023826	-0.338247
C43	C	1.032942	-0.987077	-0.380060
N44	N	0.998416	-0.879124	-0.414468
N45	N	1.035821	-0.911943	-0.377146
C46	C	1.200631	-0.403597	-0.403486
C47	C	1.278861	-0.406882	-0.406766
C48	C	1.024177	-0.403525	-0.579959
C49	C	1.027212	-0.406780	-0.658440
C50	C	1.024250	-0.212315	-0.388757
C51	C	1.027316	-0.134088	-0.385759
C52	C	0.985394	-0.361410	-0.691699
C53	C	0.988242	-0.364475	-0.765441
C54	C	1.032914	-0.412906	-0.805923
C55	C	1.074734	-0.458280	-0.772659
C56	C	1.071881	-0.455219	-0.698918
C57	C	1.046080	-0.427094	-1.026851
C58	C	1.048931	-0.430150	-1.100597
C59	C	0.962438	-0.336345	-1.093373
C60	C	0.959592	-0.333285	-1.019632
C61	C	1.001410	-0.378662	-0.986374
N62	N	1.035828	-0.416037	-0.881299
N63	N	0.998491	-0.375533	-0.911000
C64	C	1.010004	-0.388228	-0.212338
C65	C	1.007113	-0.384781	-0.133855
H66	H	0.285672	-0.492352	-0.491979
H67	H	0.922995	-0.797165	-0.489726
C68	C	1.117545	-1.137104	-0.295627
C69	C	1.157290	-1.089182	-0.255897
C70	C	1.199225	-1.125792	-0.213995
H71	H	1.148198	-1.168150	-0.324982
H72	H	1.088374	-1.163394	-0.264787
H73	H	1.186458	-1.062904	-0.286734
H74	H	1.126655	-1.058135	-0.226528
H75	H	1.170053	-1.152081	-0.183155
H76	H	1.229873	-1.156836	-0.243356
H77	H	1.226191	-1.093282	-0.187028
C78	C	0.911208	-0.280624	-0.975643
C79	C	0.951192	-0.235421	-0.933264
C80	C	0.906647	-0.186894	-0.892737
H81	H	0.878363	-0.304982	-0.946561
H82	H	0.886719	-0.253998	-1.005986
H83	H	0.975669	-0.262044	-0.902924
H84	H	0.984035	-0.211047	-0.962328
H85	H	0.882159	-0.160268	-0.923081
H86	H	0.873805	-0.211258	-0.863660
H87	H	0.933771	-0.156214	-0.863984
H88	H	0.615778	-0.464250	-0.463952
C89	C	1.117162	-0.504557	-0.662766
C90	C	1.073900	-0.546246	-0.620504
C91	C	1.115586	-0.591715	-0.587198
H92	H	1.147779	-0.477810	-0.634198
H93	H	1.144163	-0.533880	-0.697413
H94	H	1.046912	-0.516927	-0.585862
H95	H	1.043284	-0.573008	-0.649055
H96	H	1.142586	-0.621037	-0.621845
H97	H	1.146201	-0.564962	-0.558634
H98	H	1.086239	-0.620010	-0.558525
C99	C	0.916644	-0.653949	-0.495931
C100	C	0.876875	-0.701867	-0.535639
C101	C	0.834890	-0.665250	-0.577487
H102	H	0.945762	-0.627644	-0.526789
H103	H	0.886012	-0.622917	-0.466519
H104	H	0.907504	-0.732887	-0.565048
H105	H	0.847744	-0.728174	-0.504798
H106	H	0.804257	-0.634218	-0.548076
H107	H	0.864012	-0.638946	-0.608341
H108	H	0.807896	-0.697756	-0.604429
C109	C	0.917061	-0.287170	-1.129614
C110	C	0.929104	-0.300227	-1.202857
C111	C	0.887304	-0.254947	-1.236263
H112	H	0.928705	-0.239786	-1.116232
H113	H	0.868888	-0.294994	-1.115980
H114	H	0.977267	-0.292398	-1.216485
H115	H	0.917456	-0.347602	-1.216259
H116	H	0.839130	-0.262770	-1.222629
H117	H	0.898951	-0.207566	-1.222876
H118	H	0.895464	-0.263804	-1.285962
C119	C	1.091573	-0.476384	-0.990881
C120	C	1.131322	-0.519433	-1.042119
C121	C	1.173250	-0.564840	-1.009007
H122	H	1.062418	-0.504794	-0.962162
H123	H	1.122218	-0.449568	-0.962389
H124	H	1.100680	-0.546246	-1.070599
H125	H	1.160490	-0.491041	-1.070841
H126	H	1.203895	-0.538024	-0.980514
H127	H	1.144089	-0.593246	-0.980288
H128	H	1.200229	-0.594049	-1.043766
H129	H	0.419044	-0.327564	-0.327676
C130	C	0.605697	-0.280788	-0.280992
C131	C	0.533457	-0.287824	-0.287985
C132	C	0.496569	-0.239407	-0.239662
H133	H	0.619909	-0.234419	-0.290045
H134	H	0.615457	-0.289551	-0.234411
H135	H	0.523702	-0.279056	-0.334556
H136	H	0.519224	-0.334183	-0.278926
H137	H	0.506329	-0.248170	-0.193080
H138	H	0.510787	-0.193042	-0.248718
H139	H	0.447550	-0.244179	-0.244395
C140	C	1.123262	-0.983881	-0.289667
C141	C	1.083308	-0.938201	-0.241061
C142	C	1.127892	-0.901401	-0.196289
H143	H	1.156065	-0.957515	-0.316787
H144	H	1.147797	-1.016276	-0.265136
H145	H	1.058785	-0.905811	-0.265590
H146	H	1.050507	-0.964549	-0.213925
H147	H	1.152426	-0.933795	-0.171759
H148	H	1.160693	-0.875039	-0.223415
H149	H	1.100789	-0.870407	-0.163301
H150	H	1.111103	-0.497717	-0.805625
H151	H	0.419024	-0.497937	-0.497539
H152	H	0.749120	-0.469837	-0.469509
H153	H	1.085214	-0.663806	-0.327670
H154	H	0.285702	-0.321977	-0.322122
H155	H	0.954121	-0.993911	-0.458763
H156	H	0.949021	-0.321969	-0.658744
H157	H	0.749149	-0.299459	-0.299652
H158	H	1.080115	-0.797153	-0.332849
C159	C	0.936864	-1.137120	-0.476131
C160	C	0.900793	-1.089206	-0.512155
C161	C	0.856066	-1.125829	-0.556903
H162	H	0.904013	-1.163428	-0.449003
H163	H	0.963849	-1.168150	-0.509187
H164	H	0.873809	-1.058188	-0.479103
H165	H	0.933625	-1.062896	-0.539296
H166	H	0.883051	-1.156859	-0.589960
H167	H	0.823219	-1.152136	-0.529771
H168	H	0.831591	-1.093326	-0.581356
H169	H	0.954186	-0.327532	-0.792517
H170	H	1.085311	-0.469589	-1.133555
