data_functionalizedCrystal
_audit_creation_method	'MofGen! by Chris Wilmer'
_symmetry_space_group_name_H-M	'P1'
_symmetry_Int_Tables_number	1
_symmetry_cell_setting	triclinic
loop_
_symmetry_equiv_pos_as_xyz
  x,y,z
_cell_length_a	14.560432
_cell_length_b	23.196402
_cell_length_c	23.196401
_cell_angle_alpha	60.008822
_cell_angle_beta	90.013895
_cell_angle_gamma	60.001874
loop_
_atom_site_label
_atom_site_type_symbol
_atom_site_fract_x
_atom_site_fract_y
_atom_site_fract_z
Zr1	Zr	0.884748	0.631013	-0.075628
O2	O	0.738072	0.751278	-0.167675
O3	O	0.929708	0.510748	-0.047415
O4	O	0.929667	0.631015	-0.167680
O5	O	0.738149	0.631009	0.047462
O6	O	1.080805	0.631018	-0.167680
O7	O	0.738113	0.631011	-0.047409
O8	O	1.080878	0.415882	0.047452
O9	O	0.738077	0.846145	-0.167671
O10	O	1.061680	0.560217	-0.035378
O11	O	0.948914	0.560214	0.035424
O12	O	0.948867	0.701813	-0.106173
O13	O	0.836101	0.701810	-0.035372
Zr14	Zr	1.125853	0.631015	0.075680
Zr15	Zr	1.125795	0.631017	-0.075629
Zr16	Zr	0.884805	0.631011	0.075680
Zr17	Zr	0.884754	0.782316	-0.075622
Zr18	Zr	1.125846	0.479712	0.075674
O19	O	1.080892	0.751280	0.047467
O20	O	1.080810	0.751283	-0.167675
O21	O	0.738154	0.751274	0.047467
O22	O	1.272528	0.510751	0.167726
O23	O	1.272446	0.510754	-0.047415
O24	O	0.929790	0.510745	0.167727
O25	O	1.272451	0.631019	-0.047410
O26	O	1.080933	0.631013	0.167732
O27	O	0.929795	0.631010	0.167732
O28	O	1.272487	0.631018	0.047461
O29	O	0.929677	0.846148	-0.167671
O30	O	1.080924	0.415880	0.167723
O31	O	1.272524	0.415883	0.167722
O32	O	1.272478	0.415885	0.047452
O33	O	0.738122	0.846143	-0.047400
O34	O	0.929723	0.846146	-0.047400
O35	O	1.061734	0.560215	0.106225
O36	O	1.174499	0.560218	0.035423
O37	O	1.061686	0.701814	-0.035372
O38	O	0.948921	0.701811	0.035430
C39	C	1.005292	0.441758	0.000018
C40	C	1.005289	0.377526	0.000015
C41	C	1.064144	0.347357	-0.036945
C42	C	1.064155	0.286996	-0.036940
C43	C	1.005289	0.256818	0.000017
C44	C	0.946432	0.286991	0.036985
C45	C	0.946432	0.347345	0.036984
C46	C	0.906667	0.194787	-0.005257
C47	C	0.906664	0.134438	-0.005262
C48	C	1.005290	0.070663	0.000024
C49	C	1.103919	0.067253	0.005299
C50	C	1.103919	0.127607	0.005298
C51	C	1.005283	0.191374	0.000022
C52	C	1.064162	-0.024957	-0.036932
C53	C	1.064176	-0.085323	-0.036921
C54	C	0.946442	-0.085321	0.036999
C55	C	0.946439	-0.024962	0.036993
C56	C	1.005296	0.005219	0.000024
C57	C	0.703787	0.631009	0.000026
C58	C	0.601456	0.631008	0.000026
C59	C	0.719217	0.483180	0.073930
C60	C	0.730021	0.409268	0.110879
C61	C	0.633868	0.409272	0.110877
C62	C	0.526904	0.483195	0.073924
C63	C	0.516100	0.557106	0.036976
C64	C	0.612261	0.557094	0.036980
C65	C	0.398341	0.704932	-0.036923
C66	C	0.494492	0.704930	-0.036926
C67	C	0.291376	0.778855	-0.073876
C68	C	0.280571	0.852768	-0.110830
C69	C	0.376732	0.852761	-0.110827
C70	C	0.483688	0.778842	-0.073875
C71	C	1.306813	0.631019	0.000026
C72	C	1.409144	0.631021	0.000025
C73	C	1.005228	0.631017	-0.189239
C74	C	1.005204	0.631018	-0.253473
C75	C	1.005308	0.820270	0.000034
C76	C	1.005311	0.884502	0.000037
C77	C	0.946322	0.704927	-0.320600
C78	C	0.946350	0.704929	-0.380956
C79	C	1.005245	0.631016	-0.374179
C80	C	1.064140	0.557097	-0.307040
C81	C	1.064119	0.557098	-0.246687
C82	C	0.996880	0.574388	-0.441499
C83	C	0.996892	0.574390	-0.501853
C84	C	1.005317	0.631010	-0.560327
C85	C	1.013705	0.687641	-0.558448
C86	C	1.013684	0.687642	-0.498094
C87	C	1.005275	0.631007	-0.439618
C88	C	0.946463	0.704926	-0.692901
C89	C	0.946500	0.704924	-0.753256
C90	C	1.064282	0.557090	-0.679338
C91	C	1.064253	0.557094	-0.618985
C92	C	1.005337	0.631014	-0.625772
C93	C	1.005372	0.631011	0.189290
C94	C	1.005397	0.631010	0.253525
C95	C	1.306805	0.441763	0.000017
C96	C	1.409133	0.377533	0.000015
C97	C	1.005364	0.441755	0.189282
C98	C	1.005386	0.377522	0.253514
C99	C	1.306877	0.441760	0.189282
C100	C	1.409230	0.377529	0.253513
C101	C	0.703723	0.820268	-0.189230
C102	C	0.601371	0.884500	-0.253462
C103	C	0.703795	0.820265	0.000034
C104	C	0.601467	0.884496	0.000037
C105	C	1.005236	0.820273	-0.189230
C106	C	1.005215	0.884506	-0.253462
C107	C	1.398297	0.347369	-0.036951
C108	C	1.494436	0.287026	-0.036968
C109	C	1.601410	0.256844	-0.000015
C110	C	1.612244	0.287014	0.036952
C111	C	1.516106	0.347359	0.036964
C112	C	1.064286	0.347358	0.320642
C113	C	1.064302	0.287013	0.381000
C114	C	1.005424	0.256829	0.374229
C115	C	0.946516	0.286999	0.307094
C116	C	0.946494	0.347347	0.246737
C117	C	1.516168	0.347367	0.246720
C118	C	1.612348	0.287023	0.307066
C119	C	1.601588	0.256838	0.374206
C120	C	1.494638	0.287007	0.380999
C121	C	1.398460	0.347353	0.320653
C122	C	0.494432	0.914669	-0.246668
C123	C	0.398252	0.975031	-0.307015
C124	C	0.409013	1.005219	-0.374155
C125	C	0.515962	0.975047	-0.380947
C126	C	0.612140	0.914690	-0.320601
C127	C	0.612304	0.914666	0.036996
C128	C	0.516165	0.975025	0.036996
C129	C	0.409191	1.005209	0.000041
C130	C	0.398357	0.975037	-0.036922
C131	C	0.494495	0.914683	-0.036926
C132	C	1.064105	0.914671	-0.246669
C133	C	1.064106	0.975017	-0.307015
C134	C	1.005211	1.005200	-0.374155
C135	C	0.946319	0.975029	-0.380948
C136	C	0.946324	0.914681	-0.320601
H137	H	0.898509	-0.000396	0.067087
H138	H	0.561988	0.778829	-0.073871
H139	H	0.485649	0.890093	-0.192005
H140	H	0.898513	-0.109892	0.067090
N141	N	1.127859	0.254476	0.453401
H142	H	1.187114	0.193894	0.480089
H143	H	1.073808	0.265040	0.480039
H144	H	1.112061	0.999576	-0.301471
N145	N	1.482736	0.254495	-0.076841
H146	H	1.400379	0.282770	-0.100240
H147	H	1.520077	0.193910	-0.042914
H148	H	0.898364	0.890127	-0.326143
N149	N	1.022786	0.748719	-0.621511
H150	H	1.021532	0.740125	-0.660029
H151	H	1.095573	0.741138	-0.607149
N152	N	0.882975	0.379897	0.174325
H153	H	0.823727	0.440479	0.147643
H154	H	0.845738	0.351573	0.179234
H155	H	0.525008	0.999581	0.067099
H156	H	0.826343	0.246722	-0.009576
N157	N	1.210304	-0.001530	0.011005
H158	H	1.272780	0.005469	0.014346
H159	H	1.196942	-0.000810	-0.032147
H160	H	1.184226	0.124826	0.009596
H161	H	0.990056	0.528280	-0.503378
N162	N	0.987799	0.513313	-0.378429
H163	H	0.982479	0.477443	-0.388779
H164	H	0.918303	0.543157	-0.368323
N165	N	0.305504	1.070305	0.000049
H166	H	0.328611	1.084832	0.029074
H167	H	0.259274	1.049256	0.021067
N168	N	0.282975	1.007583	-0.076766
H169	H	0.223726	1.050387	-0.071143
H170	H	0.274085	0.961484	-0.057347
N171	N	1.483046	0.254435	0.453417
H172	H	1.400707	0.282694	0.448572
H173	H	1.520389	0.264936	0.480069
N174	N	1.705096	0.191758	-0.000032
H175	H	1.681989	0.177233	-0.029058
H176	H	1.751352	0.141716	0.050037
H177	H	1.005451	0.207690	0.423382
H178	H	0.898491	0.765116	-0.698428
H179	H	1.679911	0.207700	0.423338
N180	N	0.482799	0.882145	-0.076791
H181	H	0.400441	0.910428	-0.100197
H182	H	0.520125	0.821563	-0.042860
H183	H	1.311390	0.371903	0.326194
H184	H	0.898578	0.262414	0.301592
H185	H	0.524710	0.999634	-0.435619
N186	N	0.800293	0.138115	-0.010945
H187	H	0.815255	0.090207	-0.010147
H188	H	0.739560	0.190563	-0.056632
N189	N	0.882947	0.254441	0.076851
H190	H	0.891875	0.211630	0.071242
H191	H	0.800604	0.300531	0.057450
N192	N	0.882795	0.784652	-0.327918
H193	H	0.845502	0.831474	-0.379606
H194	H	0.936855	0.787869	-0.304473
N195	N	1.127671	0.477376	-0.299726
H196	H	1.118748	0.488589	-0.348146
H197	H	1.096762	0.445095	-0.273051
H198	H	1.112237	0.496909	-0.673819
H199	H	1.112091	-0.000385	-0.067032
H200	H	1.524951	0.371934	0.192056
N201	N	1.127632	0.477378	-0.174279
H202	H	1.164952	0.430553	-0.179141
H203	H	1.073562	0.474157	-0.147645
H204	H	1.112065	0.890105	-0.192005
H205	H	1.112109	-0.109890	-0.067016
H206	H	1.005215	1.054340	-0.423287
H207	H	1.311202	0.371943	-0.067051
N208	N	0.365072	0.932483	-0.150686
H209	H	0.442213	0.921268	-0.145081
H210	H	0.322572	0.964755	-0.131273
H211	H	1.699355	0.262431	0.067037
N212	N	1.127626	0.254463	-0.076817
H213	H	1.073601	0.264968	-0.114004
H214	H	1.186891	0.193891	-0.042883
H215	H	0.898502	0.371909	0.067082
N216	N	0.882794	1.007589	-0.453364
H217	H	0.936787	0.997090	-0.480051
H218	H	0.823550	1.068162	-0.479984
N219	N	1.127624	0.379909	-0.076817
H220	H	1.164910	0.351634	-0.100230
H221	H	1.186830	0.369408	-0.042886
N222	N	1.727691	0.254491	0.299731
H223	H	1.719904	0.282766	0.248040
H224	H	1.770162	0.193906	0.323162
H225	H	0.797515	0.483169	0.073930
H226	H	0.898399	0.765116	-0.435621
N227	N	0.845385	0.329540	0.150736
H228	H	0.904662	0.340749	0.145131
H229	H	0.854268	0.297272	0.131321
N230	N	1.127784	0.379912	0.327958
H231	H	1.118842	0.422721	0.279541
H232	H	1.210129	0.333821	0.354651
N233	N	1.527800	0.379890	0.076836
H234	H	1.570297	0.333838	0.128534
H235	H	1.450631	0.422711	0.071183
N236	N	0.645502	0.329560	0.150718
H237	H	0.608246	0.326263	0.187909
H238	H	0.727868	0.282772	0.174084
H239	H	0.311179	0.999587	-0.301470
N240	N	0.305273	1.070318	-0.439239
H241	H	0.235899	1.084843	-0.424741
H242	H	0.305307	1.049271	-0.468264
N243	N	0.727479	0.882150	-0.327934
H244	H	0.719691	0.910435	-0.379625
H245	H	0.769937	0.821568	-0.304514
H246	H	0.448616	0.483191	0.073933
N247	N	1.022757	0.748706	-0.496060
H248	H	1.021468	0.740111	-0.448952
H249	H	0.957316	0.805745	-0.535130
H250	H	0.898555	0.765112	-0.807916
H251	H	0.213088	0.778852	-0.073871
N252	N	0.727678	0.882118	0.076853
H253	H	0.736707	0.857084	0.128553
H254	H	0.736603	0.928204	0.057404
N255	N	0.165212	0.932491	-0.150674
H256	H	0.105940	0.921277	-0.145063
H257	H	0.156276	0.964776	-0.202359
H258	H	1.112196	0.496909	-0.564326
