data_functionalizedCrystal
_audit_creation_method	'MofGen! by Chris Wilmer'
_symmetry_space_group_name_H-M	'P1'
_symmetry_Int_Tables_number	1
_symmetry_cell_setting	triclinic
loop_
_symmetry_equiv_pos_as_xyz
  x,y,z
_cell_length_a	14.971486
_cell_length_b	10.868271
_cell_length_c	14.971486
_cell_angle_alpha	90.005345
_cell_angle_beta	83.614129
_cell_angle_gamma	89.999359
loop_
_atom_site_label
_atom_site_type_symbol
_atom_site_fract_x
_atom_site_fract_y
_atom_site_fract_z
O1	O	1.186944	0.102181	0.116563
O2	O	1.686944	0.602181	0.616563
O3	O	0.926544	0.102215	0.130522
O4	O	1.426544	0.602215	0.630522
O5	O	1.063724	0.102188	-0.006657
O6	O	1.563724	0.602188	0.493343
O7	O	1.049765	0.102208	0.253743
O8	O	1.549765	0.602208	0.753743
O9	O	1.063712	-0.102456	-0.006663
O10	O	1.563712	0.397544	0.493337
O11	O	0.926533	-0.102430	0.130517
O12	O	1.426533	0.397570	0.630517
O13	O	1.186933	-0.102463	0.116558
O14	O	1.686933	0.397537	0.616558
Zn15	Zn	1.056731	-0.134938	0.123536
Zn16	Zn	1.556731	0.365062	0.623536
Zn17	Zn	1.056746	0.134690	0.123543
Zn18	Zn	1.556746	0.634690	0.623543
O19	O	1.049754	-0.102437	0.253737
O20	O	1.549754	0.397563	0.753737
C21	C	0.893214	-0.000103	0.129895
C22	C	1.393214	0.499897	0.629895
C23	C	0.793917	-0.000091	0.128024
C24	C	1.293917	0.499909	0.628024
N25	N	1.056728	-0.318952	0.123531
N26	N	1.556728	0.181048	0.623531
C27	C	0.736692	-0.000086	0.208614
C28	C	1.236692	0.499914	0.708614
C29	C	0.643392	-0.000105	0.206850
C30	C	1.143392	0.499895	0.706850
C31	C	0.607320	-0.000119	0.124497
C32	C	1.107320	0.499881	0.624497
C33	C	0.664552	-0.000127	0.043902
C34	C	1.164552	0.499873	0.543902
C35	C	0.757850	-0.000117	0.045666
C36	C	1.257850	0.499883	0.545666
C37	C	0.470090	-0.000144	0.040231
C38	C	0.970090	0.499856	0.540231
C39	C	0.376786	-0.000151	0.038466
C40	C	0.876786	0.499849	0.538466
C41	C	0.355632	-0.000132	0.201415
C42	C	0.855632	0.499868	0.701415
C43	C	0.448930	-0.000122	0.203179
C44	C	0.948930	0.499878	0.703179
C45	C	0.506156	-0.000128	0.122584
C46	C	1.006156	0.499872	0.622584
C47	C	1.056741	-0.569958	0.123542
C48	C	1.556741	-0.069958	0.623542
C49	C	1.056731	-0.430281	0.123538
C50	C	1.556731	0.069719	0.623538
C51	C	1.220263	-0.000142	0.117185
C52	C	1.720263	0.499858	0.617185
C53	C	1.319561	-0.000147	0.119056
C54	C	1.819561	0.499853	0.619056
C55	C	1.063094	-0.000133	-0.039985
C56	C	1.563094	0.499867	0.460015
C57	C	1.061223	-0.000132	-0.139282
C58	C	1.561223	0.499868	0.360718
N59	N	1.056757	0.318704	0.123542
N60	N	1.556757	0.818704	0.623542
C61	C	1.141812	-0.000143	-0.196507
C62	C	1.641812	0.499857	0.303493
C63	C	1.140049	-0.000131	-0.289807
C64	C	1.640049	0.499869	0.210193
C65	C	1.057696	-0.000116	-0.325879
C66	C	1.557696	0.499884	0.174121
C67	C	0.977101	-0.000101	-0.268646
C68	C	1.477101	0.499899	0.231354
C69	C	0.978865	-0.000104	-0.175349
C70	C	1.478865	0.499896	0.324651
C71	C	0.973430	-0.000096	-0.463109
C72	C	1.473430	0.499904	0.036891
C73	C	0.971665	-0.000094	-0.556413
C74	C	1.471665	0.499906	-0.056413
C75	C	1.134614	-0.000122	-0.577567
C76	C	1.634614	0.499878	-0.077567
C77	C	1.136378	-0.000126	-0.484269
C78	C	1.636378	0.499874	0.015731
C79	C	1.055782	-0.000113	-0.427043
C80	C	1.555782	0.499887	0.072957
C81	C	1.050384	-0.000112	0.287065
C82	C	1.550384	0.499888	0.787065
C83	C	1.052254	-0.000106	0.386362
C84	C	1.552254	0.499894	0.886362
H85	H	0.766054	-0.000074	0.275675
H86	H	1.266054	0.499926	0.775675
C87	C	0.581410	-0.000036	0.294446
C88	C	1.081410	0.499964	0.794446
C89	C	0.632970	0.000018	0.366944
C90	C	1.132970	0.500018	0.866944
C91	C	0.575904	0.000095	0.447654
C92	C	1.075904	0.500095	0.947654
H93	H	0.544562	-0.071386	0.297274
H94	H	1.044562	0.428614	0.797274
H95	H	0.544581	0.071351	0.297194
H96	H	1.044581	0.571351	0.797194
H97	H	0.669784	-0.071362	0.364197
H98	H	1.169784	0.428638	0.864197
H99	H	0.669816	0.071363	0.364145
H100	H	1.169816	0.571363	0.864145
H101	H	0.539074	0.071482	0.450402
H102	H	1.039074	0.571482	0.950402
H103	H	0.539058	-0.071257	0.450473
H104	H	1.039058	0.428743	0.950473
H105	H	0.610878	0.000143	0.496853
H106	H	1.110878	0.500143	0.996853
C107	C	0.819835	-0.000052	-0.041929
C108	C	1.319835	0.499948	0.458071
C109	C	0.768278	-0.000030	-0.114429
C110	C	1.268278	0.499970	0.385571
C111	C	0.825347	0.000042	-0.195137
C112	C	1.325347	0.500042	0.304863
H113	H	0.856695	-0.071393	-0.044758
H114	H	1.356695	0.428607	0.455242
H115	H	0.856653	0.071345	-0.044674
H116	H	1.356653	0.571345	0.455326
H117	H	0.731476	-0.071420	-0.111685
H118	H	1.231476	0.428580	0.388315
H119	H	0.731420	0.071305	-0.111630
H120	H	1.231420	0.571305	0.388370
H121	H	0.862165	0.071439	-0.197883
H122	H	1.362165	0.571439	0.302117
H123	H	0.862204	-0.071300	-0.197957
H124	H	1.362204	0.428700	0.302043
H125	H	0.790374	0.000068	-0.244338
H126	H	1.290374	0.500068	0.255662
H127	H	0.478296	-0.000099	0.270239
H128	H	0.978296	0.499901	0.770239
H129	H	0.913240	-0.000095	-0.128756
H130	H	1.413240	0.499905	0.371244
H131	H	1.200238	-0.000128	-0.624165
H132	H	1.700238	0.499872	-0.124165
C133	C	1.231318	-0.000093	-0.157521
C134	C	1.731318	0.499907	0.342479
C135	C	1.301516	-0.000063	-0.227611
C136	C	1.801516	0.499937	0.272389
C137	C	1.383983	0.000006	-0.191734
C138	C	1.883983	0.500006	0.308266
H139	H	1.235522	-0.071438	-0.121584
H140	H	1.735522	0.428562	0.378416
H141	H	1.235443	0.071300	-0.121586
H142	H	1.735443	0.571300	0.378414
H143	H	1.297393	-0.071449	-0.263530
H144	H	1.797393	0.428551	0.236470
H145	H	1.297342	0.071276	-0.263554
H146	H	1.797342	0.571276	0.236446
H147	H	1.388108	0.071399	-0.155800
H148	H	1.888108	0.571399	0.344200
H149	H	1.388177	-0.071340	-0.155797
H150	H	1.888177	0.428660	0.344203
H151	H	1.431622	0.000038	-0.239284
H152	H	1.931622	0.500038	0.260716
H153	H	0.516682	-0.000150	-0.025399
H154	H	1.016682	0.499850	0.474601
H155	H	1.205673	-0.000143	-0.336396
H156	H	1.705673	0.499857	0.163604
H157	H	0.309033	-0.000133	0.267039
H158	H	0.809033	0.499867	0.767039
C159	C	0.625339	0.000112	-0.045485
C160	C	1.125339	0.500112	0.454515
C161	C	0.572410	0.105410	-0.051265
C162	C	1.072410	0.605410	0.448735
C163	C	0.536284	0.105684	-0.133601
C164	C	1.036284	0.605684	0.366399
H165	H	0.589324	-0.071171	-0.049650
H166	H	1.089324	0.428829	0.450350
H167	H	0.672760	0.000175	-0.093257
H168	H	1.172760	0.500175	0.406743
H169	H	0.524996	0.105335	-0.003507
H170	H	1.024996	0.605335	0.496493
H171	H	0.608405	0.176709	-0.047116
H172	H	1.108405	0.676709	0.452884
H173	H	0.583705	0.105747	-0.181373
H174	H	1.083705	0.605747	0.318627
H175	H	0.500274	0.034397	-0.137759
H176	H	1.000274	0.534397	0.362241
H177	H	0.500375	0.177132	-0.137537
H178	H	1.000375	0.677132	0.362463
H179	H	0.347419	-0.000164	-0.028593
H180	H	0.847419	0.499836	0.471407
C181	C	0.885829	-0.000142	-0.401124
C182	C	1.385829	0.499858	0.098876
C183	C	0.813329	-0.000163	-0.452681
C184	C	1.313329	0.499837	0.047319
C185	C	0.732621	-0.000227	-0.395613
C186	C	1.232621	0.499773	0.104387
H187	H	0.883006	0.071202	-0.364264
H188	H	1.383006	0.571202	0.135736
H189	H	0.883077	-0.071536	-0.364308
H190	H	1.383077	0.428464	0.135692
H191	H	0.816079	0.071223	-0.489482
H192	H	1.316079	0.571223	0.010518
H193	H	0.816122	-0.071502	-0.489540
H194	H	1.316122	0.428498	0.010460
H195	H	0.729869	-0.071621	-0.358796
H196	H	1.229869	0.428379	0.141204
H197	H	0.729807	0.071118	-0.358755
H198	H	1.229807	0.571118	0.141245
H199	H	0.683420	-0.000253	-0.430585
H200	H	1.183420	0.499747	0.069415
H201	H	0.910047	-0.000081	-0.298024
H202	H	1.410047	0.499919	0.201976
C203	C	1.225880	-0.000085	-0.445276
C204	C	1.725880	0.499915	0.054724
C205	C	1.296085	-0.000062	-0.515358
C206	C	1.796085	0.499938	-0.015358
C207	C	1.378547	-0.000006	-0.479472
C208	C	1.878547	0.499994	0.020528
H209	H	1.230074	-0.071432	-0.409338
H210	H	1.730074	0.428568	0.090662
H211	H	1.230006	0.071306	-0.409339
H212	H	1.730006	0.571306	0.090661
H213	H	1.291961	-0.071445	-0.551280
H214	H	1.791961	0.428555	-0.051280
H215	H	1.291921	0.071280	-0.551301
H216	H	1.791921	0.571280	-0.051301
H217	H	1.382673	0.071385	-0.443535
H218	H	1.882673	0.571385	0.056465
H219	H	1.382732	-0.071354	-0.443535
H220	H	1.882732	0.428646	0.056465
H221	H	1.426191	0.000021	-0.527017
H222	H	1.926191	0.500021	-0.027017
H223	H	0.904606	-0.000102	-0.585780
H224	H	1.404606	0.499898	-0.085780
