data_functionalizedCrystal
_audit_creation_method	'MofGen! by Chris Wilmer'
_symmetry_space_group_name_H-M	'P1'
_symmetry_Int_Tables_number	1
_symmetry_cell_setting	triclinic
loop_
_symmetry_equiv_pos_as_xyz
  x,y,z
_cell_length_a	23.096457
_cell_length_b	14.809374
_cell_length_c	23.096457
_cell_angle_alpha	52.852935
_cell_angle_beta	90.011518
_cell_angle_gamma	67.425492
loop_
_atom_site_label
_atom_site_type_symbol
_atom_site_fract_x
_atom_site_fract_y
_atom_site_fract_z
Zr1	Zr	0.628324	1.000596	-0.146601
O2	O	0.549305	1.191302	-0.252503
O3	O	0.643220	0.809890	-0.104805
O4	O	0.656643	1.000599	-0.239052
O5	O	0.535905	1.000590	-0.022974
O6	O	0.751924	1.000602	-0.239056
O7	O	0.535882	1.000593	-0.118256
O8	O	0.727912	0.659458	0.001087
O9	O	0.559916	1.341734	-0.263117
O10	O	0.731949	0.888332	-0.098256
O11	O	0.660859	0.888329	-0.027145
O12	O	0.676663	1.112864	-0.185203
O13	O	0.605573	1.112860	-0.114092
Zr14	Zr	0.780322	1.000596	0.005358
Zr15	Zr	0.780286	1.000600	-0.146606
Zr16	Zr	0.628360	1.000592	0.005363
Zr17	Zr	0.645247	1.240518	-0.163529
Zr18	Zr	0.763399	0.760674	0.022286
O19	O	0.765426	1.191302	-0.036438
O20	O	0.765375	1.191308	-0.252511
O21	O	0.549356	1.191296	-0.036429
O22	O	0.859341	0.809890	0.111260
O23	O	0.859290	0.809896	-0.104814
O24	O	0.643271	0.809885	0.111268
O25	O	0.872741	1.000602	-0.118269
O26	O	0.752003	1.000593	0.097809
O27	O	0.656722	1.000590	0.097813
O28	O	0.872764	1.000599	-0.022987
O29	O	0.680705	1.341737	-0.263121
O30	O	0.727941	0.659455	0.121878
O31	O	0.848730	0.659458	0.121874
O32	O	0.848701	0.659462	0.001082
O33	O	0.559945	1.341731	-0.142326
O34	O	0.680734	1.341734	-0.142330
O35	O	0.731983	0.888329	0.043960
O36	O	0.803073	0.888332	-0.027151
O37	O	0.747787	1.112864	-0.114098
O38	O	0.676697	1.112860	-0.042987
C39	C	0.683155	0.700491	-0.049447
C40	C	0.675971	0.598638	-0.042261
C41	C	0.708033	0.553230	-0.074333
C42	C	0.700609	0.447960	-0.066906
C43	C	0.514242	1.000591	-0.070614
C44	C	0.449731	1.000589	-0.070612
C45	C	0.448284	0.883390	-0.025233
C46	C	0.387668	0.883388	-0.025230
C47	C	0.328500	1.000592	-0.070620
C48	C	0.329951	1.117808	-0.116001
C49	C	0.390566	1.117806	-0.115997
N50	N	0.211844	1.087835	-0.137186
N51	N	0.154264	1.087828	-0.137188
C52	C	0.145868	1.000604	-0.070633
N53	N	0.197233	0.913367	-0.004075
N54	N	0.254819	0.913370	-0.004075
C55	C	0.262770	1.000607	-0.070629
C56	C	0.078697	0.883394	-0.025247
C57	C	0.018079	0.883397	-0.025242
C58	C	-0.039638	1.117820	-0.116020
C59	C	0.020980	1.117814	-0.116018
C60	C	0.080144	1.000597	-0.070633
C61	C	0.894404	1.000601	-0.070629
C62	C	0.958915	1.000603	-0.070631
C63	C	0.704278	1.000601	-0.260705
C64	C	0.704263	1.000603	-0.325218
C65	C	0.725491	1.300702	-0.091796
C66	C	0.732675	1.402555	-0.098982
C67	C	0.675408	1.117803	-0.400907
C68	C	0.675426	1.117804	-0.461524
C69	C	0.704289	1.000600	-0.446447
C70	C	0.733152	0.883385	-0.370744
C71	C	0.733139	0.883386	-0.310130
N72	N	0.693013	0.913358	-0.507846
N73	N	0.693023	0.913364	-0.565431
C74	C	0.704332	1.000588	-0.629071
N75	N	0.715620	1.087826	-0.632960
N76	N	0.715607	1.087823	-0.575372
C77	C	0.704307	1.000585	-0.512168
C78	C	0.675495	1.117798	-0.770491
C79	C	0.675518	1.117795	-0.831107
C80	C	0.733239	0.883372	-0.740325
C81	C	0.733221	0.883379	-0.679711
C82	C	0.704346	1.000595	-0.694799
C83	C	0.704368	1.000591	0.119462
C84	C	0.704383	1.000589	0.183975
C85	C	0.873236	0.700496	-0.049455
C86	C	0.930563	0.598644	-0.042271
C87	C	0.683200	0.700486	0.140637
C88	C	0.676031	0.598631	0.212336
C89	C	0.873280	0.700491	0.140629
C90	C	0.930623	0.598638	0.212326
C91	C	0.535366	1.300702	-0.281872
C92	C	0.478023	1.402555	-0.353569
C93	C	0.535410	1.300697	-0.091789
C94	C	0.478083	1.402548	-0.098972
C95	C	0.725446	1.300707	-0.281880
C96	C	0.732615	1.402562	-0.353579
C97	C	0.920359	0.550814	-0.076020
C98	C	0.974219	0.455127	-0.069285
C99	C	1.038282	0.407266	-0.028796
C100	C	1.048486	0.455106	0.004953
C101	C	0.994627	0.550797	-0.001786
C102	C	0.709790	0.550799	0.283129
C103	C	0.703052	0.455109	0.350503
C104	C	0.662558	0.407246	0.347082
C105	C	0.628795	0.455088	0.276281
C106	C	0.635530	0.550782	0.208909
C107	C	0.994666	0.550808	0.208876
C108	C	1.048552	0.455120	0.276236
C109	C	1.038393	0.407256	0.347045
C110	C	0.974344	0.455095	0.350493
C111	C	0.920459	0.550788	0.283133
C112	C	0.413981	1.450396	-0.350120
C113	C	0.360097	1.546114	-0.417482
C114	C	0.370256	1.593983	-0.488292
C115	C	0.434305	1.546138	-0.491739
C116	C	0.488188	1.450428	-0.424378
C117	C	0.488288	1.450388	-0.065230
C118	C	0.434430	1.546102	-0.071984
C119	C	0.370366	1.593966	-0.112475
C120	C	0.360163	1.546122	-0.146221
C121	C	0.414021	1.450417	-0.139472
C122	C	0.773114	1.450394	-0.350133
C123	C	0.779863	1.546085	-0.417495
C124	C	0.746109	1.593948	-0.488303
C125	C	0.705609	1.546106	-0.491746
C126	C	0.698864	1.450410	-0.424385
H127	H	0.496455	0.787943	0.011719
H128	H	0.740983	0.592283	-0.107286
H129	H	0.651983	1.213243	-0.782777
N130	N	0.557383	1.398776	-0.021561
H131	H	0.560276	1.359079	0.033165
H132	H	0.568163	1.471855	-0.046252
H133	H	0.756654	0.787956	-0.358472
H134	H	0.966082	0.416110	0.408155
H135	H	1.002944	0.589729	0.025702
H136	H	0.751607	1.671869	-0.543148
H137	H	0.608040	0.589715	0.151269
N138	N	0.851384	0.602365	0.286860
H139	H	0.853131	0.557513	0.341940
H140	H	0.823439	0.585696	0.264512
H141	H	0.868200	0.589782	-0.108999
N142	N	0.557262	1.398828	-0.428103
H143	H	0.555515	1.443679	-0.483183
H144	H	0.577254	1.302763	-0.397802
H145	H	0.405695	1.411426	-0.292470
N146	N	1.117584	0.403479	0.048621
H147	H	1.150150	0.335599	0.047768
H148	H	1.120421	0.363829	0.103329
H149	H	0.326375	1.671916	-0.543135
H150	H	0.307995	1.585108	-0.179189
N151	N	0.142511	0.756971	0.023711
H152	H	0.168955	0.751746	0.061431
H153	H	0.168887	0.751819	-0.010016
H154	H	0.022155	1.213251	-0.152975
N155	N	0.963199	0.403547	-0.105690
H156	H	0.933629	0.363838	-0.083408
H157	H	1.007061	0.335720	-0.095279
N158	N	0.291020	1.597703	-0.413754
H159	H	0.292765	1.552839	-0.358673
H160	H	0.263069	1.581059	-0.436114
H161	H	0.442750	1.585041	-0.044500
H162	H	0.657080	0.329325	0.401947
H163	H	0.326517	1.671896	-0.117965
N164	N	0.632327	0.546909	0.001393
H165	H	0.611950	0.591674	0.021776
H166	H	0.659666	0.450837	0.045463
N167	N	0.403009	1.398822	-0.175867
H168	H	0.354252	1.443671	-0.202539
H169	H	0.419766	1.302755	-0.135009
N170	N	1.096371	0.304057	-0.021531
H171	H	1.080179	0.281024	-0.049056
H172	H	1.119935	0.224705	0.034355
N173	N	0.809523	1.398784	-0.273768
H174	H	0.836202	1.443613	-0.281818
H175	H	0.840065	1.302714	-0.240225
H176	H	0.742763	0.589758	0.285929
H177	H	0.595825	0.416104	0.273507
H178	H	0.756637	0.787945	-0.248498
N179	N	1.005632	0.602410	0.132510
H180	H	1.054383	0.557580	0.140558
H181	H	0.988867	0.698481	0.098961
H182	H	0.442570	1.585125	-0.549400
H183	H	0.812841	1.585027	-0.414677
N184	N	0.739472	0.403516	0.426860
H185	H	0.766151	0.448352	0.418798
H186	H	0.770016	0.307447	0.460407
N187	N	0.669205	1.597736	-0.568119
H188	H	0.679625	1.665619	-0.610264
H189	H	0.620091	1.637383	-0.576535
N190	N	0.655180	1.398827	-0.428106
H191	H	0.634823	1.443677	-0.483186
H192	H	0.619040	1.415491	-0.405756
H193	H	0.667661	0.408901	-0.033946
H194	H	1.100700	0.416179	0.273416
H195	H	0.765627	0.441605	-0.131937
H196	H	0.281772	1.213236	-0.152957
N197	N	0.386099	0.756976	0.023717
H198	H	0.432777	0.682721	0.052469
H199	H	0.362199	0.751884	-0.010013
N200	N	0.392129	1.244219	-0.164947
H201	H	0.345450	1.318471	-0.193702
H202	H	0.416015	1.249319	-0.202622
H203	H	0.016907	0.787955	0.011716
H204	H	1.082275	0.329336	0.401888
N205	N	0.764332	0.756973	-0.598069
H206	H	0.801310	0.751749	-0.570881
H207	H	0.782580	0.682793	-0.597775
N208	N	-0.103447	1.244237	-0.164971
H209	H	-0.142067	1.226457	-0.158087
H210	H	-0.105462	1.295424	-0.220490
N211	N	0.644274	1.244223	-0.417178
H212	H	0.625999	1.318470	-0.474329
H213	H	0.678714	1.249324	-0.393993
N214	N	0.644423	1.244209	-0.912748
H215	H	0.626137	1.318460	-0.913104
H216	H	0.607475	1.249344	-0.939913
H217	H	0.756742	0.787942	-0.728048
N218	N	0.644302	1.244217	-0.543171
H219	H	0.626008	1.318471	-0.543531
H220	H	0.607354	1.249306	-0.570305
