data_functionalizedCrystal
_audit_creation_method	'MofGen! by Chris Wilmer'
_symmetry_space_group_name_H-M	'P1'
_symmetry_Int_Tables_number	1
_symmetry_cell_setting	triclinic
loop_
_symmetry_equiv_pos_as_xyz
  x,y,z
_cell_length_a	27.732048
_cell_length_b	19.288865
_cell_length_c	17.766277
_cell_angle_alpha	89.988397
_cell_angle_beta	89.996131
_cell_angle_gamma	82.889452
loop_
_atom_site_label
_atom_site_type_symbol
_atom_site_fract_x
_atom_site_fract_y
_atom_site_fract_z
O1	O	0.641180	0.082649	-0.062506
O2	O	1.141180	0.582649	0.437494
O3	O	0.500425	0.095216	-0.062530
O4	O	1.000425	0.595216	0.437470
O5	O	0.574870	-0.012223	-0.062502
O6	O	1.074870	0.487777	0.437498
O7	O	0.566735	0.190088	-0.062533
O8	O	1.066735	0.690088	0.437467
O9	O	0.574856	-0.012228	0.062686
O10	O	1.074856	0.487772	0.562686
O11	O	0.500412	0.095211	0.062659
O12	O	1.000412	0.595211	0.562659
O13	O	0.641167	0.082644	0.062683
O14	O	1.141167	0.582644	0.562683
Cu15	Cu	0.570788	0.088927	0.074102
Cu16	Cu	1.070788	0.588927	0.574102
Cu17	Cu	0.570804	0.088933	-0.073948
Cu18	Cu	1.070804	0.588933	0.426052
O19	O	0.566722	0.190083	0.062655
O20	O	1.066722	0.690083	0.562655
C21	C	0.574601	-0.038100	0.000094
C22	C	1.074601	0.461900	0.500094
C23	C	0.573816	-0.115199	0.000101
C24	C	1.073816	0.384801	0.500101
C25	C	0.482410	0.094950	0.000062
C26	C	0.982410	0.594950	0.500062
C27	C	0.428753	0.094155	0.000053
C28	C	0.928753	0.594155	0.500053
C29	C	0.617496	-0.160168	0.000112
C30	C	1.117496	0.339832	0.500112
C31	C	0.616758	-0.232610	0.000100
C32	C	1.116758	0.267390	0.500100
C33	C	0.572337	-0.260081	0.000092
C34	C	1.072337	0.239919	0.500092
C35	C	0.528650	-0.215102	0.000077
C36	C	1.028650	0.284898	0.500077
C37	C	0.529390	-0.142661	0.000081
C38	C	1.029390	0.357339	0.500081
C39	C	0.537412	-0.368152	0.043937
C40	C	1.037412	0.131848	0.543937
C41	C	0.536674	-0.440592	0.043937
C42	C	1.036674	0.059408	0.543937
C43	C	0.570054	-0.483512	0.000075
C44	C	1.070054	0.016488	0.500075
C45	C	0.604181	-0.453985	-0.043778
C46	C	1.104181	0.046015	0.456222
C47	C	0.604920	-0.381544	-0.043774
C48	C	1.104920	0.118456	0.456226
C49	C	0.571530	-0.338630	0.000087
C50	C	1.071530	0.161370	0.500087
C51	C	0.612938	-0.607032	0.000072
C52	C	1.112938	-0.107032	0.500072
C53	C	0.612198	-0.679475	0.000055
C54	C	1.112198	-0.179475	0.500055
C55	C	0.524089	-0.661966	0.000039
C56	C	1.024089	-0.161966	0.500039
C57	C	0.524830	-0.589524	0.000048
C58	C	1.024830	-0.089524	0.500048
C59	C	0.569256	-0.562062	0.000068
C60	C	1.069256	-0.062062	0.500068
C61	C	0.090115	0.152644	0.000077
C62	C	0.590115	0.652644	0.500077
C63	C	-0.111554	0.149697	0.000084
C64	C	0.388446	0.649697	0.500084
O65	O	-0.142648	0.203181	0.000108
O66	O	0.357352	0.703181	0.500108
N67	N	-0.130870	0.085990	0.000093
N68	N	0.369130	0.585990	0.500093
C69	C	-0.099766	0.023015	0.000104
C70	C	0.400234	0.523015	0.500104
O71	O	-0.120823	-0.031239	0.000119
O72	O	0.379177	0.468761	0.500119
C73	C	0.101902	0.025963	0.000102
C74	C	0.601902	0.525963	0.500102
C75	C	0.121215	0.089674	0.000086
C76	C	0.621215	0.589674	0.500086
C77	C	0.109428	0.216350	0.000062
C78	C	0.609428	0.716350	0.500062
C79	C	0.159843	0.217086	0.000056
C80	C	0.659843	0.717086	0.500056
C81	C	0.190943	0.154116	0.000065
C82	C	0.690943	0.654116	0.500065
C83	C	0.171629	0.090410	0.000080
C84	C	0.671629	0.590410	0.500080
C85	C	0.133005	-0.037011	0.000119
C86	C	0.633005	0.462989	0.500119
C87	C	0.183425	-0.036268	0.000121
C88	C	0.683425	0.463732	0.500121
C89	C	0.202738	0.027443	0.000105
C90	C	0.702738	0.527443	0.500105
C91	C	0.253144	0.028177	0.000084
C92	C	0.753144	0.528177	0.500084
N93	N	0.272460	0.091884	0.000075
N94	N	0.772460	0.591884	0.500075
C95	C	0.241360	0.154853	0.000066
C96	C	0.741360	0.654853	0.500066
C97	C	-0.205644	0.021472	0.000104
C98	C	0.294356	0.521472	0.500104
C99	C	-0.256061	0.020735	0.000103
C100	C	0.243939	0.520735	0.500103
C101	C	-0.267846	0.147417	0.000084
C102	C	0.232154	0.647417	0.500084
C103	C	-0.217428	0.148153	0.000080
C104	C	0.282572	0.648153	0.500080
C105	C	-0.186328	0.085179	0.000095
C106	C	0.313672	0.585179	0.500095
C107	C	0.347234	0.156395	0.000053
C108	C	0.847234	0.656395	0.500053
C109	C	0.397653	0.157125	0.000044
C110	C	0.897653	0.657125	0.500044
C111	C	0.409433	0.030444	0.000067
C112	C	0.909433	0.530444	0.500067
C113	C	0.359018	0.029713	0.000072
C114	C	0.859018	0.529713	0.500072
C115	C	0.327919	0.092694	0.000067
C116	C	0.827919	0.592694	0.500067
O117	O	0.284266	-0.025278	0.000068
O118	O	0.784266	0.474722	0.500068
O119	O	0.262426	0.209100	0.000068
O120	O	0.762426	0.709100	0.500068
C121	C	0.039701	0.151908	0.000083
C122	C	0.539701	0.651908	0.500083
C123	C	0.020387	0.088202	0.000098
C124	C	0.520387	0.588202	0.500098
C125	C	0.051487	0.025232	0.000107
C126	C	0.551487	0.525232	0.500107
C127	C	-0.030030	0.087465	0.000097
C128	C	0.469970	0.587465	0.500097
C129	C	-0.061130	0.150435	0.000088
C130	C	0.438870	0.650435	0.500088
C131	C	-0.041814	0.214142	0.000079
C132	C	0.458186	0.714142	0.500079
C133	C	0.008600	0.214878	0.000073
C134	C	0.508600	0.714878	0.500073
C135	C	0.032171	-0.038475	0.000116
C136	C	0.532171	0.461525	0.500116
C137	C	-0.018244	-0.039206	0.000121
C138	C	0.481756	0.460794	0.500121
C139	C	-0.049344	0.023764	0.000112
C140	C	0.450656	0.523764	0.500112
C141	C	0.659181	0.082910	0.000090
C142	C	1.159181	0.582910	0.500090
C143	C	0.712839	0.083705	0.000093
C144	C	1.212839	0.583705	0.500093
C145	C	0.566990	0.215961	0.000057
C146	C	1.066990	0.715961	0.500057
C147	C	0.567776	0.293059	0.000046
C148	C	1.067776	0.793059	0.500046
N149	N	0.570781	0.088922	0.178232
N150	N	1.070781	0.588922	0.678232
N151	N	0.570815	0.088933	-0.178079
N152	N	1.070815	0.588933	0.321921
C153	C	0.603756	0.041371	0.217631
C154	C	1.103756	0.541371	0.717631
C155	C	0.603758	0.041368	0.296433
C156	C	1.103758	0.541368	0.796433
C157	C	0.570791	0.088927	0.335832
C158	C	1.070791	0.588927	0.835832
C159	C	0.537810	0.136482	0.296424
C160	C	1.037810	0.636482	0.796424
C161	C	0.537805	0.136479	0.217624
C162	C	1.037805	0.636479	0.717624
C163	C	0.564320	0.152255	0.460660
C164	C	1.064320	0.652255	0.960660
C165	C	0.564328	0.152259	0.539459
C166	C	1.064328	0.652259	1.039459
C167	C	0.570804	0.088936	0.578879
C168	C	1.070804	0.588936	1.078879
C169	C	0.577281	0.025606	0.539490
C170	C	1.077281	0.525606	1.039490
C171	C	0.577276	0.025603	0.460690
C172	C	1.077276	0.525603	0.960690
C173	C	0.570793	0.088935	0.421278
C174	C	1.070793	0.588935	0.921278
C175	C	0.603784	0.041377	0.703724
C176	C	1.103784	0.541377	1.203724
C177	C	0.603783	0.041373	0.782527
C178	C	1.103783	0.541373	1.282527
C179	C	0.537837	0.136493	0.782517
C180	C	1.037837	0.636493	1.282517
C181	C	0.537835	0.136492	0.703715
C182	C	1.037835	0.636492	1.203715
C183	C	0.570811	0.088934	0.664323
C184	C	1.070811	0.588934	1.164323
H185	H	0.653672	-0.137813	0.000126
H186	H	1.153672	0.362187	0.500126
H187	H	0.559057	0.203826	0.571523
H188	H	1.059057	0.703826	1.071523
O189	O	0.502253	0.187784	0.338912
O190	O	1.002253	0.687784	0.838912
H191	H	0.507801	0.179804	0.400327
H192	H	1.007801	0.679804	0.900327
O193	O	0.557339	0.220558	0.418144
O194	O	1.057339	0.720558	0.918144
H195	H	0.552845	0.264594	0.458769
H196	H	1.052845	0.764594	0.958769
O197	O	0.639334	-0.009924	0.661218
O198	O	1.139334	0.490076	1.161218
H199	H	0.677000	-0.001463	0.676324
H200	H	1.177000	0.498537	1.176324
H201	H	0.343293	-0.022166	0.000074
H202	H	0.843293	0.477834	0.500074
H203	H	0.510952	0.175202	0.185544
H204	H	1.010952	0.675202	0.685544
O205	O	-0.276890	-0.047981	0.000118
O206	O	0.223110	0.452019	0.500118
H207	H	-0.246789	-0.091640	0.000135
H208	H	0.253211	0.408360	0.500135
H209	H	0.208745	-0.087550	0.000134
H210	H	0.708745	0.412450	0.500134
H211	H	0.434764	-0.020825	0.000071
H212	H	0.934764	0.479175	0.500071
H213	H	0.413374	0.209008	0.000030
H214	H	0.913374	0.709008	0.500030
O215	O	0.639314	-0.009929	0.175142
O216	O	1.139314	0.490071	0.675142
H217	H	0.662241	-0.043000	0.215783
H218	H	1.162241	0.457000	0.715783
H219	H	0.321918	0.207680	0.000052
H220	H	0.821918	0.707680	0.500052
O221	O	0.663873	-0.281125	0.000125
O222	O	1.163873	0.218875	0.500125
H223	H	0.685154	-0.271413	-0.050886
H224	H	1.185154	0.228587	0.449114
H225	H	-0.180326	-0.029812	0.000116
H226	H	0.319674	0.470188	0.500116
H227	H	0.492482	-0.237473	0.000068
H228	H	0.992482	0.262527	0.500068
O229	O	0.065710	-0.106398	0.000128
O230	O	0.565710	0.393602	0.500128
H231	H	0.088964	-0.109093	-0.050896
H232	H	0.588964	0.390907	0.449104
H233	H	0.510992	0.175215	0.814595
H234	H	1.010992	0.675215	1.314595
O235	O	0.639350	-0.009921	0.825022
O236	O	1.139350	0.490079	1.325022
H237	H	0.633811	-0.001938	0.886435
H238	H	1.133811	0.498062	1.386435
O239	O	0.639330	-0.009914	0.338943
O240	O	1.139330	0.490086	0.838943
H241	H	0.662262	-0.042979	0.298312
H242	H	1.162262	0.457021	0.798312
H243	H	0.493818	-0.106047	0.000072
H244	H	0.993818	0.393953	0.500072
H245	H	0.510228	-0.333212	0.079659
H246	H	1.010228	0.166788	0.579659
H247	H	0.582549	-0.025962	0.428623
H248	H	1.082549	0.474038	0.928623
H249	H	0.508885	-0.464627	0.079640
H250	H	1.008885	0.035373	0.579640
H251	H	0.632706	-0.357506	-0.079481
H252	H	1.132706	0.142494	0.420519
H253	H	0.175562	0.268966	0.000042
H254	H	0.675562	0.768966	0.500042
O255	O	0.476176	-0.691586	0.000029
O256	O	0.976176	-0.191586	0.500029
H257	H	0.455188	-0.673491	0.051049
H258	H	0.955188	-0.173491	0.551049
H259	H	0.117290	-0.088891	0.000133
H260	H	0.617290	0.411109	0.500133
H261	H	0.024320	0.266758	0.000061
H262	H	0.524320	0.766758	0.500061
H263	H	0.582554	-0.025958	0.571584
H264	H	1.082554	0.474042	1.071584
H265	H	0.084111	0.267630	0.000057
H266	H	0.584111	0.767630	0.500057
H267	H	0.649112	-0.584671	0.000084
H268	H	1.149112	-0.084671	0.500084
O269	O	-0.196598	0.216869	0.000076
O270	O	0.303402	0.716869	0.500076
H271	H	-0.226699	0.260528	0.000076
H272	H	0.273301	0.760528	0.500076
O273	O	0.477717	-0.541014	0.000055
O274	O	0.977717	-0.041014	0.500055
H275	H	0.446703	-0.572284	0.000056
H276	H	0.946703	-0.072284	0.500056
O277	O	-0.301394	0.215337	0.000085
O278	O	0.198606	0.715337	0.500085
H279	H	-0.339695	0.204115	0.000096
H280	H	0.160305	0.704115	0.500096
H281	H	-0.067145	0.265414	0.000069
H282	H	0.432855	0.765414	0.500069
H283	H	0.510986	0.175215	0.671634
H284	H	1.010986	0.675215	1.171634
O285	O	0.640185	-0.500264	-0.091097
O286	O	1.140185	-0.000264	0.408903
H287	H	0.633935	-0.555597	-0.083744
H288	H	1.133935	-0.055597	0.416256
O289	O	0.659313	-0.727984	0.000073
O290	O	1.159313	-0.227984	0.500073
H291	H	0.690327	-0.696714	0.000097
H292	H	1.190327	-0.196714	0.500097
O293	O	-0.039073	-0.107927	0.000146
O294	O	0.460927	0.392073	0.500146
H295	H	-0.008972	-0.151586	0.000161
H296	H	0.491028	0.348414	0.500161
