data_functionalizedCrystal
_audit_creation_method	'MofGen! by Chris Wilmer'
_symmetry_space_group_name_H-M	'P1'
_symmetry_Int_Tables_number	1
_symmetry_cell_setting	triclinic
loop_
_symmetry_equiv_pos_as_xyz
  x,y,z
_cell_length_a	29.839135
_cell_length_b	29.839131
_cell_length_c	29.839125
_cell_angle_alpha	90.025363
_cell_angle_beta	90.015488
_cell_angle_gamma	90.037758
loop_
_atom_site_label
_atom_site_type_symbol
_atom_site_fract_x
_atom_site_fract_y
_atom_site_fract_z
Zn1	Zn	0.686739	-0.178886	0.254023
Zn2	Zn	1.186739	0.321114	0.754023
Zn3	Zn	0.686679	-0.253998	0.178883
Zn4	Zn	1.186679	0.246002	0.678883
Zn5	Zn	0.611622	-0.178886	0.178901
Zn6	Zn	1.111622	0.321114	0.678901
Zn7	Zn	0.611578	-0.253993	0.253980
Zn8	Zn	1.111578	0.246007	0.753980
O9	O	0.649154	-0.216441	0.216447
O10	O	1.149154	0.283559	0.716447
O11	O	0.749598	-0.188852	0.244066
O12	O	1.249598	0.311148	0.744066
O13	O	0.676716	-0.244036	0.116019
O14	O	1.176716	0.255964	0.616019
O15	O	0.621630	-0.116019	0.188892
O16	O	1.121630	0.383981	0.688892
O17	O	0.749554	-0.244036	0.188861
O18	O	1.249554	0.255964	0.688861
O19	O	0.676818	-0.116019	0.244084
O20	O	1.176818	0.383981	0.744084
O21	O	0.621572	-0.188852	0.116032
O22	O	1.121572	0.311148	0.616032
O23	O	0.548749	-0.188847	0.188850
O24	O	1.048749	0.311153	0.688850
O25	O	0.621554	-0.244028	0.316853
O26	O	1.121554	0.255972	0.816853
O27	O	0.548716	-0.244028	0.244010
O28	O	1.048716	0.255972	0.744010
O29	O	0.676775	-0.188847	0.316885
O30	O	1.176775	0.311153	0.816885
O31	O	0.676673	-0.316864	0.188819
O32	O	1.176673	0.183136	0.688819
O33	O	0.621497	-0.316861	0.243993
O34	O	1.121497	0.183139	0.743993
C35	C	0.532432	-0.216437	0.216428
C36	C	1.032432	0.283563	0.716428
C37	C	0.482497	-0.216447	0.216430
C38	C	0.982497	0.283553	0.716430
C39	C	0.172874	-0.187750	0.245235
C40	C	0.672874	0.312250	0.745235
C41	C	-0.014799	-0.187753	0.245247
C42	C	0.485201	0.312247	0.745247
O43	O	-0.039047	-0.163344	0.269717
O44	O	0.460953	0.336656	0.769717
N45	N	-0.038288	-0.216441	0.216464
N46	N	0.461712	0.283559	0.716464
C47	C	-0.014855	-0.245129	0.187672
C48	C	0.485145	0.254871	0.687672
O49	O	-0.039140	-0.269527	0.163187
O50	O	0.460860	0.230473	0.663187
C51	C	0.172817	-0.245123	0.187658
C52	C	0.672817	0.254877	0.687658
C53	C	0.196303	-0.216436	0.216447
C54	C	0.696303	0.283564	0.716447
C55	C	0.196360	-0.159065	0.274021
C56	C	0.696360	0.340935	0.774021
C57	C	0.243275	-0.159066	0.274019
C58	C	0.743275	0.340934	0.774019
C59	C	0.266705	-0.187752	0.245231
C60	C	0.766705	0.312248	0.745231
C61	C	0.243219	-0.216437	0.216445
C62	C	0.743219	0.283563	0.716445
C63	C	0.196249	-0.273808	0.158864
C64	C	0.696249	0.226192	0.658864
C65	C	0.243170	-0.273803	0.158862
C66	C	0.743170	0.226197	0.658862
C67	C	0.266656	-0.245116	0.187651
C68	C	0.766656	0.254884	0.687651
C69	C	0.313563	-0.245125	0.187655
C70	C	0.813563	0.254875	0.687655
N71	N	0.337052	-0.216437	0.216439
N72	N	0.837052	0.283563	0.716439
C73	C	0.313623	-0.187750	0.245227
C74	C	0.813623	0.312250	0.745227
C75	C	-0.113386	-0.245130	0.187683
C76	C	0.386614	0.254870	0.687683
C77	C	-0.160304	-0.245133	0.187687
C78	C	0.339696	0.254867	0.687687
C79	C	-0.160244	-0.187756	0.245262
C80	C	0.339756	0.312244	0.745262
C81	C	-0.113326	-0.187756	0.245259
C82	C	0.386674	0.312244	0.745259
C83	C	-0.089897	-0.216442	0.216467
C84	C	0.410103	0.283558	0.716467
C85	C	0.412148	-0.187755	0.245221
C86	C	0.912148	0.312245	0.745221
C87	C	0.459068	-0.187760	0.245218
C88	C	0.959068	0.312240	0.745218
C89	C	0.459005	-0.245135	0.187642
C90	C	0.959005	0.254865	0.687642
C91	C	0.412089	-0.245132	0.187647
C92	C	0.912089	0.254868	0.687647
C93	C	0.388662	-0.216438	0.216438
C94	C	0.888662	0.283562	0.716438
O95	O	0.337840	-0.269518	0.163195
O96	O	0.837840	0.230482	0.663195
O97	O	0.337915	-0.163349	0.269702
O98	O	0.837915	0.336651	0.769702
C99	C	0.125958	-0.187749	0.245236
C100	C	0.625958	0.312251	0.745236
C101	C	0.102472	-0.216434	0.216450
C102	C	0.602472	0.283566	0.716450
C103	C	0.125902	-0.245120	0.187662
C104	C	0.625902	0.254880	0.687662
C105	C	0.055554	-0.216436	0.216454
C106	C	0.555554	0.283564	0.716454
C107	C	0.032125	-0.187749	0.245242
C108	C	0.532125	0.312251	0.745242
C109	C	0.055614	-0.159061	0.274026
C110	C	0.555614	0.340939	0.774026
C111	C	0.102529	-0.159062	0.274025
C112	C	0.602529	0.340938	0.774025
C113	C	0.102413	-0.273808	0.158878
C114	C	0.602413	0.226192	0.658878
C115	C	0.055498	-0.273805	0.158883
C116	C	0.555498	0.226195	0.658883
C117	C	0.032068	-0.245119	0.187671
C118	C	0.532068	0.254881	0.687671
C119	C	0.649086	-0.333163	0.216409
C120	C	1.149086	0.166837	0.716409
C121	C	0.649098	-0.383098	0.216408
C122	C	1.149098	0.116902	0.716408
C123	C	0.677885	-0.692706	0.245226
C124	C	1.177885	-0.192706	0.745226
C125	C	0.677933	-0.880379	0.245253
C126	C	1.177933	-0.380379	0.745253
O127	O	0.702342	-0.904614	0.269728
O128	O	1.202342	-0.404614	0.769728
N129	N	0.649231	-0.903883	0.216497
N130	N	1.149231	-0.403883	0.716497
C131	C	0.620512	-0.880465	0.187734
C132	C	1.120512	-0.380465	0.687734
O133	O	0.596096	-0.904763	0.163279
O134	O	1.096096	-0.404763	0.663279
C135	C	0.620461	-0.692793	0.187709
C136	C	1.120461	-0.192793	0.687709
C137	C	0.649169	-0.669292	0.216464
C138	C	1.149169	-0.169292	0.716464
C139	C	0.706590	-0.669205	0.273979
C140	C	1.206590	-0.169205	0.773979
C141	C	0.706579	-0.622290	0.273971
C142	C	1.206579	-0.122290	0.773971
C143	C	0.677863	-0.598875	0.245209
C144	C	1.177863	-0.098875	0.745209
C145	C	0.649158	-0.622377	0.216456
C146	C	1.149158	-0.122377	0.716456
C147	C	0.591740	-0.669376	0.158949
C148	C	1.091740	-0.169376	0.658949
C149	C	0.591729	-0.622455	0.158946
C150	C	1.091729	-0.122455	0.658946
C151	C	0.620437	-0.598954	0.187701
C152	C	1.120437	-0.098954	0.687701
C153	C	0.620431	-0.552047	0.187685
C154	C	1.120431	-0.052047	0.687685
N155	N	0.649134	-0.528543	0.216441
N156	N	1.149134	-0.028543	0.716441
C157	C	0.677850	-0.551957	0.245203
C158	C	1.177850	-0.051957	0.745203
C159	C	0.620541	-0.978996	0.187748
C160	C	1.120541	-0.478996	0.687748
C161	C	0.620554	-1.025914	0.187753
C162	C	1.120554	-0.525914	0.687753
C163	C	0.677975	-1.025824	0.245274
C164	C	1.177975	-0.525824	0.745274
C165	C	0.677964	-0.978906	0.245266
C166	C	1.177964	-0.478906	0.745266
C167	C	0.649244	-0.955492	0.216504
C168	C	1.149244	-0.455492	0.716504
C169	C	0.677826	-0.453432	0.245183
C170	C	1.177826	0.046568	0.745183
C171	C	0.677814	-0.406512	0.245170
C172	C	1.177814	0.093488	0.745170
C173	C	0.620391	-0.406605	0.187651
C174	C	1.120391	0.093395	0.687651
C175	C	0.620404	-0.453521	0.187662
C176	C	1.120404	0.046479	0.687662
C177	C	0.649123	-0.476933	0.216431
C178	C	1.149123	0.023067	0.716431
O179	O	0.596032	-0.527783	0.163227
O180	O	1.096032	-0.027783	0.663227
O181	O	0.702255	-0.527652	0.269662
O182	O	1.202255	-0.027652	0.769662
C183	C	0.677895	-0.739622	0.245235
C184	C	1.177895	-0.239622	0.745235
C185	C	0.649190	-0.763123	0.216482
C186	C	1.149190	-0.263123	0.716482
C187	C	0.620474	-0.739709	0.187720
C188	C	1.120474	-0.239709	0.687720
C189	C	0.649203	-0.810041	0.216487
C190	C	1.149203	-0.310041	0.716487
C191	C	0.677919	-0.833455	0.245249
C192	C	1.177919	-0.333455	0.745249
C193	C	0.706622	-0.809951	0.274006
C194	C	1.206622	-0.309951	0.774006
C195	C	0.706611	-0.763036	0.273997
C196	C	1.206611	-0.263036	0.773997
C197	C	0.591772	-0.763212	0.158964
C198	C	1.091772	-0.263212	0.658964
C199	C	0.591785	-0.810128	0.158974
C200	C	1.091785	-0.310128	0.658974
C201	C	0.620501	-0.833542	0.187736
C202	C	1.120501	-0.333542	0.687736
C203	C	0.766333	-0.216445	0.216467
C204	C	1.266333	0.283555	0.716467
C205	C	0.816267	-0.216446	0.216475
C206	C	1.316267	0.283554	0.716475
C207	C	0.649167	-0.216437	0.333625
C208	C	1.149167	0.283563	0.833625
C209	C	0.649172	-0.216435	0.383560
C210	C	1.149172	0.283565	0.883560
C211	C	0.649235	-0.099262	0.216495
C212	C	1.149235	0.400738	0.716495
C213	C	0.649270	-0.049328	0.216515
C214	C	1.149270	0.450672	0.716515
C215	C	0.649168	-0.216412	0.099725
C216	C	1.149168	0.283588	0.599725
C217	C	0.649250	-0.216288	0.049790
C218	C	1.149250	0.283712	0.549790
C219	C	0.677955	-0.187627	0.693223
C220	C	1.177955	0.312373	1.193223
C221	C	0.677978	-0.187589	0.880896
C222	C	1.177978	0.312411	1.380896
O223	O	0.702417	-0.163138	0.905177
O224	O	1.202417	0.336862	1.405177
N225	N	0.649231	-0.216315	0.904345
N226	N	1.149231	0.283685	1.404345
C227	C	0.620475	-0.245050	0.880873
C228	C	1.120475	0.254950	1.380873
O229	O	0.596022	-0.269479	0.905124
O230	O	1.096022	0.230521	1.405124
C231	C	0.620451	-0.245086	0.693201
C232	C	1.120451	0.254914	1.193201
C233	C	0.649202	-0.216361	0.669754
C234	C	1.149202	0.283639	1.169754
C235	C	0.706704	-0.158905	0.669776
C236	C	1.206704	0.341095	1.169776
C237	C	0.706700	-0.158916	0.622861
C238	C	1.206700	0.341084	1.122861
C239	C	0.677947	-0.187650	0.599392
C240	C	1.177947	0.312350	1.099392
C241	C	0.649198	-0.216373	0.622839
C242	C	1.149198	0.283627	1.122839
C243	C	0.591693	-0.273819	0.669730
C244	C	1.091693	0.226181	1.169730
C245	C	0.591689	-0.273824	0.622809
C246	C	1.091689	0.226176	1.122809
C247	C	0.620440	-0.245100	0.599362
C248	C	1.120440	0.254900	1.099362
C249	C	0.620441	-0.245119	0.552455
C250	C	1.120441	0.254881	1.052455
N251	N	0.649188	-0.216393	0.529005
N252	N	1.149188	0.283607	1.029005
C253	C	0.677941	-0.187659	0.552474
C254	C	1.177941	0.312341	1.052474
C255	C	0.620491	-0.245030	0.979404
C256	C	1.120491	0.254970	1.479404
C257	C	0.620497	-0.245022	1.026322
C258	C	1.120497	0.254978	1.526322
C259	C	0.677999	-0.187560	1.026341
C260	C	1.177999	0.312440	1.526341
C261	C	0.677994	-0.187571	0.979423
C262	C	1.177994	0.312429	1.479423
C263	C	0.649237	-0.216304	0.955955
C264	C	1.149237	0.283696	1.455955
C265	C	0.677930	-0.187685	0.453948
C266	C	1.177930	0.312315	0.953948
C267	C	0.677925	-0.187701	0.407029
C268	C	1.177925	0.312299	0.907029
C269	C	0.620421	-0.245161	0.407013
C270	C	1.120421	0.254839	0.907013
C271	C	0.620428	-0.245147	0.453929
C272	C	1.120428	0.254853	0.953929
C273	C	0.649184	-0.216406	0.477395
C274	C	1.149184	0.283594	0.977395
O275	O	0.596011	-0.269553	0.528144
O276	O	1.096011	0.230447	1.028144
O277	O	0.702383	-0.163226	0.528215
O278	O	1.202383	0.336774	1.028215
C279	C	0.677960	-0.187616	0.740138
C280	C	1.177960	0.312384	1.240138
C281	C	0.649211	-0.216338	0.763585
C282	C	1.149211	0.283662	1.263585
C283	C	0.620458	-0.245072	0.740116
C284	C	1.120458	0.254928	1.240116
C285	C	0.649217	-0.216330	0.810503
C286	C	1.149217	0.283670	1.310503
C287	C	0.677970	-0.187596	0.833972
C288	C	1.177970	0.312404	1.333972
C289	C	0.706717	-0.158870	0.810523
C290	C	1.206717	0.341130	1.310523
C291	C	0.706712	-0.158881	0.763607
C292	C	1.206712	0.341119	1.263607
C293	C	0.591711	-0.273798	0.763566
C294	C	1.091711	0.226202	1.263566
C295	C	0.591718	-0.273785	0.810481
C296	C	1.091718	0.226215	1.310481
C297	C	0.620471	-0.245050	0.833950
C298	C	1.120471	0.254950	1.333950
H299	H	0.262394	-0.135705	0.297462
H300	H	0.762394	0.364295	0.797462
H301	H	0.036379	-0.297170	0.135440
H302	H	0.536379	0.202830	0.635440
H303	H	0.177289	-0.135702	0.297464
H304	H	0.677289	0.364298	0.797464
O305	O	0.125217	-0.301700	0.130976
O306	O	0.625217	0.198300	0.630976
C307	C	0.152334	-0.330765	0.156497
C308	C	0.652334	0.169235	0.656497
H309	H	0.159390	-0.314970	0.190571
H310	H	0.659390	0.185030	0.690571
H311	H	0.185314	-0.336767	0.138182
H312	H	0.685314	0.163233	0.638182
H313	H	0.134225	-0.364061	0.161374
H314	H	0.634225	0.135939	0.661374
H315	H	-0.179329	-0.164398	0.268702
H316	H	0.320671	0.335602	0.768702
H317	H	0.701358	-1.044896	0.268692
H318	H	1.201358	-0.544896	0.768692
O319	O	0.173391	-0.301611	0.130876
O320	O	0.673391	0.198389	0.630876
C321	C	0.146269	-0.275989	0.101903
C322	C	0.646269	0.224011	0.601903
H323	H	0.139262	-0.241970	0.117817
H324	H	0.639262	0.258030	0.617817
H325	H	0.113265	-0.294282	0.095843
H326	H	0.613265	0.205718	0.595843
H327	H	0.164346	-0.270997	0.068622
H328	H	0.664346	0.229003	0.568622
O329	O	0.563853	-0.301741	0.833273
O330	O	1.063853	0.198259	1.333273
C331	C	0.589408	-0.330748	0.860419
C332	C	1.089408	0.169252	1.360419
H333	H	0.624789	-0.333527	0.846291
H334	H	1.124789	0.166473	1.346291
H335	H	0.573135	-0.365321	0.860935
H336	H	1.073135	0.134679	1.360935
H337	H	0.590963	-0.316854	0.895982
H338	H	1.090963	0.183146	1.395982
O339	O	0.592705	-0.956205	0.159783
O340	O	1.092705	-0.456205	0.659783
C341	C	0.618295	-0.929068	0.130780
C342	C	1.118295	-0.429068	0.630780
H343	H	0.652326	-0.921993	0.146658
H344	H	1.152326	-0.421993	0.646658
H345	H	0.599988	-0.896098	0.124732
H346	H	1.099988	-0.396098	0.624732
H347	H	0.623264	-0.947167	0.097496
H348	H	1.123264	-0.447167	0.597496
H349	H	0.701406	-0.164180	0.960335
H350	H	1.201406	0.335820	1.460335
H351	H	0.701340	-0.959774	0.268681
H352	H	1.201340	-0.459774	0.768681
O353	O	0.734509	-0.599443	0.301843
O354	O	1.234509	-0.099443	0.801843
C355	C	0.763534	-0.572281	0.276298
C356	C	1.263534	-0.072281	0.776298
H357	H	0.766341	-0.586434	0.240918
H358	H	1.266341	-0.086434	0.740918
H359	H	0.798094	-0.571712	0.292584
H360	H	1.298094	-0.071712	0.792584
H361	H	0.749637	-0.536736	0.274735
H362	H	1.249637	-0.036736	0.774735
O363	O	0.563765	-0.301754	0.740841
O364	O	1.063765	0.198246	1.240841
C365	C	0.538387	-0.327093	0.771604
C366	C	1.038387	0.172907	1.271604
H367	H	0.556794	-0.328637	0.805050
H368	H	1.056794	0.171363	1.305050
H369	H	0.533568	-0.362494	0.758044
H370	H	1.033568	0.137506	1.258044
H371	H	0.504280	-0.310639	0.776593
H372	H	1.004280	0.189361	1.276593
H373	H	0.701192	-0.387379	0.268586
H374	H	1.201192	0.112621	0.768586
H375	H	-0.094206	-0.164396	0.268701
H376	H	0.405794	0.335604	0.768701
O377	O	0.265947	-0.301607	0.130846
O378	O	0.765947	0.198393	0.630846
C379	C	0.293103	-0.275988	0.101885
C380	C	0.793103	0.224012	0.601885
H381	H	0.278990	-0.240599	0.099181
H382	H	0.778990	0.259401	0.599181
H383	H	0.293611	-0.292183	0.067279
H384	H	0.793611	0.207817	0.567279
H385	H	0.328668	-0.274465	0.115775
H386	H	0.828668	0.225535	0.615775
H387	H	0.597032	-0.472657	0.164244
H388	H	1.097032	0.027343	0.664244
O389	O	0.481812	-0.159849	0.273199
O390	O	0.981812	0.340151	0.773199
C391	C	0.451068	-0.134538	0.298615
C392	C	0.951068	0.365462	0.798615
H393	H	0.417620	-0.132955	0.280216
H394	H	0.917620	0.367045	0.780216
H395	H	0.464648	-0.099149	0.303476
H396	H	0.964648	0.400851	0.803476
H397	H	0.446077	-0.151041	0.332702
H398	H	0.946077	0.348959	0.832702
O399	O	0.734510	-0.691995	0.301858
O400	O	1.234510	-0.191995	0.801858
C401	C	0.763562	-0.719110	0.276312
C402	C	1.263562	-0.219110	0.776312
H403	H	0.747742	-0.726180	0.242254
H404	H	1.247742	-0.226180	0.742254
H405	H	0.769588	-0.752083	0.294624
H406	H	1.269588	-0.252083	0.794624
H407	H	0.796850	-0.700994	0.271401
H408	H	1.296850	-0.200994	0.771401
O409	O	0.705763	-0.476100	0.273144
O410	O	1.205763	0.023900	0.773144
C411	C	0.731084	-0.445289	0.298527
C412	C	1.231084	0.054711	0.798527
H413	H	0.732643	-0.411857	0.280116
H414	H	1.232643	0.088143	0.780116
H415	H	0.766481	-0.458806	0.303361
H416	H	1.266481	0.041194	0.803361
H417	H	0.714604	-0.440289	0.332628
H418	H	1.214604	0.059711	0.832628
H419	H	0.597013	-0.268557	0.387896
H420	H	1.097013	0.231443	0.887896
O421	O	-0.183046	-0.273017	0.159683
O422	O	0.316954	0.226983	0.659683
C423	C	-0.152300	-0.298341	0.134282
C424	C	0.347700	0.201659	0.634282
H425	H	-0.118845	-0.279934	0.132763
H426	H	0.381155	0.220066	0.632763
H427	H	-0.165867	-0.303081	0.098876
H428	H	0.334133	0.196919	0.598876
H429	H	-0.147324	-0.332486	0.150666
H430	H	0.352676	0.167514	0.650666
O431	O	0.734579	-0.832679	0.301901
O432	O	1.234579	-0.332679	0.801901
C433	C	0.779362	-0.821177	0.292140
C434	C	1.279362	-0.321177	0.792140
H435	H	0.781660	-0.808299	0.256251
H436	H	1.281660	-0.308299	0.756251
H437	H	0.801556	-0.852013	0.296039
H438	H	1.301556	-0.352013	0.796039
H439	H	0.791081	-0.793920	0.316235
H440	H	1.291081	-0.293920	0.816235
O441	O	-0.090582	-0.273023	0.159777
O442	O	0.409418	0.226977	0.659777
C443	C	-0.063462	-0.302087	0.185295
C444	C	0.436538	0.197913	0.685295
H445	H	-0.056404	-0.286292	0.219368
H446	H	0.443596	0.213708	0.719368
H447	H	-0.030483	-0.308086	0.166977
H448	H	0.469517	0.191914	0.666977
H449	H	-0.081567	-0.335384	0.190172
H450	H	0.418433	0.164616	0.690172
O451	O	0.563831	-0.832933	0.131087
O452	O	1.063831	-0.332933	0.631087
C453	C	0.519050	-0.821486	0.140858
C454	C	1.019050	-0.321486	0.640858
H455	H	0.516760	-0.808570	0.176745
H456	H	1.016760	-0.308570	0.676745
H457	H	0.496859	-0.852359	0.136973
H458	H	0.996859	-0.352359	0.636973
H459	H	0.507319	-0.794274	0.116759
H460	H	1.007319	-0.294274	0.616759
O461	O	0.592734	-1.048761	0.159771
O462	O	1.092734	-0.548761	0.659771
C463	C	0.618334	-1.075903	0.130788
C464	C	1.118334	-0.575903	0.630788
H465	H	0.653716	-1.061736	0.128043
H466	H	1.153716	-0.561736	0.628043
H467	H	0.602107	-1.076468	0.096200
H468	H	1.102107	-0.576468	0.596200
H469	H	0.619879	-1.111452	0.144683
H470	H	1.119879	-0.611452	0.644683
H471	H	0.729988	-0.743905	0.297412
H472	H	1.229988	-0.243905	0.797412
O473	O	0.592539	-0.272986	0.956680
O474	O	1.092539	0.227014	1.456680
C475	C	0.567164	-0.298327	0.987443
C476	C	1.067164	0.201673	1.487443
H477	H	0.585574	-0.299874	1.020887
H478	H	1.085574	0.200126	1.520887
H479	H	0.562342	-0.333726	0.973881
H480	H	1.062342	0.166274	1.473881
H481	H	0.533057	-0.281872	0.992436
H482	H	1.033057	0.218128	1.492436
H483	H	0.701339	-0.164310	0.387940
H484	H	1.201339	0.335690	0.887940
O485	O	0.563808	-0.692129	0.131003
O486	O	1.063808	-0.192129	0.631003
C487	C	0.538470	-0.661392	0.105615
C488	C	1.038470	-0.161392	0.605615
H489	H	0.536902	-0.627940	0.124014
H490	H	1.036902	-0.127940	0.624014
H491	H	0.503077	-0.674977	0.100793
H492	H	1.003077	-0.174977	0.600793
H493	H	0.554941	-0.656407	0.071509
H494	H	1.054941	-0.156407	0.571509
H495	H	0.568340	-0.603394	0.135526
H496	H	1.068340	-0.103394	0.635526
O497	O	0.389342	-0.273016	0.159644
O498	O	0.889342	0.226984	0.659644
C499	C	0.420084	-0.298346	0.134245
C500	C	0.920084	0.201654	0.634245
H501	H	0.453542	-0.279944	0.132726
H502	H	0.953542	0.220056	0.632726
H503	H	0.406517	-0.303086	0.098840
H504	H	0.906517	0.196914	0.598840
H505	H	0.425054	-0.332491	0.150632
H506	H	0.925054	0.167509	0.650632
O507	O	0.734577	-0.130940	0.600114
O508	O	1.234577	0.369060	1.100114
C509	C	0.724787	-0.086169	0.611610
C510	C	1.224787	0.413831	1.111610
H511	H	0.688898	-0.083908	0.624497
H512	H	1.188898	0.416092	1.124497
H513	H	0.728671	-0.063968	0.580770
H514	H	1.228671	0.436032	1.080770
H515	H	0.748877	-0.074426	0.638860
H516	H	1.248877	0.425574	1.138860
H517	H	0.597012	-0.387534	0.164232
H518	H	1.097012	0.112466	0.664232
H519	H	0.568387	-0.744152	0.135543
H520	H	1.068387	-0.244152	0.635543
H521	H	0.568280	-0.297209	0.688812
H522	H	1.068280	0.202791	1.188812
O523	O	0.481838	-0.272956	0.159692
O524	O	0.981838	0.227044	0.659692
C525	C	0.528284	-0.266808	0.165873
C526	C	1.028284	0.233192	0.665873
H527	H	0.534714	-0.232162	0.180659
H528	H	1.034714	0.267838	0.680659
H529	H	0.546105	-0.269798	0.132216
H530	H	1.046105	0.230202	0.632216
H531	H	0.541591	-0.293494	0.189742
H532	H	1.041591	0.206506	0.689742
O533	O	0.705907	-0.159754	0.476670
O534	O	1.205907	0.340246	0.976670
C535	C	0.731269	-0.134401	0.445906
C536	C	1.231269	0.365599	0.945906
H537	H	0.732803	-0.152813	0.412460
H538	H	1.232803	0.347187	0.912460
H539	H	0.766672	-0.129607	0.459464
H540	H	1.266672	0.370393	0.959464
H541	H	0.714843	-0.100281	0.440920
H542	H	1.214843	0.399719	0.940920
O543	O	0.734573	-0.130941	0.692588
O544	O	1.234573	0.369059	1.192588
C545	C	0.709027	-0.101920	0.719740
C546	C	1.209027	0.398080	1.219740
H547	H	0.673641	-0.099148	0.705604
H548	H	1.173641	0.400852	1.205604
H549	H	0.725300	-0.067348	0.720274
H550	H	1.225300	0.432652	1.220274
H551	H	0.707481	-0.115798	0.755297
H552	H	1.207481	0.384202	1.255297
H553	H	0.730130	-0.135475	0.829639
H554	H	1.230130	0.364525	1.329639
O555	O	0.125271	-0.131151	0.302003
O556	O	0.625271	0.368849	0.802003
C557	C	0.094523	-0.105843	0.327417
C558	C	0.594523	0.394157	0.827417
H559	H	0.061075	-0.104265	0.309017
H560	H	0.561075	0.395735	0.809017
H561	H	0.108098	-0.070452	0.332278
H562	H	0.608098	0.429548	0.832278
H563	H	0.089532	-0.122346	0.361504
H564	H	0.589532	0.377654	0.861504
H565	H	0.036529	-0.135705	0.297468
H566	H	0.536529	0.364295	0.797468
H567	H	0.701411	-0.164164	1.045458
H568	H	1.201411	0.335836	1.545458
H569	H	0.597090	-0.268417	1.045408
H570	H	1.097090	0.231583	1.545408
O571	O	0.563806	-0.301805	0.600030
O572	O	1.063806	0.198195	1.100030
C573	C	0.573591	-0.346576	0.611499
C574	C	1.073591	0.153424	1.111499
H575	H	0.609479	-0.348838	0.624405
H576	H	1.109479	0.151162	1.124405
H577	H	0.569707	-0.368780	0.580639
H578	H	1.069707	0.131220	1.080639
H579	H	0.549498	-0.358313	0.638724
H580	H	1.049498	0.141687	1.138724
O581	O	0.389346	-0.159947	0.273213
O582	O	0.889346	0.340053	0.773213
C583	C	0.362209	-0.185569	0.302189
C584	C	0.862209	0.314431	0.802189
H585	H	0.355147	-0.219589	0.286276
H586	H	0.855147	0.280411	0.786276
H587	H	0.329233	-0.167276	0.308253
H588	H	0.829233	0.332724	0.808253
H589	H	0.380302	-0.190561	0.335468
H590	H	0.880302	0.309439	0.835468
O591	O	0.592461	-0.273067	0.476638
O592	O	1.092461	0.226933	0.976638
C593	C	0.567093	-0.298441	0.445860
C594	C	1.067093	0.201559	0.945860
H595	H	0.565549	-0.280049	0.412418
H596	H	1.065549	0.219951	0.912418
H597	H	0.531693	-0.303229	0.459406
H598	H	1.031693	0.196771	0.959406
H599	H	0.583521	-0.332563	0.440869
H600	H	1.083521	0.167437	0.940869
O601	O	0.734654	-0.130934	0.740904
O602	O	1.234654	0.369066	1.240904
C603	C	0.760037	-0.105581	0.771687
C604	C	1.260037	0.394419	1.271687
H605	H	0.741637	-0.104023	0.805127
H606	H	1.241637	0.395977	1.305127
H607	H	0.764853	-0.070186	0.758145
H608	H	1.264853	0.429814	1.258145
H609	H	0.794146	-0.122033	0.776680
H610	H	1.294146	0.377967	1.276680
