data_functionalizedCrystal
_audit_creation_method	'MofGen! by Chris Wilmer'
_symmetry_space_group_name_H-M	'P1'
_symmetry_Int_Tables_number	1
_symmetry_cell_setting	triclinic
loop_
_symmetry_equiv_pos_as_xyz
  x,y,z
_cell_length_a	19.188905
_cell_length_b	11.026607
_cell_length_c	9.482900
_cell_angle_alpha	78.599815
_cell_angle_beta	80.736396
_cell_angle_gamma	84.139714
loop_
_atom_site_label
_atom_site_type_symbol
_atom_site_fract_x
_atom_site_fract_y
_atom_site_fract_z
O1	O	0.953938	-0.132168	-0.121138
O2	O	1.453938	0.367832	0.378862
O3	O	0.753222	-0.152588	-0.121089
O4	O	1.253222	0.347412	0.378911
O5	O	0.836944	0.034183	-0.121104
O6	O	1.336944	0.534183	0.378896
O7	O	0.870215	-0.318939	-0.121123
O8	O	1.370215	0.181061	0.378877
O9	O	0.819958	-0.003906	0.120691
O10	O	1.319958	0.496094	0.620691
O11	O	0.736235	-0.190677	0.120707
O12	O	1.236235	0.309323	0.620707
O13	O	0.936951	-0.170257	0.120657
O14	O	1.436951	0.329743	0.620657
Cu15	Cu	0.835042	-0.183945	0.142760
Cu16	Cu	1.335042	0.316055	0.642760
Cu17	Cu	0.855131	-0.138900	-0.143191
Cu18	Cu	1.355131	0.361100	0.356809
O19	O	0.853229	-0.357028	0.120673
O20	O	1.353229	0.142972	0.620673
C21	C	0.718633	-0.170978	-0.000185
C22	C	1.218633	0.329022	0.499815
C23	C	0.640875	-0.169012	-0.000165
C24	C	1.140875	0.330988	0.499835
C25	C	0.613623	-0.147303	-0.131972
C26	C	1.113623	0.352697	0.368028
C27	C	0.540563	-0.145436	-0.131990
C28	C	1.040563	0.354564	0.368010
C29	C	0.494757	-0.165255	-0.000194
C30	C	0.994757	0.334745	0.499806
C31	C	0.522017	-0.186974	0.131630
C32	C	1.022017	0.313026	0.631630
C33	C	0.595077	-0.188852	0.131644
C34	C	1.095077	0.311148	0.631644
N35	N	0.369675	-0.108751	0.097893
N36	N	0.869675	0.391249	0.597893
N37	N	0.300272	-0.106963	0.097871
N38	N	0.800272	0.393037	0.597871
C39	C	0.274633	-0.159600	-0.000229
C40	C	0.774633	0.340400	0.499771
N41	N	0.321018	-0.214075	-0.098327
N42	N	0.821018	0.285925	0.401673
N43	N	0.390428	-0.215857	-0.098309
N44	N	0.890428	0.284143	0.401691
C45	C	0.415535	-0.163222	-0.000195
C46	C	0.915535	0.336778	0.499805
C47	C	0.168161	-0.135868	-0.132064
C48	C	0.668161	0.364132	0.367936
C49	C	0.095100	-0.134010	-0.132076
C50	C	0.595100	0.365990	0.367924
C51	C	0.076554	-0.175536	0.131548
C52	C	0.576554	0.324464	0.631548
C53	C	0.149615	-0.177406	0.131556
C54	C	0.649615	0.322594	0.631556
C55	C	0.195414	-0.157565	-0.000254
C56	C	0.695414	0.342435	0.499746
C57	C	0.822313	0.060316	-0.000207
C58	C	1.322313	0.560316	0.499793
C59	C	0.804017	0.194930	-0.000207
C60	C	1.304017	0.694930	0.499793
C61	C	0.971540	-0.151867	-0.000250
C62	C	1.471540	0.348133	0.499750
C63	C	1.049298	-0.153831	-0.000279
C64	C	1.549298	0.346169	0.499721
C65	C	0.867860	-0.383160	-0.000228
C66	C	1.367860	0.116840	0.499772
C67	C	0.886157	-0.517773	-0.000237
C68	C	1.386157	-0.017773	0.499763
N69	N	0.820918	-0.215626	0.343883
N70	N	1.320918	0.284374	0.843883
C71	C	0.854538	0.269014	-0.000222
C72	C	1.354538	0.769014	0.499778
C73	C	0.835629	0.408145	-0.000223
C74	C	1.335629	0.908145	0.499777
N75	N	0.869260	-0.107209	-0.344314
N76	N	1.369260	0.392791	0.155686
C77	C	0.850959	-0.148238	0.416076
C78	C	1.350959	0.351762	0.916076
C79	C	0.839214	-0.174607	0.583496
C80	C	1.339214	0.325393	1.083496
H81	H	0.617264	-0.206532	0.238980
H82	H	1.117264	0.293468	0.738980
H83	H	0.885372	-0.071018	0.353942
H84	H	1.385372	0.428982	0.853942
H85	H	0.911789	0.229436	-0.000227
H86	H	1.411789	0.729436	0.499773
H87	H	0.205453	-0.119726	-0.239391
H88	H	0.705453	0.380274	0.260609
H89	H	0.518370	-0.127760	-0.239326
H90	H	1.018370	0.372240	0.260674
H91	H	0.650909	-0.131147	-0.239302
H92	H	1.150909	0.368853	0.260698
H93	H	0.804793	-0.251823	0.645627
H94	H	1.304793	0.248177	1.145627
H95	H	0.778374	0.447717	-0.000218
H96	H	1.278374	0.947717	0.499782
H97	H	0.786499	-0.292837	0.406019
H98	H	1.286499	0.207163	0.906019
H99	H	0.943421	0.442676	-0.000360
H100	H	1.443421	0.942676	0.499640
H101	H	0.903674	-0.029985	0.593555
H102	H	1.403674	0.470015	1.093555
H103	H	0.072914	-0.116339	-0.239413
H104	H	0.572914	0.383661	0.260587
H105	H	0.484717	-0.203114	0.238939
H106	H	0.984717	0.296886	0.738939
H107	H	0.746765	0.234508	-0.000203
H108	H	1.246765	0.734508	0.499797
H109	H	0.171803	-0.195075	0.238888
H110	H	0.671803	0.304925	0.738888
H111	H	0.039260	-0.191681	0.238859
H112	H	0.539260	0.308319	0.738859
