data_functionalizedCrystal
_audit_creation_method	'MofGen! by Chris Wilmer'
_symmetry_space_group_name_H-M	'P1'
_symmetry_Int_Tables_number	1
_symmetry_cell_setting	triclinic
loop_
_symmetry_equiv_pos_as_xyz
  x,y,z
_cell_length_a	13.897449
_cell_length_b	17.640280
_cell_length_c	17.637464
_cell_angle_alpha	92.150542
_cell_angle_beta	78.805003
_cell_angle_gamma	101.199189
loop_
_atom_site_label
_atom_site_type_symbol
_atom_site_fract_x
_atom_site_fract_y
_atom_site_fract_z
Zn1	Zn	1.479768	0.389124	0.368373
Zn2	Zn	1.542366	0.490445	0.215744
Zn3	Zn	1.343489	0.363479	0.241390
Zn4	Zn	1.356112	0.516067	0.342696
O5	O	1.430434	0.439779	0.292051
O6	O	1.623052	0.402574	0.348140
O7	O	1.536899	0.452148	0.112873
O8	O	1.330086	0.260619	0.279713
O9	O	1.669042	0.477014	0.236004
O10	O	1.430210	0.279460	0.373007
O11	O	1.390785	0.358866	0.131715
O12	O	1.210183	0.383711	0.254815
O13	O	1.351601	0.520683	0.452376
O14	O	1.219457	0.495816	0.329245
O15	O	1.442450	0.427419	0.471240
O16	O	1.549139	0.600106	0.211106
O17	O	1.412300	0.618930	0.304377
C18	C	1.179821	0.439762	0.292027
C19	C	1.072610	0.439777	0.292031
C20	C	1.488905	0.637074	0.252189
C21	C	1.514002	0.721482	0.235161
C22	C	1.391451	0.479770	0.490134
C23	C	1.374839	0.496811	0.574545
C24	C	0.985538	0.439782	0.292043
C25	C	0.876303	0.439792	0.292065
C26	C	1.682025	0.439797	0.292075
C27	C	1.789238	0.439804	0.292086
C28	C	1.371757	0.241717	0.332085
C29	C	1.346753	0.157315	0.349145
C30	C	1.240113	1.048176	0.421684
C31	C	1.263702	1.127486	0.405660
C32	C	1.406250	1.107839	0.308635
C33	C	1.382676	1.028526	0.324653
C34	C	1.299605	0.998702	0.381178
C35	C	1.442168	0.979051	0.284148
C36	C	1.418592	0.899745	0.300162
C37	C	1.335523	0.869914	0.356683
C38	C	1.276029	0.919395	0.397193
C39	C	1.525234	1.008877	0.227619
C40	C	1.584726	0.959402	0.187113
C41	C	1.561155	0.880095	0.203132
C42	C	1.478086	0.850264	0.259652
C43	C	1.620649	0.830613	0.162622
C44	C	1.597073	0.751307	0.178637
C45	C	1.454510	0.770957	0.275667
C46	C	1.469304	0.399889	0.094749
C47	C	1.486039	0.382634	0.010382
C48	C	1.304130	0.569385	0.683699
C49	C	1.319745	0.553366	0.604383
C50	C	1.414345	0.456256	0.624017
C51	C	1.398742	0.472270	0.703336
C52	C	1.343633	0.528834	0.733170
C53	C	1.438245	0.431719	0.752808
C54	C	1.422639	0.447729	0.832120
C55	C	1.367530	0.504289	0.861961
C56	C	1.328027	0.544844	0.812483
C57	C	1.493348	0.375151	0.722973
C58	C	1.532851	0.334601	0.772444
C59	C	1.517251	0.350614	0.851757
C60	C	1.462142	0.407174	0.881598
C61	C	1.556754	0.310059	0.901236
C62	C	1.541148	0.326069	0.980548
C63	C	1.446536	0.423184	0.960910
H64	H	1.316323	0.805336	0.369716
H65	H	1.544429	1.073454	0.214584
H66	H	1.208390	0.895113	0.443227
C67	C	1.210657	0.545930	0.513057
C68	C	1.276321	0.597958	0.550012
H69	H	1.183845	0.573463	0.479498
H70	H	1.245706	0.509965	0.483926
H71	H	1.157876	0.519086	0.550687
H72	H	1.329106	0.624797	0.512382
H73	H	1.241270	0.633936	0.579144
H74	H	1.172474	1.023894	0.467718
H75	H	1.215260	1.167770	0.438658
H76	H	1.652360	0.983696	0.141089
H77	H	1.688279	0.854908	0.116594
H78	H	1.473884	1.132133	0.262610
H79	H	1.645517	0.711023	0.145652
H80	H	1.401669	0.469249	0.985202
H81	H	1.506056	0.362120	0.658391
C82	C	1.442670	0.546604	0.971666
C83	C	1.350377	0.521898	0.949141
H84	H	1.432078	0.557480	1.025486
H85	H	1.481130	0.507113	0.960985
H86	H	1.477386	0.591982	0.943810
H87	H	1.315664	0.476516	0.976993
H88	H	1.311901	0.561392	0.959829
C89	C	1.236077	0.639243	0.785113
C90	C	1.267454	0.607024	0.845284
H91	H	1.198679	0.677624	0.805366
H92	H	1.292794	0.662048	0.748314
H93	H	1.195464	0.599905	0.760861
H94	H	1.308074	0.646360	0.869533
H95	H	1.210729	0.584220	0.882097
H96	H	1.259263	0.615450	0.707990
H97	H	1.459212	0.410200	0.599716
C98	C	1.598796	0.266944	0.659581
C99	C	1.593435	0.272433	0.739644
H100	H	1.636207	0.228569	0.639334
H101	H	1.533258	0.253192	0.648830
H102	H	1.630574	0.315349	0.636281
H103	H	1.561650	0.224030	0.762945
H104	H	1.658985	0.286181	0.750402
H105	H	1.601616	0.264000	0.876933
H106	H	1.573310	0.293045	1.020830
H107	H	1.386871	0.746675	0.321701
