data_functionalizedCrystal
_audit_creation_method	'MofGen! by Chris Wilmer'
_symmetry_space_group_name_H-M	'P1'
_symmetry_Int_Tables_number	1
_symmetry_cell_setting	triclinic
loop_
_symmetry_equiv_pos_as_xyz
  x,y,z
_cell_length_a	14.044220
_cell_length_b	14.044220
_cell_length_c	12.503572
_cell_angle_alpha	93.843168
_cell_angle_beta	86.164750
_cell_angle_gamma	93.188878
loop_
_atom_site_label
_atom_site_type_symbol
_atom_site_fract_x
_atom_site_fract_y
_atom_site_fract_z
O1	O	-1.282200	-0.225116	0.089210
O2	O	-0.948867	0.108217	0.422543
O3	O	-0.615533	0.441550	0.755877
O4	O	-1.005530	-0.216809	0.089237
O5	O	-0.672197	0.116524	0.422570
O6	O	-0.338863	0.449858	0.755904
O7	O	-1.139712	-0.082627	0.089213
O8	O	-0.806378	0.250706	0.422547
O9	O	-0.473045	0.584039	0.755880
O10	O	-1.148019	-0.359298	0.089234
O11	O	-0.814685	-0.025964	0.422567
O12	O	-0.481352	0.307369	0.755900
O13	O	-1.129622	-0.092737	-0.089427
O14	O	-0.796289	0.240596	0.243907
O15	O	-0.462955	0.573930	0.577240
O16	O	-0.995440	-0.226918	-0.089403
O17	O	-0.662107	0.106415	0.243930
O18	O	-0.328774	0.439748	0.577264
O19	O	-1.272110	-0.235226	-0.089430
O20	O	-0.938777	0.098108	0.243903
O21	O	-0.605444	0.431441	0.577237
Cu22	Cu	-1.132854	-0.231995	-0.105728
Cu23	Cu	-0.799521	0.101338	0.227605
Cu24	Cu	-0.466187	0.434672	0.560939
Cu25	Cu	-1.144786	-0.220040	0.105535
Cu26	Cu	-0.811453	0.113294	0.438868
Cu27	Cu	-0.478120	0.446627	0.772202
O28	O	-1.137929	-0.369407	-0.089406
O29	O	-0.804595	-0.036074	0.243927
O30	O	-0.471262	0.297259	0.577260
C31	C	-0.964864	-0.218228	-0.000080
C32	C	-0.631530	0.115105	0.333254
C33	C	-0.298197	0.448439	0.666587
C34	C	-0.858721	-0.207383	-0.000070
C35	C	-0.525388	0.125951	0.333264
C36	C	-0.192055	0.459284	0.666597
C37	C	-1.131031	-0.052060	-0.000107
C38	C	-0.797698	0.281273	0.333227
C39	C	-0.464365	0.614606	0.666560
C40	C	-1.120187	0.054082	-0.000107
C41	C	-0.786853	0.387416	0.333226
C42	C	-0.453520	0.720749	0.666560
C43	C	-1.312777	-0.233807	-0.000111
C44	C	-0.979444	0.099527	0.333222
C45	C	-0.646110	0.432860	0.666556
C46	C	-1.418920	-0.244651	-0.000114
C47	C	-1.085586	0.088682	0.333219
C48	C	-0.752253	0.422015	0.666553
C49	C	-0.664382	-0.187558	-0.000092
C50	C	-0.331049	0.145776	0.333241
C51	C	0.002284	0.479109	0.666574
C52	C	-0.613253	-0.264472	-0.000091
C53	C	-0.279919	0.068861	0.333242
C54	C	0.053414	0.402195	0.666575
C55	C	-0.505116	-0.253441	-0.000104
C56	C	-0.171782	0.079892	0.333229
C57	C	0.161551	0.413225	0.666563
C58	C	-0.772529	-0.198587	-0.000080
C59	C	-0.439196	0.134746	0.333254
C60	C	-0.105863	0.468079	0.666587
C61	C	-1.146609	-0.399974	-0.000084
C62	C	-0.813276	-0.066641	0.333249
C63	C	-0.479943	0.266692	0.666583
C64	C	-1.157454	-0.506117	-0.000077
C65	C	-0.824121	-0.172783	0.333257
C66	C	-0.490788	0.160550	0.666590
N67	N	-1.124469	-0.240404	-0.254319
N68	N	-0.791135	0.092929	0.079015
N69	N	-0.457802	0.426263	0.412348
C70	C	-1.100361	0.248421	-0.000090
C71	C	-0.767028	0.581754	0.333244
C72	C	-0.433695	0.915088	0.666577
C73	C	-1.177275	0.299551	-0.000094
C74	C	-0.843942	0.632884	0.333239
C75	C	-0.510609	0.966217	0.666573
C76	C	-1.166244	0.407687	-0.000084
C77	C	-0.832911	0.741021	0.333249
C78	C	-0.499578	1.074354	0.666582
C79	C	-1.111391	0.140274	-0.000099
C80	C	-0.778058	0.473608	0.333234
C81	C	-0.444724	0.806941	0.666567
C82	C	-1.112134	-0.252782	-0.473432
C83	C	-0.778800	0.080551	-0.140098
C84	C	-0.445467	0.413885	0.193235
C85	C	-1.165511	-0.199249	-0.526768
C86	C	-0.832178	0.134085	-0.193435
C87	C	-0.498844	0.467418	0.139898
C88	C	-1.158648	-0.206136	-0.648690
C89	C	-0.825314	0.127198	-0.315357
C90	C	-0.491981	0.460531	0.017976
C91	C	-1.118996	-0.245896	-0.351499
C92	C	-0.785662	0.087437	-0.018165
C93	C	-0.452329	0.420771	0.315168
N94	N	-1.153179	-0.211624	0.254126
N95	N	-0.819846	0.121710	0.587459
N96	N	-0.486512	0.455043	0.920792
H97	H	-0.626945	-0.113431	-0.000104
H98	H	-0.293612	0.219902	0.333230
H99	H	0.039722	0.553236	0.666563
N100	N	-1.275473	0.249963	-0.000130
N101	N	-0.942140	0.583296	0.333203
N102	N	-0.608806	0.916630	0.666536
H103	H	-1.325267	0.299154	-0.000137
H104	H	-0.991934	0.632487	0.333196
H105	H	-0.658601	0.965821	0.666529
H106	H	-1.287135	0.212486	0.066085
H107	H	-0.953801	0.545819	0.399419
H108	H	-0.620468	0.879152	0.732752
N109	N	-0.662849	-0.362666	-0.000057
N110	N	-0.329516	-0.029332	0.333276
N111	N	0.003818	0.304001	0.666609
H112	H	-0.647517	-0.394768	0.066172
H113	H	-0.314184	-0.061435	0.399505
H114	H	0.019149	0.271898	0.732839
H115	H	-0.640050	-0.402216	-0.066316
H116	H	-0.306717	-0.068882	0.267017
H117	H	0.026616	0.264451	0.600351
N118	N	-1.002168	0.298004	-0.000079
N119	N	-0.668834	0.631337	0.333255
N120	N	-0.335501	0.964670	0.666588
H121	H	-1.008108	0.369344	-0.000077
H122	H	-0.674775	0.702677	0.333257
H123	H	-0.341442	1.036010	0.666590
H124	H	-0.962620	0.275132	-0.066305
H125	H	-0.629287	0.608465	0.267029
H126	H	-0.295953	0.941799	0.600362
N127	N	-1.232874	-0.131687	-0.465975
N128	N	-0.899540	0.201647	-0.132642
N129	N	-0.566207	0.534980	0.200691
H130	H	-1.228295	-0.136280	-0.386233
H131	H	-0.894961	0.197054	-0.052900
H132	H	-0.561628	0.530387	0.280434
H133	H	-1.300467	-0.149461	-0.485564
H134	H	-0.967134	0.183872	-0.152230
H135	H	-0.633801	0.517205	0.181103
H136	H	-1.061285	-0.303783	-0.519330
H137	H	-0.727952	0.029550	-0.185997
H138	H	-0.394619	0.362883	0.147337
