data_functionalizedCrystal
_audit_creation_method	'MofGen! by Chris Wilmer'
_symmetry_space_group_name_H-M	'P1'
_symmetry_Int_Tables_number	1
_symmetry_cell_setting	triclinic
loop_
_symmetry_equiv_pos_as_xyz
  x,y,z
_cell_length_a	13.185407
_cell_length_b	10.489716
_cell_length_c	11.804365
_cell_angle_alpha	101.956103
_cell_angle_beta	82.231191
_cell_angle_gamma	68.251310
loop_
_atom_site_label
_atom_site_type_symbol
_atom_site_fract_x
_atom_site_fract_y
_atom_site_fract_z
O1	O	1.466160	-0.364628	-0.099013
O2	O	1.149666	-0.235684	-0.099015
O3	O	1.315129	-0.488312	-0.099018
O4	O	1.300696	-0.112000	-0.099010
O5	O	1.271569	-0.421856	0.099039
O6	O	1.106105	-0.169228	0.099042
O7	O	1.422599	-0.298173	0.099044
Cu8	Cu	1.260375	-0.227632	0.117127
Cu9	Cu	1.311890	-0.306224	-0.117098
O10	O	1.257136	-0.045544	0.099047
C11	C	1.087359	-0.189384	0.000013
C12	C	0.966602	-0.150448	0.000012
C13	C	0.674457	-0.522044	0.000008
C14	C	0.787913	-0.558627	0.000017
C15	C	0.832591	-0.456586	0.000015
C16	C	0.763801	-0.317954	0.000006
C17	C	0.650332	-0.281363	0.000006
C18	C	0.808466	-0.215906	0.000013
C19	C	0.739676	-0.077274	0.000003
C20	C	0.626219	-0.040690	0.000003
C21	C	0.581541	-0.142732	0.000005
C22	C	0.921935	-0.252496	0.000013
C23	C	0.897810	-0.011816	0.000010
C24	C	0.784354	0.024767	0.000001
C25	C	1.292266	-0.502233	0.000007
C26	C	1.289024	-0.642720	-0.000004
C27	C	1.390488	-0.776313	0.000007
C28	C	1.358348	-0.867456	-0.097642
C29	C	1.315377	-0.801892	0.097626
C30	C	1.256944	-0.732039	-0.097734
C31	C	1.213968	-0.666445	0.097622
C32	C	1.181759	-0.757521	-0.000052
C33	C	1.484907	-0.344473	0.000013
C34	C	1.605666	-0.383412	0.000007
C35	C	1.280000	-0.031624	0.000020
C36	C	1.283243	0.108860	0.000023
N37	N	1.224150	-0.172359	0.281868
N38	N	1.348124	-0.361510	-0.281839
C39	C	1.435114	-0.494266	0.655813
C40	C	1.462517	-0.536086	0.531151
C41	C	1.402927	-0.445158	0.468824
C42	C	1.315930	-0.312403	0.531172
C43	C	1.288530	-0.270575	0.655846
C44	C	1.256343	-0.221466	0.468857
C45	C	1.169346	-0.088712	0.531205
C46	C	1.141950	-0.046891	0.655867
C47	C	1.201540	-0.137819	0.718194
C48	C	1.283743	-0.263294	0.344183
C49	C	1.137160	-0.039603	0.344216
C50	C	1.109757	0.002216	0.468878
H51	H	0.570209	0.072197	0.000007
H52	H	1.088638	0.034441	0.293470
Cl53	Cl	1.045411	-0.746994	-0.000129
Cl54	Cl	1.571879	-0.702967	0.452774
Cl55	Cl	1.218918	-0.684608	-0.225340
H56	H	1.153014	-0.580074	0.180181
Cl57	Cl	0.697864	0.199042	-0.000011
Cl58	Cl	1.008400	-0.426771	0.000023
Cl59	Cl	0.975231	-0.502590	-0.000004
H60	H	1.340075	-0.832837	0.180179
H61	H	1.425243	-0.479213	0.367318
Cl62	Cl	1.510028	-0.608555	0.734167
H63	H	1.354577	-0.371383	0.293430
Cl64	Cl	0.953965	0.116476	0.000018
Cl65	Cl	1.032596	0.120010	0.734249
H66	H	1.478769	-0.782917	-0.000091
H67	H	0.843913	-0.671500	0.000030
Cl68	Cl	1.000392	0.169105	0.547270
Cl69	Cl	0.618282	-0.650302	0.000024
Cl70	Cl	0.438908	-0.096752	-0.000024
H71	H	1.179226	-0.103773	0.819704
H72	H	1.419339	-0.953817	-0.180199
