data_functionalizedCrystal
_audit_creation_method	'MofGen! by Chris Wilmer'
_symmetry_space_group_name_H-M	'P1'
_symmetry_Int_Tables_number	1
_symmetry_cell_setting	triclinic
loop_
_symmetry_equiv_pos_as_xyz
  x,y,z
_cell_length_a	15.944499
_cell_length_b	15.944493
_cell_length_c	16.176319
_cell_angle_alpha	89.999072
_cell_angle_beta	89.989994
_cell_angle_gamma	83.476327
loop_
_atom_site_label
_atom_site_type_symbol
_atom_site_fract_x
_atom_site_fract_y
_atom_site_fract_z
O1	O	1.114532	0.108130	-0.068785
O2	O	1.614532	0.608130	0.431215
O3	O	0.869974	0.121532	-0.068775
O4	O	1.369974	0.621532	0.431225
O5	O	0.998957	-0.007448	-0.068787
O6	O	1.498957	0.492552	0.431213
O7	O	0.985549	0.237111	-0.068773
O8	O	1.485549	0.737111	0.431227
O9	O	0.998939	-0.007456	0.068706
O10	O	1.498939	0.492544	0.568706
O11	O	0.869956	0.121524	0.068719
O12	O	1.369956	0.621524	0.568719
O13	O	1.114514	0.108122	0.068708
O14	O	1.614514	0.608122	0.568708
Cu15	Cu	0.992233	0.114822	0.081268
Cu16	Cu	1.492233	0.614822	0.581268
Cu17	Cu	0.992254	0.114832	-0.081334
Cu18	Cu	1.492254	0.614832	0.418666
O19	O	0.985531	0.237102	0.068720
O20	O	1.485531	0.737102	0.568720
C21	C	0.838670	0.120979	-0.000027
C22	C	1.338670	0.620979	0.499973
C23	C	0.745422	0.119334	-0.000023
C24	C	1.245422	0.619334	0.499977
C25	C	0.453871	0.194269	-0.000031
C26	C	0.953871	0.694269	0.499969
C27	C	0.514917	0.155320	-0.067826
C28	C	1.014917	0.655320	0.432174
C29	C	0.409787	0.113358	-0.000043
C30	C	0.909787	0.613358	0.499957
C31	C	0.514885	0.155290	0.067731
C32	C	1.014885	0.655290	0.567731
C33	C	0.574695	0.116299	-0.000032
C34	C	1.074695	0.616299	0.499968
C35	C	0.469605	0.074387	-0.067894
C36	C	0.969605	0.574387	0.432106
C37	C	0.469567	0.074368	0.067724
C38	C	0.969567	0.574368	0.567724
C39	C	0.530595	0.035361	-0.000087
C40	C	1.030595	0.535361	0.499913
C41	C	0.314787	0.111666	-0.000050
C42	C	0.814787	0.611666	0.499950
C43	C	0.669694	0.117984	-0.000031
C44	C	1.169694	0.617984	0.499969
C45	C	0.998400	-0.038747	-0.000044
C46	C	1.498400	0.461253	0.499956
C47	C	0.996757	-0.131995	-0.000054
C48	C	1.496757	0.368005	0.499946
C49	C	1.072679	-0.367769	-0.000042
C50	C	1.572679	0.132231	0.499958
C51	C	1.031746	-0.418326	-0.067831
C52	C	1.531746	0.081674	0.432169
C53	C	0.993713	-0.302716	-0.000044
C54	C	1.493713	0.197284	0.499956
C55	C	1.031710	-0.418310	0.067726
C56	C	1.531710	0.081690	0.567726
C57	C	0.990778	-0.467625	-0.000031
C58	C	1.490778	0.032375	0.499969
C59	C	0.952801	-0.352044	-0.067889
C60	C	1.452801	0.147956	0.432111
C61	C	0.952776	-0.352025	0.067729
C62	C	1.452776	0.147975	0.567729
C63	C	0.911785	-0.402548	-0.000076
C64	C	1.411785	0.097452	0.499924
C65	C	0.995405	-0.207716	-0.000053
C66	C	1.495405	0.292284	0.499947
C67	C	0.989079	-0.562622	-0.000028
C68	C	1.489079	-0.062622	0.499972
C69	C	1.145818	0.108675	-0.000042
C70	C	1.645818	0.608675	0.499958
C71	C	1.239066	0.110320	-0.000050
C72	C	1.739066	0.610320	0.499950
C73	C	0.986088	0.268401	-0.000024
C74	C	1.486088	0.768401	0.499976
C75	C	0.987731	0.361650	-0.000019
C76	C	1.487731	0.861650	0.499981
N77	N	0.992225	0.114815	0.195633
N78	N	1.492225	0.614815	0.695633
N79	N	0.992270	0.114833	-0.195699
N80	N	1.492270	0.614833	0.304301
C81	C	1.049356	0.057726	0.238891
C82	C	1.549356	0.557726	0.738891
C83	C	1.049360	0.057725	0.325438
C84	C	1.549360	0.557725	0.825438
C85	C	0.992237	0.114818	0.368725
C86	C	1.492237	0.614818	0.868725
C87	C	0.935100	0.171910	0.325461
C88	C	1.435100	0.671910	0.825461
C89	C	0.935092	0.171906	0.238915
C90	C	1.435092	0.671906	0.738915
C91	C	0.935129	0.171926	0.674489
C92	C	1.435129	0.671926	1.174489
C93	C	0.935142	0.171927	0.761040
C94	C	1.435142	0.671927	1.261040
C95	C	1.049396	0.057744	0.761012
C96	C	1.549396	0.557744	1.261012
C97	C	1.049389	0.057741	0.674467
C98	C	1.549389	0.557741	1.174467
C99	C	0.992249	0.114829	0.631210
C100	C	1.492249	0.614829	1.131210
C101	C	0.992244	0.114828	0.537365
C102	C	1.492244	0.614828	1.037365
C103	C	0.992245	0.114823	0.462568
C104	C	1.492245	0.614823	0.962568
H105	H	0.563787	-0.031847	-0.000127
H106	H	1.063787	0.468153	0.499873
Cl107	Cl	0.806689	-0.426412	-0.000126
Cl108	Cl	1.306689	0.073588	0.499874
H109	H	1.095880	0.011238	0.360659
H110	H	1.595880	0.511238	0.860659
H111	H	1.095920	0.011257	0.796241
H112	H	1.595920	0.511257	1.296241
H113	H	1.140699	-0.352153	-0.000113
H114	H	1.640699	0.147847	0.499887
H115	H	0.888569	0.218393	0.203695
H116	H	1.388569	0.718393	0.703695
Cl117	Cl	0.438788	0.021596	-0.156480
Cl118	Cl	0.938788	0.521596	0.343520
Cl119	Cl	0.901357	-0.307539	-0.156470
Cl120	Cl	1.401357	0.192461	0.343530
Cl121	Cl	0.402386	0.297937	-0.000123
Cl122	Cl	0.902386	0.797937	0.499877
Cl123	Cl	0.901339	-0.307284	0.156223
Cl124	Cl	1.401339	0.192716	0.656223
Cl125	Cl	0.863301	0.243695	0.620114
Cl126	Cl	1.363301	0.743695	1.120114
Cl127	Cl	1.121176	-0.014049	0.184483
Cl128	Cl	1.621176	0.485951	0.684483
Cl129	Cl	0.438503	0.021570	0.156212
Cl130	Cl	0.938503	0.521570	0.656212
Cl131	Cl	0.545938	0.208159	-0.156313
Cl132	Cl	1.045938	0.708159	0.343687
Cl133	Cl	0.545861	0.208141	0.156217
Cl134	Cl	1.045861	0.708141	0.656217
H135	H	1.065068	-0.447250	0.125033
H136	H	1.565068	0.052750	0.625033
Cl137	Cl	1.121205	-0.014033	0.620052
Cl138	Cl	1.621205	0.485967	1.120052
Cl139	Cl	0.863323	0.243705	0.815457
Cl140	Cl	1.363323	0.743705	1.315457
Cl141	Cl	1.083243	-0.463024	-0.156319
Cl142	Cl	1.583243	0.036976	0.343681
Cl143	Cl	0.863282	0.243681	0.379876
Cl144	Cl	1.363282	0.743681	0.879876
