data_functionalizedCrystal
_audit_creation_method	'MofGen! by Chris Wilmer'
_symmetry_space_group_name_H-M	'P1'
_symmetry_Int_Tables_number	1
_symmetry_cell_setting	triclinic
loop_
_symmetry_equiv_pos_as_xyz
  x,y,z
_cell_length_a	10.654541
_cell_length_b	16.098524
_cell_length_c	10.654555
_cell_angle_alpha	93.038108
_cell_angle_beta	84.486741
_cell_angle_gamma	93.039506
loop_
_atom_site_label
_atom_site_type_symbol
_atom_site_fract_x
_atom_site_fract_y
_atom_site_fract_z
O1	O	1.672906	0.069226	0.181438
O2	O	1.307428	0.069233	0.198247
O3	O	1.498563	0.069229	0.007104
O4	O	1.481771	0.069230	0.372581
O5	O	1.488432	-0.069284	-0.003015
O6	O	1.297297	-0.069281	0.188129
O7	O	1.662775	-0.069287	0.171319
Zn8	Zn	1.478428	-0.091276	0.178117
Zn9	Zn	1.491776	0.091221	0.191449
O10	O	1.471640	-0.069284	0.362462
C11	C	1.255565	-0.000023	0.191955
C12	C	1.116121	-0.000020	0.188264
N13	N	1.469327	-0.215825	0.169018
C14	C	1.088160	-0.000009	0.416828
C15	C	1.008671	-0.000001	0.529371
C16	C	0.877653	0.000000	0.525896
C17	C	0.826122	-0.000010	0.409865
C18	C	0.905611	-0.000019	0.297321
C19	C	1.036631	-0.000017	0.300810
C20	C	0.933572	-0.000036	0.068760
C21	C	1.064590	-0.000031	0.072233
C22	C	0.882041	-0.000046	-0.047272
C23	C	0.961531	-0.000049	-0.159817
C24	C	1.092556	-0.000049	-0.156337
C25	C	1.144079	-0.000039	-0.040311
C26	C	1.542977	-0.259408	0.242717
C27	C	1.536628	-0.346597	0.236343
C28	C	1.456621	-0.390202	0.156277
C29	C	1.382968	-0.346613	0.082570
C30	C	1.389324	-0.259425	0.088938
C31	C	1.433590	-0.653453	0.133199
C32	C	1.427235	-0.740646	0.126840
C33	C	1.580898	-0.740625	0.280612
C34	C	1.587243	-0.653435	0.286978
C35	C	1.513594	-0.609854	0.213266
C36	C	1.450126	-0.479323	0.149763
C37	C	1.520097	-0.520734	0.219774
C38	C	1.714639	-0.000030	0.177612
C39	C	1.854082	-0.000027	0.181303
C40	C	1.492261	-0.000026	-0.044753
C41	C	1.488564	-0.000021	-0.184195
N42	N	1.500886	0.215771	0.200538
C43	C	1.470579	-0.151038	-0.457258
C44	C	1.466788	-0.226543	-0.397259
C45	C	1.470256	-0.226543	-0.266240
C46	C	1.477513	-0.151030	-0.195216
C47	C	1.481304	-0.075525	-0.255215
C48	C	1.477839	-0.075533	-0.386238
C49	C	1.492356	0.075484	-0.244194
C50	C	1.488896	0.075486	-0.375214
C51	C	1.499612	0.150997	-0.173170
C52	C	1.503413	0.226504	-0.233170
C53	C	1.499945	0.226501	-0.364197
C54	C	1.492687	0.150991	-0.435213
C55	C	1.477942	-0.000027	0.414319
C56	C	1.481639	-0.000027	0.553762
H57	H	1.194842	0.000008	0.419671
H58	H	1.480322	-0.151037	-0.088533
H59	H	1.157270	-0.000059	-0.247984
H60	H	0.919563	-0.000057	-0.254281
Br61	Br	1.628683	-0.461556	0.328424
H62	H	1.467146	-0.288026	-0.217387
Br63	Br	1.695765	-0.594263	0.395706
Br64	Br	1.321890	-0.000032	-0.035578
Br65	Br	1.341539	-0.538508	0.041112
H66	H	1.502429	0.150992	-0.066487
Br67	Br	1.465906	-0.151043	-0.635075
Br68	Br	0.648309	-0.000028	0.405149
H69	H	1.489869	0.150982	-0.541897
H70	H	1.362077	-0.776147	0.061640
Br71	Br	1.274390	-0.405790	-0.026098
H72	H	1.509312	0.287980	-0.175331
Br73	Br	1.456920	-0.329020	-0.493650
Br74	Br	1.289384	-0.200276	-0.011104
Br75	Br	0.769769	0.000001	0.678632
H76	H	0.775358	-0.000050	-0.050094
H77	H	1.608121	-0.223911	0.307923
Br78	Br	1.505075	0.328978	-0.445611
H79	H	1.050642	0.000006	0.623842
H80	H	1.596605	-0.382079	0.296355
H81	H	1.640859	-0.776118	0.340623
H82	H	1.373620	-0.617979	0.073177
