data_functionalizedCrystal
_audit_creation_method	'MofGen! by Chris Wilmer'
_symmetry_space_group_name_H-M	'P1'
_symmetry_Int_Tables_number	1
_symmetry_cell_setting	triclinic
loop_
_symmetry_equiv_pos_as_xyz
  x,y,z
_cell_length_a	13.032721
_cell_length_b	18.215407
_cell_length_c	18.215399
_cell_angle_alpha	89.980167
_cell_angle_beta	82.845262
_cell_angle_gamma	82.794992
loop_
_atom_site_label
_atom_site_type_symbol
_atom_site_fract_x
_atom_site_fract_y
_atom_site_fract_z
Zn1	Zn	-0.416041	-1.087881	0.453320
Zn2	Zn	-0.082708	-0.754548	0.786654
Zn3	Zn	0.250626	-0.421214	1.119987
Zn4	Zn	-0.590804	-1.072167	0.345882
Zn5	Zn	-0.257471	-0.738833	0.679216
Zn6	Zn	0.075862	-0.405500	1.012549
Zn7	Zn	-0.416075	-0.964810	0.330271
Zn8	Zn	-0.082742	-0.631477	0.663604
Zn9	Zn	0.250591	-0.298144	0.996937
Zn10	Zn	-0.590746	-0.949162	0.468902
Zn11	Zn	-0.257413	-0.615829	0.802235
Zn12	Zn	0.075920	-0.282495	1.135569
O13	O	-0.503417	-1.018505	0.399594
O14	O	-0.170083	-0.685172	0.732927
O15	O	0.163250	-0.351838	1.066260
O16	O	-0.439234	-1.188780	0.439081
O17	O	-0.105900	-0.855446	0.772414
O18	O	0.227433	-0.522113	1.105748
O19	O	-0.567665	-1.057898	0.240831
O20	O	-0.234332	-0.724565	0.574164
O21	O	0.099002	-0.391231	0.907497
O22	O	-0.269831	-0.994261	0.333539
O23	O	0.063502	-0.660928	0.666872
O24	O	0.396835	-0.327595	1.000206
O25	O	-0.567632	-1.177235	0.360147
O26	O	-0.234298	-0.843901	0.693480
O27	O	0.099035	-0.510568	1.026813
O28	O	-0.269806	-1.084681	0.423943
O29	O	0.063527	-0.751347	0.757276
O30	O	0.396861	-0.418014	1.090610
O31	O	-0.439292	-0.979024	0.229361
O32	O	-0.105959	-0.645691	0.562694
O33	O	0.227375	-0.312357	0.896027
O34	O	-0.439236	-0.859751	0.348648
O35	O	-0.105902	-0.526418	0.681981
O36	O	0.227431	-0.193085	1.015315
O37	O	-0.567533	-0.967591	0.569816
O38	O	-0.234199	-0.634257	0.903149
O39	O	0.099134	-0.300924	1.236483
O40	O	-0.567566	-0.848254	0.450500
O41	O	-0.234232	-0.514921	0.783833
O42	O	0.099101	-0.181588	1.117166
O43	O	-0.439177	-1.069507	0.558368
O44	O	-0.105844	-0.736174	0.891701
O45	O	0.227489	-0.402840	1.225035
O46	O	-0.737036	-1.042724	0.375256
O47	O	-0.403703	-0.709391	0.708589
O48	O	-0.070369	-0.376058	1.041922
O49	O	-0.736993	-0.952353	0.465638
O50	O	-0.403660	-0.619020	0.798971
O51	O	-0.070327	-0.285687	1.132304
C52	C	-0.503399	-0.827300	0.399571
C53	C	-0.170066	-0.493967	0.732904
C54	C	0.163268	-0.160634	1.066238
C55	C	-0.503416	-0.745500	0.399581
C56	C	-0.170083	-0.412166	0.732914
C57	C	0.163250	-0.078833	1.066248
C58	C	-0.774933	-0.994156	0.423847
C59	C	-0.441600	-0.660822	0.757181
C60	C	-0.108266	-0.327489	1.090514
C61	C	-0.891089	-0.983806	0.434248
C62	C	-0.557756	-0.650473	0.767581
C63	C	-0.224422	-0.317140	1.100915
C64	C	-0.503345	-1.018556	0.591540
C65	C	-0.170011	-0.685223	0.924874
C66	C	0.163322	-0.351890	1.258207
C67	C	-0.503314	-1.018578	0.673337
C68	C	-0.169981	-0.685245	1.006670
C69	C	0.163353	-0.351911	1.340003
C70	C	-0.942861	-1.023945	0.394199
C71	C	-0.609528	-0.690612	0.727532
C72	C	-0.276195	-0.357279	1.060866
C73	C	-1.062914	-1.013250	0.404947
C74	C	-0.729581	-0.679916	0.738281
C75	C	-0.396248	-0.346583	1.071614
C76	C	-0.230840	-1.042969	0.375262
C77	C	0.102493	-0.709636	0.708595
C78	C	0.435827	-0.376303	1.041928
C79	C	-0.114684	-1.053395	0.364893
C80	C	0.218649	-0.720061	0.698226
C81	C	0.551982	-0.386728	1.031559
C82	C	-0.503435	-1.210456	0.399617
C83	C	-0.170102	-0.877123	0.732950
C84	C	0.163231	-0.543789	1.066284
C85	C	-0.503443	-1.292254	0.399627
C86	C	-0.170110	-0.958921	0.732960
C87	C	0.163223	-0.625588	1.066294
C88	C	-0.570343	-0.551329	0.452566
C89	C	-0.237010	-0.217996	0.785899
C90	C	0.096324	0.115337	1.119232
C91	C	-0.570346	-0.474470	0.452575
C92	C	-0.237013	-0.141137	0.785908
C93	C	0.096321	0.192196	1.119242
C94	C	-0.436510	-0.486431	0.346640
C95	C	-0.103176	-0.153098	0.679973
C96	C	0.230157	0.180236	1.013306
C97	C	-0.436502	-0.563289	0.346634
C98	C	-0.103168	-0.229956	0.679968
C99	C	0.230165	0.103378	1.013301
C100	C	-0.503424	-0.595736	0.399597
C101	C	-0.170091	-0.262402	0.732930
C102	C	0.163242	0.070931	1.066263
C103	C	-0.503435	-0.442019	0.399612
C104	C	-0.170102	-0.108685	0.732945
C105	C	0.163231	0.224648	1.066278
C106	C	-0.503438	-0.358685	0.399621
C107	C	-0.170105	-0.025351	0.732955
C108	C	0.163228	0.307982	1.066288
C109	C	-0.503420	-0.679075	0.399588
C110	C	-0.170087	-0.345742	0.732921
C111	C	0.163246	-0.012408	1.066254
C112	C	-0.503413	-1.018503	0.208387
C113	C	-0.170080	-0.685170	0.541721
C114	C	0.163254	-0.351836	0.875054
C115	C	-0.503149	-1.018650	0.126565
C116	C	-0.169816	-0.685317	0.459899
C117	C	0.163517	-0.351983	0.793232
C118	C	-0.436417	-1.071668	0.855565
C119	C	-0.103084	-0.738335	1.188899
C120	C	0.230250	-0.405002	1.522232
C121	C	-0.436386	-1.071680	0.932421
C122	C	-0.103053	-0.738347	1.265755
C123	C	0.230280	-0.405013	1.599088
C124	C	-0.570049	-0.965554	0.944331
C125	C	-0.236716	-0.632221	1.277665
C126	C	0.096617	-0.298888	1.610998
C127	C	-0.570074	-0.965540	0.867476
C128	C	-0.236740	-0.632207	1.200809
C129	C	0.096593	-0.298873	1.534143
C130	C	-0.503259	-1.018601	0.823095
C131	C	-0.169926	-0.685268	1.156429
C132	C	0.163408	-0.351935	1.489762
C133	C	-0.503204	-1.018627	0.976807
C134	C	-0.169871	-0.685294	1.310140
C135	C	0.163462	-0.351960	1.643473
C136	C	-0.503172	-1.018639	1.060137
C137	C	-0.169838	-0.685306	1.393471
C138	C	0.163495	-0.351972	1.726804
C139	C	-0.503290	-1.018589	0.739759
C140	C	-0.169957	-0.685255	1.073092
C141	C	0.163377	-0.351922	1.406426
H142	H	-0.898309	-1.066232	0.351957
H143	H	-0.564976	-0.732898	0.685290
H144	H	-0.231643	-0.399565	1.018623
Cl145	Cl	-0.654469	-0.592117	0.519149
Cl146	Cl	-0.321136	-0.258784	0.852483
Cl147	Cl	0.012197	0.074549	1.185816
Cl148	Cl	-0.352362	-1.138402	0.973238
Cl149	Cl	-0.019028	-0.805068	1.306572
Cl150	Cl	0.314305	-0.471735	1.639905
Cl151	Cl	-0.654474	-0.418648	0.519169
Cl152	Cl	-0.321141	-0.085315	0.852503
Cl153	Cl	0.012192	0.248018	1.185836
Cl154	Cl	-0.352362	-0.619119	0.280043
Cl155	Cl	-0.019028	-0.285786	0.613376
Cl156	Cl	0.314305	0.047548	0.946710
H157	H	-0.382025	-0.460003	0.303519
H158	H	-0.048692	-0.126670	0.636852
H159	H	0.284642	0.206664	0.970185
Cl160	Cl	-0.352417	-1.138371	0.799775
Cl161	Cl	-0.019084	-0.805038	1.133108
Cl162	Cl	0.314249	-0.471704	1.466441
Cl163	Cl	-1.131690	-0.947967	0.470179
Cl164	Cl	-0.798357	-0.614633	0.803513
Cl165	Cl	-0.465024	-0.281300	1.136846
Cl166	Cl	-0.654046	-0.898856	1.000130
Cl167	Cl	-0.320712	-0.565523	1.333463
Cl168	Cl	0.012621	-0.232190	1.666796
H169	H	-0.624504	-0.922321	0.841039
H170	H	-0.291171	-0.588988	1.174372
H171	H	0.042163	-0.255655	1.507705
H172	H	-0.935643	-0.941526	0.476495
H173	H	-0.602310	-0.608193	0.809829
H174	H	-0.268977	-0.274859	1.143162
Cl175	Cl	-1.045911	-1.118686	0.299668
Cl176	Cl	-0.712578	-0.785352	0.633001
Cl177	Cl	-0.379245	-0.452019	0.966334
