data_functionalizedCrystal
_audit_creation_method	'MofGen! by Chris Wilmer'
_symmetry_space_group_name_H-M	'P1'
_symmetry_Int_Tables_number	1
_symmetry_cell_setting	triclinic
loop_
_symmetry_equiv_pos_as_xyz
  x,y,z
_cell_length_a	23.532407
_cell_length_b	11.792241
_cell_length_c	10.868271
_cell_angle_alpha	90.005281
_cell_angle_beta	89.998979
_cell_angle_gamma	83.521047
loop_
_atom_site_label
_atom_site_type_symbol
_atom_site_fract_x
_atom_site_fract_y
_atom_site_fract_z
O1	O	-0.756076	-0.137772	-0.102169
O2	O	-0.422742	0.195562	0.231164
O3	O	-0.089409	0.528895	0.564497
O4	O	-0.590331	-0.157706	-0.102205
O5	O	-0.256997	0.175627	0.231128
O6	O	0.076336	0.508961	0.564461
O7	O	-0.677225	0.017526	-0.102178
O8	O	-0.343892	0.350860	0.231155
O9	O	-0.010559	0.684193	0.564489
O10	O	-0.669181	-0.313004	-0.102197
O11	O	-0.335848	0.020329	0.231136
O12	O	-0.002514	0.353663	0.564470
O13	O	-0.677218	0.017533	0.102467
O14	O	-0.343885	0.350866	0.435800
O15	O	-0.010552	0.684200	0.769133
O16	O	-0.590323	-0.157699	0.102439
O17	O	-0.256990	0.175634	0.435773
O18	O	0.076343	0.508967	0.769106
O19	O	-0.756069	-0.137765	0.102475
O20	O	-0.422735	0.195568	0.435809
O21	O	-0.089402	0.528902	0.769142
Zn22	Zn	-0.673195	-0.147731	0.134949
Zn23	Zn	-0.339862	0.185602	0.468282
Zn24	Zn	-0.006528	0.518936	0.801616
Zn25	Zn	-0.673204	-0.147740	-0.134679
Zn26	Zn	-0.339871	0.185594	0.198654
Zn27	Zn	-0.006538	0.518927	0.531988
O28	O	-0.669174	-0.312997	0.102448
O29	O	-0.335840	0.020336	0.435781
O30	O	-0.002507	0.353669	0.769114
C31	C	-0.569108	-0.157195	0.000112
C32	C	-0.235775	0.176138	0.333446
C33	C	0.097559	0.509472	0.666779
C34	C	-0.505882	-0.155669	0.000099
C35	C	-0.172549	0.177665	0.333432
C36	C	0.160785	0.510998	0.666765
C37	C	-0.676716	0.059809	0.000144
C38	C	-0.343383	0.393142	0.333477
C39	C	-0.010050	0.726476	0.666811
C40	C	-0.675204	0.185787	0.000142
C41	C	-0.341871	0.519120	0.333476
C42	C	-0.008537	0.852454	0.666809
C43	C	-0.777291	-0.138276	0.000155
C44	C	-0.443958	0.195057	0.333488
C45	C	-0.110625	0.528391	0.666822
C46	C	-0.840517	-0.139802	0.000160
C47	C	-0.507184	0.193531	0.333494
C48	C	-0.173851	0.526865	0.666827
C49	C	-0.107337	-0.249795	0.000149
C50	C	0.225997	0.083538	0.333482
C51	C	0.559330	0.416872	0.666816
C52	C	-0.047928	-0.248377	0.000157
C53	C	0.285405	0.084956	0.333490
C54	C	0.618739	0.418290	0.666823
O55	O	-0.011701	-0.335633	0.000196
O56	O	0.321633	-0.002300	0.333530
O57	O	0.654966	0.331034	0.666863
N58	N	-0.024684	-0.144202	0.000161
N59	N	0.308649	0.189132	0.333494
N60	N	0.641982	0.522465	0.666827
C61	C	-0.060853	-0.041437	0.000169
C62	C	0.272480	0.291896	0.333503
C63	C	0.605814	0.625230	0.666836
O64	O	-0.035627	0.047303	0.000175
O65	O	0.297706	0.380636	0.333508
O66	O	0.631039	0.713969	0.666841
C67	C	-0.120260	-0.042856	0.000171
C68	C	0.213073	0.290477	0.333504
C69	C	0.546406	0.623811	0.666837
C70	C	-0.143501	-0.147038	0.000154
C71	C	0.189833	0.186295	0.333488
C72	C	0.523166	0.519628	0.666821
C73	C	-0.130577	-0.353969	0.000134
C74	C	0.202756	-0.020635	0.333467
C75	C	0.536089	0.312698	0.666801
C76	C	-0.189982	-0.355386	0.000124
C77	C	0.143352	-0.022053	0.333457
C78	C	0.476685	0.311281	0.666791
C79	C	-0.226146	-0.252630	0.000129
C80	C	0.107188	0.080704	0.333463
C81	C	0.440521	0.414037	0.666796
C82	C	-0.202905	-0.148456	0.000144
C83	C	0.130428	0.184878	0.333478
C84	C	0.463762	0.518211	0.666811
C85	C	-0.156428	0.059907	0.000188
C86	C	0.176905	0.393241	0.333522
C87	C	0.510239	0.726574	0.666855
C88	C	-0.215839	0.058479	0.000190
C89	C	0.117494	0.391813	0.333524
C90	C	0.450828	0.725146	0.666857
C91	C	-0.239079	-0.045703	0.000174
C92	C	0.094254	0.287630	0.333507
C93	C	0.427588	0.620964	0.666841
C94	C	-0.298474	-0.047116	0.000140
C95	C	0.034860	0.286217	0.333473
C96	C	0.368193	0.619550	0.666806
N97	N	-0.321717	-0.151292	0.000136
N98	N	0.011616	0.182041	0.333469
N99	N	0.344950	0.515375	0.666802
C100	C	-0.285553	-0.254049	0.000130
C101	C	0.047780	0.079285	0.333464
C102	C	0.381113	0.412618	0.666797
C103	C	0.063907	-0.038465	0.000169
C104	C	0.397241	0.294868	0.333502
C105	C	0.730574	0.628202	0.666836
C106	C	0.123313	-0.037045	0.000159
C107	C	0.456647	0.296288	0.333492
C108	C	0.789980	0.629622	0.666826
C109	C	0.136234	-0.243985	0.000149
C110	C	0.469568	0.089348	0.333482
C111	C	0.802901	0.422681	0.666815
C112	C	0.076827	-0.245404	0.000150
C113	C	0.410160	0.087929	0.333483
C114	C	0.743494	0.421262	0.666816
C115	C	0.040664	-0.142641	0.000165
C116	C	0.373997	0.190693	0.333498
C117	C	0.707330	0.524026	0.666832
C118	C	-0.410308	-0.257017	0.000109
C119	C	-0.076974	0.076316	0.333442
C120	C	0.256359	0.409650	0.666775
C121	C	-0.469718	-0.258425	0.000094
C122	C	-0.136385	0.074908	0.333427
C123	C	0.196949	0.408241	0.666760
C124	C	-0.482634	-0.051485	0.000111
C125	C	-0.149300	0.281848	0.333444
C126	C	0.184033	0.615181	0.666777
C127	C	-0.423229	-0.050077	0.000119
C128	C	-0.089895	0.283257	0.333452
C129	C	0.243438	0.616590	0.666786
C130	C	-0.387066	-0.152852	0.000122
C131	C	-0.053733	0.180482	0.333456
C132	C	0.279600	0.513815	0.666789
O133	O	-0.334736	0.040094	0.000105
O134	O	-0.001403	0.373427	0.333438
O135	O	0.331931	0.706760	0.666772
O136	O	-0.310787	-0.342774	0.000141
O137	O	0.022546	-0.009440	0.333475
O138	O	0.355880	0.323893	0.666808
C139	C	-0.669683	-0.355280	0.000123
C140	C	-0.336349	-0.021946	0.333457
C141	C	-0.003016	0.311387	0.666790
C142	C	-0.671195	-0.481258	0.000117
C143	C	-0.337862	-0.147924	0.333450
C144	C	-0.004529	0.185409	0.666783
N145	N	-0.673193	-0.147724	0.318963
N146	N	-0.339859	0.185609	0.652296
N147	N	-0.006526	0.518942	0.985630
C148	C	-0.672423	0.416434	0.000121
C149	C	-0.339090	0.749767	0.333455
C150	C	-0.005756	1.083100	0.666788
C151	C	-0.673968	0.288085	0.000133
C152	C	-0.340635	0.621418	0.333466
C153	C	-0.007301	0.954752	0.666799
N154	N	-0.673211	-0.147737	-0.318693
N155	N	-0.339878	0.185596	0.014640
N156	N	-0.006544	0.518929	0.347973
C157	C	-0.673201	-0.147737	0.569969
C158	C	-0.339868	0.185596	0.903302
C159	C	-0.006535	0.518929	1.236636
C160	C	-0.673195	-0.147733	0.430292
C161	C	-0.339861	0.185600	0.763625
C162	C	-0.006528	0.518933	1.096958
H163	H	-0.488636	-0.343267	0.000079
H164	H	-0.155303	-0.009933	0.333413
H165	H	0.178030	0.323400	0.666746
F166	F	0.052099	-0.356288	0.000135
F167	F	0.385432	-0.022955	0.333468
F168	F	0.718765	0.310379	0.666801
F169	F	0.174733	-0.353349	0.000148
F170	F	0.508067	-0.020016	0.333481
F171	F	0.841400	0.313318	0.666815
H172	H	-0.404306	0.034757	0.000114
H173	H	-0.070972	0.368090	0.333448
H174	H	0.262361	0.701424	0.666781
H175	H	0.142230	0.047791	0.000153
H176	H	0.475563	0.381124	0.333487
H177	H	0.808897	0.714457	0.666820
H178	H	-0.245281	0.142164	0.000204
H179	H	0.088052	0.475497	0.333537
H180	H	0.421386	0.808831	0.666870
H181	H	-0.380871	-0.340707	0.000115
H182	H	-0.047537	-0.007373	0.333448
H183	H	0.285796	0.325960	0.666782
H184	H	-0.512089	0.032176	0.000110
H185	H	-0.178756	0.365509	0.333443
H186	H	0.154578	0.698843	0.666777
H187	H	0.034466	0.045223	0.000171
H188	H	0.367799	0.378556	0.333504
H189	H	0.701132	0.711890	0.666837
H190	H	-0.208898	-0.440222	0.000110
H191	H	0.124435	-0.106889	0.333444
H192	H	0.457769	0.226445	0.666777
H193	H	-0.137517	0.144743	0.000203
H194	H	0.195817	0.478077	0.333536
H195	H	0.529150	0.811410	0.666869
H196	H	-0.101138	-0.437650	0.000134
H197	H	0.232196	-0.104317	0.333468
H198	H	0.565529	0.229016	0.666801
