data_functionalizedCrystal
_audit_creation_method	'MofGen! by Chris Wilmer'
_symmetry_space_group_name_H-M	'P1'
_symmetry_Int_Tables_number	1
_symmetry_cell_setting	triclinic
loop_
_symmetry_equiv_pos_as_xyz
  x,y,z
_cell_length_a	21.295417
_cell_length_b	19.805407
_cell_length_c	19.805398
_cell_angle_alpha	89.986879
_cell_angle_beta	89.968132
_cell_angle_gamma	90.030507
loop_
_atom_site_label
_atom_site_type_symbol
_atom_site_fract_x
_atom_site_fract_y
_atom_site_fract_z
Zn1	Zn	-0.250617	1.034673	-0.382704
Zn2	Zn	-0.355888	1.034593	-0.269510
Zn3	Zn	-0.250637	0.921501	-0.269529
Zn4	Zn	-0.355853	0.921443	-0.382656
O5	O	-0.303249	0.978053	-0.326100
O6	O	-0.264589	1.129379	-0.367701
O7	O	-0.341949	1.019581	-0.174796
O8	O	-0.162545	0.936571	-0.284570
O9	O	-0.341930	1.129320	-0.284537
O10	O	-0.162531	1.019718	-0.367719
O11	O	-0.264621	0.936493	-0.174810
O12	O	-0.264587	0.826777	-0.284523
O13	O	-0.341870	0.936473	-0.477379
O14	O	-0.341889	0.826734	-0.367638
O15	O	-0.264554	1.019663	-0.477415
O16	O	-0.443973	1.019526	-0.284491
O17	O	-0.443947	0.936395	-0.367619
C18	C	-0.303237	0.802197	-0.326078
C19	C	-0.303247	0.726965	-0.326085
C20	C	-0.466800	0.977964	-0.326062
C21	C	-0.536768	0.977988	-0.326069
C22	C	-0.343558	0.691616	-0.369292
C23	C	-0.343559	0.620928	-0.369302
C24	C	-0.303252	0.585589	-0.326100
C25	C	-0.262936	0.620942	-0.282890
C26	C	-0.262932	0.691629	-0.282885
C27	C	-0.262949	0.335869	-0.282913
C28	C	-0.262958	0.265177	-0.282920
C29	C	-0.343577	0.265167	-0.369330
C30	C	-0.343573	0.335854	-0.369324
C31	C	-0.303255	0.371202	-0.326117
C32	C	-0.303254	0.447850	-0.326109
C33	C	-0.303256	0.508942	-0.326105
C34	C	-0.569628	1.021312	-0.282828
C35	C	-0.635370	1.021344	-0.282844
C36	C	-0.668251	0.978039	-0.326092
C37	C	-0.635384	0.934712	-0.369341
C38	C	-0.569643	0.934686	-0.369330
N39	N	-0.771517	0.918828	-0.331245
N40	N	-0.833968	0.918854	-0.331252
C41	C	-0.866326	0.978115	-0.326131
N42	N	-0.833872	1.037349	-0.320989
N43	N	-0.771415	1.037322	-0.320979
C44	C	-0.739536	0.978062	-0.326110
C45	C	-0.970470	1.021477	-0.282905
C46	C	-1.036214	1.021510	-0.282925
C47	C	-1.036226	0.934872	-0.369419
C48	C	-0.970484	0.934845	-0.369402
C49	C	-0.937610	0.978147	-0.326142
C50	C	-0.139058	0.978160	-0.326152
C51	C	-0.069090	0.978206	-0.326175
C52	C	-0.303206	0.978071	-0.502643
C53	C	-0.303188	0.978078	-0.577875
C54	C	-0.303261	1.154595	-0.326122
C55	C	-0.303267	1.229827	-0.326132
C56	C	-0.343352	1.021449	-1.039656
C57	C	-0.343370	1.021430	-0.968968
C58	C	-0.303117	0.978162	-0.933637
C59	C	-0.262849	0.934905	-0.968998
C60	C	-0.262836	0.934921	-1.039685
C61	C	-0.262903	0.934840	-0.683924
C62	C	-0.262918	0.934829	-0.613232
C63	C	-0.343437	1.021349	-0.613207
C64	C	-0.343423	1.021365	-0.683894
C65	C	-0.303158	0.978106	-0.719249
C66	C	-0.303141	0.978126	-0.795898
C67	C	-0.303131	0.978145	-0.856989
C68	C	-0.303246	0.978073	-0.150244
C69	C	-0.303087	0.978197	-0.075012
H70	H	-0.376386	0.592150	-0.404485
O71	O	-0.935011	1.068202	-0.236268
H72	H	-0.883776	1.060905	-0.243522
H73	H	-0.376128	1.056686	-1.068418
O74	O	-0.386786	1.068094	-0.930831
H75	H	-0.414764	1.098194	-0.967274
O76	O	-0.219474	0.582832	-0.236275
H77	H	-0.226259	0.527740	-0.243525
O78	O	-0.670824	1.068068	-0.236198
H79	H	-0.636920	1.098170	-0.206112
H80	H	-0.376225	1.056571	-0.584412
O81	O	-0.219501	0.888160	-0.575121
H82	H	-0.191503	0.858078	-0.611580
O83	O	-1.071660	1.068247	-0.236291
H84	H	-1.101669	1.037990	-0.201839
H85	H	-0.376199	1.056601	-0.712657
O86	O	-0.387044	0.373972	-0.415924
H87	H	-0.415071	0.337516	-0.445977
O88	O	-0.387059	0.227044	-0.415942
H89	H	-0.380286	0.171954	-0.408698
H90	H	-0.230103	0.720409	-0.247704
H91	H	-0.542888	0.899405	-0.404542
O92	O	-0.219478	0.888184	-0.722055
H93	H	-0.187451	0.918502	-0.754281
O94	O	-0.670842	0.887995	-0.415982
H95	H	-0.722077	0.895284	-0.408719
H96	H	-0.230047	0.899702	-1.068471
O97	O	-0.219429	0.888239	-0.930896
H98	H	-0.226196	0.895500	-0.875802
O99	O	-0.534169	1.068023	-0.236180
H100	H	-0.568068	1.098161	-0.206120
H101	H	-0.230130	0.236406	-0.247740
O102	O	-0.387031	0.729731	-0.415892
H103	H	-0.415057	0.693272	-0.445943
H104	H	-0.230125	0.364640	-0.247726
H105	H	-1.062997	0.899615	-0.404636
O106	O	-0.935036	0.888099	-0.416023
H107	H	-0.968943	0.857983	-0.446093
