data_functionalizedCrystal
_audit_creation_method	'MofGen! by Chris Wilmer'
_symmetry_space_group_name_H-M	'P1'
_symmetry_Int_Tables_number	1
_symmetry_cell_setting	triclinic
loop_
_symmetry_equiv_pos_as_xyz
  x,y,z
_cell_length_a	27.440280
_cell_length_b	21.606444
_cell_length_c	21.606444
_cell_angle_alpha	59.991153
_cell_angle_beta	89.996802
_cell_angle_gamma	59.997005
loop_
_atom_site_label
_atom_site_type_symbol
_atom_site_fract_x
_atom_site_fract_y
_atom_site_fract_z
Zr1	Zr	0.469497	0.677455	-0.081358
O2	O	0.391675	0.806599	-0.180203
O3	O	0.493353	0.548321	-0.051042
O4	O	0.493348	0.677456	-0.180186
O5	O	0.391684	0.677459	0.050796
O6	O	0.573550	0.677447	-0.180189
O7	O	0.391679	0.677464	-0.051058
O8	O	0.573558	0.446446	0.050826
O9	O	0.391675	0.908459	-0.180220
O10	O	0.563381	0.601425	-0.038133
O11	O	0.503530	0.601429	0.037882
O12	O	0.503525	0.753469	-0.114168
O13	O	0.443674	0.753474	-0.038153
Zr14	Zr	0.597416	0.677432	0.081082
Zr15	Zr	0.597409	0.677439	-0.081364
Zr16	Zr	0.469503	0.677448	0.081088
Zr17	Zr	0.469497	0.839910	-0.081385
Zr18	Zr	0.597415	0.514977	0.081109
O19	O	0.573560	0.806567	0.050766
O20	O	0.573551	0.806577	-0.180211
O21	O	0.391684	0.806589	0.050774
O22	O	0.675238	0.548288	0.179927
O23	O	0.675228	0.548298	-0.051050
O24	O	0.493362	0.548311	0.179935
O25	O	0.675229	0.677428	-0.051072
O26	O	0.573564	0.677431	0.179910
O27	O	0.493362	0.677441	0.179913
O28	O	0.675233	0.677424	0.050783
O29	O	0.493349	0.908447	-0.180224
O30	O	0.573563	0.446441	0.179948
O31	O	0.675237	0.446428	0.179944
O32	O	0.675232	0.446434	0.050821
O33	O	0.391680	0.908454	-0.051097
O34	O	0.493354	0.908441	-0.051102
O35	O	0.563387	0.601418	0.113892
O36	O	0.623238	0.601414	0.037877
O37	O	0.563382	0.753459	-0.038158
O38	O	0.503531	0.753463	0.037857
C39	C	0.533455	0.474237	-0.000104
C40	C	0.533455	0.405271	-0.000092
C41	C	0.489267	0.429013	-0.056219
C42	C	0.489269	0.364224	-0.056234
C43	C	0.533456	0.275693	-0.000120
C44	C	0.577648	0.251950	0.056009
C45	C	0.577649	0.316739	0.056021
C46	C	0.577648	-0.009336	0.055961
C47	C	0.577643	-0.074125	0.055946
C48	C	0.489268	0.038149	-0.056294
C49	C	0.489268	0.102937	-0.056282
C50	C	0.533462	0.079190	-0.000156
C51	C	0.533461	0.149442	-0.000140
C52	C	0.533456	0.205441	-0.000132
C53	C	0.373457	0.677464	-0.000131
C54	C	0.319154	0.677470	-0.000128
C55	C	-0.017546	0.677427	-0.056251
C56	C	-0.068564	0.677420	-0.056252
O57	O	-0.094940	0.677390	-0.103957
N58	N	-0.094079	0.677420	-0.000140
C59	C	-0.068571	0.677416	0.055979
O60	O	-0.094958	0.677414	0.103707
C61	C	-0.017551	0.677416	0.055982
C62	C	0.007958	0.677426	-0.000137
C63	C	0.007964	0.677435	-0.112366
C64	C	0.058978	0.677443	-0.112366
C65	C	0.084482	0.677442	-0.056252
C66	C	0.058972	0.677434	-0.000137
C67	C	0.007959	0.677406	0.112105
C68	C	0.058982	0.677406	0.112103
C69	C	0.084491	0.677415	0.055984
C70	C	0.135490	0.677441	0.055977
N71	N	0.161005	0.677442	-0.000135
C72	C	0.135501	0.677442	-0.056249
C73	C	-0.175714	0.677415	0.055970
C74	C	-0.226735	0.677421	0.055965
C75	C	-0.226724	0.677424	-0.056266
C76	C	-0.175705	0.677424	-0.056263
C77	C	-0.150199	0.677416	-0.000142
C78	C	0.242634	0.677460	-0.056245
C79	C	0.293650	0.677471	-0.056242
C80	C	0.293636	0.677464	0.055990
C81	C	0.242622	0.677457	0.055985
C82	C	0.217123	0.677452	-0.000136
O83	O	0.161900	0.677468	0.103660
O84	O	0.161899	0.677433	-0.103963
C85	C	0.693456	0.677424	-0.000145
C86	C	0.747758	0.677417	-0.000148
C87	C	0.533448	0.677453	-0.203333
C88	C	0.533445	0.677455	-0.272295
C89	C	0.533457	0.880650	-0.000172
C90	C	0.533457	0.949617	-0.000184
C91	C	0.502201	0.756821	-0.344383
C92	C	0.502206	0.756818	-0.409178
C93	C	0.533452	0.677450	-0.401883
C94	C	0.564701	0.598078	-0.329787
C95	C	0.564699	0.598082	-0.264994
C96	C	0.564710	0.598063	-0.591090
C97	C	0.564709	0.598066	-0.655891
C98	C	0.502217	0.756800	-0.735274
C99	C	0.502215	0.756803	-0.670481
C100	C	0.533466	0.677432	-0.598391
C101	C	0.533461	0.677436	-0.528134
C102	C	0.533454	0.677445	-0.472139
C103	C	0.533464	0.677435	0.203057
C104	C	0.533467	0.677432	0.272019
C105	C	0.693455	0.474217	-0.000111
C106	C	0.747757	0.405244	-0.000102
C107	C	0.533463	0.474228	0.203091
C108	C	0.533466	0.405259	0.272065
C109	C	0.693463	0.474209	0.203083
C110	C	0.747768	0.405232	0.272055
C111	C	0.373449	0.880679	-0.203359
C112	C	0.319145	0.949655	-0.272331
C113	C	0.373458	0.880670	-0.000165
C114	C	0.319155	0.949643	-0.000174
C115	C	0.533449	0.880659	-0.203367
C116	C	0.533447	0.949629	-0.272341
C117	C	0.742013	0.372859	-0.039781
C118	C	0.793031	0.308060	-0.039788
C119	C	0.849792	0.275643	-0.000111
C120	C	0.855534	0.308035	0.039569
C121	C	0.804517	0.372837	0.039571
C122	C	0.564712	0.372865	0.344139
C123	C	0.564712	0.308070	0.408953
C124	C	0.533469	0.275666	0.401692
C125	C	0.502219	0.308066	0.329610
C126	C	0.502216	0.372865	0.264797
C127	C	0.804517	0.372838	0.264765
C128	C	0.855547	0.308037	0.329565
C129	C	0.849827	0.275626	0.401653
C130	C	0.793072	0.308027	0.408942
C131	C	0.742043	0.372831	0.344142
C132	C	0.262396	0.982057	-0.265041
C133	C	0.211366	1.046879	-0.329841
C134	C	0.217086	1.079293	-0.401929
C135	C	0.273841	1.046888	-0.409217
C136	C	0.324870	0.982072	-0.344418
C137	C	0.324899	0.982035	0.039499
C138	C	0.273882	1.046852	0.039487
C139	C	0.217121	1.079271	-0.000192
C140	C	0.211378	1.046877	-0.039869
C141	C	0.262395	0.982066	-0.039862
C142	C	0.564695	0.982012	-0.265055
C143	C	0.564705	1.046808	-0.329857
C144	C	0.533461	1.079223	-0.401944
C145	C	0.502212	1.046833	-0.409228
C146	C	0.502206	0.982034	-0.344427
H147	H	0.613629	0.179862	0.101695
H148	H	-0.154953	0.677415	0.101670
H149	H	0.175584	1.132044	-0.000192
H150	H	0.891328	0.222877	-0.000118
Cl151	Cl	0.670703	0.413542	0.353320
Cl152	Cl	0.926888	0.267314	0.320385
Cl153	Cl	0.603972	0.498282	-0.500471
Cl154	Cl	0.281115	1.087559	0.089375
Cl155	Cl	0.462911	0.941340	-0.353599
Cl156	Cl	0.396250	0.941297	0.089383
Cl157	Cl	0.140017	1.087638	-0.089745
H158	H	0.453285	0.057479	-0.101997
Cl159	Cl	0.926896	0.267269	0.089450
Cl160	Cl	0.396209	0.941340	-0.353596
Cl161	Cl	0.633204	0.286888	0.126580
Cl162	Cl	0.603986	0.498304	-0.174366
H163	H	0.809186	0.399217	0.206073
Cl164	Cl	0.255164	0.941346	-0.089735
Cl165	Cl	0.462931	1.087602	-0.499858
Cl166	Cl	0.811749	0.413535	0.089465
H167	H	0.590153	0.399241	0.350065
H168	H	0.175530	1.132070	-0.454687
H169	H	0.590137	0.955629	-0.206364
H170	H	0.590161	0.281696	0.467639
Cl171	Cl	0.325716	0.677485	-0.126799
Cl172	Cl	-0.143640	0.677433	-0.126815
H173	H	0.476774	0.399232	0.206114
Cl174	Cl	0.433712	0.540308	-0.126764
Cl175	Cl	0.433714	0.394078	-0.126794
H176	H	0.695800	0.399252	-0.072100
H177	H	0.613634	-0.028683	0.101663
Cl178	Cl	0.603989	1.087518	-0.320683
Cl179	Cl	0.603984	0.498300	-0.320616
H180	H	0.788423	0.281629	0.467645
H181	H	0.891382	0.222858	0.454411
H182	H	0.278491	1.073288	-0.467920
H183	H	0.453285	0.175022	-0.101973
Cl184	Cl	0.633198	-0.185427	0.126495
H185	H	0.533471	1.131987	-0.454703
H186	H	0.257727	0.955669	-0.206349
H187	H	0.533477	0.222903	0.454473
Cl188	Cl	0.462947	0.267318	0.320495
Cl189	Cl	0.462916	0.856605	-0.353564
Cl190	Cl	0.210585	0.677455	-0.126800
H191	H	0.788343	0.281695	-0.072100
H192	H	-0.012795	0.677433	-0.158061
Cl193	Cl	0.091045	0.677447	-0.182914
Cl194	Cl	-0.258795	0.677422	-0.126808
H195	H	0.165158	1.073252	-0.323892
H196	H	-0.247507	0.677427	0.101655
H197	H	-0.012804	0.677398	0.157802
H198	H	0.079747	0.677396	0.157807
H199	H	0.221847	0.677462	0.101677
H200	H	0.314408	0.677467	0.101676
Cl201	Cl	0.462924	0.856597	-0.499803
H202	H	0.476773	0.821427	-0.793980
Cl203	Cl	0.603994	0.498280	-0.646715
Cl204	Cl	0.462924	0.856585	-0.679658
