data_functionalizedCrystal
_audit_creation_method	'MofGen! by Chris Wilmer'
_symmetry_space_group_name_H-M	'P1'
_symmetry_Int_Tables_number	1
_symmetry_cell_setting	triclinic
loop_
_symmetry_equiv_pos_as_xyz
  x,y,z
_cell_length_a	17.640112
_cell_length_b	18.050590
_cell_length_c	17.640968
_cell_angle_alpha	101.233828
_cell_angle_beta	87.860920
_cell_angle_gamma	101.243844
loop_
_atom_site_label
_atom_site_type_symbol
_atom_site_fract_x
_atom_site_fract_y
_atom_site_fract_z
Zn1	Zn	1.247780	-0.021338	0.195079
Zn2	Zn	1.222020	-0.174557	0.068090
Zn3	Zn	1.095115	-0.069647	0.093723
Zn4	Zn	1.120761	-0.164781	0.220672
O5	O	1.171419	-0.107581	0.144391
O6	O	1.350631	-0.025537	0.156795
O7	O	1.183673	-0.184949	-0.034784
O8	O	1.115414	0.040698	0.107185
O9	O	1.331706	-0.138106	0.063497
O10	O	1.227576	0.076190	0.181651
O11	O	1.090436	-0.107872	-0.015951
O12	O	0.992249	-0.098393	0.132001
O13	O	1.159123	-0.121445	0.323551
O14	O	1.011090	-0.168288	0.225271
O15	O	1.252443	-0.016058	0.304748
O16	O	1.208540	-0.277197	0.088314
O17	O	1.134145	-0.270015	0.200415
C18	C	0.974116	-0.137522	0.184195
C19	C	0.889712	-0.150345	0.201242
C20	C	0.563040	-0.010153	0.014898
C21	C	0.483732	-0.022215	0.030926
C22	C	0.503372	-0.095166	0.127879
C23	C	0.582684	-0.083107	0.111862
C24	C	0.612511	-0.040601	0.055370
C25	C	0.632155	-0.113555	0.152334
C26	C	0.711459	-0.101500	0.136315
C27	C	0.741292	-0.058998	0.079824
C28	C	0.691815	-0.028547	0.039351
C29	C	0.602326	-0.156065	0.208822
C30	C	0.651797	-0.186513	0.249295
C31	C	0.731103	-0.174454	0.233280
C32	C	0.760936	-0.131952	0.176788
C33	C	0.780581	-0.204905	0.273753
C34	C	0.859885	-0.192851	0.257734
C35	C	0.840241	-0.119897	0.160769
C36	C	1.171354	-0.300549	0.144373
C37	C	1.171401	-0.383085	0.144376
C38	C	1.211977	-0.586382	0.083465
C39	C	1.244542	-0.617065	0.149036
C40	C	1.171451	-0.534202	0.144398
C41	C	1.138970	-0.650582	0.078842
C42	C	1.171498	-0.680175	0.144412
C43	C	1.204058	-0.563783	0.209998
C44	C	1.098444	-0.597312	0.139764
C45	C	1.130992	-0.627965	0.205388
C46	C	1.171425	-0.450110	0.144388
C47	C	1.171526	-0.764263	0.144430
C48	C	1.369493	-0.077523	0.104432
C49	C	1.453900	-0.064714	0.087404
C50	C	1.211517	-0.062272	0.342476
C51	C	1.228605	-0.042964	0.426888
C52	C	1.171508	0.086148	0.144422
C53	C	1.171546	0.168703	0.144435
C54	C	1.131520	-0.152653	-0.052932
C55	C	1.114580	-0.171729	-0.137373
C56	C	1.041898	-0.253812	0.753452
C57	C	1.057970	-0.235658	0.832766
C58	C	1.155137	-0.125928	0.813178
C59	C	1.139070	-0.144071	0.733860
C60	C	1.082450	-0.208015	0.704004
C61	C	1.179622	-0.098273	0.684412
C62	C	1.163559	-0.116417	0.605101
C63	C	1.106944	-0.180359	0.575238
C64	C	1.066387	-0.226159	0.624693
C65	C	1.236245	-0.034332	0.714270
C66	C	1.276797	0.011465	0.664822
C67	C	1.260731	-0.006676	0.585510
C68	C	1.204116	-0.070618	0.555647
C69	C	1.301287	0.039124	0.536056
C70	C	1.285224	0.020980	0.456744
C71	C	1.188053	-0.088762	0.476336
H72	H	0.716104	0.006080	-0.006639
H73	H	1.306304	-0.626228	0.152968
O74	O	1.106039	-0.695304	0.012748
C75	C	0.992289	-0.735359	-0.067626
C76	C	1.029475	-0.684692	0.007261
H77	H	0.930387	-0.726785	-0.072094
H78	H	0.992048	-0.798390	-0.066749
H79	H	1.026932	-0.718371	-0.119507
H80	H	0.994862	-0.701612	0.059182
H81	H	1.029727	-0.621673	0.006317
O82	O	1.236954	-0.519023	0.276090
C83	C	1.273790	-0.390533	0.350250
C84	C	1.236533	-0.441133	0.275365
H85	H	1.273447	-0.327550	0.349696
H86	H	1.335904	-0.398632	0.354356
H87	H	1.239549	-0.407970	0.402169
H88	H	1.270712	-0.423728	0.223404
H89	H	1.174413	-0.433028	0.271327
H90	H	1.096751	-0.646207	0.256973
O91	O	0.818304	-0.047242	0.064142
C92	C	0.921333	0.010132	-0.012018
C93	C	0.834101	-0.003140	0.005652
H94	H	0.934134	0.045802	-0.059297
H95	H	0.939679	-0.047693	-0.032282
H96	H	0.954776	0.042158	0.042491
H97	H	0.800597	-0.035140	-0.048826
H98	H	0.815815	0.054709	0.025948
H99	H	1.093869	-0.195134	0.510657
H100	H	1.246273	-0.567974	0.031977
O101	O	1.011399	-0.288332	0.595803
C102	C	0.916708	-0.395267	0.623595
C103	C	0.978959	-0.324884	0.656415
H104	H	0.890451	-0.424830	0.672586
H105	H	0.944027	-0.437345	0.579458
H106	H	0.869518	-0.375695	0.594443
H107	H	1.026168	-0.344385	0.685607
H108	H	0.951583	-0.282822	0.700514
O109	O	0.751622	-0.246312	0.328541
C110	C	0.734822	-0.367982	0.370113
C111	C	0.767634	-0.321185	0.307997
H112	H	0.747769	-0.428521	0.353533
H113	H	0.669633	-0.371438	0.374610
H114	H	0.762821	-0.338605	0.428216
H115	H	0.739693	-0.350524	0.249860
H116	H	0.832825	-0.317725	0.303567
H117	H	1.036695	-0.588134	0.135807
O118	O	1.210234	-0.063884	0.842128
C119	C	1.344325	-0.002645	0.840290
C120	C	1.282009	-0.072964	0.807456
H121	H	1.402366	-0.009955	0.812260
H122	H	1.348910	0.002468	0.905465
H123	H	1.327814	0.051643	0.827414
H124	H	1.298474	-0.127291	0.820275
H125	H	1.277435	-0.078009	0.742289
H126	H	1.141929	-0.140816	0.452029
O127	O	0.435621	0.007430	-0.008263
C128	C	0.344123	0.091874	-0.000203
C129	C	0.398559	0.058341	0.044272
H130	H	0.314156	0.133055	0.042250
H131	H	0.298874	0.043144	-0.032457
H132	H	0.379088	0.124289	-0.043342
H133	H	0.363659	0.025934	0.087449
H134	H	0.443810	0.107103	0.076474
O135	O	0.986910	-0.315986	0.724562
C136	C	0.892219	-0.422920	0.752354
C137	C	0.954470	-0.352538	0.785174
H138	H	0.865962	-0.452483	0.801345
H139	H	0.919538	-0.464998	0.708217
H140	H	0.845029	-0.403349	0.723202
H141	H	1.001678	-0.372038	0.814366
H142	H	0.927094	-0.310476	0.829273
H143	H	1.249323	-0.019563	0.778850
O144	O	1.018686	-0.280198	0.880817
C145	C	1.026562	-0.361495	0.972454
C146	C	1.071141	-0.311094	0.918052
H147	H	1.068954	-0.386475	1.002585
H148	H	0.983355	-0.410357	0.937523
H149	H	0.994370	-0.324915	1.017571
H150	H	1.103379	-0.347610	0.872925
H151	H	1.114303	-0.262228	0.953035
O152	O	1.356241	0.101225	0.565194
C153	C	1.424094	0.177775	0.678688
C154	C	1.361827	0.107435	0.645795
H155	H	1.428642	0.182809	0.743855
H156	H	1.407641	0.232107	0.665857
H157	H	1.482143	0.170450	0.650684
H158	H	1.303756	0.114684	0.673778
H159	H	1.378347	0.053129	0.658616
H160	H	1.322899	0.063527	0.689142
H161	H	1.318245	0.058274	0.416483
H162	H	0.627500	-0.221124	0.295288
H163	H	0.587329	0.024473	-0.031093
O164	O	0.474374	-0.136331	0.182843
C165	C	0.405566	-0.136633	0.303414
C166	C	0.438383	-0.089924	0.241230
H167	H	0.376446	-0.099138	0.350627
H168	H	0.454524	-0.156303	0.329657
H169	H	0.361384	-0.189064	0.275958
H170	H	0.482555	-0.037462	0.268627
H171	H	0.389384	-0.070313	0.214993
O172	O	0.907936	-0.222323	0.297164
C173	C	0.958342	-0.225368	0.421377
C174	C	0.903908	-0.191915	0.376818
H175	H	0.955092	-0.200810	0.485786
H176	H	1.020167	-0.209431	0.400284
H177	H	0.940023	-0.290681	0.411045
H178	H	0.922156	-0.126600	0.387129
H179	H	0.842095	-0.207913	0.397918
O180	O	0.525273	-0.167917	0.224305
C181	C	0.407494	-0.260893	0.227667
C182	C	0.494746	-0.247576	0.210096
H183	H	0.382790	-0.325296	0.216202
H184	H	0.377216	-0.231882	0.189019
H185	H	0.397893	-0.235353	0.290848
H186	H	0.504418	-0.273118	0.146934
H187	H	0.524980	-0.276571	0.248795
H188	H	0.864529	-0.085271	0.114779
