data_functionalizedCrystal
_audit_creation_method	'MofGen! by Chris Wilmer'
_symmetry_space_group_name_H-M	'P1'
_symmetry_Int_Tables_number	1
_symmetry_cell_setting	triclinic
loop_
_symmetry_equiv_pos_as_xyz
  x,y,z
_cell_length_a	15.995292
_cell_length_b	14.853567
_cell_length_c	13.930277
_cell_angle_alpha	90.000757
_cell_angle_beta	89.991610
_cell_angle_gamma	96.448227
loop_
_atom_site_label
_atom_site_type_symbol
_atom_site_fract_x
_atom_site_fract_y
_atom_site_fract_z
O1	O	1.111154	-0.115956	-0.079849
O2	O	1.611154	0.384044	0.420151
O3	O	0.867389	-0.130361	-0.079844
O4	O	1.367389	0.369639	0.420156
O5	O	0.995783	0.008082	-0.079849
O6	O	1.495783	0.508082	0.420151
O7	O	0.982760	-0.254398	-0.079843
O8	O	1.482760	0.245602	0.420157
O9	O	0.995765	0.008084	0.079813
O10	O	1.495765	0.508084	0.579813
O11	O	0.867371	-0.130358	0.079818
O12	O	1.367371	0.369642	0.579818
O13	O	1.111136	-0.115953	0.079813
O14	O	1.611136	0.384047	0.579813
Zn15	Zn	0.989251	-0.123155	0.105165
Zn16	Zn	1.489251	0.376845	0.605165
Zn17	Zn	0.989274	-0.123159	-0.105196
Zn18	Zn	1.489274	0.376841	0.394804
O19	O	0.982742	-0.254396	0.079819
O20	O	1.482742	0.245604	0.579819
C21	C	0.836184	-0.129773	-0.000012
C22	C	1.336184	0.370227	0.499988
C23	C	0.743229	-0.128015	-0.000011
C24	C	1.243229	0.371985	0.499989
C25	C	0.405483	-0.121554	-0.000022
C26	C	0.905483	0.378446	0.499978
C27	C	0.428911	-0.221478	-0.000376
C28	C	0.928911	0.278522	0.499624
C29	C	0.525589	-0.223377	-0.000012
C30	C	1.025589	0.276623	0.499988
C31	C	0.573042	-0.124760	-0.000017
C32	C	1.073042	0.375240	0.499983
C33	C	0.543872	-0.074801	0.091153
C34	C	1.043872	0.425199	0.591153
C35	C	0.447080	-0.073598	0.091226
C36	C	0.947080	0.426402	0.591226
C37	C	0.447243	-0.071561	-0.090340
C38	C	0.947243	0.428439	0.409660
C39	C	0.543740	-0.075264	-0.091541
C40	C	1.043740	0.424736	0.408459
C41	C	0.667741	-0.126567	-0.000011
C42	C	1.167741	0.373433	0.499989
C43	C	0.310785	-0.119744	-0.000022
C44	C	0.810785	0.380256	0.499978
C45	C	0.995184	0.041671	-0.000021
C46	C	1.495184	0.541671	0.499979
C47	C	0.993416	0.141752	-0.000029
C48	C	1.493416	0.641752	0.499971
C49	C	1.142341	-0.116541	-0.000020
C50	C	1.642341	0.383459	0.499980
C51	C	1.235296	-0.118299	-0.000028
C52	C	1.735296	0.381701	0.499972
C53	C	0.983341	-0.287985	-0.000012
C54	C	1.483341	0.212015	0.499988
C55	C	0.985110	-0.388066	-0.000010
C56	C	1.485110	0.111934	0.499990
N57	N	0.989241	-0.123152	0.248731
N58	N	1.489241	0.376848	0.748731
C59	C	0.909672	0.554154	-0.000010
C60	C	1.409672	1.054154	0.499990
C61	C	1.062207	0.575675	-0.000013
C62	C	1.562207	1.075675	0.499987
C63	C	1.063870	0.481644	-0.000018
C64	C	1.563870	0.981644	0.499982
C65	C	0.988432	0.423863	-0.000018
C66	C	1.488432	0.923863	0.499982
C67	C	0.911333	0.460114	-0.000012
C68	C	1.411333	0.960114	0.499988
C69	C	1.140968	0.445386	-0.000014
C70	C	1.640968	0.945386	0.499986
C71	C	1.142634	0.351349	-0.000019
C72	C	1.642634	0.851349	0.499981
C73	C	1.067196	0.293567	-0.000026
C74	C	1.567196	0.793567	0.499974
C75	C	0.990093	0.329823	-0.000021
C76	C	1.490093	0.829823	0.499979
C77	C	0.914655	0.272042	-0.000021
C78	C	1.414655	0.772042	0.499979
C79	C	0.837551	0.308297	-0.000023
C80	C	1.337551	0.808297	0.499977
C81	C	0.835894	0.402331	-0.000019
C82	C	1.335894	0.902331	0.499981
C83	C	1.068853	0.199532	-0.000030
C84	C	1.568853	0.699532	0.499970
C85	C	0.916316	0.178002	-0.000024
C86	C	1.416316	0.678002	0.499976
N87	N	0.989291	-0.123155	-0.248762
N88	N	1.489291	0.376845	0.251238
C89	C	0.932419	-0.184437	0.701003
C90	C	1.432419	0.315563	1.201003
C91	C	1.046152	-0.061874	0.700968
C92	C	1.546152	0.438126	1.200968
C93	C	1.046143	-0.061871	0.600472
C94	C	1.546143	0.438129	1.100472
C95	C	0.989271	-0.123153	0.550237
C96	C	1.489271	0.376847	1.050237
C97	C	0.932409	-0.184438	0.600498
C98	C	1.432409	0.315562	1.100498
C99	C	1.103009	-0.000593	0.550204
C100	C	1.603009	0.499407	1.050204
C101	C	1.103002	-0.000588	0.449702
C102	C	1.603002	0.499412	0.949702
C103	C	1.046125	-0.061867	0.399465
C104	C	1.546125	0.438133	0.899465
C105	C	0.989261	-0.123154	0.449732
C106	C	1.489261	0.376846	0.949732
C107	C	0.932389	-0.184436	0.399497
C108	C	1.432389	0.315564	0.899497
C109	C	0.875520	-0.245719	0.449763
C110	C	1.375520	0.254281	0.949763
C111	C	0.875533	-0.245717	0.550261
C112	C	1.375533	0.254283	1.050261
C113	C	1.046112	-0.061870	0.298966
C114	C	1.546112	0.438130	0.798966
C115	C	0.932379	-0.184437	0.298992
C116	C	1.432379	0.315563	0.798992
H117	H	0.576627	-0.003284	-0.097051
H118	H	1.076627	0.496716	0.402949
F119	F	1.163538	0.064619	0.603666
F120	F	1.663538	0.564619	1.103666
F121	F	0.836023	0.116514	-0.000030
F122	F	1.336023	0.616514	0.499970
F123	F	1.224693	0.312773	-0.000029
F124	F	1.724693	0.812773	0.499971
H125	H	0.773120	0.431858	-0.000020
H126	H	1.273120	0.931858	0.499980
F127	F	0.392387	-0.271825	-0.085836
F128	F	0.892387	0.228175	0.414164
F129	F	0.757269	0.246792	-0.000015
F130	F	1.257269	0.746792	0.499985
F131	F	1.163524	0.064635	0.396213
F132	F	1.663524	0.564635	0.896213
F133	F	1.150906	0.160951	-0.000012
F134	F	1.650906	0.660951	0.499988
F135	F	0.871843	-0.249659	0.245536
F136	F	1.371843	0.250341	0.745536
H137	H	1.092418	-0.011978	0.258045
H138	H	1.592418	0.488022	0.758045
H139	H	0.829233	-0.295612	0.591194
H140	H	1.329233	0.204388	1.091194
F141	F	0.550529	-0.274515	-0.085435
F142	F	1.050529	0.225485	0.414565
F143	F	0.815000	-0.310944	0.396288
F144	F	1.315000	0.189056	0.896288
H145	H	0.886115	-0.234331	0.741932
H146	H	1.386115	0.265669	1.241932
F147	F	0.827617	0.592738	-0.000020
F148	F	1.327617	1.092738	0.499980
H149	H	1.202385	0.492437	-0.000006
H150	H	1.702385	0.992437	0.499994
F151	F	0.391030	-0.271543	0.084603
F152	F	0.891030	0.228457	0.584603
F153	F	0.410290	-0.112400	-0.180663
F154	F	0.910290	0.387600	0.319337
H155	H	1.123625	0.622725	-0.000005
H156	H	1.623625	1.122725	0.499995
F157	F	1.106682	0.003339	0.754431
F158	F	1.606682	0.503339	1.254431
H159	H	0.544031	-0.262737	0.065455
H160	H	1.044031	0.237263	0.565455
F161	F	0.428846	0.024576	-0.091149
F162	F	0.928846	0.524576	0.408851
H163	H	0.420296	-0.108195	0.159381
H164	H	0.920296	0.391805	0.659381
H165	H	0.575656	-0.002232	0.094540
H166	H	1.075656	0.497768	0.594540
F167	F	0.427947	0.022160	0.096677
F168	F	0.927947	0.522160	0.596677
H169	H	0.562359	-0.111639	-0.158988
H170	H	1.062359	0.388361	0.341012
F171	F	0.570131	-0.120143	0.179843
F172	F	1.070131	0.379857	0.679843
