data_functionalizedCrystal
_audit_creation_method	'MofGen! by Chris Wilmer'
_symmetry_space_group_name_H-M	'P1'
_symmetry_Int_Tables_number	1
_symmetry_cell_setting	triclinic
loop_
_symmetry_equiv_pos_as_xyz
  x,y,z
_cell_length_a	10.654550
_cell_length_b	10.489741
_cell_length_c	9.130313
_cell_angle_alpha	89.999004
_cell_angle_beta	89.996220
_cell_angle_gamma	84.512038
loop_
_atom_site_label
_atom_site_type_symbol
_atom_site_fract_x
_atom_site_fract_y
_atom_site_fract_z
O1	O	1.667918	0.179156	-0.121919
O2	O	1.302447	0.196226	-0.121895
O3	O	1.493499	0.002089	-0.121899
O4	O	1.476867	0.373293	-0.121915
O5	O	1.493497	0.002094	0.121700
O6	O	1.302445	0.196231	0.121703
O7	O	1.667916	0.179161	0.121680
Cu8	Cu	1.485180	0.187697	0.143934
Cu9	Cu	1.485183	0.187690	-0.144150
O10	O	1.476864	0.373298	0.121683
C11	C	1.255648	0.194975	-0.000093
C12	C	1.116203	0.191225	-0.000084
C13	C	1.036771	0.305530	-0.000110
C14	C	0.905748	0.301999	-0.000135
C15	C	0.933603	0.069849	-0.000114
C16	C	1.064623	0.073381	-0.000078
C17	C	1.020688	0.439560	-0.000129
C18	C	0.889665	0.436029	-0.000154
C19	C	1.492241	-0.045439	-0.000100
C20	C	1.488483	-0.187067	-0.000103
C21	C	1.366923	-0.255148	-0.000106
C22	C	1.424346	-0.347296	0.119997
C23	C	1.424377	-0.347276	-0.120172
C24	C	1.545956	-0.277349	0.120099
C25	C	1.545970	-0.277320	-0.120178
C26	C	1.603481	-0.369440	-0.000045
C27	C	1.714715	0.180412	-0.000126
C28	C	1.854160	0.184162	-0.000145
C29	C	1.478122	0.420826	-0.000118
C30	C	1.481880	0.562454	-0.000126
N31	N	1.485187	0.187700	0.346557
N32	N	1.485186	0.187677	-0.346772
C33	C	1.569807	0.101766	0.423207
C34	C	1.569803	0.101751	0.576544
C35	C	1.400557	0.273615	0.576567
C36	C	1.400555	0.273623	0.423232
C37	C	1.667524	0.002545	0.423195
C38	C	1.667520	0.002530	0.576532
H39	H	1.266977	-0.205449	0.000022
N40	N	1.057549	0.505301	0.127761
N41	N	1.171248	0.519325	0.149434
H42	H	1.197285	0.565751	0.239756
H43	H	0.891590	-0.026096	-0.000132
N44	N	1.781936	0.041532	0.363553
N45	N	1.884906	-0.020770	0.392288
H46	H	1.965709	0.006778	0.350173
N47	N	1.629179	-0.113699	0.636178
N48	N	1.600471	-0.200728	0.552623
H49	H	1.573388	-0.282812	0.594748
N50	N	0.837313	0.499347	-0.128057
N51	N	0.720992	0.507169	-0.149725
H52	H	0.684016	0.551883	-0.240055
N53	N	1.788601	0.029957	0.628730
N54	N	1.830764	0.133353	0.595670
H55	H	1.916273	0.152723	0.632537
N56	N	1.065436	0.493093	-0.132073
N57	N	0.989382	0.530230	-0.230911
H58	H	1.020985	0.568035	-0.324100
N59	N	1.314129	0.361417	0.344940
N60	N	1.354678	0.440989	0.259386
H61	H	1.293637	0.503000	0.204093
N62	N	1.359860	-0.386115	-0.247568
N63	N	1.415955	-0.461233	-0.337515
H64	H	1.370385	-0.488660	-0.427485
H65	H	1.372910	-0.378281	0.221542
H66	H	1.597345	-0.246540	0.221751
H67	H	0.844012	0.476537	0.105012
N68	N	1.145779	-0.043366	-0.000048
N69	N	1.262759	-0.040199	-0.000015
H70	H	1.320079	-0.122656	0.000008
H71	H	1.703518	-0.418912	0.000015
H72	H	1.597363	-0.246302	-0.221728
N73	N	1.314115	0.361365	0.654914
N74	N	1.314120	0.361341	0.791818
H75	H	1.253069	0.423316	0.847152
N76	N	1.640511	-0.120428	0.370979
N77	N	1.538713	-0.163243	0.404059
H78	H	1.519620	-0.250083	0.367174
