data_functionalizedCrystal
_audit_creation_method	'MofGen! by Chris Wilmer'
_symmetry_space_group_name_H-M	'P1'
_symmetry_Int_Tables_number	1
_symmetry_cell_setting	triclinic
loop_
_symmetry_equiv_pos_as_xyz
  x,y,z
_cell_length_a	14.519709
_cell_length_b	10.489741
_cell_length_c	13.596369
_cell_angle_alpha	89.994306
_cell_angle_beta	90.000291
_cell_angle_gamma	84.109659
loop_
_atom_site_label
_atom_site_type_symbol
_atom_site_fract_x
_atom_site_fract_y
_atom_site_fract_z
O1	O	1.224779	0.167203	-0.081663
O2	O	1.724779	0.667203	0.418337
O3	O	0.956410	0.186894	-0.081693
O4	O	1.456410	0.686894	0.418307
O5	O	1.096701	-0.008613	-0.081671
O6	O	1.596701	0.491387	0.418329
O7	O	1.084488	0.362710	-0.081684
O8	O	1.584488	0.862710	0.418316
O9	O	1.096687	-0.008623	0.081912
O10	O	1.596687	0.491377	0.581912
O11	O	0.956396	0.186883	0.081890
O12	O	1.456396	0.686883	0.581890
O13	O	1.224765	0.167193	0.081920
O14	O	1.724765	0.667193	0.581920
Zn15	Zn	1.090578	0.177037	0.107878
Zn16	Zn	1.590578	0.677037	0.607878
Zn17	Zn	1.090597	0.177050	-0.107650
Zn18	Zn	1.590597	0.677050	0.392350
O19	O	1.084474	0.362700	0.081899
O20	O	1.584474	0.862700	0.581899
C21	C	0.922038	0.185971	0.000095
C22	C	1.422038	0.685971	0.500095
C23	C	0.819642	0.183221	0.000084
C24	C	1.319642	0.683221	0.500084
C25	C	1.095772	-0.056140	0.000120
C26	C	1.595772	0.443860	0.500120
C27	C	1.093012	-0.197741	0.000118
C28	C	1.593012	0.302259	0.500118
C29	C	0.444691	0.173098	0.000129
C30	C	0.944691	0.673098	0.500129
C31	C	0.549014	0.175909	0.000116
C32	C	1.049014	0.675909	0.500116
C33	C	0.632163	0.178159	0.000105
C34	C	1.132163	0.678159	0.500105
C35	C	0.736493	0.180971	0.000094
C36	C	1.236493	0.680971	0.500094
C37	C	1.003749	-0.264951	0.000100
C38	C	1.503749	0.235049	0.500100
C39	C	1.045909	-0.357518	0.080760
C40	C	1.545909	0.142482	0.580760
C41	C	1.045944	-0.357482	-0.080520
C42	C	1.545944	0.142518	0.419480
C43	C	1.135209	-0.288443	0.080844
C44	C	1.635209	0.211557	0.580844
C45	C	1.135232	-0.288398	-0.080509
C46	C	1.635232	0.211602	0.419491
C47	C	1.177457	-0.380938	0.000171
C48	C	1.677457	0.119062	0.500171
C49	C	1.259137	0.168116	0.000130
C50	C	1.759137	0.668116	0.500130
C51	C	1.361533	0.170866	0.000135
C52	C	1.861533	0.670866	0.500135
C53	C	1.085403	0.410227	0.000106
C54	C	1.585403	0.910227	0.500106
C55	C	1.088163	0.551828	0.000101
C56	C	1.588163	1.051828	0.500101
N57	N	1.090572	0.177026	0.254969
N58	N	1.590572	0.677026	0.754969
N59	N	1.090610	0.177050	-0.254742
N60	N	1.590610	0.677050	0.245258
C61	C	1.090596	0.177052	0.656260
C62	C	1.590596	0.677052	1.156260
C63	C	1.090586	0.177049	0.544609
C64	C	1.590586	0.677049	1.044609
C65	C	1.090584	0.177040	0.455618
C66	C	1.590584	0.677040	0.955618
C67	C	1.090574	0.177035	0.343960
C68	C	1.590574	0.677035	0.843960
H69	H	0.930357	-0.214534	0.000173
H70	H	1.430357	0.285466	0.500173
C71	C	1.185690	-0.247978	0.171792
C72	C	1.685690	0.252022	0.671792
C73	C	1.276329	-0.308195	0.171889
C74	C	1.776329	0.191805	0.671889
C75	C	1.322859	-0.270933	0.255648
C76	C	1.822859	0.229067	0.755648
H77	H	1.154300	-0.272180	0.229066
H78	H	1.654300	0.227820	0.729066
H79	H	1.187173	-0.157644	0.171259
H80	H	1.687173	0.342356	0.671259
H81	H	1.274841	-0.398509	0.172431
H82	H	1.774841	0.101491	0.672431
H83	H	1.307744	-0.284001	0.114634
H84	H	1.807744	0.215999	0.614634
H85	H	1.324342	-0.180599	0.255115
H86	H	1.824342	0.319401	0.755115
H87	H	1.291461	-0.295136	0.312915
H88	H	1.791461	0.204864	0.812915
H89	H	1.384364	-0.311774	0.255720
H90	H	1.884364	0.188226	0.755720
H91	H	1.250914	-0.431128	0.000224
H92	H	1.750914	0.068872	0.500224
C93	C	0.995372	-0.398258	0.171591
C94	C	1.495372	0.101742	0.671591
C95	C	0.904460	-0.339008	0.171201
C96	C	1.404460	0.160992	0.671201
C97	C	0.857870	-0.376514	0.254847
C98	C	1.357870	0.123486	0.754847
H99	H	1.026375	-0.373477	0.228941
H100	H	1.526375	0.126523	0.728941
H101	H	0.994419	-0.488682	0.171235
H102	H	1.494419	0.011318	0.671235
H103	H	0.905418	-0.248603	0.171566
H104	H	1.405418	0.251397	0.671566
H105	H	0.873432	-0.363782	0.113870
H106	H	1.373432	0.136218	0.613870
H107	H	0.856916	-0.466938	0.254492
H108	H	1.356916	0.033062	0.754492
H109	H	0.888880	-0.351730	0.312191
H110	H	1.388880	0.148270	0.812191
H111	H	0.796179	-0.336328	0.254590
H112	H	1.296179	0.163672	0.754590
C113	C	1.185401	-0.247549	-0.171544
C114	C	1.685401	0.252451	0.328456
C115	C	1.138361	-0.282103	-0.255776
C116	C	1.638361	0.217897	0.244224
C117	C	1.184535	-0.244475	-0.339663
C118	C	1.684535	0.255525	0.160337
H119	H	1.246765	-0.288834	-0.172255
H120	H	1.746765	0.211166	0.327745
H121	H	1.187253	-0.157286	-0.170606
H122	H	1.687253	0.342714	0.329394
H123	H	1.136520	-0.372349	-0.256713
H124	H	1.636520	0.127651	0.243287
H125	H	1.077001	-0.240822	-0.255097
H126	H	1.577001	0.259178	0.244903
H127	H	1.186387	-0.154212	-0.338725
H128	H	1.686387	0.345788	0.161275
H129	H	1.245897	-0.285762	-0.340364
H130	H	1.745897	0.214238	0.159636
H131	H	1.152621	-0.267903	-0.396824
H132	H	1.652621	0.232097	0.103176
H133	H	1.008169	-0.388048	-0.148718
H134	H	1.508169	0.111952	0.351282
