data_functionalizedCrystal
_audit_creation_method	'MofGen! by Chris Wilmer'
_symmetry_space_group_name_H-M	'P1'
_symmetry_Int_Tables_number	1
_symmetry_cell_setting	triclinic
loop_
_symmetry_equiv_pos_as_xyz
  x,y,z
_cell_length_a	12.759394
_cell_length_b	12.759401
_cell_length_c	12.759393
_cell_angle_alpha	90.018496
_cell_angle_beta	89.967655
_cell_angle_gamma	89.984886
loop_
_atom_site_label
_atom_site_type_symbol
_atom_site_fract_x
_atom_site_fract_y
_atom_site_fract_z
Zn1	Zn	-0.418196	-1.606254	-0.593977
Zn2	Zn	-0.593915	-1.606148	-0.418295
Zn3	Zn	-0.418252	-1.430556	-0.418316
Zn4	Zn	-0.593835	-1.430544	-0.593936
O5	O	-0.506050	-1.518376	-0.506131
O6	O	-0.441516	-1.753261	-0.570681
O7	O	-0.570670	-1.582816	-0.271277
O8	O	-0.271223	-1.453912	-0.441644
O9	O	-0.570616	-1.753183	-0.441608
O10	O	-0.271183	-1.582997	-0.570701
O11	O	-0.441611	-1.453809	-0.271293
O12	O	-0.441533	-1.283533	-0.441605
O13	O	-0.570479	-1.453892	-0.740963
O14	O	-0.570533	-1.283525	-0.570632
O15	O	-0.441438	-1.582985	-0.740993
O16	O	-0.740926	-1.582804	-0.441568
O17	O	-0.740866	-1.453789	-0.570611
C18	C	-0.779017	-1.518312	-0.506106
C19	C	-0.895794	-1.518382	-0.506130
C20	C	-0.506031	-1.245408	-0.506117
C21	C	-0.506048	-1.128632	-0.506136
C22	C	-0.505943	-1.518449	-0.780165
C23	C	-0.505898	-1.518480	-0.896942
C24	C	-0.895802	-1.652826	-0.371858
C25	C	-0.950667	-1.720076	-0.304735
C26	C	-1.060389	-1.720137	-0.304763
C27	C	-1.115248	-1.652944	-0.371925
C28	C	-1.060383	-1.585695	-0.439048
C29	C	-0.950659	-1.585638	-0.439010
C30	C	-1.060374	-1.451257	-0.573324
C31	C	-0.950653	-1.451188	-0.573292
C32	C	-1.115234	-1.384064	-0.640485
C33	C	-1.060369	-1.316807	-0.707605
C34	C	-0.950640	-1.316748	-0.707573
C35	C	-0.895788	-1.383939	-0.640415
C36	C	-0.232016	-1.518467	-0.506180
C37	C	-0.115239	-1.518507	-0.506200
C38	C	-0.506069	-1.792409	-0.506146
C39	C	-0.506078	-1.909185	-0.506153
C40	C	-0.573336	-0.964061	-0.573222
C41	C	-0.573325	-1.073785	-0.573211
C42	C	-0.438786	-1.073748	-0.439060
C43	C	-0.438804	-0.964026	-0.439066
C44	C	-0.438685	-1.451331	-0.951811
C45	C	-0.438652	-1.451355	-1.061535
C46	C	-0.573050	-1.585688	-1.061510
C47	C	-0.573087	-1.585657	-0.951788
C48	C	-0.506080	-1.518363	-0.233164
C49	C	-0.505829	-1.518535	-0.116388
H50	H	-0.806461	-1.652769	-0.371815
H51	H	-0.384032	-0.919345	-0.384446
H52	H	-0.905975	-1.261989	-0.762237
C53	C	-0.364790	-1.377434	-0.891478
H54	H	-0.374429	-1.387038	-0.818272
H55	H	-0.380153	-1.306844	-0.909453
H56	H	-0.294191	-1.392847	-0.909479
H57	H	-0.383921	-1.396674	-1.106205
H58	H	-0.905991	-1.774786	-0.250054
H59	H	-0.628115	-0.919414	-0.627848
H60	H	-0.627751	-1.640382	-1.106180
H61	H	-0.627824	-1.640341	-0.907112
H62	H	-1.105059	-1.774903	-0.250111
H63	H	-1.204589	-1.653010	-0.371951
H64	H	-1.204575	-1.384123	-0.640508
H65	H	-0.806447	-1.383890	-0.640376
C66	C	-1.120708	-1.242908	-0.781478
H67	H	-1.072321	-1.202848	-0.821453
H68	H	-1.163591	-1.197178	-0.741270
H69	H	-1.163429	-1.283114	-0.827304
C70	C	-0.647305	-1.134145	-0.646991
H71	H	-0.687364	-1.085766	-0.686949
H72	H	-0.693031	-1.176927	-0.606724
H73	H	-0.607153	-1.176968	-0.692837
C74	C	-0.364781	-1.134075	-0.365280
H75	H	-0.374394	-1.207282	-0.374889
H76	H	-0.380073	-1.116068	-0.294663
H77	H	-0.294209	-1.116104	-0.380790
