data_functionalizedCrystal
_audit_creation_method	'MofGen! by Chris Wilmer'
_symmetry_space_group_name_H-M	'P1'
_symmetry_Int_Tables_number	1
_symmetry_cell_setting	triclinic
loop_
_symmetry_equiv_pos_as_xyz
  x,y,z
_cell_length_a	10.723023
_cell_length_b	10.723024
_cell_length_c	16.176319
_cell_angle_alpha	89.994397
_cell_angle_beta	89.993069
_cell_angle_gamma	84.467709
loop_
_atom_site_label
_atom_site_type_symbol
_atom_site_fract_x
_atom_site_fract_y
_atom_site_fract_z
O1	O	1.657194	0.175026	-0.068736
O2	O	2.157194	0.675026	0.431264
O3	O	1.294042	0.191780	-0.068739
O4	O	1.794042	0.691780	0.431261
O5	O	1.483994	0.001827	-0.068734
O6	O	1.983994	0.501827	0.431266
O7	O	1.467241	0.364979	-0.068741
O8	O	1.967241	0.864979	0.431259
O9	O	1.483968	0.001814	0.068759
O10	O	1.983968	0.501814	0.568759
O11	O	1.294015	0.191768	0.068754
O12	O	1.794015	0.691768	0.568754
O13	O	1.657168	0.175013	0.068757
O14	O	2.157168	0.675013	0.568757
Cu15	Cu	1.475589	0.183389	0.081310
Cu16	Cu	1.975589	0.683389	0.581310
Cu17	Cu	1.475620	0.183404	-0.081292
Cu18	Cu	1.975620	0.683404	0.418708
O19	O	1.467215	0.364967	0.068753
O20	O	1.967215	0.864967	0.568753
C21	C	1.247529	0.190555	0.000007
C22	C	1.747529	0.690555	0.500007
C23	C	1.108974	0.186908	0.000006
C24	C	1.608974	0.686908	0.500006
C25	C	1.482762	-0.044679	0.000011
C26	C	1.982762	0.455321	0.500011
C27	C	1.479114	-0.183233	0.000008
C28	C	1.979114	0.316767	0.500008
C29	C	0.904020	0.181518	-0.071220
C30	C	1.404020	0.681518	0.428780
C31	C	1.047224	0.185288	-0.071220
C32	C	1.547224	0.685288	0.428780
C33	C	1.585402	-0.258216	0.000008
C34	C	2.085402	0.241784	0.500008
C35	C	1.581634	-0.401420	0.000005
C36	C	2.081634	0.098580	0.500005
C37	C	1.703680	0.176239	0.000009
C38	C	2.203680	0.676239	0.500009
C39	C	1.842235	0.179886	0.000005
C40	C	2.342235	0.679886	0.500005
C41	C	1.468447	0.411473	0.000005
C42	C	1.968447	0.911473	0.500005
C43	C	1.472095	0.550027	0.000003
C44	C	1.972095	1.050027	0.500003
N45	N	1.475576	0.183378	0.195675
N46	N	1.975576	0.683378	0.695675
N47	N	1.475643	0.183405	-0.195657
N48	N	1.975643	0.683405	0.304343
C49	C	1.559713	0.099302	0.238941
C50	C	2.059713	0.599302	0.738941
C51	C	1.559719	0.099301	0.325489
C52	C	2.059719	0.599301	0.825489
C53	C	1.475594	0.183383	0.368768
C54	C	1.975594	0.683383	0.868768
C55	C	1.391448	0.267463	0.325495
C56	C	1.891448	0.767463	0.825495
C57	C	1.391436	0.267457	0.238950
C58	C	1.891436	0.767457	0.738950
C59	C	1.391491	0.267487	0.674524
C60	C	1.891491	0.767487	1.174524
C61	C	1.391511	0.267489	0.761075
C62	C	1.891511	0.767489	1.261075
C63	C	1.559774	0.099330	0.761062
C64	C	2.059774	0.599330	1.261062
C65	C	1.559762	0.099324	0.674517
C66	C	2.059762	0.599324	1.174517
C67	C	1.475612	0.183400	0.631252
C68	C	1.975612	0.683400	1.131252
C69	C	1.475605	0.183399	0.537408
C70	C	1.975605	0.683399	1.037408
C71	C	1.475606	0.183391	0.462610
C72	C	1.975606	0.683391	0.962610
H73	H	0.850901	0.180117	-0.132198
H74	H	1.350901	0.680117	0.367802
O75	O	1.038777	0.185177	0.080856
O76	O	1.538777	0.685177	0.580856
H77	H	1.053460	0.270791	0.116711
H78	H	1.553460	0.770791	0.616711
O79	O	1.117591	0.187131	-0.152000
O80	O	1.617591	0.687131	0.348000
H81	H	1.219027	0.189786	-0.139324
H82	H	1.719027	0.689786	0.360676
O83	O	1.351549	-0.364649	0.000008
O84	O	1.851549	0.135351	0.500008
H85	H	1.347754	-0.304668	-0.056033
H86	H	1.847754	0.195332	0.443967
O87	O	1.709637	-0.202827	0.000005
O88	O	2.209637	0.297173	0.500005
H89	H	1.786923	-0.279537	-0.000003
H90	H	2.286923	0.220463	0.499997
O91	O	1.702174	-0.486753	0.000007
O92	O	2.202174	0.013247	0.500007
H93	H	1.680299	-0.585839	-0.000000
H94	H	2.180299	-0.085839	0.500000
O95	O	0.912576	0.181747	0.080786
O96	O	1.412576	0.681747	0.580786
H97	H	0.982298	0.098410	0.084329
H98	H	1.482298	0.598410	0.584329
O99	O	1.354880	-0.238624	0.000011
O100	O	1.854880	0.261376	0.500011
H101	H	1.301060	-0.207038	-0.056031
H102	H	1.801060	0.292962	0.443969
O103	O	1.650444	0.008608	0.192262
O104	O	2.150444	0.508608	0.692262
H105	H	1.708940	-0.049865	0.236892
H106	H	2.208940	0.450135	0.736892
H107	H	1.628229	0.030839	0.360716
H108	H	2.128229	0.530839	0.860716
O109	O	1.650489	0.008630	0.627835
O110	O	2.150489	0.508630	1.127835
H111	H	1.708988	-0.049845	0.672461
H112	H	2.208988	0.450155	1.172461
H113	H	1.628289	0.030867	0.796298
H114	H	2.128289	0.530867	1.296298
H115	H	1.323001	0.335961	0.796312
H116	H	1.823001	0.835961	1.296312
O117	O	1.300741	0.358172	0.627865
O118	O	1.800741	0.858172	1.127865
H119	H	1.317484	0.455600	0.644461
H120	H	1.817484	0.955600	1.144461
H121	H	1.322945	0.335920	0.360738
H122	H	1.822945	0.835920	0.860738
H123	H	1.322922	0.335919	0.203723
H124	H	1.822922	0.835919	0.703723
