data_functionalizedCrystal
_audit_creation_method	'MofGen! by Chris Wilmer'
_symmetry_space_group_name_H-M	'P1'
_symmetry_Int_Tables_number	1
_symmetry_cell_setting	triclinic
loop_
_symmetry_equiv_pos_as_xyz
  x,y,z
_cell_length_a	19.077105
_cell_length_b	12.594516
_cell_length_c	19.076919
_cell_angle_alpha	92.275735
_cell_angle_beta	90.076224
_cell_angle_gamma	87.708332
loop_
_atom_site_label
_atom_site_type_symbol
_atom_site_fract_x
_atom_site_fract_y
_atom_site_fract_z
Zn1	Zn	1.058345	-0.514931	-0.440441
Zn2	Zn	1.063009	-0.686070	-0.322942
Zn3	Zn	0.945560	-0.500673	-0.318234
Zn4	Zn	0.940831	-0.685429	-0.435695
O5	O	1.001936	-0.596776	-0.379328
O6	O	1.157296	-0.543869	-0.428812
O7	O	1.051361	-0.655778	-0.223986
O8	O	0.960549	-0.353621	-0.334461
O9	O	1.160723	-0.669604	-0.342486
O10	O	1.043411	-0.364097	-0.424246
O11	O	0.965072	-0.519568	-0.220527
O12	O	0.846600	-0.518945	-0.329859
O13	O	0.952488	-0.668510	-0.534656
O14	O	0.843125	-0.654684	-0.416157
O15	O	1.038825	-0.543247	-0.538143
O16	O	1.046775	-0.834928	-0.337883
O17	O	0.957011	-0.834457	-0.420722
C18	C	1.001904	-0.873314	-0.379315
C19	C	1.001954	-0.991624	-0.379335
C20	C	0.819366	-0.585199	-0.371982
C21	C	0.741261	-0.580272	-0.368856
C22	C	0.702780	-0.648729	-0.412248
C23	C	0.629392	-0.644086	-0.409314
C24	C	0.594487	-0.570992	-0.362984
C25	C	0.632974	-0.502528	-0.319591
C26	C	0.706360	-0.507166	-0.322529
C27	C	0.375197	-0.549527	-0.349391
C28	C	0.301805	-0.544896	-0.346455
C29	C	0.298228	-0.686453	-0.436179
C30	C	0.371616	-0.691089	-0.439109
C31	C	0.410096	-0.622622	-0.395719
N32	N	0.519473	-0.566247	-0.359983
N33	N	0.485109	-0.627362	-0.398724
C34	C	1.050829	-1.061101	-0.334331
C35	C	1.065420	-1.136633	-0.399156
C36	C	0.987449	-1.126899	-0.314555
C37	C	1.016576	-1.065601	-0.444195
C38	C	0.938577	-1.055856	-0.359549
C39	C	0.953142	-1.131357	-0.424417
C40	C	1.185219	-0.608399	-0.386703
C41	C	1.263323	-0.613352	-0.389846
C42	C	0.994608	-0.607398	-0.562609
C43	C	0.991485	-0.611924	-0.640712
C44	C	1.001987	-0.319160	-0.379358
C45	C	1.002008	-0.200856	-0.379371
C46	C	1.034967	-0.548835	-0.679222
C47	C	1.032024	-0.553084	-0.752608
C48	C	0.985603	-0.620427	-0.787483
C49	C	0.942117	-0.683518	-0.748968
C50	C	0.945056	-0.679263	-0.675583
C51	C	0.971988	-0.640140	-1.006765
C52	C	0.969053	-0.644392	-1.080155
C53	C	1.058960	-0.513956	-1.083790
C54	C	1.061899	-0.509712	-1.010404
C55	C	1.018410	-0.572799	-0.971895
N56	N	0.982596	-0.624774	-0.862495
N57	N	1.021414	-0.568446	-0.896884
C58	C	1.009276	-0.586121	-0.196762
C59	C	1.012535	-0.581304	-0.118665
H60	H	0.731194	-0.708254	-0.449972
O61	O	0.867577	-1.009022	-0.337334
H62	H	0.855633	-1.033386	-0.283501
O63	O	1.111973	-0.437082	-0.972792
H64	H	1.099374	-0.353596	-0.986393
H65	H	1.028812	-1.038647	-0.499038
O66	O	0.898418	-1.171981	-0.474902
H67	H	0.910649	-1.147416	-0.528622
O68	O	0.747871	-0.433332	-0.275729
H69	H	0.782731	-0.480926	-0.241269
O70	O	0.595317	-0.423703	-0.269620
H71	H	0.608912	-0.341783	-0.282328
H72	H	1.119040	-1.171951	-0.415911
H73	H	1.067433	-0.501713	-0.783959
O74	O	0.971156	-1.162771	-0.241969
H75	H	1.011776	-1.134638	-0.204702
H76	H	0.909642	-0.730626	-0.644229
O77	O	0.587889	-0.718116	-0.455979
H78	H	0.624492	-0.769802	-0.488632
O79	O	1.085036	-0.476201	-0.641607
H80	H	1.114772	-0.433038	-0.680717
H81	H	0.273387	-0.485361	-0.308732
H82	H	1.094366	-0.462593	-1.115151
O83	O	0.918978	-0.717022	-1.117775
H84	H	0.889225	-0.760168	-1.078669
O85	O	0.925049	-0.708123	-0.965232
H86	H	0.892268	-0.755649	-1.001814
H87	H	1.092166	-1.030250	-0.296309
O88	O	0.892042	-0.756149	-0.786577
H89	H	0.897305	-0.748516	-0.844077
H90	H	0.400030	-0.750613	-0.476834
H91	H	0.266889	-0.742194	-0.471506
H92	H	0.406519	-0.493783	-0.314054
