data_functionalizedCrystal
_audit_creation_method	'MofGen! by Chris Wilmer'
_symmetry_space_group_name_H-M	'P1'
_symmetry_Int_Tables_number	1
_symmetry_cell_setting	triclinic
loop_
_symmetry_equiv_pos_as_xyz
  x,y,z
_cell_length_a	6.817900
_cell_length_b	16.418049
_cell_length_c	12.200875
_cell_angle_alpha	94.314492
_cell_angle_beta	107.143593
_cell_angle_gamma	103.389670
loop_
_atom_site_label
_atom_site_type_symbol
_atom_site_fract_x
_atom_site_fract_y
_atom_site_fract_z
V1	V	-4.067906	-0.116076	-0.358066
V2	V	-3.734572	0.217257	-0.024732
V3	V	-3.401239	0.550590	0.308601
O4	O	-4.055058	0.005382	-0.350834
O5	O	-3.721725	0.338716	-0.017500
O6	O	-3.388392	0.672049	0.315833
O7	O	-4.018735	-0.229972	-0.356016
O8	O	-3.685401	0.103361	-0.022683
O9	O	-3.352068	0.436695	0.310650
O10	O	-4.037635	-0.114377	-0.514048
O11	O	-3.704301	0.218956	-0.180715
O12	O	-3.370968	0.552290	0.152619
O13	O	-4.036027	-0.111013	-0.191708
O14	O	-3.702694	0.222320	0.141625
O15	O	-3.369361	0.555654	0.474958
V16	V	-4.549284	-0.101538	-0.338119
V17	V	-4.215951	0.231795	-0.004786
V18	V	-3.882618	0.565128	0.328547
O19	O	-4.333868	-0.147967	-0.401819
O20	O	-4.000534	0.185367	-0.068486
O21	O	-3.667201	0.518700	0.264847
O22	O	-4.733520	-0.069648	-0.294366
O23	O	-4.400186	0.263685	0.038968
O24	O	-4.066853	0.597019	0.372301
O25	O	-4.375249	0.012357	-0.340168
O26	O	-4.041915	0.345690	-0.006835
O27	O	-3.708582	0.679024	0.326498
O28	O	-4.679528	-0.222997	-0.345351
O29	O	-4.346195	0.110336	-0.012018
O30	O	-4.012862	0.443670	0.321316
O31	O	-4.698559	-0.106602	-0.504477
O32	O	-4.365226	0.226731	-0.171143
O33	O	-4.031893	0.560065	0.162190
O34	O	-4.356349	-0.103238	-0.182137
O35	O	-4.023015	0.230095	0.151196
O36	O	-3.689682	0.563429	0.484530
C37	C	-3.862961	-0.257734	-0.350471
C38	C	-3.529628	0.075599	-0.017138
C39	C	-3.196295	0.408932	0.316196
C40	C	-3.904166	-0.350846	-0.349835
C41	C	-3.570832	-0.017513	-0.016502
C42	C	-3.237499	0.315821	0.316831
C43	C	-3.887069	-0.110280	-0.552054
C44	C	-3.553736	0.223053	-0.218721
C45	C	-3.220402	0.556386	0.114612
C46	C	-3.943598	-0.109644	-0.679573
C47	C	-3.610264	0.223689	-0.346240
C48	C	-3.276931	0.557022	-0.012907
C49	C	-4.181698	-0.569338	-0.354132
C50	C	-3.848364	-0.236004	-0.020799
C51	C	-3.515031	0.097329	0.312534
C52	C	-4.220403	-0.656827	-0.353545
C53	C	-3.887070	-0.323493	-0.020212
C54	C	-3.553737	0.009840	0.313122
C55	C	-3.854851	-0.648276	-0.342060
C56	C	-3.521518	-0.314943	-0.008727
C57	C	-3.188184	0.018390	0.324607
C58	C	-3.816152	-0.560790	-0.342655
C59	C	-3.482819	-0.227457	-0.009322
C60	C	-3.149486	0.105877	0.324011
C61	C	-3.979580	-0.521322	-0.348686
C62	C	-3.646246	-0.187989	-0.015353
C63	C	-3.312913	0.145344	0.317981
C64	C	-4.056984	-0.696298	-0.347503
C65	C	-3.723651	-0.362964	-0.014170
C66	C	-3.390318	-0.029631	0.319164
C67	C	-4.098949	-0.791157	-0.346866
C68	C	-3.765616	-0.457824	-0.013533
C69	C	-3.432283	-0.124491	0.319800
C70	C	-3.937614	-0.426457	-0.349325
C71	C	-3.604281	-0.093124	-0.015992
C72	C	-3.270947	0.240209	0.317342
C73	C	-4.047053	-0.108481	-0.913044
C74	C	-3.713720	0.224852	-0.579710
C75	C	-3.380387	0.558186	-0.246377
C76	C	-3.989475	-0.109128	-0.783124
C77	C	-3.656142	0.224205	-0.449791
C78	C	-3.322808	0.557539	-0.116457
C79	C	-4.194364	0.040115	-0.345711
C80	C	-3.861030	0.373448	-0.012377
C81	C	-3.527697	0.706782	0.320956
C82	C	-4.132398	0.133226	-0.346354
C83	C	-3.799065	0.466559	-0.013021
C84	C	-3.465732	0.799892	0.320313
C85	C	-4.170256	-0.107337	-0.144124
C86	C	-3.836922	0.225996	0.189209
C87	C	-3.503589	0.559329	0.522542
C88	C	-4.092965	-0.107969	-0.016604
C89	C	-3.759632	0.225364	0.316729
C90	C	-3.426299	0.558698	0.650062
H91	H	-4.314773	-0.537206	-0.359041
H92	H	-3.981439	-0.203873	-0.025708
H93	H	-3.648106	0.129461	0.307625
F94	F	-3.601023	-0.509686	-0.336865
F95	F	-3.267690	-0.176353	-0.003531
F96	F	-2.934357	0.156981	0.329802
H97	H	-4.384986	-0.695918	-0.357982
H98	H	-4.051652	-0.362584	-0.024649
H99	H	-3.718319	-0.029251	0.308685
F100	F	-3.680932	-0.690288	-0.335637
F101	F	-3.347598	-0.356954	-0.002303
F102	F	-3.014265	-0.023621	0.331030
