data_functionalizedCrystal
_audit_creation_method	'MofGen! by Chris Wilmer'
_symmetry_space_group_name_H-M	'P1'
_symmetry_Int_Tables_number	1
_symmetry_cell_setting	triclinic
loop_
_symmetry_equiv_pos_as_xyz
  x,y,z
_cell_length_a	13.032831
_cell_length_b	16.120484
_cell_length_c	13.032268
_cell_angle_alpha	99.642751
_cell_angle_beta	90.886977
_cell_angle_gamma	86.078521
loop_
_atom_site_label
_atom_site_type_symbol
_atom_site_fract_x
_atom_site_fract_y
_atom_site_fract_z
Zn1	Zn	1.458766	-0.562103	-0.811459
Zn2	Zn	1.958766	-0.062103	-0.311459
Zn3	Zn	1.471747	-0.686112	-0.646236
Zn4	Zn	1.971747	-0.186112	-0.146236
Zn5	Zn	1.311081	-0.527333	-0.615806
Zn6	Zn	1.811081	-0.027333	-0.115806
Zn7	Zn	1.278313	-0.681612	-0.796116
Zn8	Zn	1.778313	-0.181612	-0.296116
O9	O	1.379976	-0.614290	-0.717404
O10	O	1.879976	-0.114290	-0.217404
O11	O	1.603247	-0.594988	-0.808698
O12	O	2.103247	-0.094988	-0.308698
O13	O	1.469580	-0.652382	-0.497592
O14	O	1.969580	-0.152382	0.002408
O15	O	1.338953	-0.415480	-0.635446
O16	O	1.838953	0.084520	-0.135446
O17	O	1.612784	-0.686097	-0.687309
O18	O	2.112784	-0.186097	-0.187309
O19	O	1.447456	-0.441026	-0.779192
O20	O	1.947456	0.058974	-0.279192
O21	O	1.351539	-0.535727	-0.475236
O22	O	1.851539	-0.035727	0.024764
O23	O	1.163974	-0.531364	-0.620568
O24	O	1.663974	-0.031364	-0.120568
O25	O	1.283104	-0.678427	-0.942758
O26	O	1.783104	-0.178427	-0.442758
O27	O	1.139900	-0.644712	-0.753041
O28	O	1.639900	-0.144712	-0.253041
O29	O	1.415682	-0.590624	-0.954031
O30	O	1.915682	-0.090624	-0.454031
O31	O	1.437806	-0.801980	-0.672431
O32	O	1.937806	-0.301980	-0.172431
O33	O	1.295691	-0.798674	-0.782547
O34	O	1.795691	-0.298674	-0.282547
C35	C	1.114921	-0.583777	-0.681838
C36	C	1.614921	-0.083777	-0.181838
C37	C	1.001525	-0.570746	-0.666648
C38	C	1.501525	-0.070746	-0.166648
C39	C	0.939092	-0.621091	-0.725332
C40	C	1.439092	-0.121091	-0.225332
C41	C	0.821890	-0.607624	-0.709634
C42	C	1.321890	-0.107624	-0.209634
C43	C	1.364626	-0.830530	-0.729153
C44	C	1.864626	-0.330530	-0.229153
C45	C	1.358148	-0.923053	-0.734226
C46	C	1.858148	-0.423053	-0.234226
C47	C	1.346324	-1.092455	-0.743510
C48	C	1.846324	-0.592455	-0.243510
C49	C	1.413810	-1.135307	-0.691340
C50	C	1.913810	-0.635307	-0.191340
C51	C	1.407231	-1.229569	-0.696506
C52	C	1.907231	-0.729569	-0.196506
C53	C	1.352901	-0.998185	-0.738345
C54	C	1.852901	-0.498185	-0.238345
C55	C	1.646067	-0.644923	-0.753110
C56	C	2.146067	-0.144923	-0.253110
C57	C	1.759458	-0.657977	-0.768325
C58	C	2.259458	-0.157977	-0.268325
C59	C	1.344290	-0.637902	-0.986938
C60	C	1.844290	-0.137902	-0.486938
C61	C	1.329082	-0.647964	-1.101797
C62	C	1.829082	-0.147964	-0.601797
C63	C	1.395412	-0.397210	-0.705636
C64	C	1.895412	0.102790	-0.205636
C65	C	1.401989	-0.304704	-0.700622
C66	C	1.901989	0.195296	-0.200622
C67	C	1.387900	-0.609007	-1.158582
C68	C	1.887900	-0.109007	-0.658582
C69	C	1.372183	-0.619405	-1.277296
C70	C	1.872183	-0.119405	-0.777296
C71	C	1.415587	-0.590717	-0.448924
C72	C	1.915587	-0.090717	0.051076
C73	C	1.431009	-0.580443	-0.334079
C74	C	1.931009	-0.080443	0.165921
H75	H	0.972408	-0.674162	-0.787198
H76	H	1.472408	-0.174162	-0.287198
Cl77	Cl	1.526739	-0.517071	-1.273467
Cl78	Cl	2.026739	-0.017071	-0.773467
H79	H	1.310182	-0.660453	-1.316561
H80	H	1.810182	-0.160453	-0.816561
Cl81	Cl	0.770466	-0.525673	-0.614121
Cl82	Cl	1.270466	-0.025673	-0.114121
Cl83	Cl	1.510639	-1.082655	-0.616388
Cl84	Cl	2.010639	-0.582655	-0.116388
H85	H	0.968208	-0.517670	-0.604790
H86	H	1.468208	-0.017670	-0.104790
Cl87	Cl	1.249495	-1.145106	-0.818449
Cl88	Cl	1.749495	-0.645106	-0.318449
Cl89	Cl	0.810878	-0.739913	-0.863860
Cl90	Cl	1.310878	-0.239913	-0.363860
H91	H	1.449887	-0.567952	-1.119311
H92	H	1.949887	-0.067952	-0.619311
Cl93	Cl	1.233365	-0.711341	-1.162418
Cl94	Cl	1.733365	-0.211341	-0.662418
