data_functionalizedCrystal
_audit_creation_method	'MofGen! by Chris Wilmer'
_symmetry_space_group_name_H-M	'P1'
_symmetry_Int_Tables_number	1
_symmetry_cell_setting	triclinic
loop_
_symmetry_equiv_pos_as_xyz
  x,y,z
_cell_length_a	27.731994
_cell_length_b	27.732048
_cell_length_c	16.776229
_cell_angle_alpha	89.988391
_cell_angle_beta	89.998937
_cell_angle_gamma	82.631595
loop_
_atom_site_label
_atom_site_type_symbol
_atom_site_fract_x
_atom_site_fract_y
_atom_site_fract_z
O1	O	0.640946	0.057393	-0.066183
O2	O	0.890946	0.307393	0.183817
O3	O	1.140946	0.557393	0.433817
O4	O	1.390946	0.807393	0.683817
O5	O	0.500149	0.066166	-0.066211
O6	O	0.750149	0.316166	0.183789
O7	O	1.000149	0.566166	0.433789
O8	O	1.250149	0.816166	0.683789
O9	O	0.574920	-0.008618	-0.066181
O10	O	0.824920	0.241382	0.183819
O11	O	1.074920	0.491382	0.433819
O12	O	1.324920	0.741382	0.683819
O13	O	0.566175	0.132177	-0.066213
O14	O	0.816175	0.382177	0.183787
O15	O	1.066175	0.632177	0.433787
O16	O	1.316175	0.882177	0.683787
O17	O	0.574910	-0.008622	0.066396
O18	O	0.824910	0.241378	0.316396
O19	O	1.074910	0.491378	0.566396
O20	O	1.324910	0.741378	0.816396
O21	O	0.500139	0.066162	0.066366
O22	O	0.750139	0.316162	0.316366
O23	O	1.000139	0.566162	0.566366
O24	O	1.250139	0.816162	0.816366
O25	O	0.640936	0.057389	0.066393
O26	O	0.890936	0.307389	0.316393
O27	O	1.140936	0.557389	0.566393
O28	O	1.390936	0.807389	0.816393
Zn29	Zn	0.570536	0.061775	0.087429
Zn30	Zn	0.820536	0.311775	0.337429
Zn31	Zn	1.070536	0.561775	0.587429
Zn32	Zn	1.320536	0.811775	0.837429
Zn33	Zn	0.570549	0.061781	-0.087246
Zn34	Zn	0.820549	0.311781	0.162754
Zn35	Zn	1.070549	0.561781	0.412754
Zn36	Zn	1.320549	0.811781	0.662754
O37	O	0.566165	0.132173	0.066364
O38	O	0.816165	0.382173	0.316364
O39	O	1.066165	0.632173	0.566364
O40	O	1.316165	0.882173	0.816364
C41	C	0.482137	0.065984	0.000074
C42	C	0.732137	0.315984	0.250074
C43	C	0.982137	0.565984	0.500074
C44	C	1.232137	0.815984	0.750074
C45	C	0.428480	0.065442	0.000064
C46	C	0.678480	0.315442	0.250064
C47	C	0.928480	0.565442	0.500064
C48	C	1.178480	0.815442	0.750064
C49	C	0.095756	0.062023	0.072363
C50	C	0.345756	0.312023	0.322363
C51	C	0.595756	0.562023	0.572363
C52	C	0.845756	0.812023	0.822363
C53	C	-0.105902	0.059962	0.072373
C54	C	0.144098	0.309962	0.322373
C55	C	0.394098	0.559962	0.572373
C56	C	0.644098	0.809962	0.822373
O57	O	-0.131979	0.059672	0.133833
O58	O	0.118021	0.309672	0.383833
O59	O	0.368021	0.559672	0.633833
O60	O	0.618021	0.809672	0.883833
N61	N	-0.131111	0.059708	0.000105
N62	N	0.118889	0.309708	0.250105
N63	N	0.368889	0.559708	0.500105
N64	N	0.618889	0.809708	0.750105
C65	C	-0.105903	0.059967	-0.072169
C66	C	0.144097	0.309967	0.177831
C67	C	0.394097	0.559967	0.427831
C68	C	0.644097	0.809967	0.677831
O69	O	-0.131971	0.059699	-0.133637
O70	O	0.118029	0.309699	0.116363
O71	O	0.368029	0.559699	0.366363
O72	O	0.618029	0.809699	0.616363
C73	C	0.095755	0.062025	-0.072178
C74	C	0.345755	0.312025	0.177822
C75	C	0.595755	0.562025	0.427822
C76	C	0.845755	0.812025	0.677822
C77	C	0.120961	0.062283	0.000094
C78	C	0.370961	0.312283	0.250094
C79	C	0.620961	0.562283	0.500094
C80	C	0.870961	0.812283	0.750094
C81	C	0.120963	0.062281	0.144629
C82	C	0.370963	0.312281	0.394629
C83	C	0.620963	0.562281	0.644629
C84	C	0.870963	0.812281	0.894629
C85	C	0.171374	0.062799	0.144626
C86	C	0.421374	0.312799	0.394626
C87	C	0.671374	0.562799	0.644626
C88	C	0.921374	0.812799	0.894626
C89	C	0.196579	0.063059	0.072357
C90	C	0.446579	0.313059	0.322357
C91	C	0.696579	0.563059	0.572357
C92	C	0.946579	0.813059	0.822357
C93	C	0.171372	0.062801	0.000091
C94	C	0.421372	0.312801	0.250091
C95	C	0.671372	0.562801	0.500091
C96	C	0.921372	0.812801	0.750091
C97	C	0.120963	0.062280	-0.144452
C98	C	0.370963	0.312280	0.105548
C99	C	0.620963	0.562280	0.355548
C100	C	0.870963	0.812280	0.605548
C101	C	0.171381	0.062793	-0.144448
C102	C	0.421381	0.312793	0.105552
C103	C	0.671381	0.562793	0.355552
C104	C	0.921381	0.812793	0.605552
C105	C	0.196587	0.063052	-0.072176
C106	C	0.446587	0.313052	0.177824
C107	C	0.696587	0.563052	0.427824
C108	C	0.946587	0.813052	0.677824
C109	C	0.246988	0.063580	-0.072182
C110	C	0.496988	0.313580	0.177818
C111	C	0.746988	0.563580	0.427818
C112	C	0.996988	0.813580	0.677818
N113	N	0.272198	0.063833	0.000086
N114	N	0.522198	0.313833	0.250086
N115	N	0.772198	0.563833	0.500086
N116	N	1.022198	0.813833	0.750086
C117	C	0.246993	0.063573	0.072355
C118	C	0.496993	0.313573	0.322355
C119	C	0.746993	0.563573	0.572355
C120	C	0.996993	0.813573	0.822355
C121	C	-0.211776	0.058887	-0.072160
C122	C	0.038224	0.308887	0.177840
C123	C	0.288224	0.558887	0.427840
C124	C	0.538224	0.808887	0.677840
C125	C	-0.262190	0.058374	-0.072158
C126	C	-0.012190	0.308374	0.177842
C127	C	0.237810	0.558374	0.427842
C128	C	0.487810	0.808374	0.677842
C129	C	-0.262186	0.058368	0.072385
C130	C	-0.012186	0.308368	0.322385
C131	C	0.237814	0.558368	0.572385
C132	C	0.487814	0.808368	0.822385
C133	C	-0.211771	0.058885	0.072382
C134	C	0.038229	0.308885	0.322382
C135	C	0.288229	0.558885	0.572382
C136	C	0.538229	0.808885	0.822382
C137	C	-0.186566	0.059141	0.000108
C138	C	0.063434	0.309141	0.250108
C139	C	0.313434	0.559141	0.500108
C140	C	0.563434	0.809141	0.750108
C141	C	0.352860	0.064661	0.072343
C142	C	0.602860	0.314661	0.322343
C143	C	0.852860	0.564661	0.572343
C144	C	1.102860	0.814661	0.822343
C145	C	0.403275	0.065181	0.072334
C146	C	0.653275	0.315181	0.322334
C147	C	0.903275	0.565181	0.572334
C148	C	1.153275	0.815181	0.822334
C149	C	0.403267	0.065185	-0.072208
C150	C	0.653267	0.315185	0.177792
C151	C	0.903267	0.565185	0.427792
C152	C	1.153267	0.815185	0.677792
C153	C	0.352856	0.064667	-0.072199
C154	C	0.602856	0.314667	0.177801
C155	C	0.852856	0.564667	0.427801
C156	C	1.102856	0.814667	0.677801
C157	C	0.327654	0.064404	0.000083
C158	C	0.577654	0.314404	0.250083
C159	C	0.827654	0.564404	0.500083
C160	C	1.077654	0.814404	0.750083
O161	O	0.273097	0.063864	-0.133610
O162	O	0.523097	0.313864	0.116390
O163	O	0.773097	0.563864	0.366390
O164	O	1.023097	0.813864	0.616390
O165	O	0.273072	0.063830	0.133813
O166	O	0.523072	0.313830	0.383813
O167	O	0.773072	0.563830	0.633813
O168	O	1.023072	0.813830	0.883813
C169	C	0.045345	0.061505	0.072366
C170	C	0.295345	0.311505	0.322366
C171	C	0.545345	0.561505	0.572366
C172	C	0.795345	0.811505	0.822366
C173	C	0.020139	0.061247	0.000100
C174	C	0.270139	0.311247	0.250100
C175	C	0.520139	0.561247	0.500100
C176	C	0.770139	0.811247	0.750100
C177	C	0.045344	0.061507	-0.072169
C178	C	0.295344	0.311507	0.177831
C179	C	0.545344	0.561507	0.427831
C180	C	0.795344	0.811507	0.677831
C181	C	-0.030275	0.060734	0.000102
C182	C	0.219725	0.310734	0.250102
C183	C	0.469725	0.560734	0.500102
C184	C	0.719725	0.810734	0.750102
C185	C	-0.055480	0.060474	0.072371
C186	C	0.194520	0.310474	0.322371
C187	C	0.444520	0.560474	0.572371
C188	C	0.694520	0.810474	0.822371
C189	C	-0.030271	0.060727	0.144639
C190	C	0.219729	0.310727	0.394639
C191	C	0.469729	0.560727	0.644639
C192	C	0.719729	0.810727	0.894639
C193	C	0.020140	0.061245	0.144636
C194	C	0.270140	0.311245	0.394636
C195	C	0.520140	0.561245	0.644636
C196	C	0.770140	0.811245	0.894636
C197	C	0.020134	0.061254	-0.144436
C198	C	0.270134	0.311254	0.105564
C199	C	0.520134	0.561254	0.355564
C200	C	0.770134	0.811254	0.605564
C201	C	-0.030277	0.060736	-0.144427
C202	C	0.219723	0.310736	0.105573
C203	C	0.469723	0.560736	0.355573
C204	C	0.719723	0.810736	0.605573
C205	C	-0.055482	0.060476	-0.072158
C206	C	0.194518	0.310476	0.177842
C207	C	0.444518	0.560476	0.427842
C208	C	0.694518	0.810476	0.677842
C209	C	0.574732	-0.026627	0.000110
C210	C	0.824732	0.223373	0.250110
C211	C	1.074732	0.473373	0.500110
C212	C	1.324732	0.723373	0.750110
C213	C	0.574179	-0.080282	0.000116
C214	C	0.824179	0.169718	0.250116
C215	C	1.074179	0.419718	0.500116
C216	C	1.324179	0.669718	0.750116
C217	C	0.614884	-0.419105	0.000083
C218	C	0.864884	-0.169105	0.250083
C219	C	1.114884	0.080895	0.500083
C220	C	1.364884	0.330895	0.750083
C221	C	0.612833	-0.620764	0.000072
C222	C	0.862833	-0.370764	0.250072
C223	C	1.112833	-0.120764	0.500072
C224	C	1.362833	0.129236	0.750072
O225	O	0.650055	-0.652027	0.000044
O226	O	0.900055	-0.402027	0.250044
O227	O	1.150055	-0.152027	0.500044
O228	O	1.400055	0.097973	0.750044
N229	N	0.568496	-0.639879	0.000064
N230	N	0.818496	-0.389879	0.250064
N231	N	1.068496	-0.139879	0.500064
N232	N	1.318496	0.110121	0.750064
C233	C	0.524670	-0.608576	0.000053
C234	C	0.774670	-0.358576	0.250053
C235	C	1.024670	-0.108576	0.500053
C236	C	1.274670	0.141424	0.750053
O237	O	0.486912	-0.629462	0.000038
O238	O	0.736912	-0.379462	0.250038
O239	O	0.986912	-0.129462	0.500038
O240	O	1.236912	0.120538	0.750038
C241	C	0.526721	-0.406918	0.000059
C242	C	0.776721	-0.156918	0.250059
C243	C	1.026721	0.093082	0.500059
C244	C	1.276721	0.343082	0.750059
C245	C	0.571061	-0.387805	0.000075
C246	C	0.821061	-0.137805	0.250075
C247	C	1.071061	0.112195	0.500075
C248	C	1.321061	0.362195	0.750075
C249	C	0.659220	-0.399992	0.000098
C250	C	0.909220	-0.149992	0.250098
C251	C	1.159220	0.100008	0.500098
C252	C	1.409220	0.350008	0.750098
C253	C	0.659732	-0.349580	0.000106
C254	C	0.909732	-0.099580	0.250106
C255	C	1.159732	0.150420	0.500106
C256	C	1.409732	0.400420	0.750106
C257	C	0.615908	-0.318281	0.000098
C258	C	0.865908	-0.068281	0.250098
C259	C	1.115908	0.181719	0.500098
C260	C	1.365908	0.431719	0.750098
C261	C	0.571573	-0.337394	0.000082
C262	C	0.821573	-0.087394	0.250082
C263	C	1.071573	0.162606	0.500082
C264	C	1.321573	0.412606	0.750082
C265	C	0.482895	-0.375615	0.000043
C266	C	0.732895	-0.125615	0.250043
C267	C	0.982895	0.124385	0.500043
C268	C	1.232895	0.374385	0.750043
C269	C	0.483412	-0.325198	0.000042
C270	C	0.733412	-0.075198	0.250042
C271	C	0.983412	0.174802	0.500042
C272	C	1.233412	0.424802	0.750042
C273	C	0.527751	-0.306086	0.000059
C274	C	0.777751	-0.056086	0.250059
C275	C	1.027751	0.193914	0.500059
C276	C	1.277751	0.443914	0.750059
C277	C	0.528262	-0.255683	0.000082
C278	C	0.778262	-0.005683	0.250082
C279	C	1.028262	0.244317	0.500082
C280	C	1.278262	0.494317	0.750082
N281	N	0.572598	-0.236567	0.000090
N282	N	0.822598	0.013433	0.250090
N283	N	1.072598	0.263433	0.500090
N284	N	1.322598	0.513433	0.750090
C285	C	0.616421	-0.267867	0.000098
C286	C	0.866421	-0.017867	0.250098
C287	C	1.116421	0.232133	0.500098
C288	C	1.366421	0.482133	0.750098
C289	C	0.523596	-0.714450	0.000052
C290	C	0.773596	-0.464450	0.250052
C291	C	1.023596	-0.214450	0.500052
C292	C	1.273596	0.035550	0.750052
C293	C	0.523083	-0.764864	0.000052
C294	C	0.773083	-0.514864	0.250052
C295	C	1.023083	-0.264864	0.500052
C296	C	1.273083	-0.014864	0.750052
C297	C	0.611246	-0.777049	0.000069
C298	C	0.861246	-0.527049	0.250069
C299	C	1.111246	-0.277049	0.500069
C300	C	1.361246	-0.027049	0.750069
C301	C	0.611759	-0.726633	0.000074
C302	C	0.861759	-0.476633	0.250074
C303	C	1.111759	-0.226633	0.500074
C304	C	1.361759	0.023367	0.750074
C305	C	0.567932	-0.695335	0.000060
C306	C	0.817932	-0.445335	0.250060
C307	C	1.067932	-0.195335	0.500060
C308	C	1.317932	0.054665	0.750060
C309	C	0.617494	-0.161998	0.000113
C310	C	0.867494	0.088002	0.250113
C311	C	1.117494	0.338002	0.500113
C312	C	1.367494	0.588002	0.750113
C313	C	0.618002	-0.111581	0.000124
C314	C	0.868002	0.138419	0.250124
C315	C	1.118002	0.388419	0.500124
C316	C	1.368002	0.638419	0.750124
C317	C	0.529839	-0.099401	0.000103
C318	C	0.779839	0.150599	0.250103
C319	C	1.029839	0.400599	0.500103
C320	C	1.279839	0.650599	0.750103
C321	C	0.529331	-0.149813	0.000097
C322	C	0.779331	0.100187	0.250097
C323	C	1.029331	0.350187	0.500097
C324	C	1.279331	0.600187	0.750097
C325	C	0.573162	-0.181111	0.000099
C326	C	0.823162	0.068889	0.250099
C327	C	1.073162	0.318889	0.500099
C328	C	1.323162	0.568889	0.750099
O329	O	0.491060	-0.224391	0.000100
O330	O	0.741060	0.025609	0.250100
O331	O	0.991060	0.275609	0.500100
O332	O	1.241060	0.525609	0.750100
O333	O	0.654174	-0.246971	0.000095
O334	O	0.904174	0.003029	0.250095
O335	O	1.154174	0.253029	0.500095
O336	O	1.404174	0.503029	0.750095
C337	C	0.614372	-0.469517	0.000076
C338	C	0.864372	-0.219517	0.250076
C339	C	1.114372	0.030483	0.500076
C340	C	1.364372	0.280483	0.750076
C341	C	0.570036	-0.488629	0.000061
C342	C	0.820036	-0.238629	0.250061
C343	C	1.070036	0.011371	0.500061
C344	C	1.320036	0.261371	0.750061
C345	C	0.526213	-0.457330	0.000053
C346	C	0.776213	-0.207330	0.250053
C347	C	1.026213	0.042670	0.500053
C348	C	1.276213	0.292670	0.750053
C349	C	0.569523	-0.539043	0.000061
C350	C	0.819523	-0.289043	0.250061
C351	C	1.069523	-0.039043	0.500061
C352	C	1.319523	0.210957	0.750061
C353	C	0.613346	-0.570343	0.000069
C354	C	0.863346	-0.320343	0.250069
C355	C	1.113346	-0.070343	0.500069
C356	C	1.363346	0.179657	0.750069
C357	C	0.657683	-0.551228	0.000077
C358	C	0.907683	-0.301228	0.250077
C359	C	1.157683	-0.051228	0.500077
C360	C	1.407683	0.198772	0.750077
C361	C	0.658195	-0.500816	0.000084
C362	C	0.908195	-0.250816	0.250084
C363	C	1.158195	-0.000816	0.500084
C364	C	1.408195	0.249184	0.750084
C365	C	0.481876	-0.476445	0.000045
C366	C	0.731876	-0.226445	0.250045
C367	C	0.981876	0.023555	0.500045
C368	C	1.231876	0.273555	0.750045
C369	C	0.481367	-0.526857	0.000038
C370	C	0.731367	-0.276857	0.250038
C371	C	0.981367	-0.026857	0.500038
C372	C	1.231367	0.223143	0.750038
C373	C	0.525191	-0.558157	0.000046
C374	C	0.775191	-0.308157	0.250046
C375	C	1.025191	-0.058157	0.500046
C376	C	1.275191	0.191843	0.750046
C377	C	0.658949	0.057571	0.000107
C378	C	0.908949	0.307571	0.250107
C379	C	1.158949	0.557571	0.500107
C380	C	1.408949	0.807571	0.750107
C381	C	0.712605	0.058114	0.000111
C382	C	0.962605	0.308114	0.250111
C383	C	1.212605	0.558114	0.500111
C384	C	1.462605	0.808114	0.750111
C385	C	0.566353	0.150182	0.000071
C386	C	0.816353	0.400182	0.250071
C387	C	1.066353	0.650182	0.500071
C388	C	1.316353	0.900182	0.750071
C389	C	0.566906	0.203837	0.000060
C390	C	0.816906	0.453837	0.250060
C391	C	1.066906	0.703837	0.500060
C392	C	1.316906	0.953837	0.750060
N393	N	0.570531	0.061770	0.206640
N394	N	0.820531	0.311770	0.456640
N395	N	1.070531	0.561770	0.706640
N396	N	1.320531	0.811770	0.956640
N397	N	0.570558	0.061781	-0.206457
N398	N	0.820558	0.311781	0.043543
N399	N	1.070558	0.561781	0.293543
N400	N	1.320558	0.811781	0.543543
C401	C	0.603650	0.028669	0.248371
C402	C	0.853650	0.278669	0.498371
C403	C	1.103650	0.528669	0.748371
C404	C	1.353650	0.778669	0.998371
C405	C	0.603652	0.028669	0.331823
C406	C	0.853652	0.278669	0.581823
C407	C	1.103652	0.528669	0.831823
C408	C	1.353652	0.778669	1.081823
C409	C	0.570538	0.061772	0.373543
C410	C	0.820538	0.311772	0.623543
C411	C	1.070538	0.561772	0.873543
C412	C	1.320538	0.811772	1.123543
C413	C	0.537416	0.094875	0.331807
C414	C	0.787416	0.344875	0.581807
C415	C	1.037416	0.594875	0.831807
C416	C	1.287416	0.844875	1.081807
C417	C	0.537411	0.094872	0.248356
C418	C	0.787411	0.344872	0.498356
C419	C	1.037411	0.594872	0.748356
C420	C	1.287411	0.844872	0.998356
C421	C	0.537433	0.094884	0.668354
C422	C	0.787433	0.344884	0.918354
C423	C	1.037433	0.594884	1.168354
C424	C	1.287433	0.844884	1.418354
C425	C	0.537441	0.094885	0.751811
C426	C	0.787441	0.344885	1.001811
C427	C	1.037441	0.594885	1.251811
C428	C	1.287441	0.844885	1.501811
C429	C	0.603674	0.028680	0.751821
C430	C	0.853674	0.278680	1.001821
C431	C	1.103674	0.528680	1.251821
C432	C	1.353674	0.778680	1.501821
C433	C	0.603670	0.028678	0.668370
C434	C	0.853670	0.278678	0.918370
C435	C	1.103670	0.528678	1.168370
C436	C	1.353670	0.778678	1.418370
C437	C	0.570546	0.061779	0.626641
C438	C	0.820546	0.311779	0.876641
C439	C	1.070546	0.561779	1.126641
C440	C	1.320546	0.811779	1.376641
C441	C	0.570543	0.061778	0.536153
C442	C	0.820543	0.311778	0.786153
C443	C	1.070543	0.561778	1.036153
C444	C	1.320543	0.811778	1.286153
C445	C	0.570543	0.061775	0.464030
C446	C	0.820543	0.311775	0.714030
C447	C	1.070543	0.561775	0.964030
C448	C	1.320543	0.811775	1.214030
H449	H	-0.282710	0.058171	-0.131009
H450	H	-0.032710	0.308171	0.118991
H451	H	0.217290	0.558171	0.368991
H452	H	0.467290	0.808171	0.618991
H453	H	0.653186	-0.187475	0.000112
H454	H	0.903186	0.062525	0.250112
H455	H	1.153186	0.312525	0.500112
H456	H	1.403186	0.562525	0.750112
H457	H	0.510451	0.121826	0.365780
H458	H	0.760451	0.371826	0.615780
H459	H	1.010451	0.621826	0.865780
H460	H	1.260451	0.871826	1.115780
H461	H	0.695837	-0.334024	0.000115
H462	H	0.945837	-0.084024	0.250115
H463	H	1.195837	0.165976	0.500115
H464	H	1.445837	0.415976	0.750115
H465	H	-0.282716	0.058157	0.131229
H466	H	-0.032716	0.308157	0.381229
H467	H	0.217284	0.558157	0.631229
H468	H	0.467284	0.808157	0.881229
H469	H	0.630620	0.001715	0.365799
H470	H	0.880620	0.251715	0.615799
H471	H	1.130620	0.501715	0.865799
H472	H	1.380620	0.751715	1.115799
H473	H	0.100446	0.062068	0.203483
H474	H	0.350446	0.312068	0.453483
H475	H	0.600446	0.562068	0.703483
H476	H	0.850446	0.812068	0.953483
H477	H	0.646929	-0.802541	0.000075
H478	H	0.896929	-0.552541	0.250075
H479	H	1.146929	-0.302541	0.500075
H480	H	1.396929	-0.052541	0.750075
H481	H	0.630636	0.001724	0.634404
H482	H	0.880636	0.251724	0.884404
H483	H	1.130636	0.501724	1.134404
H484	H	1.380636	0.751724	1.384404
H485	H	0.510442	0.121826	0.214380
H486	H	0.760442	0.371826	0.464380
H487	H	1.010442	0.621826	0.714380
H488	H	1.260442	0.871826	0.964380
H489	H	-0.191252	0.059096	0.131232
H490	H	0.058748	0.309096	0.381232
H491	H	0.308748	0.559096	0.631232
H492	H	0.558748	0.809096	0.881232
H493	H	0.191893	0.063007	0.203478
H494	H	0.441893	0.313007	0.453478
H495	H	0.691893	0.563007	0.703478
H496	H	0.941893	0.813007	0.953478
H497	H	0.630644	0.001727	0.785805
H498	H	0.880644	0.251727	1.035805
H499	H	1.130644	0.501727	1.285805
H500	H	1.380644	0.751727	1.535805
H501	H	0.694908	-0.425472	0.000102
H502	H	0.944908	-0.175472	0.250102
H503	H	1.194908	0.074528	0.500102
H504	H	1.444908	0.324528	0.750102
H505	H	-0.191259	0.059095	-0.131018
H506	H	0.058741	0.309095	0.118982
H507	H	0.308741	0.559095	0.368982
H508	H	0.558741	0.809095	0.618982
H509	H	0.100449	0.062069	-0.203304
H510	H	0.350449	0.312069	0.046696
H511	H	0.600449	0.562069	0.296696
H512	H	0.850449	0.812069	0.546696
H513	H	0.191900	0.063002	-0.203304
H514	H	0.441900	0.313002	0.046696
H515	H	0.691900	0.563002	0.296696
H516	H	0.941900	0.813002	0.546696
H517	H	0.510464	0.121836	0.634385
H518	H	0.760464	0.371836	0.884385
H519	H	1.010464	0.621836	1.134385
H520	H	1.260464	0.871836	1.384385
H521	H	0.493226	-0.165375	0.000106
H522	H	0.743226	0.084625	0.250106
H523	H	0.993226	0.334625	0.500106
H524	H	1.243226	0.584625	0.750106
H525	H	0.423796	0.065394	0.131189
H526	H	0.673796	0.315394	0.381189
H527	H	0.923796	0.565394	0.631189
H528	H	1.173796	0.815394	0.881189
H529	H	0.332331	0.064465	-0.131049
H530	H	0.582331	0.314465	0.118951
H531	H	0.832331	0.564465	0.368951
H532	H	1.082331	0.814465	0.618951
H533	H	0.040659	0.061456	0.203487
H534	H	0.290659	0.311456	0.453487
H535	H	0.540659	0.561456	0.703487
H536	H	0.790659	0.811456	0.953487
H537	H	0.630617	0.001715	0.214407
H538	H	0.880617	0.251715	0.464407
H539	H	1.130617	0.501715	0.714407
H540	H	1.380617	0.751715	0.964407
H541	H	0.486977	-0.780420	0.000053
H542	H	0.736977	-0.530420	0.250053
H543	H	0.986977	-0.280420	0.500053
H544	H	1.236977	-0.030420	0.750053
H545	H	0.423797	0.065399	-0.131048
H546	H	0.673797	0.315399	0.118952
H547	H	0.923797	0.565399	0.368952
H548	H	1.173797	0.815399	0.618952
H549	H	0.693365	-0.576720	0.000087
H550	H	0.943365	-0.326720	0.250087
H551	H	1.193365	-0.076720	0.500087
H552	H	1.443365	0.173280	0.750087
H553	H	0.332346	0.064451	0.131202
H554	H	0.582346	0.314451	0.381202
H555	H	0.832346	0.564451	0.631202
H556	H	1.082346	0.814451	0.881202
H557	H	0.654110	-0.096023	0.000139
H558	H	0.904110	0.153977	0.250139
H559	H	1.154110	0.403977	0.500139
H560	H	1.404110	0.653977	0.750139
H561	H	0.647863	-0.711076	0.000087
H562	H	0.897863	-0.461076	0.250087
H563	H	1.147863	-0.211076	0.500087
H564	H	1.397863	0.038924	0.750087
H565	H	0.510474	0.121842	0.785778
H566	H	0.760474	0.371842	1.035778
H567	H	1.010474	0.621842	1.285778
H568	H	1.260474	0.871842	1.535778
H569	H	0.446189	-0.450966	0.000037
H570	H	0.696189	-0.200966	0.250037
H571	H	0.946189	0.049034	0.500037
H572	H	1.196189	0.299034	0.750037
H573	H	0.487905	-0.688970	0.000040
H574	H	0.737905	-0.438970	0.250040
H575	H	0.987905	-0.188970	0.500040
H576	H	1.237905	0.061030	0.750040
H577	H	0.447722	-0.299716	0.000029
H578	H	0.697722	-0.049716	0.250029
H579	H	0.947722	0.200284	0.500029
H580	H	1.197722	0.450284	0.750029
H581	H	-0.050802	0.060518	0.203483
H582	H	0.199198	0.310518	0.453483
H583	H	0.449198	0.560518	0.703483
H584	H	0.699198	0.810518	0.953483
H585	H	0.446789	-0.391167	0.000025
H586	H	0.696789	-0.141167	0.250025
H587	H	0.946789	0.108833	0.500025
H588	H	1.196789	0.358833	0.750025
H589	H	-0.050796	0.060530	-0.203285
H590	H	0.199204	0.310530	0.046715
H591	H	0.449204	0.560530	0.296715
H592	H	0.699204	0.810530	0.546715
H593	H	0.694301	-0.485260	0.000097
H594	H	0.944301	-0.235260	0.250097
H595	H	1.194301	0.014740	0.500097
H596	H	1.444301	0.264740	0.750097
H597	H	0.040651	0.061464	-0.203288
H598	H	0.290651	0.311464	0.046712
H599	H	0.540651	0.561464	0.296712
H600	H	0.790651	0.811464	0.546712
H601	H	0.494160	-0.073908	0.000099
H602	H	0.744160	0.176092	0.250099
H603	H	0.994160	0.426092	0.500099
H604	H	1.244160	0.676092	0.750099
H605	H	0.445258	-0.542413	0.000032
H606	H	0.695258	-0.292413	0.250032
H607	H	0.945258	-0.042413	0.500032
H608	H	1.195258	0.207587	0.750032
