data_functionalizedCrystal
_audit_creation_method	'MofGen! by Chris Wilmer'
_symmetry_space_group_name_H-M	'P1'
_symmetry_Int_Tables_number	1
_symmetry_cell_setting	triclinic
loop_
_symmetry_equiv_pos_as_xyz
  x,y,z
_cell_length_a	10.723022
_cell_length_b	14.044190
_cell_length_c	9.198806
_cell_angle_alpha	89.991997
_cell_angle_beta	89.996352
_cell_angle_gamma	88.829502
loop_
_atom_site_label
_atom_site_type_symbol
_atom_site_fract_x
_atom_site_fract_y
_atom_site_fract_z
O1	O	1.670503	0.133033	-0.120901
O2	O	1.308625	0.145769	-0.120908
O3	O	1.484127	0.001381	-0.120876
O4	O	1.495000	0.277421	-0.120933
O5	O	1.484112	0.001380	0.120909
O6	O	1.308610	0.145769	0.120877
O7	O	1.670488	0.133032	0.120884
Cu8	Cu	1.489547	0.139401	0.142957
Cu9	Cu	1.489565	0.139401	-0.142981
O10	O	1.494985	0.277421	0.120852
C11	C	1.262025	0.144842	-0.000016
C12	C	1.123193	0.142070	-0.000017
C13	C	1.479363	-0.033965	0.000021
C14	C	1.465175	-0.139283	0.000033
C15	C	1.066299	0.058806	-0.000001
C16	C	0.922809	0.055939	-0.000002
C17	C	1.539861	-0.389084	-0.000023
C18	C	1.439257	-0.332109	-0.000014
C19	C	1.453681	-0.224811	0.000012
C20	C	1.525438	-0.496392	-0.000049
C21	C	1.717088	0.133959	-0.000011
C22	C	1.855919	0.136731	-0.000020
C23	C	1.499749	0.312766	-0.000048
C24	C	1.513937	0.418084	-0.000070
N25	N	1.489544	0.139400	0.344071
N26	N	1.489578	0.139394	-0.344095
C27	C	1.563205	0.078508	0.416282
C28	C	1.563224	0.078505	0.583694
H29	H	1.123820	-0.010356	0.000007
H30	H	0.873863	-0.015350	-0.000025
H31	H	1.626294	0.026376	0.645792
C32	C	1.404373	0.209827	0.572025
N33	N	1.340196	0.262876	0.508836
H34	H	0.904858	0.208025	-0.000025
H35	H	1.065673	0.211233	-0.000038
H36	H	1.342294	-0.363914	-0.000024
C37	C	1.670846	-0.346118	0.000017
N38	N	1.769502	-0.313745	0.000057
C39	C	1.648364	0.008065	0.332370
N40	N	1.712501	-0.045000	0.269169
H41	H	1.426488	0.191526	0.406188
