data_functionalizedCrystal
_audit_creation_method	'MofGen! by Chris Wilmer'
_symmetry_space_group_name_H-M	'P1'
_symmetry_Int_Tables_number	1
_symmetry_cell_setting	triclinic
loop_
_symmetry_equiv_pos_as_xyz
  x,y,z
_cell_length_a	10.654543
_cell_length_b	17.666332
_cell_length_c	19.188929
_cell_angle_alpha	89.971732
_cell_angle_beta	83.813401
_cell_angle_gamma	89.990815
loop_
_atom_site_label
_atom_site_type_symbol
_atom_site_fract_x
_atom_site_fract_y
_atom_site_fract_z
O1	O	-1.665780	0.062987	-0.098040
O2	O	-1.165780	0.562987	0.401960
O3	O	-1.300103	0.062992	-0.107388
O4	O	-0.800103	0.562992	0.392612
O5	O	-1.493494	0.062943	-0.001127
O6	O	-0.993494	0.562943	0.498873
O7	O	-1.472389	0.063036	-0.204300
O8	O	-0.972389	0.563036	0.295700
O9	O	-1.493461	-0.062954	-0.001121
O10	O	-0.993461	0.437046	0.498879
O11	O	-1.300069	-0.062904	-0.107382
O12	O	-0.800069	0.437096	0.392618
O13	O	-1.665747	-0.062910	-0.098034
O14	O	-1.165747	0.437090	0.401966
Cu15	Cu	-1.482905	-0.074403	-0.102707
Cu16	Cu	-0.982905	0.425597	0.397293
Cu17	Cu	-1.482945	0.074485	-0.102714
Cu18	Cu	-0.982945	0.574485	0.397286
O19	O	-1.472355	-0.062860	-0.204295
O20	O	-0.972355	0.437140	0.295705
C21	C	-1.253303	0.000044	-0.106699
C22	C	-0.753303	0.500044	0.393301
C23	C	-1.113902	0.000044	-0.104649
C24	C	-0.613902	0.500044	0.395351
N25	N	-1.482886	-0.179122	-0.102702
N26	N	-0.982886	0.320878	0.397298
C27	C	-0.902104	0.000067	-0.165281
C28	C	-0.402104	0.500067	0.334719
C29	C	-1.033084	0.000074	-0.167213
C30	C	-0.533084	0.500074	0.332787
C31	C	-1.063735	0.000015	-0.040149
C32	C	-0.563735	0.500015	0.459851
C33	C	-0.932757	0.000014	-0.038217
C34	C	-0.432757	0.500014	0.461783
C35	C	-1.568547	-0.218754	-0.055673
C36	C	-1.068547	0.281246	0.444327
C37	C	-1.568555	-0.298001	-0.055670
C38	C	-1.068555	0.201999	0.444330
C39	C	-1.482913	-0.337614	-0.102707
C40	C	-0.982913	0.162386	0.397293
C41	C	-1.397235	-0.297973	-0.149740
C42	C	-0.897235	0.202027	0.350260
C43	C	-1.397222	-0.218727	-0.149737
C44	C	-0.897222	0.281273	0.350263
N45	N	-1.466588	-0.462004	-0.164408
N46	N	-0.966588	0.037996	0.335592
N47	N	-1.466608	-0.537285	-0.164409
N48	N	-0.966608	-0.037285	0.335591
C49	C	-1.482946	-0.576378	-0.102717
C50	C	-0.982946	-0.076378	0.397283
N51	N	-1.499287	-0.537347	-0.041024
N52	N	-0.999287	-0.037347	0.458976
N53	N	-1.499273	-0.462060	-0.041024
N54	N	-0.999273	0.037940	0.458976
C55	C	-1.482917	-0.423543	-0.102715
C56	C	-0.982917	0.076457	0.397285
C57	C	-1.568619	-0.701939	-0.055681
C58	C	-1.068619	-0.201939	0.444319
C59	C	-1.568618	-0.781188	-0.055677
C60	C	-1.068618	-0.281188	0.444323
C61	C	-1.397305	-0.781158	-0.149753
C62	C	-0.897305	-0.281158	0.350247
C63	C	-1.397300	-0.701911	-0.149751
C64	C	-0.897300	-0.201911	0.350249
C65	C	-1.482964	-0.662306	-0.102716
C66	C	-0.982964	-0.162306	0.397284
C67	C	-0.712546	0.000038	-0.098725
C68	C	-0.212546	0.500038	0.401275
C69	C	-0.851944	0.000036	-0.100786
C70	C	-0.351944	0.500036	0.399214
C71	C	-1.473056	0.000100	-0.230313
C72	C	-0.973056	0.500100	0.269687
C73	C	-1.475107	0.000136	-0.307831
C74	C	-0.975107	0.500136	0.192169
N75	N	-1.482974	0.179204	-0.102714
N76	N	-0.982974	0.679204	0.397286
C77	C	-1.361632	0.000123	-0.352014
C78	C	-0.861632	0.500123	0.147986
C79	C	-1.363559	0.000106	-0.424851
C80	C	-0.863559	0.500106	0.075149
C81	C	-1.478969	0.000087	-0.453500
C82	C	-0.978969	0.500087	0.046500
C83	C	-1.592459	0.000104	-0.409307
C84	C	-1.092459	0.500104	0.090693
C85	C	-1.590529	0.000129	-0.336472
C86	C	-1.090529	0.500129	0.163528
N87	N	-1.567173	-0.042808	-0.562042
N88	N	-1.067173	0.457192	-0.062042
N89	N	-1.569000	-0.042833	-0.631233
N90	N	-1.069000	0.457167	-0.131233
C91	C	-1.484793	0.000014	-0.672947
C92	C	-0.984793	0.500014	-0.172947
N93	N	-1.398672	0.042877	-0.642858
N94	N	-0.898672	0.542877	-0.142858
N95	N	-1.396842	0.042899	-0.573661
N96	N	-0.896842	0.542899	-0.073661
C97	C	-1.481075	0.000060	-0.532477
C98	C	-0.981075	0.500060	-0.032477
C99	C	-1.373399	-0.000017	-0.796108
C100	C	-0.873399	0.499983	-0.296108
C101	C	-1.375332	-0.000030	-0.868946
C102	C	-0.875332	0.499970	-0.368946
C103	C	-1.604235	-0.000038	-0.853401
C104	C	-1.104235	0.499962	-0.353401
C105	C	-1.602300	-0.000018	-0.780565
C106	C	-1.102300	0.499982	-0.280565
C107	C	-1.486878	-0.000011	-0.751923
C108	C	-0.986878	0.499989	-0.251923
C109	C	-1.492794	-0.000016	0.024892
C110	C	-0.992794	0.499984	0.524892
C111	C	-1.490742	-0.000047	0.102410
C112	C	-0.990742	0.499953	0.602410
H113	H	-0.836309	0.000085	-0.216229
H114	H	-0.336309	0.500085	0.283771
Cl115	Cl	-1.737546	0.000086	-0.445323
Cl116	Cl	-1.237546	0.500086	0.054677
H117	H	-0.891918	-0.000009	0.014305
H118	H	-0.391918	0.499991	0.514305
Cl119	Cl	-1.676304	-0.652149	0.003452
Cl120	Cl	-1.176304	-0.152149	0.503452
H121	H	-1.638297	-0.186510	-0.017373
H122	H	-1.138297	0.313490	0.482627
Cl123	Cl	-1.733196	0.000144	-0.280924
Cl124	Cl	-1.233196	0.500144	0.219076
Cl125	Cl	-1.676308	-0.831014	0.003454
Cl126	Cl	-1.176308	-0.331014	0.503454
H127	H	-1.327569	-0.813410	-0.188049
H128	H	-0.827569	-0.313410	0.311951
H129	H	-1.327552	-0.669640	-0.188049
H130	H	-0.827552	-0.169640	0.311951
Cl131	Cl	-1.228302	-0.000004	-0.760098
Cl132	Cl	-0.728302	0.499996	-0.260098
Cl133	Cl	-1.216531	0.000140	-0.316011
Cl134	Cl	-0.716531	0.500140	0.183989
Cl135	Cl	-1.289565	-0.347770	-0.208870
Cl136	Cl	-0.789565	0.152230	0.291130
Cl137	Cl	-1.232662	-0.000037	-0.924492
Cl138	Cl	-0.732662	0.499963	-0.424492
H139	H	-1.129547	-0.000004	0.010792
H140	H	-0.629547	0.499996	0.510792
H141	H	-1.638312	-0.330276	-0.017372
H142	H	-1.138312	0.169724	0.482628
Cl143	Cl	-1.220893	0.000085	-0.480406
Cl144	Cl	-0.720893	0.500085	0.019594
H145	H	-1.698204	0.000001	-0.876727
H146	H	-1.198204	0.500001	-0.376727
H147	H	-1.327465	-0.186458	-0.188034
H148	H	-0.827465	0.313542	0.311966
H149	H	-1.073917	0.000099	-0.219731
H150	H	-0.573917	0.500099	0.280269
Cl151	Cl	-1.744964	-0.000009	-0.725017
Cl152	Cl	-1.244964	0.499991	-0.225017
