data_functionalizedCrystal
_audit_creation_method	'MofGen! by Chris Wilmer'
_symmetry_space_group_name_H-M	'P1'
_symmetry_Int_Tables_number	1
_symmetry_cell_setting	triclinic
loop_
_symmetry_equiv_pos_as_xyz
  x,y,z
_cell_length_a	19.188933
_cell_length_b	19.188930
_cell_length_c	9.130313
_cell_angle_alpha	90.008113
_cell_angle_beta	90.002300
_cell_angle_gamma	83.145175
loop_
_atom_site_label
_atom_site_type_symbol
_atom_site_fract_x
_atom_site_fract_y
_atom_site_fract_z
O1	O	0.926143	0.087172	0.121767
O2	O	0.722832	0.098905	0.121783
O3	O	0.830355	-0.008617	0.121746
O4	O	0.818621	0.194694	0.121804
O5	O	0.830347	-0.008617	-0.121853
O6	O	0.722824	0.098905	-0.121816
O7	O	0.926135	0.087172	-0.121832
Cu8	Cu	0.824479	0.093039	-0.144067
Cu9	Cu	0.824489	0.093039	0.144017
O10	O	0.818613	0.194694	-0.121795
C11	C	0.696817	0.098525	-0.000015
C12	C	0.619313	0.097384	-0.000010
C13	C	0.066062	0.089239	0.132757
C14	C	0.138886	0.090307	0.132763
C15	C	0.175299	0.090844	-0.000022
C16	C	0.138883	0.090295	-0.132823
C17	C	0.066061	0.089220	-0.132825
N18	N	0.284315	0.132263	-0.098848
N19	N	0.353493	0.133285	-0.098837
C20	C	0.394707	0.094082	-0.000023
N21	N	0.364129	0.053826	0.098801
N22	N	0.294945	0.052806	0.098794
C23	C	0.254262	0.092009	-0.000034
C24	C	0.510079	0.095784	0.132776
C25	C	0.582905	0.096848	0.132776
C26	C	0.582900	0.096843	-0.132814
C27	C	0.510076	0.095772	-0.132810
C28	C	0.473669	0.095246	-0.000012
C29	C	0.829971	-0.034628	-0.000058
C30	C	0.828830	-0.112132	-0.000070
C31	C	0.891921	-0.157056	-0.000082
C32	C	0.890849	-0.229880	-0.000059
C33	C	0.826683	-0.257777	-0.000053
C34	C	0.763584	-0.212843	-0.000032
C35	C	0.764658	-0.140021	-0.000041
N36	N	0.777633	-0.365782	-0.082950
N37	N	0.776618	-0.434961	-0.082945
C38	C	0.823445	-0.477185	-0.000023
N39	N	0.871337	-0.447620	0.082875
N40	N	0.872354	-0.378435	0.082864
C41	C	0.825512	-0.336739	-0.000042
C42	C	0.885378	-0.601073	-0.000007
C43	C	0.884304	-0.673898	0.000026
C44	C	0.757037	-0.656860	0.000037
C45	C	0.758113	-0.584037	0.000019
C46	C	0.822286	-0.556148	-0.000010
C47	C	0.952150	0.087553	-0.000031
C48	C	1.029655	0.088694	-0.000026
C49	C	0.818997	0.220705	0.000012
C50	C	0.820137	0.298210	0.000034
N51	N	0.824477	0.093039	-0.346689
C52	C	0.866692	0.135282	-0.423326
C53	C	0.866703	0.135278	-0.576663
C54	C	0.782280	0.050785	-0.576712
C55	C	0.782273	0.050786	-0.423378
N56	N	0.824496	0.093034	0.346640
H57	H	0.036419	0.088779	-0.240957
H58	H	0.747896	0.016383	-0.360978
H59	H	0.747917	0.016386	-0.639171
H60	H	0.901079	0.169676	-0.639054
H61	H	0.706738	-0.547459	0.000021
H62	H	0.168534	0.090754	0.240895
H63	H	0.704792	-0.679573	0.000049
H64	H	0.168535	0.090732	-0.240937
H65	H	0.036424	0.088807	0.240893
H66	H	0.480435	0.095353	0.240908
H67	H	0.711340	-0.235562	-0.000024
H68	H	0.612547	0.097286	0.240909
H69	H	0.612547	0.097278	-0.240930
H70	H	0.944175	-0.134354	-0.000101
H71	H	0.480433	0.095331	-0.240937
H72	H	0.942227	-0.266463	-0.000063
H73	H	0.713280	-0.103444	-0.000032
H74	H	0.937631	-0.578365	-0.000024
H75	H	0.935682	-0.710475	0.000024
H76	H	0.901058	0.169686	-0.360891
