data_functionalizedCrystal
_audit_creation_method	'MofGen! by Chris Wilmer'
_symmetry_space_group_name_H-M	'P1'
_symmetry_Int_Tables_number	1
_symmetry_cell_setting	triclinic
loop_
_symmetry_equiv_pos_as_xyz
  x,y,z
_cell_length_a	12.759395
_cell_length_b	12.645330
_cell_length_c	12.759387
_cell_angle_alpha	90.029414
_cell_angle_beta	90.020509
_cell_angle_gamma	90.019229
loop_
_atom_site_label
_atom_site_type_symbol
_atom_site_fract_x
_atom_site_fract_y
_atom_site_fract_z
Zn1	Zn	1.606247	-0.421940	0.594015
Zn2	Zn	1.606128	-0.599242	0.418340
Zn3	Zn	1.430545	-0.421998	0.418352
Zn4	Zn	1.430528	-0.599167	0.593979
O5	O	1.518362	-0.510587	0.506172
O6	O	1.753252	-0.445467	0.570722
O7	O	1.582794	-0.575786	0.271320
O8	O	1.453909	-0.273643	0.441674
O9	O	1.753165	-0.575730	0.441654
O10	O	1.582996	-0.273600	0.570733
O11	O	1.453794	-0.445565	0.271329
O12	O	1.283522	-0.445492	0.441639
O13	O	1.453880	-0.575601	0.741005
O14	O	1.283509	-0.575657	0.570672
O15	O	1.582980	-0.445394	0.741032
O16	O	1.582778	-0.747579	0.441619
O17	O	1.453765	-0.747524	0.570660
C18	C	1.245395	-0.510574	0.506153
C19	C	1.128618	-0.510594	0.506171
C20	C	1.128644	-0.646354	0.640315
C21	C	1.073796	-0.714242	0.707390
C22	C	0.964074	-0.714255	0.707403
C23	C	0.909198	-0.646370	0.640335
C24	C	0.964046	-0.578482	0.573260
C25	C	1.073770	-0.578478	0.573253
C26	C	0.964020	-0.442718	0.439123
C27	C	1.073742	-0.442709	0.439103
C28	C	0.909144	-0.374833	0.372056
C29	C	0.963992	-0.306948	0.304974
C30	C	1.073720	-0.306939	0.304963
C31	C	1.128590	-0.374820	0.372028
C32	C	1.518285	-0.786016	0.506157
C33	C	1.518349	-0.903846	0.506186
C34	C	1.437522	-1.071420	0.587616
C35	C	1.437108	-0.948860	0.587354
C36	C	1.488373	-0.948450	0.395464
C37	C	1.487880	-1.071049	0.395958
C38	C	1.629646	-1.070930	0.534579
C39	C	1.628964	-0.948323	0.537001
C40	C	1.792395	-0.510600	0.506190
C41	C	1.909172	-0.510606	0.506198
C42	C	1.518441	-0.510483	0.780205
C43	C	1.518475	-0.510438	0.896982
C44	C	1.518468	-0.234081	0.506209
C45	C	1.518513	-0.116251	0.506225
C46	C	1.518344	-0.510614	0.233204
C47	C	1.518513	-0.510359	0.116428
C48	C	1.652916	-0.374862	0.897029
C49	C	1.720151	-0.307058	0.951914
C50	C	1.720176	-0.307019	1.061636
C51	C	1.652958	-0.374790	1.116475
C52	C	1.585723	-0.442594	1.061591
C53	C	1.585707	-0.442627	0.951867
C54	C	1.451278	-0.578163	1.061543
C55	C	1.451256	-0.578209	0.951822
C56	C	1.384059	-0.645934	1.116383
C57	C	1.316828	-0.713745	1.061498
C58	C	1.316806	-0.713781	0.951770
C59	C	1.384021	-0.646013	0.896937
H60	H	1.118488	-0.769511	0.761996
H61	H	1.384081	-0.645893	1.205724
H62	H	1.774877	-0.251879	0.907251
H63	H	1.774918	-0.251801	1.106323
H64	H	0.919303	-0.251676	0.250379
H65	H	1.652912	-0.374897	0.807688
C66	C	1.726183	-0.300913	1.273676
C67	C	1.652979	-0.374742	1.237083
H68	H	1.726198	-0.300891	1.348135
H69	H	1.708037	-0.232521	1.248863
H70	H	1.793966	-0.319271	1.248859
H71	H	1.585195	-0.356380	1.261893
H72	H	1.671120	-0.443149	1.261907
H73	H	0.819857	-0.646378	0.640361
H74	H	1.355647	-1.102324	0.569071
C75	C	1.482314	-1.024571	0.764432
C76	C	1.462604	-1.111117	0.698814
H77	H	1.497807	-1.049087	0.833080
H78	H	1.422228	-0.980305	0.766605
H79	H	1.540288	-0.985637	0.738119
H80	H	1.404624	-1.150047	0.725122
H81	H	1.522697	-1.155400	0.696644
C82	C	1.259374	-0.996180	0.546947
C83	C	1.325891	-0.909389	0.561978
H84	H	1.190714	-0.971810	0.531270
H85	H	1.257664	-1.037679	0.608950
H86	H	1.284628	-1.037903	0.490414
H87	H	1.300642	-0.867670	0.618518
H88	H	1.327598	-0.867873	0.499968
H89	H	1.406640	-1.099744	0.371938
H90	H	1.262098	-0.768912	1.106157
H91	H	0.819803	-0.374843	0.372076
C92	C	1.183928	-0.847803	0.962755
C93	C	1.242910	-0.788328	0.891445
H94	H	1.138316	-0.893832	0.925513
H95	H	1.143764	-0.801594	1.005541
H96	H	1.229707	-0.888330	1.005561
H97	H	1.197131	-0.747794	0.848643
H98	H	1.283077	-0.834542	0.848641
H99	H	1.544310	-1.100709	0.333248
C100	C	1.666958	-0.942797	0.336500
C101	C	1.565496	-0.909089	0.311376
H102	H	1.714576	-0.918489	0.284597
H103	H	1.668623	-1.017843	0.339102
H104	H	1.686491	-0.914904	0.402835
H105	H	1.545959	-0.936989	0.245044
H106	H	1.563828	-0.834028	0.308762
H107	H	1.407980	-0.917843	0.371009
C108	C	1.062663	-0.172745	0.172365
C109	C	1.134005	-0.232318	0.231225
H110	H	1.099880	-0.126683	0.126836
H111	H	1.019907	-0.132257	0.218218
H112	H	1.019831	-0.218897	0.132108
H113	H	1.176833	-0.186165	0.271488
H114	H	1.176780	-0.272809	0.185365
H115	H	1.384014	-0.646041	0.807596
H116	H	1.651570	-0.919166	0.618486
C117	C	1.285835	-0.720276	0.713312
C118	C	1.249251	-0.646355	0.640289
H119	H	1.360294	-0.720274	0.713298
H120	H	1.260979	-0.788650	0.695021
H121	H	1.261054	-0.702025	0.781146
H122	H	1.274026	-0.664611	0.572454
H123	H	1.274117	-0.577966	0.658575
H124	H	1.455863	-0.918699	0.669454
H125	H	1.217931	-0.374822	0.372023
C126	C	0.975109	-0.848451	0.840005
C127	C	0.903779	-0.788872	0.781137
H128	H	0.937882	-0.894518	0.885521
H129	H	1.017933	-0.802311	0.880265
H130	H	1.017874	-0.888945	0.794148
H131	H	0.861018	-0.748373	0.826993
H132	H	0.860936	-0.835018	0.740873
H133	H	1.692484	-0.917676	0.482037
H134	H	1.656990	-1.101767	0.613945
C135	C	1.714787	-1.220726	0.456347
C136	C	1.711115	-1.110073	0.454570
H137	H	1.765083	-1.244893	0.406957
H138	H	1.647806	-1.248355	0.438804
H139	H	1.733981	-1.243971	0.524486
H140	H	1.691914	-1.086828	0.386433
H141	H	1.778111	-1.082433	0.472107
