data_functionalizedCrystal
_audit_creation_method	'MofGen! by Chris Wilmer'
_symmetry_space_group_name_H-M	'P1'
_symmetry_Int_Tables_number	1
_symmetry_cell_setting	triclinic
loop_
_symmetry_equiv_pos_as_xyz
  x,y,z
_cell_length_a	10.654554
_cell_length_b	11.792241
_cell_length_c	9.730223
_cell_angle_alpha	89.998500
_cell_angle_beta	89.999646
_cell_angle_gamma	84.340080
loop_
_atom_site_label
_atom_site_type_symbol
_atom_site_fract_x
_atom_site_fract_y
_atom_site_fract_z
O1	O	1.667380	0.159439	-0.114295
O2	O	1.301859	0.174622	-0.114297
O3	O	1.493490	0.001881	-0.114287
O4	O	1.475749	0.332181	-0.114306
O5	O	1.493487	0.001885	0.114293
O6	O	1.301857	0.174627	0.114283
O7	O	1.667377	0.159443	0.114285
Zn8	Zn	1.484617	0.167036	0.150576
Zn9	Zn	1.484620	0.167030	-0.150588
O10	O	1.475747	0.332185	0.114274
C11	C	1.255063	0.173509	-0.000007
C12	C	1.115630	0.170170	-0.000008
C13	C	0.904842	0.268744	-0.000017
C14	C	1.035855	0.271882	-0.000017
C15	C	1.064386	0.065313	-0.000012
C16	C	0.933376	0.062177	-0.000022
C17	C	0.888371	0.388005	-0.000013
C18	C	1.019384	0.391143	-0.000014
C19	C	1.492374	-0.040411	0.000003
C20	C	1.489039	-0.166432	0.000002
C21	C	1.482905	-0.397158	-0.000021
C22	C	1.486313	-0.268765	-0.000009
C23	C	1.714173	0.160557	-0.000008
C24	C	1.853607	0.163896	-0.000017
C25	C	1.476862	0.374476	-0.000019
C26	C	1.480198	0.500498	-0.000026
N27	N	1.484624	0.167039	0.356112
N28	N	1.484622	0.167018	-0.356125
C29	C	1.569500	0.090575	0.428043
C30	C	1.569497	0.090561	0.571926
C31	C	1.399737	0.243485	0.571935
C32	C	1.399736	0.243493	0.428054
C33	C	1.667513	0.002289	0.428039
C34	C	1.667509	0.002275	0.571922
H35	H	0.846500	0.432946	-0.095673
Br36	Br	1.284524	0.347247	0.330430
H37	H	1.048612	0.437769	0.095655
Br38	Br	1.819347	0.048386	0.353642
H39	H	1.637230	-0.080167	0.616542
H40	H	1.763966	0.021724	0.610972
H41	H	1.054911	0.429122	-0.098713
H42	H	0.891666	-0.023201	-0.000040
H43	H	1.330623	0.305731	0.630525
Br44	Br	1.632188	-0.143114	0.362941
H45	H	0.842618	0.424039	0.098676
Br46	Br	1.172651	-0.072727	-0.000021
