data_functionalizedCrystal
_audit_creation_method	'MofGen! by Chris Wilmer'
_symmetry_space_group_name_H-M	'P1'
_symmetry_Int_Tables_number	1
_symmetry_cell_setting	triclinic
loop_
_symmetry_equiv_pos_as_xyz
  x,y,z
_cell_length_a	12.759394
_cell_length_b	12.759401
_cell_length_c	12.759393
_cell_angle_alpha	89.979541
_cell_angle_beta	89.969416
_cell_angle_gamma	90.016362
loop_
_atom_site_label
_atom_site_type_symbol
_atom_site_fract_x
_atom_site_fract_y
_atom_site_fract_z
Zn1	Zn	-0.418180	1.606260	-0.594015
Zn2	Zn	-0.593893	1.606153	-0.418333
Zn3	Zn	-0.418233	1.430561	-0.418350
Zn4	Zn	-0.593822	1.430551	-0.593970
O5	O	-0.506032	1.518381	-0.506167
O6	O	-0.441496	1.753267	-0.570722
O7	O	-0.570644	1.582819	-0.271314
O8	O	-0.271205	1.453917	-0.441678
O9	O	-0.570592	1.753188	-0.441649
O10	O	-0.271166	1.583003	-0.570739
O11	O	-0.441588	1.453812	-0.271327
O12	O	-0.441518	1.283538	-0.441635
O13	O	-0.570470	1.453900	-0.740997
O14	O	-0.570522	1.283531	-0.570662
O15	O	-0.441426	1.582993	-0.741030
O16	O	-0.740905	1.582809	-0.441605
O17	O	-0.740852	1.453795	-0.570645
C18	C	-0.506019	1.245414	-0.506146
C19	C	-0.506039	1.128637	-0.506162
C20	C	-0.573314	1.073799	-0.573241
C21	C	-0.573318	0.964075	-0.573262
C22	C	-0.438769	0.964037	-0.439116
C23	C	-0.438761	1.073759	-0.439101
C24	C	-0.779000	1.518318	-0.506141
C25	C	-0.895776	1.518387	-0.506166
C26	C	-0.895777	1.652830	-0.371897
C27	C	-0.950639	1.720079	-0.304775
C28	C	-1.060360	1.720141	-0.304804
C29	C	-1.115223	1.652948	-0.371964
C30	C	-1.060362	1.585699	-0.439086
C31	C	-0.950638	1.585643	-0.439048
C32	C	-1.060360	1.451263	-0.573358
C33	C	-0.950639	1.451195	-0.573326
C34	C	-1.115223	1.384071	-0.640518
C35	C	-1.060362	1.316815	-0.707636
C36	C	-0.950633	1.316755	-0.707604
C37	C	-0.895777	1.383946	-0.640448
C38	C	-0.231999	1.518473	-0.506215
C39	C	-0.115222	1.518512	-0.506236
C40	C	-0.505934	1.518457	-0.780200
C41	C	-0.505892	1.518490	-0.896977
C42	C	-0.506046	1.792414	-0.506188
C43	C	-0.506051	1.909191	-0.506198
C44	C	-0.573014	1.585691	-1.061568
C45	C	-0.573064	1.585666	-0.951844
C46	C	-0.438675	1.451328	-0.951840
C47	C	-0.438631	1.451349	-1.061562
C48	C	-0.506054	1.518365	-0.233200
C49	C	-0.505799	1.518536	-0.116423
H50	H	-0.806436	1.652773	-0.371854
C51	C	-0.379060	1.391655	-0.783641
C52	C	-0.364835	1.377488	-0.891533
H53	H	-0.333466	1.346074	-0.746414
H54	H	-0.449647	1.376246	-0.765650
H55	H	-0.363696	1.462252	-0.765687
H56	H	-0.380207	1.306893	-0.909488
H57	H	-0.294232	1.392890	-0.909531
H58	H	-0.627708	1.640399	-1.106233
H59	H	-0.806436	1.383897	-0.640408
C60	C	-0.827141	1.302032	-0.848884
C61	C	-0.890332	1.242835	-0.781391
H62	H	-0.789922	1.256395	-0.894441
H63	H	-0.778767	1.342023	-0.808884
H64	H	-0.869884	1.347813	-0.889113
H65	H	-0.847588	1.197059	-0.741156
H66	H	-0.938712	1.202826	-0.821395
H67	H	-0.905960	1.774789	-0.250096
H68	H	-0.383895	1.396658	-1.106227
C69	C	-1.272503	1.284220	-0.613723
C70	C	-1.235831	1.384135	-0.640562
H71	H	-1.346961	1.284258	-0.613760
H72	H	-1.247762	1.266078	-0.545907
H73	H	-1.247668	1.234564	-0.663315
H74	H	-1.260659	1.433790	-0.590966
H75	H	-1.260582	1.402289	-0.708388
C76	C	-0.705884	1.718464	-0.962876
C77	C	-0.646944	1.659490	-0.891547
H78	H	-0.751492	1.764045	-0.925649
H79	H	-0.746051	1.672686	-1.005658
H80	H	-0.660079	1.758671	-1.005685
H81	H	-0.692749	1.619277	-0.848743
H82	H	-0.606774	1.705273	-0.848747
C83	C	-0.305771	0.975021	-0.306521
C84	C	-0.364826	0.903712	-0.365398
H85	H	-0.260119	0.937779	-0.261013
H86	H	-0.351493	1.017786	-0.266251
H87	H	-0.265637	1.017848	-0.352372
H88	H	-0.404966	0.860890	-0.319546
H89	H	-0.319098	0.860929	-0.405671
H90	H	-1.105039	1.262117	-0.762317
C91	C	-1.094039	1.898086	-0.253776
C92	C	-1.120665	1.794064	-0.231023
H93	H	-1.131264	1.943721	-0.208221
H94	H	-1.111956	1.913430	-0.324375
H95	H	-1.020840	1.907654	-0.244143
H96	H	-1.193864	1.784494	-0.240662
H97	H	-1.102755	1.778714	-0.160407
C98	C	-0.706296	1.062811	-0.705850
C99	C	-0.647252	1.134122	-0.646965
H100	H	-0.751937	1.100052	-0.751372
H101	H	-0.746433	1.019989	-0.660013
H102	H	-0.660559	1.020042	-0.746116
H103	H	-0.692990	1.176887	-0.606693
H104	H	-0.607112	1.176962	-0.692808
C105	C	-1.272282	1.752983	-0.398872
C106	C	-1.235831	1.653028	-0.372000
H107	H	-1.346741	1.753032	-0.398888
H108	H	-1.247389	1.771091	-0.466672
H109	H	-1.247449	1.802614	-0.349267
H110	H	-1.260657	1.603398	-0.421609
H111	H	-1.260734	1.634908	-0.304190
C112	C	-0.588099	0.840763	-0.714582
C113	C	-0.647270	0.903798	-0.646996
H114	H	-0.633757	0.803557	-0.760109
H115	H	-0.548048	0.792378	-0.674648
H116	H	-0.542375	0.883611	-0.754839
H117	H	-0.692988	0.860949	-0.606734
H118	H	-0.687338	0.952189	-0.686935
H119	H	-0.383971	1.118409	-0.384478
