data_functionalizedCrystal
_audit_creation_method	'MofGen! by Chris Wilmer'
_symmetry_space_group_name_H-M	'P1'
_symmetry_Int_Tables_number	1
_symmetry_cell_setting	triclinic
loop_
_symmetry_equiv_pos_as_xyz
  x,y,z
_cell_length_a	10.723024
_cell_length_b	10.723024
_cell_length_c	9.798715
_cell_angle_alpha	89.998022
_cell_angle_beta	89.996609
_cell_angle_gamma	84.467869
loop_
_atom_site_label
_atom_site_type_symbol
_atom_site_fract_x
_atom_site_fract_y
_atom_site_fract_z
O1	O	1.657187	0.175024	-0.113478
O2	O	2.157187	0.675024	0.386522
O3	O	1.294035	0.191778	-0.113483
O4	O	1.794035	0.691778	0.386517
O5	O	1.483988	0.001825	-0.113475
O6	O	1.983988	0.501825	0.386525
O7	O	1.467234	0.364977	-0.113486
O8	O	1.967234	0.864977	0.386514
O9	O	1.483974	0.001824	0.113507
O10	O	1.983974	0.501824	0.613507
O11	O	1.294021	0.191777	0.113499
O12	O	1.794021	0.691777	0.613499
O13	O	1.657173	0.175024	0.113504
O14	O	2.157173	0.675024	0.613504
Zn15	Zn	1.475595	0.183401	0.149540
Zn16	Zn	1.975595	0.683401	0.649540
Zn17	Zn	1.475613	0.183401	-0.149519
Zn18	Zn	1.975613	0.683401	0.350481
O19	O	1.467220	0.364977	0.113496
O20	O	1.967220	0.864977	0.613496
C21	C	1.247528	0.190558	0.000008
C22	C	1.747528	0.690558	0.500008
C23	C	1.108974	0.186911	0.000006
C24	C	1.608974	0.686911	0.500006
C25	C	1.482762	-0.044675	0.000014
C26	C	1.982762	0.455325	0.500014
C27	C	1.479114	-0.183229	0.000009
C28	C	1.979114	0.316771	0.500009
C29	C	1.033991	0.293198	0.000002
C30	C	1.533991	0.793198	0.500002
C31	C	0.890788	0.289431	0.000001
C32	C	1.390788	0.789431	0.500001
C33	C	1.585401	-0.258212	0.000009
C34	C	2.085401	0.241788	0.500009
C35	C	1.581634	-0.401415	0.000004
C36	C	2.081634	0.098585	0.500004
C37	C	1.703680	0.176243	0.000010
C38	C	2.203680	0.676243	0.500010
C39	C	1.842234	0.179891	0.000003
C40	C	2.342234	0.679891	0.500003
C41	C	1.468447	0.411477	0.000004
C42	C	1.968447	0.911477	0.500004
C43	C	1.472094	0.550031	-0.000000
C44	C	1.972094	1.050031	0.500000
N45	N	1.475591	0.183399	0.353640
N46	N	1.975591	0.683399	0.853640
N47	N	1.475627	0.183393	-0.353619
N48	N	1.975627	0.683393	0.146381
C49	C	1.555347	0.103292	0.421420
C50	C	2.055347	0.603292	0.921420
C51	C	1.555367	0.103288	0.578582
C52	C	2.055367	0.603288	1.078582
H53	H	1.075814	0.386984	0.000007
H54	H	1.575814	0.886984	0.500007
O55	O	0.927569	0.059353	0.000010
O56	O	1.427569	0.559353	0.500010
H57	H	0.870211	-0.021460	0.000003
H58	H	1.370211	0.478540	0.500003
O59	O	1.385176	0.274273	0.430872
O60	O	1.885176	0.774273	0.930872
H61	H	1.287656	0.257801	0.403560
H62	H	1.787656	0.757801	0.903560
O63	O	1.053597	0.062669	0.000018
O64	O	1.553597	0.562669	0.500018
H65	H	0.994945	0.055743	-0.092499
H66	H	1.494945	0.555743	0.407501
H67	H	1.385328	-0.225051	-0.000001
H68	H	1.885328	0.274949	0.499999
H69	H	1.679187	-0.216390	0.000018
H70	H	2.179187	0.283610	0.500018
H71	H	1.672624	-0.465848	0.000009
H72	H	2.172624	0.034152	0.500009
O73	O	1.351549	-0.364645	0.000009
O74	O	1.851549	0.135355	0.500009
H75	H	1.347749	-0.304669	-0.092506
H76	H	1.847749	0.195331	0.407494
H77	H	1.623611	0.034707	0.363100
H78	H	2.123611	0.534707	0.863100
H79	H	1.623654	0.034709	0.636870
H80	H	2.123654	0.534709	1.136870
H81	H	0.826355	0.380421	-0.000008
H82	H	1.326355	0.880421	0.499992
H83	H	1.407345	0.251984	0.588102
H84	H	1.907345	0.751984	1.088102
