data_functionalizedCrystal
_audit_creation_method	'MofGen! by Chris Wilmer'
_symmetry_space_group_name_H-M	'P1'
_symmetry_Int_Tables_number	1
_symmetry_cell_setting	triclinic
loop_
_symmetry_equiv_pos_as_xyz
  x,y,z
_cell_length_a	21.295418
_cell_length_b	21.295417
_cell_length_c	12.645323
_cell_angle_alpha	90.035966
_cell_angle_beta	90.040795
_cell_angle_gamma	90.046319
loop_
_atom_site_label
_atom_site_type_symbol
_atom_site_fract_x
_atom_site_fract_y
_atom_site_fract_z
Zn1	Zn	0.962338	-0.250326	0.599917
Zn2	Zn	0.962245	-0.355604	0.422629
Zn3	Zn	0.857066	-0.250382	0.422602
Zn4	Zn	0.857030	-0.355591	0.599785
O5	O	0.909670	-0.302976	0.511233
O6	O	1.050415	-0.264274	0.576465
O7	O	0.948270	-0.341676	0.274278
O8	O	0.871084	-0.162285	0.446168
O9	O	1.050347	-0.341621	0.446212
O10	O	0.948427	-0.162244	0.576440
O11	O	0.870995	-0.264369	0.274258
O12	O	0.768972	-0.264356	0.446040
O13	O	0.871023	-0.341598	0.748150
O14	O	0.768946	-0.341652	0.576215
O15	O	0.948392	-0.264261	0.748247
O16	O	0.948235	-0.443692	0.446085
O17	O	0.870934	-0.443682	0.576241
C18	C	0.746118	-0.303009	0.511111
C19	C	0.676150	-0.303038	0.511084
C20	C	0.643286	-0.343340	0.578765
C21	C	0.577544	-0.343324	0.578813
C22	C	0.544668	-0.303014	0.511160
C23	C	0.577539	-0.262705	0.443475
C24	C	0.643281	-0.262717	0.443437
N25	N	0.441394	-0.298101	0.418440
N26	N	0.378943	-0.298093	0.418480
C27	C	0.346593	-0.302974	0.511273
N28	N	0.379053	-0.307875	0.604027
N29	N	0.441511	-0.307886	0.603987
C30	C	0.473382	-0.302996	0.511195
C31	C	0.242443	-0.343260	0.579011
C32	C	0.176700	-0.343241	0.579061
C33	C	0.176697	-0.262624	0.443713
C34	C	0.242439	-0.262641	0.443673
C35	C	0.275309	-0.302962	0.511321
C36	C	0.909587	-0.466527	0.511175
C37	C	0.909610	-0.536496	0.511185
C38	C	0.949896	-0.569347	0.443482
C39	C	0.949926	-0.635089	0.443506
C40	C	0.909657	-0.667978	0.511221
C41	C	0.869368	-0.635119	0.578937
C42	C	0.869344	-0.569378	0.578919
N43	N	0.854590	-0.771259	0.519262
N44	N	0.854615	-0.833710	0.519273
C45	C	0.909728	-0.866053	0.511282
N46	N	0.964817	-0.833585	0.503259
N47	N	0.964792	-0.771127	0.503242
C48	C	0.909679	-0.739263	0.511249
C49	C	0.950050	-0.970189	0.443602
C50	C	0.950080	-1.035933	0.443633
C51	C	0.869517	-1.035962	0.579059
C52	C	0.869492	-0.970219	0.579033
C53	C	0.909758	-0.937337	0.511299
C54	C	1.073860	-0.302943	0.511356
C55	C	1.143828	-0.302929	0.511409
C56	C	0.909714	-0.302921	0.787739
C57	C	0.909732	-0.302898	0.905569
C58	C	0.909770	-0.138785	0.511315
C59	C	0.909812	-0.068817	0.511350
C60	C	0.909662	-0.302984	0.235804
C61	C	0.909766	-0.302830	0.117974
C62	C	0.861062	-0.351541	0.950390
C63	C	0.860891	-0.351358	1.072950
C64	C	0.892011	-0.236457	1.073479
C65	C	0.891638	-0.236778	0.950880
C66	C	0.976287	-0.320034	0.950792
C67	C	0.975949	-0.321458	1.073398
H68	H	0.149930	-0.229800	0.388634
N69	N	0.676850	-0.384529	0.647871
N70	N	0.647494	-0.420510	0.708298
H71	H	0.671199	-0.449600	0.757107
H72	H	0.982838	-0.943415	0.388451
N73	N	0.991022	-0.535750	0.374304
N74	N	1.031109	-0.498993	0.411657
H75	H	1.060150	-0.475261	0.362796
H76	H	0.269197	-0.229826	0.388554
H77	H	0.989341	-0.370306	1.102476
N78	N	0.676854	-0.221541	0.374310
N79	N	0.669579	-0.163459	0.381533
H80	H	0.693292	-0.134378	0.332712
H81	H	1.014143	-0.288611	1.104054
H82	H	0.925559	-0.199287	0.921232
H83	H	0.982734	-0.661842	0.388374
H84	H	0.871974	-0.400569	1.103033
N85	N	0.874799	-0.413493	0.913411
N86	N	0.920617	-0.422521	0.853585
H87	H	0.930321	-0.466277	0.827465
N88	N	0.828197	-0.535819	0.648092
N89	N	0.832348	-0.543108	0.745923
H90	H	0.803287	-0.519406	0.794778
N91	N	0.276033	-0.384429	0.648122
N92	N	0.334730	-0.384435	0.648079
H93	H	0.358452	-0.413509	0.696891
N94	N	0.143137	-0.384408	0.648216
N95	N	0.172496	-0.420402	0.708608
H96	H	0.148793	-0.449477	0.757452
H97	H	0.836684	-0.943470	0.634159
N98	N	0.935135	-0.189728	1.110067
N99	N	0.979541	-0.204858	1.169488
H100	H	1.010000	-0.171856	1.195331
H101	H	0.836582	-0.661901	0.634074
H102	H	0.812027	-0.340323	0.919553
N103	N	0.799034	-0.337091	1.109701
N104	N	0.755855	-0.327232	1.044805
H105	H	0.712165	-0.317155	1.070758
H106	H	0.550768	-0.229882	0.388394
H107	H	0.982890	-1.062679	0.388503
H108	H	0.836733	-1.062739	0.634199
N109	N	0.830616	-0.218584	0.914984
N110	N	0.788600	-0.205740	0.980475
H111	H	0.745501	-0.192890	0.955129
N112	N	0.831673	-0.217931	1.111972
N113	N	0.801644	-0.253495	1.172161
H114	H	0.759029	-0.240415	1.199347
H115	H	1.012546	-0.284602	0.921818
N116	N	0.543974	-0.384496	0.647959
N117	N	0.573329	-0.420491	0.708353
H118	H	0.549623	-0.449570	0.757188
N119	N	0.996617	-0.379738	0.911997
N120	N	1.002884	-0.388358	0.814790
H121	H	1.017237	-0.430526	0.787388
