data_functionalizedCrystal
_audit_creation_method	'MofGen! by Chris Wilmer'
_symmetry_space_group_name_H-M	'P1'
_symmetry_Int_Tables_number	1
_symmetry_cell_setting	triclinic
loop_
_symmetry_equiv_pos_as_xyz
  x,y,z
_cell_length_a	14.908571
_cell_length_b	13.897448
_cell_length_c	14.908854
_cell_angle_alpha	86.674879
_cell_angle_beta	90.204386
_cell_angle_gamma	93.284087
loop_
_atom_site_label
_atom_site_type_symbol
_atom_site_fract_x
_atom_site_fract_y
_atom_site_fract_z
Zn1	Zn	1.345320	0.430868	0.587614
Zn2	Zn	1.845320	0.930868	1.087614
Zn3	Zn	1.353898	0.601993	0.437257
Zn4	Zn	1.853898	1.101993	0.937257
Zn5	Zn	1.203630	0.431962	0.428608
Zn6	Zn	1.703630	0.931962	0.928608
Zn7	Zn	1.194930	0.583367	0.578912
Zn8	Zn	1.694930	1.083367	1.078912
O9	O	1.274445	0.512047	0.508098
O10	O	1.774445	1.012047	1.008098
O11	O	1.472285	0.460905	0.574930
O12	O	1.972285	0.960905	1.074930
O13	O	1.341195	0.587692	0.310283
O14	O	1.841195	1.087692	0.810283
O15	O	1.222477	0.296837	0.449722
O16	O	1.722477	0.796837	0.949722
O17	O	1.478586	0.586630	0.464464
O18	O	1.978586	1.086630	0.964464
O19	O	1.326576	0.296033	0.566543
O20	O	1.826576	0.796033	1.066543
O21	O	1.230794	0.462771	0.303928
O22	O	1.730794	0.962771	0.803928
O23	O	1.076650	0.444709	0.441284
O24	O	1.576650	0.944709	0.941284
O25	O	1.207649	0.554884	0.705893
O26	O	1.707649	1.054884	1.205893
O27	O	1.070258	0.555945	0.551712
O28	O	1.570258	1.055945	1.051712
O29	O	1.318140	0.442844	0.712287
O30	O	1.818140	0.942844	1.212287
O31	O	1.332759	0.734502	0.456026
O32	O	1.832759	1.234502	0.956026
O33	O	1.215966	0.720817	0.560099
O34	O	1.715966	1.220817	1.060099
C35	C	1.040828	0.498425	0.494616
C36	C	1.540828	0.998425	0.994616
C37	C	0.940885	0.492620	0.488869
C38	C	1.440885	0.992620	0.988869
C39	C	0.746482	0.597742	0.592905
C40	C	1.246482	1.097742	1.092905
C41	C	0.652577	0.592290	0.587509
C42	C	1.152577	1.092290	1.087509
C43	C	0.659166	0.476259	0.472686
C44	C	1.159166	0.976259	0.972686
C45	C	0.753072	0.481711	0.478082
C46	C	1.253072	0.981711	0.978082
C47	C	0.796727	0.542456	0.538193
C48	C	1.296727	1.042456	1.038193
C49	C	0.890634	0.547912	0.543584
C50	C	1.390634	1.047912	1.043584
C51	C	0.897222	0.431877	0.428766
C52	C	1.397222	0.931877	0.928766
C53	C	0.803316	0.426425	0.423370
C54	C	1.303316	0.926425	0.923370
C55	C	1.274372	0.762659	0.508078
C56	C	1.774372	1.262659	1.008078
C57	C	1.274422	0.869874	0.508104
C58	C	1.774422	1.369874	1.008104
C59	C	1.274506	1.066170	0.508174
C60	C	1.774506	1.566170	1.008174
C61	C	1.274457	0.956937	0.508138
C62	C	1.774457	1.456937	1.008138
C63	C	1.508973	0.525723	0.521633
C64	C	2.008973	1.025723	1.021633
C65	C	1.608915	0.531551	0.527401
C66	C	2.108915	1.031551	1.027401
C67	C	1.260967	0.496664	0.742628
C68	C	1.760967	0.996664	1.242628
C69	C	1.255224	0.490108	0.842571
C70	C	1.755224	0.990108	1.342571
C71	C	1.274532	1.260457	0.508149
C72	C	1.774532	1.760457	1.008149
C73	C	1.274549	1.153241	0.508196
C74	C	1.774549	1.653241	1.008196
C75	C	1.287921	0.527305	0.274483
C76	C	1.787921	1.027305	0.774483
C77	C	1.293839	0.533599	0.174550
C78	C	1.793839	1.033599	0.674550
C79	C	1.359413	0.607868	1.036994
C80	C	1.859413	1.107868	1.536994
C81	C	1.354019	0.601712	1.130900
C82	C	1.854019	1.101712	1.630900
C83	C	1.239049	0.471635	1.124289
C84	C	1.739049	0.971635	1.624289
C85	C	1.244442	0.477792	1.030384
C86	C	1.744442	0.977792	1.530384
C87	C	1.304625	0.545911	0.986740
C88	C	1.804625	1.045911	1.486740
C89	C	1.310014	0.552072	0.892832
C90	C	1.810014	1.052072	1.392832
C91	C	1.195048	0.421991	0.886223
C92	C	1.695048	0.921991	1.386223
C93	C	1.189655	0.415835	0.980129
C94	C	1.689655	0.915835	1.480129
H95	H	0.782027	0.647208	0.641845
H96	H	1.282027	1.147208	1.141845
O97	O	1.141864	0.361663	0.837505
O98	O	1.641864	0.861663	1.337505
C99	C	1.160242	0.265166	0.861581
C100	C	1.660242	0.765166	1.361581
H101	H	1.190894	0.260705	0.931756
H102	H	1.690894	0.760705	1.431756
H103	H	1.095177	0.217926	0.861058
H104	H	1.595177	0.717926	1.361058
H105	H	1.209514	0.238838	0.811399
H106	H	1.709514	0.738838	1.311399
H107	H	1.359022	0.607534	0.857299
H108	H	1.859022	1.107534	1.357299
O109	O	0.932996	0.606800	0.602101
O110	O	1.432996	1.106800	1.102101
C111	C	0.904905	0.578660	0.690429
C112	C	1.404905	1.078660	1.190429
H113	H	0.878837	0.499805	0.693599
H114	H	1.378837	0.999805	1.193599
H115	H	0.964118	0.587710	0.738390
H116	H	1.464118	1.087710	1.238390
H117	H	0.849047	0.625708	0.710724
H118	H	1.349047	1.125708	1.210724
H119	H	1.398634	0.652162	1.171814
H120	H	1.898634	1.152162	1.671814
O121	O	0.603906	0.646091	0.640693
O122	O	1.103906	1.146091	1.140693
C123	C	0.662578	0.700850	0.694921
C124	C	1.162578	1.200850	1.194921
H125	H	0.731623	0.710436	0.661931
H126	H	1.231623	1.210436	1.161931
H127	H	0.634890	0.774666	0.702842
H128	H	1.134890	1.274666	1.202842
H129	H	0.668662	0.661730	0.763838
H130	H	1.168662	1.161730	1.263838
O131	O	0.616609	0.417301	0.414352
O132	O	1.116609	0.917301	0.914352
C133	C	0.522949	0.424308	0.421362
C134	C	1.022949	0.924308	0.921362
H135	H	0.508430	0.496145	0.449920
H136	H	1.008430	0.996145	0.949920
H137	H	0.491090	0.419944	0.351985
H138	H	0.991090	0.919944	0.851985
H139	H	0.493593	0.362501	0.467848
H140	H	0.993593	0.862501	0.967848
H141	H	1.190057	0.416170	1.159841
H142	H	1.690057	0.916170	1.659841
H143	H	1.140658	0.360371	1.015677
H144	H	1.640658	0.860371	1.515677
H145	H	0.767759	0.376965	0.374432
H146	H	1.267759	0.876965	0.874432
O147	O	0.945995	0.378273	0.375484
O148	O	1.445995	0.878273	0.875484
C149	C	0.928151	0.403739	0.284516
C150	C	1.428151	0.903739	0.784516
H151	H	0.902591	0.479597	0.278376
H152	H	1.402591	0.979597	0.778376
H153	H	0.992447	0.401857	0.243650
H154	H	1.492447	0.901857	0.743650
H155	H	0.874990	0.350359	0.257963
H156	H	1.374990	0.850359	0.757963
O157	O	1.417939	0.674070	0.994737
O158	O	1.917939	1.174070	1.494737
C159	C	1.465117	0.727461	1.059229
C160	C	1.965117	1.227461	1.559229
H161	H	1.464410	0.683745	1.126355
H162	H	1.964410	1.183745	1.626355
H163	H	1.537513	0.743671	1.036177
H164	H	2.037513	1.243671	1.536177
H165	H	1.431580	0.798138	1.067306
H166	H	1.931580	1.298138	1.567306
