data_functionalizedCrystal
_audit_creation_method	'MofGen! by Chris Wilmer'
_symmetry_space_group_name_H-M	'P1'
_symmetry_Int_Tables_number	1
_symmetry_cell_setting	triclinic
loop_
_symmetry_equiv_pos_as_xyz
  x,y,z
_cell_length_a	10.654550
_cell_length_b	10.540539
_cell_length_c	9.730223
_cell_angle_alpha	90.000775
_cell_angle_beta	89.996251
_cell_angle_gamma	84.505197
loop_
_atom_site_label
_atom_site_type_symbol
_atom_site_fract_x
_atom_site_fract_y
_atom_site_fract_z
O1	O	1.667897	0.178295	-0.114396
O2	O	1.302424	0.195282	-0.114373
O3	O	1.493499	0.002079	-0.114383
O4	O	1.476822	0.371498	-0.114386
O5	O	1.493496	0.002084	0.114197
O6	O	1.302422	0.195287	0.114207
O7	O	1.667895	0.178300	0.114184
Zn8	Zn	1.485158	0.186794	0.150487
Zn9	Zn	1.485161	0.186788	-0.150677
O10	O	1.476820	0.371503	0.114194
C11	C	1.255625	0.194038	-0.000080
C12	C	1.116180	0.190306	-0.000072
C13	C	1.036734	0.304061	-0.000093
C14	C	0.905712	0.300547	-0.000116
C15	C	0.933595	0.069513	-0.000104
C16	C	1.064614	0.073028	-0.000071
C17	C	1.020636	0.437446	-0.000106
C18	C	0.889614	0.433932	-0.000129
C19	C	1.492247	-0.045221	-0.000096
C20	C	1.488505	-0.186168	-0.000103
C21	C	1.345134	-0.369543	-0.000607
C22	C	1.348927	-0.222926	-0.000093
C23	C	1.555675	-0.247847	0.130423
C24	C	1.550912	-0.394389	0.130533
C25	C	1.553753	-0.394914	-0.129405
C26	C	1.555039	-0.247933	-0.131131
C27	C	1.714694	0.179545	-0.000112
C28	C	1.854139	0.183276	-0.000129
C29	C	1.478072	0.418803	-0.000096
C30	C	1.481813	0.559750	-0.000098
N31	N	1.485165	0.186798	0.356024
N32	N	1.485164	0.186774	-0.356213
C33	C	1.569795	0.101277	0.427945
C34	C	1.569791	0.101261	0.571828
C35	C	1.400525	0.272299	0.571855
C36	C	1.400523	0.272308	0.427975
C37	C	1.667523	0.002533	0.427931
C38	C	1.667520	0.002518	0.571814
H39	H	1.056307	0.479916	-0.098793
O40	O	1.059519	0.506551	0.126608
H41	H	1.163398	0.509307	0.126543
O42	O	0.829126	0.487334	0.130582
H43	H	0.779498	0.412645	0.182267
H44	H	1.331600	0.341935	0.369418
O45	O	1.687294	-0.457521	-0.130599
H46	H	1.702416	-0.520628	-0.039598
H47	H	1.505891	-0.207059	-0.227690
H48	H	1.501268	-0.422569	0.228111
O49	O	1.309244	0.364536	0.649458
H50	H	1.323466	0.350170	0.761591
H51	H	1.656802	-0.223748	-0.139019
H52	H	0.891593	-0.025971	-0.000125
O53	O	1.639062	-0.126701	0.376181
H54	H	1.625116	-0.189976	0.464953
H55	H	0.847900	0.484188	-0.095797
O56	O	1.795358	0.031355	0.623541
H57	H	1.795274	0.031320	0.737613
O58	O	1.278894	-0.166451	-0.124010
H59	H	1.242003	-0.243856	-0.184842
O60	O	1.788326	0.043475	0.368810
H61	H	1.766640	0.129855	0.304641
H62	H	1.636975	-0.089689	0.616432
O63	O	1.278450	-0.167584	0.124079
H64	H	1.179093	-0.190783	0.119549
O65	O	1.150308	-0.049662	-0.000024
H66	H	1.092436	-0.131798	-0.000038
H67	H	1.289998	-0.398125	-0.094209
O68	O	1.272387	-0.409498	0.122701
H69	H	1.333156	-0.479496	0.184350
H70	H	1.651295	-0.442394	0.136449
H71	H	1.658178	-0.225529	0.135270
H72	H	1.509014	-0.205228	0.227563
H73	H	1.508579	-0.426453	-0.228336
