data_functionalizedCrystal
_audit_creation_method	'MofGen! by Chris Wilmer'
_symmetry_space_group_name_H-M	'P1'
_symmetry_Int_Tables_number	1
_symmetry_cell_setting	triclinic
loop_
_symmetry_equiv_pos_as_xyz
  x,y,z
_cell_length_a	10.654550
_cell_length_b	7.540329
_cell_length_c	10.654550
_cell_angle_alpha	89.997570
_cell_angle_beta	95.515097
_cell_angle_gamma	90.006486
loop_
_atom_site_label
_atom_site_type_symbol
_atom_site_fract_x
_atom_site_fract_y
_atom_site_fract_z
O1	O	1.667839	0.147623	-0.176397
O2	O	1.302360	0.147595	-0.193203
O3	O	1.493502	0.147603	-0.002061
O4	O	1.476696	0.147615	-0.367539
O5	O	1.493491	-0.147362	-0.002058
O6	O	1.302349	-0.147370	-0.193201
O7	O	1.667827	-0.147342	-0.176394
Cu8	Cu	1.485087	-0.174289	-0.184797
Cu9	Cu	1.485100	0.174542	-0.184800
O10	O	1.476685	-0.147350	-0.367537
C11	C	1.255556	0.000108	-0.191968
C12	C	1.116113	0.000097	-0.188276
N13	N	1.485086	-0.419637	-0.184795
C14	C	1.036627	0.000127	-0.300817
C15	C	0.905607	0.000157	-0.297341
C16	C	0.933570	0.000136	-0.068771
C17	C	1.064588	0.000093	-0.072249
C18	C	1.020482	0.000147	-0.432780
C19	C	0.889461	0.000177	-0.429304
C20	C	1.714631	0.000149	-0.177630
C21	C	1.854074	0.000171	-0.181321
C22	C	1.492263	0.000123	0.044739
C23	C	1.488571	0.000129	0.184182
N24	N	1.485111	0.419890	-0.184793
C25	C	1.477925	0.000134	-0.414336
C26	C	1.481616	0.000140	-0.553779
C27	C	1.601112	0.000132	0.263668
C28	C	1.597636	0.000144	0.394688
C29	C	1.369066	0.000142	0.366725
C30	C	1.372544	0.000142	0.235707
C31	C	1.733075	0.000126	0.279813
C32	C	1.729599	0.000138	0.410834
H33	H	0.891602	0.000160	0.025694
H34	H	0.847733	0.123631	-0.479026
C35	C	1.250217	0.000064	0.149616
C36	C	1.147868	0.000026	0.222787
C37	C	1.035157	-0.000069	0.143524
H38	H	1.246656	0.102897	0.097896
H39	H	1.246741	-0.102838	0.097946
H40	H	1.151343	0.102918	0.274436
H41	H	1.151388	-0.102799	0.274505
H42	H	1.031680	-0.102971	0.091853
H43	H	1.031608	0.102765	0.091808
H44	H	0.965700	-0.000111	0.193158
H45	H	1.056142	0.127497	-0.474800
H46	H	0.843785	-0.127166	-0.469183
H47	H	1.274601	0.000155	0.408693
H48	H	1.049808	-0.123301	-0.484390
H49	H	1.129302	0.000044	0.019393
H50	H	1.784695	0.123564	0.250454
C51	C	1.788839	-0.169998	0.232507
C52	C	1.822298	-0.282664	0.334728
C53	C	1.873521	-0.439491	0.291179
H54	H	1.728164	-0.227094	0.175017
H55	H	1.861585	-0.142857	0.191130
H56	H	1.749562	-0.309808	0.376085
H57	H	1.882984	-0.225624	0.392228
H58	H	1.946267	-0.412349	0.249802
H59	H	1.812841	-0.496570	0.233689
H60	H	1.896240	-0.515946	0.360530
H61	H	1.769485	0.127499	0.456476
H62	H	1.779316	-0.123298	0.452595
