data_functionalizedCrystal
_audit_creation_method	'MofGen! by Chris Wilmer'
_symmetry_space_group_name_H-M	'P1'
_symmetry_Int_Tables_number	1
_symmetry_cell_setting	triclinic
loop_
_symmetry_equiv_pos_as_xyz
  x,y,z
_cell_length_a	16.109301
_cell_length_b	16.109301
_cell_length_c	15.186229
_cell_angle_alpha	90.000293
_cell_angle_beta	90.002891
_cell_angle_gamma	83.461532
loop_
_atom_site_label
_atom_site_type_symbol
_atom_site_fract_x
_atom_site_fract_y
_atom_site_fract_z
O1	O	1.103134	0.106862	0.073173
O2	O	1.603134	0.606862	0.573173
O3	O	0.861072	0.120161	0.073187
O4	O	1.361072	0.620161	0.573187
O5	O	0.988753	-0.007520	0.073174
O6	O	1.488753	0.492480	0.573174
O7	O	0.975453	0.234542	0.073186
O8	O	1.475453	0.734542	0.573186
O9	O	0.988738	-0.007513	-0.073284
O10	O	1.488738	0.492487	0.426716
O11	O	0.861057	0.120168	-0.073270
O12	O	1.361057	0.620168	0.426730
O13	O	1.103119	0.106869	-0.073284
O14	O	1.603119	0.606869	0.426716
Zn15	Zn	0.982086	0.113520	-0.096531
Zn16	Zn	1.482086	0.613520	0.403469
Zn17	Zn	0.982105	0.113510	0.096433
Zn18	Zn	1.482105	0.613510	0.596433
O19	O	0.975438	0.234549	-0.073271
O20	O	1.475438	0.734549	0.426729
C21	C	0.830090	0.119626	-0.000040
C22	C	1.330090	0.619626	0.499960
C23	C	0.737794	0.118011	-0.000035
C24	C	1.237794	0.618011	0.499965
C25	C	0.988206	-0.038491	-0.000055
C26	C	1.488206	0.461509	0.499945
C27	C	0.986591	-0.130786	-0.000053
C28	C	1.486591	0.369214	0.499947
C29	C	1.057074	-0.439785	-0.000042
C30	C	1.557074	0.060215	0.499958
C31	C	1.058600	-0.353064	-0.000047
C32	C	1.558600	0.146936	0.499953
C33	C	0.907111	-0.333191	-0.000050
C34	C	1.407111	0.166809	0.499950
C35	C	0.905586	-0.419910	-0.000051
C36	C	1.405586	0.080090	0.499949
C37	C	0.980571	-0.473205	-0.000043
C38	C	1.480571	0.026795	0.499957
C39	C	0.983620	-0.299766	-0.000047
C40	C	1.483620	0.200234	0.499953
C41	C	0.985274	-0.205740	-0.000052
C42	C	1.485274	0.294260	0.499948
C43	C	0.978917	-0.567237	-0.000039
C44	C	1.478917	-0.067237	0.499961
C45	C	0.515522	0.190018	-0.000041
C46	C	1.015522	0.690018	0.499959
C47	C	0.428802	0.188494	-0.000047
C48	C	0.928802	0.688494	0.499953
C49	C	0.448676	0.037006	-0.000051
C50	C	0.948676	0.537006	0.499949
C51	C	0.535395	0.038530	-0.000052
C52	C	1.035395	0.538530	0.499948
C53	C	0.568815	0.115039	-0.000042
C54	C	1.068815	0.615039	0.499958
C55	C	0.395376	0.111990	-0.000047
C56	C	0.895376	0.611990	0.499953
C57	C	0.301350	0.110337	-0.000054
C58	C	0.801350	0.610337	0.499946
C59	C	0.662847	0.116693	-0.000038
C60	C	1.162847	0.616693	0.499962
C61	C	1.134101	0.107404	-0.000056
C62	C	1.634101	0.607404	0.499944
C63	C	1.226397	0.109019	-0.000055
C64	C	1.726397	0.609019	0.499945
C65	C	0.975985	0.265521	-0.000041
C66	C	1.475985	0.765521	0.499959
C67	C	0.977600	0.357816	-0.000036
C68	C	1.477600	0.857816	0.499964
N69	N	0.982078	0.113526	-0.228223
N70	N	1.482078	0.613526	0.271777
C71	C	1.032502	0.163954	-0.453946
C72	C	1.532502	0.663954	0.046054
C73	C	1.032511	0.163948	-0.546136
C74	C	1.532511	0.663948	-0.046136
C75	C	0.931693	0.063064	-0.546145
C76	C	1.431693	0.563064	-0.046145
C77	C	0.931689	0.063066	-0.453957
C78	C	1.431689	0.563066	0.046043
C79	C	0.982092	0.113516	-0.407860
C80	C	1.482092	0.613516	0.092140
C81	C	0.982105	0.113507	-0.592238
C82	C	1.482105	0.613507	-0.092238
C83	C	0.982115	0.113501	-0.692194
C84	C	1.482115	0.613501	-0.192194
C85	C	0.982084	0.113521	-0.307897
C86	C	1.482084	0.613521	0.192103
N87	N	0.982119	0.113497	0.228126
N88	N	1.482119	0.613497	0.728126
H89	H	1.120896	-0.325859	-0.000048
H90	H	1.620896	0.174141	0.499952
O91	O	0.834298	-0.281384	0.000106
O92	O	1.334298	0.218616	0.500106
C93	C	0.748132	-0.171909	0.075961
C94	C	1.248132	0.328091	0.575961
C95	C	0.830615	-0.230545	0.075900
C96	C	1.330615	0.269455	0.575900
H97	H	0.745135	-0.130779	0.137224
H98	H	1.245135	0.369221	0.637224
H99	H	0.693156	-0.210651	0.076015
H100	H	1.193156	0.289349	0.576015
H101	H	0.745066	-0.130848	0.014643
H102	H	1.245066	0.369152	0.514643
H103	H	0.833762	-0.271617	0.137207
H104	H	1.333762	0.228383	0.637207
H105	H	0.885551	-0.191753	0.075800
H106	H	1.385551	0.308247	0.575800
H107	H	1.118131	-0.483175	-0.000035
H108	H	1.618131	0.016825	0.499965
H109	H	0.890656	0.021990	-0.583688
H110	H	1.390656	0.521990	-0.083688
O111	O	0.882661	0.014191	-0.409090
O112	O	1.382661	0.514191	0.090910
C113	C	0.770361	0.009381	-0.305066
C114	C	1.270361	0.509381	0.194934
C115	C	0.825838	0.064823	-0.355804
C116	C	1.325838	0.564823	0.144196
H117	H	0.724394	0.050296	-0.261987
H118	H	1.224394	0.550296	0.238013
H119	H	0.811206	-0.036514	-0.261839
H120	H	1.311206	0.463486	0.238161
H121	H	0.734372	-0.026688	-0.353869
H122	H	1.234372	0.473312	0.146131
H123	H	0.861836	0.100945	-0.307066
H124	H	1.361836	0.600945	0.192934
H125	H	0.784948	0.110666	-0.399045
H126	H	1.284948	0.610666	0.100955
H127	H	0.843284	-0.447120	-0.000056
H128	H	1.343284	0.052880	0.499944
H129	H	1.073543	0.205033	-0.416417
H130	H	1.573543	0.705033	0.083583
H131	H	0.421454	-0.025285	-0.000064
H132	H	0.921454	0.474715	0.499936
O133	O	1.081456	0.212867	-0.591041
O134	O	1.581456	0.712867	-0.091041
C135	C	1.126116	0.257608	-0.733055
C136	C	1.626116	0.757608	-0.233055
C137	C	1.070655	0.202153	-0.682312
C138	C	1.570655	0.702153	-0.182312
H139	H	1.117389	0.248979	-0.806857
H140	H	1.617389	0.748979	-0.306857
H141	H	1.194403	0.239090	-0.714983
H142	H	1.694403	0.739090	-0.214983
H143	H	1.107568	0.325864	-0.714882
H144	H	1.607568	0.825864	-0.214882
H145	H	1.089129	0.133882	-0.700458
H146	H	1.589129	0.633882	-0.200458
H147	H	1.002381	0.220742	-0.700388
H148	H	1.502381	0.720742	-0.200388
H149	H	0.542730	0.252317	-0.000040
H150	H	1.042730	0.752317	0.499960
O151	O	0.377152	0.261406	-0.000004
O152	O	0.877152	0.761406	0.499996
C153	C	0.366597	0.411823	-0.000048
C154	C	0.866597	0.911823	0.499952
C155	C	0.425185	0.329309	-0.000074
C156	C	0.925185	0.829309	0.499926
H157	H	0.405408	0.466744	-0.000124
H158	H	0.905408	0.966744	0.499876
H159	H	0.325517	0.414952	0.061257
H160	H	0.825517	0.914952	0.561257
H161	H	0.325482	0.414854	-0.061327
H162	H	0.825482	0.914854	0.438673
H163	H	0.466351	0.326223	0.061163
H164	H	0.966351	0.826223	0.561163
H165	H	0.466208	0.326214	-0.061420
H166	H	0.966208	0.826214	0.438580
H167	H	0.578788	-0.022530	-0.000055
H168	H	1.078788	0.477470	0.499945
