data_functionalizedCrystal
_audit_creation_method	'MofGen! by Chris Wilmer'
_symmetry_space_group_name_H-M	'P1'
_symmetry_Int_Tables_number	1
_symmetry_cell_setting	triclinic
loop_
_symmetry_equiv_pos_as_xyz
  x,y,z
_cell_length_a	12.759400
_cell_length_b	19.805407
_cell_length_c	12.759393
_cell_angle_alpha	89.977368
_cell_angle_beta	89.968436
_cell_angle_gamma	90.014685
loop_
_atom_site_label
_atom_site_type_symbol
_atom_site_fract_x
_atom_site_fract_y
_atom_site_fract_z
Zn1	Zn	-0.418204	1.034811	-0.594097
Zn2	Zn	0.081796	1.534811	-0.094097
Zn3	Zn	-0.593923	1.034743	-0.418417
Zn4	Zn	-0.093923	1.534743	0.081583
Zn5	Zn	-0.418259	0.921620	-0.418424
Zn6	Zn	0.081741	1.421620	0.081576
Zn7	Zn	-0.593842	0.921613	-0.594046
Zn8	Zn	-0.093842	1.421613	-0.094046
O9	O	-0.506057	0.978197	-0.506246
O10	O	-0.006057	1.478197	-0.006246
O11	O	-0.441525	1.129519	-0.570812
O12	O	0.058475	1.629519	-0.070812
O13	O	-0.570678	1.019712	-0.271397
O14	O	-0.070678	1.519712	0.228603
O15	O	-0.271231	0.936666	-0.441752
O16	O	0.228769	1.436666	0.058248
O17	O	-0.570625	1.129469	-0.441740
O18	O	-0.070625	1.629469	0.058260
O19	O	-0.271190	1.019828	-0.570818
O20	O	0.228810	1.519828	-0.070818
O21	O	-0.441618	0.936601	-0.271402
O22	O	0.058382	1.436601	0.228598
O23	O	-0.441539	0.826902	-0.441702
O24	O	0.058461	1.326902	0.058298
O25	O	-0.570486	0.936654	-0.741074
O26	O	-0.070486	1.436654	-0.241074
O27	O	-0.570539	0.826897	-0.570731
O28	O	-0.070539	1.326897	-0.070731
O29	O	-0.441446	1.019821	-0.741112
O30	O	0.058554	1.519821	-0.241112
O31	O	-0.740933	1.019705	-0.441691
O32	O	-0.240933	1.519705	0.058309
O33	O	-0.740874	0.936588	-0.570725
O34	O	-0.240874	1.436588	-0.070725
C35	C	-0.506037	0.802341	-0.506212
C36	C	-0.006037	1.302341	-0.006212
C37	C	-0.506054	0.727109	-0.506223
C38	C	-0.006054	1.227109	-0.006223
C39	C	-0.779024	0.978157	-0.506224
C40	C	-0.279024	1.478157	-0.006224
C41	C	-0.895801	0.978201	-0.506250
C42	C	-0.395801	1.478201	-0.006250
C43	C	-0.950659	1.021528	-0.439137
C44	C	-0.450659	1.521528	0.060863
C45	C	-1.060383	1.021570	-0.439169
C46	C	-0.560383	1.521570	0.060831
C47	C	-1.060381	0.934952	-0.573431
C48	C	-0.560381	1.434952	-0.073431
C49	C	-0.950659	0.934914	-0.573403
C50	C	-0.450659	1.434914	-0.073403
C51	C	-0.950661	1.071534	-0.361618
C52	C	-0.450661	1.571534	0.138382
C53	C	-1.060385	1.071576	-0.361650
C54	C	-0.560385	1.571576	0.138350
C55	C	-0.573325	0.691780	-0.573299
C56	C	-0.073325	1.191780	-0.073299
C57	C	-0.573327	0.621091	-0.573314
C58	C	-0.073327	1.121091	-0.073314
C59	C	-0.506062	0.585733	-0.506246
C60	C	-0.006062	1.085733	-0.006246
C61	C	-0.438783	0.621067	-0.439167
C62	C	0.061217	1.121067	0.060833
C63	C	-0.438777	0.691754	-0.439158
C64	C	0.061223	1.191754	0.060842
C65	C	-0.438806	0.335994	-0.439201
C66	C	0.061194	0.835994	0.060799
C67	C	-0.438820	0.265302	-0.439213
C68	C	0.061180	0.765302	0.060787
C69	C	-0.573356	0.265331	-0.573357
C70	C	-0.073356	0.765331	-0.073357
C71	C	-0.573350	0.336018	-0.573349
C72	C	-0.073350	0.836018	-0.073349
C73	C	-0.506068	0.371346	-0.506274
C74	C	-0.006068	0.871346	-0.006274
C75	C	-0.506065	0.447994	-0.506260
C76	C	-0.006065	0.947994	-0.006260
C77	C	-0.506069	0.509086	-0.506254
C78	C	-0.006069	1.009086	-0.006254
C79	C	-0.232024	0.978256	-0.506291
C80	C	0.267976	1.478256	-0.006291
C81	C	-0.115247	0.978281	-0.506310
C82	C	0.384753	1.478281	-0.006310
C83	C	-0.505951	0.978244	-0.780280
C84	C	-0.005951	1.478244	-0.280280
C85	C	-0.505906	0.978264	-0.897056
C86	C	-0.005906	1.478264	-0.397056
C87	C	-0.506078	1.154739	-0.506281
C88	C	-0.006078	1.654739	-0.006281
C89	C	-0.506087	1.229971	-0.506296
C90	C	-0.006087	1.729971	-0.006296
C91	C	-0.438708	1.021575	-0.951940
C92	C	0.061292	1.521575	-0.451940
C93	C	-0.438670	1.021591	-1.061664
C94	C	0.061330	1.521591	-0.561664
C95	C	-0.573037	0.934984	-1.061612
C96	C	-0.073037	1.434984	-0.561612
C97	C	-0.573068	0.934965	-0.951890
C98	C	-0.073068	1.434965	-0.451890
C99	C	-0.361136	1.071579	-0.951971
C100	C	0.138864	1.571579	-0.451971
C101	C	-0.361098	1.071595	-1.061695
C102	C	0.138902	1.571595	-0.561695
C103	C	-0.506087	0.978188	-0.233279
C104	C	-0.006087	1.478188	0.266721
C105	C	-0.505836	0.978299	-0.116503
C106	C	-0.005836	1.478299	0.383497
H107	H	-0.905994	0.899640	-0.628062
H108	H	-0.405994	1.399640	-0.128062
Br109	Br	-1.134838	0.876210	-0.664567
Br110	Br	-0.634838	1.376210	-0.164567
Br111	Br	-0.347483	0.573082	-0.348155
Br112	Br	0.152517	1.073082	0.151845
Br113	Br	-0.397400	1.158968	-1.111348
Br114	Br	0.102600	1.658968	-0.611348
Br115	Br	-0.664672	0.217382	-0.664388
Br116	Br	-0.164672	0.717382	-0.164388
Br117	Br	-1.110168	1.048239	-0.226013
Br118	Br	-0.610168	1.548239	0.273987
Br119	Br	-0.347470	0.739702	-0.348128
Br120	Br	0.152530	1.239702	0.151872
Br121	Br	-0.664648	0.384000	-0.664366
Br122	Br	-0.164648	0.884000	-0.164366
Br123	Br	-0.664247	0.876170	-0.877407
Br124	Br	-0.164247	1.376170	-0.377407
Br125	Br	-0.225528	1.048207	-0.902362
Br126	Br	0.274472	1.548207	-0.402362
H127	H	-0.390305	1.121361	-0.917940
H128	H	0.109695	1.621361	-0.417940
H129	H	-0.627716	0.899729	-1.106270
H130	H	-0.127716	1.399729	-0.606270
H131	H	-0.283789	1.052839	-1.095741
H132	H	0.216211	1.552839	-0.595741
H133	H	-0.916714	1.052771	-0.284290
H134	H	-0.416714	1.552771	0.215710
Br135	Br	-1.116974	1.154573	-0.410370
Br136	Br	-0.616974	1.654573	0.089630
Br137	Br	-0.900886	1.158875	-0.398045
Br138	Br	-0.400886	1.658875	0.101955
H139	H	-0.628104	0.720563	-0.627910
H140	H	-0.128104	1.220563	-0.127910
H141	H	-0.384029	0.364750	-0.384577
H142	H	0.115971	0.864750	0.115423
H143	H	-0.384038	0.236515	-0.384598
H144	H	0.115962	0.736515	0.115402
H145	H	-0.628107	0.592329	-0.627934
H146	H	-0.128107	1.092329	-0.127934
