data_functionalizedCrystal
_audit_creation_method	'MofGen! by Chris Wilmer'
_symmetry_space_group_name_H-M	'P1'
_symmetry_Int_Tables_number	1
_symmetry_cell_setting	triclinic
loop_
_symmetry_equiv_pos_as_xyz
  x,y,z
_cell_length_a	25.639242
_cell_length_b	25.639240
_cell_length_c	18.101390
_cell_angle_alpha	89.957874
_cell_angle_beta	89.972459
_cell_angle_gamma	90.027658
loop_
_atom_site_label
_atom_site_type_symbol
_atom_site_fract_x
_atom_site_fract_y
_atom_site_fract_z
Zn1	Zn	0.799277	-0.208202	-0.418848
Zn2	Zn	1.299277	0.291798	0.081152
Zn3	Zn	0.799201	-0.295645	-0.294986
Zn4	Zn	1.299201	0.204355	0.205014
Zn5	Zn	0.711845	-0.208218	-0.295003
Zn6	Zn	1.211845	0.291782	0.204997
Zn7	Zn	0.711808	-0.295600	-0.418769
Zn8	Zn	1.211808	0.204400	0.081231
O9	O	0.755533	-0.251916	-0.356901
O10	O	1.255533	0.248084	0.143099
O11	O	0.872432	-0.219814	-0.402444
O12	O	1.372432	0.280186	0.097556
O13	O	0.787596	-0.284074	-0.191356
O14	O	1.287596	0.215926	0.308644
O15	O	0.723490	-0.135051	-0.311471
O16	O	1.223490	0.364949	0.188529
O17	O	0.872376	-0.284058	-0.311443
O18	O	1.372376	0.215942	0.188557
O19	O	0.787727	-0.135039	-0.402459
O20	O	1.287727	0.364961	0.097541
O21	O	0.723416	-0.219841	-0.191368
O22	O	1.223416	0.280159	0.308632
O23	O	0.638675	-0.219797	-0.311394
O24	O	1.138675	0.280203	0.188606
O25	O	0.723428	-0.283981	-0.522412
O26	O	1.223428	0.216019	-0.022412
O27	O	0.638648	-0.283997	-0.402325
O28	O	1.138648	0.216003	0.097675
O29	O	0.787691	-0.219770	-0.522470
O30	O	1.287691	0.280230	-0.022470
O31	O	0.787560	-0.368805	-0.311366
O32	O	1.287560	0.131195	0.188634
O33	O	0.723353	-0.368772	-0.402309
O34	O	1.223353	0.131228	0.097691
C35	C	0.619690	-0.251894	-0.356853
C36	C	1.119690	0.248106	0.143147
C37	C	0.561576	-0.251897	-0.356850
C38	C	1.061576	0.248103	0.143150
C39	C	0.755459	-0.387759	-0.356843
C40	C	1.255459	0.112241	0.143157
C41	C	0.755475	-0.445873	-0.356843
C42	C	1.255475	0.054127	0.143157
C43	C	0.310388	-0.218432	-0.309636
C44	C	0.810388	0.281568	0.190364
C45	C	0.364992	-0.218427	-0.309626
C46	C	0.864992	0.281573	0.190374
O47	O	0.393233	-0.189943	-0.269442
O48	O	0.893233	0.310057	0.230558
N49	N	0.392302	-0.251904	-0.356887
N50	N	0.892302	0.248096	0.143113
C51	C	0.365005	-0.285384	-0.404166
C52	C	0.865005	0.214616	0.095834
O53	O	0.393248	-0.313858	-0.444365
O54	O	0.893248	0.186142	0.055635
C55	C	0.310402	-0.285386	-0.404179
C56	C	0.810402	0.214614	0.095821
C57	C	0.283095	-0.251911	-0.356909
C58	C	0.783095	0.248089	0.143091
C59	C	0.283081	-0.184959	-0.262371
C60	C	0.783081	0.315041	0.237629
C61	C	0.228480	-0.184965	-0.262380
C62	C	0.728480	0.315035	0.237620
C63	C	0.201187	-0.218443	-0.309653
C64	C	0.701187	0.281557	0.190347
C65	C	0.228494	-0.251916	-0.356918
C66	C	0.728494	0.248084	0.143082
C67	C	0.283105	-0.318863	-0.451461
C68	C	0.783105	0.181137	0.048539
C69	C	0.228498	-0.318862	-0.451470
C70	C	0.728498	0.181138	0.048530
C71	C	0.201191	-0.285386	-0.404200
C72	C	0.701191	0.214614	0.095800
C73	C	0.146600	-0.285401	-0.404200
C74	C	0.646600	0.214599	0.095800
N75	N	0.119290	-0.251924	-0.356939
N76	N	0.619290	0.248076	0.143061
C77	C	0.146583	-0.218445	-0.309666
C78	C	0.646583	0.281555	0.190334
C79	C	0.479676	-0.285377	-0.404137
C80	C	0.979676	0.214623	0.095863
C81	C	0.534278	-0.285378	-0.404121
C82	C	1.034278	0.214622	0.095879
C83	C	0.534261	-0.218421	-0.309582
C84	C	1.034261	0.281579	0.190418
C85	C	0.479658	-0.218422	-0.309595
C86	C	0.979658	0.281578	0.190405
C87	C	0.452366	-0.251900	-0.356876
C88	C	0.952366	0.248100	0.143124
C89	C	0.031918	-0.218460	-0.309687
C90	C	0.531918	0.281540	0.190313
C91	C	-0.022687	-0.218470	-0.309698
C92	C	0.477313	0.281530	0.190302
C93	C	-0.022666	-0.285426	-0.404239
C94	C	0.477334	0.214574	0.095761
C95	C	0.031935	-0.285418	-0.404226
C96	C	0.531935	0.214582	0.095774
C97	C	0.059226	-0.251930	-0.356947
C98	C	0.559226	0.248070	0.143053
O99	O	0.118324	-0.313869	-0.444367
O100	O	0.618324	0.186131	0.055633
O101	O	0.118334	-0.189971	-0.269481
O102	O	0.618334	0.310029	0.230519
C103	C	0.788997	-0.806191	-0.404365
C104	C	1.288997	-0.306191	0.095635
C105	C	0.789013	-0.860796	-0.404380
C106	C	1.289013	-0.360796	0.095620
O107	O	0.817427	-0.888994	-0.444724
O108	O	1.317427	-0.388994	0.055276
N109	N	0.755605	-0.888155	-0.356973
N110	N	1.255605	-0.388155	0.143027
C111	C	0.722176	-0.860908	-0.309554
C112	C	1.222176	-0.360908	0.190446
O113	O	0.693762	-0.889194	-0.269232
O114	O	1.193762	-0.389194	0.230768
C115	C	0.722159	-0.806305	-0.309543
C116	C	1.222159	-0.306305	0.190457
C117	C	0.755572	-0.778948	-0.356947
C118	C	1.255572	-0.278948	0.143053
C119	C	0.822407	-0.778834	-0.451766
C120	C	1.322407	-0.278834	0.048234
C121	C	0.822393	-0.724234	-0.451749
C122	C	1.322393	-0.224234	0.048251
C123	C	0.788967	-0.696990	-0.404332
C124	C	1.288967	-0.196990	0.095668
C125	C	0.755557	-0.724347	-0.356931
C126	C	1.255557	-0.224347	0.143069
C127	C	0.688728	-0.779058	-0.262128
C128	C	1.188728	-0.279058	0.237872
C129	C	0.688713	-0.724451	-0.262121
C130	C	1.188713	-0.224451	0.237879
C131	C	0.722126	-0.697094	-0.309526
C132	C	1.222126	-0.197094	0.190474
C133	C	0.722117	-0.642503	-0.309497
C134	C	1.222117	-0.142503	0.190503
N135	N	0.755525	-0.615143	-0.356904
N136	N	1.255525	-0.115143	0.143096
C137	C	0.788950	-0.642387	-0.404321
C138	C	1.288950	-0.142387	0.095679
C139	C	0.722215	-0.975579	-0.309581
C140	C	1.222215	-0.475579	0.190419
C141	C	0.722235	-1.030181	-0.309587
C142	C	1.222235	-0.530181	0.190413
C143	C	0.789071	-1.030065	-0.404414
C144	C	1.289071	-0.530065	0.095586
C145	C	0.789053	-0.975462	-0.404404
C146	C	1.289053	-0.475462	0.095596
C147	C	0.755623	-0.948219	-0.356987
C148	C	1.255623	-0.448219	0.143013
C149	C	0.788916	-0.527722	-0.404283
C150	C	1.288916	-0.027722	0.095717
C151	C	0.788900	-0.473117	-0.404261
C152	C	1.288900	0.026883	0.095739
C153	C	0.722063	-0.473238	-0.309437
C154	C	1.222063	0.026762	0.190563
C155	C	0.722081	-0.527838	-0.309456
C156	C	1.222081	-0.027838	0.190544
C157	C	0.755509	-0.555079	-0.356885
C158	C	1.255509	-0.055079	0.143115
O159	O	0.693716	-0.614270	-0.269176
O160	O	1.193716	-0.114270	0.230824
O161	O	0.817355	-0.614095	-0.444643
O162	O	1.317355	-0.114095	0.055357
C163	C	0.891906	-0.251939	-0.356950
C164	C	1.391906	0.248061	0.143050
C165	C	0.950020	-0.251949	-0.356971
C166	C	1.450020	0.248051	0.143029
C167	C	0.755564	-0.251869	-0.550063
C168	C	1.255564	0.248131	-0.050063
C169	C	0.755577	-0.251848	-0.632378
C170	C	1.255577	0.248152	-0.132378
C171	C	0.755621	-0.115543	-0.356976
C172	C	1.255621	0.384457	0.143024
C173	C	0.755659	-0.057429	-0.357008
C174	C	1.255659	0.442571	0.142992
C175	C	0.755605	-0.251816	-0.931469
C176	C	1.255605	0.248184	-0.431469
C177	C	0.796171	-0.211558	-0.900180
C178	C	1.296171	0.288442	-0.400180
C179	C	0.796045	-0.211408	-0.814562
C180	C	1.296045	0.288592	-0.314562
C181	C	0.755592	-0.251832	-0.783086
C182	C	1.255592	0.248168	-0.283086
C183	C	0.700512	-0.236857	-0.814152
C184	C	1.200512	0.263143	-0.314152
C185	C	0.700755	-0.236556	-0.899798
C186	C	1.200755	0.263444	-0.399798
C187	C	0.769634	-0.307152	-0.899871
C188	C	1.269634	0.192848	-0.399871
C189	C	0.770843	-0.306869	-0.814221
C190	C	1.270843	0.193131	-0.314221
C191	C	0.755581	-0.251842	-0.699227
C192	C	1.255581	0.248158	-0.199227
C193	C	0.755613	-0.251804	-1.015328
C194	C	1.255613	0.248196	-0.515328
C195	C	0.755532	-0.251926	-0.164491
C196	C	1.255532	0.248074	0.335509
C197	C	0.755620	-0.251799	-0.082177
C198	C	1.255620	0.248201	0.417823
H199	H	-0.044918	-0.191209	-0.271203
H200	H	0.455082	0.308791	0.228797
H201	H	0.836887	-0.220787	-0.793560
H202	H	1.336887	0.279213	-0.293560
H203	H	0.688862	-0.196105	-0.919795
H204	H	1.188862	0.303895	-0.419795
H205	H	0.837148	-0.220820	-0.920788
H206	H	1.337148	0.279180	-0.420788
H207	H	0.688403	-0.196857	-0.792721
H208	H	1.188403	0.303143	-0.292721
H209	H	0.054132	-0.191189	-0.271192
H210	H	0.554132	0.308811	0.228808
H211	H	0.849599	-0.701963	-0.490352
H212	H	1.349599	-0.201963	0.009648
H213	H	0.816134	-0.549895	-0.442910
H214	H	1.316134	-0.049895	0.057090
H215	H	0.694850	-0.451047	-0.270828
H216	H	1.194850	0.048953	0.229172
H217	H	0.457457	-0.312643	-0.442638
H218	H	0.957457	0.187357	0.057362
H219	H	0.556507	-0.312643	-0.442605
H220	H	1.056507	0.187357	0.057395
H221	H	0.694877	-0.550113	-0.270850
H222	H	1.194877	-0.050113	0.229150
H223	H	0.669502	-0.264602	-0.920493
H224	H	1.169502	0.235398	-0.420493
H225	H	0.816287	-1.052256	-0.443026
H226	H	1.316287	-0.552256	0.056974
H227	H	0.740090	-0.337148	-0.920109
H228	H	1.240090	0.162852	-0.420109
H229	H	0.811376	-0.318161	-0.793917
H230	H	1.311376	0.181839	-0.293917
H231	H	0.849626	-0.801010	-0.490383
H232	H	1.349626	-0.301010	0.009617
H233	H	0.809093	-0.320786	-0.921520
H234	H	1.309093	0.179214	-0.421520
H235	H	0.787003	-0.170793	-0.921725
H236	H	1.287003	0.329207	-0.421725
H237	H	0.786759	-0.170415	-0.794097
H238	H	1.286759	0.329585	-0.294097
H239	H	0.669467	-0.265276	-0.793761
H240	H	1.169467	0.234724	-0.293761
H241	H	0.206251	-0.157706	-0.223888
H242	H	0.706251	0.342294	0.276112
H243	H	0.743445	-0.338477	-0.792792
H244	H	1.243445	0.161523	-0.292792
H245	H	0.206280	-0.346122	-0.489975
H246	H	0.706280	0.153878	0.010025
H247	H	0.457428	-0.191162	-0.271107
H248	H	0.957428	0.308838	0.228893
H249	H	0.305297	-0.157694	-0.223875
H250	H	0.805297	0.342306	0.276125
H251	H	0.661519	-0.801323	-0.223526
H252	H	1.161519	-0.301323	0.276474
H253	H	0.556494	-0.191159	-0.271091
H254	H	1.056494	0.308841	0.228909
H255	H	0.305330	-0.346122	-0.489952
H256	H	0.805330	0.153878	0.010048
H257	H	0.695032	-1.052450	-0.270978
H258	H	1.195032	-0.552450	0.229022
H259	H	0.054170	-0.312680	-0.442711
H260	H	0.554170	0.187320	0.057289
H261	H	0.816111	-0.450844	-0.442863
H262	H	1.316111	0.049156	0.057137
H263	H	-0.044898	-0.312685	-0.442725
H264	H	0.455102	0.187315	0.057275
H265	H	0.816261	-0.953191	-0.443005
H266	H	1.316261	-0.453191	0.056995
H267	H	0.661488	-0.702273	-0.223510
H268	H	1.161488	-0.202273	0.276490
H269	H	0.694994	-0.953400	-0.270963
H270	H	1.194994	-0.453400	0.229037
