data_functionalizedCrystal
_audit_creation_method	'MofGen! by Chris Wilmer'
_symmetry_space_group_name_H-M	'P1'
_symmetry_Int_Tables_number	1
_symmetry_cell_setting	triclinic
loop_
_symmetry_equiv_pos_as_xyz
  x,y,z
_cell_length_a	10.654554
_cell_length_b	10.654548
_cell_length_c	9.730223
_cell_angle_alpha	89.997973
_cell_angle_beta	89.999646
_cell_angle_gamma	95.514540
loop_
_atom_site_label
_atom_site_type_symbol
_atom_site_fract_x
_atom_site_fract_y
_atom_site_fract_z
O1	O	1.667830	-0.176420	-0.114284
O2	O	1.302352	-0.193221	-0.114284
O3	O	1.493495	-0.002081	-0.114286
O4	O	1.476686	-0.367560	-0.114281
O5	O	1.493493	-0.002086	0.114293
O6	O	1.302349	-0.193225	0.114296
O7	O	1.667827	-0.176425	0.114296
Zn8	Zn	1.485088	-0.184826	0.150588
Zn9	Zn	1.485091	-0.184820	-0.150576
O10	O	1.476684	-0.367564	0.114299
C11	C	1.255553	-0.191988	0.000006
C12	C	1.116110	-0.188294	0.000005
C13	C	0.905601	-0.297367	0.000003
C14	C	1.036622	-0.300839	0.000003
C15	C	1.064570	-0.072269	-0.000007
C16	C	0.933551	-0.068799	-0.000017
C17	C	0.889466	-0.429330	0.000016
C18	C	1.020487	-0.432802	0.000016
C19	C	1.492260	0.044714	-0.000000
C20	C	1.488569	0.184158	-0.000011
C21	C	1.486839	0.249673	-0.124608
C22	C	1.483360	0.380693	-0.124603
C23	C	1.483347	0.380673	0.124607
C24	C	1.486817	0.249654	0.124601
C25	C	1.486852	0.249686	-0.268488
C26	C	1.483373	0.380706	-0.268483
C27	C	1.714626	-0.177657	0.000004
C28	C	1.854069	-0.181352	-0.000005
N29	N	1.485095	-0.184830	0.356125
C30	C	1.477922	0.585640	0.000007
C31	C	1.481620	0.446198	0.000000
N32	N	1.485094	-0.184806	-0.356112
C33	C	1.569755	-0.100222	0.428050
C34	C	1.569752	-0.100207	0.571932
C35	C	1.400424	-0.269418	0.571953
C36	C	1.400423	-0.269426	0.428072
C37	C	1.667519	-0.002533	0.428039
C38	C	1.667516	-0.002518	0.571922
H39	H	0.891601	0.025672	-0.000041
C40	C	0.827784	-0.483196	0.133331
H41	H	0.890979	-0.509592	0.192703
H42	H	0.785304	-0.420011	0.177623
H43	H	0.769026	-0.553238	0.111911
H44	H	1.049847	-0.484394	0.095688
C45	C	1.790699	-0.043843	0.367743
H46	H	1.845558	-0.062228	0.440455
H47	H	1.772187	-0.116975	0.312797
H48	H	1.830360	0.022207	0.312792
H49	H	1.481918	0.434016	0.226062
H50	H	1.391777	0.410276	-0.313141
H51	H	1.570164	0.426997	-0.323726
H52	H	1.578451	0.220119	-0.313129
C53	C	1.369608	0.187158	-0.343111
H54	H	1.319028	0.250352	-0.373784
H55	H	1.395286	0.140754	-0.419816
H56	H	1.322166	0.131804	-0.281748
H57	H	1.488219	0.196316	0.226060
H58	H	1.637003	0.088706	0.616536
C59	C	1.068635	-0.489585	-0.133299
H60	H	0.999412	-0.512476	-0.192665
H61	H	1.126239	-0.429052	-0.177601
H62	H	1.109943	-0.562275	-0.111872
C63	C	1.797885	-0.031592	0.624688
H64	H	1.851499	-0.043573	0.548750
H65	H	1.833624	0.036887	0.678914
H66	H	1.788954	-0.106051	0.678936
H67	H	1.331475	-0.338309	0.369512
C68	C	1.151998	0.051531	-0.000021
H69	H	1.102539	0.121123	-0.000039
H70	H	1.203693	0.054935	0.079686
H71	H	1.203684	0.054922	-0.079746
C72	C	0.833070	-0.496448	-0.129235
H73	H	0.898787	-0.526401	-0.182390
H74	H	0.775064	-0.565496	-0.102712
H75	H	0.790584	-0.438824	-0.182365
H76	H	1.331485	-0.338293	0.630548
H77	H	1.646077	0.094000	0.388983
