data_functionalizedCrystal
_audit_creation_method	'MofGen! by Chris Wilmer'
_symmetry_space_group_name_H-M	'P1'
_symmetry_Int_Tables_number	1
_symmetry_cell_setting	triclinic
loop_
_symmetry_equiv_pos_as_xyz
  x,y,z
_cell_length_a	10.540539
_cell_length_b	17.038272
_cell_length_c	9.616153
_cell_angle_alpha	89.997688
_cell_angle_beta	89.995174
_cell_angle_gamma	87.818524
loop_
_atom_site_label
_atom_site_type_symbol
_atom_site_fract_x
_atom_site_fract_y
_atom_site_fract_z
O1	O	1.696176	0.110247	-0.115581
O2	O	2.196176	0.610247	0.384419
O3	O	1.327732	0.120634	-0.115599
O4	O	1.827732	0.620634	0.384401
O5	O	1.509764	0.001613	-0.115579
O6	O	2.009764	0.501613	0.384421
O7	O	1.514144	0.229269	-0.115601
O8	O	2.014144	0.729269	0.384399
O9	O	1.509738	0.001615	0.115712
O10	O	2.009738	0.501615	0.615712
O11	O	1.327705	0.120637	0.115693
O12	O	1.827705	0.620637	0.615693
O13	O	1.696149	0.110249	0.115710
O14	O	2.196149	0.610249	0.615710
Zn15	Zn	1.511923	0.115443	0.152424
Zn16	Zn	2.011923	0.615443	0.652424
Zn17	Zn	1.511958	0.115440	-0.152313
Zn18	Zn	2.011958	0.615440	0.347687
O19	O	1.514117	0.229271	0.115690
O20	O	2.014117	0.729271	0.615690
C21	C	1.280343	0.119857	0.000045
C22	C	1.780343	0.619857	0.500045
C23	C	1.139177	0.117526	0.000039
C24	C	1.639177	0.617526	0.500039
C25	C	0.947420	0.028219	0.000587
C26	C	1.447420	0.528219	0.500587
C27	C	1.094259	0.030581	0.000051
C28	C	1.594259	0.530581	0.500051
C29	C	1.081423	0.159366	-0.132039
C30	C	1.581423	0.659366	0.367961
C31	C	0.934602	0.156399	-0.132135
C32	C	1.434602	0.656399	0.367865
C33	C	0.934248	0.158170	0.130886
C34	C	1.434248	0.658170	0.630886
C35	C	1.081305	0.158971	0.132618
C36	C	1.581305	0.658971	0.632618
C37	C	1.505768	-0.027537	0.000066
C38	C	2.005768	0.472463	0.500066
C39	C	1.493883	-0.114398	0.000065
C40	C	1.993883	0.385602	0.500065
C41	C	1.602994	-0.163886	0.000072
C42	C	2.102994	0.336114	0.500072
C43	C	1.591820	-0.245501	0.000058
C44	C	2.091820	0.254499	0.500058
C45	C	1.471534	-0.277626	0.000048
C46	C	1.971534	0.222374	0.500048
C47	C	1.362416	-0.228133	0.000037
C48	C	1.862416	0.271867	0.500037
C49	C	1.373591	-0.146519	0.000041
C50	C	1.873591	0.353481	0.500041
C51	C	1.432055	-0.523611	0.000027
C52	C	1.932055	-0.023611	0.500027
C53	C	1.420888	-0.605231	0.000027
C54	C	1.920888	-0.105231	0.500027
C55	C	1.650293	-0.622593	0.000046
C56	C	2.150293	-0.122593	0.500046
C57	C	1.661457	-0.540977	0.000058
C58	C	2.161457	-0.040977	0.500058
C59	C	1.552339	-0.491491	0.000040
C60	C	2.052339	0.008509	0.500040
C61	C	1.460110	-0.361050	0.000038
C62	C	1.960110	0.138950	0.500038
C63	C	1.563764	-0.408069	0.000040
C64	C	2.063764	0.091931	0.500040
C65	C	1.743538	0.111027	0.000063
C66	C	2.243538	0.611027	0.500063
C67	C	1.884704	0.113358	0.000061
C68	C	2.384704	0.613358	0.500061
C69	C	1.518114	0.258421	0.000042
C70	C	2.018114	0.758421	0.500042
C71	C	1.529998	0.345282	0.000034
C72	C	2.029998	0.845282	0.500034
N73	N	1.511909	0.115445	0.360398
N74	N	2.011909	0.615445	0.860398
N75	N	1.511982	0.115432	-0.360287
N76	N	2.011982	0.615432	0.139713
C77	C	1.414198	0.178900	0.580758
C78	C	1.914198	0.678900	1.080758
C79	C	1.414448	0.179138	0.419590
C80	C	1.914448	0.679138	0.919590
C81	C	1.646364	0.134015	0.418852
C82	C	2.146364	0.634015	0.918852
C83	C	1.645842	0.134465	0.580070
C84	C	2.145842	0.634465	1.080070
C85	C	1.476466	0.033212	0.580316
C86	C	1.976466	0.533212	1.080316
C87	C	1.473469	0.033745	0.419089
C88	C	1.973469	0.533745	0.919089
H89	H	0.900066	0.130034	0.231000
H90	H	1.400066	0.630034	0.731000
H91	H	1.661700	-0.381909	0.000017
H92	H	2.161700	0.118091	0.500017
H93	H	1.437523	0.239555	0.621252
H94	H	1.937523	0.739555	1.121252
H95	H	1.109732	0.223216	-0.136959
H96	H	1.609732	0.723216	0.363041
H97	H	1.322932	-0.631384	0.000041
H98	H	1.822932	-0.131384	0.500041
H99	H	1.264477	-0.254296	0.000020
H100	H	1.764477	0.245704	0.500020
H101	H	1.314789	0.167964	0.380072
H102	H	1.814789	0.667964	0.880072
H103	H	0.892879	0.220970	0.131773
H104	H	1.392879	0.720970	0.631773
H105	H	1.132922	-0.002574	-0.094786
H106	H	1.632922	0.497426	0.405214
H107	H	1.284741	-0.106227	0.000035
H108	H	1.784741	0.393773	0.500035
H109	H	1.374518	0.019669	0.380886
H110	H	1.874518	0.519669	0.880886
H111	H	1.721346	0.090100	0.619066
H112	H	2.221346	0.590100	1.119066
H113	H	1.438038	0.240138	0.381006
H114	H	1.938038	0.740138	0.881006
H115	H	1.121311	0.130299	-0.230328
H116	H	1.621311	0.630299	0.269672
H117	H	0.915620	-0.006128	0.095308
H118	H	1.415620	0.493872	0.595308
H119	H	0.914033	-0.005985	-0.093600
H120	H	1.414033	0.494015	0.406400
H121	H	1.314247	0.167898	0.619566
H122	H	1.814247	0.667898	1.119566
H123	H	1.343202	-0.483328	0.000013
H124	H	1.843202	0.016672	0.500013
H125	H	1.133791	-0.002340	0.094731
H126	H	1.633791	0.497660	0.594731
H127	H	0.903518	0.125473	-0.230858
H128	H	1.403518	0.625473	0.269142
H129	H	1.362173	-0.387215	0.000033
H130	H	1.862173	0.112785	0.500033
H131	H	1.675792	0.194450	0.617653
H132	H	2.175792	0.694450	1.117653
H133	H	1.721225	0.089051	0.380507
H134	H	2.221225	0.589051	0.880507
H135	H	0.892466	0.218928	-0.138136
H136	H	1.392466	0.718928	0.361864
H137	H	1.676794	0.193323	0.378457
H138	H	2.176794	0.693323	0.878457
H139	H	1.539379	-0.015754	0.378802
H140	H	2.039379	0.484246	0.878802
H141	H	1.380080	0.015538	0.621051
H142	H	1.880080	0.515538	1.121051
H143	H	1.700943	-0.137736	0.000089
H144	H	2.200943	0.362264	0.500089
H145	H	1.111443	0.222359	0.140586
H146	H	1.611443	0.722359	0.640586
H147	H	1.119404	0.128406	0.230328
H148	H	1.619404	0.628406	0.730328
H149	H	1.680669	-0.285790	0.000066
H150	H	2.180669	0.214210	0.500066
H151	H	1.759406	-0.514827	0.000067
H152	H	2.259406	-0.014827	0.500067
H153	H	1.739130	-0.662893	0.000058
H154	H	2.239130	-0.162893	0.500058
H155	H	1.547672	-0.014028	0.618440
H156	H	2.047672	0.485972	1.118440
