data_functionalizedCrystal
_audit_creation_method	'MofGen! by Chris Wilmer'
_symmetry_space_group_name_H-M	'P1'
_symmetry_Int_Tables_number	1
_symmetry_cell_setting	triclinic
loop_
_symmetry_equiv_pos_as_xyz
  x,y,z
_cell_length_a	10.489741
_cell_length_b	7.088929
_cell_length_c	8.597304
_cell_angle_alpha	76.027438
_cell_angle_beta	84.936993
_cell_angle_gamma	96.270099
loop_
_atom_site_label
_atom_site_type_symbol
_atom_site_fract_x
_atom_site_fract_y
_atom_site_fract_z
O1	O	1.679054	-0.198631	0.241431
O2	O	1.307678	-0.202143	0.262572
O3	O	1.503771	-0.162128	0.019769
O4	O	1.482961	-0.238645	0.484234
O5	O	1.529977	0.161206	-0.012753
O6	O	1.333884	0.121192	0.230049
O7	O	1.705260	0.124703	0.208909
Cu8	Cu	1.521964	0.152471	0.216510
Cu9	Cu	1.490973	-0.229910	0.254971
O10	O	1.509167	0.084689	0.451711
C11	C	1.273262	-0.040216	0.244714
C12	C	1.131672	-0.039441	0.239939
N13	N	1.543772	0.421417	0.189457
N14	N	1.469176	-0.498854	0.282011
C15	C	1.064836	-0.013972	0.085450
C16	C	0.959173	-0.185411	0.174463
C17	C	0.985044	0.133365	0.142436
C18	C	1.027863	-0.211022	0.329029
C19	C	1.053755	0.107901	0.296966
C20	C	0.948116	-0.063596	0.386095
C21	C	1.739675	-0.037227	0.226767
C22	C	1.881264	-0.038015	0.231543
C23	C	1.516099	0.009333	-0.055966
C24	C	1.513776	0.038514	-0.233181
C25	C	1.496838	-0.086776	0.527447
C26	C	1.499160	-0.115971	0.704663
H27	H	1.115581	0.006751	-0.041528
H28	H	0.917787	-0.309420	0.122653
Br29	Br	1.122795	0.314617	0.383234
H30	H	1.488421	-0.270569	-0.212975
Br31	Br	1.060089	-0.453846	0.460517
Br32	Br	1.531645	0.296210	-0.370452
Br33	Br	0.863935	-0.098636	0.598000
H34	H	0.965541	0.278914	0.063485
H35	H	1.391866	0.403693	0.377923
H36	H	1.621096	0.518879	0.093551
