data_functionalizedCrystal
_audit_creation_method	'MofGen! by Chris Wilmer'
_symmetry_space_group_name_H-M	'P1'
_symmetry_Int_Tables_number	1
_symmetry_cell_setting	triclinic
loop_
_symmetry_equiv_pos_as_xyz
  x,y,z
_cell_length_a	6.817900
_cell_length_b	14.125469
_cell_length_c	19.453114
_cell_angle_alpha	96.284531
_cell_angle_beta	101.709288
_cell_angle_gamma	100.398878
loop_
_atom_site_label
_atom_site_type_symbol
_atom_site_fract_x
_atom_site_fract_y
_atom_site_fract_z
V1	V	-3.991106	-0.134114	-0.218726
O2	O	-3.995376	0.005414	-0.214841
O3	O	-3.927403	-0.264935	-0.216961
O4	O	-3.934209	-0.132504	-0.314242
O5	O	-3.988523	-0.127934	-0.116887
V6	V	-4.477817	-0.117372	-0.206578
O7	O	-4.245369	-0.170841	-0.245373
O8	O	-4.673751	-0.080645	-0.179930
O9	O	-4.318314	0.013449	-0.208342
O10	O	-4.590944	-0.256900	-0.210462
O11	O	-4.597797	-0.123552	-0.308416
O12	O	-4.311507	-0.118982	-0.111061
C13	C	-3.768956	-0.296812	-0.213441
C14	C	-3.798101	-0.403763	-0.212636
C15	C	-3.777637	-0.127882	-0.337532
C16	C	-3.812300	-0.127430	-0.415615
C17	C	-3.851530	-0.599581	-0.211170
C18	C	-4.036760	-0.651917	-0.214135
C19	C	-4.066490	-0.760877	-0.213320
C20	C	-3.821792	-0.490611	-0.211986
C21	C	-4.009802	-0.132048	-0.455863
C22	C	-4.042372	-0.131624	-0.529230
C23	C	-3.877435	-0.126602	-0.562350
C24	C	-3.679904	-0.121979	-0.522092
C25	C	-3.647336	-0.122393	-0.448725
N26	N	-3.811749	-0.177410	-0.681035
N27	N	-3.842699	-0.177019	-0.750731
C28	C	-3.975548	-0.125351	-0.783400
N29	N	-4.076310	-0.074102	-0.743742
N30	N	-4.045364	-0.074498	-0.674040
C31	C	-3.912729	-0.126151	-0.641903
C32	C	-4.208378	-0.129508	-0.903202
C33	C	-4.240939	-0.129078	-0.976570
C34	C	-3.878468	-0.119442	-0.969431
C35	C	-3.845909	-0.119863	-0.896063
C36	C	-4.010873	-0.124900	-0.862954
C37	C	-4.140102	0.045321	-0.211860
C38	C	-4.090194	0.152270	-0.212670
C39	C	-4.131421	-0.123608	-0.087768
C40	C	-4.075997	-0.124054	-0.009684
H41	H	-3.715288	-0.636605	-0.208019
C42	C	-3.353715	-0.030502	-0.529319
C43	C	-3.498601	-0.116456	-0.558495
H44	H	-3.241789	-0.027087	-0.551796
H45	H	-3.306056	-0.030094	-0.479871
H46	H	-3.415036	0.023970	-0.536515
H47	H	-3.437283	-0.170929	-0.551294
H48	H	-3.546262	-0.116872	-0.607955
C49	C	-4.306217	-0.615907	-0.159684
C50	C	-4.220708	-0.601944	-0.218383
H51	H	-4.419779	-0.585057	-0.162309
H52	H	-4.206273	-0.588496	-0.117248
H53	H	-4.350621	-0.683639	-0.159695
H54	H	-4.176291	-0.534211	-0.218370
H55	H	-4.320672	-0.629351	-0.260830
C56	C	-4.210773	-0.221247	-0.386795
C57	C	-4.191135	-0.137580	-0.419473
H58	H	-4.322731	-0.224664	-0.364333
H59	H	-4.088503	-0.218550	-0.352320
H60	H	-4.234441	-0.277271	-0.421573
H61	H	-4.167452	-0.081555	-0.384693
H62	H	-4.313434	-0.140269	-0.453951
H63	H	-3.685086	-0.116113	-0.863294
C64	C	-4.534600	-0.220977	-0.895985
C65	C	-4.389693	-0.135033	-0.866800
H66	H	-4.646540	-0.224383	-0.873515
H67	H	-4.473314	-0.275451	-0.888792
H68	H	-4.582245	-0.221374	-0.945439
H69	H	-4.342036	-0.134639	-0.817346
H70	H	-4.450987	-0.080545	-0.873987
C71	C	-4.515121	-0.217333	-1.072507
C72	C	-4.458050	-0.134151	-1.020814
H73	H	-4.649154	-0.220459	-1.099823
H74	H	-4.513392	-0.273680	-1.050037
H75	H	-4.421534	-0.214262	-1.102725
H76	H	-4.551629	-0.137225	-0.990592
H77	H	-4.459795	-0.077789	-1.043284
H78	H	-4.203209	-0.135389	-0.562007
H79	H	-3.486501	-0.118626	-0.415954
H80	H	-3.744169	-0.115345	-0.996395
