data_functionalizedCrystal
_audit_creation_method	'MofGen! by Chris Wilmer'
_symmetry_space_group_name_H-M	'P1'
_symmetry_Int_Tables_number	1
_symmetry_cell_setting	triclinic
loop_
_symmetry_equiv_pos_as_xyz
  x,y,z
_cell_length_a	9.065218
_cell_length_b	14.048226
_cell_length_c	14.971486
_cell_angle_alpha	89.993360
_cell_angle_beta	84.315007
_cell_angle_gamma	89.993494
loop_
_atom_site_label
_atom_site_type_symbol
_atom_site_fract_x
_atom_site_fract_y
_atom_site_fract_z
O1	O	1.957746	-0.079164	0.131155
O2	O	1.528243	-0.079165	0.141913
O3	O	1.754506	-0.079158	0.006420
O4	O	1.731482	-0.079171	0.266649
O5	O	1.754479	0.079164	0.006412
O6	O	1.528216	0.079156	0.141905
O7	O	1.957719	0.079158	0.131147
Zn8	Zn	1.742963	0.104294	0.136525
Zn9	Zn	1.742999	-0.104301	0.136536
O10	O	1.731455	0.079150	0.266640
C11	C	1.473263	-0.000005	0.140875
C12	C	1.309483	-0.000005	0.137784
N13	N	1.742949	0.246655	0.136517
N14	N	1.743024	-0.246662	0.136537
C15	C	2.012698	-0.000005	0.132185
C16	C	2.176478	-0.000011	0.135277
C17	C	1.753463	0.000003	-0.026916
C18	C	1.750377	0.000002	-0.126237
C19	C	1.843170	0.296476	0.076546
C20	C	1.843180	0.396134	0.076545
C21	C	1.742975	0.445968	0.136521
C22	C	1.642743	0.396140	0.196495
C23	C	1.642727	0.296484	0.196490
C24	C	1.642786	0.603854	0.196502
C25	C	1.642803	0.703517	0.196508
C26	C	1.843238	0.703504	0.076557
C27	C	1.843222	0.603848	0.076552
C28	C	1.742992	0.554026	0.136527
C29	C	1.883301	0.000003	-0.182471
C30	C	1.880393	-0.000007	-0.275792
C31	C	1.744560	-0.000010	-0.312877
C32	C	1.611626	-0.000014	-0.256635
C33	C	1.614535	-0.000012	-0.163316
C34	C	1.605571	-0.000018	-0.451143
C35	C	1.602660	-0.000019	-0.544468
C36	C	1.871428	-0.000013	-0.563619
C37	C	1.874338	-0.000010	-0.470300
C38	C	1.741403	-0.000012	-0.414064
C39	C	1.732498	-0.000012	0.299977
C40	C	1.735584	-0.000018	0.399297
H41	H	1.924774	0.255907	0.027711
H42	H	1.497321	-0.000022	-0.405358
Br43	Br	1.979190	0.463752	-0.004848
Br44	Br	1.506697	0.228869	0.277877
H45	H	1.492053	-0.000007	-0.574659
H46	H	1.501028	-0.000024	-0.286837
Br47	Br	1.434132	-0.000021	-0.086995
Br48	Br	2.067656	0.000022	-0.132152
Br49	Br	2.058684	-0.000007	-0.419971
Br50	Br	2.060797	-0.000005	-0.352108
H51	H	1.561204	0.744087	0.245345
H52	H	1.561163	0.563293	0.245337
Br53	Br	1.979227	0.536212	-0.004835
H54	H	1.979668	-0.000014	-0.609411
Br55	Br	1.506736	0.463768	0.277886
Br56	Br	1.979269	0.771121	-0.004833
