data_functionalizedCrystal
_audit_creation_method	'MofGen! by Chris Wilmer'
_symmetry_space_group_name_H-M	'P1'
_symmetry_Int_Tables_number	1
_symmetry_cell_setting	triclinic
loop_
_symmetry_equiv_pos_as_xyz
  x,y,z
_cell_length_a	12.594516
_cell_length_b	12.594517
_cell_length_c	12.827885
_cell_angle_alpha	89.977546
_cell_angle_beta	89.971946
_cell_angle_gamma	90.015485
loop_
_atom_site_label
_atom_site_type_symbol
_atom_site_fract_x
_atom_site_fract_y
_atom_site_fract_z
Zn1	Zn	-0.423707	1.627270	-0.590950
Zn2	Zn	-0.601723	1.627160	-0.416216
Zn3	Zn	-0.423757	1.449273	-0.416214
Zn4	Zn	-0.601642	1.449256	-0.590906
O5	O	-0.512707	1.538239	-0.503571
O6	O	-0.447334	1.776201	-0.567790
O7	O	-0.578170	1.603524	-0.269979
O8	O	-0.274804	1.472937	-0.439411
O9	O	-0.578121	1.776120	-0.439414
O10	O	-0.274767	1.603711	-0.567789
O11	O	-0.447419	1.472831	-0.269978
O12	O	-0.447341	1.300325	-0.439368
O13	O	-0.577983	1.472908	-0.737148
O14	O	-0.578032	1.300312	-0.567713
O15	O	-0.447255	1.603694	-0.737180
O16	O	-0.750658	1.603507	-0.439371
O17	O	-0.750598	1.472802	-0.567715
C18	C	-0.512684	1.261698	-0.503536
C19	C	-0.512700	1.143393	-0.503546
C20	C	-0.441539	1.003352	-0.433899
C21	C	-0.415602	1.074211	-0.529257
C22	C	-0.538588	1.074105	-0.408198
C23	C	-0.486755	1.003466	-0.599031
C24	C	-0.609786	1.003354	-0.477908
C25	C	-0.583887	1.074182	-0.573332
C26	C	-0.789248	1.538170	-0.503561
C27	C	-0.907553	1.538237	-0.503592
C28	C	-0.976813	1.467140	-0.573349
C29	C	-1.047681	1.441206	-0.477992
C30	C	-1.047484	1.564268	-0.598965
C31	C	-0.976863	1.512252	-0.408185
C32	C	-0.976660	1.635359	-0.529221
C33	C	-1.047496	1.609462	-0.433799
C34	C	-0.235086	1.538338	-0.503604
C35	C	-0.116781	1.538381	-0.503619
C36	C	-0.512605	1.538312	-0.776142
C37	C	-0.512561	1.538343	-0.892295
C38	C	-0.512731	1.815860	-0.503607
C39	C	-0.512741	1.934166	-0.503622
C40	C	-0.447860	1.603067	-0.944096
C41	C	-0.447814	1.603100	-1.064146
C42	C	-0.512732	1.538228	-0.232061
C43	C	-0.512476	1.538404	-0.115909
H44	H	-0.333512	1.105316	-0.550993
H45	H	-0.560467	1.105138	-0.327531
H46	H	-0.381297	0.972256	-0.375041
H47	H	-0.644083	1.105083	-0.632331
H48	H	-0.392498	1.658451	-0.899567
H49	H	-1.078505	1.586227	-0.679610
C50	C	-0.934872	1.385776	-0.652926
C51	C	-0.964299	1.396463	-0.768959
C52	C	-0.922356	1.315098	-0.848528
C53	C	-0.850985	1.223047	-0.812065
C54	C	-0.821554	1.212357	-0.696027
C55	C	-0.863497	1.293721	-0.616457
H56	H	-1.017136	1.464608	-0.795956
H57	H	-0.944144	1.323012	-0.934428
H58	H	-0.819937	1.162816	-0.870967
H59	H	-0.768718	1.144212	-0.669029
H60	H	-0.841710	1.285807	-0.530557
C61	C	-0.720645	0.961264	-0.448527
C62	C	-0.782796	0.891382	-0.525815
C63	C	-0.893655	0.849289	-0.496419
C64	C	-0.942364	0.877079	-0.389735
C65	C	-0.880213	0.946965	-0.312439
C66	C	-0.769353	0.989058	-0.341835
H67	H	-0.746739	0.870807	-0.604795
H68	H	-0.939663	0.797554	-0.553639
H69	H	-1.024429	0.845919	-0.367974
H70	H	-0.916269	0.967540	-0.233459
H71	H	-0.723345	1.040792	-0.284616
H72	H	-0.464780	0.972566	-0.679721
C73	C	-0.372976	1.677964	-1.124317
C74	C	-0.373036	1.677891	-1.244363
C75	C	-0.298196	1.752758	-1.304536
C76	C	-0.223295	1.827698	-1.244663
C77	C	-0.223232	1.827775	-1.124611
C78	C	-0.298072	1.752908	-1.064438
H79	H	-0.428484	1.622413	-1.288690
H80	H	-0.298243	1.752701	-1.393407
H81	H	-0.167894	1.883119	-1.289207
H82	H	-0.167784	1.883252	-1.080284
H83	H	-0.298025	1.752964	-0.975567
H84	H	-0.567876	1.482992	-1.071368
H85	H	-1.078900	1.359138	-0.456337
C86	C	-0.587352	1.463512	-0.952438
C87	C	-0.578676	1.342497	-0.937520
C88	C	-0.653470	1.267664	-0.997660
C89	C	-0.736940	1.313845	-1.072718
C90	C	-0.745619	1.434866	-1.087640
C91	C	-0.670825	1.509699	-1.027500
H92	H	-0.516884	1.308306	-0.881954
H93	H	-0.647044	1.178076	-0.986613
H94	H	-0.792306	1.258449	-1.117237
H95	H	-0.807412	1.469058	-1.143206
H96	H	-0.677251	1.599287	-1.038546
H97	H	-0.945970	1.490198	-0.327518
H98	H	-1.078337	1.669649	-0.374751
H99	H	-0.945444	1.717408	-0.550922
