data_functionalizedCrystal
_audit_creation_method	'MofGen! by Chris Wilmer'
_symmetry_space_group_name_H-M	'P1'
_symmetry_Int_Tables_number	1
_symmetry_cell_setting	triclinic
loop_
_symmetry_equiv_pos_as_xyz
  x,y,z
_cell_length_a	10.489746
_cell_length_b	10.489741
_cell_length_c	15.186229
_cell_angle_alpha	90.003995
_cell_angle_beta	90.001037
_cell_angle_gamma	84.540238
loop_
_atom_site_label
_atom_site_type_symbol
_atom_site_fract_x
_atom_site_fract_y
_atom_site_fract_z
O1	O	1.694049	0.179999	0.073169
O2	O	2.194049	0.679999	0.573169
O3	O	1.322854	0.196885	0.073184
O4	O	1.822854	0.696885	0.573184
O5	O	1.516898	0.002844	0.073171
O6	O	2.016898	0.502844	0.573171
O7	O	1.500005	0.374039	0.073182
O8	O	2.000005	0.874039	0.573182
O9	O	1.516883	0.002839	-0.073287
O10	O	2.016883	0.502839	0.426713
O11	O	1.322839	0.196880	-0.073274
O12	O	1.822839	0.696880	0.426726
O13	O	1.694034	0.179994	-0.073288
O14	O	2.194034	0.679994	0.426712
Zn15	Zn	1.508434	0.188436	-0.096534
Zn16	Zn	2.008434	0.688436	0.403466
Zn17	Zn	1.508454	0.188442	0.096429
Zn18	Zn	2.008454	0.688442	0.596429
O19	O	1.499990	0.374035	-0.073275
O20	O	1.999990	0.874035	0.426725
C21	C	1.275315	0.195606	-0.000043
C22	C	1.775315	0.695606	0.499957
C23	C	1.133686	0.191786	-0.000038
C24	C	1.633686	0.691786	0.499962
C25	C	1.515614	-0.044690	-0.000057
C26	C	2.015614	0.455310	0.499943
C27	C	1.511797	-0.186320	-0.000056
C28	C	2.011797	0.313680	0.499944
C29	C	0.980828	0.066062	-0.000054
C30	C	1.480828	0.566062	0.499946
C31	C	1.058214	0.128917	-0.072261
C32	C	1.558214	0.628917	0.427739
C33	C	1.058185	0.128951	0.072135
C34	C	1.558185	0.628951	0.572135
C35	C	0.958723	0.247898	-0.072326
C36	C	1.458723	0.747898	0.427674
C37	C	0.958688	0.247915	0.072134
C38	C	1.458688	0.747915	0.572134
C39	C	1.036025	0.310856	-0.000090
C40	C	1.536025	0.810856	0.499910
C41	C	1.388333	-0.254462	-0.000044
C42	C	1.888333	0.245538	0.499956
C43	C	1.446649	-0.346586	-0.072258
C44	C	1.946649	0.153414	0.427742
C45	C	1.446693	-0.346556	0.072138
C46	C	1.946693	0.153444	0.572138
C47	C	1.570164	-0.276578	-0.072329
C48	C	2.070164	0.223422	0.427671
C49	C	1.570191	-0.276538	0.072132
C50	C	2.070191	0.223462	0.572132
C51	C	1.628597	-0.368635	-0.000099
C52	C	2.128597	0.131365	0.499901
C53	C	1.741573	0.181273	-0.000060
C54	C	2.241573	0.681273	0.499940
C55	C	1.883202	0.185093	-0.000059
C56	C	2.383202	0.685093	0.499941
C57	C	1.501273	0.421569	-0.000045
C58	C	2.001273	0.921569	0.499955
C59	C	1.505091	0.563198	-0.000041
C60	C	2.005091	1.063198	0.499959
N61	N	1.508430	0.188431	-0.228227
N62	N	2.008430	0.688431	0.271773
C63	C	1.594388	0.102539	-0.546151
C64	C	2.094388	0.602539	-0.046151
C65	C	1.594384	0.102540	-0.453961
C66	C	2.094384	0.602540	0.046039
C67	C	1.422506	0.274339	-0.453960
C68	C	1.922506	0.774339	0.046040
C69	C	1.422517	0.274343	-0.546148
C70	C	1.922517	0.774343	-0.046148
C71	C	1.508456	0.188436	-0.592241
C72	C	2.008456	0.688436	-0.092241
C73	C	1.508442	0.188432	-0.407864
C74	C	2.008442	0.688432	0.092136
C75	C	1.508437	0.188433	-0.307907
C76	C	2.008437	0.688433	0.192093
C77	C	1.508462	0.188437	-0.692204
C78	C	2.008462	0.688437	-0.192204
N79	N	1.508468	0.188437	0.228122
N80	N	2.008468	0.688437	0.728122
H81	H	0.956107	-0.037439	-0.000130
H82	H	1.456107	0.462561	0.499870
H83	H	0.915194	0.298120	0.133187
H84	H	1.415194	0.798120	0.633187
H85	H	1.730200	-0.418057	-0.000143
H86	H	2.230200	0.081943	0.499857
H87	H	1.664359	0.032596	-0.416437
H88	H	2.164359	0.532596	0.083563
F89	F	1.638425	-0.235954	0.151929
F90	F	2.138425	0.264046	0.651929
H91	H	1.101634	0.078681	0.133182
H92	H	1.601634	0.578681	0.633182
F93	F	0.902150	0.313530	-0.152210
F94	F	1.402150	0.813530	0.347790
H95	H	1.060501	0.414436	-0.000126
H96	H	1.560501	0.914436	0.499874
F97	F	1.378391	-0.387054	0.151931
F98	F	1.878391	0.112946	0.651931
F99	F	1.331057	0.365776	-0.595205
F100	F	1.831057	0.865776	-0.095205
H101	H	1.352535	0.344280	-0.416422
H102	H	1.852535	0.844280	0.083578
H103	H	1.101685	0.078666	-0.133311
H104	H	1.601685	0.578666	0.366689
F105	F	1.255650	-0.189568	-0.000130
F106	F	1.755650	0.310432	0.499870
H107	H	1.394402	-0.377600	-0.133305
H108	H	1.894402	0.122400	0.366695
F109	F	1.638383	-0.236285	-0.152215
F110	F	2.138383	0.263715	0.347785
H111	H	1.664366	0.032591	-0.583678
H112	H	2.164366	0.532591	-0.083678
