data_functionalizedCrystal
_audit_creation_method	'MofGen! by Chris Wilmer'
_symmetry_space_group_name_H-M	'P1'
_symmetry_Int_Tables_number	1
_symmetry_cell_setting	triclinic
loop_
_symmetry_equiv_pos_as_xyz
  x,y,z
_cell_length_a	17.699097
_cell_length_b	16.176319
_cell_length_c	17.699083
_cell_angle_alpha	89.992304
_cell_angle_beta	83.285722
_cell_angle_gamma	89.988988
loop_
_atom_site_label
_atom_site_type_symbol
_atom_site_fract_x
_atom_site_fract_y
_atom_site_fract_z
O1	O	1.004072	-0.068817	0.095761
O2	O	1.337406	0.264517	0.429094
O3	O	1.670739	0.597850	0.762428
O4	O	0.783695	-0.068804	0.108203
O5	O	1.117029	0.264530	0.441536
O6	O	1.450362	0.597863	0.774870
O7	O	0.900110	-0.068803	-0.008207
O8	O	1.233443	0.264530	0.325126
O9	O	1.566777	0.597863	0.658460
O10	O	0.887658	-0.068817	0.212171
O11	O	1.220991	0.264516	0.545504
O12	O	1.554324	0.597850	0.878837
O13	O	0.900094	0.068690	-0.008214
O14	O	1.233427	0.402023	0.325119
O15	O	1.566761	0.735357	0.658452
O16	O	0.783679	0.068690	0.108195
O17	O	1.117013	0.402023	0.441529
O18	O	1.450346	0.735356	0.774862
O19	O	1.004056	0.068676	0.095754
O20	O	1.337390	0.402010	0.429087
O21	O	1.670723	0.735343	0.762420
Cu22	Cu	0.893867	0.081237	0.101974
Cu23	Cu	1.227200	0.414571	0.435307
Cu24	Cu	1.560533	0.747904	0.768640
Cu25	Cu	0.893885	-0.081364	0.101983
Cu26	Cu	1.227219	0.251969	0.435316
Cu27	Cu	1.560552	0.585302	0.768649
O28	O	0.887642	0.068676	0.212163
O29	O	1.220975	0.402009	0.545497
O30	O	1.554308	0.735343	0.878830
C31	C	0.755491	-0.000055	0.107752
C32	C	1.088824	0.333278	0.441085
C33	C	1.422157	0.666611	0.774418
C34	C	0.671473	-0.000050	0.106409
C35	C	1.004806	0.333283	0.439742
C36	C	1.338140	0.666617	0.773076
N37	N	0.893859	0.195602	0.101967
N38	N	1.227192	0.528936	0.435301
N39	N	1.560525	0.862269	0.768634
N40	N	0.893899	-0.195730	0.101983
N41	N	1.227233	0.137604	0.435317
N42	N	1.560566	0.470937	0.768650
C43	C	0.155764	-0.075030	0.098184
C44	C	0.489097	0.258303	0.431517
C45	C	0.822430	0.591636	0.764850
C46	C	0.234708	-0.075026	0.099440
C47	C	0.568041	0.258307	0.432773
C48	C	0.901374	0.591640	0.766107
C49	C	0.274165	-0.000076	0.100065
C50	C	0.607498	0.333258	0.433399
C51	C	0.940832	0.666591	0.766732
C52	C	0.234675	0.074876	0.099427
C53	C	0.568008	0.408210	0.432760
C54	C	0.901342	0.741543	0.766093
C55	C	0.155733	0.074871	0.098165
C56	C	0.489066	0.408205	0.431498
C57	C	0.822400	0.741538	0.764832
C58	C	0.553039	0.074898	0.104514
C59	C	0.886372	0.408231	0.437847
C60	C	1.219706	0.741564	0.771181
C61	C	0.631986	0.074897	0.105778
C62	C	0.965320	0.408230	0.439111
C63	C	1.298653	0.741563	0.772445
C64	C	0.632014	-0.075000	0.105789
C65	C	0.965347	0.258333	0.439122
C66	C	1.298680	0.591667	0.772456
C67	C	0.553072	-0.075005	0.104527
C68	C	0.886405	0.258328	0.437861
C69	C	1.219738	0.591662	0.771194
C70	C	0.513589	-0.000054	0.103885
C71	C	0.846923	0.333280	0.437218
C72	C	1.180256	0.666613	0.770551
C73	C	0.427989	-0.000059	0.102521
C74	C	0.761323	0.333274	0.435854
C75	C	1.094656	0.666608	0.769188
C76	C	0.359763	-0.000069	0.101434
C77	C	0.693096	0.333264	0.434768
C78	C	1.026429	0.666597	0.768101
C79	C	1.032261	-0.000074	0.096205
C80	C	1.365595	0.333260	0.429538
C81	C	1.698928	0.666593	0.762871
C82	C	1.116279	-0.000084	0.097547
C83	C	1.449612	0.333249	0.430881
C84	C	1.782946	0.666582	0.764214
C85	C	0.945423	0.238867	0.050442
C86	C	1.278756	0.572200	0.383775
C87	C	1.612089	0.905533	0.717109
C88	C	0.945426	0.325414	0.050441
C89	C	1.278760	0.658747	0.383774
C90	C	1.612093	0.992080	0.717108
C91	C	0.893869	0.368695	0.101970
C92	C	1.227203	0.702028	0.435303
C93	C	1.560536	1.035362	0.768636
C94	C	0.842300	0.325425	0.153498
C95	C	1.175633	0.658758	0.486831
C96	C	1.508967	0.992091	0.820164
C97	C	0.842293	0.238879	0.153494
C98	C	1.175627	0.572212	0.486827
C99	C	1.508960	0.905546	0.820161
C100	C	0.842326	0.674453	0.153512
C101	C	1.175659	1.007786	0.486845
C102	C	1.508993	1.341120	0.820178
C103	C	0.842338	0.761004	0.153513
C104	C	1.175672	1.094338	0.486846
C105	C	1.509005	1.427671	0.820179
C106	C	0.945459	0.760988	0.050459
C107	C	1.278793	1.094321	0.383792
C108	C	1.612126	1.427654	0.717125
C109	C	0.945452	0.674442	0.050455
C110	C	1.278786	1.007775	0.383789
C111	C	1.612119	1.341109	0.717122
C112	C	0.893881	0.631179	0.101980
C113	C	1.227214	0.964513	0.435313
C114	C	1.560547	1.297846	0.768647
C115	C	0.893876	0.537335	0.101979
C116	C	1.227210	0.870668	0.435313
C117	C	1.560543	1.204002	0.768646
C118	C	0.893877	0.462538	0.101975
C119	C	1.227210	0.795871	0.435308
C120	C	1.560544	1.129204	0.768641
C121	C	0.899656	-0.000057	-0.036408
C122	C	1.232989	0.333277	0.296926
C123	C	1.566323	0.666610	0.630259
C124	C	0.898317	-0.000056	-0.120426
C125	C	1.231651	0.333277	0.212907
C126	C	1.564984	0.666611	0.546241
C127	C	0.966650	-0.000059	-0.169044
C128	C	1.299984	0.333274	0.164290
C129	C	1.633317	0.666608	0.497623
C130	C	0.965388	-0.000066	-0.247987
C131	C	1.298721	0.333267	0.085346
C132	C	1.632055	0.666600	0.418680
C133	C	0.895792	-0.000065	-0.278311
C134	C	1.229125	0.333269	0.055022
C135	C	1.562459	0.666602	0.388356
C136	C	0.827454	-0.000064	-0.229687
C137	C	1.160787	0.333269	0.103646
C138	C	1.494121	0.666602	0.436980
C139	C	0.828717	-0.000063	-0.150745
C140	C	1.162050	0.333270	0.182588
C141	C	1.495384	0.666604	0.515921
C142	C	0.822359	-0.000071	-0.548050
C143	C	1.155692	0.333263	-0.214717
C144	C	1.489025	0.666596	0.118616
C145	C	0.821101	-0.000070	-0.626998
C146	C	1.154434	0.333264	-0.293665
C147	C	1.487767	0.666597	0.039668
C148	C	0.959030	-0.000074	-0.645292
C149	C	1.292363	0.333259	-0.311959
C150	C	1.625696	0.666593	0.021375
C151	C	0.960293	-0.000073	-0.566350
C152	C	1.293626	0.333261	-0.233017
C153	C	1.626960	0.666594	0.100316
C154	C	0.891955	-0.000077	-0.517733
C155	C	1.225288	0.333257	-0.184400
C156	C	1.558622	0.666590	0.148933
C157	C	0.893325	-0.000070	-0.432134
C158	C	1.226658	0.333263	-0.098801
C159	C	1.559991	0.666596	0.234533
C160	C	0.894422	-0.000065	-0.363909
C161	C	1.227755	0.333268	-0.030575
C162	C	1.561088	0.666602	0.302758
C163	C	0.888096	-0.000073	0.240364
C164	C	1.221429	0.333261	0.573697
C165	C	1.554763	0.666594	0.907031
C166	C	0.889435	-0.000078	0.324382
C167	C	1.222768	0.333255	0.657716
C168	C	1.556101	0.666588	0.991049
H169	H	0.266853	-0.136055	0.099954
H170	H	0.600187	0.197278	0.433287
H171	H	0.933520	0.530612	0.766620
H172	H	0.773073	-0.000061	-0.111161
H173	H	1.106406	0.333273	0.222173
H174	H	1.439740	0.666606	0.555506
H175	H	0.664170	-0.136029	0.106309
H176	H	0.997504	0.197304	0.439643
H177	H	1.330837	0.530638	0.772976
C178	C	1.036846	-0.000071	-0.532994
C179	C	1.370179	0.333262	-0.199660
C180	C	1.703513	0.666595	0.133673
H181	H	1.027811	-0.000062	-0.479016
H182	H	1.361144	0.333271	-0.145682
H183	H	1.694478	0.666604	0.187651
H184	H	1.064984	-0.048018	-0.549683
H185	H	1.398318	0.285315	-0.216350
H186	H	1.731651	0.618648	0.116983
H187	H	1.064967	0.047881	-0.549696
H188	H	1.398301	0.381215	-0.216363
H189	H	1.731634	0.714548	0.116970
H190	H	1.014674	-0.000075	-0.684886
H191	H	1.348007	0.333258	-0.351553
H192	H	1.681340	0.666592	-0.018219
H193	H	0.764424	-0.000067	-0.651685
H194	H	1.097757	0.333267	-0.318351
H195	H	1.431091	0.666600	0.014982
C196	C	0.509550	0.157336	0.104299
C197	C	0.842884	0.490669	0.437633
C198	C	1.176217	0.824003	0.770966
H199	H	0.456866	0.146604	0.103598
H200	H	0.790199	0.479937	0.436931
H201	H	1.123532	0.813271	0.770264
H202	H	0.516789	0.187789	0.148772
H203	H	0.850123	0.521122	0.482106
H204	H	1.183456	0.854455	0.815439
H205	H	0.528139	0.188472	0.060526
H206	H	0.861472	0.521806	0.393860
H207	H	1.194806	0.855139	0.727193
H208	H	0.123642	-0.136064	0.097680
H209	H	0.456976	0.197269	0.431013
H210	H	0.790309	0.530602	0.764347
H211	H	0.520949	-0.136038	0.104022
H212	H	0.854282	0.197296	0.437355
H213	H	1.187616	0.530629	0.770689
C214	C	1.002135	0.191265	-0.006242
C215	C	1.335469	0.524598	0.327092
C216	C	1.668802	0.857932	0.660425
H217	H	1.032840	0.229430	-0.036933
H218	H	1.366173	0.562764	0.296401
H219	H	1.699506	0.896097	0.629734
H220	H	1.033586	0.157487	0.020943
H221	H	1.366920	0.490820	0.354276
H222	H	1.700253	0.824153	0.687610
H223	H	0.974961	0.157521	-0.037719
H224	H	1.308295	0.490854	0.295614
H225	H	1.641628	0.824187	0.628947
H226	H	0.987413	0.360639	0.008485
H227	H	1.320746	0.693973	0.341818
H228	H	1.654080	1.027306	0.675152
C229	C	0.675390	0.157347	0.106450
C230	C	1.008724	0.490680	0.439784
C231	C	1.342057	0.824013	0.773117
H232	H	0.640572	0.201985	0.105877
H233	H	0.973905	0.535318	0.439210
H234	H	1.307238	0.868651	0.772543
H235	H	0.700336	0.160472	0.151059
H236	H	1.033669	0.493805	0.484392
H237	H	1.367002	0.827138	0.817725
H238	H	0.712035	0.160451	0.062815
H239	H	1.045369	0.493784	0.396149
H240	H	1.378702	0.827118	0.729482
H241	H	0.266808	0.135903	0.099931
H242	H	0.600141	0.469236	0.433264
H243	H	0.933475	0.802569	0.766598
H244	H	0.800336	0.639235	0.195466
H245	H	1.133669	0.972568	0.528800
H246	H	1.467003	1.305902	0.862133
H247	H	0.123585	0.135900	0.097655
H248	H	0.456918	0.469233	0.430988
H249	H	0.790251	0.802567	0.764321
H250	H	0.987437	0.639205	0.008498
H251	H	1.320771	0.972539	0.341832
H252	H	1.654104	1.305872	0.675165
C253	C	0.785590	0.373032	0.210179
C254	C	1.118923	0.706365	0.543513
C255	C	1.452256	1.039698	0.876846
H256	H	0.792983	0.430772	0.202808
H257	H	1.126317	0.764105	0.536142
H258	H	1.459650	1.097438	0.869475
H259	H	0.735094	0.358868	0.202022
H260	H	1.068427	0.692201	0.535355
H261	H	1.401760	1.025534	0.868689
H262	H	0.793718	0.358832	0.260684
H263	H	1.127052	0.692166	0.594018
H264	H	1.460385	1.025499	0.927351
H265	H	0.987450	0.796221	0.008502
H266	H	1.320783	1.129555	0.341835
H267	H	1.654116	1.462888	0.675169
C268	C	0.785609	0.808613	0.210183
C269	C	1.118943	1.141946	0.543516
C270	C	1.452276	1.475279	0.876850
H271	H	0.754886	0.770452	0.240861
H272	H	1.088219	1.103786	0.574195
H273	H	1.421553	1.437119	0.907528
H274	H	0.812765	0.842364	0.241664
H275	H	1.146099	1.175698	0.574998
H276	H	1.479432	1.509031	0.908331
H277	H	0.754167	0.842384	0.182975
H278	H	1.087500	1.175717	0.516309
H279	H	1.420833	1.509051	0.849642
C280	C	1.040552	-0.000078	-0.301467
C281	C	1.373886	0.333255	0.031867
C282	C	1.707219	0.666589	0.365200
H283	H	1.029835	-0.000092	-0.352825
H284	H	1.363168	0.333241	-0.019491
H285	H	1.696502	0.666575	0.313842
H286	H	1.069095	0.047866	-0.292300
H287	H	1.402429	0.381199	0.041033
H288	H	1.735762	0.714533	0.374366
H289	H	1.069096	-0.048034	-0.292275
H290	H	1.402429	0.285299	0.041058
H291	H	1.735762	0.618633	0.374392
H292	H	0.766714	-0.000074	-0.508475
H293	H	1.100047	0.333260	-0.175142
H294	H	1.433380	0.666593	0.158191
C295	C	0.785576	0.191288	0.210175
C296	C	1.118909	0.524622	0.543508
C297	C	1.452243	0.857955	0.876841
H298	H	0.754876	0.229459	0.240869
H299	H	1.088209	0.562792	0.574203
H300	H	1.421543	0.896125	0.907536
H301	H	0.754121	0.157542	0.182985
H302	H	1.087454	0.490875	0.516319
H303	H	1.420788	0.824208	0.849652
H304	H	0.812743	0.157513	0.241650
H305	H	1.146077	0.490847	0.574983
H306	H	1.479410	0.824180	0.908317
C307	C	1.043207	-0.000061	-0.135694
C308	C	1.376540	0.333272	0.197639
C309	C	1.709874	0.666606	0.530973
H310	H	1.083722	-0.000071	-0.175958
H311	H	1.417056	0.333262	0.157375
H312	H	1.750389	0.666595	0.490708
H313	H	1.046564	0.047886	-0.105285
H314	H	1.379897	0.381219	0.228049
H315	H	1.713230	0.714552	0.561382
H316	H	1.046571	-0.048014	-0.105275
H317	H	1.379905	0.285319	0.228059
H318	H	1.713238	0.618652	0.561392
C319	C	0.750900	-0.000060	-0.263042
C320	C	1.084233	0.333273	0.070292
C321	C	1.417566	0.666607	0.403625
H322	H	0.759933	-0.000052	-0.317020
H323	H	1.093266	0.333281	0.016313
H324	H	1.426600	0.666615	0.349647
H325	H	0.722773	-0.048004	-0.246341
H326	H	1.056106	0.285329	0.086992
H327	H	1.389440	0.618662	0.420326
H328	H	0.722768	0.047895	-0.246349
H329	H	1.056101	0.381229	0.086985
H330	H	1.389434	0.714562	0.420318
