data_functionalizedCrystal
_audit_creation_method	'MofGen! by Chris Wilmer'
_symmetry_space_group_name_H-M	'P1'
_symmetry_Int_Tables_number	1
_symmetry_cell_setting	triclinic
loop_
_symmetry_equiv_pos_as_xyz
  x,y,z
_cell_length_a	17.699083
_cell_length_b	10.967829
_cell_length_c	16.176319
_cell_angle_alpha	77.865348
_cell_angle_beta	89.998611
_cell_angle_gamma	84.013885
loop_
_atom_site_label
_atom_site_type_symbol
_atom_site_fract_x
_atom_site_fract_y
_atom_site_fract_z
O1	O	1.005076	0.157801	-0.091109
O2	O	0.784828	0.178331	-0.094061
O3	O	0.900030	-0.013601	-0.066701
O4	O	0.889875	0.349733	-0.118469
O5	O	0.900014	-0.013614	0.070794
O6	O	0.784812	0.178319	0.043434
O7	O	1.005060	0.157788	0.046386
Cu8	Cu	0.894935	0.168052	0.057465
Cu9	Cu	0.894954	0.168067	-0.105139
O10	O	0.889858	0.349721	0.019026
C11	C	0.756618	0.177589	-0.025212
C12	C	0.672586	0.175382	-0.024908
C13	C	0.899282	-0.060095	0.008669
C14	C	0.897067	-0.198615	0.028399
C15	C	0.624678	0.288042	-0.040959
C16	C	0.545721	0.285961	-0.040652
C17	C	0.514675	0.171219	-0.024299
C18	C	0.562590	0.058550	-0.008243
C19	C	0.641545	0.060632	-0.008545
C20	C	0.244173	0.050149	-0.007026
C21	C	0.165212	0.048076	-0.006728
C22	C	0.148350	0.275478	-0.039133
C23	C	0.227305	0.277561	-0.039435
C24	C	0.275213	0.164893	-0.023375
C25	C	0.360826	0.167151	-0.023707
C26	C	0.429063	0.168959	-0.023973
C27	C	0.896088	-0.260358	-0.034032
C28	C	0.893800	-0.403525	-0.013641
C29	C	1.033270	0.158530	-0.022465
C30	C	1.117302	0.160737	-0.022774
C31	C	0.890607	0.396215	-0.056345
C32	C	0.892821	0.534734	-0.076081
N33	N	0.894927	0.168042	0.171831
N34	N	0.894967	0.168068	-0.219504
C35	C	0.945954	0.083089	0.227206
C36	C	0.945958	0.083087	0.313753
C37	C	0.894938	0.168046	0.344923
C38	C	0.843905	0.253003	0.289542
C39	C	0.843898	0.252997	0.202998
C40	C	0.843931	0.253026	0.638567
C41	C	0.843943	0.253028	0.725119
C42	C	0.945991	0.083116	0.749323
C43	C	0.945984	0.083111	0.662778
C44	C	0.894949	0.168063	0.607405
C45	C	0.894944	0.168061	0.513561
C46	C	0.894945	0.168054	0.438765
H47	H	0.649949	0.381479	-0.054277
O48	O	0.494047	0.407474	-0.057962
H49	H	0.505148	0.462394	-0.121833
O50	O	0.893953	-0.394901	-0.166884
H51	H	0.842060	-0.408522	-0.200906
H52	H	0.802346	0.322173	0.157912
H53	H	0.987532	0.013934	0.637402
O54	O	0.295836	-0.071371	0.010289
H55	H	0.355955	-0.050656	0.007344
H56	H	0.896941	-0.207228	-0.102577
O57	O	0.529109	-0.065213	0.009403
H58	H	0.493545	-0.071608	-0.045727
H59	H	0.802378	0.322199	0.593489
O60	O	0.892663	-0.473888	0.077162
H61	H	0.893723	-0.406880	0.119792
H62	H	0.139938	-0.045367	0.006590
H63	H	0.680552	-0.031107	0.004526
H64	H	0.987544	0.013940	0.794417
H65	H	0.896206	-0.251743	0.096944
H66	H	0.987504	0.013911	0.201833
H67	H	0.987507	0.013911	0.358839
H68	H	0.802394	0.322214	0.750494
O69	O	0.788882	0.344645	0.323161
H70	H	0.753395	0.403714	0.270114
H71	H	0.252578	0.370996	-0.052755
H72	H	0.109333	0.367218	-0.052205
