data_functionalizedCrystal
_audit_creation_method	'MofGen! by Chris Wilmer'
_symmetry_space_group_name_H-M	'P1'
_symmetry_Int_Tables_number	1
_symmetry_cell_setting	triclinic
loop_
_symmetry_equiv_pos_as_xyz
  x,y,z
_cell_length_a	15.995350
_cell_length_b	17.699083
_cell_length_c	16.776229
_cell_angle_alpha	89.997548
_cell_angle_beta	89.991668
_cell_angle_gamma	83.387695
loop_
_atom_site_label
_atom_site_type_symbol
_atom_site_fract_x
_atom_site_fract_y
_atom_site_fract_z
O1	O	0.105870	1.004252	0.066173
O2	O	0.119646	0.783897	0.066198
O3	O	-0.009142	0.900098	0.066184
O4	O	0.234658	0.888051	0.066187
O5	O	-0.009119	0.900087	-0.066393
O6	O	0.119668	0.783886	-0.066378
O7	O	0.105892	1.004241	-0.066404
Zn8	Zn	0.112784	0.894062	-0.087441
Zn9	Zn	0.112754	0.894076	0.087235
O10	O	0.234680	0.888040	-0.066390
C11	C	0.119164	0.755694	-0.000087
C12	C	0.117683	0.671673	-0.000077
C13	C	0.193278	0.623178	-0.000076
C14	C	0.191882	0.544232	-0.000087
C15	C	0.114889	0.513783	-0.000092
C16	C	0.039287	0.562285	-0.000095
C17	C	0.040685	0.641229	-0.000090
C18	C	0.033651	0.243912	-0.000115
C19	C	0.032259	0.164962	-0.000117
C20	C	0.184848	0.146916	-0.000111
C21	C	0.186245	0.225860	-0.000106
C22	C	0.110644	0.274354	-0.000114
C23	C	0.112159	0.359956	-0.000104
C24	C	0.113373	0.428183	-0.000096
C25	C	-0.040324	0.899595	-0.000103
C26	C	-0.133272	0.898101	-0.000098
C27	C	-0.471008	0.892739	-0.000100
C28	C	-0.423406	0.809983	0.000207
C29	C	-0.326719	0.811476	-0.000092
C30	C	-0.303453	0.895399	-0.000099
C31	C	-0.344601	0.936211	-0.075810
C32	C	-0.441232	0.934132	-0.075873
C33	C	-0.441620	0.935854	0.074891
C34	C	-0.344674	0.935835	0.075892
C35	C	-0.208759	0.896907	-0.000101
C36	C	-0.565703	0.891234	-0.000104
C37	C	0.265863	0.888544	-0.000101
C38	C	0.358810	0.890037	-0.000101
C39	C	0.106375	1.032445	-0.000117
C40	C	0.107856	1.116465	-0.000122
N41	N	0.112804	0.894058	-0.206652
C42	C	0.062015	0.848184	-0.751819
C43	C	0.062023	0.848182	-0.668366
C44	C	0.112747	0.894079	-0.626651
C45	C	0.163462	0.939987	-0.668392
C46	C	0.163450	0.939992	-0.751843
C47	C	0.163511	0.939967	-0.331845
C48	C	0.163521	0.939956	-0.248389
C49	C	0.062084	0.848157	-0.248369
C50	C	0.062072	0.848163	-0.331819
C51	C	0.112783	0.894073	-0.373553
C52	C	0.112773	0.894075	-0.464042
C53	C	0.112762	0.894073	-0.536164
N54	N	0.112728	0.894086	0.206446
H55	H	-0.020873	0.680714	-0.000090
O56	O	0.007383	0.798643	-0.203351
H57	H	-0.027881	0.766723	-0.246379
H58	H	0.248941	0.250646	-0.000098
H59	H	0.253440	0.504750	-0.000085
H60	H	-0.023402	0.537487	-0.000111
O61	O	-0.050789	0.132120	-0.000138
H62	H	-0.087130	0.151601	0.053888
O63	O	0.276321	0.656018	-0.000078
H64	H	0.328652	0.609030	-0.000090
H65	H	-0.298241	0.779395	0.054181
H66	H	-0.462114	0.908802	0.132275
H67	H	-0.317374	0.905996	0.131901
H68	H	-0.459464	0.904363	-0.132463
O69	O	-0.324497	1.016904	0.081944
H70	H	-0.383862	1.056128	0.081198
H71	H	0.246406	0.107421	-0.000109
O72	O	-0.483857	1.016675	0.075572
H73	H	-0.525584	1.026128	0.022790
O74	O	-0.326052	1.017879	-0.079562
H75	H	-0.287213	1.030275	-0.027381
O76	O	-0.447887	0.766158	0.072112
H77	H	-0.494246	0.802887	0.108400
O78	O	-0.306923	0.898660	-0.150441
H79	H	-0.258904	0.850936	-0.133801
H80	H	0.204830	0.977334	-0.214427
O81	O	-0.449240	0.766353	-0.071306
H82	H	-0.495836	0.803353	-0.107067
O83	O	0.007286	0.798690	-0.796800
H84	H	0.025575	0.738197	-0.780784
H85	H	-0.298779	0.779170	-0.054450
O86	O	-0.484122	1.014608	-0.080449
H87	H	-0.435816	1.054836	-0.082613
H88	H	0.020725	0.810806	-0.634389
O89	O	-0.047886	0.296213	-0.000122
H90	H	-0.101656	0.261775	-0.000120
H91	H	0.020770	0.810786	-0.365780
H92	H	0.204804	0.977349	-0.365815
O93	O	0.218181	0.989487	-0.623406
H94	H	0.209679	0.981764	-0.558365
O95	O	0.218150	0.989497	-0.796864
H96	H	0.253431	1.021406	-0.753839
