data_functionalizedCrystal
_audit_creation_method	'MofGen! by Chris Wilmer'
_symmetry_space_group_name_H-M	'P1'
_symmetry_Int_Tables_number	1
_symmetry_cell_setting	triclinic
loop_
_symmetry_equiv_pos_as_xyz
  x,y,z
_cell_length_a	27.440280
_cell_length_b	14.560438
_cell_length_c	27.440280
_cell_angle_alpha	60.000226
_cell_angle_beta	90.008670
_cell_angle_gamma	59.997957
loop_
_atom_site_label
_atom_site_type_symbol
_atom_site_fract_x
_atom_site_fract_y
_atom_site_fract_z
Zr1	Zr	0.469491	1.005188	-0.063890
O2	O	0.391662	1.196821	-0.141717
O3	O	0.493351	0.813576	-0.040033
O4	O	0.493337	1.005197	-0.141705
O5	O	0.391686	1.005185	0.040158
O6	O	0.573539	1.005180	-0.141695
O7	O	0.391676	1.005200	-0.040044
O8	O	0.573564	0.662405	0.040178
O9	O	0.391661	1.347960	-0.141716
O10	O	0.563380	0.892368	-0.029850
O11	O	0.503534	0.892369	0.029997
O12	O	0.503518	1.117978	-0.089709
O13	O	0.443671	1.117980	-0.029863
Zr14	Zr	0.597423	1.005135	0.064039
Zr15	Zr	0.597406	1.005160	-0.063874
Zr16	Zr	0.469509	1.005164	0.064023
Zr17	Zr	0.469491	1.246236	-0.063888
Zr18	Zr	0.597423	0.764087	0.064037
O19	O	0.573564	1.196747	0.040182
O20	O	0.573539	1.196781	-0.141694
O21	O	0.391686	1.196787	0.040159
O22	O	0.675253	0.813502	0.141866
O23	O	0.675228	0.813536	-0.040010
O24	O	0.493375	0.813542	0.141843
O25	O	0.675228	1.005138	-0.040009
O26	O	0.573578	1.005126	0.141854
O27	O	0.493375	1.005143	0.141844
O28	O	0.675239	1.005123	0.040193
O29	O	0.493336	1.347938	-0.141703
O30	O	0.573578	0.662386	0.141852
O31	O	0.675253	0.662363	0.141865
O32	O	0.675239	0.662382	0.040191
O33	O	0.391675	1.347941	-0.040042
O34	O	0.493350	1.347918	-0.040029
O35	O	0.563397	0.892345	0.089858
O36	O	0.623243	0.892343	0.030012
O37	O	0.563380	1.117954	-0.029848
O38	O	0.503534	1.117956	0.029999
C39	C	0.533458	0.703646	0.000072
C40	C	0.533458	0.601315	0.000071
C41	C	0.373456	1.005197	0.000054
C42	C	0.319153	1.005209	0.000048
C43	C	0.564695	0.553239	-0.031169
C44	C	0.564696	0.457082	-0.031164
C45	C	0.502219	0.457088	0.031322
C46	C	0.502221	0.553237	0.031320
C47	C	0.600763	0.553239	-0.067247
C48	C	0.600765	0.457082	-0.067242
C49	C	0.013703	0.887374	0.031337
C50	C	-0.037315	0.887366	0.031342
O51	O	-0.037128	0.787211	0.057934
N52	N	-0.094080	1.005132	0.000096
C53	C	-0.099825	1.122912	-0.031153
O54	O	-0.152793	1.223079	-0.057730
C55	C	-0.048807	1.122917	-0.031155
C56	C	0.007957	1.005145	0.000089
C57	C	0.070464	0.769610	0.062579
C58	C	0.121479	0.769618	0.062573
C59	C	0.115733	0.887389	0.031324
C60	C	0.058971	1.005152	0.000083
C61	C	-0.054553	1.240696	-0.062400
C62	C	-0.003529	1.240692	-0.062399
C63	C	0.053235	1.122919	-0.031155
C64	C	0.104240	1.122931	-0.031172
N65	N	0.161004	1.005166	0.000075
C66	C	0.166751	0.887395	0.031323
C67	C	-0.206964	1.122890	-0.031147
C68	C	-0.257981	1.122886	-0.031150
C69	C	-0.195468	0.887340	0.031347
C70	C	-0.144450	0.887346	0.031346
C71	C	-0.150199	1.005125	0.000100
C72	C	0.273883	0.887420	0.031307
C73	C	0.324900	0.887438	0.031296
C74	C	0.262382	1.122983	-0.031198
C75	C	0.211370	1.122965	-0.031190
C76	C	0.217124	1.005173	0.000067
O77	O	0.104098	1.223036	-0.057748
O78	O	0.219720	0.787244	0.057902
C79	C	0.693458	1.005126	0.000095
C80	C	0.747761	1.005114	0.000101
C81	C	0.533435	1.005192	-0.159925
C82	C	0.533428	1.005202	-0.214228
C83	C	0.533457	1.306677	0.000077
C84	C	0.533456	1.409008	0.000078
C85	C	0.577658	1.005123	-0.550920
C86	C	0.577663	1.005113	-0.601937
O87	O	0.615253	1.005056	-0.628308
N88	N	0.533478	1.005125	-0.627461
C89	C	0.489289	1.005133	-0.601960
O90	O	0.451707	1.005142	-0.628354
C91	C	0.489286	1.005134	-0.550941
C92	C	0.533471	1.005135	-0.525423
C93	C	0.621839	1.005122	-0.525402
C94	C	0.621833	1.005134	-0.474388
C95	C	0.577646	1.005146	-0.448892
C96	C	0.533464	1.005147	-0.474410
C97	C	0.445100	1.005133	-0.525438
C98	C	0.445101	1.005132	-0.474415
C99	C	0.489286	1.005133	-0.448898
C100	C	0.489271	1.005171	-0.397900
N101	N	0.533456	1.005159	-0.372377
C102	C	0.577643	1.005147	-0.397873
C103	C	0.489297	1.005131	-0.709104
C104	C	0.489297	1.005140	-0.760124
C105	C	0.577672	1.005117	-0.760098
C106	C	0.577670	1.005117	-0.709078
C107	C	0.533482	1.005119	-0.683580
C108	C	0.577627	1.005173	-0.290741
C109	C	0.577615	1.005190	-0.239724
C110	C	0.489242	1.005206	-0.239753
C111	C	0.489251	1.005195	-0.290767
C112	C	0.533449	1.005174	-0.316259
O113	O	0.451701	1.005222	-0.371496
O114	O	0.615223	1.005121	-0.371468
C115	C	0.533479	1.005131	0.160074
C116	C	0.533486	1.005121	0.214377
C117	C	0.693459	0.703611	0.000092
C118	C	0.747762	0.601268	0.000098
C119	C	0.533479	0.703616	0.160072
C120	C	0.533487	0.601274	0.214374
C121	C	0.693480	0.703581	0.160092
C122	C	0.747791	0.601227	0.214401
C123	C	0.373434	1.306742	-0.159943
C124	C	0.319124	1.409096	-0.214252
C125	C	0.373456	1.306712	0.000057
C126	C	0.319152	1.409056	0.000051
C127	C	0.533435	1.306707	-0.159923
C128	C	0.533428	1.409049	-0.214225
C129	C	0.742015	0.553219	-0.031151
C130	C	0.793034	0.457069	-0.031158
C131	C	0.849798	0.408964	0.000090
C132	C	0.855544	0.457022	0.031340
C133	C	0.804525	0.553177	0.031343
C134	C	0.564738	0.553201	0.271127
C135	C	0.564742	0.457053	0.322154
C136	C	0.533499	0.408974	0.316427
C137	C	0.502244	0.457057	0.259668
C138	C	0.502236	0.553210	0.208642
C139	C	0.804540	0.553159	0.208665
C140	C	0.855575	0.457001	0.259689
C141	C	0.849860	0.408904	0.316447
C142	C	0.793105	0.456981	0.322182
C143	C	0.742071	0.553145	0.271158
C144	C	0.262374	1.457175	-0.208516
C145	C	0.211339	1.553364	-0.259540
C146	C	0.217054	1.601465	-0.316298
C147	C	0.273810	1.553382	-0.322033
C148	C	0.324843	1.457202	-0.271009
C149	C	0.324899	1.457114	0.031295
C150	C	0.273880	1.553290	0.031287
C151	C	0.217116	1.601399	0.000038
C152	C	0.211371	1.553336	-0.031210
C153	C	0.262389	1.457169	-0.031205
C154	C	0.564677	1.457097	-0.208478
C155	C	0.564682	1.553245	-0.259496
C156	C	0.533433	1.601350	-0.316259
C157	C	0.502183	1.553292	-0.322004
C158	C	0.502182	1.457139	-0.270987
H159	H	0.476793	0.592361	0.056767
C160	C	0.467794	1.404314	-0.277319
N161	N	0.441889	1.364534	-0.282092
H162	H	0.590196	0.417915	0.368364
H163	H	0.657824	1.005108	-0.546155
H164	H	0.590123	1.417945	-0.162263
H165	H	0.590180	0.592336	0.275801
C166	C	0.573640	0.508197	-0.131782
N167	N	0.553211	0.546695	-0.180392
H168	H	0.453264	1.005221	-0.218988
C169	C	0.679647	0.606006	0.277478
N170	N	0.632631	0.645818	0.282242
C171	C	0.467836	1.606176	-0.384449
N172	N	0.441973	1.645998	-0.431485
H173	H	0.257709	1.418016	-0.162305
H174	H	0.278570	1.592407	0.056735
H175	H	0.476787	0.417931	0.056763
C176	C	0.626283	1.005091	-0.788150
N177	N	0.662894	1.005069	-0.809279
C178	C	0.148914	1.606235	-0.253219
N179	N	0.101897	1.646055	-0.248456
C180	C	0.786701	0.404212	-0.065531
N181	N	0.781929	0.364399	-0.091419
C182	C	0.626245	1.005155	-0.318775
N183	N	0.662862	1.005149	-0.339892
C184	C	0.533520	0.303191	0.372563
N185	N	0.533541	0.223509	0.414847
C186	C	0.160909	1.707257	-0.372420
N187	N	0.118618	1.786934	-0.414689
C188	C	0.533439	1.707124	-0.372373
N189	N	0.533444	1.786795	-0.414637
H190	H	0.453312	1.005159	-0.780902
H191	H	0.476807	0.417897	0.255013
H192	H	0.648541	0.515393	-0.047174
C193	C	0.918000	0.404122	0.253368
N194	N	0.965017	0.364293	0.248605
C195	C	0.280222	0.757843	0.065687
N196	N	0.284997	0.660245	0.091577
C197	C	0.148927	1.252521	-0.065562
N198	N	0.101898	1.350104	-0.091446
H199	H	-0.190796	0.791445	0.056789
C200	C	0.387341	0.757873	0.065670
N201	N	0.434369	0.660287	0.091561
C202	C	0.161000	1.707180	0.000042
N203	N	0.118735	1.786852	0.000049
C204	C	0.387335	1.404219	0.065671
N205	N	0.434361	1.364391	0.091561
C206	C	0.810841	0.606055	0.146235
N207	N	0.815593	0.645896	0.099214
C208	C	0.280086	1.606296	-0.384473
N209	N	0.284812	1.646145	-0.431504
H210	H	0.409121	1.005131	-0.546207
H211	H	0.257702	1.418042	-0.056646
C212	C	0.906005	0.303111	0.372569
N213	N	0.948296	0.223423	0.414838
C214	C	0.599057	1.606097	-0.253162
N215	N	0.624949	1.645903	-0.248391
C216	C	0.905914	0.303183	0.000085
N217	N	0.948179	0.223503	0.000083
H218	H	0.453268	1.005213	-0.311549
C219	C	0.568599	0.682648	-0.129655
N220	N	0.544372	0.780120	-0.176661
C221	C	0.679579	0.606124	-0.065532
N222	N	0.632553	0.645972	-0.091433
H223	H	0.646964	0.361290	-0.043434
H224	H	0.809213	0.592285	0.056793
H225	H	0.901768	0.417841	0.056780
H226	H	0.167695	0.673715	0.088012
H227	H	0.075154	0.673702	0.088028
H228	H	0.476790	0.592339	0.162433
C229	C	0.786828	0.404051	0.384622
N230	N	0.782102	0.364172	0.431653
C231	C	0.148924	1.606252	-0.065572
N232	N	0.101888	1.646100	-0.091447
H233	H	-0.304197	1.218789	-0.056599
C234	C	-0.082012	0.757788	0.065721
N235	N	-0.034985	0.660199	0.091615
C236	C	-0.116985	1.370258	-0.096770
N237	N	-0.164010	1.467852	-0.122658
H238	H	-0.211654	1.218806	-0.056595
H239	H	0.371050	1.418057	-0.275686
C240	C	-0.009860	1.370262	-0.096776
N241	N	-0.014630	1.467854	-0.122670
H242	H	0.257713	1.218869	-0.056642
H243	H	0.657813	1.005130	-0.453614
C244	C	0.626279	1.005106	-0.681011
N245	N	0.662895	1.005092	-0.659872
C246	C	0.626225	1.005184	-0.211656
N247	N	0.662839	1.005175	-0.190516
C248	C	0.440661	1.005220	-0.681084
N249	N	0.404022	1.005312	-0.659988
C250	C	0.396485	1.005153	-0.446376
N251	N	0.359865	1.005180	-0.425260
