data_functionalizedCrystal
_audit_creation_method	'MofGen! by Chris Wilmer'
_symmetry_space_group_name_H-M	'P1'
_symmetry_Int_Tables_number	1
_symmetry_cell_setting	triclinic
loop_
_symmetry_equiv_pos_as_xyz
  x,y,z
_cell_length_a	18.627245
_cell_length_b	18.627245
_cell_length_c	18.626683
_cell_angle_alpha	89.998243
_cell_angle_beta	120.001443
_cell_angle_gamma	59.999878
loop_
_atom_site_label
_atom_site_type_symbol
_atom_site_fract_x
_atom_site_fract_y
_atom_site_fract_z
O1	O	0.633258	0.492469	0.021375
O2	O	0.486246	0.388078	-0.021242
O3	O	0.633252	0.388066	0.125774
O4	O	0.486251	0.492481	-0.125640
O5	O	0.513846	0.507470	0.125768
O6	O	0.366840	0.507482	-0.021248
O7	O	0.513851	0.611873	0.021369
Zn8	Zn	0.421387	0.578636	0.000060
Zn9	Zn	0.578710	0.421315	0.000068
O10	O	0.366845	0.611885	-0.125647
C11	C	0.644060	0.742969	0.031081
C12	C	0.593663	0.837667	0.024984
C13	C	0.601260	0.699369	0.031683
C14	C	0.774066	0.612965	0.031088
C15	C	0.862671	0.568663	0.024998
C16	C	0.731068	0.569563	0.031690
C17	C	0.644057	0.612970	0.031076
C18	C	0.593656	0.568672	0.024974
C19	C	0.731071	0.699365	0.031695
C20	C	0.226058	0.386971	-0.030921
C21	C	0.137465	0.431267	-0.024814
C22	C	0.269049	0.430377	-0.031533
C23	C	0.356050	0.256975	-0.030935
C24	C	0.406445	0.162279	-0.024844
C25	C	0.398844	0.300579	-0.031547
C26	C	0.356049	0.386976	-0.030935
C27	C	0.406444	0.431278	-0.024842
C28	C	0.269050	0.300574	-0.031533
C29	C	0.644048	0.386949	0.387081
C30	C	0.593650	0.431248	0.431381
C31	C	0.731056	0.300546	0.430490
C32	C	0.644048	0.386957	0.257077
C33	C	0.593650	0.431264	0.162375
C34	C	0.731057	0.300554	0.300683
C35	C	0.774052	0.256946	0.387086
C36	C	0.862655	0.162245	0.431390
C37	C	0.601250	0.430359	0.300678
O38	O	1.104459	0.507471	-0.021219
O39	O	0.895670	0.611865	0.021394
O40	O	0.895651	0.611868	-0.125620
O41	O	1.104478	0.507467	0.125795
O42	O	0.895662	0.492460	-0.125606
O43	O	0.895682	0.492457	0.021408
O44	O	1.104470	0.388063	-0.021204
Zn45	Zn	1.000078	0.421301	0.000104
Zn46	Zn	1.000063	0.578626	0.000085
O47	O	1.104490	0.388059	0.125810
O48	O	0.366840	1.125679	-0.021252
O49	O	0.513857	0.874271	0.021379
O50	O	0.366856	1.021269	-0.125643
O51	O	0.513842	0.978681	0.125769
O52	O	0.486266	1.021265	-0.125631
O53	O	0.633267	0.874267	0.021390
O54	O	0.486250	1.125675	-0.021241
Zn55	Zn	0.578718	0.999970	0.000077
Zn56	Zn	0.421390	0.999976	0.000061
O57	O	0.633252	0.978677	0.125781
O58	O	1.104461	-0.125761	0.492593
O59	O	0.895657	0.125647	0.388190
O60	O	0.895652	-0.021350	0.388181
O61	O	1.104465	0.021236	0.492602
O62	O	0.895655	-0.021361	0.507588
O63	O	0.895660	0.125637	0.507597
O64	O	1.104463	-0.125772	0.612001
Zn65	Zn	1.000062	-0.000069	0.578757
Zn66	Zn	1.000058	-0.000055	0.421433
O67	O	1.104468	0.021226	0.612010
C68	C	0.643982	0.742985	-0.386921
C69	C	0.593554	0.837693	-0.431224
C70	C	0.731004	0.699382	-0.300521
C71	C	0.644025	0.612963	-0.386915
C72	C	0.593644	0.568650	-0.431212
C73	C	0.731047	0.569557	-0.300515
C74	C	0.774028	0.612971	-0.256915
C75	C	0.862646	0.568668	-0.162216
C76	C	0.601198	0.699374	-0.430324
O77	O	0.486241	0.492445	0.611979
O78	O	0.633250	0.388044	0.507588
O79	O	0.486240	0.388051	0.507574
O80	O	0.633251	0.492438	0.611993
O81	O	0.366837	0.507460	0.388162
O82	O	0.513847	0.507454	0.388176
O83	O	0.366838	0.611855	0.492568
Zn84	Zn	0.421385	0.578613	0.421413
Zn85	Zn	0.578703	0.421286	0.578742
O86	O	0.513848	0.611848	0.492582
C87	C	0.226044	0.743006	-0.386958
C88	C	0.137441	0.837707	-0.431262
C89	C	0.269039	0.699407	-0.430363
C90	C	0.356048	0.612995	-0.256949
C91	C	0.406447	0.568688	-0.162247
C92	C	0.398846	0.569593	-0.300552
C93	C	0.356047	0.613004	-0.386955
C94	C	0.406445	0.568706	-0.431255
C95	C	0.269040	0.699398	-0.300555
C96	C	1.356122	0.256954	0.387124
C97	C	1.406529	0.162254	0.431433
C98	C	1.398918	0.300558	0.430524
C99	C	1.226102	0.386959	0.257109
C100	C	1.137491	0.431261	0.162406
C101	C	1.269096	0.430366	0.300706
C102	C	1.356112	0.386960	0.387110
C103	C	1.406507	0.431263	0.431405
C104	C	1.269107	0.300557	0.300720
C105	C	0.356103	1.030921	-0.386931
C106	C	0.406511	1.024817	-0.431223
C107	C	0.269101	1.031521	-0.430341
C108	C	0.356081	1.030942	-0.256937
C109	C	0.406465	1.024860	-0.162239
C110	C	0.269079	1.031542	-0.300544
C111	C	0.226097	1.030920	-0.386942
C112	C	0.137501	1.024815	-0.431247
C113	C	0.398887	1.031542	-0.300533
O114	O	0.486066	1.125724	-0.492435
O115	O	0.633144	0.874304	-0.388027
O116	O	0.486133	1.021275	-0.388009
O117	O	0.633077	0.978752	-0.492452
O118	O	0.366730	1.021265	-0.507409
O119	O	0.513741	0.874293	-0.507427
O120	O	0.366663	1.125713	-0.611835
Zn121	Zn	0.421245	1.000001	-0.578588
Zn122	Zn	0.578562	1.000016	-0.421273
O123	O	0.513675	0.978741	-0.611852
C124	C	0.774015	0.969020	0.387082
C125	C	0.862616	0.975118	0.431388
C126	C	0.731008	0.968425	0.430479
C127	C	0.644026	0.969004	0.257075
C128	C	0.593642	0.975086	0.162377
C129	C	0.601217	0.968410	0.300669
C130	C	0.644001	0.969032	0.387067
C131	C	0.593591	0.975142	0.431358
C132	C	0.731033	0.968398	0.300684
H133	H	0.767049	0.734375	0.032670
O134	O	0.517795	0.515084	0.258876
C135	C	0.540460	0.568563	0.234543
H136	H	0.607141	0.526461	0.229864
H137	H	0.561211	0.601041	0.286078
C138	C	0.365213	0.691689	0.150413
C139	C	0.447107	0.639981	0.144659
H140	H	0.307628	0.735746	0.094971
H141	H	0.349943	0.655661	0.166809
H142	H	0.382519	0.718746	0.193363
H143	H	0.429805	0.612917	0.101718
H144	H	0.462372	0.676006	0.128254
O145	O	0.773755	0.967390	0.515129
C146	C	0.702786	1.042736	0.519919
H147	H	0.622640	1.068668	0.461566
H148	H	0.716735	1.095558	0.518353
C149	C	0.813121	0.986807	0.677760
C150	C	0.714684	1.018653	0.606094
H151	H	0.820462	0.971954	0.730918
H152	H	0.860936	0.936046	0.674534
H153	H	0.824733	1.030831	0.676444
H154	H	0.703077	0.974626	0.607406
H155	H	0.666867	1.069407	0.609323
H156	H	0.233056	0.501370	-0.032519
O157	O	0.774080	0.484806	-0.258835
C158	C	0.803129	0.431388	-0.305912
H159	H	0.813729	0.464663	-0.347531
H160	H	0.741599	0.421397	-0.350528
C161	C	0.890638	0.300719	-0.189728
C162	C	0.903666	0.341584	-0.240840
H163	H	0.952652	0.245322	-0.149590
H164	H	0.871064	0.336707	-0.158013
H165	H	0.839360	0.292401	-0.226918
H166	H	0.954934	0.349912	-0.203652
H167	H	0.923251	0.305595	-0.272548
O168	O	0.773996	0.484914	0.032732
C169	C	0.774399	0.480113	-0.042620
H170	H	0.770272	0.538453	-0.068559
H171	H	0.706051	0.481688	-0.095440
C172	C	0.877808	0.322280	0.013315
C173	C	0.872748	0.393930	-0.018539
H174	H	0.938471	0.269116	0.028167
H175	H	0.877534	0.325513	0.064080
H176	H	0.820846	0.323604	-0.030706
H177	H	0.929702	0.392611	0.025486
H178	H	0.873033	0.390694	-0.069296
H179	H	0.468860	0.498601	-0.265539
O180	O	0.517573	0.741127	-0.514972
C181	C	0.437451	0.745434	-0.519802
H182	H	0.451035	0.739792	-0.452577
H183	H	0.433878	0.689147	-0.540741
C184	C	0.319723	0.840726	-0.670168
C185	C	0.336403	0.833803	-0.587603
H186	H	0.257390	0.895233	-0.711994
H187	H	0.373703	0.837821	-0.666916
H188	H	0.316751	0.793814	-0.687606
H189	H	0.339387	0.880707	-0.570162
H190	H	0.282421	0.836718	-0.590854
O191	O	0.773865	0.258752	0.515135
C192	C	0.702916	0.254380	0.519969
H193	H	0.643623	0.260045	0.452735
H194	H	0.664002	0.310623	0.540951
C195	C	0.830905	0.159015	0.670306
C196	C	0.758084	0.165967	0.587729
H197	H	0.864934	0.104480	0.712106
H198	H	0.878704	0.161963	0.667051
H199	H	0.798465	0.205890	0.687779
H200	H	0.790526	0.119099	0.570253
H201	H	0.710292	0.163009	0.590983
H202	H	1.233093	0.501362	0.265694
H203	H	0.468848	0.265574	-0.032536
O204	O	0.226259	0.741187	-0.258703
C205	C	0.297253	0.745516	-0.182913
H206	H	0.356545	0.739829	-0.190865
H207	H	0.336162	0.689265	-0.123019
C208	C	0.169325	0.840897	-0.160521
C209	C	0.242144	0.833920	-0.170291
H210	H	0.135333	0.895427	-0.152732
H211	H	0.121496	0.837979	-0.211581
H212	H	0.201761	0.794016	-0.110611
H213	H	0.209707	0.880794	-0.220207
H214	H	0.289967	0.836849	-0.119239
O215	O	0.517649	0.741083	0.032720
C216	C	0.437503	0.745468	-0.042629
H217	H	0.469918	0.691254	-0.068559
H218	H	0.386245	0.812241	-0.095456
C219	C	0.335600	0.799879	0.013297
C220	C	0.375412	0.733287	-0.018546
H221	H	0.297295	0.792370	0.028150
H222	H	0.389594	0.796929	0.064060
H223	H	0.292891	0.855517	-0.030731
H224	H	0.418130	0.677652	0.025485
H225	H	0.321424	0.736228	-0.069301
H226	H	0.766979	0.734396	-0.265524
O227	O	0.225935	0.741180	-0.515110
C228	C	0.125465	0.765484	-0.568527
H229	H	0.096250	0.770192	-0.526382
H230	H	0.123769	0.713919	-0.600953
C231	C	0.093353	0.849546	-0.691766
C232	C	0.057468	0.855336	-0.640004
H233	H	0.051409	0.904969	-0.735860
H234	H	0.161042	0.833170	-0.655780
H235	H	0.091939	0.806572	-0.718780
H236	H	0.058894	0.898302	-0.612983
H237	H	-0.010223	0.871722	-0.675988
O238	O	0.482489	1.032593	-0.258809
C239	C	0.562661	0.957238	-0.254384
H240	H	0.530275	0.931286	-0.308588
H241	H	0.613904	0.904433	-0.187598
C242	C	0.664540	1.013188	-0.199971
C243	C	0.624763	0.981317	-0.266551
H244	H	0.702851	1.028039	-0.207472
H245	H	0.610529	1.063955	-0.202949
H246	H	0.707236	0.969179	-0.144323
H247	H	0.582058	1.025330	-0.322197
H248	H	0.678768	0.930558	-0.263582
H249	H	1.468946	0.265543	0.501513
H250	H	1.233129	0.265545	0.265720
O251	O	0.226022	0.258869	-0.032836
C252	C	0.125509	0.305906	-0.108943
H253	H	0.117102	0.347538	-0.161204
H254	H	0.070914	0.350504	-0.092012
C255	C	0.111147	0.189674	-0.080164
C256	C	0.100823	0.240800	-0.144355
H257	H	0.095916	0.149514	-0.102007
H258	H	0.178862	0.157985	-0.028888
H259	H	0.065650	0.226847	-0.066061
H260	H	0.146328	0.203628	-0.158450
H261	H	0.033114	0.272482	-0.195635
H262	H	0.767029	0.265549	0.265669
O263	O	0.517803	0.967081	0.258927
C264	C	0.540500	0.890954	0.234563
H265	H	0.625991	0.838718	0.278458
H266	H	0.513612	0.907859	0.163044
C267	C	0.381127	0.919680	0.191354
C268	C	0.486128	0.855520	0.245271
H269	H	0.347585	0.897823	0.197955
H270	H	0.365834	0.970970	0.207765
H271	H	0.358735	0.933762	0.131759
H272	H	0.508521	0.841447	0.304865
H273	H	0.501424	0.804226	0.228871
H274	H	0.233093	1.032521	-0.265539
H275	H	0.233126	1.032493	-0.501332
O276	O	0.774102	0.967066	0.259011
C277	C	0.874609	0.890950	0.306090
H278	H	0.882972	0.838714	0.347707
H279	H	0.929204	0.907875	0.350709
C280	C	0.889081	0.919664	0.189912
C281	C	0.899350	0.855504	0.241020
H282	H	0.904345	0.897801	0.149775
H283	H	0.821369	0.970947	0.158194
H284	H	0.934578	0.933762	0.227103
H285	H	0.853845	0.841415	0.203830
H286	H	0.967055	0.804218	0.272730
