data_functionalizedCrystal
_audit_creation_method	'MofGen! by Chris Wilmer'
_symmetry_space_group_name_H-M	'P1'
_symmetry_Int_Tables_number	1
_symmetry_cell_setting	triclinic
loop_
_symmetry_equiv_pos_as_xyz
  x,y,z
_cell_length_a	12.759401
_cell_length_b	15.297327
_cell_length_c	12.759393
_cell_angle_alpha	99.643518
_cell_angle_beta	89.979541
_cell_angle_gamma	99.708126
loop_
_atom_site_label
_atom_site_type_symbol
_atom_site_fract_x
_atom_site_fract_y
_atom_site_fract_z
Zn1	Zn	1.533809	-0.359088	-0.666331
Zn2	Zn	2.033809	0.140912	-0.166331
Zn3	Zn	1.503257	-0.509972	-0.521035
Zn4	Zn	2.003257	-0.009972	-0.021035
Zn5	Zn	1.358099	-0.359134	-0.490675
Zn6	Zn	1.858099	0.140866	0.009325
Zn7	Zn	1.327668	-0.509911	-0.696660
Zn8	Zn	1.827668	-0.009911	-0.196660
O9	O	1.430708	-0.434527	-0.593675
O10	O	1.930708	0.065473	-0.093675
O11	O	1.676776	-0.379110	-0.647070
O12	O	2.176776	0.120890	-0.147070
O13	O	1.483952	-0.490008	-0.369996
O14	O	1.983952	0.009992	0.130004
O15	O	1.406929	-0.232882	-0.488578
O16	O	1.906929	0.267118	0.011422
O17	O	1.654330	-0.489964	-0.540322
O18	O	2.154330	0.010036	-0.040322
O19	O	1.536022	-0.232848	-0.617631
O20	O	2.036022	0.267152	-0.117631
O21	O	1.377305	-0.379189	-0.347690
O22	O	1.877305	0.120811	0.152310
O23	O	1.207043	-0.379129	-0.517987
O24	O	1.707043	0.120871	-0.017987
O25	O	1.355063	-0.489859	-0.839649
O26	O	1.855063	0.010141	-0.339649
O27	O	1.184685	-0.489904	-0.669323
O28	O	1.684685	0.010096	-0.169323
O29	O	1.506514	-0.379050	-0.817366
O30	O	2.006514	0.120950	-0.317366
O31	O	1.454444	-0.636210	-0.569730
O32	O	1.954444	-0.136210	-0.069730
O33	O	1.325439	-0.636165	-0.698761
O34	O	1.825439	-0.136165	-0.198761
C35	C	1.157743	-0.434515	-0.593652
C36	C	1.657743	0.065485	-0.093652
C37	C	1.040963	-0.434532	-0.593671
C38	C	1.540963	0.065468	-0.093671
C39	C	0.974469	-0.492301	-0.672384
C40	C	1.474469	0.007699	-0.172384
C41	C	0.864744	-0.492304	-0.672406
C42	C	1.364744	0.007696	-0.172406
C43	C	0.888018	-0.376769	-0.514992
C44	C	1.388018	0.123231	-0.014992
C45	C	0.997741	-0.376761	-0.514976
C46	C	1.497741	0.123239	-0.014976
C47	C	1.383352	-0.668922	-0.640854
C48	C	1.883352	-0.168922	-0.140854
C49	C	1.363189	-0.769197	-0.661073
C50	C	1.863189	-0.269197	-0.161073
C51	C	1.575250	-1.051826	-0.449529
C52	C	2.075250	-0.551826	0.050471
C53	C	1.594193	-0.957612	-0.430527
C54	C	2.094193	-0.457612	0.069473
C55	C	1.536444	-0.910504	-0.488162
C56	C	2.036444	-0.410504	0.011838
C57	C	1.459748	-0.957618	-0.564802
C58	C	1.959748	-0.457618	-0.064802
C59	C	1.440796	-1.051841	-0.583799
C60	C	1.940796	-0.551841	-0.083799
C61	C	1.401991	-0.910519	-0.622432
C62	C	1.901991	-0.410519	-0.122432
C63	C	1.325294	-0.957634	-0.699072
C64	C	1.825294	-0.457634	-0.199072
C65	C	1.306347	-1.051848	-0.718067
C66	C	1.806347	-0.551848	-0.218067
C67	C	1.364096	-1.098956	-0.660432
C68	C	1.864096	-0.598956	-0.160432
C69	C	1.420942	-0.816296	-0.603435
C70	C	1.920942	-0.316296	-0.103435
C71	C	1.286489	-0.816312	-0.737705
C72	C	1.786489	-0.316312	-0.237705
C73	C	1.267545	-0.910526	-0.756707
C74	C	1.767545	-0.410526	-0.256707
C75	C	1.704739	-0.434538	-0.593699
C76	C	2.204739	0.065462	-0.093699
C77	C	1.821515	-0.434543	-0.593709
C78	C	2.321515	0.065457	-0.093709
C79	C	1.430802	-0.434443	-0.867692
C80	C	1.930802	0.065557	-0.367692
C81	C	1.430841	-0.434407	-0.984461
C82	C	1.930841	0.065593	-0.484461
C83	C	1.478278	-0.199216	-0.546335
C84	C	1.978278	0.300784	-0.046335
C85	C	1.498549	-0.098940	-0.526161
C86	C	1.998549	0.401060	-0.026161
C87	C	1.486414	-0.492044	-1.160660
C88	C	1.986414	0.007956	-0.660660
C89	C	1.486379	-0.492086	-1.050944
C90	C	1.986379	0.007914	-0.550944
C91	C	1.375325	-0.376687	-1.027700
C92	C	1.875325	0.123313	-0.527700
C93	C	1.375353	-0.376650	-1.137415
C94	C	1.875353	0.123350	-0.637415
C95	C	1.430689	-0.434545	-0.320712
C96	C	1.930689	0.065455	0.179288
C97	C	1.430904	-0.434327	-0.203891
C98	C	1.930904	0.065673	0.296109
H99	H	0.810609	-0.539344	-0.736502
H100	H	1.310609	-0.039344	-0.236502
Cl101	Cl	1.305545	-0.304099	-1.191771
Cl102	Cl	1.805545	0.195901	-0.691771
Cl103	Cl	0.833673	-0.304148	-0.416065
Cl104	Cl	1.333673	0.195852	0.083935
H105	H	1.051884	-0.329714	-0.450878
H106	H	1.551884	0.170286	0.049122
H107	H	1.330099	-0.329728	-0.973562
H108	H	1.830099	0.170272	-0.473562
H109	H	1.656638	-0.919254	-0.368127
H110	H	2.156638	-0.419254	0.131873
Cl111	Cl	1.339858	-1.217400	-0.683890
Cl112	Cl	1.839858	-0.717400	-0.183890
H113	H	1.009657	-0.539340	-0.736465
H114	H	1.509657	-0.039340	-0.236465
Cl115	Cl	1.556244	-0.564554	-1.244227
Cl116	Cl	2.056244	-0.064554	-0.744227
H117	H	1.483389	-0.777944	-0.541034
H118	H	1.983389	-0.277944	-0.041034
H119	H	1.551872	-0.833791	-0.472685
H120	H	2.051872	-0.333791	0.027315
Cl121	Cl	1.647836	-1.111051	-0.377081
Cl122	Cl	2.147836	-0.611051	0.122919
Cl123	Cl	1.556164	-0.564650	-0.996601
Cl124	Cl	2.056164	-0.064650	-0.496601
Cl125	Cl	1.209923	-1.111076	-0.814409
Cl126	Cl	1.709923	-0.611076	-0.314409
Cl127	Cl	1.171129	-0.969766	-0.853050
Cl128	Cl	1.671129	-0.469766	-0.353050
H129	H	1.239462	-0.777957	-0.784634
H130	H	1.739462	-0.277957	-0.284634
