data_functionalizedCrystal
_audit_creation_method	'MofGen! by Chris Wilmer'
_symmetry_space_group_name_H-M	'P1'
_symmetry_Int_Tables_number	1
_symmetry_cell_setting	triclinic
loop_
_symmetry_equiv_pos_as_xyz
  x,y,z
_cell_length_a	11.026607
_cell_length_b	14.750779
_cell_length_c	11.026607
_cell_angle_alpha	105.479780
_cell_angle_beta	108.586017
_cell_angle_gamma	74.519710
loop_
_atom_site_label
_atom_site_type_symbol
_atom_site_fract_x
_atom_site_fract_y
_atom_site_fract_z
O1	O	1.705111	0.079823	0.555228
O2	O	2.205111	0.579823	1.055228
O3	O	1.338531	0.079825	0.494465
O4	O	1.838531	0.579825	0.994465
O5	O	1.491440	0.079821	0.341555
O6	O	1.991440	0.579821	0.841555
O7	O	1.552202	0.079827	0.708137
O8	O	2.052202	0.579827	1.208137
O9	O	1.534667	-0.079831	0.298336
O10	O	2.034667	0.420169	0.798336
O11	O	1.381758	-0.079827	0.451245
O12	O	1.881758	0.420173	0.951245
O13	O	1.748338	-0.079828	0.512008
O14	O	2.248338	0.420172	1.012008
Zn15	Zn	1.571911	-0.105176	0.474765
Zn16	Zn	2.071911	0.394824	0.974765
Zn17	Zn	1.514958	0.105172	0.531708
Zn18	Zn	2.014958	0.605172	1.031708
O19	O	1.595429	-0.079824	0.664918
O20	O	2.095429	0.420176	1.164918
C21	C	1.312485	-0.000001	0.461645
C22	C	1.812485	0.499999	0.961645
C23	C	1.170471	-0.000000	0.428228
C24	C	1.670471	0.500000	0.928228
N25	N	1.610790	-0.248732	0.435903
N26	N	2.110790	0.251268	0.935903
C27	C	1.116821	0.000002	0.520499
C28	C	1.616821	0.500002	1.020499
C29	C	0.970042	0.000003	0.485963
C30	C	1.470042	0.500003	0.985963
C31	C	1.367494	-0.600544	0.679039
C32	C	1.867494	-0.100544	1.179039
C33	C	1.394748	-0.701044	0.651818
C34	C	1.894748	-0.201044	1.151818
C35	C	1.530199	-0.701010	0.516489
C36	C	2.030199	-0.201010	1.016489
C37	C	1.502951	-0.600508	0.543693
C38	C	2.002951	-0.100508	1.043693
C39	C	1.421599	-0.550283	0.624971
C40	C	1.921599	-0.050283	1.124971
C41	C	1.557056	-0.550247	0.489625
C42	C	2.057056	-0.050247	0.989625
C43	C	1.529815	-0.449754	0.516833
C44	C	2.029815	0.050246	1.016833
C45	C	1.448469	-0.399522	0.598110
C46	C	1.948469	0.100478	1.098110
C47	C	1.394358	-0.449790	0.652179
C48	C	1.894358	0.050210	1.152179
C49	C	1.638415	-0.600474	0.408355
C50	C	2.138415	-0.100474	0.908355
C51	C	1.692520	-0.550213	0.354286
C52	C	2.192520	-0.050213	0.854286
C53	C	1.665272	-0.449718	0.381487
C54	C	2.165272	0.050282	0.881487
C55	C	1.583926	-0.399486	0.462764
C56	C	2.083926	0.100514	0.962764
C57	C	1.719383	-0.399451	0.327418
C58	C	2.219383	0.100549	0.827418
C59	C	1.692142	-0.298957	0.354626
C60	C	2.192142	0.201043	0.854626
C61	C	1.556685	-0.298993	0.489972
C62	C	2.056685	0.201007	0.989972
C63	C	1.774384	-0.000001	0.544828
C64	C	2.274384	0.499999	1.044828
C65	C	1.916396	0.000005	0.578247
C66	C	2.416396	0.500005	1.078247
C67	C	1.501844	-0.000004	0.272286
C68	C	2.001844	0.499996	0.772286
C69	C	1.468426	-0.000000	0.130273
C70	C	1.968426	0.500000	0.630273
N71	N	1.476088	0.248729	0.570562
N72	N	1.976088	0.748729	1.070562
C73	C	1.560695	0.000001	0.076624
C74	C	2.060695	0.500001	0.576624
C75	C	1.526158	0.000004	-0.070153
C76	C	2.026158	0.500004	0.429847
C77	C	1.585025	0.000003	0.734187
C78	C	2.085025	0.500003	1.234187
C79	C	1.618441	0.000005	0.876202
C80	C	2.118441	0.500005	1.376202
H81	H	1.179555	-0.000001	0.625061
H82	H	1.679555	0.499999	1.125061
H83	H	0.907307	0.000026	0.381400
H84	H	1.407307	0.500026	0.881400
F85	F	1.331749	0.000009	0.048285
F86	F	1.831749	0.500009	0.548285
F87	F	0.998383	-0.000004	0.714927
F88	F	1.498383	0.499996	1.214927
H89	H	1.107731	0.000023	0.323672
H90	H	1.607731	0.500023	0.823672
F91	F	1.755122	0.000009	-0.041813
F92	F	2.255122	0.500009	0.458187
H93	H	1.490429	-0.258098	0.556145
H94	H	1.990429	0.241902	1.056145
H95	H	1.426295	-0.317694	0.620266
H96	H	1.926295	0.182306	1.120266
H97	H	1.328101	-0.408895	0.718352
H98	H	1.828101	0.091105	1.218352
F99	F	1.805975	-0.452915	0.240933
F100	F	2.305975	0.047085	0.740933
H101	H	1.301238	-0.559649	0.745212
H102	H	1.801238	-0.059649	1.245212
H103	H	1.665260	-0.000006	0.139356
H104	H	2.165260	0.499994	0.639356
F105	F	1.389475	0.000014	-0.152137
F106	F	1.889475	0.500014	0.347863
H107	H	1.350684	-0.741961	0.695857
H108	H	1.850684	-0.241961	1.195857
H109	H	1.660596	-0.682302	0.386211
H110	H	2.160596	-0.182302	0.886211
F111	F	1.616782	-0.754472	0.429994
F112	F	2.116782	-0.254472	0.929994
H113	H	1.758762	-0.591118	0.288113
H114	H	2.258762	-0.091118	0.788113
F115	F	1.749731	-0.245466	0.297082
F116	F	2.249731	0.254534	0.797082
