data_functionalizedCrystal
_audit_creation_method	'MofGen! by Chris Wilmer'
_symmetry_space_group_name_H-M	'P1'
_symmetry_Int_Tables_number	1
_symmetry_cell_setting	triclinic
loop_
_symmetry_equiv_pos_as_xyz
  x,y,z
_cell_length_a	13.897449
_cell_length_b	16.625545
_cell_length_c	13.897441
_cell_angle_alpha	89.968843
_cell_angle_beta	89.976606
_cell_angle_gamma	90.026384
loop_
_atom_site_label
_atom_site_type_symbol
_atom_site_fract_x
_atom_site_fract_y
_atom_site_fract_z
Zn1	Zn	1.474650	-0.320958	-0.545446
Zn2	Zn	1.807983	0.012375	-0.212113
Zn3	Zn	2.141317	0.345709	0.121221
Zn4	Zn	1.474522	-0.455808	-0.384146
Zn5	Zn	1.807855	-0.122475	-0.050812
Zn6	Zn	2.141188	0.210858	0.282521
Zn7	Zn	1.313339	-0.320995	-0.384157
Zn8	Zn	1.646672	0.012338	-0.050823
Zn9	Zn	1.980006	0.345671	0.282510
Zn10	Zn	1.313299	-0.455754	-0.545391
Zn11	Zn	1.646632	-0.122421	-0.212057
Zn12	Zn	1.979965	0.210912	0.121276
O13	O	1.393952	-0.388379	-0.464785
O14	O	1.727286	-0.055046	-0.131451
O15	O	2.060619	0.278288	0.201882
O16	O	1.609615	-0.338853	-0.524068
O17	O	1.942948	-0.005520	-0.190734
O18	O	2.276281	0.327813	0.142599
O19	O	1.453104	-0.437963	-0.249165
O20	O	1.786437	-0.104630	0.084168
O21	O	2.119770	0.228703	0.417501
O22	O	1.334808	-0.208158	-0.405580
O23	O	1.668141	0.125175	-0.072246
O24	O	2.001475	0.458509	0.261087
O25	O	1.609520	-0.437927	-0.405561
O26	O	1.942854	-0.104594	-0.072228
O27	O	2.276187	0.228739	0.261106
O28	O	1.453322	-0.208131	-0.524078
O29	O	1.786656	0.125203	-0.190745
O30	O	2.119989	0.458536	0.142588
O31	O	1.334684	-0.338917	-0.249174
O32	O	1.668017	-0.005584	0.084160
O33	O	2.001350	0.327750	0.417493
O34	O	1.178352	-0.338865	-0.405526
O35	O	1.511685	-0.005531	-0.072193
O36	O	1.845019	0.327802	0.261140
O37	O	1.334739	-0.437835	-0.680380
O38	O	1.668072	-0.104502	-0.347047
O39	O	2.001406	0.228832	-0.013713
O40	O	1.178322	-0.437871	-0.523984
O41	O	1.511656	-0.104538	-0.190651
O42	O	1.844989	0.228795	0.142682
O43	O	1.453283	-0.338801	-0.680420
O44	O	1.786616	-0.005468	-0.347087
O45	O	2.119950	0.327866	-0.013754
O46	O	1.453065	-0.568634	-0.405508
O47	O	1.786398	-0.235300	-0.072174
O48	O	2.119731	0.098033	0.261159
O49	O	1.334615	-0.568594	-0.523974
O50	O	1.667948	-0.235261	-0.190640
O51	O	2.001281	0.098073	0.142693
C52	C	1.143338	-0.388367	-0.464751
C53	C	1.476671	-0.055033	-0.131418
C54	C	1.810005	0.278300	0.201915
C55	C	1.036124	-0.388381	-0.464760
C56	C	1.369457	-0.055047	-0.131426
C57	C	1.702791	0.278286	0.201907
C58	C	0.949054	-0.388383	-0.464776
C59	C	1.282388	-0.055050	-0.131442
C60	C	1.615721	0.278283	0.201891
C61	C	0.839822	-0.388389	-0.464805
C62	C	1.173155	-0.055056	-0.131472
C63	C	1.506488	0.278278	0.201862
C64	C	1.393848	-0.597870	-0.464754
C65	C	1.727181	-0.264537	-0.131421
C66	C	2.060514	0.068797	0.201912
C67	C	1.393891	-0.687491	-0.464774
C68	C	1.727224	-0.354158	-0.131440
C69	C	2.060558	-0.020824	0.201893
C70	C	1.393928	-0.760273	-0.464793
C71	C	1.727262	-0.426940	-0.131460
C72	C	2.060595	-0.093607	0.201874
C73	C	1.393985	-0.851582	-0.464814
C74	C	1.727318	-0.518249	-0.131481
C75	C	2.060651	-0.184915	0.201852
C76	C	1.394035	-0.924358	-0.464826
C77	C	1.727368	-0.591025	-0.131493
C78	C	2.060701	-0.257692	0.201840
C79	C	1.394090	-1.015673	-0.464846
C80	C	1.727423	-0.682339	-0.131513
C81	C	2.060756	-0.349006	0.201820
C82	C	1.645545	-0.388392	-0.464819
C83	C	1.978879	-0.055059	-0.131486
C84	C	2.312212	0.278275	0.201848
C85	C	1.752759	-0.388398	-0.464834
C86	C	2.086093	-0.055064	-0.131500
C87	C	2.419426	0.278269	0.201833
C88	C	1.394021	-0.388308	-0.716378
C89	C	1.727354	-0.054974	-0.383045
C90	C	2.060687	0.278359	-0.049711
C91	C	1.394050	-0.388277	-0.823592
C92	C	1.727383	-0.054944	-0.490259
C93	C	2.060717	0.278389	-0.156925
C94	C	1.394084	-0.178070	-0.464836
C95	C	1.727417	0.155263	-0.131503
C96	C	2.060751	0.488597	0.201830
C97	C	1.394140	-0.088449	-0.464858
C98	C	1.727473	0.244884	-0.131525
C99	C	2.060807	0.578218	0.201808
C100	C	1.394076	-0.388223	-1.019887
C101	C	1.727409	-0.054890	-0.686554
C102	C	2.060743	0.278444	-0.353221
C103	C	1.394059	-0.388255	-0.910655
C104	C	1.727392	-0.054922	-0.577321
C105	C	2.060725	0.278411	-0.243988
C106	C	1.393940	-0.388392	-0.214170
C107	C	1.727273	-0.055059	0.119163
C108	C	2.060606	0.278275	0.452496
C109	C	1.394097	-0.388195	-0.106957
C110	C	1.727431	-0.054862	0.226376
C111	C	2.060764	0.278472	0.559710
