data_functionalizedCrystal
_audit_creation_method	'MofGen! by Chris Wilmer'
_symmetry_space_group_name_H-M	'P1'
_symmetry_Int_Tables_number	1
_symmetry_cell_setting	triclinic
loop_
_symmetry_equiv_pos_as_xyz
  x,y,z
_cell_length_a	16.974813
_cell_length_b	11.792254
_cell_length_c	16.053811
_cell_angle_alpha	92.600538
_cell_angle_beta	88.912778
_cell_angle_gamma	96.203981
loop_
_atom_site_label
_atom_site_type_symbol
_atom_site_fract_x
_atom_site_fract_y
_atom_site_fract_z
O1	O	0.104775	-1.511058	-0.076531
O2	O	0.604775	-1.011058	0.423469
O3	O	0.115898	-1.180654	-0.077278
O4	O	0.615898	-0.680654	0.422722
O5	O	-0.004358	-1.354533	-0.069151
O6	O	0.495642	-0.854533	0.430849
O7	O	0.225031	-1.337179	-0.084658
O8	O	0.725031	-0.837179	0.415342
O9	O	0.002235	-1.344961	0.069262
O10	O	0.502235	-0.844961	0.569262
O11	O	0.122490	-1.171082	0.061135
O12	O	0.622490	-0.671082	0.561135
O13	O	0.111367	-1.501486	0.061883
O14	O	0.611367	-1.001486	0.561883
Zn15	Zn	0.117976	-1.334764	0.083485
Zn16	Zn	0.617976	-0.834764	0.583485
Zn17	Zn	0.109290	-1.347376	-0.098881
Zn18	Zn	0.609290	-0.847376	0.401119
O19	O	0.231623	-1.327607	0.053756
O20	O	0.731623	-0.827607	0.553756
C21	C	0.118494	-1.133581	-0.008024
C22	C	0.618494	-0.633581	0.491976
C23	C	0.116396	-1.007580	-0.007881
C24	C	0.616396	-0.507580	0.492119
C25	C	0.114692	-0.905254	-0.007768
C26	C	0.614692	-0.405254	0.492232
C27	C	0.112562	-0.776879	-0.007622
C28	C	0.612562	-0.276879	0.492378
C29	C	-0.030429	-1.348909	0.002039
C30	C	0.469571	-0.848909	0.502039
C31	C	-0.117933	-1.346399	0.007949
C32	C	0.382067	-0.846399	0.507949
C33	C	-0.162632	-1.350440	-0.064723
C34	C	0.337368	-0.850440	0.435277
C35	C	-0.244850	-1.348073	-0.059168
C36	C	0.255150	-0.848073	0.440832
C37	C	-0.282370	-1.341674	0.019061
C38	C	0.217630	-0.841674	0.519061
C39	C	-0.237665	-1.337630	0.091738
C40	C	0.262335	-0.837630	0.591738
C41	C	-0.155447	-1.339988	0.086182
C42	C	0.344553	-0.839988	0.586182
C43	C	-0.527879	-1.334055	0.043769
C44	C	-0.027879	-0.834055	0.543769
C45	C	-0.610104	-1.331701	0.049320
C46	C	-0.110104	-0.831701	0.549320
C47	C	-0.617283	-1.342142	-0.101586
C48	C	-0.117283	-0.842142	0.398414
C49	C	-0.535064	-1.344507	-0.107136
C50	C	-0.035064	-0.844507	0.392864
C51	C	-0.490366	-1.340456	-0.034458
C52	C	0.009634	-0.840456	0.465542
N53	N	-0.366411	-1.339259	0.024741
N54	N	0.133589	-0.839259	0.524741
N55	N	-0.406325	-1.342863	-0.040140
N56	N	0.093675	-0.842863	0.459860
C57	C	0.257694	-1.333231	-0.017436
C58	C	0.757694	-0.833231	0.482564
C59	C	0.345198	-1.335742	-0.023352
C60	C	0.845198	-0.835742	0.476648
N61	N	0.123903	-1.326165	0.207945
N62	N	0.623903	-0.826165	0.707945
C63	C	0.108772	-0.548558	-0.007369
C64	C	0.608772	-0.048558	0.492631
C65	C	0.110869	-0.674559	-0.007506
C66	C	0.610869	-0.174559	0.492494
C67	C	0.072752	-1.400178	0.255095
C68	C	0.572752	-0.900178	0.755095
C69	C	0.076906	-1.394173	0.342222
C70	C	0.576906	-0.894173	0.842222
C71	C	0.132215	-1.314161	0.382195
C72	C	0.632215	-0.814161	0.882195
C73	C	0.183367	-1.240141	0.335038
C74	C	0.683367	-0.740141	0.835038
C75	C	0.179209	-1.246141	0.247914
C76	C	0.679209	-0.746141	0.747914
C77	C	0.150355	-1.287954	0.642379
C78	C	0.650355	-0.787954	1.142379
C79	C	0.154511	-1.281962	0.729509
C80	C	0.654511	-0.781962	1.229509
C81	C	0.048048	-1.435994	0.736687
C82	C	0.548048	-0.935994	1.236687
C83	C	0.043898	-1.441991	0.649560
C84	C	0.543898	-0.941991	1.149560
C85	C	0.095048	-1.367967	0.602411
C86	C	0.595048	-0.867967	1.102411
N87	N	0.136464	-1.308024	0.471252
N88	N	0.636464	-0.808024	0.971252
N89	N	0.090795	-1.374099	0.513356
N90	N	0.590795	-0.874099	1.013356
N91	N	0.103361	-1.355974	0.776660
N92	N	0.603361	-0.855974	1.276660
H93	H	-0.132090	-1.355656	-0.128425
H94	H	0.367910	-0.855656	0.371575
H95	H	0.220860	-1.185871	0.209524
H96	H	0.720860	-0.685871	0.709524
H97	H	-0.001138	-1.507143	0.617016
H98	H	0.498862	-1.007143	1.117016
N99	N	0.021743	-1.474013	0.393074
N100	N	0.521743	-0.974013	0.893074
H101	H	0.032766	-1.458071	0.454333
H102	H	0.532766	-0.958071	0.954333
H103	H	-0.034959	-1.461791	0.381637
H104	H	0.465041	-0.961791	0.881637
H105	H	-0.281241	-1.351369	-0.118345
H106	H	0.218759	-0.851369	0.381655
H107	H	-0.640648	-1.326484	0.113027
H108	H	-0.140648	-0.826484	0.613027
H109	H	0.228398	-1.174988	0.367589
H110	H	0.728398	-0.674988	0.867589
H111	H	-0.491497	-1.330779	0.102949
H112	H	0.008503	-0.830779	0.602949
H113	H	-0.268219	-1.332413	0.155434
H114	H	0.231781	-0.832413	0.655434
H115	H	0.192005	-1.227683	0.603996
H116	H	0.692005	-0.727683	1.103996
H117	H	-0.504522	-1.349719	-0.170838
H118	H	-0.004522	-0.849719	0.329162
H119	H	0.027718	-1.465336	0.222555
H120	H	0.527718	-0.965336	0.722555
N121	N	-0.665493	-1.346513	-0.179970
N122	N	-0.165493	-0.846513	0.320030
H123	H	-0.693680	-1.275475	-0.181446
H124	H	-0.193680	-0.775475	0.318554
H125	H	-0.629197	-1.350967	-0.230322
H126	H	-0.129197	-0.850967	0.269678
N127	N	-0.107231	-1.335624	0.164563
N128	N	0.392769	-0.835624	0.664563
H129	H	-0.143474	-1.331214	0.214964
H130	H	0.356526	-0.831214	0.714964
H131	H	-0.079046	-1.406668	0.165957
H132	H	0.420954	-0.906668	0.665957
H133	H	0.006404	-1.496259	0.775084
H134	H	0.506404	-0.996259	1.275084
H135	H	0.199553	-1.216803	0.762051
H136	H	0.699553	-0.716803	1.262051
