data_functionalizedCrystal
_audit_creation_method	'MofGen! by Chris Wilmer'
_symmetry_space_group_name_H-M	'P1'
_symmetry_Int_Tables_number	1
_symmetry_cell_setting	triclinic
loop_
_symmetry_equiv_pos_as_xyz
  x,y,z
_cell_length_a	16.992694
_cell_length_b	14.853567
_cell_length_c	16.053802
_cell_angle_alpha	92.572962
_cell_angle_beta	87.249047
_cell_angle_gamma	87.151577
loop_
_atom_site_label
_atom_site_type_symbol
_atom_site_fract_x
_atom_site_fract_y
_atom_site_fract_z
O1	O	1.043898	0.187626	-0.069313
O2	O	1.543898	0.687626	0.430687
O3	O	0.815612	0.185528	-0.069338
O4	O	1.315612	0.685528	0.430662
O5	O	0.935853	0.055778	-0.069327
O6	O	1.435853	0.555778	0.430673
O7	O	0.923657	0.317376	-0.069323
O8	O	1.423657	0.817376	0.430677
O9	O	0.929234	0.062888	0.069531
O10	O	1.429234	0.562888	0.569531
O11	O	0.808993	0.192638	0.069521
O12	O	1.308993	0.692638	0.569521
O13	O	1.037280	0.194737	0.069545
O14	O	1.537280	0.694737	0.569545
Zn15	Zn	0.922086	0.194816	0.091580
Zn16	Zn	1.422086	0.694816	0.591580
Zn17	Zn	0.930806	0.185448	-0.091372
Zn18	Zn	1.430806	0.685448	0.408628
O19	O	0.917038	0.324487	0.069535
O20	O	1.417038	0.824487	0.569535
C21	C	0.783087	0.186385	0.000088
C22	C	1.283087	0.686385	0.500088
C23	C	0.696035	0.178334	0.000078
C24	C	1.196035	0.678334	0.500078
C25	C	0.645879	0.256009	0.000080
C26	C	1.145879	0.756009	0.500080
C27	C	0.564083	0.248440	0.000092
C28	C	1.064083	0.748440	0.500092
C29	C	0.532446	0.163195	0.000095
C30	C	1.032446	0.663195	0.500095
C31	C	0.582608	0.085513	0.000096
C32	C	1.082608	0.585513	0.500096
C33	C	0.664401	0.093084	0.000091
C34	C	1.164401	0.593084	0.500091
C35	C	0.288813	0.131819	0.000117
C36	C	0.788813	0.631819	0.500117
C37	C	0.207013	0.124255	0.000120
C38	C	0.707013	0.624255	0.500120
C39	C	0.188494	0.287183	0.000117
C40	C	0.688494	0.787183	0.500117
C41	C	0.270290	0.294745	0.000107
C42	C	0.770290	0.794745	0.500107
C43	C	0.320445	0.217064	0.000112
C44	C	0.820445	0.717064	0.500112
N45	N	0.448838	0.155456	0.000104
N46	N	0.948838	0.655456	0.500104
N47	N	0.404051	0.224804	0.000109
N48	N	0.904051	0.724804	0.500109
C49	C	0.931991	0.025705	0.000099
C50	C	1.431991	0.525705	0.500099
C51	C	0.930335	-0.074496	0.000092
C52	C	1.430335	0.425504	0.500092
C53	C	0.851909	-0.492567	0.000099
C54	C	1.351909	0.007433	0.500099
C55	C	0.994758	-0.503761	0.000115
C56	C	1.494758	-0.003761	0.500115
C57	C	0.996315	-0.409617	0.000110
C58	C	1.496315	0.090383	0.500110
C59	C	0.925668	-0.356944	0.000101
C60	C	1.425668	0.143056	0.500101
C61	C	0.853464	-0.398414	0.000097
C62	C	1.353464	0.101586	0.500097
C63	C	1.068518	-0.368139	0.000123
C64	C	1.568518	0.131861	0.500123
C65	C	1.070078	-0.273990	0.000119
C66	C	1.570078	0.226010	0.500119
C67	C	0.999430	-0.221316	0.000104
C68	C	1.499430	0.278684	0.500104
C69	C	0.927223	-0.262792	0.000099
C70	C	1.427223	0.237208	0.500099
C71	C	0.856576	-0.210118	0.000090
C72	C	1.356576	0.289882	0.500090
C73	C	0.784368	-0.251593	0.000079
C74	C	1.284368	0.248407	0.500079
C75	C	0.782816	-0.345740	0.000082
C76	C	1.282816	0.154260	0.500082
C77	C	1.000983	-0.127169	0.000101
C78	C	1.500983	0.372831	0.500101
C79	C	0.858131	-0.115966	0.000088
C80	C	1.358131	0.384034	0.500088
C81	C	1.069804	0.193880	0.000118
C82	C	1.569804	0.693880	0.500118
C83	C	1.156857	0.201930	0.000122
C84	C	1.656857	0.701930	0.500122
C85	C	0.920900	0.354559	0.000106
C86	C	1.420900	0.854559	0.500106
C87	C	0.922556	0.454760	0.000108
C88	C	1.422556	0.954760	0.500108
N89	N	0.916140	0.201210	0.216440
N90	N	1.416140	0.701210	0.716440
N91	N	0.936757	0.179048	-0.216232
N92	N	1.436757	0.679048	0.283768
C93	C	0.967322	0.146023	0.260138
C94	C	1.467322	0.646023	0.760138
C95	C	0.963170	0.150505	0.347544
C96	C	1.463170	0.650505	0.847544
C97	C	0.907840	0.210178	0.391251
C98	C	1.407840	0.710178	0.891251
C99	C	0.856653	0.265367	0.347546
C100	C	1.356653	0.765367	0.847546
C101	C	0.860801	0.260880	0.260141
C102	C	1.360801	0.760880	0.760141
C103	C	0.889719	0.229750	0.652659
C104	C	1.389719	0.729750	1.152659
C105	C	0.885576	0.234235	0.740070
C106	C	1.385576	0.734235	1.240070
C107	C	0.992092	0.119371	0.740062
C108	C	1.492092	0.619371	1.240062
C109	C	0.996239	0.114894	0.652655
C110	C	1.496239	0.614894	1.152655
C111	C	0.945049	0.170079	0.608958
C112	C	1.445049	0.670079	1.108958
N113	N	0.903597	0.214762	0.480594
N114	N	1.403597	0.714762	0.980594
N115	N	0.949289	0.165490	0.519617
N116	N	1.449289	0.665490	1.019617
H117	H	0.523249	0.311692	0.000092
H118	H	1.023249	0.811692	0.500092
H119	H	0.819123	0.305817	0.224563
H120	H	1.319123	0.805817	0.724563
O121	O	0.802868	0.323211	0.390094
O122	O	1.302868	0.823211	0.890094
C123	C	0.752034	0.273999	0.440650
C124	C	1.252034	0.773999	0.940650
H125	H	0.782570	0.206391	0.453745
H126	H	1.282570	0.706391	0.953745
H127	H	0.736754	0.313885	0.502112
H128	H	1.236754	0.813885	1.002112
H129	H	0.695672	0.261930	0.406976
H130	H	1.195672	0.761930	0.906976
O131	O	1.012869	0.096773	0.389896
O132	O	1.512869	0.596773	0.889896
C133	C	1.001043	0.005494	0.368561
C134	C	1.501043	0.505494	0.868561
H135	H	0.973824	0.000147	0.305107
H136	H	1.473824	0.500147	0.805107
H137	H	1.060086	-0.034762	0.365559
H138	H	1.560086	0.465238	0.865559
H139	H	0.959659	-0.022713	0.417765
H140	H	1.459659	0.477287	0.917765
H141	H	1.052275	-0.546652	0.000129
H142	H	1.552275	-0.046652	0.500129
O143	O	0.300888	0.377625	0.000145
O144	O	0.800888	0.877625	0.500145
C145	C	0.239079	0.444561	0.000129
C146	C	0.739079	0.944561	0.500129
H147	H	0.182239	0.416632	0.026421
H148	H	0.682239	0.916632	0.526421
H149	H	0.254320	0.505787	0.040442
H150	H	0.754320	1.005787	0.540442
H151	H	0.230698	0.465392	-0.066488
H152	H	0.730698	0.965392	0.433512
O153	O	1.050008	0.056845	0.610331
O154	O	1.550008	0.556845	1.110331
C155	C	1.094306	0.009111	0.667644
C156	C	1.594306	0.509111	1.167644
H157	H	1.059201	0.008951	0.729954
H158	H	1.559201	0.508951	1.229954
H159	H	1.107392	-0.063318	0.642394
H160	H	1.607392	0.436682	1.142394
H161	H	1.152145	0.043100	0.676929
H162	H	1.652145	0.543100	1.176929
H163	H	1.126034	-0.411032	0.000138
H164	H	1.626034	0.088968	0.500138
H165	H	0.181257	0.054834	0.000122
H166	H	0.681257	0.554834	0.500122
O167	O	0.831926	0.292301	0.782561
O168	O	1.331926	0.792301	1.282561
C169	C	0.871573	0.353566	0.833121
C170	C	1.371573	0.853566	1.333121
H171	H	0.934662	0.358239	0.806771
H172	H	1.434662	0.858239	1.306771
H173	H	0.839603	0.422951	0.834109
H174	H	1.339603	0.922951	1.334109
H175	H	0.872513	0.329050	0.899366
H176	H	1.372513	0.829050	1.399366
H177	H	0.724028	-0.379517	0.000074
H178	H	1.224028	0.120483	0.500074
O179	O	0.676476	0.338889	0.000113
O180	O	1.176476	0.838889	0.500113
C181	C	0.614664	0.405822	0.000097
C182	C	1.114664	0.905822	0.500097
H183	H	0.557826	0.377889	0.026390
H184	H	1.057826	0.877889	0.526390
H185	H	0.629902	0.467049	0.040410
H186	H	1.129902	0.967049	0.540410
H187	H	0.606281	0.426653	-0.066519
H188	H	1.106281	0.926653	0.433481
O189	O	0.789549	-0.064702	0.000189
O190	O	1.289549	0.435298	0.500189
C191	C	0.782732	-0.006241	0.072116
C192	C	1.282732	0.493759	0.572116
H193	H	0.843834	0.004232	0.096103
H194	H	1.343834	0.504232	0.596103
H195	H	0.754367	0.061505	0.055938
H196	H	1.254367	0.561505	0.555938
H197	H	0.744484	-0.037183	0.122468
H198	H	1.244484	0.462817	0.622468
H199	H	1.128874	-0.240230	0.000127
H200	H	1.628874	0.259770	0.500127
H201	H	0.793119	-0.526340	0.000087
H202	H	1.293119	-0.026340	0.500087
H203	H	0.147649	0.350426	0.000115
H204	H	0.647649	0.850426	0.500115
O205	O	0.715772	-0.200391	-0.000077
O206	O	1.215772	0.299609	0.499923
C207	C	0.715842	-0.149260	-0.071980
C208	C	1.215842	0.350740	0.428020
H209	H	0.758298	-0.183388	-0.122241
H210	H	1.258298	0.316612	0.377759
H211	H	0.653840	-0.144465	-0.096128
H212	H	1.153840	0.355535	0.403872
H213	H	0.735443	-0.078583	-0.055714
H214	H	1.235443	0.421417	0.444286
H215	H	1.059773	-0.093404	0.000115
H216	H	1.559773	0.406596	0.500115
H217	H	1.012380	0.097435	0.224558
H218	H	1.512380	0.597435	0.724558
O219	O	1.041728	0.065797	0.782639
O220	O	1.541728	0.565797	1.282639
C221	C	1.026219	0.082565	0.869157
C222	C	1.526219	0.582565	1.369157
H223	H	0.963347	0.112344	0.881102
H224	H	1.463347	0.612344	1.381102
H225	H	1.033293	0.016623	0.902378
H226	H	1.533293	0.516623	1.402378
H227	H	1.069473	0.132284	0.893951
H228	H	1.569473	0.632284	1.393951
H229	H	0.848039	0.274686	0.617088
H230	H	1.348039	0.774686	1.117088
H231	H	0.329640	0.068566	0.000122
H232	H	0.829640	0.568566	0.500122
H233	H	0.556842	0.016105	0.000111
H234	H	1.056842	0.516105	0.500111
H235	H	0.705238	0.029832	0.000089
H236	H	1.205238	0.529832	0.500089
