data_functionalizedCrystal
_audit_creation_method	'MofGen! by Chris Wilmer'
_symmetry_space_group_name_H-M	'P1'
_symmetry_Int_Tables_number	1
_symmetry_cell_setting	triclinic
loop_
_symmetry_equiv_pos_as_xyz
  x,y,z
_cell_length_a	14.044220
_cell_length_b	10.489741
_cell_length_c	13.101039
_cell_angle_alpha	93.396862
_cell_angle_beta	86.340132
_cell_angle_gamma	88.864026
loop_
_atom_site_label
_atom_site_type_symbol
_atom_site_fract_x
_atom_site_fract_y
_atom_site_fract_z
O1	O	1.264971	0.301301	-0.085104
O2	O	0.988928	0.290194	-0.085130
O3	O	1.133230	0.110787	-0.085110
O4	O	1.120668	0.480707	-0.085124
O5	O	1.122877	0.123682	0.085318
O6	O	0.978574	0.303089	0.085298
O7	O	1.254618	0.314196	0.085324
Zn8	Zn	1.114952	0.310690	0.112370
Zn9	Zn	1.128593	0.293700	-0.112176
O10	O	1.110315	0.493603	0.085305
C11	C	0.948404	0.291780	0.000081
C12	C	0.843079	0.277280	0.000071
C13	C	1.127105	0.069607	0.000103
C14	C	1.124266	-0.072311	0.000101
C15	C	0.650236	0.250773	0.000092
C16	C	0.593304	0.353611	0.000093
C17	C	0.486000	0.338862	0.000105
C18	C	0.757551	0.265520	0.000080
C19	C	1.032451	-0.149765	0.000085
C20	C	1.070719	-0.231130	0.084119
C21	C	1.080948	-0.243816	-0.083910
C22	C	1.162568	-0.151801	0.084204
C23	C	1.172789	-0.164485	-0.083900
C24	C	1.211123	-0.245814	0.000155
C25	C	1.295142	0.312609	0.000111
C26	C	1.400466	0.327109	0.000114
C27	C	1.116441	0.534783	0.000089
C28	C	1.119280	0.676700	0.000084
N29	N	1.105649	0.322285	0.265618
N30	N	1.137903	0.282095	-0.265424
C31	C	1.092993	0.338073	0.474659
C32	C	1.150557	0.266311	0.525542
C33	C	1.143515	0.275096	0.641860
C34	C	1.100034	0.329290	0.358331
H35	H	0.625153	0.452730	0.000084
H36	H	1.205129	0.198277	0.481747
H37	H	0.618389	0.151662	0.000101
C38	C	1.020182	0.428595	0.533178
C39	C	0.957902	0.358667	0.594802
C40	C	0.890828	0.442015	0.648749
H41	H	0.984889	0.472509	0.486080
H42	H	1.052227	0.488645	0.575088
H43	H	0.925859	0.298640	0.552895
H44	H	0.993167	0.314756	0.641919
H45	H	0.922874	0.502066	0.690659
H46	H	0.855543	0.485926	0.601643
H47	H	0.848569	0.394584	0.690574
C48	C	0.931757	-0.093805	0.000393
C49	C	0.878768	-0.127252	0.088579
C50	C	0.786012	-0.075708	0.088910
H51	H	0.902279	-0.126539	-0.058630
H52	H	0.934262	-0.003405	-0.000160
H53	H	0.876259	-0.217633	0.089124
H54	H	0.908216	-0.094518	0.147617
H55	H	0.788517	0.014691	0.088356
H56	H	0.756543	-0.108447	0.029883
H57	H	0.750050	-0.098385	0.148747
H58	H	1.027554	-0.260706	0.155157
H59	H	1.286678	-0.287571	0.000208
C60	C	1.208493	-0.098026	0.179008
C61	C	1.210559	0.035283	0.177945
C62	C	1.252842	0.084868	0.265266
H63	H	1.271788	-0.131565	0.179347
H64	H	1.172462	-0.121263	0.238630
H65	H	1.246591	0.058509	0.118338
H66	H	1.147277	0.068857	0.177621
H67	H	1.216811	0.061630	0.324889
H68	H	1.316135	0.051319	0.265598
H69	H	1.254242	0.175323	0.264562
H70	H	1.046404	-0.284097	-0.154961
C71	C	1.230147	-0.125063	-0.178746
C72	C	1.187086	-0.171661	-0.266502
C73	C	1.239882	-0.135353	-0.353900
H74	H	1.293311	-0.159362	-0.179488
H75	H	1.231992	-0.034514	-0.177769
H76	H	1.185251	-0.262192	-0.267479
H77	H	1.123927	-0.137367	-0.265793
H78	H	1.241727	-0.044803	-0.352924
H79	H	1.303043	-0.169655	-0.354632
H80	H	1.210668	-0.166954	-0.413452
