data_functionalizedCrystal
_audit_creation_method	'MofGen! by Chris Wilmer'
_symmetry_space_group_name_H-M	'P1'
_symmetry_Int_Tables_number	1
_symmetry_cell_setting	triclinic
loop_
_symmetry_equiv_pos_as_xyz
  x,y,z
_cell_length_a	27.732048
_cell_length_b	17.699083
_cell_length_c	16.176319
_cell_angle_alpha	89.993297
_cell_angle_beta	90.011761
_cell_angle_gamma	97.037331
loop_
_atom_site_label
_atom_site_type_symbol
_atom_site_fract_x
_atom_site_fract_y
_atom_site_fract_z
O1	O	0.061125	-1.003540	0.068742
O2	O	0.561125	-0.503540	0.568742
O3	O	0.069078	-0.783092	0.068747
O4	O	0.569078	-0.283092	0.568747
O5	O	-0.005270	-0.900163	0.068729
O6	O	0.494730	-0.400163	0.568729
O7	O	0.135474	-0.886469	0.068760
O8	O	0.635474	-0.386469	0.568760
O9	O	-0.005275	-0.900147	-0.068765
O10	O	0.494725	-0.400147	0.431235
O11	O	0.069074	-0.783076	-0.068746
O12	O	0.569074	-0.283076	0.431254
O13	O	0.061120	-1.003524	-0.068752
O14	O	0.561120	-0.503524	0.431248
Cu15	Cu	0.065097	-0.893299	-0.081303
Cu16	Cu	0.565097	-0.393299	0.418697
Cu17	Cu	0.065102	-0.893317	0.081299
Cu18	Cu	0.565102	-0.393317	0.581299
O19	O	0.135469	-0.886453	-0.068733
O20	O	0.635469	-0.386453	0.431267
C21	C	0.068791	-0.754889	0.000001
C22	C	0.568791	-0.254889	0.500001
C23	C	0.067936	-0.670879	0.000003
C24	C	0.567936	-0.170879	0.500003
C25	C	-0.023281	-0.899867	-0.000020
C26	C	0.476719	-0.399867	0.499980
C27	C	-0.076939	-0.899002	-0.000027
C28	C	0.423061	-0.399002	0.499973
C29	C	0.067531	-0.631406	-0.074945
C30	C	0.567531	-0.131406	0.425055
C31	C	0.066720	-0.552471	-0.074946
C32	C	0.566720	-0.052471	0.425054
C33	C	0.066318	-0.513009	0.000002
C34	C	0.566318	-0.013009	0.500002
C35	C	0.066722	-0.552487	0.074956
C36	C	0.566722	-0.052487	0.574956
C37	C	0.067529	-0.631422	0.074956
C38	C	0.567529	-0.131422	0.574956
C39	C	0.063465	-0.234153	0.074958
C40	C	0.563465	0.265847	0.574958
C41	C	0.062659	-0.155213	0.074952
C42	C	0.562659	0.344787	0.574952
C43	C	0.062656	-0.155203	-0.074944
C44	C	0.562656	0.344797	0.425056
C45	C	0.063463	-0.234137	-0.074944
C46	C	0.563463	0.265863	0.425056
C47	C	0.063865	-0.273609	0.000009
C48	C	0.563865	0.226391	0.500009
C49	C	0.064743	-0.359200	0.000009
C50	C	0.564743	0.140800	0.500009
C51	C	0.065443	-0.427419	0.000003
C52	C	0.565443	0.072581	0.500003
C53	C	-0.415525	-0.962734	0.000014
C54	C	0.084475	-0.462734	0.500014
C55	C	-0.617196	-0.959523	0.000025
C56	C	-0.117196	-0.459523	0.500025
O57	O	-0.648242	-1.017801	0.000060
O58	O	-0.148242	-0.517801	0.500060
N59	N	-0.636569	-0.890104	0.000026
N60	N	-0.136569	-0.390104	0.500026
C61	C	-0.605521	-0.821484	0.000030
C62	C	-0.105521	-0.321484	0.500030
O63	O	-0.626627	-0.762366	0.000040
O64	O	-0.126627	-0.262366	0.500040
C65	C	-0.403851	-0.824696	0.000024
C66	C	0.096149	-0.324696	0.500024
C67	C	-0.384481	-0.894119	0.000015
C68	C	0.115519	-0.394119	0.500015
C69	C	-0.396154	-1.032151	0.000005
C70	C	0.103846	-0.532151	0.500005
C71	C	-0.345739	-1.032953	-0.000002
C72	C	0.154261	-0.532953	0.499998
C73	C	-0.314695	-0.964338	-0.000001
C74	C	0.185305	-0.464338	0.499999
C75	C	-0.334066	-0.894921	0.000007
C76	C	0.165934	-0.394921	0.500007
C77	C	-0.372804	-0.756077	0.000034
C78	C	0.127196	-0.256077	0.500034
C79	C	-0.322384	-0.756886	0.000034
C80	C	0.177616	-0.256886	0.500034
C81	C	-0.303013	-0.826309	0.000025
C82	C	0.196987	-0.326309	0.500025
C83	C	-0.252607	-0.827108	0.000001
C84	C	0.247393	-0.327108	0.500001
N85	N	-0.233234	-0.896526	0.000000
N86	N	0.266766	-0.396526	0.500000
C87	C	-0.264278	-0.965141	-0.000001
C88	C	0.235722	-0.465141	0.499999
C89	C	-0.711401	-0.819803	0.000031
C90	C	-0.211401	-0.319803	0.500031
C91	C	-0.761819	-0.818999	0.000031
C92	C	-0.261819	-0.318999	0.500031
C93	C	-0.773490	-0.957038	0.000028
C94	C	-0.273490	-0.457038	0.500028
C95	C	-0.723072	-0.957841	0.000022
C96	C	-0.223072	-0.457841	0.500022
C97	C	-0.692028	-0.889221	0.000030
C98	C	-0.192028	-0.389221	0.500030
C99	C	-0.158403	-0.966821	-0.000017
C100	C	0.341597	-0.466821	0.499983
C101	C	-0.107983	-0.967617	-0.000028
C102	C	0.392017	-0.467617	0.499972
C103	C	-0.096316	-0.829578	-0.000021
C104	C	0.403684	-0.329578	0.499979
C105	C	-0.146731	-0.828782	-0.000014
C106	C	0.353269	-0.328782	0.499986
C107	C	-0.177774	-0.897409	-0.000010
C108	C	0.322226	-0.397409	0.499990
O109	O	-0.221532	-0.768861	-0.000024
O110	O	0.278468	-0.268861	0.499976
O111	O	-0.243163	-1.024251	0.000008
O112	O	0.256837	-0.524251	0.500008
C113	C	-0.465940	-0.961932	0.000021
C114	C	0.034060	-0.461932	0.500021
C115	C	-0.485310	-0.892515	0.000030
C116	C	0.014690	-0.392515	0.500030
C117	C	-0.454266	-0.823900	0.000031
C118	C	0.045734	-0.323900	0.500031
C119	C	-0.535728	-0.891712	0.000030
C120	C	-0.035728	-0.391712	0.500030
C121	C	-0.566772	-0.960327	0.000028
C122	C	-0.066772	-0.460327	0.500028
C123	C	-0.547398	-1.029745	0.000027
C124	C	-0.047398	-0.529745	0.500027
C125	C	-0.496984	-1.030547	0.000020
C126	C	0.003016	-0.530547	0.500020
C127	C	-0.473640	-0.754482	0.000032
C128	C	0.026360	-0.254482	0.500032
C129	C	-0.524055	-0.753685	0.000038
C130	C	-0.024055	-0.253685	0.500038
C131	C	-0.555099	-0.822300	0.000037
C132	C	-0.055099	-0.322300	0.500037
C133	C	0.153479	-0.886749	0.000018
C134	C	0.653479	-0.386749	0.500018
C135	C	0.207137	-0.887614	0.000030
C136	C	0.707137	-0.387614	0.500030
N137	N	0.065092	-0.893291	-0.195668
N138	N	0.565092	-0.393291	0.304332
C139	C	0.061405	-0.031727	-0.000003
C140	C	0.561405	0.468273	0.499997
C141	C	0.062251	-0.115740	0.000003
C142	C	0.562251	0.384260	0.500003
C143	C	0.032184	-0.945145	-0.238941
C144	C	0.532184	-0.445145	0.261059
C145	C	0.032184	-0.945149	-0.325488
C146	C	0.532184	-0.445149	0.174512
C147	C	0.065094	-0.893302	-0.368761
C148	C	0.565094	-0.393302	0.131239
C149	C	0.098004	-0.841442	-0.325482
C150	C	0.598004	-0.341442	0.174518
C151	C	0.098002	-0.841435	-0.238937
C152	C	0.598002	-0.341435	0.261063
C153	C	0.098013	-0.841467	-0.674510
C154	C	0.598013	-0.341467	-0.174510
C155	C	0.098013	-0.841480	-0.761062
C156	C	0.598013	-0.341480	-0.261062
C157	C	0.032195	-0.945182	-0.761062
C158	C	0.532195	-0.445182	-0.261062
C159	C	0.032193	-0.945175	-0.674516
C160	C	0.532193	-0.445175	-0.174516
C161	C	0.065100	-0.893313	-0.631245
C162	C	0.565100	-0.393313	-0.131245
C163	C	0.065100	-0.893308	-0.537401
C164	C	0.565100	-0.393308	-0.037401
C165	C	0.065097	-0.893309	-0.462603
C166	C	0.565097	-0.393309	0.037397
N167	N	0.065103	-0.893331	0.195664
N168	N	0.565103	-0.393331	0.695664
H169	H	0.067862	-0.663530	-0.135977
H170	H	0.567862	-0.163530	0.364023
O171	O	0.066288	-0.509893	-0.155783
O172	O	0.566288	-0.009893	0.344217
H173	H	0.066711	-0.550593	-0.207898
H174	H	0.566711	-0.050593	0.292102
H175	H	-0.798775	-1.012907	0.000027
H176	H	-0.298775	-0.512907	0.500027
H177	H	0.063793	-0.266263	-0.135975
H178	H	0.563793	0.233737	0.364025
O179	O	-0.003305	-1.001116	-0.807731
O180	O	0.496695	-0.501116	-0.307731
H181	H	0.002219	-0.992407	-0.875181
H182	H	0.502219	-0.492407	-0.375181
O183	O	-0.003307	-1.001088	-0.627840
O184	O	0.496693	-0.501088	-0.127840
H185	H	0.002797	-1.060019	-0.644432
H186	H	0.502797	-0.560019	-0.144432
H187	H	-0.686129	-0.763921	0.000038
H188	H	-0.186129	-0.263921	0.500038
H189	H	0.005387	-0.987369	-0.203713
H190	H	0.505387	-0.487369	0.296287
H191	H	-0.777585	-0.762468	0.000025
H192	H	-0.277585	-0.262468	0.500025
H193	H	-0.092215	-1.024151	-0.000038
H194	H	0.407785	-0.524151	0.499962
O195	O	0.133511	-0.785540	-0.627849
O196	O	0.633511	-0.285540	-0.127849
H197	H	0.113195	-0.748984	-0.588441
H198	H	0.613195	-0.248984	-0.088441
O199	O	-0.288904	-0.682869	0.000034
O200	O	0.211096	-0.182869	0.500034
H201	H	-0.265647	-0.679932	0.056074
H202	H	0.234353	-0.179932	0.556074
H203	H	-0.162503	-0.772252	-0.000030
H204	H	0.337497	-0.272252	0.499970
H205	H	0.066391	-0.520352	0.135981
H206	H	0.566391	-0.020352	0.635981
O207	O	0.067970	-0.674001	0.155793
O208	O	0.567970	-0.174001	0.655793
H209	H	0.067559	-0.633300	0.207910
H210	H	0.567559	-0.133300	0.707910
O211	O	0.133510	-0.785557	-0.807743
O212	O	0.633510	-0.285557	-0.307743
H213	H	0.156979	-0.817152	-0.847145
H214	H	0.656979	-0.317152	-0.347145
O215	O	0.062446	-0.112583	-0.155792
O216	O	0.562446	0.387417	0.344208
H217	H	0.061895	-0.051049	-0.143205
H218	H	0.561895	0.448951	0.356795
H219	H	0.124798	-0.799223	-0.360720
H220	H	0.624798	-0.299223	0.139280
O221	O	-0.702183	-1.032719	0.000029
O222	O	-0.202183	-0.532719	0.500029
H223	H	-0.714669	-1.065658	-0.056008
H224	H	-0.214669	-0.565658	0.443992
O225	O	-0.003301	-1.001091	-0.372164
O226	O	0.496699	-0.501091	0.127836
H227	H	-0.026179	-1.037153	-0.327533
H228	H	0.473821	-0.537153	0.172467
O229	O	0.062209	-0.112649	0.155793
O230	O	0.562209	0.387351	0.655793
H231	H	0.062614	-0.153359	0.207914
H232	H	0.562614	0.346641	0.707914
H233	H	0.124798	-0.799209	-0.203705
H234	H	0.624798	-0.299209	0.296295
H235	H	-0.388566	-0.699545	0.000047
H236	H	0.111434	-0.199545	0.500047
O237	O	-0.191881	-1.040838	-0.000025
O238	O	0.308119	-0.540838	0.499975
H239	H	-0.169934	-1.089236	-0.000042
H240	H	0.330066	-0.589236	0.499958
H241	H	-0.329973	-1.089484	-0.000007
H242	H	0.170027	-0.589484	0.499993
O243	O	-0.429634	-1.106163	-0.000008
O244	O	0.070366	-0.606163	0.499992
H245	H	-0.407686	-1.154560	-0.000022
H246	H	0.092314	-0.654560	0.499978
H247	H	-0.071031	-0.773714	-0.000023
H248	H	0.428969	-0.273714	0.499977
O249	O	0.063903	-0.276722	0.155796
O250	O	0.563903	0.223278	0.655796
H251	H	0.063494	-0.236017	0.207910
H252	H	0.563494	0.263983	0.707910
H253	H	-0.481217	-1.087078	0.000013
H254	H	0.018783	-0.587078	0.500013
H255	H	-0.572684	-1.085614	0.000023
H256	H	-0.072684	-0.585614	0.500023
H257	H	-0.539821	-0.697149	0.000039
H258	H	-0.039821	-0.197149	0.500039
H259	H	-0.448368	-0.698606	0.000035
H260	H	0.051632	-0.198606	0.500035
