data_functionalizedCrystal
_audit_creation_method	'MofGen! by Chris Wilmer'
_symmetry_space_group_name_H-M	'P1'
_symmetry_Int_Tables_number	1
_symmetry_cell_setting	triclinic
loop_
_symmetry_equiv_pos_as_xyz
  x,y,z
_cell_length_a	10.685901
_cell_length_b	10.686285
_cell_length_c	17.077396
_cell_angle_alpha	85.608118
_cell_angle_beta	94.362478
_cell_angle_gamma	81.630962
loop_
_atom_site_label
_atom_site_type_symbol
_atom_site_fract_x
_atom_site_fract_y
_atom_site_fract_z
Zn1	Zn	1.979321	-0.653888	-0.318046
Zn2	Zn	1.995513	-0.866148	-0.175903
Zn3	Zn	1.767072	-0.637681	-0.197718
Zn4	Zn	1.783353	-0.849829	-0.318052
O5	O	1.881315	-0.751887	-0.252430
O6	O	2.159086	-0.695657	-0.290059
O7	O	1.965173	-0.835888	-0.068950
O8	O	1.781637	-0.462215	-0.222807
O9	O	2.170982	-0.851604	-0.185627
O10	O	1.937576	-0.474122	-0.311211
O11	O	1.797338	-0.668035	-0.084977
O12	O	1.591614	-0.652211	-0.222812
O13	O	1.809386	-0.823790	-0.427898
O14	O	1.603576	-0.808075	-0.311221
O15	O	1.953363	-0.679833	-0.427894
O16	O	1.980960	-1.041599	-0.185633
O17	O	1.825087	-1.029609	-0.290068
C18	C	1.551541	-0.726614	-0.269385
C19	C	1.410465	-0.715833	-0.276655
C20	C	1.906582	-1.081661	-0.235499
C21	C	1.917507	-1.222748	-0.228277
C22	C	2.212376	-0.777259	-0.235409
C23	C	2.353455	-0.788071	-0.228156
C24	C	1.881384	-0.751799	-0.457175
C25	C	1.881414	-0.751762	-0.544425
C26	C	1.855984	-0.420827	-0.269442
C27	C	1.845189	-0.279750	-0.276691
C28	C	1.956385	-0.676797	-0.585415
C29	C	1.956397	-0.676756	-0.667396
C30	C	1.881444	-0.751687	-0.708387
C31	C	1.806464	-0.826655	-0.667392
C32	C	1.806446	-0.826688	-0.585412
C33	C	1.806509	-0.826582	-0.838263
C34	C	1.806529	-0.826551	-0.920248
C35	C	1.956461	-0.676650	-0.920248
C36	C	1.956443	-0.676683	-0.838268
C37	C	1.881464	-0.751653	-0.797278
C38	C	1.881311	-0.751888	-0.048482
C39	C	1.881500	-0.751586	0.038762
H40	H	1.351341	-0.645742	-0.323744
Cl41	Cl	1.736692	-1.188454	-0.349221
Cl42	Cl	2.025995	-1.314049	-0.155735
Cl43	Cl	2.050625	-0.582598	-0.533891
Cl44	Cl	2.050712	-0.582570	-0.718917
Cl45	Cl	2.050679	-0.582491	-0.786737
Cl46	Cl	1.712247	-0.920830	-0.786735
Cl47	Cl	1.712232	-0.920850	-0.718923
H48	H	1.412573	-0.858168	-0.181076
H49	H	2.017508	-0.615605	-0.953625
H50	H	1.745492	-0.887564	-0.953621
Cl51	Cl	1.712188	-0.920929	-0.533883
