data_functionalizedCrystal
_audit_creation_method	'MofGen! by Chris Wilmer'
_symmetry_space_group_name_H-M	'P1'
_symmetry_Int_Tables_number	1
_symmetry_cell_setting	triclinic
loop_
_symmetry_equiv_pos_as_xyz
  x,y,z
_cell_length_a	15.944551
_cell_length_b	27.732048
_cell_length_c	14.421503
_cell_angle_alpha	89.999321
_cell_angle_beta	89.996859
_cell_angle_gamma	83.070697
loop_
_atom_site_label
_atom_site_type_symbol
_atom_site_fract_x
_atom_site_fract_y
_atom_site_fract_z
O1	O	1.113714	0.062334	-0.077025
O2	O	0.869064	0.070020	-0.077050
O3	O	0.998987	-0.004187	-0.077019
O4	O	0.983791	0.136540	-0.077056
O5	O	0.998966	-0.004176	0.077204
O6	O	0.869042	0.070031	0.077174
O7	O	1.113693	0.062345	0.077198
Cu8	Cu	0.991366	0.066189	0.091268
Cu9	Cu	0.991391	0.066176	-0.091119
O10	O	0.983769	0.136552	0.077168
C11	C	0.837763	0.069706	0.000059
C12	C	0.744530	0.068749	0.000051
C13	C	0.530305	0.020466	0.000081
C14	C	0.469002	0.042882	-0.075965
C15	C	0.573827	0.067019	0.000062
C16	C	0.469003	0.042904	0.076087
C17	C	0.408936	0.065344	0.000077
C18	C	0.513752	0.089447	-0.076047
C19	C	0.513759	0.089463	0.076074
C20	C	0.452474	0.111912	0.000009
C21	C	0.668816	0.067983	0.000053
C22	C	0.313947	0.064384	0.000080
C23	C	0.998658	-0.022190	0.000095
C24	C	0.997697	-0.075849	0.000103
C25	C	1.068426	-0.414358	0.000062
C26	C	1.064862	-0.616033	0.000049
O27	O	1.129539	-0.647008	0.000015
N28	N	0.987823	-0.635490	0.000042
C29	C	0.911669	-0.604525	0.000032
O30	O	0.846061	-0.625703	0.000017
C31	C	0.915234	-0.402851	0.000039
C32	C	0.992278	-0.383397	0.000055
C33	C	1.145464	-0.394903	0.000077
C34	C	1.146354	-0.344487	0.000086
C35	C	1.070206	-0.313526	0.000079
C36	C	0.993168	-0.332981	0.000064
C37	C	0.839081	-0.371887	0.000023
C38	C	0.839979	-0.321466	0.000022
C39	C	0.917024	-0.302012	0.000038
C40	C	0.917911	-0.251604	0.000065
N41	N	0.994950	-0.232147	0.000072
C42	C	1.071098	-0.263108	0.000079
C43	C	0.909803	-0.710408	0.000031
C44	C	0.908912	-0.760826	0.000031
C45	C	1.062105	-0.772330	0.000045
C46	C	1.062995	-0.721911	0.000052
C47	C	0.986842	-0.690950	0.000038
C48	C	1.072961	-0.157231	0.000097
C49	C	1.073845	-0.106810	0.000109
C50	C	0.920652	-0.095310	0.000090
C51	C	0.919768	-0.145727	0.000083
C52	C	0.995930	-0.176686	0.000083
O53	O	0.853269	-0.220600	0.000089
O54	O	1.136697	-0.241921	0.000074
C55	C	1.067536	-0.464774	0.000054
C56	C	0.990498	-0.484228	0.000039
C57	C	0.914350	-0.453268	0.000032
C58	C	0.989607	-0.534647	0.000039
C59	C	1.065754	-0.565608	0.000045
C60	C	1.142794	-0.546150	0.000052
C61	C	1.143684	-0.495734	0.000061
C62	C	0.837311	-0.472725	0.000025
C63	C	0.836427	-0.523141	0.000018
C64	C	0.912575	-0.554102	0.000024
C65	C	1.144993	0.062658	0.000087
C66	C	1.238227	0.063615	0.000090
C67	C	0.984099	0.154554	0.000051
C68	C	0.985059	0.208213	0.000038
N69	N	0.991354	0.066198	0.219549
N70	N	0.991409	0.066163	-0.219401
C71	C	0.931267	0.100495	0.469189
C72	C	1.007044	0.109880	0.530996
C73	C	0.991374	0.066186	0.408710
C74	C	0.915616	0.056813	0.530997
C75	C	0.991387	0.066176	0.591432
C76	C	1.067190	0.075592	0.469157
C77	C	0.975712	0.022507	0.469153
C78	C	1.051545	0.031872	0.530932
C79	C	0.991366	0.066193	0.303449
C80	C	0.991405	0.066169	0.696691
H81	H	0.533624	0.109141	0.140358
C82	C	0.824166	-0.782223	0.000024
H83	H	0.834533	-0.816685	0.000031
H84	H	0.792850	-0.771593	-0.053761
H85	H	0.792835	-0.771594	0.053808
C86	C	0.754331	-0.393276	-0.000003
H87	H	0.709116	-0.367610	-0.000019
H88	H	0.750776	-0.412707	0.053773
H89	H	0.750809	-0.412702	-0.053796
H90	H	0.962429	-0.014416	0.441967
C91	C	0.829062	0.046103	0.567683
H92	H	0.786420	0.070513	0.546529
H93	H	0.829837	0.045880	0.633546
H94	H	0.817524	0.015311	0.545586
C95	C	1.145865	-0.806393	0.000038
H96	H	1.134293	-0.839205	0.000026
H97	H	1.177491	-0.800500	0.053815
H98	H	1.177479	-0.800493	-0.053754
C99	C	1.229234	-0.428953	0.000092
H100	H	1.275235	-0.410138	0.000108
H101	H	1.232093	-0.448864	-0.053685
H102	H	1.232064	-0.448857	0.053884
H103	H	0.418809	0.150587	-0.000044
H104	H	0.857033	-0.161567	0.000095
C105	C	1.226554	-0.580213	0.000053
H106	H	1.214981	-0.613026	0.000038
H107	H	1.258173	-0.574322	0.053834
H108	H	1.258173	-0.574314	-0.053735
C109	C	0.576011	-0.031726	-0.000020
H110	H	0.560815	-0.048191	-0.054117
H111	H	0.560068	-0.048436	0.053450
H112	H	0.635361	-0.030747	0.000519
C113	C	0.442206	0.016303	0.162938
H114	H	0.469147	-0.016179	0.162846
H115	H	0.382664	0.016143	0.162619
H116	H	0.458295	0.032528	0.216933
C117	C	0.862673	0.139720	0.432552
H118	H	0.873950	0.170732	0.453727
H119	H	0.808955	0.133371	0.454632
H120	H	0.862814	0.139260	0.366684
C121	C	0.756209	-0.287412	0.000010
H122	H	0.710202	-0.306223	0.000007
H123	H	0.753378	-0.267503	-0.053768
H124	H	0.753360	-0.267508	0.053801
H125	H	1.125732	-0.706075	0.000065
C126	C	0.540408	0.116018	-0.162999
H127	H	0.491884	0.126514	-0.199264
H128	H	0.578728	0.094560	-0.198539
H129	H	0.567045	0.143378	-0.144831
H130	H	0.847786	-0.685203	0.000019
H131	H	0.773684	-0.538976	0.000013
H132	H	1.102436	0.002852	0.557872
H133	H	1.020304	0.146814	0.558160
C134	C	0.442186	0.016278	-0.162798
H135	H	0.469111	-0.016207	-0.162699
H136	H	0.458261	0.032498	-0.216802
H137	H	0.382638	0.016121	-0.162451
C138	C	1.158594	-0.085411	0.000128
H139	H	1.148224	-0.050949	0.000141
H140	H	1.189930	-0.096036	-0.053649
H141	H	1.189907	-0.096041	0.053920
C142	C	1.156737	-0.191279	0.000106
H143	H	1.202739	-0.172465	0.000125
H144	H	1.159593	-0.211187	-0.053675
H145	H	1.159567	-0.211186	0.053894
C146	C	1.231103	-0.323093	0.000086
H147	H	1.276320	-0.348759	0.000078
H148	H	1.234642	-0.303664	0.053864
H149	H	1.234641	-0.303667	-0.053705
C150	C	0.836896	-0.061247	0.000077
H151	H	0.848468	-0.028435	0.000073
H152	H	0.805261	-0.067143	0.053849
H153	H	0.805293	-0.067144	-0.053720
H154	H	1.206421	-0.479900	0.000073
H155	H	0.775301	-0.447521	0.000017
H156	H	1.131276	0.083559	0.442107
