data_functionalizedCrystal
_audit_creation_method	'MofGen! by Chris Wilmer'
_symmetry_space_group_name_H-M	'P1'
_symmetry_Int_Tables_number	1
_symmetry_cell_setting	triclinic
loop_
_symmetry_equiv_pos_as_xyz
  x,y,z
_cell_length_a	11.804653
_cell_length_b	19.288862
_cell_length_c	19.288857
_cell_angle_alpha	96.865805
_cell_angle_beta	76.662993
_cell_angle_gamma	103.340157
loop_
_atom_site_label
_atom_site_type_symbol
_atom_site_fract_x
_atom_site_fract_y
_atom_site_fract_z
O1	O	-0.099496	-0.933876	0.099182
O2	O	-0.099399	-0.731602	0.110860
O3	O	-0.099436	-0.838585	0.003889
O4	O	-0.099459	-0.826893	0.206153
O5	O	0.098627	-0.813635	-0.021081
O6	O	0.098664	-0.706652	0.085891
O7	O	0.098567	-0.908926	0.074213
Cu8	Cu	0.116700	-0.805511	0.077772
Cu9	Cu	-0.117532	-0.835017	0.107301
O10	O	0.098604	-0.801944	0.181184
C11	C	-0.000354	-0.693249	0.097998
C12	C	-0.000317	-0.616141	0.096865
N13	N	0.281447	-0.784763	0.057002
C14	C	0.343807	-0.734919	0.007117
C15	C	0.468473	-0.719210	-0.008598
C16	C	0.530791	-0.753349	0.025567
C17	C	0.468431	-0.803199	0.075450
C18	C	0.343753	-0.818904	0.091171
C19	C	0.530737	-0.837335	0.109621
C20	C	0.468377	-0.887184	0.159504
C21	C	0.343711	-0.902888	0.175222
C22	C	0.281393	-0.868749	0.141056
C23	C	0.655415	-0.821629	0.093901
C24	C	0.655361	-0.905615	0.177955
C25	C	0.530695	-0.921323	0.193670
N26	N	0.717721	-0.855770	0.128069
C27	C	-0.000403	-0.825734	-0.034473
C28	C	-0.000399	-0.824607	-0.111577
C29	C	-0.000339	-0.571446	0.159636
C30	C	-0.000346	-0.498999	0.158577
C31	C	-0.000355	-0.471255	0.094746
C32	C	-0.000325	-0.515959	0.031965
C33	C	-0.000306	-0.588402	0.033025
C34	C	-0.069770	-0.371738	0.053318
C35	C	-0.069796	-0.299297	0.052262
C36	C	-0.000407	-0.247816	0.091475
C37	C	0.068992	-0.268785	0.131757
C38	C	0.069011	-0.341228	0.132816
C39	C	-0.000374	-0.392703	0.093590
C40	C	-0.000436	-0.124565	0.153102
C41	C	-0.000435	-0.052117	0.152039
C42	C	-0.000427	-0.069080	0.025427
C43	C	-0.000415	-0.141525	0.026490
C44	C	-0.000425	-0.169263	0.090330
C45	C	-0.000459	0.052724	0.087074
C46	C	-0.000442	-0.024377	0.088207
C47	C	-0.108363	-0.837681	-0.134177
C48	C	-0.108372	-0.836614	-0.206622
C49	C	-0.000410	-0.822485	-0.256467
C50	C	0.107568	-0.809405	-0.233859
C51	C	0.107574	-0.810466	-0.161414
C52	C	0.082276	-0.851071	-0.387123
C53	C	0.082267	-0.850014	-0.459566
C54	C	-0.000422	-0.819209	-0.479911
C55	C	-0.083120	-0.789471	-0.427802
C56	C	-0.083115	-0.790532	-0.355357
C57	C	-0.000404	-0.821332	-0.335023
C58	C	-0.108402	-0.831125	-0.581063
C59	C	-0.108406	-0.830053	-0.653509
C60	C	0.107537	-0.802851	-0.680747
C61	C	0.107538	-0.803917	-0.608301
C62	C	-0.000435	-0.818058	-0.558463
C63	C	-0.000431	-0.814794	0.219545
C64	C	-0.000443	-0.815923	0.296651
H65	H	0.706177	-0.781041	0.053287
Br66	Br	0.254090	-0.790221	-0.301503
H67	H	0.179879	-0.881539	0.153846
Br68	Br	0.254060	-0.783669	-0.748385
Br69	Br	0.254108	-0.792718	-0.130740
Br70	Br	-0.000388	-0.202187	-0.058704
H71	H	0.632300	-0.740557	0.012769
H72	H	0.292941	-0.943473	0.215845
Br73	Br	0.446050	-0.988975	0.261365
Br74	Br	-0.254905	-0.854356	-0.237303
Br75	Br	-0.000351	-0.609088	0.246275
Br76	Br	0.739925	-0.951946	0.224330
H77	H	0.519237	-0.678623	-0.049212
H78	H	-0.000447	-0.015725	0.203156
H79	H	0.293056	-0.707125	-0.020692
H80	H	-0.000361	-0.462601	0.209694
Br81	Br	0.194491	-0.890378	-0.530277
Br82	Br	0.163194	-0.369686	0.187479
H83	H	-0.150453	-0.764386	-0.444364
Br84	Br	-0.195339	-0.750173	-0.284641
Br85	Br	0.163165	-0.198926	0.184980
H86	H	-0.196320	-0.842635	-0.540482
H87	H	-0.000426	-0.147149	0.205082
Br88	Br	-0.000418	-0.031432	-0.061205
Br89	Br	0.254069	-0.786169	-0.577626
Br90	Br	-0.163945	-0.441600	0.000094
Br91	Br	-0.163996	-0.270847	-0.002394
H92	H	-0.000349	-0.493367	-0.020004
Br93	Br	-0.000273	-0.649064	-0.052172
Br94	Br	-0.254897	-0.856869	-0.066543
Br95	Br	-0.254942	-0.847790	-0.684180
H96	H	0.149620	-0.876154	-0.370567
