data_functionalizedCrystal
_audit_creation_method	'MofGen! by Chris Wilmer'
_symmetry_space_group_name_H-M	'P1'
_symmetry_Int_Tables_number	1
_symmetry_cell_setting	triclinic
loop_
_symmetry_equiv_pos_as_xyz
  x,y,z
_cell_length_a	19.188925
_cell_length_b	19.188930
_cell_length_c	12.996460
_cell_angle_alpha	90.005414
_cell_angle_beta	90.007144
_cell_angle_gamma	83.143665
loop_
_atom_site_label
_atom_site_type_symbol
_atom_site_fract_x
_atom_site_fract_y
_atom_site_fract_z
O1	O	0.926149	0.087145	0.085600
O2	O	0.722838	0.098883	0.085599
O3	O	0.830361	-0.008642	0.085580
O4	O	0.818626	0.194670	0.085620
O5	O	0.830347	-0.008636	-0.085554
O6	O	0.722824	0.098889	-0.085535
O7	O	0.926136	0.087151	-0.085533
Cu8	Cu	0.824478	0.093021	-0.101160
Cu9	Cu	0.824495	0.093013	0.101226
O10	O	0.818613	0.194676	-0.085514
C11	C	0.696820	0.098507	0.000032
C12	C	0.619315	0.097367	0.000031
C13	C	0.057545	0.152831	0.000044
C14	C	0.130368	0.153908	0.000050
C15	C	0.175302	0.090816	0.000035
C16	C	0.147408	0.026642	0.000042
C17	C	0.074586	0.025568	0.000046
N18	N	0.295975	0.045142	-0.058229
N19	N	0.365152	0.046167	-0.058235
C20	C	0.394712	0.094050	0.000024
N21	N	0.352479	0.140879	0.058277
N22	N	0.283295	0.139856	0.058279
C23	C	0.254267	0.091974	0.000031
C24	C	0.501561	0.159386	0.000031
C25	C	0.574385	0.160460	0.000043
C26	C	0.591425	0.033193	0.000025
C27	C	0.518601	0.032121	0.000023
C28	C	0.473673	0.095220	0.000021
C29	C	0.829974	-0.034650	0.000010
C30	C	0.828833	-0.112154	0.000001
C31	C	0.891924	-0.157079	-0.000003
C32	C	0.890852	-0.229903	0.000013
C33	C	0.826686	-0.257799	0.000013
C34	C	0.763587	-0.212864	0.000024
C35	C	0.764660	-0.140041	0.000018
N36	N	0.777634	-0.365801	-0.058227
N37	N	0.776619	-0.434979	-0.058223
C38	C	0.823448	-0.477207	0.000034
N39	N	0.871342	-0.447645	0.058275
N40	N	0.872359	-0.378460	0.058267
C41	C	0.825515	-0.336761	0.000021
C42	C	0.885381	-0.601097	0.000049
C43	C	0.884307	-0.673922	0.000072
C44	C	0.757040	-0.656880	0.000072
C45	C	0.758116	-0.584057	0.000060
C46	C	0.822289	-0.556170	0.000043
C47	C	0.952154	0.087527	0.000036
C48	C	1.029658	0.088666	0.000044
C49	C	0.819000	0.220684	0.000058
C50	C	0.820140	0.298188	0.000074
N51	N	0.824472	0.093025	-0.243507
C52	C	0.824475	0.093027	-0.336613
C53	C	0.824482	0.093022	-0.453418
C54	C	0.824490	0.093015	-0.546516
C55	C	0.824498	0.093011	-0.663329
N56	N	0.824507	0.093003	0.243573
H57	H	0.944179	-0.134379	-0.000013
O58	O	0.952187	-0.273484	0.000141
C59	C	0.991169	-0.260884	0.088777
H60	H	0.973865	-0.205585	0.118329
H61	H	0.981750	-0.300683	0.150843
C62	C	1.091100	-0.335975	0.025543
C63	C	1.069851	-0.268054	0.061833
H64	H	1.139635	-0.340400	0.008925
H65	H	1.064837	-0.344466	-0.034172
H66	H	1.083245	-0.369133	0.077271
H67	H	1.077698	-0.234897	0.010101
H68	H	1.096118	-0.259556	0.121539
O69	O	0.157350	0.216302	-0.000002
C70	C	0.102080	0.271763	0.000027
H71	H	0.052662	0.252343	-0.032365
H72	H	0.091728	0.291220	0.082129
C73	C	0.183143	0.356143	-0.027308
C74	C	0.122448	0.332294	-0.067100
H75	H	0.195707	0.393484	-0.068711
H76	H	0.220380	0.318779	-0.027323
H77	H	0.174508	0.372353	0.041109
H78	H	0.131086	0.316076	-0.135511
H79	H	0.085213	0.369657	-0.067098
H80	H	0.937635	-0.578390	0.000040
H81	H	0.704794	-0.679592	0.000078
O82	O	0.191125	-0.034599	0.000163
C83	C	0.233758	-0.037792	0.088803
H84	H	0.237273	0.017617	0.118356
H85	H	0.209907	-0.069607	0.150866
C86	C	0.303483	-0.141203	0.025570
C87	C	0.307805	-0.073149	0.061863
H88	H	0.349158	-0.163016	0.008956
H89	H	0.274759	-0.139054	-0.034146
H90	H	0.283604	-0.167707	0.077296
H91	H	0.327675	-0.046644	0.010133
H92	H	0.336534	-0.075294	0.121571
O93	O	0.696764	-0.540512	0.000005
C94	C	0.639898	-0.580746	0.000035
H95	H	0.657784	-0.635157	-0.032358
H96	H	0.620224	-0.585862	0.082137
C97	C	0.558226	-0.477454	-0.027297
C98	C	0.580193	-0.544281	-0.067091
H99	H	0.521396	-0.454960	-0.068699
H100	H	0.596538	-0.450347	-0.027314
H101	H	0.541836	-0.481726	0.041120
H102	H	0.596591	-0.540007	-0.135502
H103	H	0.541883	-0.571386	-0.067088
H104	H	0.711342	-0.235581	0.000026
H105	H	0.713282	-0.103462	0.000021
O106	O	0.491592	-0.030254	0.000148
C107	C	0.514566	-0.068696	0.088785
H108	H	0.565020	-0.049822	0.118336
H109	H	0.472406	-0.060482	0.150852
C110	C	0.466491	-0.170460	0.025555
C111	C	0.528462	-0.147283	0.061844
H112	H	0.475060	-0.218937	0.008939
H113	H	0.451011	-0.144561	-0.034160
H114	H	0.431364	-0.163609	0.077283
H115	H	0.563585	-0.154126	0.010112
H116	H	0.543949	-0.173186	0.121550
O117	O	0.458012	0.220741	0.000090
C118	C	0.498245	0.277608	0.000078
H119	H	0.552657	0.259718	0.032472
H120	H	0.503362	0.297293	-0.082019
C121	C	0.394953	0.359275	0.027419
C122	C	0.461780	0.337304	0.067214
H123	H	0.372458	0.396100	0.068827
H124	H	0.367846	0.320963	0.027423
H125	H	0.399226	0.375674	-0.040995
H126	H	0.457505	0.320897	0.135620
H127	H	0.488885	0.375614	0.067222
H128	H	0.597088	0.212713	0.000051
H129	H	0.935686	-0.710500	0.000074
H130	H	0.020968	0.204211	0.000047
H131	H	0.051883	-0.026685	0.000047
H132	H	0.628010	-0.018178	0.000021
