data_functionalizedCrystal
_audit_creation_method	'MofGen! by Chris Wilmer'
_symmetry_space_group_name_H-M	'P1'
_symmetry_Int_Tables_number	1
_symmetry_cell_setting	triclinic
loop_
_symmetry_equiv_pos_as_xyz
  x,y,z
_cell_length_a	12.645323
_cell_length_b	19.077105
_cell_length_c	19.077068
_cell_angle_alpha	90.115316
_cell_angle_beta	87.733562
_cell_angle_gamma	92.319668
loop_
_atom_site_label
_atom_site_type_symbol
_atom_site_fract_x
_atom_site_fract_y
_atom_site_fract_z
Zn1	Zn	-0.683166	-1.063015	0.322970
Zn2	Zn	-0.512700	-1.058196	0.440482
Zn3	Zn	-0.498524	-0.945501	0.318268
Zn4	Zn	-0.682529	-0.940750	0.435712
O5	O	-0.594230	-1.001866	0.379358
O6	O	-0.666752	-1.160708	0.342523
O7	O	-0.362472	-1.043218	0.424298
O8	O	-0.517352	-0.965094	0.220562
O9	O	-0.541511	-1.157167	0.428858
O10	O	-0.653007	-1.051432	0.224017
O11	O	-0.352057	-0.960421	0.334508
O12	O	-0.516734	-0.846539	0.329883
O13	O	-0.830961	-0.956998	0.420729
O14	O	-0.651922	-0.843049	0.416168
O15	O	-0.831429	-1.046826	0.337898
O16	O	-0.540894	-1.038612	0.538179
O17	O	-0.665667	-0.952325	0.534675
C18	C	-0.582721	-0.819298	0.371998
C19	C	-0.577824	-0.741194	0.368866
C20	C	-0.604774	-0.994449	0.561923
C21	C	-0.609324	-0.991340	0.640028
C22	C	-0.870735	-1.001920	0.379306
C23	C	-0.988566	-1.001943	0.379283
C24	C	-1.155810	-0.945275	0.431130
C25	C	-1.033274	-0.945407	0.431403
C26	C	-1.038903	-1.075172	0.402359
C27	C	-1.161502	-1.074859	0.402686
C28	C	-1.150272	-0.986093	0.304087
C29	C	-1.027587	-0.984423	0.304467
C30	C	-0.318800	-1.001854	0.379361
C31	C	-0.200967	-1.001976	0.379191
C32	C	-0.605784	-1.185147	0.386747
C33	C	-0.610708	-1.263250	0.389896
C34	C	-0.645805	-0.702699	0.412387
C35	C	-0.641208	-0.629312	0.409436
C36	C	-0.568624	-0.594421	0.362966
C37	C	-0.500640	-0.632922	0.319440
C38	C	-0.505242	-0.706307	0.322389
C39	C	-0.547326	-0.375136	0.349319
C40	C	-0.542726	-0.301745	0.346375
C41	C	-0.683297	-0.298140	0.436370
C42	C	-0.687889	-0.371527	0.439317
C43	C	-0.619909	-0.410021	0.395789
N44	N	-0.563921	-0.519408	0.359949
N45	N	-0.624617	-0.485033	0.398803
C46	C	-0.583669	-1.009331	0.196080
C47	C	-0.579169	-1.012512	0.117979
C48	C	-0.546557	-1.034839	0.678525
C49	C	-0.550844	-1.031920	0.751912
C50	C	-0.617891	-0.985497	0.786802
C51	C	-0.680665	-0.941996	0.748301
C52	C	-0.676384	-0.944919	0.674914
C53	C	-0.637661	-0.971934	1.006091
C54	C	-0.641935	-0.969013	1.079482
C55	C	-0.512115	-1.058938	1.083089
C56	C	-0.507835	-1.061855	1.009701
C57	C	-0.570612	-1.018356	0.971206
N58	N	-0.622272	-0.982510	0.861816
N59	N	-0.566237	-1.021347	0.896193
H60	H	-0.998993	-0.891011	0.416618
H61	H	-1.012348	-1.089281	0.456791
H62	H	-0.735262	-0.904200	0.776714
Br63	Br	-0.426927	-1.117972	1.135336
H64	H	-1.176781	-0.933783	0.283634
Br65	Br	-1.211733	-1.147350	0.342594
H66	H	-0.696565	-0.597972	0.444876
Br67	Br	-0.991028	-0.962517	0.524092
H68	H	-1.194263	-1.088671	0.457677
Br69	Br	-0.455549	-1.097839	0.631181
H70	H	-0.499732	-1.067341	0.783253
H71	H	-0.441544	-0.604508	0.281601
H72	H	-0.746993	-0.399930	0.477159
H73	H	-1.010180	-1.118420	0.365857
H74	H	-0.688775	-0.936515	0.974754
H75	H	-1.179448	-1.027428	0.265354
Br76	Br	-0.971935	-0.894621	0.275554
H77	H	-0.449890	-0.737649	0.286946
Br78	Br	-0.976330	-1.048633	0.236157
Br79	Br	-0.761577	-0.885887	0.622668
H80	H	-1.190573	-0.955408	0.486396
H81	H	-0.704908	-0.731101	0.450230
Br82	Br	-0.416852	-1.124869	0.962355
H83	H	-0.738644	-0.266791	0.471807
Br84	Br	-0.732916	-0.905994	1.126832
Br85	Br	-0.455072	-0.427368	0.290241
Br86	Br	-1.197949	-0.854326	0.406675
Br87	Br	-0.444201	-0.254393	0.283312
