data_functionalizedCrystal
_audit_creation_method	'MofGen! by Chris Wilmer'
_symmetry_space_group_name_H-M	'P1'
_symmetry_Int_Tables_number	1
_symmetry_cell_setting	triclinic
loop_
_symmetry_equiv_pos_as_xyz
  x,y,z
_cell_length_a	26.374263
_cell_length_b	26.373608
_cell_length_c	26.370205
_cell_angle_alpha	60.005297
_cell_angle_beta	60.010839
_cell_angle_gamma	59.993700
loop_
_atom_site_label
_atom_site_type_symbol
_atom_site_fract_x
_atom_site_fract_y
_atom_site_fract_z
O1	O	0.070152	-0.740800	0.619517
O2	O	0.570152	-0.240800	1.119517
O3	O	0.026377	-0.576764	0.499159
O4	O	0.526377	-0.076764	0.999159
O5	O	0.130245	-0.680560	0.499088
O6	O	0.630245	-0.180560	0.999088
O7	O	-0.033715	-0.637003	0.619589
O8	O	0.466285	-0.137003	1.119589
O9	O	0.164701	-0.646107	0.533470
O10	O	0.664701	-0.146107	1.033470
O11	O	0.060833	-0.542310	0.533541
O12	O	0.560833	-0.042310	1.033541
O13	O	0.104608	-0.706346	0.653899
O14	O	0.604608	-0.206346	1.153899
Cu15	Cu	0.085867	-0.621182	0.596859
Cu16	Cu	0.585867	-0.121182	1.096859
Cu17	Cu	0.045119	-0.661927	0.556199
Cu18	Cu	0.545119	-0.161927	1.056199
O19	O	0.000741	-0.602549	0.653971
O20	O	0.500741	-0.102549	1.153971
N21	N	0.114528	-0.592529	0.625461
N22	N	0.614528	-0.092529	1.125461
N23	N	0.016463	-0.690587	0.527598
N24	N	0.516463	-0.190587	1.027598
C25	C	0.181428	-0.355400	0.692330
C26	C	0.681428	0.144600	1.192330
C27	C	0.181530	-0.525690	0.862573
C28	C	0.681530	-0.025690	1.362573
C29	C	0.181440	-0.525667	0.692313
C30	C	0.681440	-0.025667	1.192313
C31	C	0.351736	-0.525673	0.692271
C32	C	0.851736	-0.025673	1.192271
C33	C	0.200174	-0.411588	0.711047
C34	C	0.700174	0.088412	1.211047
C35	C	0.200232	-0.506954	0.806384
C36	C	0.700232	-0.006954	1.306384
C37	C	0.295546	-0.506943	0.711016
C38	C	0.795546	-0.006943	1.211016
C39	C	0.200182	-0.506940	0.711037
C40	C	0.700182	-0.006940	1.211037
C41	C	0.157567	-0.283881	0.668507
C42	C	0.657567	0.216119	1.168507
C43	C	0.157587	-0.549500	0.668479
C44	C	0.657587	-0.049500	1.168479
C45	C	0.224035	-0.483107	0.734871
C46	C	0.724035	0.016893	1.234871
C47	C	0.455739	-0.507754	0.637520
C48	C	0.955739	-0.007754	1.137520
C49	C	0.520749	-0.529425	0.615835
C50	C	1.020749	-0.029425	1.115835
C51	C	0.520768	-0.634611	0.655947
C52	C	1.020768	-0.134611	1.155947
C53	C	0.455759	-0.612939	0.677633
C54	C	0.955759	-0.112939	1.177633
C55	C	0.173240	-0.251367	0.604595
C56	C	0.673240	0.248633	1.104595
C57	C	0.151546	-0.186351	0.582941
C58	C	0.651546	0.313649	1.082941
C59	C	0.098512	-0.186369	0.689113
C60	C	0.598512	0.313631	1.189113
C61	C	0.120206	-0.251385	0.710768
C62	C	0.620206	0.248615	1.210768
C63	C	0.093669	-0.533798	0.684205
C64	C	0.593669	-0.033798	1.184205
C65	C	0.071992	-0.555464	0.662532
C66	C	0.571992	-0.055464	1.162532
C67	C	0.178144	-0.608536	0.609422
C68	C	0.678144	-0.108536	1.109422
C69	C	0.199825	-0.586869	0.631088
C70	C	0.699825	-0.086869	1.131088
C71	C	0.093821	-0.533842	0.966616
C72	C	0.593821	-0.033842	1.466616
C73	C	0.072187	-0.555526	1.031630
C74	C	0.572187	-0.055526	1.531630
C75	C	0.178370	-0.608608	1.031591
C76	C	0.678370	-0.108608	1.531591
C77	C	0.200004	-0.586926	0.966576
C78	C	0.700004	-0.086926	1.466576
C79	C	0.157728	-0.549541	0.934090
C80	C	0.657728	-0.049541	1.434090
C81	C	0.423247	-0.549509	0.668416
C82	C	0.923247	-0.049509	1.168416
C83	C	-0.097522	-0.709158	0.508557
C84	C	0.402478	-0.209158	1.008557
C85	C	-0.002050	-0.709295	0.413344
C86	C	0.497950	-0.209295	0.913344
C87	C	-0.002241	-0.804604	0.508735
C88	C	0.497759	-0.304604	1.008735
C89	C	-0.002225	-0.709288	0.508793
C90	C	0.497775	-0.209288	1.008793
C91	C	-0.026009	-0.733087	0.484858
C92	C	0.473991	-0.233087	0.984858
N93	N	0.552340	-0.592538	0.625346
N94	N	1.052340	-0.092538	1.125346
O95	O	0.750867	-0.598274	0.477076
O96	O	1.250867	-0.098274	0.977076
O97	O	0.751048	-0.718989	0.640960
O98	O	1.251048	-0.218989	1.140960
O99	O	0.750981	-0.718715	0.537020
O100	O	1.250981	-0.218715	1.037020
O101	O	0.750934	-0.598547	0.581017
O102	O	1.250934	-0.098547	1.081017
O103	O	0.647701	-0.684348	0.571512
O104	O	1.147701	-0.184348	1.071512
O105	O	0.647768	-0.684622	0.675452
O106	O	1.147768	-0.184622	1.175452
O107	O	0.647587	-0.563907	0.511569
O108	O	1.147587	-0.063907	1.011569
Cu109	Cu	0.638247	-0.621127	0.596660
Cu110	Cu	1.138247	-0.121127	1.096660
Cu111	Cu	0.760388	-0.661769	0.555869
Cu112	Cu	1.260388	-0.161769	1.055869
O113	O	0.647654	-0.564181	0.615509
O114	O	1.147654	-0.064181	1.115509
N115	N	0.846295	-0.690358	0.527176
N116	N	1.346295	-0.190358	1.027176
N117	N	0.114503	-0.154778	0.625499
N118	N	0.614503	0.345222	1.125499
O119	O	-0.033701	0.043855	0.619632
O120	O	0.466299	0.543855	1.119632
O121	O	0.130190	0.043858	0.498933
O122	O	0.630190	0.543858	0.998933
O123	O	0.026233	0.043841	0.499224
O124	O	0.526233	0.543841	0.999224
O125	O	0.070257	0.043872	0.619341
O126	O	0.570257	0.543872	1.119341
O127	O	0.060690	-0.059448	0.533654
O128	O	0.560690	0.440552	1.033654
O129	O	0.164647	-0.059431	0.533363
O130	O	0.664647	0.440569	1.033363
O131	O	0.000756	-0.059434	0.654062
O132	O	0.500756	0.440566	1.154062
Cu133	Cu	0.085848	-0.068863	0.596857
Cu134	Cu	0.585848	0.431137	1.096857
Cu135	Cu	0.045099	0.053287	0.556138
Cu136	Cu	0.545099	0.553287	1.056138
O137	O	0.104714	-0.059417	0.653771
O138	O	0.604714	0.440583	1.153771
N139	N	0.016435	0.139202	0.527497
N140	N	0.516435	0.639202	1.027497
N141	N	0.114760	-0.592585	1.063190
N142	N	0.614760	-0.092585	1.563190
O143	O	0.108896	-0.740779	1.261808
O144	O	0.608896	-0.240779	1.761808
O145	O	-0.011787	-0.576838	1.261822
O146	O	0.488213	-0.076838	1.761822
O147	O	-0.011509	-0.680779	1.261780
O148	O	0.488491	-0.180779	1.761780
O149	O	0.108618	-0.636838	1.261850
O150	O	0.608618	-0.136838	1.761850
O151	O	0.022916	-0.646341	1.158496
O152	O	0.522916	-0.146341	1.658496
O153	O	0.022638	-0.542399	1.158538
O154	O	0.522638	-0.042399	1.658538
O155	O	0.143321	-0.706341	1.158524
O156	O	0.643321	-0.206341	1.658524
Cu157	Cu	0.086123	-0.621225	1.149100
Cu158	Cu	0.586123	-0.121225	1.649100
Cu159	Cu	0.045411	-0.661953	1.271246
Cu160	Cu	0.545411	-0.161953	1.771246
O161	O	0.143044	-0.602399	1.158566
O162	O	0.643044	-0.102399	1.658566
N163	N	0.016774	-0.690600	1.357156
N164	N	0.516774	-0.190600	1.857156
C165	C	0.039504	-0.538867	0.499769
C166	C	0.539504	-0.038867	0.999769
C167	C	0.168130	-0.667407	0.499680
C168	C	0.668130	-0.167407	0.999680
C169	C	0.091482	-0.744243	0.653289
C170	C	0.591482	-0.244243	1.153289
C171	C	-0.037145	-0.615703	0.653378
C172	C	0.462855	-0.115703	1.153378
C173	C	0.699429	-0.718429	0.678853
C174	C	1.199429	-0.218429	1.178853
C175	C	0.699348	-0.718091	0.550135
C176	C	1.199348	-0.218091	1.050135
C177	C	0.699202	-0.564465	0.473677
C178	C	1.199202	-0.064465	0.973677
C179	C	0.699287	-0.564805	0.602393
C180	C	1.199287	-0.064805	1.102393
C181	C	0.168023	-0.007659	0.499484
C182	C	0.668023	0.492341	0.999484
C183	C	0.039327	-0.007807	0.499887
C184	C	0.539327	0.492193	0.999887
C185	C	-0.037119	-0.007789	0.653468
C186	C	0.462881	0.492211	1.153468
C187	C	0.091620	-0.007770	0.653109
C188	C	0.591620	0.492230	1.153109
C189	C	-0.011194	-0.538964	1.210181
C190	C	0.488806	-0.038964	1.710181
C191	C	-0.010843	-0.667676	1.210109
C192	C	0.489157	-0.167676	1.710109
C193	C	0.142729	-0.744214	1.210165
C194	C	0.642729	-0.244214	1.710165
C195	C	0.142386	-0.615494	1.210214
C196	C	0.642386	-0.115494	1.710214
H197	H	0.020147	-0.542732	1.058106
H198	H	0.520147	-0.042732	1.558106
O199	O	0.424126	-0.446129	0.628490
O200	O	0.924126	0.053871	1.128490
C201	C	0.386488	-0.423600	0.593153
C202	C	0.886488	0.076400	1.093153
H203	H	0.406069	-0.455191	0.565366
H204	H	0.906069	0.044809	1.065366
H205	H	0.385736	-0.374541	0.559989
H206	H	0.885736	0.125459	1.059989
H207	H	0.337225	-0.422851	0.625530
H208	H	0.837225	0.077149	1.125530
O209	O	-0.093226	-0.007815	0.698754
O210	O	0.406774	0.492185	1.198754
C211	C	-0.093196	-0.007787	0.752193
C212	C	0.406804	0.492213	1.252193
H213	H	-0.043376	-0.027336	0.751452
H214	H	0.456624	0.472664	1.251452
H215	H	-0.120793	-0.037772	0.795424
H216	H	0.379207	0.462228	1.295424
H217	H	-0.115396	0.041769	0.752914
H218	H	0.384604	0.541769	1.252914
H219	H	0.100832	-0.791364	0.691090
H220	H	0.600832	-0.291364	1.191090
O221	O	0.224265	-0.678386	0.454455
O222	O	0.724265	-0.178386	0.954455
C223	C	0.224328	-0.624972	0.400950
C224	C	0.724328	-0.124972	0.900950
H225	H	0.174533	-0.595392	0.401619
H226	H	0.674533	-0.095392	0.901619
H227	H	0.251946	-0.639432	0.357772
H228	H	0.751946	-0.139432	0.857772
H229	H	0.246557	-0.596903	0.400191
H230	H	0.746557	-0.096903	0.900191
O231	O	-0.056321	-0.482742	1.210101
O232	O	0.443679	0.017258	1.710101
C233	C	-0.035095	-0.435930	1.156614
C234	C	0.464905	0.064070	1.656614
H235	H	0.017838	-0.453023	1.138791
H236	H	0.517838	0.046977	1.638791
H237	H	-0.053253	-0.392599	1.168656
H238	H	0.446747	0.107401	1.668656
H239	H	-0.052706	-0.424314	1.119144
H240	H	0.447294	0.075686	1.619144
H241	H	-0.084239	-0.606419	0.691217
H242	H	0.415761	-0.106419	1.191217
H243	H	0.252044	-0.599714	0.940097
H244	H	0.752044	-0.099714	1.440097
O245	O	0.102747	-0.007736	0.698190
O246	O	0.602747	0.492264	1.198190
C247	C	0.049440	-0.007753	0.751789
C248	C	0.549440	0.492247	1.251789
H249	H	0.006734	0.011797	0.738234
H250	H	0.506734	0.511797	1.238234
H251	H	0.044010	0.022239	0.774912
H252	H	0.544010	0.522239	1.274912
H253	H	0.054468	-0.057305	0.785563
H254	H	0.554468	0.442695	1.285563
O255	O	0.699464	-0.763704	0.734975
O256	O	1.199464	-0.263704	1.234975
C257	C	0.699515	-0.817173	0.734943
C258	C	1.199515	-0.317173	1.234943
H259	H	0.679930	-0.803412	0.698182
H260	H	1.179930	-0.303412	1.198182
H261	H	0.669576	-0.840437	0.782556
H262	H	1.169576	-0.340437	1.282556
H263	H	0.749079	-0.850907	0.724066
H264	H	1.249079	-0.350907	1.224066
H265	H	0.030155	-0.491745	0.461969
H266	H	0.530155	0.008255	0.961969
O267	O	0.028198	-0.007904	0.454841
O268	O	0.528198	0.492096	0.954841
C269	C	0.070764	-0.061411	0.438153
C270	C	0.570764	0.438589	0.938153
H271	H	0.113807	-0.079235	0.450532
H272	H	0.613807	0.420765	0.950532
H273	H	0.084645	-0.049391	0.386058
H274	H	0.584645	0.450609	0.886058
H275	H	0.048262	-0.098873	0.464372
H276	H	0.548262	0.401127	0.964372
H277	H	-0.048566	-0.677061	1.210046
H278	H	0.451434	-0.177061	1.710046
H279	H	0.214995	-0.007372	0.461496
H280	H	0.714995	0.492628	0.961496
O281	O	0.699339	-0.763051	0.538814
O282	O	1.199339	-0.263051	1.038814
C283	C	0.699302	-0.740433	0.477771
C284	C	1.199302	-0.240433	0.977771
H285	H	0.679707	-0.687534	0.461449
H286	H	1.179707	-0.187534	0.961449
H287	H	0.669326	-0.759361	0.476886
H288	H	1.169326	-0.259361	0.976886
H289	H	0.748840	-0.756114	0.445618
H290	H	1.248840	-0.256114	0.945618
O291	O	0.187856	-0.800426	1.210186
O292	O	0.687856	-0.300426	1.710186
C293	C	0.165511	-0.839059	1.210142
C294	C	0.665511	-0.339059	1.710142
H295	H	0.112614	-0.822232	1.229688
H296	H	0.612614	-0.322232	1.729688
H297	H	0.184553	-0.888813	1.240121
H298	H	0.684553	-0.388813	1.740121
H299	H	0.181296	-0.837373	1.160584
H300	H	0.681296	-0.337373	1.660584
H301	H	0.180125	-0.606093	1.210228
H302	H	0.680125	-0.106093	1.710228
O303	O	0.699050	-0.519268	0.417534
O304	O	1.199050	-0.019268	0.917534
C305	C	0.645533	-0.504864	0.406430
C306	C	1.145533	-0.004864	0.906430
H307	H	0.627747	-0.545935	0.435402
H308	H	1.127747	-0.045935	0.935402
H309	H	0.657520	-0.494711	0.355078
H310	H	1.157520	0.005289	0.855078
H311	H	0.608059	-0.462299	0.419831
H312	H	1.108059	0.037701	0.919831
O313	O	0.052667	-0.497551	0.935159
O314	O	0.552667	0.002449	1.435159
C315	C	-0.008377	-0.488331	0.977811
C316	C	0.491623	0.011669	1.477811
H317	H	-0.008233	-0.527534	1.024146
H318	H	0.491767	-0.027534	1.524146
H319	H	-0.039260	-0.487984	0.959039
H320	H	0.460740	0.012016	1.459039
H321	H	-0.027002	-0.442020	0.984737
H322	H	0.472998	0.057980	1.484737
O323	O	0.219459	-0.645007	1.063123
O324	O	0.719459	-0.145007	1.563123
C325	C	0.257056	-0.699522	1.047206
C326	C	0.757056	-0.199522	1.547206
H327	H	0.231944	-0.708554	1.029336
H328	H	0.731944	-0.208554	1.529336
H329	H	0.266907	-0.740482	1.089951
H330	H	0.766907	-0.240482	1.589951
H331	H	0.302720	-0.693613	1.009463
H332	H	0.802720	-0.193613	1.509463
O333	O	0.052556	-0.497478	0.720493
O334	O	0.552556	0.002522	1.220493
C335	C	-0.008508	-0.488274	0.729730
C336	C	0.491492	0.011726	1.229730
H337	H	-0.008410	-0.495532	0.690535
H338	H	0.491590	0.004468	1.190535
H339	H	-0.039377	-0.438966	0.730081
H340	H	0.460623	0.061034	1.230081
H341	H	-0.027113	-0.522881	0.776042
H342	H	0.472887	-0.022881	1.276042
O343	O	0.699353	-0.519845	0.613667
O344	O	1.199353	-0.019845	1.113667
C345	C	0.752876	-0.541209	0.628236
C346	C	1.252876	-0.041209	1.128236
H347	H	0.770752	-0.594148	0.646049
H348	H	1.270752	-0.094148	1.146049
H349	H	0.740862	-0.523269	0.665608
H350	H	1.240862	-0.023269	1.165608
H351	H	0.790293	-0.523485	0.584832
H352	H	1.290293	-0.023485	1.084832
O353	O	0.009917	-0.540326	0.677829
O354	O	0.509917	-0.040326	1.177829
C355	C	-0.005768	-0.594957	0.710557
C356	C	0.494232	-0.094957	1.210557
H357	H	0.037080	-0.635801	0.698809
H358	H	0.537080	-0.135801	1.198809
H359	H	-0.043479	-0.589141	0.696732
H360	H	0.456521	-0.089141	1.196732
H361	H	-0.023590	-0.604106	0.762592
H362	H	0.476410	-0.104106	1.262592
H363	H	0.212545	-0.638970	0.578981
H364	H	0.712545	-0.138970	1.078981
H365	H	0.251872	-0.599651	0.618278
H366	H	0.751872	-0.099651	1.118278
H367	H	0.547237	-0.686258	0.663446
H368	H	1.047237	-0.186258	1.163446
O369	O	0.424231	-0.653517	0.707543
O370	O	0.924231	-0.153517	1.207543
C371	C	0.440121	-0.683968	0.667752
C372	C	0.940121	-0.183968	1.167752
H373	H	0.457964	-0.654360	0.617425
H374	H	0.957964	-0.154360	1.117425
H375	H	0.397371	-0.691282	0.675436
H376	H	0.897371	-0.191282	1.175436
H377	H	0.477875	-0.730884	0.678220
H378	H	0.977875	-0.230884	1.178220
O379	O	0.552221	-0.488776	0.585807
O380	O	1.052221	0.011224	1.085807
C381	C	0.509585	-0.428145	0.582335
C382	C	1.009585	0.071855	1.082335
H383	H	0.463236	-0.425609	0.586609
H384	H	0.963236	0.074391	1.086609
H385	H	0.528350	-0.393789	0.535867
H386	H	1.028350	0.106211	1.035867
H387	H	0.502694	-0.416008	0.621721
H388	H	1.002694	0.083992	1.121721
H389	H	0.164306	-0.159876	0.530897
H390	H	0.664306	0.340124	1.030897
O391	O	0.209502	-0.282835	0.563458
O392	O	0.709502	0.217165	1.063458
C393	C	0.218690	-0.240193	0.502402
C394	C	0.718690	0.259807	1.002402
H395	H	0.179486	-0.193852	0.502533
H396	H	0.679486	0.306148	1.002533
H397	H	0.219014	-0.258974	0.471539
H398	H	0.719014	0.241026	0.971539
H399	H	0.264998	-0.233273	0.483761
H400	H	0.764998	0.266727	0.983761
O401	O	0.062208	-0.154895	0.730248
O402	O	0.562208	0.345105	1.230248
C403	C	0.053049	-0.197538	0.791304
C404	C	0.553049	0.302462	1.291304
H405	H	0.060317	-0.243882	0.791185
H406	H	0.560317	0.256118	1.291185
H407	H	0.003753	-0.178761	0.822187
H408	H	0.503753	0.321239	1.322187
H409	H	0.087670	-0.204451	0.809912
H410	H	0.587670	0.295549	1.309912
H411	H	0.107441	-0.277854	0.762810
H412	H	0.607441	0.222146	1.262810
