data_functionalizedCrystal
_audit_creation_method	'MofGen! by Chris Wilmer'
_symmetry_space_group_name_H-M	'P1'
_symmetry_Int_Tables_number	1
_symmetry_cell_setting	triclinic
loop_
_symmetry_equiv_pos_as_xyz
  x,y,z
_cell_length_a	16.120530
_cell_length_b	19.121063
_cell_length_c	16.120297
_cell_angle_alpha	95.179432
_cell_angle_beta	90.128140
_cell_angle_gamma	89.687057
loop_
_atom_site_label
_atom_site_type_symbol
_atom_site_fract_x
_atom_site_fract_y
_atom_site_fract_z
Zn1	Zn	1.228532	-0.355748	-0.551587
Zn2	Zn	1.229542	-0.467532	-0.417878
Zn3	Zn	1.097153	-0.343883	-0.404937
Zn4	Zn	1.083532	-0.466885	-0.549816
O5	O	1.159690	-0.408512	-0.481054
O6	O	1.344754	-0.375813	-0.540007
O7	O	1.218103	-0.446434	-0.299571
O8	O	1.119859	-0.247198	-0.419716
O9	O	1.345496	-0.457940	-0.441771
O10	O	1.216382	-0.255916	-0.527458
O11	O	1.120838	-0.355590	-0.290063
O12	O	0.979258	-0.354963	-0.417999
O13	O	1.096644	-0.456838	-0.666641
O14	O	0.969251	-0.445332	-0.524441
O15	O	1.203175	-0.375186	-0.667942
O16	O	1.204895	-0.565705	-0.440054
O17	O	1.097623	-0.565230	-0.536989
C18	C	0.944155	-0.398790	-0.469624
C19	C	0.851946	-0.394649	-0.464754
C20	C	0.683119	-0.387072	-0.455870
C21	C	0.637096	-0.430006	-0.506302
C22	C	0.543155	-0.425790	-0.501358
C23	C	0.777068	-0.391287	-0.460812
C24	C	1.149912	-0.590946	-0.489753
C25	C	1.145804	-0.668997	-0.493506
C26	C	1.199763	-0.705893	-0.444847
C27	C	1.195904	-0.779230	-0.448382
C28	C	1.138080	-0.815670	-0.500573
C29	C	1.084118	-0.778769	-0.549237
C30	C	1.087982	-0.705433	-0.545706
C31	C	1.123621	-1.037085	-0.513761
C32	C	1.119760	-1.110426	-0.517287
C33	C	1.231547	-1.110882	-0.416433
C34	C	1.235403	-1.037545	-0.412903
C35	C	1.181443	-1.000650	-0.461570
C36	C	1.134132	-0.890632	-0.504185
C37	C	1.185396	-0.925690	-0.457962
C38	C	1.376067	-0.418272	-0.492530
C39	C	1.468274	-0.422431	-0.497420
C40	C	1.148278	-0.417263	-0.698367
C41	C	1.143414	-0.420993	-0.790973
C42	C	1.169527	-0.225367	-0.472341
C43	C	1.173720	-0.147322	-0.468628
C44	C	1.134506	-0.427785	-0.960523
C45	C	1.185049	-0.389036	-1.002436
C46	C	1.180092	-0.392815	-1.096780
C47	C	1.139461	-0.424006	-0.866171
C48	C	1.171108	-0.399746	-0.264587
C49	C	1.176143	-0.395826	-0.171981
H50	H	0.651970	-0.347152	-0.408986
H51	H	1.087516	-0.463794	-0.995491
C52	C	1.248543	-0.340392	-0.955195
N53	N	1.296368	-0.303758	-0.919610
H54	H	0.668246	-0.469929	-0.553190
C55	C	1.263373	-0.665816	-0.387431
N56	N	1.311287	-0.635632	-0.344186
C57	C	1.298993	-0.997465	-0.355467
N58	N	1.346881	-0.967276	-0.312195
C59	C	1.255259	-0.819812	-0.394848
N60	N	1.299968	-0.850378	-0.354521
C61	C	1.064304	-0.996514	-0.567342
N62	N	1.019638	-0.965955	-0.607719
H63	H	1.275479	-1.140930	-0.376812
C64	C	1.020509	-0.818855	-0.606644
N65	N	0.972594	-0.849046	-0.649881
C66	C	1.056152	-1.150508	-0.574708
N67	N	1.008245	-1.180698	-0.617957
H68	H	1.044044	-0.675393	-0.585330
H69	H	1.232479	-0.896019	-0.415471
H70	H	1.087051	-0.920309	-0.546677
