data_functionalizedCrystal
_audit_creation_method	'MofGen! by Chris Wilmer'
_symmetry_space_group_name_H-M	'P1'
_symmetry_Int_Tables_number	1
_symmetry_cell_setting	triclinic
loop_
_symmetry_equiv_pos_as_xyz
  x,y,z
_cell_length_a	10.967874
_cell_length_b	27.732048
_cell_length_c	10.065875
_cell_angle_alpha	98.710990
_cell_angle_beta	69.229500
_cell_angle_gamma	83.697956
loop_
_atom_site_label
_atom_site_type_symbol
_atom_site_fract_x
_atom_site_fract_y
_atom_site_fract_z
O1	O	1.739087	0.035363	-0.522506
O2	O	1.361261	0.047366	-0.433653
O3	O	1.561904	-0.029132	-0.480812
O4	O	1.538443	0.111861	-0.475347
O5	O	1.523643	-0.014488	-0.244830
O6	O	1.323000	0.062010	-0.197671
O7	O	1.700825	0.050007	-0.286524
Zn8	Zn	1.505838	0.058333	-0.204631
Zn9	Zn	1.556248	0.039039	-0.515546
O10	O	1.500182	0.126505	-0.239365
C11	C	1.293808	0.054921	-0.304298
C12	C	1.149822	0.055610	-0.270436
C13	C	1.542280	-0.039812	-0.362701
C14	C	1.540795	-0.093454	-0.362341
C15	C	1.105449	0.048331	-0.377585
C16	C	0.956633	0.049042	-0.342589
C17	C	1.650037	-0.433215	-0.388101
C18	C	1.644536	-0.634828	-0.386827
O19	O	1.744430	-0.666949	-0.410378
N20	N	1.525560	-0.652926	-0.358846
C21	C	1.407953	-0.620618	-0.331191
O22	O	1.306633	-0.640638	-0.307377
C23	C	1.413456	-0.419006	-0.332476
C24	C	1.532438	-0.400910	-0.360444
C25	C	1.769009	-0.415119	-0.416068
C26	C	1.770381	-0.364718	-0.416379
C27	C	1.652782	-0.332413	-0.388722
C28	C	1.533810	-0.350509	-0.360755
C29	C	1.295852	-0.386699	-0.304832
C30	C	1.297239	-0.336294	-0.305160
C31	C	1.416220	-0.318198	-0.333128
C32	C	1.417584	-0.267804	-0.333409
N33	N	1.536560	-0.249706	-0.361390
C34	C	1.654159	-0.282011	-0.389046
C35	C	1.405071	-0.726467	-0.330516
C36	C	1.403694	-0.776870	-0.330192
C37	C	1.640279	-0.791077	-0.385830
C38	C	1.641652	-0.740673	-0.386143
C39	C	1.524047	-0.708369	-0.358496
C40	C	1.657032	-0.176165	-0.389695
C41	C	1.658394	-0.125758	-0.389998
C42	C	1.421811	-0.111556	-0.334367
C43	C	1.420448	-0.161957	-0.334057
C44	C	1.538070	-0.194261	-0.361729
O45	O	1.317746	-0.235656	-0.309886
O46	O	1.755469	-0.261983	-0.412888
C47	C	1.648664	-0.483616	-0.387791
C48	C	1.529692	-0.501712	-0.359823
C49	C	1.412093	-0.469408	-0.332166
C50	C	1.528316	-0.552115	-0.359499
C51	C	1.645915	-0.584419	-0.387156
C52	C	1.764891	-0.566321	-0.415137
C53	C	1.766263	-0.515921	-0.415447
C54	C	1.293117	-0.487505	-0.304186
C55	C	1.291754	-0.537907	-0.303876
C56	C	1.409353	-0.570211	-0.331533
C57	C	1.768279	0.042452	-0.415882
C58	C	1.912266	0.041762	-0.449753
C59	C	1.519807	0.137185	-0.357479
C60	C	1.521294	0.190826	-0.357849
N61	N	1.471443	0.071501	0.007559
N62	N	1.590653	0.025868	-0.727738
C63	C	1.544273	0.043618	0.058220
C64	C	1.517812	0.053755	0.221607
H65	H	1.177632	0.041575	-0.495226
H66	H	1.389496	0.102875	0.085146
H67	H	0.884452	0.055804	-0.224939
C68	C	1.009772	0.032631	-0.608696
N69	N	1.083214	0.025752	-0.728409
H70	H	1.077637	0.062371	-0.152794
H71	H	1.755286	-0.111028	-0.412770
H72	H	1.752812	-0.202462	-0.412233
C73	C	1.901274	-0.344821	-0.447161
N74	N	1.999869	-0.329838	-0.470354
C75	C	1.898387	-0.450646	-0.446481
N76	N	1.995840	-0.477402	-0.469374
H77	H	1.738538	-0.725943	-0.408919
H78	H	1.736032	-0.817388	-0.408348
H79	H	1.672596	-0.005512	0.194681
C80	C	1.407100	0.096145	0.326414
N81	N	1.323712	0.128072	0.405358
H82	H	1.309297	-0.700169	-0.308001
H83	H	1.306804	-0.791597	-0.307393
H84	H	1.194856	-0.552634	-0.281087
H85	H	1.198966	-0.401424	-0.282066
C86	C	1.167859	-0.300762	-0.274740
N87	N	1.070409	-0.274000	-0.251822
H88	H	1.323558	-0.176689	-0.311244
H89	H	1.863150	-0.501192	-0.438222
C90	C	1.292460	-0.076012	-0.303956
N91	N	1.195035	-0.049240	-0.281064
H92	H	1.197352	-0.461207	-0.281667
C93	C	1.894250	-0.601866	-0.445562
N94	N	1.991680	-0.628642	-0.468485
H95	H	1.626212	0.012239	-0.019363
