data_functionalizedCrystal
_audit_creation_method	'MofGen! by Chris Wilmer'
_symmetry_space_group_name_H-M	'P1'
_symmetry_Int_Tables_number	1
_symmetry_cell_setting	triclinic
loop_
_symmetry_equiv_pos_as_xyz
  x,y,z
_cell_length_a	13.897449
_cell_length_b	13.897448
_cell_length_c	13.897441
_cell_angle_alpha	90.030599
_cell_angle_beta	90.020733
_cell_angle_gamma	90.018972
loop_
_atom_site_label
_atom_site_type_symbol
_atom_site_fract_x
_atom_site_fract_y
_atom_site_fract_z
Zn1	Zn	-1.474703	0.383951	-0.545381
Zn2	Zn	-1.141369	0.717285	-0.212048
Zn3	Zn	-0.808036	1.050618	0.121285
Zn4	Zn	-1.474597	0.545273	-0.384083
Zn5	Zn	-1.141263	0.878606	-0.050749
Zn6	Zn	-0.807930	1.211940	0.282584
Zn7	Zn	-1.313392	0.383997	-0.384100
Zn8	Zn	-0.980058	0.717330	-0.050766
Zn9	Zn	-0.646725	1.050664	0.282567
Zn10	Zn	-1.313373	0.545210	-0.545335
Zn11	Zn	-0.980040	0.878543	-0.212002
Zn12	Zn	-0.646707	1.211876	0.121331
O13	O	-1.394016	0.464608	-0.464725
O14	O	-1.060683	0.797941	-0.131391
O15	O	-0.727349	1.131274	0.201942
O16	O	-1.609670	0.405358	-0.523997
O17	O	-1.276337	0.738692	-0.190663
O18	O	-0.943003	1.072025	0.142670
O19	O	-1.453176	0.523925	-0.249103
O20	O	-1.119842	0.857258	0.084230
O21	O	-0.786509	1.190592	0.417564
O22	O	-1.334842	0.249009	-0.405520
O23	O	-1.001509	0.582343	-0.072187
O24	O	-0.668175	0.915676	0.261146
O25	O	-1.609592	0.523881	-0.405491
O26	O	-1.276259	0.857214	-0.072158
O27	O	-0.942926	1.190547	0.261175
O28	O	-1.453356	0.248976	-0.524013
O29	O	-1.120023	0.582309	-0.190680
O30	O	-0.786690	0.915642	0.142653
O31	O	-1.334739	0.405436	-0.249116
O32	O	-1.001406	0.738770	0.084218
O33	O	-0.668073	1.072103	0.417551
O34	O	-1.178408	0.405375	-0.405476
O35	O	-0.845074	0.738708	-0.072142
O36	O	-0.511741	1.072042	0.261191
O37	O	-1.334811	0.523773	-0.680323
O38	O	-1.001477	0.857106	-0.346990
O39	O	-0.668144	1.190439	-0.013656
O40	O	-1.178394	0.523817	-0.523935
O41	O	-0.845061	0.857150	-0.190601
O42	O	-0.511728	1.190484	0.142732
O43	O	-1.453339	0.405297	-0.680357
O44	O	-1.120005	0.738630	-0.347023
O45	O	-0.786672	1.071963	-0.013690
O46	O	-1.453158	0.680246	-0.405447
O47	O	-1.119825	1.013579	-0.072113
O48	O	-0.786491	1.346913	0.261220
O49	O	-1.334708	0.680200	-0.523918
O50	O	-1.001375	1.013533	-0.190585
O51	O	-0.668041	1.346866	0.142748
C52	C	-1.143402	0.464595	-0.464703
C53	C	-0.810068	0.797928	-0.131369
C54	C	-0.476735	1.131261	0.201964
C55	C	-1.036188	0.464613	-0.464716
C56	C	-0.702855	0.797946	-0.131383
C57	C	-0.369521	1.131279	0.201951
C58	C	-1.393946	0.715222	-0.464697
C59	C	-1.060612	1.048555	-0.131363
C60	C	-0.727279	1.381889	0.201970
C61	C	-1.394004	0.822436	-0.464717
C62	C	-1.060671	1.155769	-0.131384
C63	C	-0.727337	1.489103	0.201950
C64	C	-1.394085	0.464522	-0.716318
C65	C	-1.060751	0.797856	-0.382984
C66	C	-0.727418	1.131189	-0.049651
C67	C	-1.394114	0.464486	-0.823532
C68	C	-1.060780	0.797819	-0.490198
C69	C	-0.727447	1.131153	-0.156865
C70	C	-1.645609	0.464621	-0.464747
C71	C	-1.312276	0.797955	-0.131414
C72	C	-0.978942	1.131288	0.201919
C73	C	-1.752823	0.464627	-0.464757
C74	C	-1.419490	0.797960	-0.131424
C75	C	-1.086156	1.131294	0.201910
C76	C	-0.839893	0.464616	-0.464741
C77	C	-0.506559	0.797949	-0.131408
C78	C	-0.173226	1.131283	0.201925
C79	C	-0.949125	0.464611	-0.464725
C80	C	-0.615792	0.797944	-0.131391
C81	C	-0.282459	1.131278	0.201942
C82	C	-1.394113	0.213015	-0.464774
C83	C	-1.060780	0.546348	-0.131440
C84	C	-0.727446	0.879681	0.201893
C85	C	-1.394154	0.105801	-0.464795
C86	C	-1.060821	0.439134	-0.131461
C87	C	-0.727488	0.772467	0.201872
C88	C	-1.394105	1.018731	-0.464778
C89	C	-1.060772	1.352064	-0.131444
C90	C	-0.727438	1.685398	0.201889
C91	C	-1.394046	0.909499	-0.464747
C92	C	-1.060713	1.242832	-0.131413
C93	C	-0.727379	1.576165	0.201920
C94	C	-1.394140	0.464421	-1.019827
C95	C	-1.060807	0.797754	-0.686494
C96	C	-0.727473	1.131088	-0.353160
C97	C	-1.394122	0.464460	-0.910594
C98	C	-1.060789	0.797793	-0.577261
C99	C	-0.727456	1.131126	-0.243928
C100	C	-1.394003	0.464623	-0.214110
C101	C	-1.060670	0.797956	0.119223
C102	C	-0.727337	1.131290	0.452556
C103	C	-1.394161	0.464388	-0.106897
C104	C	-1.060828	0.797721	0.226436
C105	C	-0.727494	1.131054	0.559770
