data_functionalizedCrystal
_audit_creation_method	'MofGen! by Chris Wilmer'
_symmetry_space_group_name_H-M	'P1'
_symmetry_Int_Tables_number	1
_symmetry_cell_setting	triclinic
loop_
_symmetry_equiv_pos_as_xyz
  x,y,z
_cell_length_a	17.019383
_cell_length_b	17.019294
_cell_length_c	12.503572
_cell_angle_alpha	89.649141
_cell_angle_beta	82.619237
_cell_angle_gamma	83.133350
loop_
_atom_site_label
_atom_site_type_symbol
_atom_site_fract_x
_atom_site_fract_y
_atom_site_fract_z
O1	O	1.056512	0.090567	-0.195322
O2	O	1.556512	0.590567	0.304678
O3	O	0.825813	0.104394	-0.175285
O4	O	1.325813	0.604394	0.324715
O5	O	0.947058	-0.016846	-0.175269
O6	O	1.447058	0.483154	0.324731
O7	O	0.935267	0.211807	-0.195338
O8	O	1.435267	0.711807	0.304662
O9	O	0.937940	-0.007713	0.003371
O10	O	1.437940	0.492287	0.503371
O11	O	0.816695	0.113527	0.003354
O12	O	1.316695	0.613527	0.503354
O13	O	1.047393	0.099700	-0.016682
O14	O	1.547393	0.599700	0.483318
Cu15	Cu	0.931212	0.107447	0.009647
Cu16	Cu	1.431212	0.607447	0.509647
Cu17	Cu	0.941995	0.096647	-0.201615
Cu18	Cu	1.441995	0.596647	0.298385
O19	O	0.926149	0.220940	-0.016699
O20	O	1.426149	0.720940	0.483301
C21	C	0.791725	0.108614	-0.083205
C22	C	1.291725	0.608614	0.416795
C23	C	0.703738	0.107573	-0.074979
C24	C	1.203738	0.607573	0.425021
C25	C	0.667365	0.102107	-0.168483
C26	C	1.167365	0.602107	0.331517
C27	C	0.584689	0.101142	-0.160739
C28	C	1.084689	0.601142	0.339261
C29	C	0.538390	0.105637	-0.059490
C30	C	1.038390	0.605637	0.440510
C31	C	0.574769	0.111105	0.034021
C32	C	1.074769	0.611105	0.534021
C33	C	0.657442	0.112076	0.026276
C34	C	1.157442	0.612076	0.526276
C35	C	0.288521	0.102960	-0.031232
C36	C	0.788521	0.602960	0.468768
C37	C	0.205842	0.101986	-0.023494
C38	C	0.705842	0.601986	0.476506
C39	C	0.215769	0.092025	-0.218255
C40	C	0.715769	0.592025	0.281745
C41	C	0.298444	0.092991	-0.225991
C42	C	0.798444	0.592991	0.274009
C43	C	0.334815	0.098464	-0.132481
C44	C	0.834815	0.598464	0.367519
C45	C	0.453882	0.104648	-0.051572
C46	C	0.953882	0.604648	0.448428
C47	C	0.419320	0.099458	-0.140400
C48	C	0.919320	0.599458	0.359600
C49	C	0.941872	-0.041527	-0.083187
C50	C	1.441872	0.458473	0.416813
C51	C	0.939995	-0.128675	-0.074956
C52	C	1.439995	0.371325	0.425044
C53	C	0.944085	-0.174591	-0.168465
C54	C	1.444085	0.325409	0.331535
C55	C	0.942316	-0.256475	-0.160727
C56	C	1.442316	0.243525	0.339273
C57	C	0.936462	-0.292442	-0.059480
C58	C	1.436462	0.207558	0.440520
C59	C	0.932369	-0.246519	0.034036
C60	C	1.432369	0.253481	0.534036
C61	C	0.934133	-0.164636	0.026298
C62	C	1.434133	0.335364	0.526298
C63	C	0.930883	-0.539426	-0.031243
C64	C	1.430883	-0.039426	0.468757
C65	C	0.929122	-0.621316	-0.023512
C66	C	1.429122	-0.121316	0.476488
C67	C	0.939067	-0.631265	-0.218276
C68	C	1.439067	-0.131265	0.281724
C69	C	0.940835	-0.549381	-0.226006
C70	C	1.440835	-0.049381	0.273994
C71	C	0.936738	-0.503465	-0.132489
C72	C	1.436738	-0.003465	0.367511
C73	C	0.934656	-0.376140	-0.051568
C74	C	1.434656	0.123860	0.448432
C75	C	0.938539	-0.419767	-0.140401
C76	C	1.438539	0.080233	0.359599
C77	C	1.081481	0.095480	-0.108765
C78	C	1.581481	0.595480	0.391235
C79	C	1.169469	0.096521	-0.116998
C80	C	1.669469	0.596521	0.383002
C81	C	0.931335	0.245621	-0.108783
C82	C	1.431335	0.745621	0.391217
C83	C	0.933212	0.332768	-0.117021
C84	C	1.433212	0.832768	0.382979
N85	N	0.923633	0.115044	0.158237
N86	N	1.423633	0.615044	0.658237
N87	N	0.949580	0.089044	-0.350204
N88	N	1.449580	0.589044	0.149796
C89	C	0.912484	0.126225	0.377347
C90	C	1.412484	0.626225	0.877347
C91	C	0.960726	0.077866	0.430692
C92	C	1.460726	0.577866	0.930692
C93	C	0.954523	0.084087	0.552613
C94	C	1.454523	0.584087	1.052613
C95	C	0.918687	0.120004	0.255416
C96	C	1.418687	0.620004	0.755416
H97	H	0.168144	0.105669	0.058958
H98	H	0.668144	0.605669	0.558958
F99	F	0.347714	0.088204	-0.333754
F100	F	0.847714	0.588204	0.166246
H101	H	0.945603	-0.520103	-0.308452
H102	H	1.445603	-0.020103	0.191548
H103	H	0.186146	0.087571	-0.294386
H104	H	0.686146	0.587571	0.205614
H105	H	0.318125	0.107411	0.044911
H106	H	0.818125	0.607411	0.544911
F107	F	0.943427	-0.680138	-0.317795
F108	F	1.443427	-0.180138	0.182205
F109	F	0.468596	0.094678	-0.248154
F110	F	0.968596	0.594678	0.251846
F111	F	0.852416	0.186444	0.437331
F112	F	1.352416	0.686444	0.937331
H113	H	0.945650	-0.293857	-0.236872
H114	H	1.445650	0.206143	0.263128
F115	F	0.944771	-0.381487	-0.248153
F116	F	1.444771	0.118513	0.251847
H117	H	0.927563	-0.502053	0.044903
H118	H	1.427563	-0.002053	0.544903
H119	H	0.924351	-0.650596	0.058940
H120	H	1.424351	-0.150596	0.558940
F121	F	0.929778	-0.115769	0.125823
F122	F	1.429778	0.384231	0.625823
F123	F	0.716634	0.097318	-0.276247
F124	F	1.216634	0.597318	0.223753
H125	H	0.537064	0.114769	0.116460
H126	H	1.037064	0.614769	0.616460
F127	F	0.926130	-0.284799	0.141792
F128	F	1.426130	0.215201	0.641792
H129	H	0.687055	0.116530	0.102416
H130	H	1.187055	0.616530	0.602416
H131	H	0.555078	0.096692	-0.236880
H132	H	1.055078	0.596692	0.263120
H133	H	0.416176	0.108305	0.030866
H134	H	0.916176	0.608305	0.530866
H135	H	0.948856	-0.145314	-0.250911
H136	H	1.448856	0.354686	0.249089
H137	H	0.929892	-0.405434	0.030867
H138	H	1.429892	0.094566	0.530867
H139	H	1.006686	0.031793	0.384796
H140	H	1.506686	0.531793	0.884796
