data_functionalizedCrystal
_audit_creation_method	'MofGen! by Chris Wilmer'
_symmetry_space_group_name_H-M	'P1'
_symmetry_Int_Tables_number	1
_symmetry_cell_setting	triclinic
loop_
_symmetry_equiv_pos_as_xyz
  x,y,z
_cell_length_a	10.723023
_cell_length_b	10.489716
_cell_length_c	9.798715
_cell_angle_alpha	90.000892
_cell_angle_beta	89.996449
_cell_angle_gamma	84.498342
loop_
_atom_site_label
_atom_site_type_symbol
_atom_site_fract_x
_atom_site_fract_y
_atom_site_fract_z
O1	O	1.657282	0.178903	-0.113474
O2	O	1.294138	0.196029	-0.113476
O3	O	1.483989	0.001861	-0.113480
O4	O	1.467431	0.373071	-0.113470
O5	O	1.483975	0.001861	0.113502
O6	O	1.294124	0.196029	0.113506
O7	O	1.657268	0.178903	0.113508
Zn8	Zn	1.475694	0.187466	0.149545
Zn9	Zn	1.475712	0.187466	-0.149513
O10	O	1.467417	0.373071	0.113512
C11	C	1.247631	0.194783	0.000014
C12	C	1.109075	0.191055	0.000013
C13	C	0.904096	0.185539	0.117591
C14	C	1.047302	0.189393	0.117595
C15	C	1.482738	-0.045670	0.000007
C16	C	1.479016	-0.187299	-0.000005
C17	C	1.595438	-0.285048	0.000008
C18	C	1.533925	-0.362369	-0.111903
C19	C	1.533884	-0.362333	0.111883
C20	C	1.417551	-0.262755	-0.112009
C21	C	1.417527	-0.262714	0.111878
C22	C	1.355929	-0.339986	-0.000060
C23	C	1.703775	0.180149	0.000015
C24	C	1.842331	0.183877	0.000007
C25	C	1.468668	0.420603	0.000022
C26	C	1.472390	0.562231	0.000025
N27	N	1.475690	0.187465	0.353645
N28	N	1.475726	0.187458	-0.353613
C29	C	1.555403	0.105579	0.421420
C30	C	1.555423	0.105575	0.578583
H31	H	1.055967	0.189623	-0.100660
H32	H	0.895470	0.185315	-0.100658
H33	H	1.254585	-0.364351	-0.000121
C34	C	1.351185	-0.203868	0.239697
C35	C	1.400111	-0.243464	0.382767
C36	C	1.333781	-0.184617	0.510599
C37	C	1.218525	-0.086173	0.495361
C38	C	1.169593	-0.046571	0.352286
C39	C	1.235924	-0.105419	0.224454
H40	H	1.485436	-0.316343	0.394051
H41	H	1.370004	-0.213933	0.616512
H42	H	1.169423	-0.042610	0.589990
H43	H	1.084269	0.026308	0.341001
H44	H	1.199700	-0.076102	0.118541
H45	H	1.696706	-0.260436	-0.000105
H46	H	1.583049	-0.405837	0.206493
C47	C	1.383509	0.282174	0.432426
C48	C	1.241324	0.279132	0.412944
C49	C	1.149139	0.373845	0.491721
C50	C	1.199140	0.471599	0.589980
C51	C	1.341332	0.474644	0.609467
C52	C	1.433516	0.379931	0.530690
H53	H	1.204304	0.206766	0.340203
H54	H	1.043879	0.371590	0.477295
H55	H	1.130899	0.541711	0.648295
H56	H	1.378352	0.547010	0.682208
H57	H	1.538777	0.382186	0.545116
C58	C	0.832325	0.183613	0.253594
C59	C	0.863281	0.073521	0.355700
C60	C	0.791515	0.071597	0.491709
C61	C	0.688791	0.179765	0.525612
C62	C	0.657830	0.289864	0.423504
C63	C	0.729596	0.291788	0.287496
H64	H	0.939328	-0.006558	0.330605
H65	H	0.814435	-0.009906	0.567295
H66	H	0.635665	0.178341	0.626294
H67	H	0.581783	0.369944	0.448600
H68	H	0.706676	0.373292	0.211909
C69	C	1.600322	-0.421176	-0.239719
C70	C	1.714185	-0.521349	-0.224424
C71	C	1.780591	-0.580150	-0.352235
C72	C	1.733133	-0.538778	-0.495341
C73	C	1.619263	-0.438600	-0.510642
C74	C	1.552858	-0.379799	-0.382831
H75	H	1.749322	-0.551980	-0.118483
H76	H	1.864886	-0.654309	-0.340907
H77	H	1.782291	-0.582306	-0.589954
H78	H	1.584127	-0.407969	-0.616583
H79	H	1.468563	-0.305640	-0.394159
H80	H	1.623630	0.035472	0.363097
C81	C	1.647624	0.010861	0.657310
C82	C	1.647553	0.011032	0.814466
C83	C	1.739758	-0.083685	0.893196
C84	C	1.832034	-0.178573	0.814770
C85	C	1.832109	-0.178748	0.657604
C86	C	1.739904	-0.084031	0.578875
H87	H	1.579241	0.081278	0.872530
H88	H	1.739702	-0.083555	1.009541
H89	H	1.900289	-0.248688	0.873050
H90	H	1.900420	-0.248993	0.599540
H91	H	1.739960	-0.084161	0.462530
H92	H	1.100419	0.190816	0.218263
H93	H	1.368437	-0.219419	-0.206726
H94	H	1.407481	0.257571	0.588112
