data_functionalizedCrystal
_audit_creation_method	'MofGen! by Chris Wilmer'
_symmetry_space_group_name_H-M	'P1'
_symmetry_Int_Tables_number	1
_symmetry_cell_setting	triclinic
loop_
_symmetry_equiv_pos_as_xyz
  x,y,z
_cell_length_a	11.792241
_cell_length_b	15.995350
_cell_length_c	10.268362
_cell_angle_alpha	89.997153
_cell_angle_beta	89.998946
_cell_angle_gamma	83.842895
loop_
_atom_site_label
_atom_site_type_symbol
_atom_site_fract_x
_atom_site_fract_y
_atom_site_fract_z
O1	O	1.505953	0.114763	-0.108167
O2	O	1.175513	0.126591	-0.108197
O3	O	1.349766	-0.001170	-0.108180
O4	O	1.331700	0.242523	-0.108184
O5	O	1.349748	-0.001175	0.108421
O6	O	1.175496	0.126586	0.108404
O7	O	1.505935	0.114758	0.108434
Cu8	Cu	1.340714	0.120672	0.128196
Cu9	Cu	1.340734	0.120677	-0.127959
O10	O	1.331683	0.242519	0.108417
C11	C	1.133220	0.125845	0.000100
C12	C	1.007224	0.123621	0.000088
C13	C	0.776546	0.119532	0.000126
C14	C	0.904913	0.121804	0.000105
C15	C	1.349010	-0.032370	0.000118
C16	C	1.346771	-0.125331	0.000111
C17	C	1.338730	-0.463115	0.000114
C18	C	1.214630	-0.416244	-0.000383
C19	C	1.216870	-0.319544	0.000106
C20	C	1.342718	-0.295536	0.000112
C21	C	1.403919	-0.336339	0.123804
C22	C	1.400801	-0.432988	0.123908
C23	C	1.403385	-0.433330	-0.122408
C24	C	1.403355	-0.336384	-0.124042
C25	C	1.344979	-0.200829	0.000115
C26	C	1.336473	-0.557823	0.000120
C27	C	1.548229	0.115504	0.000134
C28	C	1.674224	0.117727	0.000137
C29	C	1.332438	0.273719	0.000116
C30	C	1.334677	0.366680	0.000115
N31	N	1.340708	0.120667	0.308362
C32	C	1.340721	0.120678	0.574033
C33	C	1.340710	0.120674	0.426195
N34	N	1.340739	0.120678	0.691875
H35	H	1.168762	-0.291338	-0.088562
H36	H	1.491913	-0.464823	0.129524
C37	C	1.037634	-0.398853	-0.117876
C38	C	1.147670	-0.441556	-0.120128
H39	H	0.996300	-0.414479	-0.191811
H40	H	0.999580	-0.413163	-0.040799
H41	H	1.042399	-0.339953	-0.119512
H42	H	1.142904	-0.500456	-0.118482
H43	H	1.185732	-0.427251	-0.197225
H44	H	1.362818	-0.454051	-0.216159
C45	C	1.415275	-0.513608	0.321595
C46	C	1.340522	-0.457978	0.248710
H47	H	1.378058	-0.529028	0.398645
H48	H	1.437637	-0.562482	0.271397
H49	H	1.480821	-0.487036	0.344190
H50	H	1.274980	-0.484552	0.226106
H51	H	1.318145	-0.409096	0.298917
H52	H	1.168424	-0.291901	0.088916
H53	H	1.496376	-0.321793	0.128409
H54	H	1.361398	-0.308152	0.215848
H55	H	1.495130	-0.320606	-0.131506
C56	C	1.420487	-0.260580	-0.323661
C57	C	1.343043	-0.299798	-0.247579
H58	H	1.383250	-0.237993	-0.399928
H59	H	1.448351	-0.216560	-0.275090
H60	H	1.482372	-0.300596	-0.347580
H61	H	1.281160	-0.259781	-0.223652
H62	H	1.315161	-0.343824	-0.296159
C63	C	1.141820	-0.529888	0.114387
C64	C	1.147959	-0.442993	0.118690
H65	H	1.100669	-0.546401	0.187905
H66	H	1.103929	-0.543712	0.036943
H67	H	1.216702	-0.558482	0.115419
H68	H	1.073076	-0.414399	0.117649
H69	H	1.185847	-0.429160	0.196155
C70	C	1.526240	-0.563082	-0.128232
C71	C	1.526901	-0.475647	-0.123543
H72	H	1.602491	-0.589207	-0.128935
H73	H	1.487612	-0.581313	-0.053990
H74	H	1.488182	-0.578022	-0.204967
H75	H	1.564952	-0.460706	-0.046803
H76	H	1.565545	-0.457409	-0.197793
