data_functionalizedCrystal
_audit_creation_method	'MofGen! by Chris Wilmer'
_symmetry_space_group_name_H-M	'P1'
_symmetry_Int_Tables_number	1
_symmetry_cell_setting	triclinic
loop_
_symmetry_equiv_pos_as_xyz
  x,y,z
_cell_length_a	17.699083
_cell_length_b	17.019294
_cell_length_c	16.776229
_cell_angle_alpha	86.114377
_cell_angle_beta	89.998886
_cell_angle_gamma	83.339169
loop_
_atom_site_label
_atom_site_type_symbol
_atom_site_fract_x
_atom_site_fract_y
_atom_site_fract_z
O1	O	1.004147	0.099757	-0.073023
O2	O	1.504147	0.599757	0.426977
O3	O	0.783778	0.112736	-0.073940
O4	O	1.283778	0.612736	0.426060
O5	O	0.900110	-0.008599	-0.065593
O6	O	1.400110	0.491401	0.434407
O7	O	0.887815	0.221091	-0.081369
O8	O	1.387815	0.721091	0.418631
O9	O	0.900094	-0.008606	0.066984
O10	O	1.400094	0.491394	0.566984
O11	O	0.783762	0.112728	0.058637
O12	O	1.283762	0.612728	0.558637
O13	O	1.004132	0.099750	0.059554
O14	O	1.504132	0.599750	0.559554
Zn15	Zn	0.893945	0.106238	0.080145
Zn16	Zn	1.393945	0.606238	0.580145
Zn17	Zn	0.893965	0.106247	-0.094531
Zn18	Zn	1.393965	0.606247	0.405469
O19	O	0.887800	0.221084	0.051208
O20	O	1.387800	0.721084	0.551208
C21	C	0.755573	0.112267	-0.007622
C22	C	1.255573	0.612267	0.492378
C23	C	0.671554	0.110872	-0.007537
C24	C	1.171554	0.610872	0.492463
C25	C	0.622982	0.182092	-0.012428
C26	C	1.122982	0.682092	0.487572
C27	C	0.544037	0.180777	-0.012327
C28	C	1.044037	0.680777	0.487673
C29	C	0.513667	0.108240	-0.007341
C30	C	1.013667	0.608240	0.492659
C31	C	0.562245	0.037014	-0.002447
C32	C	1.062245	0.537014	0.497553
C33	C	0.641188	0.038330	-0.002542
C34	C	1.141188	0.538330	0.497458
C35	C	0.243878	0.031703	-0.002062
C36	C	0.743878	0.531703	0.497938
C37	C	0.164929	0.030392	-0.001970
C38	C	0.664929	0.530392	0.498030
C39	C	0.146728	0.174150	-0.011848
C40	C	0.646728	0.674150	0.488152
C41	C	0.225671	0.175466	-0.011943
C42	C	0.725671	0.675466	0.488057
C43	C	0.274242	0.104240	-0.007044
C44	C	0.774242	0.604240	0.492956
C45	C	0.359842	0.105668	-0.007152
C46	C	0.859842	0.605668	0.492848
C47	C	0.428068	0.106811	-0.007239
C48	C	0.928068	0.606811	0.492761
C49	C	0.899635	-0.037991	0.002712
C50	C	1.399635	0.462009	0.502712
C51	C	0.898237	-0.125559	0.008720
C52	C	1.398237	0.374441	0.508720
C53	C	0.897590	-0.166690	-0.060724
C54	C	1.397590	0.333310	0.439276
C55	C	0.896270	-0.248968	-0.055076
C56	C	1.396270	0.251032	0.444924
C57	C	0.895604	-0.290115	0.020017
C58	C	1.395604	0.209885	0.520017
C59	C	0.896248	-0.248978	0.089467
C60	C	1.396248	0.251022	0.589467
C61	C	0.897562	-0.166700	0.083818
C62	C	1.397562	0.333300	0.583818
C63	C	0.891631	-0.538541	0.040688
C64	C	1.391631	-0.038541	0.540688
C65	C	0.890320	-0.620825	0.046332
C66	C	1.390320	-0.120825	0.546332
C67	C	0.890340	-0.620810	-0.098211
C68	C	1.390340	-0.120810	0.401789
C69	C	0.891659	-0.538531	-0.103854
C70	C	1.391659	-0.038531	0.396146
C71	C	0.892299	-0.497400	-0.034404
C72	C	1.392299	0.002600	0.465596
C73	C	0.894258	-0.374218	0.025792
C74	C	1.394258	0.125782	0.525792
C75	C	0.893640	-0.413299	-0.040180
C76	C	1.393640	0.086701	0.459820
C77	C	1.032337	0.100218	-0.006765
C78	C	1.532337	0.600218	0.493235
C79	C	1.116356	0.101613	-0.006856
C80	C	1.616356	0.601613	0.493144
C81	C	0.888274	0.250476	-0.017099
C82	C	1.388274	0.750476	0.482901
C83	C	0.889673	0.338044	-0.023112
C84	C	1.389673	0.838044	0.476888
N85	N	0.893936	0.106230	0.199357
N86	N	1.393936	0.606230	0.699357
N87	N	0.893979	0.106248	-0.213742
N88	N	1.393979	0.606248	0.286258
C89	C	0.945464	0.052526	0.244768
C90	C	1.445464	0.552526	0.744768
C91	C	0.945468	0.052525	0.328221
C92	C	1.445468	0.552525	0.828221
C93	C	0.893948	0.106234	0.366260
C94	C	1.393948	0.606234	0.866260
C95	C	0.842415	0.159941	0.320843
C96	C	1.342415	0.659941	0.820843
C97	C	0.842407	0.159937	0.237392
C98	C	1.342407	0.659937	0.737392
C99	C	0.842442	0.159956	0.657389
C100	C	1.342442	0.659956	1.157389
C101	C	0.842455	0.159957	0.740845
C102	C	1.342455	0.659957	1.240845
C103	C	0.945502	0.052544	0.748217
C104	C	1.445502	0.552544	1.248217
C105	C	0.945495	0.052541	0.664767
C106	C	1.445495	0.552541	1.164767
C107	C	0.893960	0.106245	0.619357
C108	C	1.393960	0.606245	1.119357
C109	C	0.893955	0.106244	0.528869
C110	C	1.393955	0.606244	1.028869
C111	C	0.893956	0.106239	0.456746
C112	C	1.393956	0.606239	0.956746
H113	H	0.283416	-0.026293	0.001927
H114	H	0.783416	0.473707	0.501927
C115	C	0.894375	-0.368044	-0.122779
C116	C	1.394375	0.131956	0.377221
H117	H	0.893799	-0.404320	-0.163334
H118	H	1.393799	0.095680	0.336666
H119	H	0.939002	-0.342044	-0.127556
H120	H	1.439002	0.157956	0.372444
H121	H	0.850766	-0.329848	-0.128411
H122	H	1.350766	0.170152	0.371589
H123	H	0.987425	0.008794	0.365194
H124	H	1.487425	0.508794	0.865194
H125	H	0.987450	0.008809	0.633798
H126	H	1.487450	0.508809	1.133798
C127	C	0.259075	0.255256	-0.017424
C128	C	0.759075	0.755256	0.482576
H129	H	0.218840	0.297485	-0.020315
H130	H	0.718840	0.797485	0.479685
H131	H	0.289492	0.258763	-0.063897
H132	H	0.789492	0.758763	0.436103
H133	H	0.289491	0.258751	0.028574
H134	H	0.789491	0.758751	0.528574
C135	C	0.093298	0.252498	-0.017225
C136	C	0.593298	0.752498	0.482775
H137	H	0.041932	0.241329	-0.016445
H138	H	0.541932	0.741329	0.483555
H139	H	0.102493	0.282249	-0.065503
H140	H	0.602493	0.782249	0.434497
H141	H	0.102500	0.282244	0.026968
H142	H	0.602500	0.782244	0.526968
H143	H	0.895701	-0.282486	0.150609
H144	H	1.395701	0.217514	0.650609
H145	H	0.898078	-0.133211	0.140367
H146	H	1.398078	0.366789	0.640367
C147	C	0.490611	0.259119	-0.017710
C148	C	0.990611	0.759119	0.482290
H149	H	0.520006	0.302508	-0.020703
H150	H	1.020006	0.802508	0.479297
H151	H	0.459440	0.261596	0.028355
H152	H	0.959440	0.761596	0.528355
H153	H	0.459435	0.261594	-0.064116
H154	H	0.959435	0.761594	0.435884
C155	C	0.785762	0.219035	0.607448
C156	C	1.285762	0.719035	1.107448
H157	H	0.755088	0.251027	0.642057
H158	H	1.255088	0.751027	1.142057
H159	H	0.754284	0.190702	0.576847
H160	H	1.254284	0.690702	1.076847
H161	H	0.812952	0.251839	0.572635
H162	H	1.312952	0.751839	1.072635
C163	C	0.898323	-0.121435	-0.143328
C164	C	1.398323	0.378565	0.356672
H165	H	0.897741	-0.157718	-0.183877
H166	H	1.397741	0.342282	0.316123
H167	H	0.942950	-0.095437	-0.148115
H168	H	1.442950	0.404563	0.351885
H169	H	0.854714	-0.083240	-0.148959
H170	H	1.354714	0.416760	0.351041
C171	C	1.002183	-0.006538	0.798170
C172	C	1.502183	0.493462	1.298170
H173	H	0.994806	0.001147	0.853319
H174	H	1.494806	0.501147	1.353319
H175	H	1.052683	0.001963	0.783904
H176	H	1.552683	0.501963	1.283904
H177	H	0.994018	-0.059178	0.788113
H178	H	1.494018	0.440822	1.288113
H179	H	0.140205	-0.028680	0.002092
H180	H	0.640205	0.471320	0.502092
C181	C	0.785745	0.219020	0.362683
C182	C	1.285745	0.719020	0.862683
H183	H	0.793134	0.211338	0.418887
H184	H	1.293134	0.711338	0.918887
H185	H	0.735242	0.210521	0.349600
H186	H	1.235242	0.710521	0.849600
H187	H	0.793910	0.271659	0.345382
H188	H	1.293910	0.771659	0.845382
C189	C	0.694617	-0.040012	0.002831
C190	C	1.194617	0.459988	0.502831
H191	H	0.665224	-0.083402	0.005805
H192	H	1.165224	0.416598	0.505805
H193	H	0.725795	-0.042492	0.049230
H194	H	1.225795	0.457508	0.549230
H195	H	0.725786	-0.042481	-0.043241
H196	H	1.225786	0.457519	0.456759
C197	C	0.892383	-0.493273	-0.186456
C198	C	1.392383	0.006727	0.313544
H199	H	0.891800	-0.529553	-0.227007
H200	H	1.391800	-0.029553	0.272993
H201	H	0.937008	-0.467273	-0.191244
H202	H	1.437008	0.032727	0.308756
H203	H	0.848773	-0.455080	-0.192083
H204	H	1.348773	0.044920	0.307917
C205	C	0.528839	-0.042776	0.003037
C206	C	1.028839	0.457224	0.503037
H207	H	0.474867	-0.033361	0.002384
H208	H	0.974867	0.466639	0.502384
H209	H	0.545517	-0.072099	0.051282
H210	H	1.045517	0.427901	0.551282
H211	H	0.545517	-0.072089	-0.041189
H212	H	1.045517	0.427911	0.458811
H213	H	0.889817	-0.654307	-0.154753
H214	H	1.389817	-0.154307	0.345247
H215	H	0.895747	-0.282454	-0.111625
H216	H	1.395747	0.217546	0.388375
C217	C	0.656386	0.261882	-0.017915
C218	C	1.156386	0.761882	0.482085
H219	H	0.710358	0.252468	-0.017279
H220	H	1.210358	0.752468	0.482721
H221	H	0.639710	0.291200	0.026303
H222	H	1.139710	0.791200	0.526303
H223	H	0.639705	0.291200	-0.066167
H224	H	1.139705	0.791200	0.433833
H225	H	0.889773	-0.654324	0.107485
H226	H	1.389773	-0.154324	0.607485
H227	H	0.893717	-0.407729	0.086933
H228	H	1.393717	0.092271	0.586933
C229	C	0.892349	-0.493310	0.117080
C230	C	1.392349	0.006690	0.617080
H231	H	0.891775	-0.529603	0.162610
H232	H	1.391775	-0.029603	0.662610
H233	H	0.848748	-0.455112	0.117465
H234	H	1.348748	0.044888	0.617465
H235	H	0.936984	-0.467316	0.118302
H236	H	1.436984	0.032684	0.618302
C237	C	1.002136	-0.006556	0.202932
C238	C	1.502136	0.493444	0.702932
H239	H	1.032819	-0.038545	0.241933
H240	H	1.532819	0.461455	0.741933
H241	H	1.033606	0.021776	0.168424
H242	H	1.533606	0.521776	0.668424
H243	H	0.974939	-0.039362	0.172641
H244	H	1.474939	0.460638	0.672641
H245	H	0.800498	0.203695	0.771815
H246	H	1.300498	0.703695	1.271815
H247	H	0.800448	0.203668	0.200419
H248	H	1.300448	0.703668	0.700419
