data_functionalizedCrystal
_audit_creation_method	'MofGen! by Chris Wilmer'
_symmetry_space_group_name_H-M	'P1'
_symmetry_Int_Tables_number	1
_symmetry_cell_setting	triclinic
loop_
_symmetry_equiv_pos_as_xyz
  x,y,z
_cell_length_a	16.109293
_cell_length_b	15.455313
_cell_length_c	16.109301
_cell_angle_alpha	92.662870
_cell_angle_beta	83.459876
_cell_angle_gamma	87.316181
loop_
_atom_site_label
_atom_site_type_symbol
_atom_site_fract_x
_atom_site_fract_y
_atom_site_fract_z
O1	O	-1.106785	0.072202	-0.103195
O2	O	-0.864721	0.072189	-0.116502
O3	O	-0.992402	0.072187	0.011183
O4	O	-0.979104	0.072204	-0.230879
O5	O	-0.985101	-0.072075	0.003911
O6	O	-0.857420	-0.072073	-0.123773
O7	O	-1.099483	-0.072060	-0.110466
Cu8	Cu	-0.977785	-0.085239	-0.117784
Cu9	Cu	-0.986420	0.085368	-0.109184
O10	O	-0.971802	-0.072058	-0.238150
C11	C	-0.830095	0.000057	-0.119600
C12	C	-0.737800	0.000051	-0.117987
C13	C	-0.521478	-0.078583	-0.118222
C14	C	-0.434758	-0.078583	-0.116698
C15	C	-0.442728	0.078700	-0.108775
C16	C	-0.529448	0.078698	-0.110293
C17	C	-0.568820	0.000054	-0.115021
C18	C	-0.395380	0.000056	-0.111979
C19	C	-0.301354	0.000057	-0.110326
C20	C	-0.662852	0.000053	-0.116672
N21	N	-0.971718	-0.205234	-0.123831
C22	C	-1.025980	-0.250629	-0.069607
C23	C	-1.021399	-0.341437	-0.074188
C24	C	-0.962560	-0.386848	-0.132999
C25	C	-0.908292	-0.341447	-0.187226
C26	C	-0.912869	-0.250640	-0.182640
C27	C	-0.942803	-0.658429	-0.152771
C28	C	-0.938231	-0.749242	-0.157355
C29	C	-1.051338	-0.749225	-0.044315
C30	C	-1.055914	-0.658418	-0.039738
C31	C	-1.001643	-0.613024	-0.093962
N32	N	-0.957878	-0.479668	-0.137685
N33	N	-1.006321	-0.520206	-0.089271
C34	C	-0.134108	0.000068	-0.107376
C35	C	-0.226400	0.000059	-0.109012
C36	C	-0.988213	0.000056	0.038522
C37	C	-0.986598	0.000054	0.130817
N38	N	-0.992493	0.205363	-0.103130
C39	C	-0.975992	0.000076	-0.265489
C40	C	-0.977607	0.000083	-0.357784
C41	C	-1.058606	0.000072	0.353092
C42	C	-1.057083	0.000079	0.439813
C43	C	-0.905593	0.000068	0.419934
C44	C	-0.907118	0.000067	0.333215
C45	C	-0.983627	0.000065	0.299797
C46	C	-0.980578	0.000073	0.473236
C47	C	-0.978926	0.000080	0.567262
C48	C	-0.985280	0.000059	0.205764
H49	H	-1.073897	-0.213661	-0.021720
C50	C	-0.383236	-0.163896	-0.120297
C51	C	-0.323822	-0.168480	-0.191127
C52	C	-0.276338	-0.247055	-0.194460
H53	H	-0.419000	-0.210805	-0.123373
H54	H	-0.355548	-0.167171	-0.071436
H55	H	-0.351508	-0.165213	-0.239975
H56	H	-0.288040	-0.121589	-0.188066
H57	H	-0.248651	-0.250330	-0.145599
H58	H	-0.312110	-0.293958	-0.197534
H59	H	-0.236016	-0.250172	-0.242513
C60	C	-1.141758	0.000126	0.316972
C61	C	-1.207096	0.000160	0.382213
C62	C	-1.283710	0.000227	0.348975
H63	H	-1.143083	-0.050166	0.281037
H64	H	-1.148089	0.050455	0.286114
H65	H	-1.200768	-0.050163	0.413058
H66	H	-1.205799	0.050449	0.418153
H67	H	-1.290040	0.050556	0.318117
H68	H	-1.285026	-0.050066	0.313041
H69	H	-1.328051	0.000258	0.393236
C70	C	-0.400137	0.164172	-0.103613
C71	C	-0.460164	0.233039	-0.101114
C72	C	-0.420964	0.311790	-0.096353
H73	H	-0.360127	0.167561	-0.151294
H74	H	-0.372847	0.167493	-0.054383
H75	H	-0.487441	0.229720	-0.150339
H76	H	-0.500177	0.229678	-0.053435
H77	H	-0.393673	0.315111	-0.047123
H78	H	-0.380955	0.315171	-0.144036
H79	H	-0.461687	0.358526	-0.094650
C80	C	-1.080350	-0.390839	-0.015459
C81	C	-1.128577	-0.442966	-0.062403
C82	C	-1.182885	-0.488498	-0.008330
H83	H	-1.116130	-0.350893	0.020240
H84	H	-1.048690	-0.426328	0.017357
H85	H	-1.160235	-0.407480	-0.095205
H86	H	-1.092820	-0.482928	-0.098100
H87	H	-1.151224	-0.523987	0.024487
H88	H	-1.218659	-0.448546	0.027367
H89	H	-1.215608	-0.523877	-0.040173
H90	H	-0.843302	0.000068	0.447154
H91	H	-1.103825	-0.621446	0.008151
H92	H	-1.118139	0.000087	0.483203
H93	H	-1.095522	-0.786193	-0.000167
H94	H	-0.890314	-0.786211	-0.205249
H95	H	-0.846057	0.000063	0.289819
C96	C	-0.883979	-0.609204	-0.211788
C97	C	-0.896345	-0.631262	-0.294602
C98	C	-0.842178	-0.585923	-0.348996
H99	H	-0.827712	-0.624072	-0.203607
H100	H	-0.895127	-0.548609	-0.200697
H101	H	-0.885192	-0.691843	-0.305689
H102	H	-0.952601	-0.616392	-0.302809
H103	H	-0.853326	-0.525329	-0.337905
H104	H	-0.785915	-0.600796	-0.340808
H105	H	-0.850566	-0.600878	-0.405192
C106	C	-0.564205	-0.163992	-0.123173
C107	C	-0.550099	-0.211422	-0.053693
C108	C	-0.589453	-0.290101	-0.058216
H109	H	-0.542039	-0.196409	-0.172953
H110	H	-0.622645	-0.152769	-0.123577
H111	H	-0.491671	-0.222647	-0.053298
H112	H	-0.572267	-0.179031	-0.003903
H113	H	-0.647893	-0.278878	-0.058620
H114	H	-0.567283	-0.322510	-0.107999
H115	H	-0.579894	-0.322289	-0.011072
C116	C	-0.581005	0.163991	-0.106784
C117	C	-0.665380	0.147155	-0.109101
C118	C	-0.712900	0.225700	-0.105857
H119	H	-0.562184	0.196370	-0.153348
H120	H	-0.574837	0.196310	-0.056435
H121	H	-0.671543	0.114850	-0.159445
H122	H	-0.684225	0.114789	-0.062541
H123	H	-0.706732	0.258019	-0.055507
H124	H	-0.694072	0.258074	-0.152421
H125	H	-0.770154	0.214288	-0.107421
C126	C	-0.844362	-0.390861	-0.250950
C127	C	-0.790872	-0.443036	-0.209280
C128	C	-0.731977	-0.488576	-0.267958
H129	H	-0.812612	-0.350920	-0.282617
H130	H	-0.872449	-0.426318	-0.287347
H131	H	-0.762787	-0.407583	-0.172897
H132	H	-0.822598	-0.482994	-0.177617
H133	H	-0.760064	-0.524033	-0.304355
H134	H	-0.700234	-0.448629	-0.299622
H135	H	-0.695682	-0.523988	-0.239694
C136	C	-0.853913	-0.201508	-0.241617
C137	C	-0.801418	-0.260710	-0.294118
C138	C	-0.747101	-0.215482	-0.348465
H139	H	-0.821021	-0.166098	-0.210006
H140	H	-0.885572	-0.166086	-0.274492
H141	H	-0.769762	-0.296116	-0.261246
H142	H	-0.834287	-0.296122	-0.325747
H143	H	-0.778760	-0.180061	-0.381340
H144	H	-0.714215	-0.180074	-0.316847
H145	H	-0.711482	-0.255644	-0.384099
