data_functionalizedCrystal
_audit_creation_method	'MofGen! by Chris Wilmer'
_symmetry_space_group_name_H-M	'P1'
_symmetry_Int_Tables_number	1
_symmetry_cell_setting	triclinic
loop_
_symmetry_equiv_pos_as_xyz
  x,y,z
_cell_length_a	10.654550
_cell_length_b	15.538191
_cell_length_c	9.730223
_cell_angle_alpha	89.998968
_cell_angle_beta	89.999957
_cell_angle_gamma	65.878512
loop_
_atom_site_label
_atom_site_type_symbol
_atom_site_fract_x
_atom_site_fract_y
_atom_site_fract_z
O1	O	1.606172	0.131915	-0.114176
O2	O	1.234818	0.144484	-0.114201
O3	O	1.492782	0.001542	-0.114190
O4	O	1.348208	0.274857	-0.114187
O5	O	1.492771	0.001538	0.114390
O6	O	1.234807	0.144480	0.114379
O7	O	1.606161	0.131912	0.114404
Zn8	Zn	1.420483	0.138195	0.150683
Zn9	Zn	1.420496	0.138200	-0.150480
O10	O	1.348197	0.274853	0.114393
C11	C	1.188446	0.143559	0.000086
C12	C	1.050293	0.140798	0.000077
C13	C	0.931464	0.224959	0.000082
C14	C	0.801659	0.222359	0.000105
C15	C	0.909528	0.051429	0.000114
C16	C	1.039330	0.054030	0.000100
C17	C	1.507903	-0.033456	0.000096
C18	C	1.552959	-0.137736	0.000085
C19	C	1.105338	-0.428451	0.000086
C20	C	1.147707	-0.526440	0.000092
C21	C	1.386021	-0.547326	0.000107
C22	C	1.343672	-0.449336	0.000094
C23	C	1.203329	-0.389906	0.000085
C24	C	1.441663	-0.410792	0.000093
C25	C	1.399317	-0.312811	0.000088
C26	C	1.258980	-0.253375	0.000083
C27	C	1.160983	-0.291926	0.000080
C28	C	1.582005	-0.470224	0.000112
C29	C	1.679996	-0.431679	0.000111
C30	C	1.637651	-0.333697	0.000096
C31	C	1.497314	-0.274261	0.000091
C32	C	1.735648	-0.295147	0.000100
C33	C	1.693302	-0.197166	0.000094
C34	C	1.454968	-0.176280	0.000086
C35	C	1.652533	0.132836	0.000114
C36	C	1.790685	0.135597	0.000114
C37	C	1.333076	0.309851	0.000104
C38	C	1.288020	0.414131	0.000106
N39	N	1.420482	0.138191	0.356220
N40	N	1.420510	0.138197	-0.356017
C41	C	1.534725	0.074923	0.428150
C42	C	1.534738	0.074924	0.572033
C43	C	1.306256	0.201467	0.572043
C44	C	1.306241	0.201462	0.428162
H45	H	1.136092	-0.014509	0.000099
H46	H	1.213245	0.252982	0.630632
O47	O	1.522382	-0.604964	-0.000074
C48	C	1.739020	-0.652839	-0.118546
C49	C	1.584619	-0.587496	-0.118489
H50	H	1.789379	-0.638753	-0.214288
H51	H	1.789547	-0.638713	-0.022955
H52	H	1.752420	-0.729482	-0.118473
H53	H	1.571095	-0.510831	-0.118610
H54	H	1.534166	-0.601704	-0.214072
O55	O	1.788534	-0.159760	-0.000161
C56	C	1.979319	-0.147663	-0.118550
C57	C	1.871521	-0.190072	-0.118452
H58	H	2.046461	-0.172170	-0.214163
H59	H	1.925010	-0.067421	-0.118643
H60	H	2.046352	-0.172055	-0.022847
H61	H	1.804456	-0.165753	-0.214139
H62	H	1.925917	-0.270309	-0.118287
H63	H	0.940383	0.295611	0.000073
O64	O	1.052460	-0.563839	-0.000161
C65	C	0.861672	-0.575927	-0.118554
C66	C	0.969478	-0.533526	-0.118457
H67	H	0.794534	-0.551419	-0.214170
H68	H	0.915973	-0.656170	-0.118639
H69	H	0.794636	-0.551530	-0.022854
H70	H	1.036546	-0.557850	-0.214140
H71	H	0.915090	-0.453288	-0.118300
O72	O	1.645777	0.013369	0.358477
C73	C	1.872429	-0.112112	0.373661
C74	C	1.746740	-0.042462	0.452731
H75	H	1.954102	-0.157256	0.449830
H76	H	1.839864	-0.159476	0.306352
H77	H	1.916407	-0.071111	0.306248
H78	H	1.702704	-0.083386	0.520219
H79	H	1.779384	0.004902	0.519953
H80	H	1.340687	-0.127888	0.000069
O81	O	1.195171	0.263015	0.358493
C82	C	0.968515	0.388490	0.373673
C83	C	1.094218	0.318855	0.452745
H84	H	0.886850	0.433642	0.449841
H85	H	1.001066	0.435849	0.306333
H86	H	0.924534	0.347478	0.306291
H87	H	1.138258	0.359791	0.520201
H88	H	1.061589	0.271497	0.519999
H89	H	1.224505	-0.173593	0.000087
O90	O	1.024690	-0.234093	0.000246
C91	C	0.838536	-0.111384	0.118687
C92	C	0.992905	-0.176807	0.118653
H93	H	0.812784	-0.065065	0.214423
H94	H	0.812719	-0.064926	0.023089
H95	H	0.775799	-0.155783	0.118613
H96	H	1.055745	-0.132482	0.118776
H97	H	1.018613	-0.223269	0.214242
H98	H	0.704908	0.290892	0.000112
H99	H	0.900584	-0.019214	0.000141
H100	H	0.991057	-0.380059	0.000068
H101	H	1.616478	-0.550005	0.000104
H102	H	1.794264	-0.480080	0.000124
H103	H	1.849915	-0.343549	0.000120
H104	H	1.627764	0.023405	0.630595
