data_functionalizedCrystal
_audit_creation_method	'MofGen! by Chris Wilmer'
_symmetry_space_group_name_H-M	'P1'
_symmetry_Int_Tables_number	1
_symmetry_cell_setting	triclinic
loop_
_symmetry_equiv_pos_as_xyz
  x,y,z
_cell_length_a	16.704494
_cell_length_b	21.606444
_cell_length_c	21.606444
_cell_angle_alpha	60.001013
_cell_angle_beta	89.997620
_cell_angle_gamma	56.631089
loop_
_atom_site_label
_atom_site_type_symbol
_atom_site_fract_x
_atom_site_fract_y
_atom_site_fract_z
Zr1	Zr	0.815194	0.612740	-0.048842
O2	O	0.680084	0.752580	-0.153023
O3	O	0.856614	0.480335	-0.016907
O4	O	0.856624	0.609449	-0.146020
O5	O	0.680065	0.623469	0.077940
O6	O	0.995880	0.598395	-0.140493
O7	O	0.680074	0.623466	-0.023910
O8	O	0.995862	0.367434	0.090467
O9	O	0.680082	0.854431	-0.153020
O10	O	0.978203	0.523792	0.000841
O11	O	0.874271	0.532044	0.072726
O12	O	0.874282	0.684059	-0.079289
O13	O	0.770350	0.692311	-0.007404
Zr14	Zr	1.037277	0.595117	0.122413
Zr15	Zr	1.037292	0.595111	-0.040026
Zr16	Zr	0.815179	0.612745	0.113598
Zr17	Zr	0.815192	0.775180	-0.048836
Zr18	Zr	1.037279	0.432676	0.122408
O19	O	0.995857	0.727522	0.090479
O20	O	0.995878	0.727514	-0.140489
O21	O	0.680063	0.752588	0.077944
O22	O	1.172387	0.455277	0.226595
O23	O	1.172408	0.455269	-0.004373
O24	O	0.856593	0.480343	0.214061
O25	O	1.172406	0.584387	-0.004369
O26	O	0.995848	0.598408	0.219592
O27	O	0.856591	0.609461	0.214065
O28	O	1.172397	0.584391	0.097482
O29	O	0.856620	0.840418	-0.146013
O30	O	0.995851	0.367438	0.219585
O31	O	1.172389	0.353426	0.226592
O32	O	1.172401	0.353421	0.097474
O33	O	0.680071	0.854435	-0.023903
O34	O	0.856609	0.840422	-0.016896
O35	O	0.978189	0.523798	0.152860
O36	O	1.082121	0.515546	0.080976
O37	O	0.978201	0.675813	0.000846
O38	O	0.874268	0.684064	0.072730
C39	C	0.926239	0.400740	0.036779
C40	C	0.926240	0.331780	0.036777
C41	C	0.980489	0.295075	-0.000747
C42	C	0.980492	0.230275	-0.000742
C43	C	0.926240	0.202185	0.036783
C44	C	0.871989	0.238893	0.074312
C45	C	0.871992	0.303687	0.074311
C46	C	0.871977	-0.022416	0.074318
C47	C	0.871976	-0.087212	0.074314
C48	C	0.980477	-0.095828	-0.000735
C49	C	0.980480	-0.031034	-0.000736
C50	C	0.926234	0.005665	0.036796
C51	C	0.926232	0.075927	0.036791
C52	C	0.926235	0.131929	0.036784
C53	C	0.648425	0.625979	0.025759
C54	C	0.554139	0.633463	0.022017
C55	C	0.485466	0.480193	0.098658
C56	C	0.396879	0.487220	0.095144
C57	C	0.288375	0.654545	0.011479
C58	C	0.376963	0.647517	0.014993
C59	C	0.475507	0.560338	0.058583
C60	C	0.564096	0.553312	0.062093
C61	C	0.455591	0.720635	-0.021568
C62	C	0.367004	0.727663	-0.025082
C63	C	1.204046	0.581877	0.047812
C64	C	1.298332	0.574393	0.051555
C65	C	0.926254	0.603921	-0.166401
C66	C	0.926260	0.603919	-0.235361
C67	C	0.926233	0.807116	0.036792
C68	C	0.926232	0.876077	0.036794
C69	C	0.849494	0.610029	-0.661712
C70	C	0.849503	0.610021	-0.596912
C71	C	0.926226	0.603930	-0.561473
C72	C	1.002951	0.597836	-0.590832
C73	C	1.002945	0.597836	-0.655627
C74	C	1.002976	0.597832	-0.329519
C75	C	1.002974	0.597834	-0.264721
C76	C	0.849533	0.610017	-0.270805
C77	C	0.849528	0.610017	-0.335600
C78	C	0.926256	0.603918	-0.364950
C79	C	0.926246	0.603925	-0.435213
C80	C	0.926232	0.603930	-0.491215
C81	C	0.926217	0.603935	0.239972
C82	C	0.926211	0.603938	0.308932
C83	C	1.204049	0.378689	0.047806
C84	C	1.298336	0.302245	0.051546
C85	C	0.926220	0.400747	0.239966
C86	C	0.926215	0.331789	0.308923
C87	C	1.204031	0.378696	0.250993
C88	C	1.298312	0.302254	0.323692
C89	C	0.648441	0.829160	-0.177421
C90	C	0.554159	0.905602	-0.250121
C91	C	0.648422	0.829167	0.025765
C92	C	0.554135	0.905612	0.022025
C93	C	0.926251	0.807109	-0.166394
C94	C	0.926256	0.876067	-0.235352
C95	C	1.288370	0.270650	0.011466
C96	C	1.376954	0.198833	0.014965
C97	C	1.475504	0.158606	0.058549
C98	C	1.485468	0.190207	0.098629
C99	C	1.396885	0.262028	0.095126
C100	C	0.980457	0.295102	0.383143
C101	C	0.980448	0.230318	0.447942
C102	C	0.926203	0.202218	0.438520
C103	C	0.871954	0.238913	0.364293
C104	C	0.871958	0.303700	0.299495
C105	C	1.396848	0.262049	0.320310
C106	C	1.485444	0.190232	0.388614
C107	C	1.475501	0.158618	0.460298
C108	C	1.376954	0.198831	0.463679
C109	C	1.288361	0.270651	0.395376
C110	C	0.455623	0.945816	-0.246739
C111	C	0.367028	1.017653	-0.315042
C112	C	0.376970	1.049270	-0.386727
C113	C	0.475517	1.009053	-0.390107
C114	C	0.564111	0.937222	-0.321805
C115	C	0.564101	0.937213	0.062098
C116	C	0.475517	1.009049	0.058582
C117	C	0.376967	1.049277	0.014996
C118	C	0.367003	1.017673	-0.025082
C119	C	0.455586	0.945843	-0.021569
C120	C	0.980512	0.904145	-0.225905
C121	C	0.980537	0.968928	-0.290691
C122	C	0.926300	1.005637	-0.364923
C123	C	0.872042	0.977552	-0.374368
C124	C	0.872024	0.912765	-0.309583
H125	H	1.024653	-0.008162	-0.031296
O126	O	0.926173	0.139364	0.501523
C127	C	0.883015	0.174471	0.543209
H128	H	0.890379	0.229010	0.529316
H129	H	0.926086	0.115723	0.607771
H130	H	0.797685	0.207067	0.526249
O131	O	0.659767	0.898319	-0.325203
C132	C	0.671118	0.966567	-0.364710
H133	H	0.591365	1.037713	-0.403612
H134	H	0.717684	0.953119	-0.401400
H135	H	0.713482	0.964057	-0.321065
H136	H	0.286795	1.050386	-0.312275
O137	O	0.819179	0.211737	0.355008
C138	C	0.771322	0.257985	0.275607
H139	H	0.760561	0.324522	0.240610
H140	H	0.692529	0.275384	0.263464
H141	H	0.822174	0.211448	0.258542
H142	H	1.368874	0.173080	0.522053
O143	O	0.819368	1.013342	-0.446536
C144	C	0.831044	1.076530	-0.501682
H145	H	0.851035	1.103260	-0.475618
H146	H	0.755544	1.137049	-0.554644
H147	H	0.895993	1.040380	-0.519376
H148	H	0.565704	0.409208	0.134156
H149	H	1.208131	0.303378	0.398140
H150	H	0.827814	0.333574	0.104865
H151	H	0.304845	1.107765	0.012142
O152	O	1.077363	0.592046	-0.358166
C153	C	1.030408	0.671178	-0.435198
H154	H	0.946613	0.702960	-0.460789
H155	H	1.074465	0.650726	-0.470540
H156	H	1.032177	0.723833	-0.436556
O157	O	0.659877	0.468682	0.104493
C158	C	0.714345	0.459613	0.162349
H159	H	0.680511	0.531201	0.144324
H160	H	0.799604	0.419260	0.170538
H161	H	0.706967	0.421045	0.218967
O162	O	0.271191	1.056827	-0.067352
C163	C	0.195155	1.127011	-0.061863
H164	H	0.229699	1.113624	-0.006907
H165	H	0.126835	1.127180	-0.060017
H166	H	0.167444	1.196982	-0.114226
H167	H	0.483650	1.034768	0.091221
O168	O	1.077592	0.591765	-0.556347
C169	C	1.175822	0.508591	-0.530593
H170	H	1.166978	0.456586	-0.522407
H171	H	1.227901	0.479165	-0.473261
H172	H	1.212017	0.522765	-0.575284
O173	O	0.445713	0.915225	-0.060510
C174	C	0.339732	0.966155	-0.099743
H175	H	0.292500	0.996611	-0.070494
H176	H	0.327365	0.918538	-0.098094
H177	H	0.313634	1.024497	-0.162362
H178	H	1.547648	0.100137	0.515909
H179	H	0.787034	0.614980	-0.573011
H180	H	0.304824	1.107760	-0.442337
O181	O	0.485048	1.039705	-0.459785
C182	C	0.436965	1.027686	-0.501487
H183	H	0.432946	0.971192	-0.459556
H184	H	0.483851	1.006831	-0.535505
H185	H	0.355221	1.095313	-0.543120
O186	O	1.033371	0.996116	-0.281540
C187	C	1.109516	0.974252	-0.313621
H188	H	1.129686	0.915864	-0.315817
H189	H	1.181953	0.951337	-0.276372
H190	H	1.078485	1.037871	-0.374614
O191	O	0.271253	0.812320	-0.067524
C192	C	0.216770	0.821365	-0.125352
H193	H	0.274263	0.771764	-0.137810
H194	H	0.167782	0.895433	-0.180287
H195	H	0.164208	0.804212	-0.104721
O196	O	1.033131	0.868648	-0.153844
C197	C	0.993236	0.940954	-0.147112
H198	H	0.953514	1.008924	-0.207013
H199	H	1.059263	0.925935	-0.110413
H200	H	0.934674	0.946470	-0.118466
O201	O	1.561625	0.088744	0.062095
C202	C	1.620960	0.009062	0.139519
H203	H	1.601603	0.030159	0.179699
H204	H	1.706898	-0.029131	0.150441
H205	H	1.602361	-0.038275	0.151026
O206	O	0.819474	0.211403	0.110833
C207	C	0.889170	0.115084	0.169273
H208	H	0.960566	0.081985	0.155407
H209	H	0.849861	0.084599	0.172513
H210	H	0.913440	0.100783	0.227155
O211	O	0.659771	0.898132	0.104547
C212	C	0.671129	0.859741	0.182449
H213	H	0.591380	0.895345	0.185776
H214	H	0.717725	0.870253	0.208603
H215	H	0.713466	0.782583	0.215963
O216	O	0.819426	0.339299	0.227366
C217	C	0.889084	0.317902	0.190290
H218	H	0.960477	0.304186	0.217854
H219	H	0.849734	0.378562	0.126368
H220	H	0.913367	0.253658	0.196665
H221	H	0.404996	0.421958	0.127778
O222	O	0.819452	0.885363	-0.318709
C223	C	0.889043	0.789040	-0.280829
H224	H	0.970789	0.764779	-0.274594
H225	H	0.865489	0.772300	-0.316124
H226	H	0.887124	0.752155	-0.221141
H227	H	1.024662	0.317945	-0.031309
H228	H	1.024667	0.200389	-0.031296
O229	O	1.581104	0.151335	0.385215
C230	C	1.592442	0.219591	0.345693
H231	H	1.512685	0.290730	0.306783
H232	H	1.639016	0.206134	0.309009
H233	H	1.634793	0.217101	0.389327
H234	H	0.926323	1.058390	-0.417669
O235	O	0.775084	0.615772	-0.369915
C236	C	0.779938	0.540002	-0.316185
H237	H	0.860853	0.480886	-0.268819
H238	H	0.762437	0.516082	-0.346835
H239	H	0.720450	0.561769	-0.289454
O240	O	1.033167	-0.131607	-0.037122
C241	C	1.021519	-0.194806	-0.029091
H242	H	1.001541	-0.221558	0.023705
H243	H	1.097027	-0.255309	-0.021552
H244	H	0.956572	-0.158658	-0.082931
H245	H	0.787060	0.614979	-0.246898
O246	O	0.819441	-0.114682	0.110837
C247	C	0.889110	-0.210999	0.169285
H248	H	0.960506	-0.244123	0.155427
H249	H	0.849774	-0.241463	0.172526
H250	H	0.913384	-0.225295	0.227163
O251	O	0.819189	0.013170	0.110780
C252	C	0.771325	-0.025534	0.143913
H253	H	0.760583	-0.051378	0.112363
H254	H	0.692524	0.029326	0.138655
H255	H	0.822163	-0.085846	0.207512
H256	H	1.065418	0.592875	-0.679527
H257	H	1.208134	0.303402	-0.024033
H258	H	0.208129	0.725521	-0.023999
H259	H	0.787013	0.614995	-0.690566
O260	O	0.446098	0.798402	-0.060422
C261	C	0.545417	0.773510	-0.047992
H262	H	0.604139	0.700652	0.007925
H263	H	0.544434	0.824271	-0.043486
H264	H	0.567989	0.775479	-0.098361
H265	H	1.065455	0.592872	-0.235866
H266	H	1.024628	0.200448	0.508375
O267	O	1.367077	0.168222	-0.023985
C268	C	1.261097	0.219139	-0.063207
H269	H	1.213870	0.249581	-0.033948
H270	H	1.248742	0.171516	-0.061560
H271	H	1.234983	0.277491	-0.125826
H272	H	1.565719	0.157444	0.134114
H273	H	1.404963	0.287777	0.261948
H274	H	1.405014	0.287743	0.127769
H275	H	0.447508	0.920078	-0.188376
H276	H	1.024630	0.317973	0.390829
