data_functionalizedCrystal
_audit_creation_method	'MofGen! by Chris Wilmer'
_symmetry_space_group_name_H-M	'P1'
_symmetry_Int_Tables_number	1
_symmetry_cell_setting	triclinic
loop_
_symmetry_equiv_pos_as_xyz
  x,y,z
_cell_length_a	12.827893
_cell_length_b	16.625546
_cell_length_c	12.827885
_cell_angle_alpha	89.964876
_cell_angle_beta	89.980728
_cell_angle_gamma	90.022439
loop_
_atom_site_label
_atom_site_type_symbol
_atom_site_fract_x
_atom_site_fract_y
_atom_site_fract_z
Zn1	Zn	1.597618	-0.320963	-0.590810
Zn2	Zn	1.597491	-0.455817	-0.416054
Zn3	Zn	1.422860	-0.321002	-0.416084
Zn4	Zn	1.422823	-0.455757	-0.590754
O5	O	1.510198	-0.388385	-0.503425
O6	O	1.743837	-0.338861	-0.567639
O7	O	1.574287	-0.437976	-0.269822
O8	O	1.446110	-0.208165	-0.439297
O9	O	1.743744	-0.437937	-0.439247
O10	O	1.574505	-0.208136	-0.567668
O11	O	1.445987	-0.338928	-0.269843
O12	O	1.276619	-0.338869	-0.439243
O13	O	1.446048	-0.437835	-0.736997
O14	O	1.276592	-0.437873	-0.567572
O15	O	1.574469	-0.338802	-0.737039
O16	O	1.574252	-0.568642	-0.439192
O17	O	1.445925	-0.568598	-0.567544
C18	C	1.238688	-0.388370	-0.503405
C19	C	1.122535	-0.388382	-0.503422
C20	C	1.070765	-0.437449	-0.566825
C21	C	0.950714	-0.437464	-0.566844
C22	C	1.510099	-0.597876	-0.503382
C23	C	1.510152	-0.687497	-0.503398
C24	C	1.510335	-1.015673	-0.503507
C25	C	1.510281	-0.924364	-0.503479
C26	C	1.510243	-0.851588	-0.503452
C27	C	1.510190	-0.760274	-0.503425
C28	C	1.782768	-0.388401	-0.503446
C29	C	1.898921	-0.388408	-0.503455
C30	C	1.510269	-0.388308	-0.775996
C31	C	1.510299	-0.388275	-0.892149
C32	C	1.510326	-0.178076	-0.503492
C33	C	1.510380	-0.088455	-0.503521
C34	C	1.573853	-0.339261	-0.943954
C35	C	1.573886	-0.339225	-1.064004
C36	C	1.510187	-0.388404	-0.231915
C37	C	1.510359	-0.388210	-0.115763
H38	H	0.906193	-0.479474	-0.621123
H39	H	1.455906	-0.430206	-0.936673
H40	H	1.115319	-0.479444	-0.621098
O41	O	1.069554	-0.338201	-0.438642
C42	C	1.140998	-0.292592	-0.379665
H43	H	1.218852	-0.289775	-0.422391
H44	H	1.109395	-0.229079	-0.368698
H45	H	1.152519	-0.322038	-0.300218
H46	H	1.628236	-0.297321	-0.899429
O47	O	1.445300	-0.438242	-1.062748
C48	C	1.341137	-0.420616	-1.089318
H49	H	1.338935	-0.389647	-1.168598
H50	H	1.294247	-0.478810	-1.092927
H51	H	1.306000	-0.379142	-1.027916
O52	O	1.638899	-0.289135	-1.116983
C53	C	1.697938	-0.243581	-1.045541
H54	H	1.701586	-0.276575	-0.967699
H55	H	1.780259	-0.234996	-1.077165
H56	H	1.659712	-0.182337	-1.033988
O57	O	0.952135	-0.338401	-0.438638
C58	C	1.015202	-0.384284	-0.371066
H59	H	1.031443	-0.445432	-0.407792
H60	H	1.092002	-0.351475	-0.357195
H61	H	0.973159	-0.393047	-0.293571
