data_functionalizedCrystal
_audit_creation_method	'MofGen! by Chris Wilmer'
_symmetry_space_group_name_H-M	'P1'
_symmetry_Int_Tables_number	1
_symmetry_cell_setting	triclinic
loop_
_symmetry_equiv_pos_as_xyz
  x,y,z
_cell_length_a	15.995350
_cell_length_b	11.792254
_cell_length_c	10.268362
_cell_angle_alpha	89.995475
_cell_angle_beta	90.001163
_cell_angle_gamma	96.154514
loop_
_atom_site_label
_atom_site_type_symbol
_atom_site_fract_x
_atom_site_fract_y
_atom_site_fract_z
O1	O	-0.114814	1.505943	-0.108286
O2	O	0.218519	1.839276	0.225047
O3	O	0.551853	2.172609	0.558380
O4	O	-0.126630	1.175505	-0.108288
O5	O	0.206703	1.508838	0.225045
O6	O	0.540036	1.842171	0.558379
O7	O	0.001124	1.349756	-0.108292
O8	O	0.334458	1.683090	0.225041
O9	O	0.667791	2.016423	0.558375
O10	O	-0.242568	1.331691	-0.108282
O11	O	0.090765	1.665024	0.225051
O12	O	0.424098	1.998358	0.558385
O13	O	0.001130	1.349741	0.108309
O14	O	0.334463	1.683075	0.441642
O15	O	0.667796	2.016408	0.774975
O16	O	-0.126625	1.175490	0.108313
O17	O	0.206708	1.508823	0.441646
O18	O	0.540042	1.842156	0.774979
O19	O	-0.114809	1.505927	0.108314
O20	O	0.218525	1.839261	0.441648
O21	O	0.551858	2.172594	0.774981
Cu22	Cu	-0.120716	1.340707	0.128091
Cu23	Cu	0.212617	1.674041	0.461424
Cu24	Cu	0.545950	2.007374	0.794758
Cu25	Cu	-0.120723	1.340725	-0.128064
Cu26	Cu	0.212611	1.674058	0.205269
Cu27	Cu	0.545944	2.007392	0.538602
O28	O	-0.242563	1.331676	0.108319
O29	O	0.090770	1.665009	0.441652
O30	O	0.424104	1.998343	0.774985
C31	C	-0.125883	1.133213	0.000012
C32	C	0.207450	1.466546	0.333345
C33	C	0.540783	1.799879	0.666679
C34	C	-0.123655	1.007218	0.000011
C35	C	0.209678	1.340552	0.333344
C36	C	0.543011	1.673885	0.666678
C37	C	-0.121845	0.904897	0.000005
C38	C	0.211488	1.238230	0.333339
C39	C	0.544822	1.571564	0.666672
C40	C	-0.119581	0.776529	0.000004
C41	C	0.213752	1.109862	0.333338
C42	C	0.547085	1.443196	0.666671
C43	C	-0.273764	1.332430	0.000019
C44	C	0.059569	1.665764	0.333353
C45	C	0.392903	1.999097	0.666686
C46	C	-0.366725	1.334669	0.000023
C47	C	-0.033391	1.668003	0.333356
C48	C	0.299942	2.001336	0.666690
C49	C	-0.704509	1.342710	0.000003
C50	C	-0.371175	1.676044	0.333336
C51	C	-0.037842	2.009377	0.666670
C52	C	-0.657642	1.466809	-0.000480
C53	C	-0.324309	1.800143	0.332853
C54	C	0.009024	2.133476	0.666187
C55	C	-0.560942	1.464570	0.000015
C56	C	-0.227608	1.797903	0.333349
C57	C	0.105725	2.131236	0.666682
C58	C	-0.536930	1.338722	0.000012
C59	C	-0.203597	1.672055	0.333345
C60	C	0.129737	2.005389	0.666679
C61	C	-0.577730	1.277503	0.123697
C62	C	-0.244396	1.610837	0.457030
C63	C	0.088937	1.944170	0.790363
C64	C	-0.674380	1.280621	0.123793
C65	C	-0.341047	1.613954	0.457127
C66	C	-0.007713	1.947288	0.790460
C67	C	-0.674722	1.278074	-0.122522
C68	C	-0.341388	1.611408	0.210811
C69	C	-0.008055	1.944741	0.544144
C70	C	-0.577776	1.278104	-0.124150
C71	C	-0.244443	1.611437	0.209184
C72	C	0.088890	1.944770	0.542517
C73	C	-0.442222	1.336461	0.000022
C74	C	-0.108889	1.669794	0.333355
C75	C	0.224444	2.003128	0.666688
C76	C	-0.799217	1.344967	0.000002
C77	C	-0.465884	1.678301	0.333335
C78	C	-0.132550	2.011634	0.666669
C79	C	0.032325	1.349002	0.000004
C80	C	0.365658	1.682335	0.333338
C81	C	0.698992	2.015669	0.666671
C82	C	0.125286	1.346763	-0.000008
C83	C	0.458619	1.680096	0.333325
C84	C	0.791952	2.013430	0.666659
C85	C	-0.115556	1.548220	0.000012
C86	C	0.217778	1.881553	0.333345
C87	C	0.551111	2.214886	0.666678
C88	C	-0.117784	1.674214	0.000004
C89	C	0.215550	2.007547	0.333337
C90	C	0.548883	2.340881	0.666671
N91	N	-0.120711	1.340703	0.308257
N92	N	0.212622	1.674036	0.641590
N93	N	0.545955	2.007370	0.974923
N94	N	-0.120721	1.340738	-0.308230
N95	N	0.212612	1.674072	0.025103
N96	N	0.545946	2.007405	0.358436
C97	C	-0.120721	1.340719	0.573927
C98	C	0.212612	1.674053	0.907261
C99	C	0.545946	2.007386	1.240594
C100	C	-0.120718	1.340707	0.426089
C101	C	0.212615	1.674040	0.759423
C102	C	0.545949	2.007373	1.092756
H103	H	-0.532738	1.512697	-0.088642
H104	H	-0.199404	1.846031	0.244691
H105	H	0.133929	2.179364	0.578025
H106	H	-0.533301	1.512998	0.088835
H107	H	-0.199967	1.846332	0.422168
H108	H	0.133366	2.179665	0.755502
Cl109	Cl	-0.702957	1.349524	0.266543
Cl110	Cl	-0.369624	1.682858	0.599876
Cl111	Cl	-0.036291	2.016191	0.933210
Cl112	Cl	-0.555272	1.134755	0.130802
Cl113	Cl	-0.221938	1.468088	0.464135
Cl114	Cl	0.111395	1.801421	0.797468
H115	H	-0.706211	1.189510	0.129414
H116	H	-0.372878	1.522843	0.462748
H117	H	-0.039545	1.856176	0.796081
Cl118	Cl	-0.723107	1.136808	-0.123812
Cl119	Cl	-0.389773	1.470142	0.209521
Cl120	Cl	-0.056440	1.803475	0.542855
Cl121	Cl	-0.534225	1.343137	0.265818
Cl122	Cl	-0.200892	1.676470	0.599151
Cl123	Cl	0.132441	2.009804	0.932485
Cl124	Cl	-0.706725	1.340718	-0.267265
Cl125	Cl	-0.373392	1.674051	0.066068
Cl126	Cl	-0.040059	2.007385	0.399402
Cl127	Cl	-0.535940	1.347112	-0.265425
Cl128	Cl	-0.202607	1.680445	0.067908
Cl129	Cl	0.130726	2.013778	0.401241
H130	H	-0.676389	1.516410	-0.089191
H131	H	-0.343056	1.849744	0.244142
H132	H	-0.009722	2.183077	0.577476
Cl133	Cl	-0.553325	1.136455	-0.135777
Cl134	Cl	-0.219991	1.469788	0.197556
Cl135	Cl	0.113342	1.803122	0.530890
H136	H	-0.677541	1.516229	0.087637
H137	H	-0.344207	1.849562	0.420971
H138	H	-0.010874	2.182895	0.754304
