data_functionalizedCrystal
_audit_creation_method	'MofGen! by Chris Wilmer'
_symmetry_space_group_name_H-M	'P1'
_symmetry_Int_Tables_number	1
_symmetry_cell_setting	triclinic
loop_
_symmetry_equiv_pos_as_xyz
  x,y,z
_cell_length_a	23.532407
_cell_length_b	23.532357
_cell_length_c	22.610064
_cell_angle_alpha	89.998517
_cell_angle_beta	89.997161
_cell_angle_gamma	82.838485
loop_
_atom_site_label
_atom_site_type_symbol
_atom_site_fract_x
_atom_site_fract_y
_atom_site_fract_z
O1	O	0.755251	0.069129	-0.049118
O2	O	0.589386	0.079132	-0.049136
O3	O	0.677335	-0.008803	-0.049114
O4	O	0.667302	0.157064	-0.049140
O5	O	0.677319	-0.008790	0.049255
O6	O	0.589370	0.079145	0.049233
O7	O	0.755236	0.069142	0.049251
Zn8	Zn	0.672301	0.074145	0.064860
Zn9	Zn	0.672321	0.074128	-0.064745
O10	O	0.667286	0.157077	0.049229
C11	C	0.568162	0.078884	0.000046
C12	C	0.504945	0.078118	0.000040
C13	C	0.105834	0.125353	0.000059
C14	C	0.046434	0.124641	0.000063
O15	O	0.009681	0.168428	0.000078
N16	N	0.023817	0.072364	0.000070
C17	C	0.060604	0.020794	0.000079
O18	O	0.035912	-0.023737	0.000086
C19	C	0.120003	0.021506	0.000080
C20	C	0.142616	0.073787	0.000067
C21	C	0.128448	0.177629	0.000047
C22	C	0.187844	0.178341	0.000042
C23	C	0.224626	0.126775	0.000050
C24	C	0.202012	0.074498	0.000062
C25	C	0.156788	-0.030063	0.000093
C26	C	0.216191	-0.029346	0.000094
C27	C	0.238804	0.022935	0.000081
C28	C	0.298190	0.023644	0.000065
N29	N	0.320807	0.075922	0.000058
C30	C	0.284025	0.127487	0.000050
C31	C	-0.064139	0.019303	0.000079
C32	C	-0.123536	0.018590	0.000075
C33	C	-0.137702	0.122437	0.000059
C34	C	-0.078303	0.123149	0.000060
C35	C	-0.041522	0.071580	0.000072
C36	C	0.408761	0.128977	0.000040
C37	C	0.468163	0.129684	0.000032
C38	C	0.482324	0.025837	0.000051
C39	C	0.422927	0.025130	0.000055
C40	C	0.386147	0.076704	0.000051
O41	O	0.334977	-0.020120	0.000052
O42	O	0.308725	0.172011	0.000051
C43	C	0.677076	-0.030013	0.000072
C44	C	0.676322	-0.093232	0.000078
C45	C	0.671594	-0.485250	-0.053576
C46	C	0.670876	-0.544650	-0.053579
O47	O	0.670493	-0.575372	-0.099182
N48	N	0.670512	-0.574354	0.000041
C49	C	0.670859	-0.544655	0.053668
O50	O	0.670483	-0.575375	0.099276
C51	C	0.671573	-0.485256	0.053671
C52	C	0.671943	-0.455556	0.000047
C53	C	0.671963	-0.455550	-0.107195
C54	C	0.672681	-0.396155	-0.107192
C55	C	0.673030	-0.366460	-0.053569
C56	C	0.672661	-0.396160	0.000051
C57	C	0.671916	-0.455557	0.107298
C58	C	0.672629	-0.396154	0.107296
C59	C	0.672998	-0.366454	0.053672
C60	C	0.673728	-0.307070	0.053678
N61	N	0.674092	-0.277366	0.000057
C62	C	0.673743	-0.307061	-0.053566
C63	C	0.669361	-0.669396	0.053658
C64	C	0.668652	-0.728795	0.053656
C65	C	0.668668	-0.728785	-0.053592
C66	C	0.669381	-0.669387	-0.053589
C67	C	0.669725	-0.639692	0.000038
C68	C	0.675252	-0.182327	-0.053554
C69	C	0.675973	-0.122927	-0.053545
C70	C	0.675954	-0.122941	0.053702
C71	C	0.675236	-0.182336	0.053694
C72	C	0.674883	-0.212027	0.000061
O73	O	0.674109	-0.276310	0.099257
O74	O	0.674112	-0.276333	-0.099166
C75	C	0.776459	0.069390	0.000068
C76	C	0.839676	0.070156	0.000070
C77	C	0.667545	0.178287	0.000042
C78	C	0.668300	0.241506	0.000032
N79	N	0.672291	0.074157	0.153313
N80	N	0.672335	0.074113	-0.153198
C81	C	0.711267	0.035197	0.561964
C82	C	0.711269	0.035192	0.623884
O83	O	0.744384	0.002076	0.655911
N84	N	0.672321	0.074117	0.654850
C85	C	0.633362	0.113044	0.623893
O86	O	0.600233	0.146151	0.655918
C87	C	0.633357	0.113045	0.561974
C88	C	0.672312	0.074122	0.531011
C89	C	0.750218	-0.003724	0.531001
C90	C	0.750216	-0.003719	0.469085
C91	C	0.711262	0.035207	0.438133
C92	C	0.672310	0.074127	0.469096
C93	C	0.594397	0.151969	0.531018
C94	C	0.594395	0.151966	0.469095
C95	C	0.633350	0.113043	0.438133
C96	C	0.633354	0.113057	0.376227
N97	N	0.672303	0.074133	0.345261
C98	C	0.711257	0.035208	0.376214
C99	C	0.633376	0.113038	0.753927
C100	C	0.633383	0.113040	0.815844
C101	C	0.711290	0.035188	0.815831
C102	C	0.711284	0.035189	0.753912
C103	C	0.672324	0.074114	0.722961
C104	C	0.711249	0.035221	0.246187
C105	C	0.711245	0.035231	0.184265
C106	C	0.633337	0.113081	0.184284
C107	C	0.633342	0.113073	0.246200
C108	C	0.672301	0.074139	0.277150
O109	O	0.600255	0.146155	0.344161
O110	O	0.744375	0.002101	0.344182
H111	H	-0.034193	-0.022694	0.000084
C112	C	0.667568	-0.819839	-0.101209
C113	C	0.668277	-0.761433	-0.112537
H114	H	0.667323	-0.839994	-0.137598
H115	H	0.700662	-0.834104	-0.079179
H116	H	0.634230	-0.825030	-0.079176
H117	H	0.701616	-0.756242	-0.134567
H118	H	0.635179	-0.747164	-0.134576
C119	C	0.333751	0.188450	0.050600
C120	C	0.368339	0.185669	0.000032
H121	H	0.308800	0.223450	0.050593
H122	H	0.311777	0.157222	0.050605
H123	H	0.357223	0.186572	0.084900
H124	H	0.344867	0.187543	-0.034268
H125	H	0.390315	0.216904	0.000022
H126	H	0.486571	0.172259	0.000021
C127	C	0.788829	0.022385	0.684228
C128	C	0.754066	-0.007617	0.719860
H129	H	0.815233	-0.004050	0.663205
H130	H	0.765628	0.045577	0.656946
H131	H	0.809210	0.045969	0.708370
H132	H	0.733682	-0.031198	0.695717
H133	H	0.777271	-0.030819	0.747145
C134	C	0.618863	-0.788897	0.115868
C135	C	0.668243	-0.761435	0.112602
H136	H	0.618609	-0.809047	0.152260
H137	H	0.585937	-0.761188	0.113628
H138	H	0.618561	-0.815090	0.083935
H139	H	0.668544	-0.735239	0.144534
H140	H	0.701178	-0.789147	0.114848
H141	H	0.743007	0.003492	0.841044
H142	H	0.206249	0.220913	0.000031
H143	H	0.742969	0.003536	0.159057
H144	H	0.562667	0.183663	0.443898
C145	C	0.176782	-0.132635	0.000131
C146	C	0.131943	-0.087533	0.000116
H147	H	0.161443	-0.168116	0.000151
H148	H	0.199652	-0.130205	-0.034174
H149	H	0.199655	-0.130177	0.034433
H150	H	0.109072	-0.089989	-0.034188
H151	H	0.109063	-0.089965	0.034425
C152	C	-0.019730	0.184207	0.050614
C153	C	-0.053447	0.180616	0.000048
H154	H	-0.004384	0.219685	0.050604
H155	H	-0.042611	0.181779	0.084911
H156	H	0.010678	0.153598	0.050615
H157	H	-0.083858	0.211223	0.000049
H158	H	-0.030564	0.183050	-0.034258
H159	H	0.601627	0.144773	0.271411
H160	H	0.098505	0.219623	0.000043
C161	C	0.579672	-0.019171	0.000063
C162	C	0.522763	-0.030843	0.000064
H163	H	0.604637	-0.054163	0.000079
H164	H	0.586493	0.002267	-0.034245
H165	H	0.586483	0.002291	0.034362
H166	H	0.515950	-0.052301	-0.034238
H167	H	0.515939	-0.052290	0.034375
C168	C	-0.235051	0.167449	0.000062
C169	C	-0.178142	0.179121	0.000056
H170	H	-0.260016	0.202441	0.000063
H171	H	-0.241869	0.145998	-0.034236
H172	H	-0.241866	0.146000	0.034371
H173	H	-0.171326	0.200567	-0.034255
H174	H	-0.171322	0.200581	0.034358
C175	C	0.622209	-0.515654	-0.169442
C176	C	0.671581	-0.488183	-0.166145
H177	H	0.621976	-0.535795	-0.205840
H178	H	0.621892	-0.541850	-0.137519
H179	H	0.589273	-0.487945	-0.167213
H180	H	0.704517	-0.515893	-0.168370
H181	H	0.671904	-0.461985	-0.198077
C182	C	-0.103553	-0.083985	0.000090
C183	C	-0.148389	-0.038879	0.000084
H184	H	-0.118895	-0.119464	0.000102
H185	H	-0.080682	-0.081550	-0.034214
H186	H	-0.080680	-0.081535	0.034394
H187	H	-0.171260	-0.041326	-0.034222
H188	H	-0.171269	-0.041315	0.034391
H189	H	0.676275	-0.098748	-0.097214
H190	H	0.669643	-0.645223	0.097330
C191	C	0.291210	-0.088804	-0.050463
C192	C	0.256623	-0.086033	0.000105
H193	H	0.316172	-0.123798	-0.050455
H194	H	0.267743	-0.086930	-0.084759
H195	H	0.313179	-0.057566	-0.050465
H196	H	0.234651	-0.117269	0.000105
H197	H	0.280092	-0.087912	0.034410
H198	H	0.404515	-0.017442	0.000057
C199	C	0.623909	-0.371257	-0.198588
C200	C	0.673055	-0.363541	-0.166157
H201	H	0.624130	-0.351131	-0.234997
H202	H	0.623445	-0.410887	-0.206219
H203	H	0.590820	-0.356976	-0.176544
H204	H	0.706144	-0.377826	-0.188199
H205	H	0.673523	-0.323903	-0.158527
C206	C	0.675327	-0.176333	-0.159564
C207	C	0.674855	-0.214956	-0.112507
H208	H	0.675084	-0.196479	-0.195958
H209	H	0.642397	-0.148629	-0.157325
H210	H	0.708828	-0.157705	-0.157326
H211	H	0.641352	-0.233581	-0.114743
H212	H	0.707789	-0.242671	-0.114747
C213	C	0.719137	-0.609253	-0.115809
C214	C	0.669769	-0.636734	-0.112529
H215	H	0.719372	-0.589098	-0.152199
H216	H	0.719445	-0.583070	-0.083876
H217	H	0.752075	-0.636958	-0.113588
H218	H	0.636830	-0.609028	-0.114747
H219	H	0.669456	-0.662919	-0.144472
C220	C	0.517382	0.228909	0.524786
C221	C	0.551572	0.194752	0.565042
H222	H	0.490940	0.255320	0.545791
H223	H	0.540966	0.249276	0.500636
H224	H	0.497045	0.205293	0.500635
H225	H	0.571913	0.218367	0.589190
H226	H	0.527985	0.174384	0.589202
H227	H	0.671616	-0.479729	0.150964
H228	H	0.672900	-0.371979	0.150966
H229	H	0.674940	-0.206520	0.097359
C230	C	0.556376	0.189991	0.809623
C231	C	0.590565	0.155828	0.849875
H232	H	0.529937	0.216403	0.830631
H233	H	0.579961	0.210358	0.785474
H234	H	0.536034	0.166380	0.785471
H235	H	0.610910	0.179439	0.874023
H236	H	0.566977	0.135461	0.874034
H237	H	0.676241	-0.098753	0.097360
H238	H	0.601651	0.144740	0.728729
H239	H	0.742972	0.003516	0.271379
H240	H	0.781935	-0.035415	0.443879
H241	H	0.781939	-0.035424	0.556197
H242	H	0.601622	0.144775	0.159073
