data_functionalizedCrystal
_audit_creation_method	'MofGen! by Chris Wilmer'
_symmetry_space_group_name_H-M	'P1'
_symmetry_Int_Tables_number	1
_symmetry_cell_setting	triclinic
loop_
_symmetry_equiv_pos_as_xyz
  x,y,z
_cell_length_a	16.959455
_cell_length_b	17.640280
_cell_length_c	16.959447
_cell_angle_alpha	101.226742
_cell_angle_beta	90.014322
_cell_angle_gamma	78.797529
loop_
_atom_site_label
_atom_site_type_symbol
_atom_site_fract_x
_atom_site_fract_y
_atom_site_fract_z
Zn1	Zn	1.272058	-0.314718	0.383358
Zn2	Zn	1.772058	0.185282	0.883358
Zn3	Zn	1.298725	-0.446906	0.224487
Zn4	Zn	1.798725	0.053094	0.724487
Zn5	Zn	1.139892	-0.314743	0.251191
Zn6	Zn	1.639892	0.185257	0.751191
Zn7	Zn	1.166584	-0.446847	0.356638
Zn8	Zn	1.666584	0.053153	0.856638
O9	O	1.219315	-0.380803	0.303918
O10	O	1.719315	0.119197	0.803918
O11	O	1.386210	-0.332268	0.362291
O12	O	1.886210	0.167732	0.862291
O13	O	1.277645	-0.429409	0.117412
O14	O	1.777645	0.070591	0.617412
O15	O	1.135093	-0.204133	0.291081
O16	O	1.635093	0.295867	0.791081
O17	O	1.405802	-0.429385	0.245569
O18	O	1.905802	0.070615	0.745569
O19	O	1.232195	-0.204115	0.388184
O20	O	1.732195	0.295885	0.888184
O21	O	1.160951	-0.332310	0.137030
O22	O	1.660951	0.167690	0.637030
O23	O	1.032819	-0.332252	0.265171
O24	O	1.532819	0.167748	0.765171
O25	O	1.180586	-0.429284	0.470800
O26	O	1.680586	0.070716	0.970800
O27	O	1.052429	-0.429308	0.342643
O28	O	1.552429	0.070692	0.842643
O29	O	1.258077	-0.332210	0.490432
O30	O	1.758077	0.167790	0.990432
O31	O	1.303527	-0.557504	0.219659
O32	O	1.803527	-0.057504	0.719659
O33	O	1.206444	-0.557461	0.316750
O34	O	1.706444	-0.057461	0.816750
C35	C	1.013943	-0.380777	0.303906
C36	C	1.513943	0.119223	0.803906
C37	C	0.926088	-0.380785	0.303915
C38	C	1.426088	0.119215	0.803915
C39	C	1.260797	-0.586162	0.262425
C40	C	1.760797	-0.086162	0.762425
C41	C	1.278616	-0.674015	0.244700
C42	C	1.778616	-0.174015	0.744700
C43	C	0.544372	-0.330225	0.263693
C44	C	1.044372	0.169775	0.763693
C45	C	0.564874	-0.431447	0.344176
C46	C	1.064874	0.068553	0.844176
C47	C	0.647417	-0.431435	0.344174
C48	C	1.147417	0.068565	0.844174
C49	C	0.678442	-0.380819	0.303929
C50	C	1.178442	0.119181	0.803929
C51	C	0.626924	-0.330214	0.263687
C52	C	1.126924	0.169786	0.763687
C53	C	0.698943	-0.482045	0.384408
C54	C	1.198943	0.017955	0.884408
C55	C	0.781492	-0.482037	0.384406
C56	C	1.281492	0.017963	0.884406
C57	C	0.812518	-0.431416	0.344166
C58	C	1.312518	0.068584	0.844166
C59	C	0.760993	-0.380808	0.303923
C60	C	1.260993	0.119192	0.803923
C61	C	0.792018	-0.330191	0.263679
C62	C	1.292018	0.169809	0.763679
C63	C	0.740495	-0.279579	0.223440
C64	C	1.240495	0.220421	0.723440
C65	C	0.657949	-0.279593	0.223447
C66	C	1.157949	0.220407	0.723447
C67	C	0.895063	-0.431402	0.344159
C68	C	1.395063	0.068598	0.844159
C69	C	0.874570	-0.330180	0.263673
C70	C	1.374570	0.169820	0.763673
C71	C	1.084273	-0.962977	0.438860
C72	C	1.584273	-0.462977	0.938860
C73	C	1.101018	-1.045529	0.422179
C74	C	1.601018	-0.545529	0.922179
C75	C	1.202174	-1.045509	0.321181
C76	C	1.702174	-0.545509	0.821181
C77	C	1.185440	-0.962956	0.337856
C78	C	1.685440	-0.462956	0.837856
C79	C	1.126488	-0.921696	0.396695
C80	C	1.626488	-0.421696	0.896695
C81	C	1.227655	-0.921675	0.295692
C82	C	1.727655	-0.421675	0.795692
C83	C	1.210920	-0.839129	0.312362
C84	C	1.710920	-0.339129	0.812362
C85	C	1.151969	-0.797864	0.371197
C86	C	1.651969	-0.297864	0.871197
C87	C	1.109753	-0.839151	0.413366
C88	C	1.609753	-0.339151	0.913366
C89	C	1.286603	-0.962935	0.236849
C90	C	1.786603	-0.462935	0.736849
C91	C	1.328818	-0.921654	0.194684
C92	C	1.828818	-0.421654	0.694684
C93	C	1.312087	-0.839107	0.211358
C94	C	1.812087	-0.339107	0.711358
C95	C	1.253136	-0.797842	0.270193
C96	C	1.753136	-0.297842	0.770193
C97	C	1.354303	-0.797820	0.169190
C98	C	1.854303	-0.297820	0.669190
C99	C	1.337568	-0.715274	0.185860
C100	C	1.837568	-0.215274	0.685860
C101	C	1.236401	-0.715296	0.286864
C102	C	1.736401	-0.215296	0.786864
C103	C	1.425488	-0.380830	0.303932
C104	C	1.925488	0.119170	0.803932
C105	C	1.513347	-0.380841	0.303937
C106	C	2.013347	0.119159	0.803937
C107	C	1.219334	-0.380738	0.510100
C108	C	1.719334	0.119262	1.010100
C109	C	1.219343	-0.380710	0.597962
C110	C	1.719343	0.119290	1.097962
C111	C	1.177692	-0.174643	0.345592
C112	C	1.677692	0.325357	0.845592
C113	C	1.159955	-0.086790	0.363350
C114	C	1.659955	0.413210	0.863350
C115	C	1.219329	-0.380811	0.098551
C116	C	1.719329	0.119189	0.598551
C117	C	1.219429	-0.380617	0.010734
C118	C	1.719429	0.119383	0.510734
C119	C	1.179074	-0.431169	0.959236
C120	C	1.679074	0.068831	1.459236
C121	C	1.259767	-0.330085	0.979674
C122	C	1.759767	0.169915	1.479674
C123	C	1.259749	-0.330101	0.897124
C124	C	1.759749	0.169899	1.397124
C125	C	1.219394	-0.380653	0.845627
C126	C	1.719394	0.119347	1.345627
C127	C	1.179057	-0.431189	0.876679
C128	C	1.679057	0.068811	1.376679
C129	C	1.300092	-0.279573	0.866065
C130	C	1.800092	0.220427	1.366065
C131	C	1.300077	-0.279588	0.783511
C132	C	1.800077	0.220412	1.283511
C133	C	1.259717	-0.330137	0.732013
C134	C	1.759717	0.169863	1.232013
C135	C	1.219377	-0.380673	0.763069
C136	C	1.719377	0.119327	1.263069
C137	C	1.179023	-0.431225	0.711572
C138	C	1.679023	0.068775	1.211572
C139	C	1.138678	-0.481759	0.742628
C140	C	1.638678	0.018241	1.242628
C141	C	1.138697	-0.481737	0.825180
C142	C	1.638697	0.018263	1.325180
C143	C	1.259698	-0.330158	0.649460
C144	C	1.759698	0.169842	1.149460
C145	C	1.179006	-0.431245	0.629014
C146	C	1.679006	0.068755	1.129014
H147	H	0.765767	-0.238370	0.190669
H148	H	1.265767	0.261630	0.690669
C149	C	0.664801	-0.537631	0.428779
C150	C	1.164801	-0.037631	0.928779
H151	H	0.707303	-0.567749	0.452769
H152	H	1.207303	-0.067749	0.952769
H153	H	0.626539	-0.507357	0.469359
H154	H	1.126539	-0.007357	0.969359
H155	H	0.639502	-0.572067	0.391610
H156	H	1.139502	-0.072067	0.891610
C157	C	0.601276	-0.223936	0.179177
C158	C	1.101276	0.276064	0.679177
H159	H	0.547673	-0.231202	0.184935
H160	H	1.047673	0.268798	0.684935
H161	H	0.604067	-0.170839	0.201551
H162	H	1.104067	0.329161	0.701551
H163	H	0.617118	-0.235448	0.123722
H164	H	1.117118	0.264552	0.623722
C165	C	1.094330	-0.537322	0.859343
C166	C	1.594330	-0.037322	1.359343
H167	H	1.100129	-0.530076	0.915882
H168	H	1.600129	-0.030076	1.415882
H169	H	1.038880	-0.525755	0.848158
H170	H	1.538880	-0.025755	1.348158
H171	H	1.116624	-0.590436	0.835072
H172	H	1.616624	-0.090436	1.335072
C173	C	1.393662	-0.967040	0.129965
C174	C	1.893662	-0.467040	0.629965
H175	H	1.416403	-0.930629	0.107238
H176	H	1.916403	-0.430629	0.607238
H177	H	1.434600	-0.999204	0.153737
H178	H	1.934600	-0.499204	0.653737
H179	H	1.369979	-0.999276	0.088981
H180	H	1.869979	-0.499276	0.588981
H181	H	1.250170	-1.079113	0.273272
H182	H	1.750170	-0.579113	0.773272
H183	H	1.402296	-0.831426	0.121277
H184	H	1.902296	-0.331426	0.621277
C185	C	1.171560	-0.669902	0.351590
C186	C	1.671560	-0.169902	0.851590
H187	H	1.167645	-0.614829	0.355481
H188	H	1.667645	-0.114829	0.855481
H189	H	1.121208	-0.683471	0.337240
H190	H	1.621208	-0.183471	0.837240
H191	H	1.185837	-0.683393	0.401988
H192	H	1.685837	-0.183393	0.901988
H193	H	1.292548	-0.289017	0.624177
H194	H	1.792548	0.210983	1.124177
C195	C	1.094311	-0.537382	0.685975
C196	C	1.594311	-0.037382	1.185975
H197	H	1.070296	-0.567484	0.716288
H198	H	1.570296	-0.067484	1.216288
H199	H	1.053763	-0.507166	0.659869
H200	H	1.553763	-0.007166	1.159869
H201	H	1.131520	-0.571830	0.646821
H202	H	1.631520	-0.071830	1.146821
H203	H	1.300229	-1.030149	0.223279
H204	H	1.800229	-0.530149	0.723279
H205	H	0.502418	-0.289015	0.230934
H206	H	1.002418	0.210985	0.730934
C207	C	1.134701	-0.486753	0.993393
C208	C	1.634701	0.013247	1.493393
H209	H	1.140492	-0.479507	1.049933
H210	H	1.640492	0.020493	1.549933
H211	H	1.079254	-0.475185	0.982200
H212	H	1.579254	0.024815	1.482200
H213	H	1.156997	-0.539867	0.969124
H214	H	1.656997	-0.039867	1.469124
C215	C	1.304148	-0.274478	1.036318
C216	C	1.804148	0.225522	1.536318
H217	H	1.298376	-0.281700	1.089932
H218	H	1.798376	0.218300	1.589932
H219	H	1.359591	-0.286047	1.020451
H220	H	1.859591	0.213953	1.520451
H221	H	1.281842	-0.221372	1.033529
H222	H	1.781842	0.278628	1.533529
C223	C	0.838159	-0.537699	0.428674
C224	C	1.338159	-0.037699	0.928674
H225	H	0.807857	-0.567841	0.452648
H226	H	1.307857	-0.067841	0.952648
H227	H	0.877310	-0.572096	0.391435
H228	H	1.377310	-0.072096	0.891435
H229	H	0.864260	-0.507493	0.469268
H230	H	1.364260	-0.007493	0.969268
C231	C	1.344446	-0.223999	0.749357
C232	C	1.844446	0.276001	1.249357
H233	H	1.368476	-0.193886	0.791852
H234	H	1.868476	0.306114	1.291852
H235	H	1.384983	-0.254241	0.711034
H236	H	1.884983	0.245759	1.211034
H237	H	1.307239	-0.189560	0.724125
H238	H	1.807239	0.310440	1.224125
H239	H	0.539609	-0.472661	0.376936
H240	H	1.039609	0.027339	0.876936
H241	H	0.937010	-0.472612	0.376918
H242	H	1.437010	0.027388	0.876918
C243	C	1.044917	-0.793760	0.478099
C244	C	1.544917	-0.293760	0.978099
H245	H	1.022170	-0.830167	0.500827
H246	H	1.522170	-0.330167	1.000827
H247	H	1.068603	-0.761522	0.519070
H248	H	1.568603	-0.261522	1.019070
H249	H	1.003970	-0.761597	0.454328
H250	H	1.503970	-0.261597	0.954328
H251	H	1.138338	-0.730650	0.384764
H252	H	1.638338	-0.230650	0.884764
H253	H	1.036274	-0.929383	0.486779
H254	H	1.536274	-0.429383	0.986779
C255	C	1.054582	-1.090936	0.468570
C256	C	1.554582	-0.590936	0.968570
H257	H	1.017082	-1.054538	0.506003
H258	H	1.517082	-0.554538	1.006003
H259	H	1.026700	-1.123180	0.431794
H260	H	1.526700	-0.623180	0.931794
H261	H	1.091323	-1.123094	0.496547
H262	H	1.591323	-0.623094	0.996547
H263	H	1.371943	-0.681663	0.151525
H264	H	1.871943	-0.181663	0.651525
C265	C	1.134628	-0.486865	0.572370
C266	C	1.634628	0.013135	1.072370
H267	H	1.110614	-0.516962	0.602690
H268	H	1.610614	-0.016962	1.102690
H269	H	1.094077	-0.456645	0.546270
H270	H	1.594077	0.043355	1.046270
H271	H	1.171828	-0.521318	0.533211
H272	H	1.671828	-0.021318	1.033211
C273	C	1.344466	-0.223961	0.922712
C274	C	1.844466	0.276039	1.422712
H275	H	1.338685	-0.231178	0.976327
H276	H	1.838685	0.268822	1.476327
H277	H	1.399911	-0.235528	0.906855
H278	H	1.899911	0.264472	1.406855
H279	H	1.322160	-0.170857	0.919916
H280	H	1.822160	0.329143	1.419916
H281	H	0.899822	-0.288956	0.230907
H282	H	1.399822	0.211044	0.730907
