data_functionalizedCrystal
_audit_creation_method	'MofGen! by Chris Wilmer'
_symmetry_space_group_name_H-M	'P1'
_symmetry_Int_Tables_number	1
_symmetry_cell_setting	triclinic
loop_
_symmetry_equiv_pos_as_xyz
  x,y,z
_cell_length_a	21.295419
_cell_length_b	21.295417
_cell_length_c	21.295411
_cell_angle_alpha	90.021644
_cell_angle_beta	90.024539
_cell_angle_gamma	90.045308
loop_
_atom_site_label
_atom_site_type_symbol
_atom_site_fract_x
_atom_site_fract_y
_atom_site_fract_z
Zn1	Zn	0.962356	-0.250432	0.355911
Zn2	Zn	1.295689	0.082901	0.689244
Zn3	Zn	1.629022	0.416234	1.022578
Zn4	Zn	0.962258	-0.355684	0.250637
Zn5	Zn	1.295591	-0.022351	0.583970
Zn6	Zn	1.628925	0.310982	0.917303
Zn7	Zn	0.857079	-0.250460	0.250656
Zn8	Zn	1.190412	0.082873	0.583990
Zn9	Zn	1.523745	0.416207	0.917323
Zn10	Zn	0.857048	-0.355695	0.355868
Zn11	Zn	1.190381	-0.022361	0.689202
Zn12	Zn	1.523715	0.310972	1.022535
O13	O	0.909685	-0.303068	0.303268
O14	O	1.243018	0.030266	0.636601
O15	O	1.576352	0.363599	0.969935
O16	O	1.050432	-0.264378	0.341956
O17	O	1.383765	0.068955	0.675289
O18	O	1.717099	0.402288	1.008623
O19	O	0.948278	-0.341733	0.162550
O20	O	1.281611	-0.008400	0.495883
O21	O	1.614944	0.324934	0.829216
O22	O	0.871098	-0.162367	0.264645
O23	O	1.204431	0.170966	0.597978
O24	O	1.537764	0.504300	0.931311
O25	O	1.050360	-0.341706	0.264611
O26	O	1.383694	-0.008373	0.597944
O27	O	1.717027	0.324960	0.931278
O28	O	0.948444	-0.162347	0.341975
O29	O	1.281777	0.170987	0.675308
O30	O	1.615111	0.504320	1.008642
O31	O	0.871003	-0.264425	0.162564
O32	O	1.204336	0.068908	0.495898
O33	O	1.537670	0.402241	0.829231
O34	O	0.768985	-0.264436	0.264603
O35	O	1.102319	0.068898	0.597936
O36	O	1.435652	0.402231	0.931270
O37	O	0.871045	-0.341724	0.443963
O38	O	1.204379	-0.008391	0.777297
O39	O	1.537712	0.324942	1.110630
O40	O	0.768963	-0.341751	0.341902
O41	O	1.102296	-0.008418	0.675235
O42	O	1.435629	0.324915	1.008569
O43	O	0.948414	-0.264388	0.443995
O44	O	1.281748	0.068945	0.777328
O45	O	1.615081	0.402278	1.110662
O46	O	0.948248	-0.443775	0.264570
O47	O	1.281581	-0.110442	0.597903
O48	O	1.614915	0.222892	0.931236
O49	O	0.870951	-0.443783	0.341883
O50	O	1.204284	-0.110449	0.675216
O51	O	1.537617	0.222884	1.008550
C52	C	0.746133	-0.303098	0.303250
C53	C	1.079467	0.030235	0.636584
C54	C	1.412800	0.363569	0.969917
C55	C	0.676165	-0.303126	0.303258
C56	C	1.009499	0.030207	0.636591
C57	C	1.342832	0.363541	0.969924
C58	C	0.643358	-0.262927	0.343593
C59	C	0.976692	0.070406	0.676927
C60	C	1.310025	0.403739	1.010260
C61	C	0.577616	-0.262910	0.343596
C62	C	0.910949	0.070423	0.676929
C63	C	1.244283	0.403756	1.010263
C64	C	0.544683	-0.303104	0.303269
C65	C	0.878016	0.030230	0.636603
C66	C	1.211349	0.363563	0.969936
C67	C	0.577498	-0.343305	0.262926
C68	C	0.910831	-0.009972	0.596259
C69	C	1.244164	0.323361	0.929592
C70	C	0.643239	-0.343317	0.262920
C71	C	0.976572	-0.009983	0.596253
C72	C	1.309906	0.323350	0.929587
N73	N	0.441407	-0.358181	0.298349
N74	N	0.774741	-0.024847	0.631683
N75	N	1.108074	0.308486	0.965016
N76	N	0.378956	-0.358168	0.298359
N77	N	0.712289	-0.024835	0.631692
N78	N	1.045623	0.308498	0.965025
C79	C	0.346608	-0.303071	0.303283
C80	C	0.679941	0.030262	0.636616
C81	C	1.013275	0.363596	0.969950
N82	N	0.379071	-0.247985	0.308210
N83	N	0.712404	0.085348	0.641544
N84	N	1.045738	0.418681	0.974877
N85	N	0.441528	-0.247999	0.308205
N86	N	0.774862	0.085335	0.641538
N87	N	1.108195	0.418668	0.974871
C88	C	0.473397	-0.303095	0.303271
C89	C	0.806731	0.030238	0.636604
C90	C	1.140064	0.363571	0.969937
C91	C	0.242516	-0.262850	0.343624
C92	C	0.575849	0.070483	0.676957
C93	C	0.909182	0.403816	1.010290
C94	C	0.176772	-0.262832	0.343622
C95	C	0.510105	0.070501	0.676955
C96	C	0.843439	0.403834	1.010288
C97	C	0.176655	-0.343233	0.262955
C98	C	0.509988	-0.009900	0.596288
C99	C	0.843322	0.323434	0.929621
C100	C	0.242397	-0.343245	0.262953
C101	C	0.575731	-0.009912	0.596287
C102	C	0.909064	0.323421	0.929620
C103	C	0.275324	-0.303055	0.303291
C104	C	0.608657	0.030278	0.636625
C105	C	0.941991	0.363612	0.969958
C106	C	0.909603	-0.466619	0.303233
C107	C	1.242936	-0.133286	0.636567
C108	C	1.576269	0.200047	0.969900
C109	C	0.909625	-0.536588	0.303239
C110	C	1.242958	-0.203254	0.636573
C111	C	1.576291	0.130079	0.969906
C112	C	0.949909	-0.569429	0.263024
C113	C	1.283243	-0.236096	0.596357
C114	C	1.616576	0.097237	0.929690
C115	C	0.949939	-0.635172	0.263038
C116	C	1.283272	-0.301838	0.596371
C117	C	1.616605	0.031495	0.929704
C118	C	0.909673	-0.668070	0.303261
C119	C	1.243006	-0.334737	0.636594
C120	C	1.576339	-0.001403	0.969928
C121	C	0.869385	-0.635220	0.343485
C122	C	1.202719	-0.301887	0.676818
C123	C	1.536052	0.031446	1.010151
C124	C	0.869361	-0.569479	0.343474
C125	C	1.202695	-0.236146	0.676807
C126	C	1.536028	0.097187	1.010140
N127	N	0.854606	-0.771351	0.308054
N128	N	1.187939	-0.438018	0.641387
N129	N	1.521272	-0.104684	0.974721
N130	N	0.854630	-0.833802	0.308061
N131	N	1.187963	-0.500469	0.641394
N132	N	1.521297	-0.167136	0.974727
C133	C	0.909743	-0.866145	0.303297
C134	C	1.243076	-0.532811	0.636630
C135	C	1.576410	-0.199478	0.969964
N136	N	0.964832	-0.833676	0.298514
N137	N	1.298165	-0.500343	0.631848
N138	N	1.631499	-0.167010	0.965181
N139	N	0.964807	-0.771219	0.298504
N140	N	1.298140	-0.437886	0.631838
N141	N	1.631473	-0.104553	0.965171
C142	C	0.909694	-0.739355	0.303278
C143	C	1.243028	-0.406022	0.636611
C144	C	1.576361	-0.072689	0.969944
C145	C	0.950063	-0.970272	0.263095
C146	C	1.283396	-0.636939	0.596428
C147	C	1.616730	-0.303605	0.929761
C148	C	0.950093	-1.036016	0.263113
C149	C	1.283427	-0.702682	0.596446
C150	C	1.616760	-0.369349	0.929780
C151	C	0.869534	-1.036063	0.343557
C152	C	1.202868	-0.702730	0.676890
C153	C	1.536201	-0.369396	1.010223
C154	C	0.869510	-0.970321	0.343541
C155	C	1.202843	-0.636987	0.676875
C156	C	1.536176	-0.303654	1.010208
C157	C	0.909773	-0.937429	0.303307
C158	C	1.243106	-0.604096	0.636640
C159	C	1.576440	-0.270762	0.969974
C160	C	1.073875	-0.303038	0.303286
C161	C	1.407209	0.030295	0.636619
C162	C	1.740542	0.363629	0.969953
C163	C	1.143843	-0.303025	0.303294
C164	C	1.477177	0.030308	0.636627
C165	C	1.810510	0.363641	0.969961
C166	C	0.909737	-0.303055	0.467458
C167	C	1.243071	0.030279	0.800792
C168	C	1.576404	0.363612	1.134125
C169	C	0.909760	-0.303049	0.537426
C170	C	1.243093	0.030284	0.870760
C171	C	1.576426	0.363618	1.204093
C172	C	0.909785	-0.138878	0.303317
C173	C	1.243118	0.194456	0.636650
C174	C	1.576452	0.527789	0.969983
C175	C	0.909828	-0.068909	0.303338
C176	C	1.243161	0.264424	0.636671
C177	C	1.576494	0.597757	0.970004
C178	C	0.909669	-0.303036	0.139716
C179	C	1.243003	0.030298	0.473050
C180	C	1.576336	0.363631	0.806383
C181	C	0.909769	-0.302864	0.069749
C182	C	1.243102	0.030469	0.403082
C183	C	1.576436	0.363803	0.736415
C184	C	0.950044	-0.262778	0.570311
C185	C	1.283377	0.070555	0.903644
C186	C	1.616710	0.403888	1.236977
C187	C	0.950043	-0.262751	0.636053
C188	C	1.283376	0.070582	0.969386
C189	C	1.616710	0.403916	1.302720
C190	C	0.909764	-0.303006	0.668909
C191	C	1.243098	0.030328	1.002242
C192	C	1.576431	0.363661	1.335576
C193	C	0.869472	-0.343279	0.636017
C194	C	1.202806	-0.009946	0.969350
C195	C	1.536139	0.323388	1.302684
C196	C	0.869470	-0.343301	0.570276
C197	C	1.202803	-0.009967	0.903609
C198	C	1.536137	0.323366	1.236942
N199	N	0.904908	-0.358075	0.772124
N200	N	1.238241	-0.024741	1.105458
N201	N	1.571574	0.308592	1.438791
N202	N	0.904914	-0.358052	0.834576
N203	N	1.238247	-0.024719	1.167909
N204	N	1.571580	0.308615	1.501243
C205	C	0.909768	-0.302942	0.866984
C206	C	1.243102	0.030392	1.200317
C207	C	1.576435	0.363725	1.533651
N208	N	0.914629	-0.247853	0.834581
N209	N	1.247963	0.085480	1.167914
N210	N	1.581296	0.418813	1.501248
N211	N	0.914626	-0.247876	0.772124
N212	N	1.247960	0.085457	1.105457
N213	N	1.581293	0.418790	1.438791
C214	C	0.909762	-0.302986	0.740194
C215	C	1.243096	0.030347	1.073528
C216	C	1.576429	0.363680	1.406861
C217	C	0.950054	-0.262638	0.971154
C218	C	1.283387	0.070695	1.304487
C219	C	1.616721	0.404029	1.637820
C220	C	0.950049	-0.262610	1.036897
C221	C	1.283382	0.070724	1.370231
C222	C	1.616715	0.404057	1.703564
C223	C	0.869481	-0.343143	1.036860
C224	C	1.202815	-0.009810	1.370193
C225	C	1.536148	0.323523	1.703527
C226	C	0.869483	-0.343166	0.971118
C227	C	1.202817	-0.009833	1.304451
C228	C	1.536150	0.323501	1.637784
C229	C	0.909773	-0.302914	0.938268
C230	C	1.243106	0.030419	1.271602
C231	C	1.576440	0.363752	1.604935
H232	H	0.149841	-0.375959	0.230120
H233	H	0.483175	-0.042626	0.563453
H234	H	0.816508	0.290708	0.896787
H235	H	0.836663	-0.376093	0.543502
H236	H	1.169996	-0.042760	0.876835
H237	H	1.503329	0.290574	1.210169
O238	O	0.993506	-0.934798	0.219713
O239	O	1.326839	-0.601465	0.553047
O240	O	1.660173	-0.268132	0.886380
H241	H	1.025501	-0.904796	0.247922
H242	H	1.358835	-0.571462	0.581255
H243	H	1.692168	-0.238129	0.914588
O244	O	0.826032	-0.386560	1.072286
O245	O	1.159365	-0.053227	1.405619
O246	O	1.492699	0.280107	1.738952
H247	H	0.854185	-0.418577	1.102245
H248	H	1.187518	-0.085243	1.435578
H249	H	1.520851	0.248090	1.768912
O250	O	0.993499	-0.219220	0.935716
O251	O	1.326832	0.114114	1.269049
O252	O	1.660165	0.447447	1.602382
H253	H	1.021504	-0.191203	0.969630
H254	H	1.354837	0.142130	1.302963
H255	H	1.688171	0.475463	1.636297
H256	H	0.982846	-0.229954	0.662833
H257	H	1.316179	0.103379	0.996166
H258	H	1.649513	0.436712	1.329499
H259	H	0.269326	-0.230121	0.376465
H260	H	0.602659	0.103212	0.709798
H261	H	0.935993	0.436546	1.043132
O262	O	0.993497	-0.219172	1.072373
O263	O	1.326830	0.114162	1.405706
O264	O	1.660163	0.447495	1.739040
H265	H	1.042895	-0.229971	1.059783
H266	H	1.376229	0.103362	1.393116
H267	H	1.709562	0.436696	1.726450
H268	H	0.836683	-0.375963	0.944343
H269	H	1.170017	-0.042629	1.277676
H270	H	1.503350	0.290704	1.611010
O271	O	0.678874	-0.219570	0.387087
O272	O	1.012207	0.113764	0.720420
O273	O	1.345540	0.447097	1.053753
H274	H	0.645012	-0.191607	0.415129
H275	H	0.978345	0.141726	0.748463
H276	H	1.311678	0.475059	1.081796
O277	O	0.542219	-0.219556	0.387107
O278	O	0.875552	0.113777	0.720440
O279	O	1.208885	0.447110	1.053773
H280	H	0.576159	-0.191615	0.415157
H281	H	0.909493	0.141718	0.748491
H282	H	1.242826	0.475052	1.081824
H283	H	0.550679	-0.376030	0.230091
H284	H	0.884013	-0.042697	0.563424
H285	H	1.217346	0.290636	0.896758
H286	H	0.836675	-0.376052	0.662773
H287	H	1.170009	-0.042719	0.996106
H288	H	1.503342	0.290614	1.329439
H289	H	0.982902	-1.062754	0.230366
H290	H	1.316235	-0.729421	0.563699
H291	H	1.649569	-0.396088	0.897032
O292	O	0.678629	-0.386675	0.219412
O293	O	1.011962	-0.053341	0.552746
O294	O	1.345296	0.279992	0.886079
H295	H	0.665973	-0.436095	0.230118
H296	H	0.999306	-0.102761	0.563451
H297	H	1.332640	0.230572	0.896784
O298	O	0.141383	-0.219469	0.387125
O299	O	0.474716	0.113865	0.720458
O300	O	0.808049	0.447198	1.053791
H301	H	0.154007	-0.230346	0.436509
H302	H	0.487341	0.102987	0.769843
H303	H	0.820674	0.436320	1.103176
O304	O	0.277789	-0.386605	0.219451
O305	O	0.611122	-0.053272	0.552784
O306	O	0.944455	0.280061	0.886118
H307	H	0.243846	-0.414554	0.191411
H308	H	0.577179	-0.081221	0.524744
H309	H	0.910512	0.252112	0.858078
O310	O	0.993343	-0.533952	0.219639
O311	O	1.326676	-0.200618	0.552972
O312	O	1.660009	0.132715	0.886305
H313	H	1.021365	-0.567838	0.191681
H314	H	1.354699	-0.234505	0.525015
H315	H	1.688032	0.098829	0.858348
H316	H	0.982745	-0.661917	0.230289
H317	H	1.316079	-0.328583	0.563623
H318	H	1.649412	0.004750	0.896956
H319	H	0.836752	-1.062848	0.376310
H320	H	1.170085	-0.729515	0.709644
H321	H	1.503418	-0.396182	1.042977
H322	H	0.836602	-0.662010	0.376236
H323	H	1.169935	-0.328677	0.709569
H324	H	1.503268	0.004656	1.042903
H325	H	0.836556	-0.542739	0.376223
H326	H	1.169890	-0.209406	0.709556
H327	H	1.503223	0.123928	1.042890
H328	H	0.836703	-0.943579	0.376286
H329	H	1.170037	-0.610246	0.709620
H330	H	1.503370	-0.276912	1.042953
O331	O	0.993495	-0.219364	0.534879
O332	O	1.326828	0.113969	0.868212
O333	O	1.660161	0.447303	1.201545
H334	H	1.021504	-0.191353	0.568794
H335	H	1.354838	0.141980	0.902128
H336	H	1.688171	0.475313	1.235461
