data_functionalizedCrystal
_audit_creation_method	'MofGen! by Chris Wilmer'
_symmetry_space_group_name_H-M	'P1'
_symmetry_Int_Tables_number	1
_symmetry_cell_setting	triclinic
loop_
_symmetry_equiv_pos_as_xyz
  x,y,z
_cell_length_a	16.109302
_cell_length_b	15.944493
_cell_length_c	14.586319
_cell_angle_alpha	90.002083
_cell_angle_beta	89.994552
_cell_angle_gamma	83.468412
loop_
_atom_site_label
_atom_site_type_symbol
_atom_site_fract_x
_atom_site_fract_y
_atom_site_fract_z
O1	O	1.103143	0.107972	-0.076269
O2	O	0.861083	0.121408	-0.076261
O3	O	0.988748	-0.007590	-0.076273
O4	O	0.975478	0.236970	-0.076257
O5	O	0.988739	-0.007592	0.076208
O6	O	0.861074	0.121406	0.076220
O7	O	1.103134	0.107970	0.076211
Cu8	Cu	0.982103	0.114688	0.090138
Cu9	Cu	0.982114	0.114690	-0.090188
O10	O	0.975469	0.236969	0.076224
C11	C	0.830103	0.120863	-0.000019
C12	C	0.737808	0.119231	-0.000017
C13	C	0.525462	0.115456	0.083091
C14	C	0.438742	0.113914	0.083088
C15	C	0.438762	0.113920	-0.083155
C16	C	0.525481	0.115456	-0.083151
C17	C	0.568828	0.116229	-0.000025
C18	C	0.395389	0.113150	-0.000032
C19	C	0.301363	0.111477	-0.000037
C20	C	0.662861	0.117900	-0.000020
C21	C	0.988201	-0.038886	-0.000036
C22	C	0.986575	-0.132134	-0.000048
C23	C	1.061722	-0.367918	-0.000033
C24	C	1.021203	-0.418472	-0.075212
C25	C	0.983562	-0.302854	-0.000037
C26	C	1.021176	-0.418450	0.075122
C27	C	0.980658	-0.467763	-0.000022
C28	C	0.943064	-0.352179	-0.075278
C29	C	0.943048	-0.352154	0.075124
C30	C	0.902472	-0.402675	-0.000074
C31	C	0.985238	-0.207855	-0.000046
C32	C	0.978976	-0.562759	-0.000019
C33	C	1.134114	0.108516	-0.000032
C34	C	1.226409	0.110148	-0.000041
C35	C	0.976016	0.268264	-0.000015
C36	C	0.977642	0.361512	-0.000009
N37	N	0.982102	0.114686	0.216970
N38	N	0.982122	0.114686	-0.217019
C39	C	1.038651	0.057585	0.451971
C40	C	1.038653	0.057583	0.547952
C41	C	0.925567	0.171790	0.547973
C42	C	0.925561	0.171787	0.451993
C43	C	0.982108	0.114686	0.403995
C44	C	0.982116	0.114686	0.595956
C45	C	0.982118	0.114684	0.700023
C46	C	0.982105	0.114686	0.299921
H47	H	0.403436	0.113285	0.150769
H48	H	0.879513	0.218286	0.412928
O49	O	0.813218	-0.423117	-0.000099
H50	H	0.780978	-0.396318	-0.062558
H51	H	0.879529	0.218282	0.587063
O52	O	0.392008	0.113099	-0.172811
H53	H	0.324419	0.111911	-0.158852
H54	H	1.054196	-0.447393	0.138676
O55	O	1.099614	-0.004021	0.400194
H56	H	1.140022	0.031333	0.356454
H57	H	0.910065	-0.323183	0.138688
O58	O	0.572265	0.116293	-0.172801
H59	H	0.527554	0.115511	-0.230604
H60	H	1.084695	0.011085	0.587012
H61	H	1.129047	-0.352312	-0.000111
H62	H	0.910078	-0.323348	-0.138904
O63	O	0.572219	0.116291	0.172743
H64	H	0.527491	0.115490	0.230538
O65	O	1.064926	-0.456848	-0.159399
H66	H	1.130983	-0.443241	-0.159247
