data_functionalizedCrystal
_audit_creation_method	'MofGen! by Chris Wilmer'
_symmetry_space_group_name_H-M	'P1'
_symmetry_Int_Tables_number	1
_symmetry_cell_setting	triclinic
loop_
_symmetry_equiv_pos_as_xyz
  x,y,z
_cell_length_a	16.120444
_cell_length_b	17.077404
_cell_length_c	17.077396
_cell_angle_alpha	90.017244
_cell_angle_beta	92.868541
_cell_angle_gamma	87.073184
loop_
_atom_site_label
_atom_site_type_symbol
_atom_site_fract_x
_atom_site_fract_y
_atom_site_fract_z
Zn1	Zn	-0.331897	-1.184171	-0.459677
Zn2	Zn	-0.471323	-1.177418	-0.335062
Zn3	Zn	-0.331928	-1.052906	-0.328426
Zn4	Zn	-0.471272	-1.046208	-0.466284
O5	O	-0.401605	-1.115176	-0.397362
O6	O	-0.350400	-1.293122	-0.443159
O7	O	-0.452867	-1.160878	-0.224337
O8	O	-0.215258	-1.075948	-0.340295
O9	O	-0.452836	-1.288160	-0.351605
O10	O	-0.215235	-1.172388	-0.436724
O11	O	-0.350454	-1.069400	-0.219461
O12	O	-0.350404	-0.942171	-0.346701
O13	O	-0.452749	-1.064532	-0.575252
O14	O	-0.452779	-0.937250	-0.447984
O15	O	-0.350350	-1.165893	-0.570398
O16	O	-0.587983	-1.154383	-0.358011
O17	O	-0.587945	-1.057984	-0.454419
C18	C	-0.401590	-0.911229	-0.397340
C19	C	-0.401603	-0.823978	-0.397350
C20	C	-0.618214	-1.104745	-0.407669
C21	C	-0.710880	-1.100354	-0.412105
C22	C	-0.921822	-1.138144	-0.374521
C23	C	-0.880537	-1.092353	-0.420212
C24	C	-0.786131	-1.096806	-0.415700
C25	C	-1.016236	-1.133691	-0.379032
C26	C	-0.401540	-1.115218	-0.602103
C27	C	-0.401513	-1.115236	-0.689352
C28	C	-0.184150	-1.125669	-0.387032
C29	C	-0.091484	-1.130140	-0.382630
C30	C	-0.401621	-1.319919	-0.397385
C31	C	-0.401627	-1.407169	-0.397395
C32	C	-0.454991	-0.780442	-0.450011
C33	C	-0.454992	-0.698462	-0.450024
C34	C	-0.401611	-0.660018	-0.397371
C35	C	-0.348218	-0.703560	-0.344707
C36	C	-0.348212	-0.785540	-0.344698
C37	C	-0.348234	-0.532690	-0.344726
C38	C	-0.348240	-0.450705	-0.344733
C39	C	-0.455014	-0.445612	-0.450052
C40	C	-0.455009	-0.527591	-0.450044
C41	C	-0.401617	-0.571127	-0.397378
C42	C	-0.348180	-1.067619	-0.727803
C43	C	-0.348161	-1.067633	-0.809782
C44	C	-0.401471	-1.115268	-0.853310
C45	C	-0.454810	-1.162887	-0.814854
C46	C	-0.454833	-1.162869	-0.732876
C47	C	-0.454758	-1.162924	-0.985721
C48	C	-0.454735	-1.162944	-1.067705
C49	C	-0.348086	-1.067688	-1.062628
C50	C	-0.348109	-1.067669	-0.980650
C51	C	-0.401447	-1.115290	-0.942199
C52	C	-0.401609	-1.115181	-0.193415
C53	C	-0.401402	-1.115327	-0.106155
H54	H	-0.916093	-1.049805	-0.462718
H55	H	-0.304735	-1.028855	-0.841085
C56	C	-0.560548	-0.514327	-0.554151
C57	C	-0.513686	-0.569850	-0.507920
H58	H	-0.596768	-0.540418	-0.589886
H59	H	-0.592396	-0.480808	-0.521422
H60	H	-0.524260	-0.484108	-0.582510
H61	H	-0.549975	-0.600065	-0.479557
H62	H	-0.481836	-0.603382	-0.540654
C63	C	-0.236058	-0.630270	-0.328634
C64	C	-0.289545	-0.580543	-0.286833
H65	H	-0.199827	-0.659807	-0.292890
H66	H	-0.267846	-0.664896	-0.359983
H67	H	-0.204217	-0.599828	-0.361369
H68	H	-0.321390	-0.610985	-0.254102
H69	H	-0.257753	-0.545913	-0.255470
C70	C	-0.242691	-0.973512	-0.983861
C71	C	-0.289510	-1.015309	-0.932802
H72	H	-0.206519	-0.941183	-0.954321
H73	H	-0.210795	-1.009257	-1.014323
H74	H	-0.279011	-0.941739	-1.017559
H75	H	-0.253190	-1.047086	-0.899108
H76	H	-0.321408	-0.979559	-0.902327
H77	H	-0.886269	-1.180688	-0.332017
C78	C	-0.560523	-0.767165	-0.554121
C79	C	-0.513668	-0.822695	-0.507893
H80	H	-0.596743	-0.793251	-0.589860
H81	H	-0.592370	-0.733647	-0.521391
H82	H	-0.524230	-0.736947	-0.582475
H83	H	-0.549961	-0.852910	-0.479535
H84	H	-0.481818	-0.856226	-0.540628
C85	C	-0.502427	-0.317686	-0.496845
C86	C	-0.513699	-0.397760	-0.507949
H87	H	-0.538654	-0.288144	-0.532589
H88	H	-0.514559	-0.303647	-0.444670
H89	H	-0.446425	-0.306961	-0.505760
H90	H	-0.569700	-0.408485	-0.499028
H91	H	-0.501573	-0.411804	-0.560136
C92	C	-0.336615	-0.962574	-0.635048
C93	C	-0.289580	-1.015257	-0.679958
H94	H	-0.300437	-0.930249	-0.605509
H95	H	-0.372920	-0.930805	-0.668750
H96	H	-0.368376	-0.990941	-0.600417
H97	H	-0.257824	-0.986889	-0.714593
H98	H	-0.253261	-1.047029	-0.646252
H99	H	-0.304762	-0.419407	-0.301867
C100	C	-0.560169	-1.257085	-1.064494
C101	C	-0.513340	-1.215299	-1.115552
H102	H	-0.596352	-1.289403	-1.094036
H103	H	-0.523863	-1.288861	-1.030800
H104	H	-0.592061	-1.221327	-1.034029
H105	H	-0.481443	-1.251056	-1.146013
H106	H	-0.549650	-1.183520	-1.149261
H107	H	-0.498255	-1.201650	-0.701570
C108	C	-0.242685	-0.782344	-0.240586
C109	C	-0.289535	-0.833397	-0.286804
H110	H	-0.206463	-0.811891	-0.204841
H111	H	-0.210841	-0.751919	-0.273322
H112	H	-0.278982	-0.748608	-0.212238
H113	H	-0.253238	-0.867130	-0.315156
H114	H	-0.321382	-0.863836	-0.254064
C115	C	-0.300719	-1.025387	-1.186037
C116	C	-0.289473	-1.015325	-1.104890
H117	H	-0.264539	-0.993056	-1.212128
H118	H	-0.288507	-1.078711	-1.198902
H119	H	-0.356737	-1.011205	-1.202114
H120	H	-0.233456	-1.029513	-1.088812
H121	H	-0.301678	-0.961990	-1.092019
H122	H	-0.498184	-1.201709	-0.954417
C123	C	-0.560232	-1.257038	-0.811632
C124	C	-0.513412	-1.215249	-0.862696
H125	H	-0.596412	-1.289362	-0.841169
H126	H	-0.523920	-1.288808	-0.777937
H127	H	-0.592127	-1.221282	-0.781168
H128	H	-0.481512	-1.251006	-0.893156
H129	H	-0.549728	-1.183477	-0.896405
H130	H	-0.498466	-0.663018	-0.492906
H131	H	-0.304750	-0.672254	-0.301839
