data_functionalizedCrystal
_audit_creation_method	'MofGen! by Chris Wilmer'
_symmetry_space_group_name_H-M	'P1'
_symmetry_Int_Tables_number	1
_symmetry_cell_setting	triclinic
loop_
_symmetry_equiv_pos_as_xyz
  x,y,z
_cell_length_a	19.077312
_cell_length_b	13.033855
_cell_length_c	19.076919
_cell_angle_alpha	94.625887
_cell_angle_beta	85.331053
_cell_angle_gamma	80.847641
loop_
_atom_site_label
_atom_site_type_symbol
_atom_site_fract_x
_atom_site_fract_y
_atom_site_fract_z
Zn1	Zn	1.106337	-0.500460	0.310718
Zn2	Zn	1.606337	-0.000460	0.810718
Zn3	Zn	1.125992	-0.668457	0.177882
Zn4	Zn	1.625992	-0.168457	0.677882
Zn5	Zn	0.991993	-0.487003	0.198784
Zn6	Zn	1.491993	0.012997	0.698784
Zn7	Zn	1.003420	-0.668414	0.300469
Zn8	Zn	1.503420	-0.168414	0.800469
O9	O	1.056935	-0.581083	0.246963
O10	O	1.556935	-0.081083	0.746963
O11	O	1.208094	-0.528395	0.288639
O12	O	1.708094	-0.028395	0.788639
O13	O	1.111660	-0.638773	0.082507
O14	O	1.611660	-0.138773	0.582507
O15	O	0.994153	-0.342560	0.226669
O16	O	1.494153	0.157440	0.726669
O17	O	1.222535	-0.651821	0.191045
O18	O	1.722535	-0.151821	0.691045
O19	O	1.078161	-0.352446	0.308907
O20	O	1.578161	0.147554	0.808907
O21	O	1.013212	-0.505460	0.097863
O22	O	1.513212	-0.005460	0.597863
O23	O	0.894358	-0.505418	0.216730
O24	O	1.394358	-0.005418	0.716730
O25	O	1.013628	-0.651748	0.399976
O26	O	1.513628	-0.151748	0.899976
O27	O	0.902753	-0.638700	0.291438
O28	O	1.402753	-0.138700	0.791438
O29	O	1.089241	-0.528353	0.407506
O30	O	1.589241	-0.028353	0.907506
O31	O	1.122740	-0.814680	0.181106
O32	O	1.622740	-0.314680	0.681106
O33	O	1.032687	-0.814648	0.271170
O34	O	1.532687	-0.314648	0.771170
C35	C	0.872847	-0.570595	0.255240
C36	C	1.372847	-0.070595	0.755240
C37	C	0.794095	-0.566133	0.258796
C38	C	1.294095	-0.066133	0.758796
C39	C	0.349991	-0.534054	0.284311
C40	C	0.849991	-0.034054	0.784311
C41	C	0.423989	-0.538265	0.280965
C42	C	0.923989	-0.038265	0.780965
C43	C	0.468490	-0.604518	0.228417
C44	C	0.968490	-0.104518	0.728417
C45	C	0.438990	-0.666572	0.179216
C46	C	0.938990	-0.166572	0.679216
C47	C	0.364994	-0.662366	0.182566
C48	C	0.864994	-0.162366	0.682566
C49	C	0.690600	-0.623981	0.212945
C50	C	1.190600	-0.123981	0.712945
C51	C	0.764600	-0.628180	0.209598
C52	C	1.264600	-0.128180	0.709598
C53	C	0.749594	-0.499874	0.311348
C54	C	1.249594	0.000126	0.811348
C55	C	0.675597	-0.495670	0.314690
C56	C	1.175597	0.004330	0.814690
C57	C	0.646104	-0.557728	0.265492
C58	C	1.146104	-0.057728	0.765492
N59	N	0.544127	-0.608822	0.224993
N60	N	1.044127	-0.108822	0.724993
N61	N	0.570468	-0.553429	0.268919
N62	N	1.070468	-0.053429	0.768919
C63	C	1.081105	-0.852581	0.222772
C64	C	1.581105	-0.352581	0.722772
C65	C	1.091509	-0.968734	0.212444
C66	C	1.591509	-0.468734	0.712444
C67	C	1.051560	-1.020533	0.252365
C68	C	1.551560	-0.520533	0.752365
C69	C	1.062312	-1.140584	0.241691
C70	C	1.562312	-0.640584	0.741691
C71	C	1.241742	-0.591614	0.238654
C72	C	1.741742	-0.091614	0.738654
C73	C	1.320496	-0.596101	0.235113
C74	C	1.820496	-0.096101	0.735113
C75	C	1.050517	-0.591547	0.429901
C76	C	1.550517	-0.091547	0.929901
C77	C	1.047781	-0.596006	0.507859
C78	C	1.547781	-0.096006	1.007859
C79	C	1.032690	-0.308527	0.271263
C80	C	1.532690	0.191473	0.771263
C81	C	1.022358	-0.192380	0.281618
C82	C	1.522358	0.307620	0.781618
C83	C	1.063363	-0.570588	0.064741
C84	C	1.563363	-0.070588	0.564741
C85	C	1.066209	-0.565842	-0.013196
C86	C	1.566209	-0.065842	0.486804
C87	C	1.085862	-0.533858	0.548405
C88	C	1.585862	-0.033858	1.048405
C89	C	1.083283	-0.538043	0.621655
C90	C	1.583283	-0.038043	1.121655
C91	C	1.042627	-0.604382	0.654357
C92	C	1.542627	-0.104382	1.154357
C93	C	1.004542	-0.666532	0.613806
C94	C	1.504542	-0.166532	1.113806
C95	C	1.007117	-0.662341	0.540558
C96	C	1.507117	-0.162341	1.040558
C97	C	1.030699	-0.623801	0.873005
C98	C	1.530699	-0.123801	1.373005
C99	C	1.028129	-0.627990	0.946258
C100	C	1.528129	-0.127990	1.446258
C101	C	1.106869	-0.499499	0.954103
C102	C	1.606869	0.000501	1.454103
C103	C	1.109444	-0.495318	0.880852
C104	C	1.609444	0.004682	1.380852
C105	C	1.071356	-0.557464	0.840308
C106	C	1.571356	-0.057464	1.340308
N107	N	1.039992	-0.608664	0.729230
N108	N	1.539992	-0.108664	1.229230
N109	N	1.073988	-0.553176	0.765437
N110	N	1.573988	-0.053176	1.265437
H111	H	0.639368	-0.441723	0.357483
H112	H	1.139368	0.058277	0.857483
H113	H	0.800832	-0.682135	0.166805
H114	H	1.300832	-0.182135	0.666805
H115	H	1.009395	-0.976007	0.294443
H116	H	1.509395	-0.476007	0.794443
Br117	Br	0.789624	-0.415662	0.378115
Br118	Br	1.289624	0.084338	0.878115
Br119	Br	0.650581	-0.708170	0.146157
Br120	Br	1.150581	-0.208170	0.646157
H121	H	0.976100	-0.712937	0.507547
H122	H	1.476100	-0.212937	1.007547
Br123	Br	0.464015	-0.454064	0.347742
Br124	Br	0.964015	0.045936	0.847742
H125	H	1.118971	-0.479841	0.521784
H126	H	1.618971	0.020159	1.021784
H127	H	0.475229	-0.720521	0.136433
H128	H	0.975229	-0.220521	0.636433
H129	H	0.340981	-0.712894	0.142505
H130	H	0.840981	-0.212894	0.642505
H131	H	1.104475	-1.185108	0.199607
H132	H	1.604475	-0.685108	0.699607
H133	H	1.142553	-0.441301	0.854232
H134	H	1.642553	0.058699	1.354232
H135	H	0.980190	-1.147856	0.323698
H136	H	1.480190	-0.647856	0.823698
Br137	Br	1.161779	-1.042940	0.142300
Br138	Br	1.661779	-0.542940	0.642300
Br139	Br	1.135003	-0.453747	0.676674
Br140	Br	1.635003	0.046253	1.176674
H141	H	1.137877	-0.448902	0.987122
H142	H	1.637877	0.051098	1.487122
H143	H	0.995020	-0.682013	0.972881
H144	H	1.495020	-0.182013	1.472881
Br145	Br	0.979007	-0.708140	0.817990
Br146	Br	1.479007	-0.208140	1.317990
H147	H	0.313762	-0.480097	0.327098
H148	H	0.813762	0.019903	0.827098
Br149	Br	0.949360	-0.756558	0.658187
Br150	Br	1.449360	-0.256558	1.158187
