data_functionalizedCrystal
_audit_creation_method	'MofGen! by Chris Wilmer'
_symmetry_space_group_name_H-M	'P1'
_symmetry_Int_Tables_number	1
_symmetry_cell_setting	triclinic
loop_
_symmetry_equiv_pos_as_xyz
  x,y,z
_cell_length_a	23.532361
_cell_length_b	27.732048
_cell_length_c	22.010155
_cell_angle_alpha	89.999275
_cell_angle_beta	89.995873
_cell_angle_gamma	82.736162
loop_
_atom_site_label
_atom_site_type_symbol
_atom_site_fract_x
_atom_site_fract_y
_atom_site_fract_z
O1	O	0.755156	0.058565	-0.050471
O2	O	0.589271	0.067079	-0.050486
O3	O	0.677365	-0.007568	-0.050466
O4	O	0.667061	0.133211	-0.050491
O5	O	0.677349	-0.007557	0.050584
O6	O	0.589255	0.067090	0.050564
O7	O	0.755140	0.058576	0.050580
Cu8	Cu	0.672196	0.062834	0.059799
Cu9	Cu	0.672215	0.062821	-0.059705
O10	O	0.667045	0.133222	0.050560
C11	C	0.568046	0.066871	0.000037
C12	C	0.504829	0.066230	0.000032
C13	C	0.231600	0.063420	-0.055047
C14	C	0.290999	0.064027	-0.055048
O15	O	0.321731	0.064319	-0.101893
N16	N	0.320695	0.064339	0.000034
C17	C	0.290991	0.064040	0.055122
O18	O	0.321704	0.064361	0.101974
C19	C	0.231594	0.063430	0.055123
C20	C	0.201900	0.063122	0.000037
C21	C	0.201906	0.063112	-0.110128
C22	C	0.142512	0.062506	-0.110127
C23	C	0.112811	0.062208	-0.055043
C24	C	0.142505	0.062516	0.000039
C25	C	0.201891	0.063127	0.110211
C26	C	0.142490	0.062517	0.110207
C27	C	0.112796	0.062209	0.055121
C28	C	0.053410	0.061613	0.055124
N29	N	0.023714	0.061300	0.000042
C30	C	0.053414	0.061598	-0.055042
C31	C	0.415728	0.065321	0.055116
C32	C	0.475123	0.065935	0.055116
C33	C	0.475127	0.065920	-0.055055
C34	C	0.415731	0.065310	-0.055054
C35	C	0.386032	0.065008	0.000033
C36	C	-0.071318	0.060326	-0.055034
C37	C	-0.130718	0.059722	-0.055027
C38	C	-0.130717	0.059734	0.055143
C39	C	-0.071323	0.060341	0.055137
C40	C	-0.041624	0.060635	0.000043
O41	O	0.022640	0.061319	0.101945
O42	O	0.022695	0.061270	-0.101886
C43	C	0.677141	-0.025570	0.000060
C44	C	0.676490	-0.079225	0.000065
C45	C	0.724448	-0.417973	0.000039
C46	C	0.722031	-0.619636	0.000030
O47	O	0.765885	-0.650831	0.000007
N48	N	0.669795	-0.638833	0.000026
C49	C	0.618158	-0.607611	0.000020
O50	O	0.573673	-0.628566	0.000009
C51	C	0.620576	-0.405949	0.000024
C52	C	0.672815	-0.386755	0.000034
C53	C	0.776683	-0.398779	0.000048
C54	C	0.777287	-0.348366	0.000054
C55	C	0.725655	-0.317148	0.000050
C56	C	0.673419	-0.336342	0.000040
C57	C	0.568940	-0.374727	0.000013
C58	C	0.569549	-0.324309	0.000013
C59	C	0.621789	-0.305115	0.000023
C60	C	0.622391	-0.254711	0.000041
N61	N	0.674627	-0.235514	0.000045
C62	C	0.726259	-0.266733	0.000050
C63	C	0.616893	-0.713486	0.000018
C64	C	0.616289	-0.763902	0.000018
C65	C	0.720162	-0.775924	0.000028
C66	C	0.720765	-0.725508	0.000032
C67	C	0.669130	-0.694290	0.000023
C68	C	0.727523	-0.160862	0.000062
C69	C	0.728122	-0.110444	0.000070
C70	C	0.624249	-0.098426	0.000057
C71	C	0.623650	-0.148839	0.000052
C72	C	0.675291	-0.180056	0.000053
O73	O	0.578560	-0.223488	0.000057
O74	O	0.770738	-0.245768	0.000046
C75	C	0.723844	-0.468386	0.000033
C76	C	0.671608	-0.487580	0.000023
C77	C	0.619976	-0.456362	0.000019
C78	C	0.671004	-0.537996	0.000023
C79	C	0.722636	-0.569214	0.000028
C80	C	0.774873	-0.550018	0.000032
C81	C	0.775476	-0.499605	0.000037
C82	C	0.567740	-0.475559	0.000015
C83	C	0.567140	-0.525972	0.000010
C84	C	0.618772	-0.557190	0.000014
C85	C	0.776364	0.058784	0.000055
C86	C	0.839581	0.059425	0.000056
C87	C	0.667269	0.151224	0.000032
C88	C	0.667921	0.204880	0.000023
N89	N	0.672187	0.062843	0.143851
N90	N	0.672228	0.062808	-0.143758
C91	C	0.711225	0.029772	0.563639
C92	C	0.711228	0.029768	0.627247
O93	O	0.744397	0.001657	0.660146
N94	N	0.672214	0.062811	0.659058
C95	C	0.633192	0.095855	0.627259
O96	O	0.600008	0.123959	0.660157
C97	C	0.633187	0.095855	0.563652
C98	C	0.672207	0.062814	0.531844
C99	C	0.750241	-0.003267	0.531831
C100	C	0.750239	-0.003263	0.468228
C101	C	0.711221	0.029780	0.436433
C102	C	0.672205	0.062819	0.468241
C103	C	0.594162	0.128897	0.531854
C104	C	0.594160	0.128894	0.468243
C105	C	0.633180	0.095854	0.436435
C106	C	0.633184	0.095865	0.372843
N107	N	0.672198	0.062823	0.341031
C108	C	0.711216	0.029781	0.372826
C109	C	0.633205	0.095850	0.760836
C110	C	0.633212	0.095852	0.824442
C111	C	0.711247	0.029765	0.824426
C112	C	0.711242	0.029766	0.760819
C113	C	0.672218	0.062808	0.729025
C114	C	0.711209	0.029792	0.239255
C115	C	0.711205	0.029800	0.175646
C116	C	0.633168	0.095885	0.175668
C117	C	0.633174	0.095879	0.239271
C118	C	0.672196	0.062828	0.271063
O119	O	0.600031	0.123961	0.339903
O120	O	0.744390	0.001677	0.339920
H121	H	0.118341	0.062253	-0.154984
Br122	Br	0.515446	0.066327	-0.129812
H123	H	0.574843	-0.688072	0.000011
Br124	Br	-0.171014	0.059307	-0.129792
H125	H	0.818731	-0.424193	0.000050
H126	H	0.118312	0.062275	0.155067
H127	H	0.226058	0.063376	0.155068
Br128	Br	0.764201	-0.015078	0.867590
Br129	Br	0.242203	0.063514	-0.184895
H130	H	-0.047146	0.060601	0.099993
Br131	Br	0.541204	0.173740	0.575009
Br132	Br	-0.171037	0.059333	0.129896
Br133	Br	0.764199	-0.015077	0.717658
H134	H	0.763304	-0.709884	0.000040
Br135	Br	0.799023	-0.084399	0.000085
Br136	Br	0.541193	0.173739	0.425098
H137	H	0.391558	0.065060	-0.099910
Br138	Br	0.580224	0.140728	0.282438
H139	H	0.601401	0.122790	0.149770
Br140	Br	0.580264	0.140703	0.867603
Br141	Br	0.803201	-0.048117	0.574971
Br142	Br	0.797608	-0.203220	0.000061
H143	H	0.499294	0.066193	0.099973
H144	H	0.573750	-0.779524	0.000020
H145	H	0.525694	-0.450145	0.000010
H146	H	-0.047145	0.060566	-0.099896
Br147	Br	0.764166	-0.015042	0.132481
H148	H	0.601428	0.122761	0.734953
Br149	Br	0.790233	-0.818302	0.000032
Br150	Br	0.375428	0.064918	0.129885
Br151	Br	0.848188	-0.322326	0.000051
H152	H	0.526401	-0.390345	0.000001
H153	H	0.582212	-0.072999	0.000056
Br154	Br	0.552753	-0.174889	0.000052
Br155	Br	0.499468	-0.281944	-0.000002
Br156	Br	0.764169	-0.015063	0.282391
Br157	Br	0.496236	-0.552013	0.000001
H158	H	0.818015	-0.483982	0.000046
Br159	Br	0.844944	-0.592396	0.000043
H160	H	0.782011	-0.030169	0.442333
