data_functionalizedCrystal
_audit_creation_method	'MofGen! by Chris Wilmer'
_symmetry_space_group_name_H-M	'P1'
_symmetry_Int_Tables_number	1
_symmetry_cell_setting	triclinic
loop_
_symmetry_equiv_pos_as_xyz
  x,y,z
_cell_length_a	14.519709
_cell_length_b	9.016244
_cell_length_c	14.519731
_cell_angle_alpha	90.003217
_cell_angle_beta	96.315501
_cell_angle_gamma	89.998797
loop_
_atom_site_label
_atom_site_type_symbol
_atom_site_fract_x
_atom_site_fract_y
_atom_site_fract_z
O1	O	-1.223881	0.123132	0.120886
O2	O	-0.890548	0.456466	0.454220
O3	O	-0.557214	0.789799	0.787553
O4	O	-0.955405	0.123182	0.135123
O5	O	-0.622072	0.456516	0.468456
O6	O	-0.288738	0.789849	0.801789
O7	O	-1.096751	0.123143	-0.006233
O8	O	-0.763418	0.456476	0.327101
O9	O	-0.430084	0.789809	0.660434
O10	O	-1.082535	0.123172	0.262242
O11	O	-0.749202	0.456505	0.595575
O12	O	-0.415868	0.789839	0.928908
O13	O	-1.096730	-0.123538	-0.006229
O14	O	-0.763397	0.209795	0.327104
O15	O	-0.430064	0.543128	0.660437
O16	O	-0.955384	-0.123499	0.135126
O17	O	-0.622051	0.209835	0.468459
O18	O	-0.288718	0.543168	0.801793
O19	O	-1.223860	-0.123548	0.120889
O20	O	-0.890527	0.209785	0.454223
O21	O	-0.557194	0.543118	0.787556
Cu22	Cu	-1.089620	-0.146047	0.128008
Cu23	Cu	-0.756287	0.187286	0.461341
Cu24	Cu	-0.422954	0.520619	0.794675
Cu25	Cu	-1.089645	0.145681	0.128004
Cu26	Cu	-0.756312	0.479015	0.461337
Cu27	Cu	-0.422978	0.812348	0.794671
O28	O	-1.082514	-0.123509	0.262245
O29	O	-0.749181	0.209825	0.595578
O30	O	-0.415848	0.543158	0.928911
C31	C	-0.921035	-0.000152	0.134461
C32	C	-0.587702	0.333181	0.467794
C33	C	-0.254368	0.666515	0.801127
C34	C	-0.818654	-0.000133	0.132473
C35	C	-0.485320	0.333200	0.465806
C36	C	-0.151987	0.666533	0.799139
C37	C	-0.443757	-0.000196	0.125153
C38	C	-0.110424	0.333137	0.458486
C39	C	0.222909	0.666470	0.791820
C40	C	-0.548065	-0.000178	0.127186
C41	C	-0.214732	0.333155	0.460519
C42	C	0.118601	0.666488	0.793852
C43	C	-0.631202	-0.000163	0.128813
C44	C	-0.297869	0.333170	0.462146
C45	C	0.035465	0.666503	0.795479
C46	C	-0.735517	-0.000148	0.130846
C47	C	-0.402183	0.333185	0.464179
C48	C	-0.068850	0.666518	0.797512
N49	N	-1.089610	-0.351233	0.128010
N50	N	-0.756277	-0.017900	0.461343
N51	N	-0.422943	0.315433	0.794677
C52	C	-1.013771	-0.586245	0.203376
C53	C	-0.680437	-0.252912	0.536709
C54	C	-0.347104	0.080422	0.870042
C55	C	-1.013935	-0.414354	0.203655
C56	C	-0.680602	-0.081020	0.536988
C57	C	-0.347269	0.252313	0.870321
C58	C	-1.185875	-0.413587	0.149187
C59	C	-0.852542	-0.080254	0.482521
C60	C	-0.519209	0.253080	0.815854
C61	C	-1.185460	-0.585532	0.149720
C62	C	-0.852127	-0.252199	0.483054
C63	C	-0.518794	0.081135	0.816387
C64	C	-1.070143	-0.585783	0.031215
C65	C	-0.736810	-0.252450	0.364548
C66	C	-0.403477	0.080883	0.697882
C67	C	-1.067926	-0.413829	0.031860
C68	C	-0.734593	-0.080495	0.365193
C69	C	-0.401260	0.252838	0.698526
C70	C	-0.258230	-0.000207	0.121551
C71	C	0.075103	0.333126	0.454885
C72	C	0.408436	0.666460	0.788218
C73	C	-0.360612	-0.000205	0.123539
C74	C	-0.027279	0.333128	0.456873
C75	C	0.306055	0.666462	0.790206
C76	C	-1.096075	-0.000198	-0.040591
C77	C	-0.762741	0.333135	0.292743
C78	C	-0.429408	0.666469	0.626076
C79	C	-1.094079	-0.000199	-0.142971
C80	C	-0.760745	0.333135	0.190363
C81	C	-0.427412	0.666468	0.523696
N82	N	-1.089663	0.350867	0.127995
N83	N	-0.756329	0.684201	0.461328
N84	N	-0.422996	1.017534	0.794661
C85	C	-1.092457	-0.000195	-0.226115
C86	C	-0.759123	0.333138	0.107218
C87	C	-0.425790	0.666472	0.440552
C88	C	-1.090430	-0.000183	-0.330424
C89	C	-0.757097	0.333150	0.002910
C90	C	-0.423763	0.666484	0.336243
C91	C	-1.088822	-0.000173	-0.413563
C92	C	-0.755488	0.333160	-0.080229
C93	C	-0.422155	0.666493	0.253104
C94	C	-1.086795	-0.000164	-0.517878
C95	C	-0.753462	0.333169	-0.184545
C96	C	-0.420129	0.666502	0.148789
C97	C	-1.083191	-0.000165	0.296603
C98	C	-0.749858	0.333169	0.629936
C99	C	-0.416524	0.666502	0.963269
C100	C	-1.085187	-0.000155	0.398983
C101	C	-0.751854	0.333179	0.732316
C102	C	-0.418520	0.666512	1.065649
H103	H	-0.942385	-0.372198	0.191013
H104	H	-0.609052	-0.038865	0.524347
H105	H	-0.275719	0.294469	0.857680
H106	H	-1.026412	-0.373202	0.275472
H107	H	-0.693078	-0.039869	0.608805
H108	H	-0.359745	0.293465	0.942138
H109	H	-1.243699	-0.372699	0.095752
H110	H	-0.910366	-0.039365	0.429086
H111	H	-0.577033	0.293968	0.762419
Br112	Br	-1.214087	-0.652352	0.267367
Br113	Br	-0.880753	-0.319018	0.600700
Br114	Br	-0.547420	0.014315	0.934033
H115	H	-1.243706	-0.627130	0.096990
H116	H	-0.910372	-0.293797	0.430323
H117	H	-0.577039	0.039537	0.763656
Br118	Br	-0.894129	-0.655172	0.182633
Br119	Br	-0.560796	-0.321839	0.515966
Br120	Br	-0.227462	0.011494	0.849299
Br121	Br	-1.215176	-0.341785	0.265497
Br122	Br	-0.881842	-0.008452	0.598830
Br123	Br	-0.548509	0.324882	0.932164
Br124	Br	-0.955660	-0.658128	-0.002645
Br125	Br	-0.622326	-0.324794	0.330688
Br126	Br	-0.288993	0.008539	0.664022
H127	H	-0.997112	-0.373076	0.015792
H128	H	-0.663779	-0.039742	0.349125
H129	H	-0.330445	0.293591	0.682458
H130	H	-1.026081	-0.629433	0.274787
H131	H	-0.692748	-0.296100	0.608120
H132	H	-0.359415	0.037234	0.941453
H133	H	-1.119594	-0.370868	-0.026874
H134	H	-0.786261	-0.037535	0.306459
H135	H	-0.452927	0.295799	0.639792
H136	H	-1.125486	-0.626451	-0.024883
H137	H	-0.792152	-0.293118	0.308450
H138	H	-0.458819	0.040216	0.641784
