data_functionalizedCrystal
_audit_creation_method	'MofGen! by Chris Wilmer'
_symmetry_space_group_name_H-M	'P1'
_symmetry_Int_Tables_number	1
_symmetry_cell_setting	triclinic
loop_
_symmetry_equiv_pos_as_xyz
  x,y,z
_cell_length_a	14.519731
_cell_length_b	14.519731
_cell_length_c	14.750779
_cell_angle_alpha	77.331756
_cell_angle_beta	102.666662
_cell_angle_gamma	83.688853
loop_
_atom_site_label
_atom_site_type_symbol
_atom_site_fract_x
_atom_site_fract_y
_atom_site_fract_z
O1	O	1.203879	0.140959	-0.079831
O2	O	1.537212	0.474292	0.253503
O3	O	1.870546	0.807625	0.586836
O4	O	0.935405	0.155175	-0.079832
O5	O	1.268739	0.488508	0.253501
O6	O	1.602072	0.821842	0.586834
O7	O	1.076752	0.013828	-0.079823
O8	O	1.410086	0.347162	0.253511
O9	O	1.743419	0.680495	0.586844
O10	O	1.062532	0.282306	-0.079840
O11	O	1.395865	0.615639	0.253493
O12	O	1.729199	0.948972	0.586826
O13	O	1.116709	-0.026125	0.079830
O14	O	1.450043	0.307209	0.413164
O15	O	1.783376	0.640542	0.746497
O16	O	0.975362	0.115222	0.079821
O17	O	1.308696	0.448556	0.413154
O18	O	1.642029	0.781889	0.746487
O19	O	1.243836	0.101006	0.079822
O20	O	1.577169	0.434339	0.413156
O21	O	1.910503	0.767673	0.746489
Zn22	Zn	1.115943	0.101771	0.105170
Zn23	Zn	1.449277	0.435104	0.438503
Zn24	Zn	1.782610	0.768438	0.771836
Zn25	Zn	1.063298	0.154410	-0.105180
Zn26	Zn	1.396631	0.487744	0.228153
Zn27	Zn	1.729965	0.821077	0.561487
O28	O	1.102489	0.242353	0.079813
O29	O	1.435822	0.575686	0.413146
O30	O	1.769156	0.909020	0.746479
C31	C	0.921024	0.134533	-0.000006
C32	C	1.254358	0.467866	0.333327
C33	C	1.587691	0.801199	0.666661
C34	C	0.818644	0.132537	-0.000006
C35	C	1.151977	0.465870	0.333327
C36	C	1.485311	0.799203	0.666660
C37	C	1.096065	-0.040508	0.000004
C38	C	1.429398	0.292826	0.333337
C39	C	1.762731	0.626159	0.666671
C40	C	1.094069	-0.142888	0.000004
C41	C	1.427402	0.190445	0.333338
C42	C	1.760736	0.523778	0.666671
C43	C	0.735499	0.130916	-0.000010
C44	C	1.068832	0.464249	0.333323
C45	C	1.402165	0.797582	0.666656
C46	C	0.631190	0.128889	-0.000010
C47	C	0.964523	0.462223	0.333323
C48	C	1.297856	0.795556	0.666656
C49	C	0.548051	0.127281	-0.000010
C50	C	0.881384	0.460614	0.333323
C51	C	1.214717	0.793948	0.666656
C52	C	0.443735	0.125255	-0.000012
C53	C	0.777068	0.458588	0.333321
C54	C	1.110401	0.791922	0.666654
C55	C	1.092446	-0.226032	0.000002
C56	C	1.425780	0.107301	0.333336
C57	C	1.759113	0.440635	0.666669
C58	C	1.090418	-0.330339	-0.000005
C59	C	1.423751	0.002994	0.333328
C60	C	1.757085	0.336328	0.666662
C61	C	1.088808	-0.413477	-0.000011
C62	C	1.422141	-0.080143	0.333322
C63	C	1.755475	0.253190	0.666655
C64	C	1.086780	-0.517791	-0.000017
C65	C	1.420114	-0.184457	0.333317
C66	C	1.753447	0.148876	0.666650
C67	C	1.258216	0.121649	-0.000006
C68	C	1.591550	0.454982	0.333327
C69	C	1.924883	0.788316	0.666660
C70	C	1.360595	0.123647	-0.000012
C71	C	1.693929	0.456980	0.333321
C72	C	2.027262	0.790313	0.666655
C73	C	1.083176	0.296689	-0.000016
C74	C	1.416509	0.630023	0.333317
C75	C	1.749843	0.963356	0.666651
C76	C	1.085170	0.399072	-0.000023
C77	C	1.418504	0.732405	0.333310
C78	C	1.751837	1.065738	0.666644
N79	N	1.151879	0.065845	0.248728
N80	N	1.485212	0.399179	0.582061
N81	N	1.818546	0.732512	0.915395
N82	N	1.027370	0.190329	-0.248738
N83	N	1.360703	0.523662	0.084595
N84	N	1.694036	0.856995	0.417929
C85	C	0.927006	0.290623	0.600531
C86	C	1.260340	0.623956	0.933864
C87	C	1.593673	0.957289	1.267197
C88	C	0.952195	0.265454	0.701032
C89	C	1.285528	0.598788	1.034365
C90	C	1.618861	0.932121	1.367698
C91	C	1.077383	0.140338	0.701003
C92	C	1.410717	0.473671	1.034336
C93	C	1.744050	0.807005	1.367670
C94	C	1.052202	0.165493	0.600500
C95	C	1.385536	0.498826	0.933833
C96	C	1.718869	0.832159	1.267167
C97	C	0.977014	0.240636	0.550272
C98	C	1.310347	0.573970	0.883605
C99	C	1.643681	0.907303	1.216939
C100	C	1.102210	0.115506	0.550241
C101	C	1.435543	0.448840	0.883574
C102	C	1.768877	0.782173	1.216908
C103	C	1.077034	0.140663	0.449747
C104	C	1.410368	0.473996	0.783080
C105	C	1.743701	0.807329	1.116414
C106	C	1.001851	0.215805	0.399512
C107	C	1.335184	0.549139	0.732845
C108	C	1.668518	0.882472	1.066178
C109	C	0.951838	0.265793	0.449778
C110	C	1.285172	0.599126	0.783111
C111	C	1.618505	0.932459	1.116444
C112	C	1.177403	0.040367	0.600471
C113	C	1.510736	0.373701	0.933804
C114	C	1.844069	0.707034	1.267138
C115	C	1.227410	-0.009619	0.550212
C116	C	1.560744	0.323715	0.883545
C117	C	1.894077	0.657048	1.216879
C118	C	1.202230	0.015533	0.449716
C119	C	1.535564	0.348866	0.783049
C120	C	1.868897	0.682199	1.116383
C121	C	1.127047	0.090675	0.399481
C122	C	1.460380	0.424009	0.732814
C123	C	1.793714	0.757342	1.066148
C124	C	1.252243	-0.034455	0.399450
C125	C	1.585576	0.298879	0.732784
C126	C	1.918910	0.632212	1.066117
C127	C	1.227067	-0.009298	0.298956
C128	C	1.560401	0.324035	0.632289
C129	C	1.893734	0.657368	0.965623
C130	C	1.101871	0.115832	0.298987
C131	C	1.435205	0.449165	0.632320
C132	C	1.768538	0.782498	0.965654
H133	H	1.040639	0.177015	0.258089
H134	H	1.373972	0.510348	0.591423
H135	H	1.707305	0.843681	0.924756
H136	H	1.197901	0.019891	0.682300
H137	H	1.531234	0.353225	1.015633
H138	H	1.864567	0.686558	1.348966
H139	H	1.313468	-0.095631	0.440359
H140	H	1.646802	0.237702	0.773692
H141	H	1.980135	0.571035	1.107026
H142	H	1.267790	-0.050002	0.258035
H143	H	1.601123	0.283331	0.591368
H144	H	1.934457	0.616665	0.924702
H145	H	0.981357	0.236289	0.317683
H146	H	1.314690	0.569623	0.651016
H147	H	1.648023	0.902956	0.984350
H148	H	0.865774	0.351806	0.559633
H149	H	1.199107	0.685139	0.892966
H150	H	1.532441	1.018472	1.226300
H151	H	0.911466	0.306167	0.741948
H152	H	1.244800	0.639500	1.075281
H153	H	1.578133	0.972834	1.408614
H154	H	0.890606	0.326976	0.408880
H155	H	1.223939	0.660309	0.742213
H156	H	1.557273	0.993642	1.075547
H157	H	1.288632	-0.070799	0.591119
H158	H	1.621965	0.262534	0.924453
H159	H	1.955299	0.595867	1.257786
H160	H	1.138605	0.079157	0.741910
H161	H	1.471938	0.412491	1.075243
H162	H	1.805272	0.745824	1.408577
