data_functionalizedCrystal
_audit_creation_method	'MofGen! by Chris Wilmer'
_symmetry_space_group_name_H-M	'P1'
_symmetry_Int_Tables_number	1
_symmetry_cell_setting	triclinic
loop_
_symmetry_equiv_pos_as_xyz
  x,y,z
_cell_length_a	16.109301
_cell_length_b	14.421503
_cell_length_c	15.944551
_cell_angle_alpha	90.003340
_cell_angle_beta	96.519891
_cell_angle_gamma	90.004909
loop_
_atom_site_label
_atom_site_type_symbol
_atom_site_fract_x
_atom_site_fract_y
_atom_site_fract_z
O1	O	1.103172	0.077055	-0.107956
O2	O	0.861114	0.077070	-0.121392
O3	O	0.988753	0.077054	0.007603
O4	O	0.975533	0.077071	-0.236951
O5	O	0.988732	-0.077170	0.007584
O6	O	0.861093	-0.077153	-0.121411
O7	O	1.103151	-0.077168	-0.107975
Cu8	Cu	0.982120	-0.091243	-0.114695
Cu9	Cu	0.982145	0.091144	-0.114672
O10	O	0.975512	-0.077152	-0.236970
C11	C	0.830129	-0.000040	-0.120857
C12	C	0.737833	-0.000034	-0.119226
N13	N	0.982108	-0.219524	-0.114710
C14	C	0.515584	-0.000040	-0.191975
C15	C	0.428863	-0.000046	-0.190435
C16	C	0.448688	-0.000053	-0.037387
C17	C	0.535407	-0.000054	-0.038927
C18	C	0.568853	-0.000042	-0.116224
C19	C	0.395412	-0.000048	-0.113143
C20	C	0.301386	-0.000054	-0.111473
C21	C	0.662885	-0.000038	-0.117894
C22	C	0.923078	-0.469170	-0.174331
C23	C	0.998204	-0.530976	-0.190613
C24	C	0.982129	-0.408685	-0.114690
C25	C	0.907021	-0.530973	-0.098427
C26	C	0.982142	-0.591407	-0.114673
C27	C	1.057293	-0.469131	-0.131010
C28	C	0.966061	-0.469122	-0.038792
C29	C	1.041242	-0.530900	-0.055042
C30	C	0.982120	-0.303424	-0.114702
C31	C	0.982159	-0.696666	-0.114660
C32	C	1.134136	-0.000056	-0.108510
C33	C	1.226432	-0.000056	-0.110141
C34	C	0.988194	-0.000058	0.038887
C35	C	0.986548	-0.000059	0.132133
N36	N	0.982163	0.219426	-0.114650
C37	C	0.976071	-0.000038	-0.268254
C38	C	0.977717	-0.000032	-0.361500
C39	C	0.903499	-0.000041	0.346962
C40	C	0.942054	-0.076084	0.407983
C41	C	0.983572	-0.000051	0.302858
C42	C	0.942094	0.075968	0.407985
C43	C	0.980691	-0.000040	0.467769
C44	C	1.022149	-0.076158	0.362650
C45	C	1.022177	0.075963	0.362646
C46	C	1.060790	-0.000100	0.423649
C47	C	0.985229	-0.000058	0.207856
C48	C	0.979039	-0.000040	0.562770
H49	H	0.385495	-0.000046	-0.252119
C50	C	0.525384	0.079241	-0.322897
C51	C	0.552345	-0.000037	-0.276939
H52	H	0.548073	0.079236	-0.375354
H53	H	0.543679	0.133012	-0.291706
H54	H	0.466112	0.079230	-0.332810
H55	H	0.611617	-0.000023	-0.267020
H56	H	0.534055	-0.053822	-0.308136
C57	C	0.803862	-0.535079	-0.000987
C58	C	0.821273	-0.567645	-0.079856
H59	H	0.750926	-0.557723	0.010474
H60	H	0.803088	-0.469225	-0.001380
H61	H	0.845761	-0.556220	0.041434
H62	H	0.779378	-0.546499	-0.122278
H63	H	0.822041	-0.633514	-0.079470
C64	C	1.071100	-0.620712	0.071584
C65	C	1.108730	-0.567267	0.013062
H66	H	1.112766	-0.643158	0.113628
H67	H	1.042670	-0.671603	0.043505
H68	H	1.032352	-0.583614	0.097317
H69	H	1.147473	-0.604367	-0.012675
H70	H	1.137173	-0.516370	0.041145
C71	C	1.069569	0.161349	0.247887
C72	C	1.067871	0.162745	0.335486
H73	H	1.097779	0.214928	0.231119
H74	H	1.014011	0.160812	0.220580
H75	H	1.098083	0.107365	0.232555
H76	H	1.039352	0.216726	0.350817
H77	H	1.123440	0.163291	0.362802
C78	C	0.893391	-0.377804	-0.300036
C79	C	0.855736	-0.432564	-0.242466
H80	H	0.851818	-0.355200	-0.342096
H81	H	0.932650	-0.414053	-0.325872
H82	H	0.921230	-0.327012	-0.271182
H83	H	0.827901	-0.483361	-0.271319
H84	H	0.816461	-0.396314	-0.216628
C85	C	1.160003	-0.464673	-0.228900
C86	C	1.143071	-0.432655	-0.149696
H87	H	1.212961	-0.442166	-0.240439
H88	H	1.118041	-0.443029	-0.271008
H89	H	1.160505	-0.530541	-0.228963
H90	H	1.142563	-0.366788	-0.149635
H91	H	1.185045	-0.454295	-0.107576
H92	H	0.908178	-0.140369	0.428072
H93	H	0.421446	-0.000068	0.025546
H94	H	0.837035	-0.000112	0.313632
C95	C	1.017120	-0.664751	-0.276062
C96	C	1.016565	-0.567667	-0.277247
H97	H	1.028455	-0.687399	-0.329546
H98	H	0.964170	-0.686824	-0.264106
H99	H	1.059125	-0.685870	-0.233738
H100	H	0.974556	-0.546548	-0.319567
H101	H	1.069522	-0.545585	-0.289213
C102	C	1.068904	-0.162285	0.247991
C103	C	1.067814	-0.163046	0.335675
H104	H	1.097089	-0.215930	0.231338
H105	H	1.097164	-0.108363	0.232118
H106	H	1.013193	-0.162061	0.221051
H107	H	1.123525	-0.163263	0.362616
H108	H	1.039555	-0.216983	0.351556
H109	H	0.578781	-0.000058	0.022762
H110	H	0.952435	-0.441932	0.025366
H111	H	1.127313	-0.000147	0.456830
H112	H	0.908225	0.140261	0.428059
