data_functionalizedCrystal
_audit_creation_method	'MofGen! by Chris Wilmer'
_symmetry_space_group_name_H-M	'P1'
_symmetry_Int_Tables_number	1
_symmetry_cell_setting	triclinic
loop_
_symmetry_equiv_pos_as_xyz
  x,y,z
_cell_length_a	17.699083
_cell_length_b	12.996460
_cell_length_c	17.699083
_cell_angle_alpha	89.992964
_cell_angle_beta	96.716985
_cell_angle_gamma	89.999557
loop_
_atom_site_label
_atom_site_type_symbol
_atom_site_fract_x
_atom_site_fract_y
_atom_site_fract_z
O1	O	1.004077	0.085425	-0.095713
O2	O	0.783698	0.085459	-0.108165
O3	O	0.900114	0.085432	0.008250
O4	O	0.887661	0.085452	-0.212128
O5	O	0.900102	-0.085702	0.008257
O6	O	0.783686	-0.085675	-0.108159
O7	O	1.004065	-0.085709	-0.095706
Cu8	Cu	0.893874	-0.101318	-0.101932
Cu9	Cu	0.893889	0.101067	-0.101939
O10	O	0.887649	-0.085682	-0.212122
C11	C	0.755495	-0.000104	-0.107716
C12	C	0.671477	-0.000091	-0.106377
N13	N	0.893870	-0.243665	-0.101926
C14	C	0.622856	-0.000085	-0.174710
C15	C	0.543913	-0.000099	-0.173448
C16	C	0.513592	-0.000111	-0.103852
C17	C	0.562219	-0.000120	-0.035513
C18	C	0.641161	-0.000114	-0.036776
C19	C	0.243856	-0.000146	-0.030418
C20	C	0.164908	-0.000149	-0.029160
C21	C	0.146608	-0.000131	-0.167090
C22	C	0.225550	-0.000125	-0.168353
C23	C	0.274170	-0.000139	-0.100015
C24	C	0.359769	-0.000127	-0.101384
C25	C	0.427995	-0.000116	-0.102481
C26	C	0.893888	-0.663479	-0.101940
C27	C	0.893880	-0.546674	-0.101939
C28	C	0.893879	-0.453576	-0.101934
C29	C	0.893871	-0.336763	-0.101931
C30	C	1.032268	-0.000144	-0.096156
C31	C	1.116286	-0.000150	-0.097494
C32	C	0.899662	-0.000135	0.036451
C33	C	0.898323	-0.000136	0.120469
N34	N	0.893899	0.243415	-0.101939
C35	C	0.888102	-0.000113	-0.240322
C36	C	0.889440	-0.000106	-0.324340
C37	C	0.966656	-0.000148	0.169090
C38	C	0.965394	-0.000138	0.248033
C39	C	0.895798	-0.000124	0.278354
C40	C	0.827459	-0.000109	0.229727
C41	C	0.828722	-0.000111	0.150785
C42	C	0.822364	-0.000100	0.548090
C43	C	0.821106	-0.000101	0.627038
C44	C	0.959036	-0.000127	0.645338
C45	C	0.960299	-0.000129	0.566396
C46	C	0.891961	-0.000109	0.517776
C47	C	0.893330	-0.000117	0.432177
C48	C	0.894427	-0.000124	0.363951
H49	H	0.647537	-0.000075	-0.231384
F50	F	1.034373	-0.000143	0.534131
H51	H	0.107012	-0.000125	-0.222734
H52	H	1.021038	-0.000150	0.287618
F53	F	1.031768	-0.000145	0.697089
H54	H	0.764429	-0.000092	0.651721
F55	F	0.132641	-0.000162	0.044918
H56	H	0.766718	-0.000084	0.508512
F57	F	1.040732	-0.000172	0.136828
H58	H	0.504328	-0.000093	-0.229092
H59	H	0.283434	-0.000158	0.025228
F60	F	0.257815	-0.000106	-0.242427
F61	F	0.692907	-0.000124	0.035954
H62	H	0.770792	-0.000091	0.254420
H63	H	0.773078	-0.000101	0.111198
H64	H	0.537526	-0.000144	0.021154
