data_functionalizedCrystal
_audit_creation_method	'MofGen! by Chris Wilmer'
_symmetry_space_group_name_H-M	'P1'
_symmetry_Int_Tables_number	1
_symmetry_cell_setting	triclinic
loop_
_symmetry_equiv_pos_as_xyz
  x,y,z
_cell_length_a	12.759401
_cell_length_b	12.759400
_cell_length_c	12.759393
_cell_angle_alpha	89.968436
_cell_angle_beta	89.978838
_cell_angle_gamma	90.016417
loop_
_atom_site_label
_atom_site_type_symbol
_atom_site_fract_x
_atom_site_fract_y
_atom_site_fract_z
Zn1	Zn	1.606256	-0.418156	-0.594056
Zn2	Zn	1.606150	-0.593875	-0.418376
Zn3	Zn	1.430558	-0.418216	-0.418387
Zn4	Zn	1.430546	-0.593799	-0.594010
O5	O	1.518377	-0.506011	-0.506207
O6	O	1.753263	-0.441472	-0.570767
O7	O	1.582818	-0.570630	-0.271357
O8	O	1.453913	-0.271187	-0.441714
O9	O	1.753185	-0.570572	-0.441695
O10	O	1.582998	-0.271143	-0.570777
O11	O	1.453811	-0.441574	-0.271365
O12	O	1.283535	-0.441500	-0.441669
O13	O	1.453894	-0.570442	-0.741037
O14	O	1.283527	-0.570500	-0.570698
O15	O	1.582987	-0.441398	-0.741071
O16	O	1.582807	-0.740886	-0.441650
O17	O	1.453791	-0.740830	-0.570687
C18	C	1.245410	-0.505999	-0.506180
C19	C	1.128633	-0.506019	-0.506194
C20	C	0.964070	-0.573291	-0.573309
C21	C	1.073794	-0.573289	-0.573280
C22	C	1.073743	-0.438754	-0.439124
C23	C	0.964021	-0.438762	-0.439148
C24	C	0.964100	-0.650961	-0.650767
C25	C	1.073824	-0.650959	-0.650738
C26	C	1.518315	-0.778978	-0.506185
C27	C	1.518384	-0.895755	-0.506211
C28	C	1.585637	-0.950611	-0.439096
C29	C	1.585702	-1.060335	-0.439128
C30	C	1.451252	-1.060337	-0.573394
C31	C	1.451193	-0.950615	-0.573366
C32	C	1.663258	-0.950611	-0.361575
C33	C	1.663322	-1.060335	-0.361608
C34	C	1.792411	-0.506024	-0.506235
C35	C	1.909187	-0.506029	-0.506247
C36	C	1.518451	-0.505905	-0.780241
C37	C	1.518482	-0.505860	-0.897018
C38	C	1.518468	-0.231978	-0.506252
C39	C	1.518507	-0.115201	-0.506271
C40	C	1.585710	-0.438660	-0.951899
C41	C	1.585735	-0.438622	-1.061623
C42	C	1.451301	-0.572993	-1.061575
C43	C	1.451272	-0.573025	-0.951852
C44	C	1.663328	-0.361086	-0.951928
C45	C	1.663353	-0.361048	-1.061652
C46	C	1.518364	-0.506041	-0.233240
C47	C	1.518537	-0.505790	-0.116464
H48	H	0.919340	-0.384003	-0.384528
H49	H	1.396525	-0.627741	-0.907172
H50	H	1.118402	-0.383989	-0.384494
O51	O	1.386121	-0.638205	-1.115006
C52	C	1.326539	-0.697662	-1.284016
C53	C	1.400425	-0.623770	-1.223640
H54	H	1.338062	-0.686001	-1.371858
H55	H	1.344957	-0.782409	-1.262504
H56	H	1.241836	-0.679226	-1.262373
H57	H	1.485153	-0.642111	-1.245251
H58	H	1.381918	-0.539044	-1.245158
O59	O	0.923378	-0.616289	-0.742960
C60	C	0.767038	-0.579136	-0.842122
C61	C	0.813017	-0.618400	-0.737653
H62	H	0.677807	-0.580851	-0.837875
H63	H	0.794569	-0.495487	-0.857329
H64	H	0.794713	-0.632077	-0.908537
H65	H	0.785364	-0.565537	-0.671173
H66	H	0.785492	-0.702066	-0.722538
H67	H	1.641585	-1.090198	-0.280226
O68	O	1.114217	-0.743212	-0.615825
C69	C	1.077722	-0.916511	-0.550100
C70	C	1.031836	-0.812105	-0.589646
H71	H	1.011139	-0.972232	-0.528903
H72	H	1.128006	-0.953153	-0.614216
H73	H	1.128005	-0.901407	-0.477830
H74	H	0.981506	-0.827119	-0.661898
H75	H	0.981611	-0.775495	-0.525466
H76	H	1.641559	-0.279722	-0.922171
O77	O	1.755595	-0.395850	-0.911491
C78	C	1.928954	-0.461291	-0.947905
C79	C	1.824526	-0.421917	-0.993840
H80	H	1.984705	-0.482398	-1.014462
H81	H	1.965535	-0.397115	-0.897676
H82	H	1.913898	-0.533587	-0.897558
H83	H	1.839492	-0.349640	-1.044235
H84	H	1.787977	-0.486156	-1.044009
H85	H	1.634239	-0.283740	-1.095699
O86	O	0.928405	-0.747922	-0.624486
C87	C	0.826712	-0.851038	-0.503157
C88	C	0.867045	-0.741173	-0.532812
H89	H	0.777113	-0.845621	-0.429024
H90	H	0.777043	-0.883584	-0.569888
H91	H	0.896195	-0.905262	-0.488568
H92	H	0.797625	-0.686870	-0.547385
H93	H	0.916746	-0.708712	-0.466065
H94	H	1.744723	-0.382838	-1.091434
H95	H	1.103656	-0.629253	-0.732137
H96	H	1.744601	-0.920751	-0.383430
O97	O	1.386128	-1.113746	-0.638673
C98	C	1.371997	-1.237469	-0.780586
C99	C	1.445869	-1.177071	-0.706707
H100	H	1.420269	-1.288665	-0.835625
H101	H	1.317132	-1.288997	-0.732376
H102	H	1.323895	-1.179392	-0.828502
H103	H	1.494040	-1.235073	-0.658776
H104	H	1.500665	-1.125527	-0.754978
O105	O	1.385768	-0.897490	-0.638599
C106	C	1.252468	-0.909075	-0.771824
C107	C	1.326495	-0.969369	-0.697983
H108	H	1.204542	-0.967163	-0.819872
H109	H	1.197456	-0.857821	-0.723580
H110	H	1.300666	-0.857592	-0.826741
H111	H	1.278381	-1.020910	-0.643052
H112	H	1.381510	-1.020558	-0.746293
H113	H	1.634133	-0.916665	-0.284248
O114	O	1.755455	-1.100885	-0.396630
C115	C	1.841213	-1.208950	-0.525554
C116	C	1.736810	-1.163078	-0.486013
H117	H	1.826171	-1.259260	-0.597812
H118	H	1.896986	-1.142392	-0.546701
H119	H	1.877770	-1.259219	-0.461363
H120	H	1.700162	-1.112821	-0.550156
H121	H	1.681109	-1.229685	-0.464834
