data_functionalizedCrystal
_audit_creation_method	'MofGen! by Chris Wilmer'
_symmetry_space_group_name_H-M	'P1'
_symmetry_Int_Tables_number	1
_symmetry_cell_setting	triclinic
loop_
_symmetry_equiv_pos_as_xyz
  x,y,z
_cell_length_a	16.992694
_cell_length_b	16.992695
_cell_length_c	16.053802
_cell_angle_alpha	92.747646
_cell_angle_beta	92.750953
_cell_angle_gamma	89.331778
loop_
_atom_site_label
_atom_site_type_symbol
_atom_site_fract_x
_atom_site_fract_y
_atom_site_fract_z
O1	O	-1.053958	0.163816	-0.069305
O2	O	-0.553958	0.663816	0.430695
O3	O	-0.825559	0.161984	-0.069330
O4	O	-0.325559	0.661984	0.430670
O5	O	-0.938844	0.048699	-0.069325
O6	O	-0.438844	0.548699	0.430675
O7	O	-0.940674	0.277100	-0.069310
O8	O	-0.440674	0.777100	0.430690
O9	O	-0.932606	0.054907	0.069534
O10	O	-0.432606	0.554907	0.569534
O11	O	-0.819322	0.168192	0.069529
O12	O	-0.319322	0.668192	0.569529
O13	O	-1.047721	0.170024	0.069554
O14	O	-0.547721	0.670024	0.569554
Zn15	Zn	-0.932531	0.170093	0.091588
Zn16	Zn	-0.432531	0.670093	0.591588
Zn17	Zn	-0.940749	0.161914	-0.091364
Zn18	Zn	-0.440749	0.661914	0.408636
O19	O	-0.934437	0.283308	0.069549
O20	O	-0.434437	0.783308	0.569549
C21	C	-0.793081	0.162732	0.000096
C22	C	-0.293081	0.662732	0.500096
C23	C	-0.705597	0.155703	0.000086
C24	C	-0.205597	0.655703	0.500086
C25	C	-0.933369	0.022443	0.000101
C26	C	-0.433369	0.522443	0.500101
C27	C	-0.926341	-0.065042	0.000089
C28	C	-0.426341	0.434958	0.500089
C29	C	-1.080200	0.169276	0.000126
C30	C	-0.580200	0.669276	0.500126
C31	C	-1.167684	0.176305	0.000130
C32	C	-0.667684	0.676305	0.500130
N33	N	-0.926929	0.175676	0.216448
N34	N	-0.426929	0.675676	0.716448
C35	C	-0.659605	0.223521	0.000091
C36	C	-0.159605	0.723521	0.500091
C37	C	-0.577404	0.216912	0.000102
C38	C	-0.077404	0.716912	0.500102
C39	C	-0.541196	0.142485	0.000102
C40	C	-0.041196	0.642485	0.500102
C41	C	-0.587193	0.074662	0.000100
C42	C	-0.087193	0.574662	0.500100
C43	C	-0.669392	0.081271	0.000095
C44	C	-0.169392	0.581271	0.500095
C45	C	-0.295881	0.115091	0.000123
C46	C	0.204119	0.615091	0.500123
C47	C	-0.213675	0.108487	0.000125
C48	C	0.286325	0.608487	0.500125
C49	C	-0.203892	0.250738	0.000129
C50	C	0.296108	0.750738	0.500129
C51	C	-0.286094	0.257341	0.000119
C52	C	0.213906	0.757341	0.500119
C53	C	-0.332083	0.189518	0.000121
C54	C	0.167917	0.689518	0.500121
N55	N	-0.457173	0.135728	0.000111
N56	N	0.042827	0.635728	0.500111
N57	N	-0.416104	0.196276	0.000118
N58	N	0.083896	0.696276	0.500118
C59	C	-0.939911	0.309564	0.000121
C60	C	-0.439911	0.809564	0.500121
C61	C	-0.946940	0.397049	0.000127
C62	C	-0.446940	0.897049	0.500127
C63	C	-0.879122	0.443040	0.000120
C64	C	-0.379122	0.943040	0.500120
C65	C	-0.885731	0.525240	0.000110
C66	C	-0.385731	1.025240	0.500110
C67	C	-0.960159	0.561449	0.000114
C68	C	-0.460159	1.061449	0.500114
C69	C	-1.027982	0.515452	0.000119
C70	C	-0.527982	1.015452	0.500119
C71	C	-1.021372	0.433253	0.000123
C72	C	-0.521372	0.933253	0.500123
C73	C	-0.987554	0.806762	0.000098
C74	C	-0.487554	1.306762	0.500098
C75	C	-0.994159	0.888967	0.000097
C76	C	-0.494159	1.388967	0.500097
C77	C	-0.851908	0.898750	0.000086
C78	C	-0.351908	1.398750	0.500086
C79	C	-0.845304	0.816549	0.000095
C80	C	-0.345304	1.316549	0.500095
C81	C	-0.913127	0.770559	0.000095
C82	C	-0.413127	1.270559	0.500095
N83	N	-0.966916	0.645471	0.000107
N84	N	-0.466916	1.145471	0.500107
N85	N	-0.906369	0.686539	0.000097
N86	N	-0.406369	1.186539	0.500097
N87	N	-0.946358	0.156326	-0.216224
N88	N	-0.446358	0.656326	0.283776
C89	C	-0.975151	0.127492	0.260144
C90	C	-0.475151	0.627492	0.760144
C91	C	-0.971240	0.131405	0.347551
C92	C	-0.471240	0.631405	0.847551
C93	C	-0.919109	0.183505	0.391260
C94	C	-0.419109	0.683505	0.891260
C95	C	-0.870882	0.231691	0.347557
C96	C	-0.370882	0.731691	0.847557
C97	C	-0.874789	0.227773	0.260152
C98	C	-0.374789	0.727773	0.760152
C99	C	-0.902038	0.200594	0.652668
C100	C	-0.402038	0.700594	1.152668
C101	C	-0.898135	0.204509	0.740080
C102	C	-0.398135	0.704509	1.240080
C103	C	-0.998493	0.104222	0.740067
C104	C	-0.498493	0.604222	1.240067
C105	C	-1.002399	0.100313	0.652660
C106	C	-0.502399	0.600313	1.152660
C107	C	-0.954169	0.148495	0.608966
C108	C	-0.454169	0.648495	1.108966
N109	N	-0.915112	0.187508	0.480603
N110	N	-0.415112	0.687508	0.980603
N111	N	-0.958163	0.144488	0.519624
N112	N	-0.458163	0.644488	1.019624
H113	H	-0.539961	0.272137	0.000105
H114	H	-0.039961	0.772137	0.500105
H115	H	-1.044848	0.057889	0.617074
H116	H	-0.544848	0.557889	1.117074
H117	H	-0.855682	0.246939	0.775663
H118	H	-0.355682	0.746939	1.275663
H119	H	-0.830507	0.562682	0.000101
H120	H	-0.330507	1.062682	0.500101
N121	N	-0.345485	0.041946	0.000109
N122	N	0.154515	0.541946	0.500109
H123	H	-0.377503	0.043817	0.051582
H124	H	0.122497	0.543817	0.551582
H125	H	-0.310027	-0.006169	0.000073
H126	H	0.189973	0.493831	0.500073
H127	H	-0.166439	0.305956	0.000130
H128	H	0.333561	0.805956	0.500130
N129	N	-0.698656	0.303796	0.000081
N130	N	-0.198656	0.803796	0.500081
H131	H	-0.657045	0.345755	0.000087
H132	H	-0.157045	0.845755	0.500087
H133	H	-0.730246	0.311942	0.051554
H134	H	-0.230246	0.811942	0.551554
N135	N	-0.325146	0.337616	0.000103
N136	N	0.174854	0.837616	0.500103
H137	H	-0.283537	0.379577	0.000104
H138	H	0.216463	0.879577	0.500104
H139	H	-0.356740	0.345768	0.051573
H140	H	0.143260	0.845768	0.551573
N141	N	-0.174619	0.028207	0.000120
N142	N	0.325381	0.528207	0.500120
H143	H	-0.216226	-0.013756	0.000121
H144	H	0.283774	0.486244	0.500121
H145	H	-0.138418	0.024672	0.051596
H146	H	0.361582	0.524672	0.551596
N147	N	-0.850016	0.252555	0.605547
N148	N	-0.350016	0.752555	1.105547
H149	H	-0.816401	0.286154	0.646502
H150	H	-0.316401	0.786154	1.146502
H151	H	-0.883944	0.287639	0.569271
H152	H	-0.383944	0.787639	1.069271
N153	N	-0.548144	-0.005615	0.000113
N154	N	-0.048144	0.494385	0.500113
H155	H	-0.489092	0.000487	0.000117
H156	H	0.010908	0.500487	0.500117
H157	H	-0.566953	-0.037826	-0.051363
H158	H	-0.066953	0.462174	0.448637
H159	H	-1.017605	0.085070	0.224562
H160	H	-0.517605	0.585070	0.724562
H161	H	-0.706838	0.026046	0.000090
H162	H	-0.206838	0.526046	0.500090
H163	H	-0.818515	0.413566	0.000126
H164	H	-0.318515	0.913566	0.500126
N165	N	-1.060702	0.757166	0.000114
N166	N	-0.560702	1.257166	0.500114
H167	H	-1.063450	0.720538	-0.051360
H168	H	-0.563450	1.220538	0.448640
H169	H	-1.108809	0.792635	0.000153
H170	H	-0.608809	1.292635	0.500153
N171	N	-0.765028	0.777498	0.000109
N172	N	-0.265028	1.277498	0.500109
H173	H	-0.723067	0.819107	0.000107
H174	H	-0.223067	1.319107	0.500107
H175	H	-0.761488	0.741293	-0.051361
H176	H	-0.261488	1.241293	0.448639
N177	N	-0.814648	0.287880	0.394696
N178	N	-0.314648	0.787880	0.894696
H179	H	-0.819490	0.283052	0.456697
H180	H	-0.319490	0.783052	0.956697
H181	H	-0.827919	0.343615	0.379412
H182	H	-0.327919	0.843615	0.879412
N183	N	-0.778759	0.948352	0.000097
N184	N	-0.278759	1.448352	0.500097
H185	H	-0.794236	1.005920	0.000099
H186	H	-0.294236	1.505920	0.500099
H187	H	-0.748849	0.933819	-0.051378
H188	H	-0.248849	1.433819	0.448622
H189	H	-1.054769	0.918445	0.000100
H190	H	-0.554769	1.418445	0.500100
N191	N	-1.108258	0.554501	0.000132
N192	N	-0.608258	1.054501	0.500132
H193	H	-1.102156	0.613553	0.000135
H194	H	-0.602156	1.113553	0.500135
H195	H	-1.135840	0.540296	0.051616
H196	H	-0.635840	1.040296	0.551616
N197	N	-1.094517	0.383644	0.000127
N198	N	-0.594517	0.883644	0.500127
H199	H	-1.142670	0.419054	0.000130
H200	H	-0.642670	0.919054	0.500130
H201	H	-1.092563	0.351631	0.051604
H202	H	-0.592563	0.851631	0.551604
H203	H	-0.835521	0.267008	0.224576
H204	H	-0.335521	0.767008	0.724576
H205	H	-1.010506	0.092170	0.383128
H206	H	-0.510506	0.592170	0.883128
H207	H	-1.037759	0.064994	0.775651
H208	H	-0.537759	0.564994	1.275651
