data_functionalizedCrystal
_audit_creation_method	'MofGen! by Chris Wilmer'
_symmetry_space_group_name_H-M	'P1'
_symmetry_Int_Tables_number	1
_symmetry_cell_setting	triclinic
loop_
_symmetry_equiv_pos_as_xyz
  x,y,z
_cell_length_a	10.654556
_cell_length_b	10.654559
_cell_length_c	9.730223
_cell_angle_alpha	90.001240
_cell_angle_beta	89.999363
_cell_angle_gamma	84.488047
loop_
_atom_site_label
_atom_site_type_symbol
_atom_site_fract_x
_atom_site_fract_y
_atom_site_fract_z
O1	O	1.667835	0.176429	-0.114295
O2	O	1.302358	0.193227	-0.114294
O3	O	1.493494	0.002090	-0.114295
O4	O	1.476700	0.367566	-0.114295
O5	O	1.493492	0.002095	0.114285
O6	O	1.302356	0.193232	0.114286
O7	O	1.667833	0.176434	0.114285
Zn8	Zn	1.485094	0.184834	0.150577
Zn9	Zn	1.485097	0.184827	-0.150587
O10	O	1.476698	0.367571	0.114285
C11	C	1.255559	0.191995	-0.000004
C12	C	1.116116	0.188300	-0.000004
C13	C	0.919587	0.183097	-0.124614
C14	C	1.050610	0.186562	-0.124608
C15	C	1.050596	0.186560	0.124602
C16	C	0.919577	0.183086	0.124595
C17	C	0.919596	0.183104	-0.268494
C18	C	1.050618	0.186568	-0.268488
C19	C	1.492257	-0.044706	-0.000007
C20	C	1.488561	-0.184148	-0.000016
C21	C	1.372549	-0.235691	-0.000019
C22	C	1.369083	-0.366713	-0.000009
C23	C	1.597652	-0.394640	0.000002
C24	C	1.601116	-0.263620	0.000002
C25	C	1.240586	-0.219568	-0.000032
C26	C	1.237121	-0.350590	-0.000021
C27	C	1.714632	0.177667	-0.000008
C28	C	1.854075	0.181361	-0.000017
C29	C	1.477934	0.414367	-0.000005
C30	C	1.481631	0.553809	-0.000005
N31	N	1.485101	0.184837	0.356114
N32	N	1.485100	0.184814	-0.356123
C33	C	1.569758	0.100231	0.428040
C34	C	1.569755	0.100215	0.571922
C35	C	1.400434	0.269425	0.571941
C36	C	1.400432	0.269433	0.428061
C37	C	1.667518	0.002543	0.428030
C38	C	1.667515	0.002527	0.571913
H39	H	1.075455	0.275250	-0.323717
F40	F	1.724591	-0.208770	0.000010
F41	F	1.188482	-0.159909	-0.129035
H42	H	1.195068	-0.386216	0.098665
F43	F	0.852011	0.300009	-0.326847
F44	F	1.169672	-0.388988	-0.125050
F45	F	1.627620	-0.116700	0.630236
H46	H	1.764027	0.024048	0.610963
H47	H	1.646072	-0.093990	0.388976
F48	F	0.849859	0.181230	0.257207
H49	H	1.331498	0.338299	0.630536
F50	F	1.786695	0.042539	0.369693
F51	F	1.118205	0.069658	-0.326843
F52	F	0.887139	0.067202	-0.340706
F53	F	1.175583	-0.164993	0.124991
F54	F	1.120318	0.188396	0.257216
F55	F	1.310316	0.359466	0.351512
F56	F	1.717434	-0.479230	0.000024
