data_functionalizedCrystal
_audit_creation_method	'MofGen! by Chris Wilmer'
_symmetry_space_group_name_H-M	'P1'
_symmetry_Int_Tables_number	1
_symmetry_cell_setting	triclinic
loop_
_symmetry_equiv_pos_as_xyz
  x,y,z
_cell_length_a	14.908783
_cell_length_b	29.839131
_cell_length_c	14.908308
_cell_angle_alpha	93.253999
_cell_angle_beta	89.788727
_cell_angle_gamma	93.325426
loop_
_atom_site_label
_atom_site_type_symbol
_atom_site_fract_x
_atom_site_fract_y
_atom_site_fract_z
Zn1	Zn	1.345237	-0.157131	-0.587761
Zn2	Zn	1.353783	-0.227697	-0.437371
Zn3	Zn	1.203551	-0.156645	-0.428733
Zn4	Zn	1.194804	-0.236300	-0.578989
O5	O	1.274344	-0.194443	-0.508213
O6	O	1.472200	-0.163095	-0.575098
O7	O	1.341091	-0.214468	-0.310403
O8	O	1.222430	-0.093842	-0.449885
O9	O	1.478479	-0.214940	-0.464607
O10	O	1.326526	-0.094199	-0.566722
O11	O	1.230716	-0.162267	-0.304057
O12	O	1.076561	-0.170608	-0.441378
O13	O	1.207522	-0.229602	-0.705974
O14	O	1.070135	-0.229130	-0.551771
O15	O	1.318045	-0.171437	-0.712419
O16	O	1.332610	-0.291706	-0.456100
O17	O	1.215809	-0.298027	-0.560146
C18	C	1.040722	-0.200750	-0.494686
C19	C	0.940776	-0.203460	-0.488920
C20	C	0.746417	-0.154650	-0.593315
C21	C	0.652509	-0.157194	-0.587901
C22	C	0.659050	-0.211091	-0.472672
C23	C	0.752958	-0.208546	-0.478087
C24	C	0.796638	-0.180325	-0.538411
C25	C	0.890548	-0.177784	-0.543830
C26	C	0.897087	-0.231677	-0.428597
C27	C	0.803179	-0.234222	-0.423182
C28	C	1.274211	-0.311167	-0.508130
C29	C	1.274235	-0.361101	-0.508129
C30	C	1.328529	-0.670898	-0.569132
C31	C	1.328624	-0.858570	-0.569192
O32	O	1.374656	-0.882967	-0.620995
N33	N	1.274490	-0.881884	-0.508322
C34	C	1.220325	-0.858278	-0.447437
O35	O	1.174277	-0.882415	-0.395671
C36	C	1.220227	-0.670607	-0.447382
C37	C	1.274370	-0.647295	-0.508250
C38	C	1.382668	-0.647585	-0.629995
C39	C	1.382647	-0.600670	-0.629976
C40	C	1.328488	-0.577067	-0.569094
C41	C	1.274350	-0.600380	-0.508231
C42	C	1.166057	-0.647003	-0.386503
C43	C	1.166036	-0.600082	-0.386496
C44	C	1.220179	-0.576769	-0.447363
C45	C	1.220170	-0.529861	-0.447330
N46	N	1.274304	-0.506547	-0.508200
C47	C	1.328463	-0.530150	-0.569082
C48	C	1.220382	-0.956808	-0.447469
C49	C	1.220408	-1.003726	-0.447481
C50	C	1.328705	-1.004014	-0.569237
C51	C	1.328684	-0.957095	-0.569220
C52	C	1.274516	-0.933494	-0.508339
C53	C	1.328416	-0.431624	-0.569037
C54	C	1.328393	-0.384704	-0.569011
C55	C	1.220093	-0.384420	-0.447258
C56	C	1.220119	-0.431335	-0.447282
C57	C	1.274283	-0.454936	-0.508178
O58	O	1.174155	-0.505436	-0.395561
O59	O	1.374489	-0.506005	-0.620853
C60	C	1.328550	-0.717813	-0.569151
C61	C	1.274411	-0.741126	-0.508288
C62	C	1.220252	-0.717523	-0.447406
C63	C	1.274437	-0.788043	-0.508300
C64	C	1.328596	-0.811646	-0.569182
C65	C	1.382729	-0.788331	-0.630052
C66	C	1.382709	-0.741416	-0.630033
C67	C	1.166119	-0.740837	-0.386536
C68	C	1.166145	-0.787753	-0.386559
C69	C	1.220304	-0.811356	-0.447441
C70	C	1.508878	-0.188112	-0.521795
C71	C	1.608822	-0.185414	-0.527582
C72	C	1.260855	-0.201533	-0.742733
C73	C	1.255107	-0.204554	-0.842671
C74	C	1.274500	-0.077264	-0.508319
C75	C	1.274567	-0.027329	-0.508363
C76	C	1.359390	-0.149654	-1.037179
C77	C	1.353992	-0.152491	-1.131080
C78	C	1.238908	-0.213063	-1.124376
C79	C	1.244307	-0.210226	-1.030475
C80	C	1.304550	-0.178521	-0.986880
C81	C	1.309952	-0.175686	-0.892977
C82	C	1.194865	-0.236256	-0.886275
C83	C	1.189467	-0.239093	-0.980176
C84	C	1.287832	-0.187348	-0.274609
C85	C	1.293754	-0.184195	-0.174682
H86	H	0.781982	-0.131673	-0.642438
H87	H	0.611623	-0.136286	-0.632607
H88	H	0.937987	-0.252588	-0.383897
Br89	Br	1.391714	-0.132661	-0.833813
Br90	Br	1.157147	-0.256084	-1.183556
H91	H	1.408447	-0.123841	-1.001683
H92	H	0.623470	-0.234061	-0.423549
H93	H	0.767602	-0.257197	-0.374065
Br94	Br	1.401883	-0.353068	-0.651619
H95	H	1.372515	-0.450834	-0.618631
Br96	Br	1.402167	-0.925462	-0.651828
H97	H	1.426733	-0.581692	-0.679542
Br98	Br	1.428416	-0.113312	-1.199341
H99	H	1.140417	-0.264905	-1.015684
H100	H	1.122015	-0.721624	-0.336959
H101	H	1.426770	-0.666798	-0.679578
H102	H	1.372805	-1.023239	-0.618809
Br103	Br	1.146940	-1.035357	-0.364858
H104	H	1.176000	-0.365195	-0.397686
H105	H	1.176271	-0.937595	-0.397890
H106	H	1.121968	-0.665976	-0.336937
Br107	Br	1.092515	-0.568054	-0.303868
H108	H	1.176038	-0.450317	-0.397712
H109	H	1.426797	-0.722438	-0.679597
H110	H	1.426831	-0.807557	-0.679621
Br111	Br	1.092662	-0.819385	-0.303940
H112	H	0.926111	-0.154805	-0.592950
Br113	Br	1.120448	-0.275441	-0.818008
