data_functionalizedCrystal
_audit_creation_method	'MofGen! by Chris Wilmer'
_symmetry_space_group_name_H-M	'P1'
_symmetry_Int_Tables_number	1
_symmetry_cell_setting	triclinic
loop_
_symmetry_equiv_pos_as_xyz
  x,y,z
_cell_length_a	16.959455
_cell_length_b	19.077068
_cell_length_c	19.076919
_cell_angle_alpha	94.470751
_cell_angle_beta	87.717788
_cell_angle_gamma	87.676048
loop_
_atom_site_label
_atom_site_type_symbol
_atom_site_fract_x
_atom_site_fract_y
_atom_site_fract_z
Zn1	Zn	1.176473	0.296738	0.409832
Zn2	Zn	1.676473	0.796738	0.909832
Zn3	Zn	1.176375	0.409891	0.296677
Zn4	Zn	1.676375	0.909891	0.796677
Zn5	Zn	1.049829	0.292016	0.291964
Zn6	Zn	1.549829	0.792016	0.791964
Zn7	Zn	1.038720	0.414582	0.414522
Zn8	Zn	1.538720	0.914582	0.914522
O9	O	1.110349	0.353307	0.353249
O10	O	1.610349	0.853307	0.853249
O11	O	1.287070	0.311761	0.394831
O12	O	1.787070	0.811761	0.894831
O13	O	1.164197	0.390316	0.197404
O14	O	1.664197	0.890316	0.697404
O15	O	1.071319	0.193994	0.303664
O16	O	1.571319	0.693994	0.803664
O17	O	1.286998	0.394894	0.311696
O18	O	1.786998	0.894894	0.811696
O19	O	1.164363	0.197463	0.390261
O20	O	1.664363	0.697463	0.890261
O21	O	1.071224	0.303714	0.193942
O22	O	1.571224	0.803714	0.693942
O23	O	0.937746	0.308262	0.308212
O24	O	1.437746	0.808262	0.808212
O25	O	1.052385	0.402888	0.512547
O26	O	1.552385	0.902888	1.012547
O27	O	0.929584	0.398310	0.398255
O28	O	1.429584	0.898310	0.898255
O29	O	1.153591	0.316309	0.509101
O30	O	1.653591	0.816309	1.009101
O31	O	1.153424	0.509163	0.316244
O32	O	1.653424	1.009163	0.816244
O33	O	1.052290	0.512608	0.402825
O34	O	1.552290	1.012608	0.902825
C35	C	1.101662	0.536465	0.360570
C36	C	1.601662	1.036465	0.860570
C37	C	1.098016	0.614821	0.363726
C38	C	1.598016	1.114821	0.863726
C39	C	0.904985	0.353283	0.353232
C40	C	1.404985	0.853283	0.853232
C41	C	0.817127	0.353290	0.353242
C42	C	1.317127	0.853290	0.853242
C43	C	1.101760	0.360649	0.537118
C44	C	1.601760	0.860649	1.037118
C45	C	1.098099	0.363777	0.615472
C46	C	1.598099	0.863777	1.115472
C47	C	0.449874	0.306386	0.306456
C48	C	0.949874	0.806386	0.806456
C49	C	0.441423	0.400288	0.400084
C50	C	0.941423	0.900288	0.900084
C51	C	0.523970	0.400277	0.400080
C52	C	1.023970	0.900277	0.900080
C53	C	0.569472	0.353321	0.353262
C54	C	1.069472	0.853321	0.853262
C55	C	0.532428	0.306375	0.306448
C56	C	1.032428	0.806375	0.806448
C57	C	0.561020	0.447227	0.446887
C58	C	1.061020	0.947227	0.946887
C59	C	0.643572	0.447219	0.446884
C60	C	1.143572	0.947219	0.946884
C61	C	0.689076	0.400259	0.400069
C62	C	1.189076	0.900259	0.900069
C63	C	0.652027	0.353311	0.353254
C64	C	1.152027	0.853311	0.853254
C65	C	0.697529	0.306355	0.306436
C66	C	1.197529	0.806355	0.806436
C67	C	0.660481	0.259402	0.259624
C68	C	1.160481	0.759402	0.759624
C69	C	0.577932	0.259415	0.259633
C70	C	1.077932	0.759415	0.759633
C71	C	0.771625	0.400247	0.400060
C72	C	1.271625	0.900247	0.900060
C73	C	0.780083	0.306344	0.306429
C74	C	1.280083	0.806344	0.806429
C75	C	1.316516	0.353331	0.353266
C76	C	1.816516	0.853331	0.853266
C77	C	1.404371	0.353342	0.353274
C78	C	1.904371	0.853342	0.853274
C79	C	1.119091	0.169434	0.345914
C80	C	1.619091	0.669434	0.845914
C81	C	1.122817	0.091079	0.342788
C82	C	1.622817	0.591079	0.842788
C83	C	1.148997	0.649818	0.320168
C84	C	1.648997	1.149818	0.820168
C85	C	1.145573	0.723442	0.323141
C86	C	1.645573	1.223442	0.823141
C87	C	1.091164	0.762069	0.369668
C88	C	1.591164	1.262069	0.869668
C89	C	1.040181	0.727068	0.413231
C90	C	1.540181	1.227068	0.913231
C91	C	1.043610	0.653445	0.410261
C92	C	1.543610	1.153445	0.910261
C93	C	1.075263	0.982454	0.383382
C94	C	1.575263	1.482454	0.883382
C95	C	1.071837	1.056083	0.386346
C96	C	1.571837	1.556083	0.886346
C97	C	1.177229	1.052452	0.296257
C98	C	1.677229	1.552452	0.796257
C99	C	1.180650	0.978827	0.293289
C100	C	1.680650	1.478827	0.793289
C101	C	1.129670	0.943832	0.336854
C102	C	1.629670	1.443832	0.836854
N103	N	1.087661	0.837326	0.372706
N104	N	1.587661	1.337326	0.872706
N105	N	1.133178	0.868578	0.333819
N106	N	1.633178	1.368578	0.833819
C107	C	1.118953	0.345943	0.170093
C108	C	1.618953	0.845943	0.670093
C109	C	1.122776	0.342615	0.091732
C110	C	1.622776	0.842615	0.591732
C111	C	1.149070	0.320172	0.650490
C112	C	1.649070	0.820172	1.150490
C113	C	1.145621	0.323109	0.724111
C114	C	1.645621	0.823109	1.224111
C115	C	1.091205	0.369655	0.762714
C116	C	1.591205	0.869655	1.262714
C117	C	1.040229	0.413262	0.727691
C118	C	1.540229	0.913262	1.227691
C119	C	1.043674	0.410321	0.654070
C120	C	1.543674	0.910321	1.154070
C121	C	1.075246	0.383281	0.983088
C122	C	1.575246	0.883281	1.483088
C123	C	1.071806	0.386221	1.056714
C124	C	1.571806	0.886221	1.556714
C125	C	1.177197	0.296066	1.053129
C126	C	1.677197	0.796066	1.553129
C127	C	1.180641	0.293132	0.979507
C128	C	1.680641	0.793132	1.479507
C129	C	1.129663	0.336737	0.944491
C130	C	1.629663	0.836737	1.444491
N131	N	1.087680	0.372660	0.837967
N132	N	1.587680	0.872660	1.337967
N133	N	1.133184	0.333728	0.869238
N134	N	1.633184	0.833728	1.369238
H135	H	0.697540	0.221174	0.221502
H136	H	1.197540	0.721174	0.721502
H137	H	1.002161	0.445822	0.625559
H138	H	1.502161	0.945822	1.125559
H139	H	0.995919	0.451159	0.759127
H140	H	1.495919	0.951159	1.259127
C141	C	0.961184	1.139328	0.399402
C142	C	1.461184	1.639328	0.899402
C143	C	1.012025	1.098540	0.437495
C144	C	1.512025	1.598540	0.937495
H145	H	0.924258	1.165535	0.430977
H146	H	1.424258	1.665535	0.930977
H147	H	0.991053	1.170705	0.373889
H148	H	1.491053	1.670705	0.873889
H149	H	0.933752	1.109403	0.367512
H150	H	1.433752	1.609403	0.867512
H151	H	1.039462	1.128466	0.469381
H152	H	1.539462	1.628466	0.969381
H153	H	0.982152	1.067160	0.463019
H154	H	1.482152	1.567160	0.963019
C155	C	0.661798	0.486499	0.567576
C156	C	1.161798	0.986499	1.067576
C157	C	0.684291	0.498821	0.498344
C158	C	1.184291	0.998821	0.998344
H159	H	0.686942	0.518352	0.599346
H160	H	1.186942	1.018352	1.099346
H161	H	0.606129	0.493229	0.574272
H162	H	1.106129	0.993229	1.074272
H163	H	0.677083	0.439560	0.576065
H164	H	1.177083	0.939560	1.076065
H165	H	0.669001	0.545759	0.489853
H166	H	1.169001	1.045759	0.989853
H167	H	0.739972	0.492097	0.491645
H168	H	1.239972	0.992097	0.991645
C169	C	0.939090	0.664424	0.499608
C170	C	1.439090	1.164424	0.999608
C171	C	0.987572	0.614974	0.458143
C172	C	1.487572	1.114974	0.958143
H173	H	0.904494	0.640673	0.529168
H174	H	1.404494	1.140673	1.029168
H175	H	0.970909	0.694183	0.527752
H176	H	1.470909	1.194183	1.027752
H177	H	0.908977	0.691945	0.470023
H178	H	1.408977	1.191945	0.970023
H179	H	1.017689	0.587457	0.487728
H180	H	1.517689	1.087457	0.987728
H181	H	0.955749	0.585203	0.429997
H182	H	1.455749	1.085203	0.929997
C183	C	1.284462	0.204306	0.983362
C184	C	1.784462	0.704306	1.483362
C185	C	1.240453	0.241963	0.937077
C186	C	1.740453	0.741963	1.437077
H187	H	1.321386	0.172715	0.957165
H188	H	1.821386	0.672715	1.457165
H189	H	1.311893	0.236170	1.013304
H190	H	1.811893	0.736170	1.513304
H191	H	1.249954	0.178485	1.010998
H192	H	1.749954	0.678485	1.510998
H193	H	1.274961	0.267788	0.909445
H194	H	1.774961	0.767788	1.409445
H195	H	1.213021	0.210094	0.907123
H196	H	1.713021	0.710094	1.407123
H197	H	1.033752	0.953968	0.418853
H198	H	1.533752	1.453968	0.918853
C199	C	1.157363	0.802633	0.231787
C200	C	1.657363	1.302633	0.731787
C201	C	1.201671	0.761980	0.275378
C202	C	1.701671	1.261980	0.775378
H203	H	1.192018	0.826447	0.202339
H204	H	1.692018	1.326447	0.702339
H205	H	1.125619	0.772910	0.203530
H206	H	1.625619	1.272910	0.703530
H207	H	1.124411	0.836120	0.259934
H208	H	1.624411	1.336120	0.759934
H209	H	1.234619	0.728490	0.247231
H210	H	1.734619	1.228490	0.747231
H211	H	1.233429	0.791706	0.303638
H212	H	1.733429	1.291706	0.803638
H213	H	1.193383	0.282271	0.619064
H214	H	1.693383	0.782271	1.119064
H215	H	1.218700	0.260565	1.081648
H216	H	1.718700	0.760565	1.581648
H217	H	1.187128	0.287603	0.752620
H218	H	1.687128	0.787603	1.252620
H219	H	0.817126	0.268102	0.268307
H220	H	1.317126	0.768102	0.768307
H221	H	0.995884	0.758524	0.451117
H222	H	1.495884	1.258524	0.951117
H223	H	0.801786	0.438476	0.438171
H224	H	1.301786	0.938476	0.938171
C225	C	1.284497	0.982637	0.204551
C226	C	1.784497	1.482637	0.704551
C227	C	1.240467	0.936371	0.242153
C228	C	1.740467	1.436371	0.742153
H229	H	1.321429	0.956424	0.172986
H230	H	1.821429	1.456424	0.672986
H231	H	1.250009	1.010305	0.178714
H232	H	1.750009	1.510305	0.678714
H233	H	1.311925	1.012550	0.236455
H234	H	1.811925	1.512550	0.736455
H235	H	1.213034	0.906460	0.210249
H236	H	1.713034	1.406460	0.710249
H237	H	1.274961	0.908690	0.267992
H238	H	1.774961	1.408690	0.767992
C239	C	0.967963	0.475036	1.052866
C240	C	1.467963	0.975036	1.552866
C241	C	1.011984	0.437385	1.099148
C242	C	1.511984	0.937385	1.599148
H243	H	0.931032	0.506618	1.079065
H244	H	1.431032	1.006618	1.579065
H245	H	1.002457	0.500860	1.025231
H246	H	1.502457	1.000860	1.525231
H247	H	0.940534	0.443161	1.022923
H248	H	1.440534	0.943161	1.522923
H249	H	1.039418	0.469259	1.129088
H250	H	1.539418	0.969259	1.629088
H251	H	0.977485	0.411560	1.126795
H252	H	1.477485	0.911560	1.626795
H253	H	1.033747	0.418798	0.954587
H254	H	1.533747	0.918798	1.454587
H255	H	1.218735	1.080952	0.260790
H256	H	1.718735	1.580952	0.760790
C257	C	0.455143	0.217733	0.218079
C258	C	0.955143	0.717733	0.718079
C259	C	0.537208	0.207806	0.208185
C260	C	1.037208	0.707806	0.708185
H261	H	0.430001	0.185873	0.186315
H262	H	0.930001	0.685873	0.686315
H263	H	0.439903	0.209389	0.265049
H264	H	0.939903	0.709389	0.765049
H265	H	0.439869	0.264670	0.209571
H266	H	0.939869	0.764670	0.709571
H267	H	0.552483	0.160870	0.216698
H268	H	1.052483	0.660870	0.716698
H269	H	0.552454	0.216144	0.161204
H270	H	1.052454	0.716144	0.661204
C271	C	0.343709	0.414014	0.495289
C272	C	0.843709	0.914014	0.995289
C273	C	0.391406	0.451896	0.451545
C274	C	0.891406	0.951896	0.951545
H275	H	0.312831	0.445876	0.527063
H276	H	0.812831	0.945876	1.027063
H277	H	0.309839	0.386063	0.467407
H278	H	0.809839	0.886063	0.967407
H279	H	0.376114	0.384418	0.521073
H280	H	0.876114	0.884418	1.021073
H281	H	0.359000	0.481488	0.425757
H282	H	0.859000	0.981488	0.925757
H283	H	0.425279	0.479859	0.479431
H284	H	0.925279	0.979859	0.979431
C285	C	0.463310	0.460946	0.542093
C286	C	0.963310	0.960946	1.042093
C287	C	0.510998	0.498833	0.498347
C288	C	1.010998	0.998833	0.998347
H289	H	0.432427	0.492806	0.573867
H290	H	0.932427	0.992806	1.073867
H291	H	0.429443	0.432990	0.514213
H292	H	0.929443	0.932990	1.014213
H293	H	0.495720	0.431356	0.567878
H294	H	0.995720	0.931356	1.067878
H295	H	0.478587	0.528420	0.472558
H296	H	0.978587	1.028420	0.972558
H297	H	0.544868	0.526802	0.526231
H298	H	1.044868	1.026802	1.026231
C299	C	1.194239	0.622416	0.199917
C300	C	1.694239	1.122416	0.699917
C301	C	1.208804	0.607363	0.269022
C302	C	1.708804	1.107363	0.769022
H303	H	1.231168	0.596210	0.168343
H304	H	1.731168	1.096210	0.668343
H305	H	1.142191	0.609973	0.189077
H306	H	1.642191	1.109973	0.689077
H307	H	1.199495	0.671274	0.195462
H308	H	1.699495	1.171274	0.695462
H309	H	1.203543	0.558505	0.273478
H310	H	1.703543	1.058505	0.773478
H311	H	1.260866	0.619800	0.279865
H312	H	1.760866	1.119800	0.779865
H313	H	0.419706	0.268156	0.268345
H314	H	0.919706	0.768156	0.768345
