data_functionalizedCrystal
_audit_creation_method	'MofGen! by Chris Wilmer'
_symmetry_space_group_name_H-M	'P1'
_symmetry_Int_Tables_number	1
_symmetry_cell_setting	triclinic
loop_
_symmetry_equiv_pos_as_xyz
  x,y,z
_cell_length_a	18.101398
_cell_length_b	18.100771
_cell_length_c	18.101389
_cell_angle_alpha	89.705900
_cell_angle_beta	90.024327
_cell_angle_gamma	90.306223
loop_
_atom_site_label
_atom_site_type_symbol
_atom_site_fract_x
_atom_site_fract_y
_atom_site_fract_z
Zn1	Zn	1.130681	-0.295019	0.420447
Zn2	Zn	1.129972	-0.418852	0.297281
Zn3	Zn	1.006840	-0.295011	0.296608
Zn4	Zn	1.006186	-0.418821	0.421069
O5	O	1.068420	-0.356926	0.358851
O6	O	1.234220	-0.311462	0.404130
O7	O	1.113615	-0.402435	0.193559
O8	O	1.023838	-0.191373	0.312494
O9	O	1.233699	-0.402442	0.313640
O10	O	1.114823	-0.191379	0.403478
O11	O	1.023150	-0.311449	0.193065
O12	O	0.903120	-0.311418	0.313097
O13	O	1.022724	-0.402388	0.524620
O14	O	0.902640	-0.402381	0.404538
O15	O	1.114189	-0.311432	0.524163
O16	O	1.112981	-0.522487	0.314243
O17	O	1.022036	-0.522464	0.405190
C18	C	0.876009	-0.356896	0.358813
C19	C	0.793695	-0.356901	0.358814
C20	C	1.067381	-0.549348	0.359873
C21	C	1.067005	-0.631667	0.360335
C22	C	1.068463	-0.356907	0.552013
C23	C	1.068481	-0.356899	0.634327
C24	C	0.494604	-0.356947	0.358876
C25	C	0.526208	-0.299430	0.301622
C26	C	0.611825	-0.299584	0.301379
C27	C	0.642987	-0.356923	0.358845
C28	C	0.611488	-0.434936	0.337946
C29	C	0.525844	-0.434617	0.337548
C30	C	0.526315	-0.337129	0.437168
C31	C	0.611975	-0.335392	0.436730
C32	C	0.726846	-0.356915	0.358829
C33	C	0.410744	-0.356961	0.358891
C34	C	1.261581	-0.356957	0.358891
C35	C	1.343895	-0.356970	0.358908
C36	C	1.069482	-0.163752	0.357842
C37	C	1.069935	-0.081433	0.357411
C38	C	1.067987	0.217636	0.359355
C39	C	1.125240	0.186305	0.416589
C40	C	1.126022	0.100697	0.415865
C41	C	1.068953	0.069264	0.358391
C42	C	1.089925	0.101502	0.280565
C43	C	1.089782	0.187141	0.281454
C44	C	0.989827	0.184918	0.379059
C45	C	0.990798	0.099258	0.380226
C46	C	1.069498	-0.014589	0.357842
C47	C	1.067443	0.301489	0.359900
C48	C	1.068420	-0.356891	0.166441
C49	C	1.068546	-0.356690	0.084126
C50	C	1.068525	-0.356760	0.933418
C51	C	1.010781	-0.413806	0.902379
C52	C	1.010935	-0.414070	0.816762
C53	C	1.068502	-0.356829	0.785036
C54	C	1.146424	-0.378021	0.816257
C55	C	1.146102	-0.378396	0.901904
C56	C	1.049026	-0.278396	0.901415
C57	C	1.047288	-0.278849	0.815766
C58	C	1.068494	-0.356867	0.701176
C59	C	1.068538	-0.356724	1.017277
H60	H	0.633148	-0.241734	0.314431
H61	H	0.632215	-0.312684	0.243358
C62	C	0.640629	-0.387869	0.497403
N63	N	0.662209	-0.427402	0.543100
H64	H	1.086307	-0.234090	0.794138
C65	C	0.963603	0.212907	0.454795
N66	N	0.943859	0.233988	0.511843
C67	C	0.496999	-0.316916	0.223694
N68	N	0.474996	-0.330088	0.164999
C69	C	0.498669	-0.393722	0.494793
N70	N	0.477842	-0.436349	0.538191
H71	H	0.947189	0.205170	0.337357
H72	H	1.049900	0.207917	0.237337
H73	H	1.112871	0.078854	0.473580
H74	H	0.974963	0.078088	0.437516
C75	C	1.035708	0.074054	0.221006
N76	N	0.994870	0.053378	0.176147
C77	C	0.498798	-0.221036	0.319049
N78	N	0.478147	-0.161988	0.332176
H79	H	0.631637	-0.478938	0.378361
C80	C	0.932857	-0.396152	0.788249
N81	N	0.874045	-0.382658	0.766776
H82	H	1.182832	0.208654	0.403714
H83	H	1.184218	0.081047	0.402555
H84	H	1.146722	0.080921	0.263254
H85	H	0.952812	-0.400680	0.922893
C86	C	1.166994	0.215304	0.258832
N87	N	1.225153	0.236512	0.241794
C88	C	1.027962	-0.491801	0.931873
N89	N	1.040909	-0.550548	0.954084
C90	C	0.969837	-0.257241	0.788151
N91	N	0.911505	-0.240962	0.767336
C92	C	0.639827	-0.257830	0.458027
N93	N	0.660808	-0.199409	0.474064
H94	H	0.946157	0.077791	0.341301
H95	H	1.023777	-0.472156	0.796597
C96	C	1.107367	0.213008	0.495184
N97	N	1.093904	0.233127	0.554384
C98	C	1.168488	-0.455787	0.929324
N99	N	1.185346	-0.514081	0.949974
C100	C	1.206178	-0.324715	0.929632
N101	N	1.251431	-0.284288	0.950514
C102	C	1.206089	-0.323658	0.788471
N103	N	1.251028	-0.282712	0.767540
C104	C	1.169213	-0.454591	0.787713
N105	N	1.186373	-0.512266	0.766215
C106	C	1.105852	-0.220979	0.928491
N107	N	1.148657	-0.177738	0.948887
C108	C	0.498696	-0.457315	0.260241
N109	N	0.478252	-0.474408	0.202010
C110	C	0.497555	-0.494473	0.391454
N111	N	0.476251	-0.539560	0.432053
H112	H	0.632819	-0.452036	0.281344
H113	H	0.993213	-0.259090	0.922895
H114	H	0.505016	-0.281233	0.456251
