data_functionalizedCrystal
_audit_creation_method	'MofGen! by Chris Wilmer'
_symmetry_space_group_name_H-M	'P1'
_symmetry_Int_Tables_number	1
_symmetry_cell_setting	triclinic
loop_
_symmetry_equiv_pos_as_xyz
  x,y,z
_cell_length_a	12.759401
_cell_length_b	12.594516
_cell_length_c	12.759393
_cell_angle_alpha	90.030800
_cell_angle_beta	90.018496
_cell_angle_gamma	90.011977
loop_
_atom_site_label
_atom_site_type_symbol
_atom_site_fract_x
_atom_site_fract_y
_atom_site_fract_z
Zn1	Zn	1.606276	-0.423675	0.593987
Zn2	Zn	1.606180	-0.601694	0.418309
Zn3	Zn	1.430578	-0.423730	0.418326
Zn4	Zn	1.430576	-0.601612	0.593951
O5	O	1.518403	-0.512678	0.506143
O6	O	1.753285	-0.447300	0.570691
O7	O	1.582846	-0.578144	0.271291
O8	O	1.453927	-0.274777	0.441650
O9	O	1.753213	-0.578090	0.441621
O10	O	1.583011	-0.274736	0.570707
O11	O	1.453833	-0.447395	0.271303
O12	O	1.283557	-0.447316	0.441615
O13	O	1.453922	-0.577951	0.740977
O14	O	1.283555	-0.578005	0.570646
O15	O	1.583009	-0.447221	0.741003
O16	O	1.582844	-0.750629	0.441586
O17	O	1.453829	-0.750569	0.570629
C18	C	1.245435	-0.512658	0.506129
C19	C	1.128659	-0.512676	0.506148
C20	C	1.073823	-0.580834	0.573223
C21	C	0.964099	-0.580848	0.573234
C22	C	0.964056	-0.444541	0.439087
C23	C	1.073778	-0.444523	0.439081
C24	C	1.128704	-0.648987	0.640290
C25	C	1.073868	-0.717152	0.707369
C26	C	0.964144	-0.717165	0.707381
C27	C	0.909256	-0.649014	0.640313
C28	C	1.518354	-0.789219	0.506125
C29	C	1.518429	-0.907524	0.506152
C30	C	1.588682	-0.976771	0.436041
C31	C	1.614358	-1.047463	0.531933
C32	C	1.492885	-1.047632	0.410321
C33	C	1.544154	-0.976657	0.602095
C34	C	1.422637	-0.976820	0.480418
C35	C	1.448276	-1.047480	0.576377
C36	C	1.792436	-0.512698	0.506158
C37	C	1.909212	-0.512707	0.506165
C38	C	1.518476	-0.512570	0.780177
C39	C	1.518507	-0.512525	0.896954
C40	C	1.518480	-0.235057	0.506185
C41	C	1.518513	-0.116752	0.506202
C42	C	1.518390	-0.512708	0.233176
C43	C	1.518562	-0.512454	0.116400
C44	C	1.585732	-0.444447	0.951831
C45	C	1.585757	-0.444409	1.061555
C46	C	1.451330	-0.580534	1.061515
C47	C	1.451300	-0.580567	0.951793
C48	C	1.652939	-0.376405	0.896992
C49	C	1.720170	-0.308323	0.951870
C50	C	1.720195	-0.308284	1.061594
C51	C	1.652989	-0.376328	1.116440
H52	H	0.819911	-0.649021	0.640336
H53	H	1.695404	-1.078496	0.553728
H54	H	1.396544	-0.635985	0.907110
N55	N	1.315322	-0.935661	0.451508
H56	H	1.286653	-0.891505	0.511051
H57	H	1.266853	-0.997517	0.437695
N58	N	0.905001	-0.790686	0.779723
H59	H	0.827164	-0.780358	0.769555
H60	H	0.924211	-0.774214	0.854785
H61	H	1.118426	-0.389014	0.384471
N62	N	1.464213	-1.088932	0.302949
H63	H	1.517302	-1.063211	0.250032
H64	H	1.392323	-1.062122	0.283038
N65	N	1.667380	-0.935637	0.357570
H66	H	1.739754	-0.961333	0.377170
H67	H	1.666229	-0.855456	0.357666
N68	N	0.904860	-0.371058	0.366734
H69	H	0.827031	-0.381420	0.376908
H70	H	0.924021	-0.387550	0.291677
H71	H	1.565714	-0.945615	0.683229
N72	N	1.369610	-1.088333	0.655020
H73	H	1.389067	-1.062366	0.727362
H74	H	1.369654	-1.168519	0.654102
N75	N	1.652916	-0.376452	0.778649
H76	H	1.705691	-0.323020	0.752233
H77	H	1.580810	-0.356918	0.752298
N78	N	1.792663	-0.234946	0.892722
H79	H	1.782456	-0.245306	0.814886
H80	H	1.867690	-0.251533	0.911916
H81	H	1.774930	-0.252841	1.106272
H82	H	1.653003	-0.376279	1.205785
N83	N	1.378837	-0.653909	1.120665
H84	H	1.389054	-0.643555	1.198501
H85	H	1.395148	-0.729937	1.101475
H86	H	1.118566	-0.772632	0.761980
N87	N	1.247047	-0.648979	0.640270
H88	H	1.273496	-0.702495	0.692931
H89	H	1.273413	-0.575950	0.659674
