data_functionalizedCrystal
_audit_creation_method	'MofGen! by Chris Wilmer'
_symmetry_space_group_name_H-M	'P1'
_symmetry_Int_Tables_number	1
_symmetry_cell_setting	triclinic
loop_
_symmetry_equiv_pos_as_xyz
  x,y,z
_cell_length_a	10.686220
_cell_length_b	12.594516
_cell_length_c	12.594510
_cell_angle_alpha	90.032321
_cell_angle_beta	85.649221
_cell_angle_gamma	94.397503
loop_
_atom_site_label
_atom_site_type_symbol
_atom_site_fract_x
_atom_site_fract_y
_atom_site_fract_z
Zn1	Zn	1.929103	-0.298669	0.477173
Zn2	Zn	1.928974	-0.476706	0.299209
Zn3	Zn	1.718091	-0.312404	0.312842
Zn4	Zn	1.718069	-0.490277	0.490773
O5	O	1.823559	-0.394514	0.395000
O6	O	2.105659	-0.310858	0.442169
O7	O	1.900955	-0.454980	0.152075
O8	O	1.746145	-0.161632	0.334655
O9	O	2.105564	-0.441661	0.311420
O10	O	1.901174	-0.151541	0.455389
O11	O	1.746020	-0.334268	0.162091
O12	O	1.541515	-0.347427	0.347842
O13	O	1.746108	-0.464791	0.637912
O14	O	1.541499	-0.478110	0.478567
O15	O	1.901153	-0.324017	0.627920
O16	O	1.900934	-0.627456	0.324607
O17	O	1.745983	-0.637427	0.465348
C18	C	1.495723	-0.415733	0.416160
C19	C	1.355474	-0.424836	0.425238
C20	C	1.823476	-0.671061	0.394994
C21	C	1.823557	-0.789361	0.395020
C22	C	1.739271	-0.864076	0.471520
C23	C	1.708527	-0.936944	0.376384
C24	C	1.854415	-0.927285	0.490165
C25	C	1.792752	-0.860674	0.299837
C26	C	1.938693	-0.851005	0.413681
C27	C	1.907994	-0.923838	0.318475
C28	C	2.152675	-0.373214	0.373757
C29	C	2.292925	-0.364137	0.364704
C30	C	1.823642	-0.394386	0.672615
C31	C	1.823678	-0.394331	0.790918
C32	C	1.823677	-0.116886	0.395026
C33	C	1.823727	0.001423	0.395037
C34	C	1.823549	-0.394560	0.118459
C35	C	1.823758	-0.394299	0.000141
C36	C	1.908032	-0.317757	0.854736
C37	C	1.792950	-0.299160	0.932965
C38	C	1.938828	-0.412850	0.923484
C39	C	1.708534	-0.375688	0.867593
C40	C	1.854490	-0.489417	0.858101
C41	C	1.739328	-0.470862	0.936304
H42	H	1.346669	-0.305206	0.305933
H43	H	1.766609	-0.831481	0.219366
H44	H	1.979242	-0.252974	0.819102
C45	C	1.282863	-0.504460	0.504637
N46	N	1.228172	-0.564430	0.564440
C47	C	2.070340	-0.434033	0.956979
N48	N	2.169399	-0.449981	0.982203
H49	H	1.880446	-0.956613	0.570622
H50	H	1.667865	-0.837661	0.536134
C51	C	2.004381	-0.959272	0.230995
N52	N	2.076974	-0.985966	0.165102
H53	H	1.611237	-0.974468	0.360618
H54	H	2.035961	-0.813485	0.429495
C55	C	1.757786	-0.190512	0.977314
N56	N	1.731311	-0.108676	1.010717
C57	C	1.576986	-0.354375	0.834276
N58	N	1.477907	-0.338317	0.809178
H59	H	1.667944	-0.535610	0.971749
H60	H	1.880559	-0.569817	0.825258
