data_functionalizedCrystal
_audit_creation_method	'MofGen! by Chris Wilmer'
_symmetry_space_group_name_H-M	'P1'
_symmetry_Int_Tables_number	1
_symmetry_cell_setting	triclinic
loop_
_symmetry_equiv_pos_as_xyz
  x,y,z
_cell_length_a	23.532407
_cell_length_b	14.185569
_cell_length_c	23.532395
_cell_angle_alpha	76.928210
_cell_angle_beta	82.846228
_cell_angle_gamma	103.075328
loop_
_atom_site_label
_atom_site_type_symbol
_atom_site_fract_x
_atom_site_fract_y
_atom_site_fract_z
O1	O	0.742282	-0.083300	0.082102
O2	O	0.576414	-0.083330	0.092110
O3	O	0.664355	-0.083303	0.004172
O4	O	0.654341	-0.083328	0.170041
O5	O	0.690334	0.083540	-0.021803
O6	O	0.602392	0.083512	0.066136
O7	O	0.768261	0.083542	0.056128
Cu8	Cu	0.687699	0.098761	0.058760
Cu9	Cu	0.656976	-0.098549	0.089478
O10	O	0.680320	0.083515	0.144066
C11	C	0.568187	0.000087	0.078869
C12	C	0.504968	0.000076	0.078105
N13	N	0.709312	0.237539	0.037154
N14	N	0.635368	-0.237327	0.111080
C15	C	0.105869	0.000115	0.125332
C16	C	0.046469	0.000121	0.124620
O17	O	0.009728	0.000151	0.168401
N18	N	0.023846	0.000127	0.072342
C19	C	0.060628	0.000137	0.020772
O20	O	0.035931	0.000144	-0.023759
C21	C	0.120027	0.000138	0.021484
C22	C	0.142645	0.000122	0.073767
C23	C	0.128487	0.000099	0.177611
C24	C	0.187882	0.000091	0.178323
C25	C	0.224658	0.000098	0.126757
C26	C	0.202040	0.000114	0.074479
C27	C	0.156808	0.000155	-0.030086
C28	C	0.216211	0.000157	-0.029370
C29	C	0.238829	0.000141	0.022912
C30	C	0.298211	0.000112	0.023626
N31	N	0.320834	0.000106	0.075904
C32	C	0.284058	0.000099	0.127469
C33	C	-0.064115	0.000137	0.019281
C34	C	-0.123514	0.000129	0.018570
C35	C	-0.137668	0.000114	0.122417
C36	C	-0.078269	0.000115	0.123129
C37	C	-0.041492	0.000131	0.071559
C38	C	0.408791	0.000081	0.128962
C39	C	0.468192	0.000069	0.129670
C40	C	0.482341	0.000089	0.025822
C41	C	0.422946	0.000096	0.025114
C42	C	0.386172	0.000095	0.076688
O43	O	0.334988	0.000087	-0.020133
O44	O	0.308765	0.000106	0.171992
C45	C	0.776488	0.000122	0.069370
C46	C	0.839706	0.000127	0.070135
C47	C	0.677091	0.000119	-0.030031
C48	C	0.676328	0.000121	-0.093249
C49	C	0.571869	0.605146	0.174533
C50	C	0.588244	0.710173	0.158171
C51	C	0.666132	0.710158	0.080330
C52	C	0.649761	0.605129	0.096684
C53	C	0.602630	0.552632	0.143787
C54	C	0.680522	0.552615	0.065938
C55	C	0.664155	0.447595	0.082293
C56	C	0.617026	0.395090	0.129394
C57	C	0.586262	0.447612	0.160142
C58	C	0.727656	0.605114	0.018838
C59	C	0.758417	0.552600	-0.011908
C60	C	0.742047	0.447578	0.004444
C61	C	0.694918	0.395073	0.051545
C62	C	0.772811	0.395056	-0.026303
C63	C	0.756443	0.290037	-0.009948
C64	C	0.678551	0.290054	0.067900
C65	C	0.667584	0.000091	0.178270
C66	C	0.668345	0.000082	0.241489
C67	C	0.657451	-0.090858	0.528895
C68	C	0.656738	-0.090860	0.469496
O69	O	0.644306	-0.168205	0.450816
N70	N	0.670546	0.000086	0.425630
C71	C	0.685062	0.091041	0.441167
O72	O	0.696741	0.168397	0.398401
C73	C	0.685772	0.091042	0.500566
C74	C	0.671969	0.000090	0.544429
C75	C	0.643649	-0.181803	0.572757
C76	C	0.644363	-0.181800	0.632152
C77	C	0.658881	-0.090852	0.647686
C78	C	0.672683	0.000093	0.603824
C79	C	0.700284	0.181996	0.516103
C80	C	0.700992	0.181990	0.575507
C81	C	0.687189	0.091037	0.619370
C82	C	0.687915	0.091044	0.678753
N83	N	0.674107	0.000097	0.722619
C84	C	0.659590	-0.090850	0.707085
C85	C	0.683571	0.091031	0.316426
C86	C	0.682866	0.091030	0.257027
C87	C	0.654540	-0.090871	0.285360
C88	C	0.655249	-0.090870	0.344759
C89	C	0.669763	0.000084	0.360291
C90	C	0.661092	-0.090837	0.831818
C91	C	0.661811	-0.090826	0.891217
C92	C	0.690133	0.091074	0.862880
C93	C	0.689418	0.091064	0.803485
C94	C	0.674894	0.000100	0.787958
O95	O	0.700339	0.168348	0.697477
O96	O	0.647906	-0.168194	0.749857
H97	H	0.486603	0.000055	0.172247
H98	H	0.098550	0.000097	0.219603
H99	H	0.533486	0.562401	0.212885
C100	C	0.588907	-0.245869	0.940296
C101	C	0.646621	-0.190822	0.939422
H102	H	0.579525	-0.307601	0.970053
H103	H	0.586416	-0.258852	0.902692
H104	H	0.561637	-0.208489	0.948745
H105	H	0.673891	-0.228200	0.930968
H106	H	0.649116	-0.177842	0.977034
H107	H	0.404527	0.000094	-0.017456
H108	H	0.644009	-0.164931	0.380470
C109	C	-0.098239	0.000102	0.225704
C110	C	-0.053408	0.000109	0.180597
H111	H	-0.082891	0.000106	0.261182
H112	H	-0.130171	-0.058078	0.232322
H113	H	-0.112052	0.058286	0.214200
H114	H	-0.039599	-0.058079	0.192099
H115	H	-0.021466	0.058295	0.173979
H116	H	0.711525	0.256059	0.480398
H117	H	0.633121	-0.255862	0.667862
C118	C	-0.143084	-0.085628	-0.056813
C119	C	-0.148371	0.000135	-0.038900
H120	H	-0.158425	-0.085615	-0.092296
H121	H	-0.164796	-0.143800	-0.026542
H122	H	-0.102443	-0.085620	-0.063760
H123	H	-0.189013	0.000123	-0.031949
H124	H	-0.126660	0.058322	-0.069179
H125	H	0.704509	0.752914	0.041980
H126	H	0.631824	-0.255867	0.560118
C127	C	0.555043	0.329492	0.256105
C128	C	0.534451	0.389890	0.211914
H129	H	0.523057	0.293853	0.288062
H130	H	0.585004	0.370455	0.270096
H131	H	0.571026	0.283196	0.240126
H132	H	0.518472	0.436192	0.227892
H133	H	0.504479	0.348924	0.197921
H134	H	-0.167622	0.000113	0.164404
H135	H	0.740983	0.690628	0.005526
C136	C	0.509595	0.699636	0.236757
C137	C	0.554421	0.767898	0.191965
H138	H	0.488713	0.735276	0.257615
H139	H	0.526798	0.658676	0.263506
H140	H	0.482869	0.658674	0.219525
H141	H	0.581150	0.808856	0.209197
H142	H	0.537218	0.808876	0.165212
H143	H	0.695392	0.165101	0.329066
C144	C	0.347152	0.085844	0.175075
C145	C	0.368376	0.000074	0.185654
H146	H	0.322203	0.085835	0.210076
H147	H	0.325173	0.085847	0.143848
H148	H	0.379686	0.144018	0.164136
H149	H	0.335841	-0.058100	0.196589
H150	H	0.390354	0.000061	0.216891
C151	C	0.233202	-0.085596	-0.104315
C152	C	0.256636	0.000165	-0.086057
H153	H	0.258160	-0.085595	-0.139308
H154	H	0.194595	-0.085581	-0.112220
H155	H	0.230967	-0.143776	-0.073802
H156	H	0.258867	0.058345	-0.116569
H157	H	0.295254	0.000158	-0.078155
C158	C	0.594886	-0.196389	0.788143
C159	C	0.645128	-0.190820	0.814751
H160	H	0.585031	-0.258115	0.777608
H161	H	0.603008	-0.142235	0.753521
H162	H	0.562542	-0.192611	0.815262
H163	H	0.677474	-0.194591	0.787630
H164	H	0.637009	-0.244990	0.849378
C165	C	-0.002467	-0.085632	-0.026816
C166	C	-0.023693	0.000135	-0.037407
H167	H	0.022488	-0.085628	-0.061812
H168	H	-0.034996	-0.143802	-0.015876
H169	H	0.019510	-0.085623	0.004418
H170	H	-0.045674	0.000122	-0.068638
H171	H	0.008841	0.058319	-0.048355
C172	C	0.789618	0.670705	-0.107872
C173	C	0.810219	0.610314	-0.063685
H174	H	0.821598	0.706329	-0.139839
H175	H	0.773646	0.717005	-0.091897
H176	H	0.759645	0.629731	-0.121853
H177	H	0.840190	0.651289	-0.049701
H178	H	0.826200	0.564009	-0.079662
C179	C	0.581210	-0.245927	0.297890
C180	C	0.638578	-0.190848	0.268281
H181	H	0.571359	-0.307647	0.287347
H182	H	0.553703	-0.208561	0.286862
H183	H	0.579664	-0.258941	0.339542
H184	H	0.640122	-0.177827	0.226629
H185	H	0.666091	-0.228222	0.279306
H186	H	0.138404	0.000169	-0.072660
H187	H	0.512294	0.000091	-0.016161
H188	H	0.640168	0.247308	0.106252
H189	H	0.811189	0.437814	-0.064651
C190	C	0.835074	0.300561	-0.088546
C191	C	0.790252	0.232305	-0.043747
H192	H	0.855944	0.264917	-0.109412
H193	H	0.861806	0.341513	-0.071322
H194	H	0.817865	0.341531	-0.115291
H195	H	0.807461	0.191339	-0.016999
H196	H	0.763515	0.191335	-0.060970
C197	C	0.665504	0.246078	0.863714
C198	C	0.706076	0.191037	0.879969
H199	H	0.675343	0.307792	0.874265
H200	H	0.626594	0.208680	0.883791
H201	H	0.667068	0.259104	0.822059
H202	H	0.704509	0.178005	0.921625
H203	H	0.744996	0.228443	0.859893
H204	H	0.603702	0.309576	0.142712
H205	H	0.206292	0.000078	0.220897
C206	C	0.710935	0.270829	0.235003
C207	C	0.698044	0.191008	0.208816
H208	H	0.720299	0.332552	0.205240
H209	H	0.743838	0.267048	0.254228
H210	H	0.677404	0.267027	0.263293
H211	H	0.731576	0.194805	0.180529
H212	H	0.665137	0.194790	0.189581
H213	H	0.712802	0.256057	0.588150
C214	C	0.656096	0.196582	0.726917
C215	C	0.704603	0.191032	0.755261
H216	H	0.665472	0.258296	0.697144
H217	H	0.622578	0.192815	0.755204
H218	H	0.647347	0.142407	0.709170
H219	H	0.713350	0.245203	0.773011
H220	H	0.738131	0.194809	0.726969
