data_functionalizedCrystal
_audit_creation_method	'MofGen! by Chris Wilmer'
_symmetry_space_group_name_H-M	'P1'
_symmetry_Int_Tables_number	1
_symmetry_cell_setting	triclinic
loop_
_symmetry_equiv_pos_as_xyz
  x,y,z
_cell_length_a	15.944551
_cell_length_b	14.519709
_cell_length_c	13.596369
_cell_angle_alpha	90.006778
_cell_angle_beta	89.998652
_cell_angle_gamma	96.410558
loop_
_atom_site_label
_atom_site_type_symbol
_atom_site_fract_x
_atom_site_fract_y
_atom_site_fract_z
O1	O	1.114698	-0.118943	-0.081691
O2	O	0.870170	-0.133607	-0.081716
O3	O	0.998917	0.007975	-0.081694
O4	O	0.985951	-0.260525	-0.081713
O5	O	0.998903	0.007982	0.081889
O6	O	0.870156	-0.133600	0.081867
O7	O	1.114684	-0.118936	0.081892
Zn8	Zn	0.992418	-0.126267	0.107852
Zn9	Zn	0.992436	-0.126276	-0.107676
O10	O	0.985937	-0.260518	0.081870
C11	C	0.838868	-0.132995	0.000073
C12	C	0.745619	-0.131170	0.000064
C13	C	0.998306	0.042337	0.000098
C14	C	0.996495	0.144715	0.000098
N15	N	0.992411	-0.126260	0.254944
C16	C	0.530629	-0.039048	0.000089
C17	C	0.469678	-0.081830	-0.080569
C18	C	0.574889	-0.127868	0.000075
C19	C	0.469686	-0.081844	0.080711
C20	C	0.409971	-0.124672	0.000091
C21	C	0.515166	-0.170674	-0.080649
C22	C	0.515180	-0.170676	0.080703
C23	C	0.454247	-0.213522	0.000025
C24	C	0.669894	-0.129706	0.000065
C25	C	0.314967	-0.122840	0.000094
C26	C	1.145986	-0.119548	0.000101
C27	C	1.239235	-0.121373	0.000104
C28	C	0.986548	-0.294880	0.000076
C29	C	0.988359	-0.397258	0.000070
C30	C	0.989829	0.519599	0.000072
C31	C	0.991680	0.415295	0.000080
C32	C	0.993162	0.332161	0.000086
C33	C	0.995013	0.227849	0.000092
C34	C	0.992429	-0.126280	0.656235
C35	C	0.992422	-0.126277	0.544583
C36	C	0.992420	-0.126271	0.455593
C37	C	0.992412	-0.126267	0.343934
N38	N	0.992442	-0.126279	0.745233
H39	H	0.449519	-0.044266	-0.148754
N40	N	0.540295	-0.217757	-0.166304
N41	N	0.486105	-0.249931	-0.227302
H42	H	0.503853	-0.283180	-0.287797
H43	H	0.421196	-0.287311	-0.000025
N44	N	0.540492	-0.217756	0.166251
N45	N	0.526167	-0.187480	0.249940
H46	H	0.544044	-0.220724	0.310367
N47	N	0.444414	-0.034684	0.166245
N48	N	0.472066	0.048206	0.180599
H49	H	0.454220	0.081520	0.241003
H50	H	0.563855	0.034665	-0.000005
