data_functionalizedCrystal
_audit_creation_method	'MofGen! by Chris Wilmer'
_symmetry_space_group_name_H-M	'P1'
_symmetry_Int_Tables_number	1
_symmetry_cell_setting	triclinic
loop_
_symmetry_equiv_pos_as_xyz
  x,y,z
_cell_length_a	12.759401
_cell_length_b	11.169416
_cell_length_c	12.759393
_cell_angle_alpha	90.028644
_cell_angle_beta	90.018496
_cell_angle_gamma	90.010501
loop_
_atom_site_label
_atom_site_type_symbol
_atom_site_fract_x
_atom_site_fract_y
_atom_site_fract_z
Zn1	Zn	1.606287	-0.477731	0.594003
Zn2	Zn	1.606195	-0.678464	0.418332
Zn3	Zn	1.430589	-0.477794	0.418342
Zn4	Zn	1.430591	-0.678372	0.593973
O5	O	1.518416	-0.578090	0.506162
O6	O	1.753296	-0.504371	0.570708
O7	O	1.582861	-0.651910	0.271312
O8	O	1.453934	-0.309836	0.441660
O9	O	1.753228	-0.651849	0.441643
O10	O	1.583018	-0.309790	0.570718
O11	O	1.453844	-0.504478	0.271320
O12	O	1.283568	-0.504389	0.441632
O13	O	1.453937	-0.651691	0.740998
O14	O	1.283570	-0.651752	0.570667
O15	O	1.583020	-0.504282	0.741020
O16	O	1.582863	-0.846401	0.441614
O17	O	1.453848	-0.846333	0.570657
C18	C	1.245448	-0.578068	0.506148
C19	C	1.128672	-0.578088	0.506167
C20	C	1.073838	-0.654943	0.573245
C21	C	0.964114	-0.654958	0.573256
C22	C	0.964067	-0.501260	0.439103
C23	C	1.073789	-0.501239	0.439098
C24	C	1.073864	-0.743683	0.650694
C25	C	0.964140	-0.743698	0.650705
C26	C	1.518374	-0.889915	0.506154
C27	C	1.518452	-1.023315	0.506186
C28	C	1.792449	-0.578113	0.506177
C29	C	1.909226	-0.578123	0.506184
C30	C	1.518489	-0.577969	0.780196
C31	C	1.518521	-0.577917	0.896973
C32	C	1.518486	-0.265048	0.506193
C33	C	1.518516	-0.131648	0.506207
C34	C	1.518403	-0.578124	0.233195
C35	C	1.518575	-0.577838	0.116419
C36	C	1.585743	-0.501154	0.951848
C37	C	1.585768	-0.501111	1.061572
C38	C	1.451345	-0.654605	1.061536
C39	C	1.451315	-0.654641	0.951814
C40	C	1.663355	-0.412539	0.951869
C41	C	1.663380	-0.412496	1.061593
H42	H	0.934351	-0.836628	0.628777
C43	C	1.377350	-0.739072	0.891464
C44	C	1.257925	-0.729232	0.906569
C45	C	1.183949	-0.813665	0.846225
C46	C	1.229399	-0.907939	0.770777
C47	C	1.348830	-0.917784	0.755668
C48	C	1.422805	-0.833350	0.816012
H49	H	1.224275	-0.659441	0.962424
H50	H	1.095538	-0.806377	0.857410
H51	H	1.174638	-0.970442	0.726107
H52	H	1.382479	-0.987574	0.699814
H53	H	1.511216	-0.840638	0.804827
H54	H	1.107884	-0.831932	0.621413
C55	C	0.918196	-0.698878	0.755195
C56	C	0.991873	-0.660456	0.844720
C57	C	0.945927	-0.615633	0.949205
C58	C	0.826304	-0.609231	0.964164
C59	C	0.752620	-0.647654	0.874636
C60	C	0.798566	-0.692478	0.770152
H61	H	1.080431	-0.665194	0.833649
H62	H	1.000473	-0.587189	1.015479
H63	H	0.792292	-0.576050	1.041510
H64	H	0.664062	-0.642916	0.885708
H65	H	0.744020	-0.720921	0.703877
C66	C	1.624063	-0.293187	1.107596
C67	C	1.590345	-0.190997	1.033971
C68	C	1.551028	-0.071693	1.079976
C69	C	1.545428	-0.054579	1.199607
C70	C	1.579147	-0.156772	1.273240
C71	C	1.618464	-0.276076	1.227235
H72	H	1.594489	-0.203663	0.945406
H73	H	1.526067	0.003957	1.025468
H74	H	1.516323	0.033737	1.233663
H75	H	1.575003	-0.144106	1.361805
H76	H	1.643425	-0.351726	1.281743
H77	H	1.396626	-0.717067	1.106201
C78	C	1.633931	-0.286983	0.911654
C79	C	1.702166	-0.178218	0.940833
C80	C	1.672741	-0.052666	0.900618
C81	C	1.575082	-0.035879	0.831223
C82	C	1.506842	-0.144647	0.802040
C83	C	1.536266	-0.270199	0.842255
H84	H	1.774465	-0.190643	0.992207
H85	H	1.723258	0.027850	0.922222
H86	H	1.553301	0.057062	0.801453
H87	H	1.434543	-0.132222	0.750666
H88	H	1.485749	-0.350715	0.820652
C89	C	0.903692	-0.416735	0.365327
C90	C	0.828282	-0.322585	0.411000
C91	C	0.767909	-0.238060	0.337221
C92	C	0.782945	-0.247685	0.217769
C93	C	0.858358	-0.341838	0.172089
C94	C	0.918732	-0.426364	0.245868
H95	H	0.817148	-0.315457	0.499431
H96	H	0.712083	-0.168361	0.371036
H97	H	0.738253	-0.185114	0.163153
H98	H	0.869492	-0.348966	0.083658
H99	H	0.974557	-0.496062	0.212053
C100	C	1.134100	-0.416697	0.365307
C101	C	1.119016	-0.280273	0.374079
C102	C	1.179323	-0.195729	0.300279
C103	C	1.254715	-0.247609	0.217707
C104	C	1.269803	-0.384039	0.208932
C105	C	1.209495	-0.468583	0.282731
H106	H	1.063203	-0.241863	0.435207
H107	H	1.168154	-0.094735	0.306776
H108	H	1.299359	-0.185024	0.163076
H109	H	1.325616	-0.422450	0.147804
H110	H	1.220665	-0.569578	0.276234
H111	H	1.103671	-0.718894	0.732099
H112	H	1.740629	-0.445860	0.917835
H113	H	1.744752	-0.437390	1.091373
