data_functionalizedCrystal
_audit_creation_method	'MofGen! by Chris Wilmer'
_symmetry_space_group_name_H-M	'P1'
_symmetry_Int_Tables_number	1
_symmetry_cell_setting	triclinic
loop_
_symmetry_equiv_pos_as_xyz
  x,y,z
_cell_length_a	14.853567
_cell_length_b	14.044220
_cell_length_c	13.930277
_cell_angle_alpha	89.994760
_cell_angle_beta	89.995755
_cell_angle_gamma	88.411904
loop_
_atom_site_label
_atom_site_type_symbol
_atom_site_fract_x
_atom_site_fract_y
_atom_site_fract_z
O1	O	1.206174	0.123767	-0.079767
O2	O	0.944883	0.138510	-0.079784
O3	O	1.071607	-0.006851	-0.079766
O4	O	1.079450	0.269128	-0.079785
O5	O	1.071587	-0.006854	0.079896
O6	O	0.944863	0.138507	0.079878
O7	O	1.206155	0.123764	0.079895
Zn8	Zn	1.075506	0.131135	0.105236
Zn9	Zn	1.075532	0.131139	-0.105125
O10	O	1.079431	0.269125	0.079877
C11	C	0.911231	0.137841	0.000045
C12	C	0.810989	0.135839	0.000039
C13	C	1.068163	-0.042172	0.000065
C14	C	1.057921	-0.147411	0.000066
C15	C	0.390944	0.041029	0.000067
C16	C	0.383345	0.213721	0.000054
C17	C	0.477528	0.215604	0.000051
C18	C	0.528423	0.130197	0.000054
C19	C	0.485135	0.042908	0.000061
C20	C	0.520822	0.302891	0.000035
C21	C	0.615011	0.304777	0.000031
C22	C	0.665908	0.219369	0.000041
C23	C	0.622615	0.132077	0.000048
C24	C	0.673510	0.046670	0.000052
C25	C	0.630218	-0.040623	0.000066
C26	C	0.536032	-0.042499	0.000071
C27	C	0.760094	0.221246	0.000036
C28	C	0.767702	0.048550	0.000046
C29	C	1.039197	-0.340097	0.000051
C30	C	1.111836	-0.397635	0.000052
C31	C	1.101418	-0.504852	0.000044
C32	C	1.049614	-0.232870	0.000059
C33	C	1.239806	0.124433	0.000064
C34	C	1.340048	0.126435	0.000064
C35	C	1.082874	0.304446	0.000044
C36	C	1.093116	0.409685	0.000037
N37	N	1.075495	0.131132	0.248802
N38	N	1.075549	0.131135	-0.248691
C39	C	1.019414	0.195480	0.701064
C40	C	1.131673	0.066791	0.701049
C41	C	1.131663	0.066788	0.600553
C42	C	1.075527	0.131133	0.550308
C43	C	1.019403	0.195481	0.600559
C44	C	1.187792	0.002448	0.550295
C45	C	1.187784	0.002443	0.449793
C46	C	1.131644	0.066784	0.399546
C47	C	1.075517	0.131134	0.449803
C48	C	1.019382	0.195479	0.399558
C49	C	0.963249	0.259825	0.449813
C50	C	0.963263	0.259822	0.550312
C51	C	1.131630	0.066787	0.299047
C52	C	1.019371	0.195480	0.299053
H53	H	0.809134	-0.021000	0.000052
H54	H	0.479377	0.372424	0.000023
H55	H	0.671670	-0.110161	0.000062
C56	C	1.253236	-0.386058	0.082154
C57	C	1.206354	-0.355440	0.000073
H58	H	1.311586	-0.360009	0.082164
H59	H	1.221395	-0.365312	0.137816
H60	H	1.258535	-0.453621	0.082137
H61	H	1.201049	-0.287877	0.000093
H62	H	1.238203	-0.376181	-0.055604
H63	H	0.355691	-0.030044	0.000082
H64	H	0.341900	0.283255	0.000044
C65	C	1.252695	0.046493	0.186037
C66	C	1.193351	-0.003921	0.243822
H67	H	1.290810	0.002840	0.151953
H68	H	1.219258	0.084787	0.141722
H69	H	1.288275	0.086032	0.225250
H70	H	1.157766	-0.043455	0.204608
H71	H	1.226791	-0.042232	0.288141
C72	C	0.897788	-0.351693	-0.082030
C73	C	0.944688	-0.382297	0.000045
H74	H	0.839446	-0.377761	-0.082032
H75	H	0.892476	-0.284140	-0.082019
H76	H	0.929631	-0.372440	-0.137702
H77	H	0.912849	-0.361544	0.055718
H78	H	0.949997	-0.449864	0.000043
H79	H	1.177382	0.014408	0.741962
H80	H	0.917547	0.312219	0.408892
H81	H	0.973655	0.247874	0.258150
H82	H	0.973709	0.247867	0.741984
C83	C	0.395027	-0.122056	0.000071
C84	C	0.488445	-0.138446	0.000076
H85	H	0.365648	-0.181290	0.000066
H86	H	0.378033	-0.086895	0.055744
H87	H	0.378045	-0.086881	-0.055611
H88	H	0.505427	-0.173615	0.055763
H89	H	0.505446	-0.173621	-0.055603
C90	C	0.913449	0.316971	0.704375
C91	C	0.901576	0.330555	0.605554
H92	H	0.875372	0.360645	0.738479
H93	H	0.898569	0.253692	0.720851
H94	H	0.974458	0.327380	0.720815
H95	H	0.840568	0.320139	0.589113
H96	H	0.916449	0.393849	0.589071
C97	C	0.598028	0.475292	0.000029
C98	C	0.662592	0.400727	0.000028
H99	H	0.627406	0.534526	0.000036
H100	H	0.561458	0.470971	-0.055647
H101	H	0.561443	0.470954	0.055709
H102	H	0.699174	0.405060	-0.055656
H103	H	0.699178	0.405049	0.055709
H104	H	0.795338	0.292318	0.000026
C105	C	1.237641	-0.054693	0.704347
C106	C	1.249493	-0.068276	0.605524
H107	H	1.275730	-0.098362	0.738445
H108	H	1.252518	0.008588	0.720804
H109	H	1.176637	-0.065108	0.720815
H110	H	1.310496	-0.057854	0.589055
H111	H	1.234622	-0.131572	0.589060
C112	C	1.298746	-0.124770	0.459884
C113	C	1.249474	-0.068293	0.394558
H114	H	1.336824	-0.168444	0.425781
H115	H	1.334356	-0.085246	0.499064
H116	H	1.258469	-0.158935	0.499101
H117	H	1.289752	-0.034122	0.355345
H118	H	1.213861	-0.107822	0.355361
