data_functionalizedCrystal
_audit_creation_method	'MofGen! by Chris Wilmer'
_symmetry_space_group_name_H-M	'P1'
_symmetry_Int_Tables_number	1
_symmetry_cell_setting	triclinic
loop_
_symmetry_equiv_pos_as_xyz
  x,y,z
_cell_length_a	15.455313
_cell_length_b	16.974867
_cell_length_c	16.992695
_cell_angle_alpha	87.022690
_cell_angle_beta	87.152573
_cell_angle_gamma	89.031804
loop_
_atom_site_label
_atom_site_type_symbol
_atom_site_fract_x
_atom_site_fract_y
_atom_site_fract_z
O1	O	0.001865	-1.055364	-0.099981
O2	O	0.501865	-0.555364	0.400019
O3	O	-0.014171	-0.826687	-0.111954
O4	O	0.485829	-0.326687	0.388046
O5	O	-0.006210	-0.940108	0.008177
O6	O	0.493790	-0.440108	0.508177
O7	O	-0.006095	-0.941942	-0.220112
O8	O	0.493905	-0.441942	0.279888
O9	O	0.137597	-0.933620	0.001335
O10	O	0.637597	-0.433620	0.501335
O11	O	0.129636	-0.820199	-0.118795
O12	O	0.629636	-0.320199	0.381205
O13	O	0.145672	-1.048876	-0.106822
O14	O	0.645672	-0.548876	0.393178
Cu15	Cu	0.150785	-0.933945	-0.113434
Cu16	Cu	0.650785	-0.433945	0.386566
Cu17	Cu	-0.019284	-0.941617	-0.105343
Cu18	Cu	0.480716	-0.441617	0.394657
O19	O	0.137711	-0.935454	-0.226953
O20	O	0.637711	-0.435454	0.273047
C21	C	0.055672	-0.794047	-0.114794
C22	C	0.555672	-0.294047	0.385206
C23	C	0.049530	-0.706456	-0.113052
C24	C	0.549530	-0.206456	0.386948
N25	N	0.270402	-0.928554	-0.119124
N26	N	0.770402	-0.428554	0.380876
C27	C	0.006483	-0.213798	-0.102822
C28	C	0.506483	0.286202	0.397178
C29	C	0.012266	-0.296098	-0.104458
C30	C	0.512266	0.203902	0.395542
C31	C	0.093547	-0.333704	-0.109012
C32	C	0.593547	0.166296	0.390988
C33	C	0.169050	-0.289005	-0.111921
C34	C	0.669050	0.210995	0.388079
C35	C	0.163267	-0.206706	-0.110278
C36	C	0.663267	0.293294	0.389722
C37	C	0.119250	-0.579459	-0.114319
C38	C	0.619250	-0.079459	0.385681
C39	C	0.125027	-0.661763	-0.115963
C40	C	0.625027	-0.161763	0.384037
C41	C	-0.031758	-0.668851	-0.108500
C42	C	0.468242	-0.168851	0.391500
C43	C	-0.037534	-0.586551	-0.106862
C44	C	0.462466	-0.086551	0.393138
C45	C	0.037969	-0.541859	-0.109767
C46	C	0.537969	-0.041859	0.390233
N47	N	0.099460	-0.417827	-0.110687
N48	N	0.599460	0.082173	0.389313
N49	N	0.032056	-0.457738	-0.108086
N50	N	0.532056	0.042262	0.391914
N51	N	-0.138900	-0.947014	-0.099647
N52	N	0.361100	-0.447014	0.400353
C53	C	0.319179	-0.976759	-0.068107
C54	C	0.819179	-0.476759	0.431893
C55	C	0.409701	-0.972690	-0.072417
C56	C	0.909701	-0.472690	0.427583
C57	C	0.451445	-0.920420	-0.127749
C58	C	0.951445	-0.420420	0.372251
C59	C	0.402661	-0.872210	-0.178768
C60	C	0.902661	-0.372210	0.321232
C61	C	0.312140	-0.876275	-0.174453
C62	C	0.812140	-0.376275	0.325547
C63	C	0.721795	-0.902870	-0.146351
C64	C	1.221795	-0.402870	0.353649
C65	C	0.812322	-0.898810	-0.150664
C66	C	1.312322	-0.398810	0.349336
C67	C	0.819357	-0.999289	-0.044311
C68	C	1.319357	-0.499289	0.455689
C69	C	0.728834	-1.003353	-0.040005
C70	C	1.228834	-0.503353	0.459995
C71	C	0.680058	-0.955140	-0.091021
C72	C	1.180058	-0.455140	0.408979
N73	N	0.543973	-0.916261	-0.132158
N74	N	1.043973	-0.416261	0.367842
N75	N	0.587531	-0.959296	-0.086608
N76	N	1.087531	-0.459296	0.413392
C77	C	0.065528	-0.934506	0.033974
C78	C	0.565528	-0.434506	0.533974
C79	C	0.065034	-0.927468	0.121034
C80	C	0.565034	-0.427468	0.621034
C81	C	0.075832	-0.081515	-0.103985
C82	C	0.575832	0.418485	0.396015
C83	C	0.081981	-0.169105	-0.105733
C84	C	0.581981	0.330895	0.394267
C85	C	0.065972	-0.941057	-0.252750
C86	C	0.565972	-0.441057	0.247250
C87	C	0.066460	-0.948094	-0.339810
C88	C	0.566460	-0.448094	0.160190
C89	C	0.069796	-0.995368	0.171123
C90	C	0.569796	-0.495368	0.671123
C91	C	0.069324	-0.988752	0.252925
C92	C	0.569324	-0.488752	0.752925
C93	C	0.064096	-0.914234	0.284635
C94	C	0.564096	-0.414234	0.784635
C95	C	0.059330	-0.846329	0.234539
C96	C	0.559330	-0.346329	0.734539
C97	C	0.059797	-0.852947	0.152739
C98	C	0.559797	-0.352947	0.652739
C99	C	0.062160	-0.886807	0.528294
C100	C	0.562160	-0.386807	1.028294
C101	C	0.061697	-0.880194	0.610100
C102	C	0.561697	-0.380194	1.110100
C103	C	0.071689	-1.022618	0.628481
C104	C	0.571689	-0.522618	1.128481
C105	C	0.072160	-1.029229	0.546678
C106	C	0.572160	-0.529229	1.046678
C107	C	0.067390	-0.961324	0.496590
C108	C	0.567390	-0.461324	0.996590
N109	N	0.063616	-0.907469	0.368249
N110	N	0.563616	-0.407469	0.868249
N111	N	0.067864	-0.968090	0.412978
N112	N	0.567864	-0.468090	0.912978
H113	H	-0.059705	-0.183186	-0.099119
H114	H	0.440295	0.316814	0.400881
H115	H	0.058277	-0.831514	0.487521
H116	H	0.558277	-0.331514	0.987521
H117	H	0.285198	-1.019326	-0.023053
H118	H	0.785198	-0.519326	0.476947
C119	C	0.463351	-1.025699	-0.016275
C120	C	0.963351	-0.525699	0.483725
N121	N	0.503759	-1.065620	0.026021
N122	N	1.003759	-0.565620	0.526021
H123	H	0.436654	-0.829646	-0.223818
H124	H	0.936654	-0.329646	0.276182
C125	C	0.054560	-0.778251	0.097640
C126	C	0.554560	-0.278251	0.597640
N127	N	0.050613	-0.721987	0.056140
N128	N	0.550613	-0.221987	0.556140
C129	C	0.053586	-0.764358	0.269423
C130	C	0.553586	-0.264358	0.769423
N131	N	0.049266	-0.702616	0.295696
N132	N	0.549266	-0.202616	0.795696
C133	C	0.075548	-1.077344	0.136251
C134	C	0.575548	-0.577344	0.636251
N135	N	0.079876	-1.139091	0.109987
N136	N	0.579876	-0.639091	0.609987
C137	C	0.258486	-0.823253	-0.230582
C138	C	0.758486	-0.323253	0.269418
N139	N	0.218074	-0.783316	-0.272861
N140	N	0.718074	-0.283316	0.227139
H141	H	-0.093228	-0.705248	-0.106134
H142	H	0.406772	-0.205248	0.393866
H143	H	-0.103722	-0.555939	-0.103153
H144	H	0.396278	-0.055939	0.396847
C145	C	0.214447	-0.703127	-0.120968
C146	C	0.714447	-0.203127	0.379032
N147	N	0.281794	-0.734283	-0.124737
N148	N	0.781794	-0.234283	0.375263
H149	H	0.057454	-0.819509	0.635914
H150	H	0.557454	-0.319509	1.135914
H151	H	0.682088	-0.863615	-0.187892
H152	H	1.182088	-0.363615	0.312108
C153	C	-0.070788	-0.345258	-0.101246
C154	C	0.429212	0.154742	0.398754
N155	N	-0.133349	-0.382285	-0.098821
N156	N	0.366651	0.117715	0.401179
H157	H	0.694848	-1.045915	0.005051
H158	H	1.194848	-0.545915	0.505051
H159	H	0.859078	-1.038540	-0.002775
H160	H	1.359078	-0.538540	0.497225
C161	C	0.074577	-1.063448	0.308020
C162	C	0.574577	-0.563448	0.808020
N163	N	0.078538	-1.119712	0.349517
N164	N	0.578538	-0.619712	0.849517
C165	C	0.858238	-0.841304	-0.211533
C166	C	1.358238	-0.341304	0.288467
N167	N	0.892822	-0.797993	-0.257378
N168	N	1.392822	-0.297993	0.242622
C169	C	0.202306	-0.530307	-0.117538
C170	C	0.702306	-0.030307	0.382462
N171	N	0.264869	-0.493283	-0.119971
N172	N	0.764869	0.006717	0.380029
C173	C	0.077913	-1.111204	0.511804
C174	C	0.577913	-0.611204	1.011804
N175	N	0.082249	-1.172949	0.485537
N176	N	0.582249	-0.672949	0.985537
H177	H	0.075571	-1.077902	0.669271
H178	H	0.575571	-0.577902	1.169271
C179	C	0.258461	-0.330371	-0.116962
C180	C	0.758461	0.169629	0.383038
N181	N	0.325806	-0.361526	-0.120775
N182	N	0.825806	0.138474	0.379225
H183	H	0.224745	-0.170317	-0.112657
H184	H	0.724745	0.329683	0.387343
