data_functionalizedCrystal
_audit_creation_method	'MofGen! by Chris Wilmer'
_symmetry_space_group_name_H-M	'P1'
_symmetry_Int_Tables_number	1
_symmetry_cell_setting	triclinic
loop_
_symmetry_equiv_pos_as_xyz
  x,y,z
_cell_length_a	9.065218
_cell_length_b	9.198806
_cell_length_c	9.065218
_cell_angle_alpha	90.001601
_cell_angle_beta	85.015885
_cell_angle_gamma	90.004041
loop_
_atom_site_label
_atom_site_type_symbol
_atom_site_fract_x
_atom_site_fract_y
_atom_site_fract_z
O1	O	1.960401	0.120890	0.216354
O2	O	2.460401	0.620890	0.716354
O3	O	1.531116	0.120891	0.234101
O4	O	2.031116	0.620891	0.734101
O5	O	1.754631	0.120887	0.010585
O6	O	2.254631	0.620887	0.510585
O7	O	1.736885	0.120893	0.439870
O8	O	2.236885	0.620893	0.939870
O9	O	1.754614	-0.120898	0.010583
O10	O	2.254614	0.379102	0.510583
O11	O	1.531098	-0.120894	0.234099
O12	O	2.031098	0.379106	0.734099
O13	O	1.960383	-0.120895	0.216352
O14	O	2.460383	0.379105	0.716352
Cu15	Cu	1.745739	-0.142971	0.225225
Cu16	Cu	2.245739	0.357029	0.725225
Cu17	Cu	1.745760	0.142967	0.225228
Cu18	Cu	2.245760	0.642967	0.725228
O19	O	1.736867	-0.120892	0.439868
O20	O	2.236867	0.379108	0.939868
C21	C	1.476120	-0.000001	0.232394
C22	C	1.976120	0.499999	0.732394
C23	C	1.312277	-0.000000	0.227294
C24	C	1.812277	0.500000	0.727294
N25	N	1.745735	-0.344085	0.225223
N26	N	2.245735	0.155915	0.725223
C27	C	1.832180	-0.416282	0.311194
C28	C	2.332180	0.083718	0.811194
C29	C	1.832203	-0.583695	0.311192
C30	C	2.332203	-0.083695	0.811192
C31	C	2.015378	0.000000	0.218059
C32	C	2.515378	0.500000	0.718059
C33	C	2.179221	0.000009	0.223158
C34	C	2.679221	0.500009	0.723158
C35	C	1.752917	-0.000003	-0.044403
C36	C	2.252917	0.499997	0.455597
C37	C	1.747817	0.000004	-0.208245
C38	C	2.247817	0.500004	0.291755
N39	N	1.745776	0.344081	0.225218
N40	N	2.245776	0.844081	0.725218
C41	C	1.738582	0.000002	0.494855
C42	C	2.238582	0.500002	0.994855
C43	C	1.743681	0.000004	0.658698
C44	C	2.243681	0.500004	1.158698
H45	H	1.906179	-0.354153	0.384792
H46	H	2.406179	0.145847	0.884792
H47	H	1.671755	-0.593840	0.151619
H48	H	2.171755	-0.093840	0.651619
O49	O	1.647717	-0.426345	0.127701
O50	O	2.147717	0.073655	0.627701
H51	H	1.569588	-0.495701	0.197584
H52	H	2.069588	0.004299	0.697584
H53	H	1.906204	-0.645782	0.384803
H54	H	2.406204	-0.145782	0.884803
