data_functionalizedCrystal
_audit_creation_method	'MofGen! by Chris Wilmer'
_symmetry_space_group_name_H-M	'P1'
_symmetry_Int_Tables_number	1
_symmetry_cell_setting	triclinic
loop_
_symmetry_equiv_pos_as_xyz
  x,y,z
_cell_length_a	16.992694
_cell_length_b	6.394989
_cell_length_c	16.053802
_cell_angle_alpha	87.356563
_cell_angle_beta	87.249047
_cell_angle_gamma	91.417033
loop_
_atom_site_label
_atom_site_type_symbol
_atom_site_fract_x
_atom_site_fract_y
_atom_site_fract_z
O1	O	1.047996	-0.435392	-0.069315
O2	O	0.819664	-0.430522	-0.069340
O3	O	0.937071	-0.129434	-0.069328
O4	O	0.930589	-0.736480	-0.069327
O5	O	0.930608	-0.145934	0.069530
O6	O	0.813201	-0.447022	0.069518
O7	O	1.041533	-0.451892	0.069543
Zn8	Zn	0.926341	-0.452077	0.091577
Zn9	Zn	0.934856	-0.430337	-0.091374
O10	O	0.924126	-0.752980	0.069531
C11	C	0.787158	-0.432511	0.000086
C12	C	0.699930	-0.413828	0.000076
C13	C	0.651471	-0.594076	0.000077
C14	C	0.569510	-0.576512	0.000089
C15	C	0.536010	-0.378698	0.000093
C16	C	0.584476	-0.198436	0.000095
C17	C	0.666435	-0.216003	0.000089
C18	C	0.291692	-0.305891	0.000116
C19	C	0.209727	-0.288337	0.000119
C20	C	0.194766	-0.666415	0.000114
C21	C	0.276728	-0.683964	0.000103
C22	C	0.325186	-0.503703	0.000109
N23	N	0.452234	-0.360739	0.000102
N24	N	0.408961	-0.521664	0.000106
C25	C	1.074039	-0.449903	0.000115
C26	C	1.161268	-0.468585	0.000119
C27	C	0.932558	-0.059648	0.000098
C28	C	0.928641	0.177241	0.000097
N29	N	0.920535	-0.466913	0.216437
N30	N	0.940668	-0.415486	-0.216234
C31	C	0.970511	-0.338851	0.260136
C32	C	0.966457	-0.349250	0.347542
C33	C	0.912431	-0.487723	0.391248
C34	C	0.862449	-0.615790	0.347543
C35	C	0.866500	-0.605379	0.260138
C36	C	0.894737	-0.533141	0.652656
C37	C	0.890692	-0.543548	0.740067
C38	C	0.994700	-0.277004	0.740060
C39	C	0.998749	-0.266614	0.652654
C40	C	0.948764	-0.394673	0.608956
N41	N	0.908288	-0.498361	0.480591
N42	N	0.952904	-0.384023	0.519615
H43	H	0.182455	-0.127244	0.000122
O44	O	0.522480	-0.751654	-0.000062
C45	C	0.541307	-0.862408	-0.071973
H46	H	0.570542	-0.750640	-0.122238
H47	H	0.485135	-0.933743	-0.096110
H48	H	0.583466	-0.992397	-0.055723
H49	H	0.155303	-0.813173	0.000110
O50	O	0.309136	-0.876288	0.000140
C51	C	0.248789	-1.031617	0.000123
H52	H	0.191339	-0.966806	0.026416
H53	H	0.265368	-1.173692	0.040436
H54	H	0.240863	-1.079956	-0.066494
O55	O	0.846267	-0.657861	0.610258
C56	C	0.860080	-0.869660	0.631628
H57	H	0.921860	-0.884122	0.655638
H58	H	0.854740	-0.966313	0.574149
H59	H	0.814811	-0.929813	0.682374
H60	H	0.331137	-0.159108	0.000121
H61	H	1.007151	-0.244971	0.383122
O62	O	1.022910	-0.204001	0.217740
C63	C	1.007099	0.002681	0.239154
H64	H	0.943091	0.011377	0.263176
H65	H	1.017765	0.113065	0.181694
H66	H	1.047657	0.050729	0.289904
O67	O	0.838166	-0.677775	0.782620
C68	C	0.786265	-0.563558	0.833179
H69	H	0.815331	-0.406672	0.846266
H70	H	0.771860	-0.656099	0.894644
H71	H	0.729637	-0.535547	0.799511
H72	H	0.557194	-0.037372	0.000111
O73	O	0.810036	-0.750253	0.390125
C74	C	0.817165	-0.731953	0.476642
H75	H	0.878280	-0.665698	0.488575
H76	H	0.808451	-0.892885	0.509853
H77	H	0.770528	-0.622484	0.501459
H78	H	0.678739	-0.755158	0.000073
O79	O	0.713486	-0.040832	-0.000064
C80	C	0.701334	0.087035	-0.071967
H81	H	0.676757	-0.012765	-0.122232
H82	H	0.759749	0.164095	-0.096109
H83	H	0.657673	0.213171	-0.055705
O84	O	1.043165	-0.152684	0.782638
C85	C	1.028022	-0.191594	0.869156
H86	H	0.965801	-0.260698	0.881100
H87	H	1.033657	-0.038574	0.902378
H88	H	1.072363	-0.306967	0.893949
H89	H	1.042741	-0.153858	0.617070
O90	O	0.817922	-0.729996	0.217815
C91	C	0.769354	-0.854415	0.275131
H92	H	0.798690	-0.869630	0.337432
H93	H	0.760190	-1.016473	0.249870
H94	H	0.709912	-0.777755	0.284439
