data_functionalizedCrystal
_audit_creation_method	'MofGen! by Chris Wilmer'
_symmetry_space_group_name_H-M	'P1'
_symmetry_Int_Tables_number	1
_symmetry_cell_setting	triclinic
loop_
_symmetry_equiv_pos_as_xyz
  x,y,z
_cell_length_a	18.215407
_cell_length_b	10.686285
_cell_length_c	18.215398
_cell_angle_alpha	94.388306
_cell_angle_beta	90.019464
_cell_angle_gamma	85.632014
loop_
_atom_site_label
_atom_site_type_symbol
_atom_site_fract_x
_atom_site_fract_y
_atom_site_fract_z
Zn1	Zn	1.147638	-0.502373	0.393703
Zn2	Zn	1.157026	-0.713379	0.261222
Zn3	Zn	1.024573	-0.502405	0.270649
Zn4	Zn	1.034013	-0.713318	0.384250
O5	O	1.090812	-0.607869	0.327456
O6	O	1.251868	-0.530376	0.376140
O7	O	1.139434	-0.685432	0.159487
O8	O	1.033018	-0.325827	0.294873
O9	O	1.258766	-0.685401	0.278807
O10	O	1.123433	-0.325803	0.385280
O11	O	1.042121	-0.530430	0.166412
O12	O	0.922840	-0.530371	0.285707
O13	O	1.049107	-0.685297	0.488490
O14	O	0.929776	-0.685328	0.369169
O15	O	1.132587	-0.530317	0.495435
O16	O	1.148588	-0.889945	0.269641
O17	O	1.058211	-0.889901	0.360029
C18	C	0.899605	-0.607847	0.327436
C19	C	0.817807	-0.607869	0.327443
C20	C	0.633250	-0.688681	0.370837
C21	C	0.556391	-0.688685	0.370846
C22	C	0.549128	-0.527079	0.284089
C23	C	0.625985	-0.527070	0.284085
C24	C	0.668044	-0.607878	0.327458
C25	C	0.514329	-0.607891	0.327471
C26	C	0.430995	-0.607895	0.327480
C27	C	0.751383	-0.607873	0.327449
C28	C	1.105463	-0.935707	0.312803
C29	C	1.111797	-1.075957	0.306559
C30	C	1.282766	-0.607892	0.327477
C31	C	1.364566	-0.607901	0.327485
C32	C	1.090853	-0.607796	0.519412
C33	C	1.090870	-0.607766	0.601212
C34	C	1.076125	-0.278751	0.342182
C35	C	1.069866	-0.138500	0.348458
C36	C	1.090811	-0.607850	0.136250
C37	C	1.090920	-0.607526	0.054466
C38	C	1.141567	-0.688319	0.862675
C39	C	1.141558	-0.688363	0.785815
C40	C	1.040217	-0.526968	0.793009
C41	C	1.040223	-0.526932	0.869868
C42	C	1.090903	-0.607605	0.904699
C43	C	1.090887	-0.607686	0.750980
C44	C	1.090877	-0.607733	0.667644
C45	C	1.090913	-0.607561	0.988040
H46	H	0.528065	-0.754482	0.406172
Cl47	Cl	0.496249	-0.425501	0.229565
H48	H	0.998962	-0.461204	0.904085
Cl49	Cl	1.174700	-1.158944	0.243785
Cl50	Cl	1.006958	-1.055519	0.411220
Cl51	Cl	1.205253	-0.789838	0.732988
H52	H	0.998957	-0.461285	0.764640
H53	H	1.182833	-0.754010	0.891033
H54	H	0.667492	-0.754477	0.406156
Cl55	Cl	0.669730	-0.425472	0.229551
