data_functionalizedCrystal
_audit_creation_method	'MofGen! by Chris Wilmer'
_symmetry_space_group_name_H-M	'P1'
_symmetry_Int_Tables_number	1
_symmetry_cell_setting	triclinic
loop_
_symmetry_equiv_pos_as_xyz
  x,y,z
_cell_length_a	15.297475
_cell_length_b	13.897448
_cell_length_c	13.897441
_cell_angle_alpha	89.969401
_cell_angle_beta	80.312610
_cell_angle_gamma	80.320483
loop_
_atom_site_label
_atom_site_type_symbol
_atom_site_fract_x
_atom_site_fract_y
_atom_site_fract_z
Zn1	Zn	1.379309	-0.639579	-0.800193
Zn2	Zn	1.379210	-0.800882	-0.638876
Zn3	Zn	1.228433	-0.611663	-0.611038
Zn4	Zn	1.228416	-0.772872	-0.772271
O5	O	1.303842	-0.706249	-0.705594
O6	O	1.505546	-0.684382	-0.802129
O7	O	1.359175	-0.775821	-0.500195
O8	O	1.248495	-0.480394	-0.636165
O9	O	1.505473	-0.802891	-0.683610
O10	O	1.359344	-0.500903	-0.775136
O11	O	1.248399	-0.636803	-0.479743
O12	O	1.102180	-0.609643	-0.609091
O13	O	1.248466	-0.755151	-0.910963
O14	O	1.102168	-0.728082	-0.727547
O15	O	1.359327	-0.657221	-0.931477
O16	O	1.359158	-0.932139	-0.656535
O17	O	1.248370	-0.911561	-0.754540
C18	C	1.069439	-0.662794	-0.662269
C19	C	0.969160	-0.644227	-0.643757
C20	C	0.686565	-0.838957	-0.837904
C21	C	0.780782	-0.856409	-0.855294
C22	C	0.827881	-0.803365	-0.802411
C23	C	0.780754	-0.732866	-0.732135
C24	C	0.686529	-0.715418	-0.714738
C25	C	0.827844	-0.679826	-0.679246
C26	C	0.780718	-0.609328	-0.608970
C27	C	0.686501	-0.591882	-0.591577
C28	C	0.639402	-0.644926	-0.644459
C29	C	0.922070	-0.697274	-0.696643
C30	C	0.922033	-0.573735	-0.573478
C31	C	0.827817	-0.556284	-0.556088
C32	C	1.303776	-0.956851	-0.705554
C33	C	1.303830	-1.064075	-0.705585
C34	C	1.303925	-1.260388	-0.705663
C35	C	1.303870	-1.151145	-0.705622
C36	C	1.539160	-0.749875	-0.749089
C37	C	1.639439	-0.768465	-0.767624
C38	C	1.303906	-0.706176	-0.957199
C39	C	1.303933	-0.706145	-1.064418
C40	C	1.303932	-0.454673	-0.705660
C41	C	1.303971	-0.347466	-0.705688
C42	C	1.303958	-0.706084	-1.260718
C43	C	1.303941	-0.706120	-1.151482
C44	C	1.303830	-0.706262	-0.454978
C45	C	1.303977	-0.706054	-0.347792
H46	H	0.562683	-0.630719	-0.630305
H47	H	0.960381	-0.530544	-0.530415
N48	N	0.929500	-0.822186	-0.821162
H49	H	0.952208	-0.874894	-0.873706
H50	H	0.952144	-0.760199	-0.843165
H51	H	0.648133	-0.534488	-0.534343
H52	H	0.819146	-0.913811	-0.912510
H53	H	0.960432	-0.754674	-0.753863
N54	N	0.635760	-0.896165	-0.894922
H55	H	0.596691	-0.849787	-0.932476
H56	H	0.679961	-0.943470	-0.942031
N57	N	0.776984	-0.480267	-0.480274
H58	H	0.710150	-0.477272	-0.477276
H59	H	0.793426	-0.498256	-0.414399
