data_functionalizedCrystal
_audit_creation_method	'MofGen! by Chris Wilmer'
_symmetry_space_group_name_H-M	'P1'
_symmetry_Int_Tables_number	1
_symmetry_cell_setting	triclinic
loop_
_symmetry_equiv_pos_as_xyz
  x,y,z
_cell_length_a	19.288867
_cell_length_b	15.944493
_cell_length_c	18.366186
_cell_angle_alpha	89.999635
_cell_angle_beta	89.992441
_cell_angle_gamma	83.306056
loop_
_atom_site_label
_atom_site_type_symbol
_atom_site_fract_x
_atom_site_fract_y
_atom_site_fract_z
O1	O	0.921610	0.104794	-0.060515
O2	O	0.719384	0.118928	-0.060521
O3	O	0.826040	-0.010438	-0.060524
O4	O	0.814954	0.234161	-0.060512
O5	O	0.826022	-0.010444	0.060576
O6	O	0.719366	0.118922	0.060579
O7	O	0.921592	0.104788	0.060585
Zn8	Zn	0.820476	0.111854	0.079809
Zn9	Zn	0.820500	0.111862	-0.079745
O10	O	0.814935	0.234154	0.060588
C11	C	0.693497	0.118470	0.000028
C12	C	0.616391	0.117104	0.000025
C13	C	0.060811	0.107268	-0.065978
C14	C	0.133262	0.108546	-0.065981
C15	C	0.169482	0.109186	0.000031
C16	C	0.133248	0.108526	0.066049
C17	C	0.060799	0.107239	0.066050
C18	C	0.278928	0.160420	0.050606
C19	C	0.351374	0.161712	0.050603
C20	C	0.392937	0.113152	0.000031
C21	C	0.362044	0.063310	-0.050549
C22	C	0.289595	0.062023	-0.050549
C23	C	0.248040	0.110581	0.000037
C24	C	0.507723	0.115192	-0.065986
C25	C	0.580175	0.116466	-0.065986
C26	C	0.580159	0.116453	0.066045
C27	C	0.507709	0.115172	0.066043
C28	C	0.471494	0.114545	0.000025
C29	C	0.825578	-0.041734	0.000023
C30	C	0.824220	-0.134978	0.000014
C31	C	0.887000	-0.370979	0.000029
C32	C	0.853154	-0.421414	-0.059680
C33	C	0.821702	-0.305689	0.000022
C34	C	0.853121	-0.421396	0.059715
C35	C	0.819276	-0.470589	0.000034
C36	C	0.787874	-0.354896	-0.059736
C37	C	0.787850	-0.354875	0.059712
C38	C	0.753956	-0.405276	-0.000011
C39	C	0.823102	-0.210695	0.000015
C40	C	0.817871	-0.565581	0.000036
C41	C	0.947478	0.105246	0.000034
C42	C	1.024585	0.106612	0.000032
C43	C	0.815398	0.265451	0.000039
C44	C	0.816756	0.358694	0.000044
N45	N	0.820465	0.111848	0.188700
N46	N	0.820517	0.111862	-0.188636
C47	C	0.867708	0.054592	0.226799
C48	C	0.867712	0.054589	0.303027
C49	C	0.820480	0.111855	0.341153
C50	C	0.773228	0.169114	0.303044
C51	C	0.773221	0.169111	0.226818
C52	C	0.811370	0.188390	0.461916
C53	C	0.811383	0.188395	0.538141
C54	C	0.820500	0.111865	0.576260
C55	C	0.829619	0.035328	0.538145
C56	C	0.829611	0.035324	0.461918
C57	C	0.820483	0.111865	0.423807
C58	C	0.867750	0.054601	0.697014
C59	C	0.867750	0.054596	0.773243
C60	C	0.773269	0.169129	0.773260
C61	C	0.773267	0.169127	0.697032
C62	C	0.820511	0.111864	0.658914
H63	H	0.478236	0.114680	-0.119742
H64	H	0.880737	-0.450463	-0.110158
Cl65	Cl	0.745337	-0.310239	-0.137758
H66	H	0.906218	0.007968	0.804264
Cl67	Cl	0.667052	-0.428826	-0.000061
Cl68	Cl	0.625688	0.117244	0.149032
Cl69	Cl	0.895703	-0.466229	0.137647
Cl70	Cl	0.713887	0.241115	0.821184
H71	H	0.734800	0.215753	0.666009
H72	H	0.837035	-0.026995	0.430888
H73	H	0.760290	-0.325811	0.110193
H74	H	0.943245	-0.355567	-0.000029
Cl75	Cl	0.250760	-0.000635	-0.114129
H76	H	0.906175	0.007964	0.195765
H77	H	0.609670	0.116993	-0.119742
Cl78	Cl	0.015256	0.106419	0.149041
Cl79	Cl	0.927109	-0.017395	0.350931
Cl80	Cl	0.841087	-0.060888	0.586056
H81	H	0.734770	0.215740	0.334090
Cl82	Cl	0.927138	-0.017391	0.649093
H83	H	0.803962	0.250716	0.569169
Cl84	Cl	0.799973	0.284611	0.414004
H85	H	0.031330	0.106755	-0.119735
Cl86	Cl	0.414286	0.002262	-0.114133
Cl87	Cl	0.178812	0.109373	-0.148971
Cl88	Cl	0.462164	0.114361	0.149032
H89	H	0.734749	0.215736	0.195797
H90	H	0.245093	0.199959	0.091796
Cl91	Cl	0.390204	0.224376	0.114183
Cl92	Cl	0.178781	0.109326	0.149035
