data_functionalizedCrystal
_audit_creation_method	'MofGen! by Chris Wilmer'
_symmetry_space_group_name_H-M	'P1'
_symmetry_Int_Tables_number	1
_symmetry_cell_setting	triclinic
loop_
_symmetry_equiv_pos_as_xyz
  x,y,z
_cell_length_a	21.295417
_cell_length_b	21.295418
_cell_length_c	16.625539
_cell_angle_alpha	89.963731
_cell_angle_beta	89.968491
_cell_angle_gamma	90.046319
loop_
_atom_site_label
_atom_site_type_symbol
_atom_site_fract_x
_atom_site_fract_y
_atom_site_fract_z
Zn1	Zn	-0.250354	0.962309	-0.456294
Zn2	Zn	0.249646	1.462309	0.043706
Zn3	Zn	-0.355624	0.962226	-0.321450
Zn4	Zn	0.144376	1.462226	0.178550
Zn5	Zn	-0.250402	0.857046	-0.321430
Zn6	Zn	0.249598	1.357046	0.178570
Zn7	Zn	-0.355618	0.857002	-0.456194
Zn8	Zn	0.144382	1.357002	0.043806
O9	O	-0.302999	0.909646	-0.388842
O10	O	0.197001	1.409646	0.111158
O11	O	-0.264301	1.050388	-0.438457
O12	O	0.235699	1.550388	0.061543
O13	O	-0.341688	0.948257	-0.208615
O14	O	0.158312	1.448257	0.291385
O15	O	-0.162306	0.871063	-0.339353
O16	O	0.337694	1.371063	0.160647
O17	O	-0.341642	1.050326	-0.339387
O18	O	0.158358	1.550326	0.160613
O19	O	-0.162271	0.948400	-0.438438
O20	O	0.337729	1.448400	0.061562
O21	O	-0.264382	0.870982	-0.208600
O22	O	0.235618	1.370982	0.291400
O23	O	-0.264376	0.768951	-0.339256
O24	O	0.235624	1.268951	0.160744
O25	O	-0.341632	0.870988	-0.569040
O26	O	0.158368	1.370988	-0.069040
O27	O	-0.341679	0.768918	-0.438267
O28	O	0.158321	1.268918	0.061733
O29	O	-0.264295	0.948357	-0.569114
O30	O	0.235705	1.448357	-0.069114
O31	O	-0.443713	0.948214	-0.339290
O32	O	0.056287	1.448214	0.160710
O33	O	-0.443708	0.870906	-0.438287
O34	O	0.056292	1.370906	0.061713
C35	C	-0.303033	0.746094	-0.388749
C36	C	0.196967	1.246094	0.111251
C37	C	-0.303062	0.676126	-0.388729
C38	C	0.196938	1.176126	0.111271
C39	C	-0.343366	0.643259	-0.440207
C40	C	0.156634	1.143259	0.059793
C41	C	-0.343351	0.577516	-0.440243
C42	C	0.156649	1.077516	0.059757
C43	C	-0.303037	0.544644	-0.388787
C44	C	0.196963	1.044644	0.111213
C45	C	-0.262725	0.577519	-0.337305
C46	C	0.237275	1.077519	0.162695
C47	C	-0.262737	0.643260	-0.337276
C48	C	0.237263	1.143260	0.162724
N49	N	-0.298120	0.441375	-0.318264
N50	N	0.201880	0.941375	0.181736
N51	N	-0.298112	0.378923	-0.318294
N52	N	0.201888	0.878923	0.181706
C53	C	-0.302997	0.346569	-0.388872
C54	C	0.197003	0.846569	0.111128
N55	N	-0.307903	0.379025	-0.459421
N56	N	0.192097	0.879025	0.040579
N57	N	-0.307914	0.441482	-0.459390
N58	N	0.192086	0.941482	0.040610
C59	C	-0.303019	0.473358	-0.388813
C60	C	0.196981	0.973358	0.111187
C61	C	-0.343287	0.242416	-0.440394
C62	C	0.156713	0.742416	0.059606
C63	C	-0.343267	0.176673	-0.440431
C64	C	0.156733	0.676673	0.059569
C65	C	-0.262645	0.176676	-0.337486
C66	C	0.237355	0.676676	0.162514
C67	C	-0.262661	0.242418	-0.337456
C68	C	0.237339	0.742418	0.162544
C69	C	-0.302986	0.275285	-0.388909
C70	C	0.197014	0.775285	0.111091
C71	C	-0.466551	0.909563	-0.388797
C72	C	0.033449	1.409563	0.111203
C73	C	-0.536519	0.909586	-0.388805
C74	C	-0.036519	1.409586	0.111195
C75	C	-0.569367	0.949875	-0.337311
C76	C	-0.069367	1.449875	0.162689
C77	C	-0.635110	0.949905	-0.337329
C78	C	-0.135110	1.449905	0.162671
C79	C	-0.668002	0.909633	-0.388833
C80	C	-0.168002	1.409633	0.111167
C81	C	-0.635146	0.869341	-0.440338
C82	C	-0.135146	1.369341	0.059662
C83	C	-0.569405	0.869317	-0.440324
C84	C	-0.069405	1.369317	0.059676
N85	N	-0.771283	0.854566	-0.394949
N86	N	-0.271283	1.354566	0.105051
N87	N	-0.833734	0.854590	-0.394957
N88	N	-0.333734	1.354590	0.105043
C89	C	-0.866076	0.909704	-0.388879
C90	C	-0.366076	1.409704	0.111121
N91	N	-0.833608	0.964793	-0.382777
N92	N	-0.333608	1.464793	0.117223
N93	N	-0.771151	0.964768	-0.382764
N94	N	-0.271151	1.464768	0.117236
C95	C	-0.739287	0.909655	-0.388854
C96	C	-0.239287	1.409655	0.111146
C97	C	-0.970210	0.950029	-0.337402
C98	C	-0.470210	1.450029	0.162598
C99	C	-1.035953	0.950059	-0.337426
C100	C	-0.535953	1.450059	0.162574
C101	C	-1.035988	0.869490	-0.440430
C102	C	-0.535988	1.369490	0.059570
C103	C	-0.970246	0.869465	-0.440410
C104	C	-0.470246	1.369465	0.059590
C105	C	-0.937361	0.909734	-0.388892
C106	C	-0.437361	1.409734	0.111108
C107	C	-0.138809	0.909746	-0.388905
C108	C	0.361191	1.409746	0.111095
C109	C	-0.068841	0.909788	-0.388931
C110	C	0.431159	1.409788	0.111069
C111	C	-0.302958	0.909677	-0.599151
C112	C	0.197042	1.409677	-0.099151
C113	C	-0.302940	0.909690	-0.688772
C114	C	0.197060	1.409690	-0.188772
C115	C	-0.302967	1.073836	-0.388936
C116	C	0.197033	1.573836	0.111064
C117	C	-0.302953	1.143804	-0.388976
C118	C	0.197047	1.643804	0.111024
C119	C	-0.302926	0.909700	-0.761555
C120	C	0.197074	1.409700	-0.261555
C121	C	-0.302903	0.909715	-0.852863
C122	C	0.197097	1.409715	-0.352863
C123	C	-0.302881	0.909730	-0.925640
C124	C	0.197119	1.409730	-0.425640
C125	C	-0.302858	0.909745	-1.016954
C126	C	0.197142	1.409745	-0.516954
C127	C	-0.302995	0.909651	-0.179351
C128	C	0.197005	1.409651	0.320649
C129	C	-0.302836	0.909760	-0.089731
C130	C	0.197164	1.409760	0.410269
H131	H	-0.229914	0.670020	-0.295356
H132	H	0.270086	1.170020	0.204644
N133	N	-0.219158	0.141230	-0.281992
N134	N	0.280842	0.641230	0.218008
H135	H	-0.225264	0.094595	-0.289822
H136	H	0.274736	0.594595	0.210178
H137	H	-0.228898	0.152666	-0.224377
H138	H	0.271102	0.652666	0.275623
N139	N	-0.934730	0.993461	-0.281848
N140	N	-0.434730	1.493461	0.218152
H141	H	-0.946216	0.983719	-0.224224
H142	H	-0.446216	1.483719	0.275776
H143	H	-0.946120	1.038420	-0.294516
H144	H	-0.446120	1.538420	0.205484
N145	N	-0.219186	0.277873	-0.281938
N146	N	0.280814	0.777873	0.218062
H147	H	-0.193642	0.247075	-0.249348
H148	H	0.306358	0.747075	0.250652
H149	H	-0.244770	0.305099	-0.244549
H150	H	0.255230	0.805099	0.255451
N151	N	-0.533977	0.825852	-0.495862
N152	N	-0.033977	1.325852	0.004138
H153	H	-0.506756	0.796687	-0.463038
H154	H	-0.006756	1.296687	0.036962
H155	H	-0.506683	0.851448	-0.533252
H156	H	-0.006683	1.351448	-0.033252
N157	N	-1.071451	0.826048	-0.495980
N158	N	-0.571451	1.326048	0.004020
H159	H	-1.059966	0.835791	-0.553603
H160	H	-0.559966	1.335791	-0.053603
H161	H	-1.118072	0.832193	-0.488111
H162	H	-0.618072	1.332193	0.011889
N163	N	-0.670623	0.825904	-0.495882
N164	N	-0.170623	1.325904	0.004118
H165	H	-0.659240	0.780929	-0.483285
H166	H	-0.159240	1.280929	0.016715
H167	H	-0.659129	0.835701	-0.553486
H168	H	-0.159129	1.335701	-0.053486
N169	N	-0.386776	0.277869	-0.495888
N170	N	0.113224	0.777869	0.004112
H171	H	-0.377055	0.266486	-0.553528
H172	H	0.122945	0.766486	-0.053528
H173	H	-0.380652	0.324492	-0.487985
H174	H	0.119348	0.824492	0.012015
H175	H	-0.376172	0.550751	-0.482165
H176	H	0.123828	1.050751	0.017835
N177	N	-0.219251	0.542068	-0.281795
N178	N	0.280749	1.042068	0.218205
H179	H	-0.225364	0.495433	-0.289618
H180	H	0.274636	0.995433	0.210382
H181	H	-0.229001	0.553512	-0.224186
H182	H	0.270999	1.053512	0.275814
H183	H	-1.062697	0.982872	-0.295494
H184	H	-0.562697	1.482872	0.204506
N185	N	-0.533898	0.993315	-0.281759
N186	N	-0.033898	1.493315	0.218241
H187	H	-0.564687	1.018846	-0.249143
H188	H	-0.064687	1.518846	0.250857
H189	H	-0.506574	1.022419	-0.314630
H190	H	-0.006574	1.522419	0.185370
N191	N	-0.934810	0.826004	-0.495941
N192	N	-0.434810	1.326004	0.004059
H193	H	-0.946206	0.835753	-0.553571
H194	H	-0.446206	1.335753	-0.053571
H195	H	-0.946325	0.781055	-0.483277
H196	H	-0.446325	1.281055	0.016723
H197	H	-0.376087	0.149913	-0.482356
H198	H	0.123913	0.649913	0.017644
H199	H	-0.661860	0.982716	-0.295396
H200	H	-0.161860	1.482716	0.204604
H201	H	-0.376201	0.670014	-0.482104
H202	H	0.123799	1.170014	0.017896
