data_functionalizedCrystal
_audit_creation_method	'MofGen! by Chris Wilmer'
_symmetry_space_group_name_H-M	'P1'
_symmetry_Int_Tables_number	1
_symmetry_cell_setting	triclinic
loop_
_symmetry_equiv_pos_as_xyz
  x,y,z
_cell_length_a	16.974800
_cell_length_b	16.992695
_cell_length_c	9.130313
_cell_angle_alpha	89.998255
_cell_angle_beta	93.656583
_cell_angle_gamma	87.021674
loop_
_atom_site_label
_atom_site_type_symbol
_atom_site_fract_x
_atom_site_fract_y
_atom_site_fract_z
O1	O	1.055459	0.099873	0.003354
O2	O	1.555459	0.599873	0.503354
O3	O	0.826057	0.112613	-0.023852
O4	O	1.326057	0.612613	0.476148
O5	O	0.939838	-0.007898	-0.010346
O6	O	1.439838	0.492102	0.489654
O7	O	0.941678	0.220385	-0.010151
O8	O	1.441678	0.720385	0.489849
O9	O	0.939837	-0.007895	0.233252
O10	O	1.439837	0.492105	0.733252
O11	O	0.826055	0.112616	0.219747
O12	O	1.326055	0.612616	0.719747
O13	O	1.055458	0.099877	0.246952
O14	O	1.555458	0.599877	0.746952
Cu15	Cu	0.940757	0.106247	0.255592
Cu16	Cu	1.440757	0.606247	0.755592
Cu17	Cu	0.940758	0.106243	-0.032491
Cu18	Cu	1.440758	0.606243	0.467509
O19	O	0.941676	0.220388	0.233447
O20	O	1.441676	0.720388	0.733447
C21	C	0.796567	0.112132	0.094451
C22	C	1.296567	0.612132	0.594451
C23	C	0.708698	0.110684	0.084030
C24	C	1.208698	0.610684	0.584030
C25	C	0.667421	0.110004	0.211924
C26	C	1.167421	0.610004	0.711924
C27	C	0.584860	0.108631	0.202137
C28	C	1.084860	0.608631	0.702137
C29	C	0.543577	0.107945	0.064456
C30	C	1.043577	0.607945	0.564456
C31	C	0.584860	0.108623	-0.063448
C32	C	1.084860	0.608623	0.436552
C33	C	0.667420	0.109990	-0.053659
C34	C	1.167420	0.609990	0.446341
C35	C	0.296659	0.103850	0.020943
C36	C	0.796659	0.603850	0.520943
C37	C	0.214093	0.102486	0.011164
C38	C	0.714093	0.602486	0.511164
C39	C	0.214099	0.102493	0.276750
C40	C	0.714099	0.602493	0.776750
C41	C	0.296661	0.103865	0.286526
C42	C	0.796661	0.603865	0.786526
C43	C	0.337937	0.104539	0.158623
C44	C	0.837937	0.604539	0.658623
N45	N	0.459186	0.106544	0.054449
N46	N	0.959186	0.606544	0.554449
N47	N	0.422326	0.105934	0.168631
N48	N	0.922326	0.605934	0.668631
C49	C	0.937472	-0.037107	0.111172
C50	C	1.437472	0.462893	0.611172
C51	C	0.930412	-0.124143	0.110335
C52	C	1.430412	0.375857	0.610335
C53	C	0.998528	-0.174460	0.118414
C54	C	1.498528	0.325540	0.618414
C55	C	0.991890	-0.256239	0.117613
C56	C	1.491890	0.243761	0.617613
C57	C	0.917135	-0.287699	0.108743
C58	C	1.417135	0.212301	0.608743
C59	C	0.849015	-0.237376	0.100658
C60	C	1.349015	0.262624	0.600658
C61	C	0.855653	-0.155598	0.101449
C62	C	1.355653	0.344402	0.601449
C63	C	0.889621	-0.531266	0.105460
C64	C	1.389621	-0.031266	0.605460
C65	C	0.882987	-0.613050	0.104674
C66	C	1.382987	-0.113050	0.604674
C67	C	1.025863	-0.631908	0.121626
C68	C	1.525863	-0.131908	0.621626
C69	C	1.032495	-0.550128	0.122425
C70	C	1.532495	-0.050128	0.622425
C71	C	0.964374	-0.499812	0.114332
C72	C	1.464374	0.000188	0.614332
N73	N	0.910349	-0.371291	0.107928
N74	N	1.410349	0.128709	0.607928
N75	N	0.971162	-0.416222	0.115136
N76	N	1.471162	0.083778	0.615136
C77	C	1.084948	0.100358	0.128647
C78	C	1.584948	0.600358	0.628647
C79	C	1.172817	0.101805	0.139058
C80	C	1.672817	0.601805	0.639058
C81	C	0.944043	0.249596	0.111925
C82	C	1.444043	0.749596	0.611925
C83	C	0.951103	0.336633	0.112753
C84	C	1.451103	0.836633	0.612753
N85	N	0.940761	0.106249	0.458215
N86	N	1.440761	0.606249	0.958215
N87	N	0.940759	0.106235	-0.235114
N88	N	1.440759	0.606235	0.264886
C89	C	0.991159	0.052904	0.540849
C90	C	1.491159	0.552904	1.040849
C91	C	0.991156	0.052895	0.694186
C92	C	1.491156	0.552895	1.194186
C93	C	0.890356	0.159582	0.682241
C94	C	1.390356	0.659582	1.182241
C95	C	0.890356	0.159587	0.528907
C96	C	1.390356	0.659587	1.028907
C97	C	1.049357	-0.008688	0.547747
C98	C	1.549357	0.491312	1.047747
C99	C	1.049354	-0.008697	0.701084
C100	C	1.549354	0.491303	1.201084
H101	H	0.701028	0.110570	0.324039
H102	H	1.201028	0.610570	0.824039
H103	H	0.788148	-0.262997	0.093427
H104	H	1.288148	0.237003	0.593427
H105	H	0.822110	-0.638661	0.097474
H106	H	1.322110	-0.138661	0.597474
F107	F	1.064389	-0.309788	0.126215
F108	F	1.564389	0.190212	0.626215
F109	F	0.340578	0.104568	-0.115185
F110	F	0.840578	0.604568	0.384815
H111	H	0.180483	0.101929	-0.100959
H112	H	0.680483	0.601929	0.399041
H113	H	0.180484	0.101943	0.380881
H114	H	0.680484	0.601943	0.880881
H115	H	0.551241	0.108058	-0.175551
H116	H	1.051241	0.608058	0.324449
F117	F	0.783155	-0.102046	0.092845
F118	F	1.283155	0.397954	0.592845
H119	H	1.081323	-0.672884	0.128211
H120	H	1.581323	-0.172884	0.628211
F121	F	0.836707	0.216353	0.440961
F122	F	1.336707	0.716353	0.940961
H123	H	0.701027	0.110545	-0.157804
H124	H	1.201027	0.610545	0.342196
H125	H	1.110814	0.004144	0.749987
H126	H	1.610814	0.504144	1.249987
F127	F	0.817119	-0.477726	0.096843
F128	F	1.317119	0.022274	0.596843
H129	H	1.027056	-0.065463	0.745992
H130	H	1.527056	0.434537	1.245992
H131	H	0.849317	0.203007	0.739814
H132	H	1.349317	0.703007	1.239814
H133	H	1.032585	-0.068825	0.504144
H134	H	1.532585	0.431175	1.004144
F135	F	1.112059	-0.516653	0.131828
F136	F	1.612059	-0.016653	0.631828
F137	F	0.540933	0.107918	0.338260
F138	F	1.040933	0.607918	0.838260
H139	H	1.107772	0.009849	0.507114
H140	H	1.607772	0.509849	1.007114
H141	H	0.330268	0.104420	0.398641
H142	H	0.830268	0.604420	0.898641
H143	H	1.059401	-0.148852	0.125646
H144	H	1.559401	0.351148	0.625646
