data_functionalizedCrystal
_audit_creation_method	'MofGen! by Chris Wilmer'
_symmetry_space_group_name_H-M	'P1'
_symmetry_Int_Tables_number	1
_symmetry_cell_setting	triclinic
loop_
_symmetry_equiv_pos_as_xyz
  x,y,z
_cell_length_a	16.625548
_cell_length_b	29.839131
_cell_length_c	16.625539
_cell_angle_alpha	90.032094
_cell_angle_beta	90.020568
_cell_angle_gamma	90.042488
loop_
_atom_site_label
_atom_site_type_symbol
_atom_site_fract_x
_atom_site_fract_y
_atom_site_fract_z
Zn1	Zn	1.232574	-0.178840	0.455888
Zn2	Zn	1.232433	-0.253971	0.321046
Zn3	Zn	1.097736	-0.178857	0.321069
Zn4	Zn	1.097662	-0.253945	0.455836
O5	O	1.165101	-0.216403	0.388460
O6	O	1.345388	-0.188810	0.438013
O7	O	1.214537	-0.244025	0.208217
O8	O	1.115713	-0.115987	0.338984
O9	O	1.345284	-0.244008	0.338946
O10	O	1.214778	-0.115975	0.438035
O11	O	1.115576	-0.188839	0.208233
O12	O	0.984894	-0.188814	0.338933
O13	O	1.115586	-0.243964	0.568676
O14	O	0.984839	-0.243981	0.437947
O15	O	1.214706	-0.188785	0.568714
O16	O	1.214465	-0.316834	0.338896
O17	O	1.115449	-0.316815	0.437925
C18	C	0.955610	-0.216397	0.388437
C19	C	0.865989	-0.216405	0.388447
C20	C	0.537814	-0.216408	0.388481
C21	C	0.629122	-0.216406	0.388469
C22	C	0.701899	-0.216406	0.388463
C23	C	0.793213	-0.216404	0.388452
C24	C	1.164956	-0.333126	0.388420
C25	C	1.164967	-0.383060	0.388430
C26	C	1.216752	-0.692701	0.336971
C27	C	1.216852	-0.880374	0.337002
O28	O	1.260766	-0.904636	0.293219
N29	N	1.165268	-0.903845	0.388521
C30	C	1.113660	-0.880395	0.440039
O31	O	1.069793	-0.904665	0.483866
C32	C	1.113565	-0.692723	0.440011
C33	C	1.165146	-0.669254	0.388483
C34	C	1.268330	-0.669232	0.285447
C35	C	1.268302	-0.622316	0.285437
C36	C	1.216695	-0.598870	0.336950
C37	C	1.165118	-0.622339	0.388473
C38	C	1.061962	-0.669274	0.491533
C39	C	1.061944	-0.622353	0.491523
C40	C	1.113525	-0.598884	0.439995
C41	C	1.113483	-0.551977	0.439975
N42	N	1.165067	-0.528505	0.388456
C43	C	1.216673	-0.551952	0.336944
C44	C	1.113712	-0.978926	0.440049
C45	C	1.113735	-1.025844	0.440055
C46	C	1.216928	-1.025819	0.337019
C47	C	1.216901	-0.978900	0.337009
C48	C	1.165296	-0.955455	0.388530
C49	C	1.216609	-0.453426	0.336925
C50	C	1.216573	-0.406506	0.336917
C51	C	1.113383	-0.406535	0.439956
C52	C	1.113416	-0.453451	0.439962
C53	C	1.165035	-0.476895	0.388443
O54	O	1.069599	-0.527685	0.483742
O55	O	1.260546	-0.527674	0.293136
C56	C	1.216781	-0.739616	0.336981
C57	C	1.165203	-0.763085	0.388504
C58	C	1.113597	-0.739639	0.440017
C59	C	1.165226	-0.810003	0.388510
C60	C	1.216832	-0.833449	0.336997
C61	C	1.268416	-0.809978	0.285479
C62	C	1.268387	-0.763062	0.285468
C63	C	1.062014	-0.763110	0.491536
C64	C	1.062046	-0.810026	0.491541
C65	C	1.113652	-0.833472	0.440028
C66	C	1.375410	-0.216410	0.388483
C67	C	1.465031	-0.216413	0.388493
C68	C	1.165154	-0.216370	0.598769
C69	C	1.165176	-0.216355	0.688390
C70	C	1.165269	-0.099225	0.388518
C71	C	1.165341	-0.049290	0.388542
C72	C	1.165095	-0.216404	0.178969
C73	C	1.165229	-0.216292	0.089348
C74	C	1.165213	-0.216305	1.016566
C75	C	1.165201	-0.216320	0.925257
C76	C	1.165195	-0.216330	0.852481
C77	C	1.165182	-0.216345	0.761167
H78	H	1.258577	-0.387399	0.294954
C79	C	1.324404	-0.596920	0.229471
C80	C	1.369615	-0.627504	0.184384
C81	C	1.421319	-0.604129	0.132829
H82	H	1.293671	-0.578645	0.194229
H83	H	1.359553	-0.578598	0.260329
H84	H	1.334470	-0.645818	0.153528
H85	H	1.400364	-0.645780	0.219605
H86	H	1.456469	-0.585807	0.163687
H87	H	1.390580	-0.585855	0.097592
H88	H	1.452007	-0.624876	0.102237
H89	H	1.258644	-0.472509	0.294976
H90	H	1.310358	-0.688317	0.243499
H91	H	1.310433	-0.829076	0.243533
H92	H	1.071688	-0.959840	0.482005
C93	C	1.057540	-0.478993	0.495945
C94	C	1.103184	-0.505887	0.547662
C95	C	1.051745	-0.529424	0.599244
H96	H	1.026780	-0.458361	0.526699
H97	H	1.022452	-0.497357	0.465097
H98	H	1.138258	-0.487525	0.578508
H99	H	1.133943	-0.526528	0.516932
H100	H	1.016656	-0.547788	0.568395
H101	H	1.020987	-0.508789	0.629991
H102	H	1.082706	-0.547678	0.634335
H103	H	1.310389	-0.743957	0.243509
C104	C	1.272995	-0.953503	0.281037
C105	C	1.318202	-0.984084	0.235941
C106	C	1.369894	-0.960707	0.184378
H107	H	1.242255	-0.935228	0.245802
H108	H	1.308148	-0.935180	0.311890
H109	H	1.283053	-1.002399	0.205090
H110	H	1.348958	-1.002360	0.271155
H111	H	1.405047	-0.942385	0.215231
H112	H	1.339147	-0.942433	0.149148
H113	H	1.400578	-0.981453	0.153779
C114	C	1.272986	-1.051361	0.281236
C115	C	1.261999	-1.097472	0.292316
C116	C	1.313659	-1.121017	0.240983
H117	H	1.261327	-1.043772	0.226993
H118	H	1.327149	-1.043648	0.293153
H119	H	1.207849	-1.105182	0.280393
H120	H	1.273664	-1.105074	0.346548
H121	H	1.367822	-1.113304	0.252901
H122	H	1.301996	-1.113424	0.186744
H123	H	1.306216	-1.152306	0.248500
C124	C	1.006008	-0.835422	0.547579
C125	C	0.960828	-0.804841	0.592701
C126	C	0.909213	-0.828217	0.644343
H127	H	0.970828	-0.853761	0.516805
H128	H	1.036828	-0.853681	0.582788
H129	H	0.930010	-0.786589	0.557497
H130	H	0.995986	-0.786501	0.623491
H131	H	0.940033	-0.846476	0.679552
H132	H	0.874039	-0.846555	0.613563
H133	H	0.878558	-0.807472	0.674970
C134	C	1.005827	-0.596980	0.547495
C135	C	0.960653	-0.627579	0.592605
C136	C	0.908944	-0.604223	0.644166
H137	H	1.036554	-0.578645	0.582722
H138	H	0.970654	-0.578718	0.516640
H139	H	0.995822	-0.645833	0.623458
H140	H	0.929910	-0.645915	0.557400
H141	H	0.873771	-0.585961	0.613311
H142	H	0.939678	-0.585889	0.679388
H143	H	0.878282	-0.624981	0.674774
C144	C	1.057695	-1.051240	0.496082
C145	C	1.012516	-1.020659	0.541206
C146	C	0.960893	-1.044036	0.592839
H147	H	1.022515	-1.069576	0.465303
H148	H	1.088509	-1.069502	0.531291
H149	H	0.981704	-1.002404	0.506002
H150	H	1.047675	-1.002322	0.572001
H151	H	0.991708	-1.062298	0.628048
H152	H	0.925718	-1.062371	0.562053
H153	H	0.930238	-1.023290	0.623467
C154	C	1.057446	-0.380993	0.495854
C155	C	1.068486	-0.334882	0.484828
C156	C	1.016983	-0.311337	0.536319
H157	H	1.003246	-0.388660	0.484064
H158	H	1.069233	-0.388628	0.550059
H159	H	1.056693	-0.327250	0.430635
H160	H	1.122676	-0.327201	0.496623
H161	H	1.028770	-0.318972	0.590524
H162	H	0.962786	-0.319008	0.524525
H163	H	1.024472	-0.280048	0.528850
H164	H	1.019955	-0.688375	0.533489
H165	H	1.019991	-0.744024	0.533485
