data_functionalizedCrystal
_audit_creation_method	'MofGen! by Chris Wilmer'
_symmetry_space_group_name_H-M	'P1'
_symmetry_Int_Tables_number	1
_symmetry_cell_setting	triclinic
loop_
_symmetry_equiv_pos_as_xyz
  x,y,z
_cell_length_a	18.627255
_cell_length_b	18.627235
_cell_length_c	18.627297
_cell_angle_alpha	59.996374
_cell_angle_beta	89.998332
_cell_angle_gamma	59.999879
loop_
_atom_site_label
_atom_site_type_symbol
_atom_site_fract_x
_atom_site_fract_y
_atom_site_fract_z
O1	O	0.492472	0.633256	-0.021375
O2	O	0.388078	0.486244	0.021242
O3	O	0.388075	0.633252	-0.125770
O4	O	0.492476	0.486249	0.125637
O5	O	0.507479	0.513845	-0.125764
O6	O	0.507483	0.366838	0.021248
O7	O	0.611877	0.513849	-0.021369
Zn8	Zn	0.578638	0.421385	-0.000060
Zn9	Zn	0.421317	0.578708	-0.000068
O10	O	0.611880	0.366842	0.125643
C11	C	0.612973	0.644056	-0.031075
C12	C	0.568675	0.593655	-0.024973
C13	C	0.569566	0.731066	-0.031689
C14	C	0.742972	0.644059	-0.031080
C15	C	0.837670	0.593662	-0.024983
C16	C	0.699368	0.731070	-0.031694
C17	C	0.612969	0.774065	-0.031087
C18	C	0.568666	0.862670	-0.024997
C19	C	0.699372	0.601258	-0.031682
C20	C	0.386970	0.226056	0.030920
C21	C	0.431266	0.137463	0.024814
C22	C	0.430377	0.269047	0.031532
C23	C	0.256975	0.356049	0.030934
C24	C	0.162279	0.406444	0.024843
C25	C	0.300579	0.398842	0.031546
C26	C	0.386976	0.356048	0.030934
C27	C	0.431278	0.406442	0.024842
C28	C	0.300573	0.269048	0.031533
C29	C	0.386973	0.644049	-0.387070
C30	C	0.431274	0.593651	-0.431368
C31	C	0.300573	0.731058	-0.430477
C32	C	0.386973	0.644048	-0.257069
C33	C	0.431275	0.593649	-0.162370
C34	C	0.300573	0.731057	-0.300674
C35	C	0.256970	0.774053	-0.387074
C36	C	0.162272	0.862656	-0.431377
C37	C	0.430378	0.601250	-0.300669
O38	O	1.125679	0.366839	0.021252
O39	O	0.874274	0.513856	-0.021378
O40	O	1.021264	0.366854	0.125639
O41	O	0.978689	0.513841	-0.125765
O42	O	1.021259	0.486264	0.125627
O43	O	0.874269	0.633267	-0.021390
O44	O	1.125675	0.486249	0.021240
Zn45	Zn	0.999972	0.578717	-0.000077
Zn46	Zn	0.999977	0.421389	-0.000061
O47	O	0.978685	0.633252	-0.125777
O48	O	0.507470	1.104458	0.021218
O49	O	0.611867	0.895669	-0.021393
O50	O	0.611862	0.895649	0.125616
O51	O	0.507475	1.104478	-0.125791
O52	O	0.492454	0.895660	0.125602
O53	O	0.492459	0.895680	-0.021408
O54	O	0.388062	1.104469	0.021204
Zn55	Zn	0.421302	1.000076	-0.000104
Zn56	Zn	0.578627	1.000061	-0.000085
O57	O	0.388067	1.104489	-0.125806
O58	O	-0.125731	1.104463	-0.492579
O59	O	0.125671	0.895658	-0.388178
O60	O	-0.021326	0.895654	-0.388169
O61	O	0.021267	1.104467	-0.492588
O62	O	-0.021330	0.895657	-0.507573
O63	O	0.125668	0.895662	-0.507582
O64	O	-0.125735	1.104466	-0.611982
Zn65	Zn	-0.000034	1.000065	-0.578740
Zn66	Zn	-0.000029	1.000060	-0.421421
O67	O	0.021263	1.104471	-0.611991
O68	O	0.492481	0.486243	-0.611961
O69	O	0.388074	0.633252	-0.507573
O70	O	0.388080	0.486242	-0.507558
O71	O	0.492475	0.633253	-0.611975
O72	O	0.507483	0.366838	-0.388151
O73	O	0.507477	0.513848	-0.388165
O74	O	0.611884	0.366839	-0.492553
Zn75	Zn	0.578638	0.421385	-0.421400
Zn76	Zn	0.421320	0.578705	-0.578725
O77	O	0.611878	0.513849	-0.492567
C78	C	0.742986	0.226039	0.386946
C79	C	0.837685	0.137436	0.431249
C80	C	0.699385	0.269034	0.430350
C81	C	0.612982	0.356045	0.256942
C82	C	0.568680	0.406444	0.162243
C83	C	0.569578	0.398842	0.300543
C84	C	0.612984	0.356043	0.386943
C85	C	0.568684	0.406440	0.431242
C86	C	0.699383	0.269036	0.300546
C87	C	1.030900	0.356100	0.386919
C88	C	1.024794	0.406507	0.431211
C89	C	1.031498	0.269097	0.430328
C90	C	1.030929	0.356079	0.256929
C91	C	1.024853	0.406463	0.162234
C92	C	1.031526	0.269076	0.300535
C93	C	1.030899	0.226094	0.386931
C94	C	1.024792	0.137497	0.431234
C95	C	1.031527	0.398884	0.300524
C96	C	0.969044	0.774017	-0.387070
C97	C	0.975145	0.862617	-0.431375
C98	C	0.968451	0.731010	-0.430466
C99	C	0.969020	0.644027	-0.257067
C100	C	0.975096	0.593642	-0.162372
C101	C	0.968428	0.601218	-0.300661
C102	C	0.969054	0.644003	-0.387056
C103	C	0.975167	0.593593	-0.431346
C104	C	0.968417	0.731034	-0.300675
C105	C	0.612948	0.644024	0.386909
C106	C	0.568644	0.593627	0.431204
C107	C	0.699348	0.601218	0.430321
C108	C	0.612955	0.774035	0.256912
C109	C	0.568658	0.862647	0.162212
C110	C	0.699355	0.731031	0.300521
C111	C	0.742954	0.644015	0.386922
C112	C	0.837652	0.593609	0.431230
C113	C	0.569547	0.731040	0.300508
O114	O	0.978554	0.513941	0.611784
O115	O	1.021178	0.366916	0.507409
O116	O	0.874168	0.513944	0.507370
O117	O	1.125565	0.366913	0.611823
O118	O	0.874194	0.633334	0.387969
O119	O	1.021205	0.486306	0.388008
O120	O	0.978580	0.633330	0.492383
Zn121	Zn	0.999897	0.578774	0.421238
Zn122	Zn	0.999862	0.421473	0.578554
O123	O	1.125591	0.486302	0.492422
C124	C	0.256977	1.356123	-0.387112
C125	C	0.162279	1.406530	-0.431420
C126	C	0.300584	1.398920	-0.430511
C127	C	0.386975	1.226102	-0.257101
C128	C	0.431271	1.137491	-0.162401
C129	C	0.430384	1.269097	-0.300697
C130	C	0.386983	1.356113	-0.387098
C131	C	0.431288	1.406509	-0.431392
C132	C	0.300575	1.269107	-0.300711
H133	H	0.498578	0.767044	-0.032663
H134	H	0.265573	1.468948	-0.501498
H135	H	0.734347	0.531199	0.501313
O136	O	0.258942	1.226010	-0.258904
C137	C	0.305971	1.125535	-0.234582
H138	H	0.377322	1.096312	-0.229921
H139	H	0.303427	1.075212	-0.168042
H140	H	0.275194	1.123833	-0.286112
H141	H	0.734378	0.767048	-0.032669
H142	H	0.501378	1.233093	-0.265686
H143	H	1.032491	0.468908	0.265511
H144	H	0.734378	0.531240	-0.032650
O145	O	0.741202	0.773829	0.258746
C146	C	0.816998	0.702866	0.254399
H147	H	0.809059	0.643578	0.260056
H148	H	0.826342	0.743693	0.188964
H149	H	0.876881	0.663948	0.310661
H150	H	0.265574	0.468847	0.032535
H151	H	0.265566	0.767029	-0.265661
H152	H	0.265571	0.233060	0.032514
O153	O	0.515013	0.226197	0.032535
C154	C	0.519823	0.225758	-0.042798
H155	H	0.452587	0.287339	-0.096418
H156	H	0.569978	0.241046	-0.067417
H157	H	0.540795	0.148537	-0.025477
H158	H	0.265570	0.767040	-0.501469
H159	H	0.501360	0.531218	-0.265655
O160	O	0.484806	0.774054	0.258825
C161	C	0.431372	0.803101	0.305891
H162	H	0.464625	0.813719	0.347507
H163	H	0.364893	0.877514	0.257717
H164	H	0.421387	0.741563	0.350508
O165	O	0.484858	0.482302	0.258918
C166	C	0.431405	0.459616	0.305950
H167	H	0.473535	0.392901	0.377299
H168	H	0.378573	0.528697	0.303424
H169	H	0.398883	0.438907	0.275160
O170	O	0.741152	0.225929	0.515094
C171	C	0.765454	0.125459	0.568510
H172	H	0.770164	0.096245	0.526366
H173	H	0.831963	0.075125	0.621420
H174	H	0.713887	0.123764	0.600935
H175	H	0.967455	0.531201	-0.265645
H176	H	0.734391	0.233047	0.265545
O177	O	1.032581	0.226304	0.258656
C178	C	0.957243	0.297251	0.182888
H179	H	0.931302	0.377407	0.161066
H180	H	0.975083	0.288420	0.127921
H181	H	0.904424	0.283297	0.198408
O182	O	0.967181	0.774091	-0.515190
C183	C	0.891043	0.874578	-0.568652
H184	H	0.866481	0.903813	-0.526532
H185	H	0.907281	0.924878	-0.621512
H186	H	0.837800	0.876299	-0.601141
O187	O	0.967083	0.774103	-0.259003
C188	C	0.890970	0.874610	-0.306080
H189	H	0.838736	0.882974	-0.347696
H190	H	0.864730	0.892924	-0.257914
H191	H	0.907898	0.929205	-0.350698
H192	H	1.032466	0.233122	0.501317
