data_functionalizedCrystal
_audit_creation_method	'MofGen! by Chris Wilmer'
_symmetry_space_group_name_H-M	'P1'
_symmetry_Int_Tables_number	1
_symmetry_cell_setting	triclinic
loop_
_symmetry_equiv_pos_as_xyz
  x,y,z
_cell_length_a	17.640112
_cell_length_b	12.594516
_cell_length_c	17.640968
_cell_angle_alpha	78.769692
_cell_angle_beta	92.139080
_cell_angle_gamma	101.236260
loop_
_atom_site_label
_atom_site_type_symbol
_atom_site_fract_x
_atom_site_fract_y
_atom_site_fract_z
Zn1	Zn	1.247783	-0.030581	-0.195080
Zn2	Zn	1.222044	-0.250167	-0.068101
Zn3	Zn	1.095125	-0.099815	-0.093727
Zn4	Zn	1.120783	-0.236157	-0.220683
O5	O	1.171434	-0.154180	-0.144398
O6	O	1.350634	-0.036598	-0.156797
O7	O	1.183698	-0.265061	0.034772
O8	O	1.115408	0.058327	-0.107182
O9	O	1.331725	-0.197927	-0.063506
O10	O	1.227566	0.109193	-0.181646
O11	O	1.090451	-0.154597	0.015944
O12	O	0.992262	-0.141012	-0.132008
O13	O	1.159140	-0.174049	-0.323559
O14	O	1.011114	-0.241182	-0.225281
O15	O	1.252446	-0.023013	-0.304749
O16	O	1.208579	-0.397266	-0.088331
O17	O	1.134183	-0.386973	-0.200433
C18	C	0.974135	-0.197090	-0.184204
C19	C	0.889733	-0.215467	-0.201251
C20	C	0.563041	-0.014551	-0.014898
C21	C	0.483735	-0.031838	-0.030927
C22	C	0.503385	-0.136387	-0.127885
C23	C	0.582695	-0.119105	-0.111867
C24	C	0.612517	-0.058188	-0.055372
C25	C	0.632171	-0.162741	-0.152342
C26	C	0.711473	-0.145465	-0.136322
C27	C	0.741300	-0.084553	-0.079828
C28	C	0.691819	-0.040912	-0.039353
C29	C	0.602347	-0.223665	-0.208832
C30	C	0.651823	-0.267301	-0.249307
C31	C	0.731128	-0.250019	-0.233291
C32	C	0.760955	-0.189107	-0.176797
C33	C	0.780609	-0.293661	-0.273766
C34	C	0.859911	-0.276385	-0.257746
C35	C	0.840257	-0.171831	-0.160777
C36	C	1.171396	-0.430733	-0.144392
C37	C	1.171454	-0.549020	-0.144401
C38	C	1.211988	-0.623802	-0.083471
C39	C	1.244557	-0.667775	-0.149044
C40	C	1.138989	-0.715811	-0.078852
C41	C	1.204066	-0.591415	-0.210003
C42	C	1.098457	-0.639467	-0.139771
C43	C	1.131009	-0.683398	-0.205397
C44	C	1.369504	-0.111103	-0.104437
C45	C	1.453909	-0.092746	-0.087408
C46	C	1.211526	-0.089246	-0.342480
C47	C	1.228611	-0.061574	-0.426891
C48	C	1.171496	0.123463	-0.144417
C49	C	1.171522	0.241778	-0.144424
C50	C	1.041933	-0.363752	-0.753468
C51	C	1.058003	-0.337734	-0.832782
C52	C	1.155154	-0.180474	-0.813186
C53	C	1.139090	-0.206476	-0.733870
C54	C	1.082479	-0.298117	-0.704017
C55	C	1.179636	-0.140840	-0.684419
C56	C	1.163575	-0.166844	-0.605109
C57	C	1.106969	-0.258483	-0.575250
C58	C	1.066419	-0.324121	-0.624707
C59	C	1.236250	-0.049204	-0.714272
C60	C	1.276796	0.016432	-0.664821
C61	C	1.260732	-0.009567	-0.585510
C62	C	1.204125	-0.101206	-0.555651
C63	C	1.301282	0.056071	-0.536053
C64	C	1.285222	0.030067	-0.456743
C65	C	1.188065	-0.127210	-0.476342
C66	C	1.131541	-0.218776	0.052922
C67	C	1.114604	-0.246115	0.137362
H68	H	0.479093	-0.185990	-0.173881
Br69	Br	0.965094	-0.488114	-0.712948
H70	H	1.096770	-0.709541	-0.256983
Br71	Br	0.494718	-0.247133	-0.230562
Br72	Br	0.927061	-0.335613	-0.312671
H73	H	1.322890	0.091044	-0.689138
Br74	Br	0.995530	-0.617550	-0.133181
Br75	Br	0.848925	-0.061115	-0.058078
H76	H	1.231503	-0.537792	-0.265508
H77	H	1.201249	-0.105862	-0.837503
Br78	Br	1.258051	-0.013918	-0.821907
H79	H	1.111504	-0.769562	-0.023409
H80	H	1.318237	0.083515	-0.416479
H81	H	1.141949	-0.201812	-0.452038
Br82	Br	1.347506	-0.689630	-0.155617
Br83	Br	0.732300	0.041776	0.037313
Br84	Br	0.603522	0.068136	0.061767
H85	H	1.093896	-0.279657	-0.510670
H86	H	1.246281	-0.597421	-0.031982
Br87	Br	0.989580	-0.448482	-0.584188
Br88	Br	1.002969	-0.426821	-0.899894
H89	H	1.347379	0.130678	-0.560370
H90	H	0.864541	-0.122207	-0.114785
H91	H	0.627530	-0.316904	-0.295302
Br92	Br	0.416588	0.027376	0.024017
H93	H	0.756315	-0.343269	-0.319759
