data_functionalizedCrystal
_audit_creation_method	'MofGen! by Chris Wilmer'
_symmetry_space_group_name_H-M	'P1'
_symmetry_Int_Tables_number	1
_symmetry_cell_setting	triclinic
loop_
_symmetry_equiv_pos_as_xyz
  x,y,z
_cell_length_a	19.121063
_cell_length_b	21.395364
_cell_length_c	21.395355
_cell_angle_alpha	89.975484
_cell_angle_beta	92.420740
_cell_angle_gamma	92.464759
loop_
_atom_site_label
_atom_site_type_symbol
_atom_site_fract_x
_atom_site_fract_y
_atom_site_fract_z
Zn1	Zn	-0.279776	0.947226	-0.364898
Zn2	Zn	0.220224	1.447226	0.135102
Zn3	Zn	-0.397210	0.942665	-0.264585
Zn4	Zn	0.102790	1.442665	0.235415
Zn5	Zn	-0.279768	0.842441	-0.260134
Zn6	Zn	0.220232	1.342441	0.239866
Zn7	Zn	-0.397183	0.837948	-0.369324
Zn8	Zn	0.102817	1.337948	0.130676
O9	O	-0.338484	0.892570	-0.314735
O10	O	0.161516	1.392570	0.185265
O11	O	-0.295369	1.034298	-0.351601
O12	O	0.204631	1.534298	0.148399
O13	O	-0.381638	0.929342	-0.176317
O14	O	0.118362	1.429342	0.323683
O15	O	-0.181484	0.860130	-0.270316
O16	O	0.318516	1.360130	0.229684
O17	O	-0.381647	1.030948	-0.277902
O18	O	0.118353	1.530948	0.222098
O19	O	-0.181490	0.937115	-0.347285
O20	O	0.318510	1.437115	0.152715
O21	O	-0.295354	0.855708	-0.173047
O22	O	0.204646	1.355708	0.326953
O23	O	-0.295328	0.754168	-0.274608
O24	O	0.204672	1.254168	0.225392
O25	O	-0.381601	0.852472	-0.456415
O26	O	0.118399	1.352472	0.043585
O27	O	-0.381593	0.750867	-0.354830
O28	O	0.118407	1.250867	0.145170
O29	O	-0.295343	0.932758	-0.453163
O30	O	0.204657	1.432758	0.046837
O31	O	-0.495491	0.924985	-0.282194
O32	O	0.004509	1.424985	0.217806
O33	O	-0.495472	0.848050	-0.359146
O34	O	0.004528	1.348050	0.140854
C35	C	-0.338457	0.729784	-0.314717
C36	C	0.161543	1.229784	0.185283
C37	C	-0.338463	0.660142	-0.314724
C38	C	0.161537	1.160142	0.185276
C39	C	-0.293665	0.160085	-0.353189
C40	C	0.206335	0.660085	0.146811
C41	C	-0.293660	0.225521	-0.353188
C42	C	0.206340	0.725521	0.146812
C43	C	-0.338506	0.256502	-0.314750
C44	C	0.161494	0.756502	0.185250
C45	C	-0.383373	0.222042	-0.276321
C46	C	0.116627	0.722042	0.223679
C47	C	-0.383381	0.156608	-0.276327
C48	C	0.116619	0.656608	0.223673
C49	C	-0.343944	0.359932	-0.258490
C50	C	0.156056	0.859932	0.241510
C51	C	-0.343931	0.425366	-0.258482
C52	C	0.156069	0.925366	0.241518
C53	C	-0.338482	0.458324	-0.314732
C54	C	0.161518	0.958324	0.185268
C55	C	-0.333033	0.425841	-0.370990
C56	C	0.166967	0.925841	0.129010
C57	C	-0.333042	0.360407	-0.370996
C58	C	0.166958	0.860407	0.129004
C59	C	-0.338501	0.327455	-0.314740
C60	C	0.161499	0.827455	0.185260
C61	C	-0.293616	0.563729	-0.353161
C62	C	0.206384	1.063729	0.146839
C63	C	-0.293616	0.629165	-0.353162
C64	C	0.206384	1.129165	0.146838
C65	C	-0.383325	0.625686	-0.276289
C66	C	0.116675	1.125686	0.223711
C67	C	-0.383329	0.560250	-0.276294
C68	C	0.116671	1.060250	0.223706
C69	C	-0.338470	0.529276	-0.314729
C70	C	0.161530	1.029276	0.185271
C71	C	-0.520966	0.885552	-0.321647
C72	C	-0.020966	1.385552	0.178353
C73	C	-0.599032	0.882607	-0.324625
C74	C	-0.099032	1.382607	0.175375
C75	C	-0.635695	0.921311	-0.285992
C76	C	-0.135695	1.421311	0.214008
C77	C	-0.709046	0.918545	-0.288796
C78	C	-0.209046	1.418545	0.211204
C79	C	-0.745734	0.877072	-0.330230
C80	C	-0.245734	1.377072	0.169770
C81	C	-0.709066	0.838366	-0.368867
C82	C	-0.209066	1.338366	0.131133
C83	C	-0.635716	0.841136	-0.366065
C84	C	-0.135716	1.341136	0.133935
C85	C	-0.967205	0.866707	-0.340695
C86	C	-0.467205	1.366707	0.159305
C87	C	-1.040561	0.863939	-0.343492
C88	C	-0.540561	1.363939	0.156508
C89	C	-1.040536	0.944118	-0.263422
C90	C	-0.540536	1.444118	0.236578
C91	C	-0.967184	0.946882	-0.260622
C92	C	-0.467184	1.446882	0.239378
C93	C	-0.930523	0.908179	-0.299260
C94	C	-0.430523	1.408179	0.200740
C95	C	-0.820711	0.874242	-0.333096
C96	C	-0.320711	1.374242	0.166904
C97	C	-0.855547	0.911012	-0.296397
C98	C	-0.355547	1.411012	0.203603
C99	C	-0.155290	0.899633	-0.307811
C100	C	0.344710	1.399633	0.192189
C101	C	-0.077224	0.902642	-0.304860
C102	C	0.422776	1.402642	0.195140
C103	C	-0.338470	0.892623	-0.478158
C104	C	0.161530	1.392623	0.021842
C105	C	-0.338464	0.892645	-0.547799
C106	C	0.161536	1.392645	-0.047799
C107	C	-0.338512	1.055992	-0.314754
C108	C	0.161488	1.555992	0.185246
C109	C	-0.338523	1.125633	-0.314762
C110	C	0.161477	1.625633	0.185238
C111	C	-0.293547	0.934449	-0.578820
C112	C	0.206453	1.434449	-0.078820
C113	C	-0.293517	0.934449	-0.644254
C114	C	0.206483	1.434449	-0.144254
C115	C	-0.338416	0.892652	-0.678666
C116	C	0.161584	1.392652	-0.178666
C117	C	-0.383336	0.850841	-0.647637
C118	C	0.116664	1.350841	-0.147637
C119	C	-0.383360	0.850837	-0.582204
C120	C	0.116640	1.350837	-0.082204
C121	C	-0.401656	0.885273	-0.784736
C122	C	0.098344	1.385273	-0.284736
C123	C	-0.401633	0.885280	-0.850168
C124	C	0.098367	1.385280	-0.350168
C125	C	-0.338342	0.892659	-0.880484
C126	C	0.161658	1.392659	-0.380484
C127	C	-0.275071	0.900043	-0.845360
C128	C	0.224929	1.400043	-0.345360
C129	C	-0.275095	0.900039	-0.779926
C130	C	0.224905	1.400039	-0.279926
C131	C	-0.338395	0.892651	-0.749617
C132	C	0.161605	1.392651	-0.249617
C133	C	-0.293389	0.934465	-0.982456
C134	C	0.206611	1.434465	-0.482456
C135	C	-0.293357	0.934460	-1.047891
C136	C	0.206643	1.434460	-0.547891
C137	C	-0.383182	0.850855	-1.051273
C138	C	0.116818	1.350855	-0.551273
C139	C	-0.383207	0.850856	-0.985839
C140	C	0.116793	1.350856	-0.485839
C141	C	-0.338312	0.892664	-0.951434
C142	C	0.161688	1.392664	-0.451434
C143	C	-0.338448	0.892556	-0.151946
C144	C	0.161552	1.392556	0.348054
C145	C	-0.338256	0.892662	-0.082298
C146	C	0.161744	1.392662	0.417702
H147	H	-0.328607	0.333962	-0.416803
H148	H	0.171393	0.833962	0.083197
H149	H	-0.257128	0.253577	-0.384479
H150	H	0.242872	0.753577	0.115521
O151	O	-0.431762	0.805760	-0.684751
O152	O	0.068238	1.305760	-0.184751
H153	H	-0.419704	0.757051	-0.671719
H154	H	0.080296	1.257051	-0.171719
O155	O	-0.431792	0.805735	-0.548739
O156	O	0.068208	1.305735	-0.048739
H157	H	-0.463004	0.776665	-0.583657
H158	H	0.036996	1.276665	-0.083657
H159	H	-0.257141	0.134870	-0.384488
H160	H	0.242859	0.634870	0.115512
H161	H	-0.328593	0.452675	-0.416793
H162	H	0.171407	0.952675	0.083207
H163	H	-0.453182	0.879097	-0.760058
H164	H	0.046818	1.379097	-0.260058
H165	H	-0.738894	0.950061	-0.257337
H166	H	-0.238894	1.450061	0.242663
O167	O	-1.080124	0.819199	-0.388185
O168	O	-0.580124	1.319199	0.111815
H169	H	-1.113574	0.786067	-0.361385
H170	H	-0.613574	1.286067	0.138615
O171	O	-0.349803	0.324397	-0.197808
O172	O	0.150197	0.824397	0.302192
H173	H	-0.302740	0.296391	-0.189713
H174	H	0.197260	0.796391	0.310287
O175	O	-0.815974	0.955747	-0.251716
O176	O	-0.315974	1.455747	0.248284
H177	H	-0.830084	0.944498	-0.203068
H178	H	-0.330084	1.444498	0.296932
H179	H	-0.937315	0.980652	-0.226883
H180	H	-0.437315	1.480652	0.273117
H181	H	-0.419912	0.128557	-0.245035
H182	H	0.080088	0.628557	0.254965
H183	H	-0.257090	0.538508	-0.384457
H184	H	0.242910	1.038508	0.115543
H185	H	-0.850591	0.840473	-0.366831
H186	H	-0.350591	1.340473	0.133169
H187	H	-1.070394	0.975629	-0.231965
H188	H	-0.570394	1.475629	0.268035
H189	H	-0.256828	0.968504	-0.954442
H190	H	0.243172	1.468504	-0.454442
H191	H	-0.257089	0.657215	-0.384458
H192	H	0.242911	1.157215	0.115542
O193	O	-0.245124	0.979537	-0.541710
O194	O	0.254876	1.479537	-0.041710
H195	H	-0.213882	1.008603	-0.574278
H196	H	0.286118	1.508603	-0.074278
O197	O	-0.244908	0.979547	-1.081357
O198	O	0.255092	1.479547	-0.581357
H199	H	-0.256975	1.028256	-1.069285
H200	H	0.243025	1.528256	-0.569285
O201	O	-0.431694	0.659090	-0.234827
O202	O	0.068306	1.159090	0.265173
H203	H	-0.424150	0.710380	-0.241275
H204	H	0.075850	1.210380	0.258725
H205	H	-0.419854	0.532199	-0.245000
H206	H	0.080146	1.032199	0.255000
H207	H	-0.738943	0.804601	-0.402606
H208	H	-0.238943	1.304601	0.097394
H209	H	-0.605866	0.809620	-0.397525
H210	H	-0.105866	1.309620	0.102475
O211	O	-0.349810	0.460400	-0.197809
O212	O	0.150190	0.960400	0.302191
H213	H	-0.353616	0.426490	-0.158698
H214	H	0.146384	0.926490	0.341302
H215	H	-0.937361	0.835192	-0.372155
H216	H	-0.437361	1.335192	0.127845
O217	O	-0.431739	0.255452	-0.234857
O218	O	0.068261	0.755452	0.265143
H219	H	-0.424190	0.306742	-0.241302
H220	H	0.075810	0.806742	0.258698
O221	O	-0.206797	0.907985	-0.878045
O222	O	0.293203	1.407985	-0.378045
H223	H	-0.217405	0.906733	-0.929445
H224	H	0.282595	1.406733	-0.429445
H225	H	-0.453152	0.879272	-0.878761
H226	H	0.046848	1.379272	-0.378761
H227	H	-0.256937	0.968489	-0.669516
H228	H	0.243063	1.468489	-0.169516
H229	H	-0.605829	0.955080	-0.252250
H230	H	-0.105829	1.455080	0.247750
O231	O	-0.206860	0.908000	-0.742040
O232	O	0.293140	1.408000	-0.242040
H233	H	-0.162842	0.913129	-0.774108
H234	H	0.337158	1.413129	-0.274108
O235	O	-0.431611	0.805772	-1.088378
O236	O	0.068389	1.305772	-0.588378
H237	H	-0.424051	0.812798	-1.139090
H238	H	0.075949	1.312798	-0.639090
H239	H	-0.419788	0.816819	-0.960582
H240	H	0.080212	1.316819	-0.460582
