data_functionalizedCrystal
_audit_creation_method	'MofGen! by Chris Wilmer'
_symmetry_space_group_name_H-M	'P1'
_symmetry_Int_Tables_number	1
_symmetry_cell_setting	triclinic
loop_
_symmetry_equiv_pos_as_xyz
  x,y,z
_cell_length_a	17.699083
_cell_length_b	9.065218
_cell_length_c	8.140239
_cell_angle_alpha	90.002802
_cell_angle_beta	89.995596
_cell_angle_gamma	95.850550
loop_
_atom_site_label
_atom_site_type_symbol
_atom_site_fract_x
_atom_site_fract_y
_atom_site_fract_z
O1	O	0.110973	-1.957109	-0.136622
O2	O	0.444306	-1.623776	0.196712
O3	O	0.777639	-1.290443	0.530045
O4	O	0.120075	-1.527555	-0.136624
O5	O	0.453409	-1.194221	0.196709
O6	O	0.786742	-0.860888	0.530042
O7	O	0.005429	-1.754468	-0.136608
O8	O	0.338763	-1.421135	0.196725
O9	O	0.672096	-1.087801	0.530058
O10	O	0.225619	-1.730196	-0.136637
O11	O	0.558952	-1.396863	0.196696
O12	O	0.892285	-1.063529	0.530029
O13	O	0.005428	-1.754455	0.136619
O14	O	0.338761	-1.421122	0.469952
O15	O	0.672095	-1.087789	0.803285
O16	O	0.120074	-1.527542	0.136603
O17	O	0.453407	-1.194209	0.469936
O18	O	0.786741	-0.860875	0.803269
O19	O	0.110971	-1.957097	0.136605
O20	O	0.444305	-1.623763	0.469939
O21	O	0.777638	-1.290430	0.803272
Zn22	Zn	0.115522	-1.742317	0.179985
Zn23	Zn	0.448856	-1.408984	0.513318
Zn24	Zn	0.782189	-1.075651	0.846652
Zn25	Zn	0.115524	-1.742334	-0.180004
Zn26	Zn	0.448858	-1.409001	0.153330
Zn27	Zn	0.782191	-1.075667	0.486663
O28	O	0.225617	-1.730183	0.136590
O29	O	0.558951	-1.396850	0.469923
O30	O	0.892284	-1.063517	0.803256
C31	C	0.119200	-1.472588	-0.000011
C32	C	0.452533	-1.139254	0.333322
C33	C	0.785866	-0.805921	0.666656
C34	C	0.116584	-1.308822	-0.000011
C35	C	0.449917	-0.975489	0.333322
C36	C	0.783251	-0.642156	0.666655
C37	C	-0.022775	-1.753592	0.000005
C38	C	0.310558	-1.420259	0.333339
C39	C	0.643892	-1.086925	0.666672
C40	C	-0.106813	-1.750983	0.000006
C41	C	0.226520	-1.417649	0.333339
C42	C	0.559853	-1.084316	0.666673
N43	N	0.115521	-1.742317	0.425667
N44	N	0.448854	-1.408984	0.759001
N45	N	0.782187	-1.075650	1.092334
C46	C	-0.154396	-1.884176	0.000009
C47	C	0.178938	-1.550843	0.333343
C48	C	0.512271	-1.217509	0.666676
C49	C	-0.233358	-1.881716	-0.000005
C50	C	0.099975	-1.548382	0.333328
C51	C	0.433308	-1.215049	0.666661
C52	C	-0.264737	-1.746060	-0.000011
C53	C	0.068596	-1.412727	0.333322
C54	C	0.401930	-1.079394	0.666655
C55	C	-0.217149	-1.612857	-0.000019
C56	C	0.116185	-1.279524	0.333314
C57	C	0.449518	-0.946190	0.666647
C58	C	-0.138188	-1.615319	-0.000017
C59	C	0.195146	-1.281986	0.333317
C60	C	0.528479	-0.948652	0.666650
C61	C	-0.535589	-1.602925	-0.000033
C62	C	-0.202256	-1.269592	0.333301
C63	C	0.131078	-0.936259	0.666634
C64	C	-0.614556	-1.600474	-0.000031
C65	C	-0.281223	-1.267140	0.333303
C66	C	0.052111	-0.933807	0.666636
C67	C	-0.630760	-1.869322	-0.000022
C68	C	-0.297426	-1.535989	0.333312
C69	C	0.035907	-1.202656	0.666645
C70	C	-0.551799	-1.871784	-0.000019
C71	C	-0.218465	-1.538451	0.333315
C72	C	0.114868	-1.205118	0.666648
C73	C	-0.504217	-1.738581	-0.000036
C74	C	-0.170884	-1.405248	0.333298
C75	C	0.162449	-1.071915	0.666631
C76	C	-0.418597	-1.741251	-0.000023
C77	C	-0.085264	-1.407918	0.333310
C78	C	0.248069	-1.074584	0.666644
C79	C	-0.350355	-1.743390	-0.000012
C80	C	-0.017022	-1.410056	0.333321
C81	C	0.316311	-1.076723	0.666654
C82	C	0.253822	-1.731059	-0.000028
C83	C	0.587155	-1.397726	0.333306
C84	C	0.920488	-1.064393	0.666639
C85	C	0.337860	-1.733669	-0.000039
C86	C	0.671193	-1.400335	0.333294
C87	C	1.004527	-1.067002	0.666627
C88	C	0.111847	-2.012064	-0.000012
C89	C	0.445180	-1.678730	0.333322
C90	C	0.778514	-1.345397	0.666655
C91	C	0.114463	-2.175829	-0.000022
C92	C	0.447796	-1.842496	0.333312
C93	C	0.781129	-1.509162	0.666645
N94	N	0.115520	-1.742346	-0.425686
N95	N	0.448853	-1.409013	-0.092353
N96	N	0.782187	-1.075679	0.240980
H97	H	-0.128854	-1.994642	0.000024
H98	H	0.204480	-1.661309	0.333357
H99	H	0.537813	-1.327976	0.666691
C100	C	-0.483259	-1.456398	-0.000060
C101	C	-0.149926	-1.123065	0.333273
C102	C	0.183407	-0.789731	0.666607
N103	N	-0.443842	-1.346026	-0.000085
N104	N	-0.110508	-1.012693	0.333248
N105	N	0.222825	-0.679359	0.666581
H106	H	-0.099446	-1.506859	-0.000019
H107	H	0.233887	-1.173526	0.333314
H108	H	0.567220	-0.840192	0.666647
C109	C	-0.285696	-2.028239	0.000025
C110	C	0.047638	-1.694906	0.333358
C111	C	0.380971	-1.361573	0.666691
N112	N	-0.325116	-2.138608	0.000055
N113	N	0.008217	-1.805274	0.333389
N114	N	0.341550	-1.471941	0.666722
C115	C	-0.517287	-2.021015	-0.000012
C116	C	-0.183954	-1.687681	0.333321
C117	C	0.149380	-1.354348	0.666654
N118	N	-0.491294	-2.133419	-0.000015
N119	N	-0.157961	-1.800086	0.333319
N120	N	0.175372	-1.466752	0.666652
H121	H	-0.242703	-1.502404	-0.000035
H122	H	0.090630	-1.169071	0.333299
H123	H	0.423963	-0.835737	0.666632
H124	H	-0.640101	-1.490001	-0.000032
H125	H	-0.306768	-1.156667	0.333301
H126	H	0.026566	-0.823334	0.666634
C127	C	-0.683106	-2.015850	-0.000021
C128	C	-0.349773	-1.682516	0.333312
C129	C	-0.016440	-1.349183	0.666646
N130	N	-0.722533	-2.126211	-0.000018
N131	N	-0.389199	-1.792877	0.333315
N132	N	-0.055866	-1.459544	0.666649
