data_functionalizedCrystal
_audit_creation_method	'MofGen! by Chris Wilmer'
_symmetry_space_group_name_H-M	'P1'
_symmetry_Int_Tables_number	1
_symmetry_cell_setting	triclinic
loop_
_symmetry_equiv_pos_as_xyz
  x,y,z
_cell_length_a	19.188930
_cell_length_b	10.654550
_cell_length_c	18.266242
_cell_angle_alpha	89.996865
_cell_angle_beta	90.006796
_cell_angle_gamma	96.185144
loop_
_atom_site_label
_atom_site_type_symbol
_atom_site_fract_x
_atom_site_fract_y
_atom_site_fract_z
O1	O	0.098059	-1.665770	0.060836
O2	O	0.107401	-1.300094	0.060850
O3	O	0.001143	-1.493485	0.060828
O4	O	0.204317	-1.472380	0.060857
O5	O	0.001147	-1.493460	-0.060934
O6	O	0.107405	-1.300069	-0.060912
O7	O	0.098062	-1.665745	-0.060926
Zn8	Zn	0.102734	-1.482903	-0.080252
Zn9	Zn	0.102730	-1.482936	0.080175
O10	O	0.204320	-1.472355	-0.060905
C11	C	-0.024870	-1.492789	-0.000055
C12	C	-0.102388	-1.490737	-0.000061
C13	C	0.106717	-1.253298	-0.000029
C14	C	0.104665	-1.113898	-0.000025
C15	C	0.098746	-1.712541	-0.000045
C16	C	0.100799	-1.851941	-0.000045
C17	C	-0.146570	-1.604213	-0.000069
C18	C	-0.219407	-1.602285	-0.000057
C19	C	-0.248058	-1.486876	-0.000052
C20	C	-0.203866	-1.373386	-0.000040
C21	C	-0.131032	-1.375316	-0.000045
N22	N	-0.356639	-1.398651	-0.041487
N23	N	-0.425829	-1.396824	-0.041484
C24	C	-0.467505	-1.481052	-0.000037
N25	N	-0.437377	-1.567194	0.041398
N26	N	-0.368180	-1.569024	0.041392
C27	C	-0.327034	-1.484770	-0.000047
C28	C	-0.590665	-1.592445	-0.000031
C29	C	-0.663502	-1.590513	-0.000015
C30	C	-0.647960	-1.361610	-0.000005
C31	C	-0.575124	-1.363545	-0.000014
C32	C	-0.546481	-1.478966	-0.000031
C33	C	0.230334	-1.473051	-0.000020
C34	C	0.307852	-1.475102	-0.000009
N35	N	0.102736	-1.482890	-0.189739
C36	C	0.167228	-1.033089	-0.000018
C37	C	0.165295	-0.902109	-0.000031
C38	C	0.038231	-0.932761	-0.000055
C39	C	0.040164	-1.063738	-0.000047
C40	C	0.145454	-1.558886	-0.772012
C41	C	0.145461	-1.558872	-0.695367
C42	C	0.102722	-1.482948	-0.657051
C43	C	0.059987	-1.407006	-0.695387
C44	C	0.059987	-1.407012	-0.772030
N45	N	0.041542	-1.479906	-0.536721
N46	N	0.041544	-1.479908	-0.463913
C47	C	0.102722	-1.482924	-0.426129
N48	N	0.163899	-1.485962	-0.463903
N49	N	0.163896	-1.485967	-0.536717
C50	C	0.102719	-1.482932	-0.573944
C51	C	0.145466	-1.558840	-0.304695
C52	C	0.145474	-1.558818	-0.228049
C53	C	0.059995	-1.406958	-0.228070
C54	C	0.059993	-1.406973	-0.304715
C55	C	0.102727	-1.482921	-0.343023
N56	N	0.102721	-1.482959	0.189662
H57	H	-0.123254	-1.698197	-0.000080
C58	C	-0.031374	-1.228819	-0.062645
C59	C	-0.028611	-1.152575	-0.000054
H60	H	-0.073833	-1.283656	-0.062652
H61	H	0.007312	-1.277431	-0.062630
H62	H	-0.029486	-1.177074	-0.105103
H63	H	-0.030493	-1.204320	0.042404
H64	H	-0.067307	-1.103959	-0.000062
C65	C	-0.227460	-1.828739	-0.000087
C66	C	-0.267983	-1.727026	-0.000071
H67	H	-0.257449	-1.905747	-0.000100
H68	H	-0.198727	-1.824754	0.042372
H69	H	-0.198731	-1.824708	-0.042551
H70	H	-0.296709	-1.731052	0.042396
H71	H	-0.296729	-1.731013	-0.042534
C72	C	-0.057226	-1.358350	-0.795648
C73	C	0.013009	-1.323557	-0.814166
H74	H	-0.086228	-1.306834	-0.821667
H75	H	-0.063337	-1.347467	-0.744526
H76	H	-0.069748	-1.444345	-0.808205
H77	H	0.025532	-1.237565	-0.801604
H78	H	0.019123	-1.334430	-0.865299
H79	H	0.180276	-1.620643	-0.196845
H80	H	0.180253	-1.620726	-0.803197
C81	C	0.054758	-1.238117	-0.390916
C82	C	0.013013	-1.323524	-0.346849
H83	H	0.025752	-1.186592	-0.416924
H84	H	0.080204	-1.283340	-0.424699
H85	H	0.086621	-1.186483	-0.361009
H86	H	-0.018847	-1.375165	-0.376757
H87	H	-0.012445	-1.278297	-0.313063
C88	C	-0.456574	-1.264874	-0.000013
C89	C	-0.526554	-1.238809	-0.000011
H90	H	-0.426590	-1.187861	-0.000004
H91	H	-0.447840	-1.312194	-0.042475
H92	H	-0.447832	-1.312228	0.042447
H93	H	-0.535297	-1.191463	-0.042474
H94	H	-0.535292	-1.191469	0.042456
C95	C	-0.021152	-0.745591	-0.000070
C96	C	-0.032666	-0.877620	-0.000069
H97	H	-0.064923	-0.711554	-0.000072
H98	H	0.004630	-0.717837	-0.042525
H99	H	0.004634	-0.717842	0.042397
H100	H	-0.058448	-0.905369	-0.042539
H101	H	-0.058459	-0.905384	0.042391
H102	H	0.180261	-1.620699	-0.664155
C103	C	0.054779	-1.238069	-0.141907
C104	C	0.013023	-1.323478	-0.185967
H105	H	0.025782	-1.186528	-0.115911
H106	H	0.086642	-1.186461	-0.171811
H107	H	0.080224	-1.283299	-0.108107
H108	H	-0.012418	-1.278247	-0.219771
H109	H	-0.018852	-1.375091	-0.156060
H110	H	-0.095058	-1.282908	-0.000039
H111	H	0.025191	-1.345185	-0.664185
C112	C	-0.581463	-1.788140	0.062563
C113	C	-0.559170	-1.719307	-0.000034
H114	H	-0.562016	-1.866455	0.062564
H115	H	-0.631158	-1.803234	0.062562
H116	H	-0.566323	-1.741418	0.105017
H117	H	-0.574314	-1.766026	-0.042488
H118	H	-0.509464	-1.704217	-0.000039
C119	C	0.292630	-0.989630	-0.000004
C120	C	0.238125	-1.088226	-0.000003
H121	H	0.336399	-1.023670	-0.000002
H122	H	0.289233	-0.939183	0.042451
H123	H	0.289227	-0.939184	-0.042471
H124	H	0.241525	-1.138668	0.042467
H125	H	0.241524	-1.138695	-0.042463
H126	H	0.180266	-1.620675	-0.335887
C127	C	-0.754404	-1.721162	0.062582
C128	C	-0.712068	-1.715258	-0.000018
H129	H	-0.784383	-1.798180	0.062581
H130	H	-0.781890	-1.652163	0.062586
H131	H	-0.725650	-1.717166	0.105034
H132	H	-0.740823	-1.719244	-0.042470
H133	H	-0.684580	-1.784276	-0.000029
H134	H	-0.227199	-1.279418	-0.000035
H135	H	0.216240	-0.836318	-0.000027
H136	H	-0.671287	-1.267641	0.000002
