data_functionalizedCrystal
_audit_creation_method	'MofGen! by Chris Wilmer'
_symmetry_space_group_name_H-M	'P1'
_symmetry_Int_Tables_number	1
_symmetry_cell_setting	triclinic
loop_
_symmetry_equiv_pos_as_xyz
  x,y,z
_cell_length_a	12.759401
_cell_length_b	21.395361
_cell_length_c	12.759393
_cell_angle_alpha	89.960721
_cell_angle_beta	89.980163
_cell_angle_gamma	90.032233
loop_
_atom_site_label
_atom_site_type_symbol
_atom_site_fract_x
_atom_site_fract_y
_atom_site_fract_z
Zn1	Zn	1.606138	-0.249376	-0.593964
Zn2	Zn	1.605983	-0.354168	-0.418261
Zn3	Zn	1.430440	-0.249411	-0.418299
Zn4	Zn	1.430380	-0.354122	-0.593898
O5	O	1.518235	-0.301769	-0.506106
O6	O	1.753139	-0.263281	-0.570668
O7	O	1.582658	-0.340306	-0.271245
O8	O	1.453837	-0.161729	-0.441645
O9	O	1.753025	-0.340272	-0.441580
O10	O	1.582921	-0.161703	-0.570706
O11	O	1.453687	-0.263341	-0.271273
O12	O	1.283411	-0.263297	-0.441581
O13	O	1.453734	-0.340193	-0.740928
O14	O	1.283367	-0.340228	-0.570593
O15	O	1.582863	-0.263237	-0.740977
O16	O	1.582599	-0.441840	-0.441516
O17	O	1.453584	-0.441806	-0.570556
C18	C	1.245268	-0.301762	-0.506085
C19	C	1.128491	-0.301773	-0.506101
C20	C	1.073634	-0.341892	-0.573171
C21	C	0.963910	-0.341895	-0.573192
C22	C	0.963911	-0.261658	-0.439063
C23	C	1.073633	-0.261653	-0.439048
C24	C	1.518097	-0.464557	-0.506047
C25	C	1.518133	-0.534198	-0.506057
C26	C	1.585371	-0.566908	-0.438935
C27	C	1.585420	-0.632343	-0.438958
C28	C	1.518212	-0.665067	-0.506093
C29	C	1.450970	-0.632349	-0.573229
C30	C	1.450930	-0.566915	-0.573211
C31	C	1.423614	-0.768782	-0.514329
C32	C	1.423652	-0.834215	-0.514340
C33	C	1.518335	-0.866887	-0.506155
C34	C	1.612983	-0.834119	-0.497937
C35	C	1.612943	-0.768685	-0.497919
C36	C	1.518248	-0.736019	-0.506121
C37	C	1.585631	-0.970550	-0.439054
C38	C	1.585682	-1.035986	-0.439085
C39	C	1.451222	-1.035990	-0.573350
C40	C	1.451181	-0.970555	-0.573325
C41	C	1.518384	-0.937839	-0.506171
C42	C	1.792269	-0.301777	-0.506127
C43	C	1.909045	-0.301781	-0.506136
C44	C	1.518309	-0.301706	-0.780139
C45	C	1.518340	-0.301679	-0.896916
C46	C	1.518403	-0.138346	-0.506187
C47	C	1.518475	-0.068705	-0.506222
C48	C	1.451209	-0.261596	-0.951792
C49	C	1.451233	-0.261577	-1.061516
C50	C	1.585529	-0.341725	-1.061478
C51	C	1.585498	-0.341747	-0.951756
C52	C	1.518223	-0.301787	-0.233138
C53	C	1.518395	-0.301638	-0.116362
H54	H	1.640094	-0.540272	-0.384257
C55	C	1.273375	-0.231037	-1.095280
C56	C	1.377440	-0.217514	-1.121830
H57	H	1.227816	-0.203830	-1.132510
H58	H	1.257963	-0.273124	-1.113243
H59	H	1.263767	-0.225316	-1.022082
H60	H	1.387049	-0.223239	-1.195028
H61	H	1.392857	-0.175417	-1.103875
C62	C	0.930203	-0.372549	-0.751000
C63	C	0.903612	-0.385997	-0.646916
H64	H	0.892982	-0.399780	-0.796515
H65	H	0.912258	-0.330470	-0.766507
H66	H	1.003403	-0.378289	-0.760569
H67	H	0.830413	-0.380253	-0.637345
H68	H	0.921550	-0.428087	-0.631404
C69	C	1.436457	-0.896909	-0.714613
C70	C	1.377260	-0.934597	-0.647101
H71	H	1.390819	-0.874714	-0.760167
H72	H	1.476465	-0.868059	-0.674626
H73	H	1.482222	-0.922396	-0.754845
H74	H	1.331500	-0.909109	-0.606864
H75	H	1.337234	-0.963451	-0.687093
H76	H	0.919231	-0.228994	-0.384469
H77	H	1.118299	-0.228979	-0.384431
C78	C	1.236466	-0.775449	-0.530547
C79	C	1.319530	-0.732872	-0.523339
H80	H	1.172213	-0.753279	-0.536107
H81	H	1.245690	-0.800936	-0.590765
H82	H	1.235154	-0.801001	-0.469644
H83	H	1.320847	-0.707323	-0.584245
H84	H	1.310303	-0.707374	-0.463114
C85	C	1.645212	-0.377276	-1.229659
C86	C	1.659355	-0.385761	-1.121763
H87	H	1.690797	-0.404460	-1.266872
H88	H	1.574625	-0.386440	-1.247626
H89	H	1.660640	-0.335173	-1.247654
H90	H	1.643920	-0.427863	-1.103766
H91	H	1.729958	-0.376601	-1.103788
H92	H	1.396251	-0.658996	-0.627892
H93	H	1.396524	-0.228971	-0.907144
C94	C	1.718260	-0.420967	-0.962731
C95	C	1.659297	-0.385808	-0.891428
H96	H	1.763819	-0.448164	-0.925484
H97	H	1.672474	-0.444922	-1.005508
H98	H	1.758489	-0.393655	-1.005547
H99	H	1.619062	-0.413119	-0.848617
H100	H	1.705089	-0.361851	-0.848633
H101	H	1.118296	-0.374560	-0.627773
H102	H	1.640177	-0.658981	-0.384300
C103	C	1.318317	-1.029418	-0.706062
C104	C	1.377347	-1.071951	-0.647151
H105	H	1.272716	-1.051622	-0.751631
H106	H	1.278139	-1.003945	-0.660244
H107	H	1.364066	-1.003847	-0.746279
H108	H	1.331599	-1.097518	-0.606928
H109	H	1.417529	-1.097435	-0.692975
H110	H	1.690008	-0.742006	-0.491231
H111	H	1.690083	-0.860719	-0.491272
C112	C	1.718544	-0.977115	-0.306345
C113	C	1.659505	-0.934583	-0.365249
H114	H	1.764153	-0.954911	-0.260785
H115	H	1.672808	-1.002684	-0.266129
H116	H	1.758723	-1.002590	-0.352176
H117	H	1.619320	-0.909111	-0.319418
H118	H	1.705246	-0.909003	-0.405468
C119	C	1.727165	-1.109420	-0.424760
C120	C	1.659702	-1.071909	-0.365357
H121	H	1.772896	-1.131584	-0.379257
H122	H	1.687154	-1.138296	-0.464690
H123	H	1.767209	-1.083815	-0.470606
H124	H	1.619652	-1.097514	-0.319516
H125	H	1.699717	-1.043029	-0.325409
H126	H	1.346583	-0.860890	-0.521021
H127	H	1.396176	-0.540282	-0.627871
