data_functionalizedCrystal
_audit_creation_method	'MofGen! by Chris Wilmer'
_symmetry_space_group_name_H-M	'P1'
_symmetry_Int_Tables_number	1
_symmetry_cell_setting	triclinic
loop_
_symmetry_equiv_pos_as_xyz
  x,y,z
_cell_length_a	14.560438
_cell_length_b	14.560438
_cell_length_c	14.560438
_cell_angle_alpha	90.002385
_cell_angle_beta	60.000905
_cell_angle_gamma	60.001166
loop_
_atom_site_label
_atom_site_type_symbol
_atom_site_fract_x
_atom_site_fract_y
_atom_site_fract_z
Zr1	Zr	1.005292	0.884751	-0.120493
O2	O	1.196893	0.738102	-0.267140
O3	O	0.813691	0.929707	-0.075540
O4	O	1.005295	0.929703	-0.267141
O5	O	1.005286	0.738110	0.075601
O6	O	1.005298	1.080841	-0.267138
O7	O	1.005289	0.738106	-0.075540
O8	O	0.662553	1.080849	0.075600
O9	O	1.348031	0.738102	-0.267138
O10	O	0.892501	1.061673	-0.056364
O11	O	0.892497	0.948883	0.056429
O12	O	1.118086	0.948878	-0.169156
O13	O	1.118083	0.836088	-0.056363
Zr14	Zr	1.005292	1.125806	0.120563
Zr15	Zr	1.005296	1.125800	-0.120489
Zr16	Zr	1.005288	0.884758	0.120559
Zr17	Zr	1.246340	0.884752	-0.120488
Zr18	Zr	0.764244	1.125805	0.120559
O19	O	1.196893	1.080850	0.075610
O20	O	1.196898	1.080841	-0.267135
O21	O	1.196887	0.738111	0.075605
O22	O	0.813691	1.272455	0.267210
O23	O	0.813697	1.272446	-0.075535
O24	O	0.813685	0.929716	0.267205
O25	O	1.005298	1.272447	-0.075531
O26	O	1.005289	1.080854	0.267211
O27	O	1.005286	0.929716	0.267209
O28	O	1.005295	1.272451	0.075610
O29	O	1.348034	0.929703	-0.267134
O30	O	0.662550	1.080854	0.267205
O31	O	0.662553	1.272455	0.267208
O32	O	0.662557	1.272450	0.075603
O33	O	1.348027	0.738107	-0.075533
O34	O	1.348031	0.929708	-0.075530
O35	O	0.892498	1.061679	0.169226
O36	O	0.892501	1.174469	0.056433
O37	O	1.118086	1.061674	-0.056359
O38	O	1.118083	0.948884	0.056434
C39	C	0.703778	1.005278	0.000029
C40	C	0.601447	1.005278	0.000027
C41	C	1.005287	0.703764	0.000030
C42	C	1.005285	0.601433	0.000029
C43	C	0.553373	1.064151	-0.058849
C44	C	0.457214	1.064155	-0.058839
C45	C	0.457215	0.946405	0.058927
C46	C	0.553366	0.946408	0.058922
C47	C	0.887534	0.612232	0.058905
C48	C	0.887540	0.516077	0.058915
C49	C	1.123059	0.398327	-0.058836
C50	C	1.123051	0.494481	-0.058839
C51	C	0.751559	0.680214	0.126883
C52	C	0.751565	0.584059	0.126894
C53	C	1.306806	1.005279	0.000041
C54	C	1.409137	1.005279	0.000043
C55	C	1.005297	1.005271	-0.301484
C56	C	1.005299	1.005268	-0.403817
C57	C	1.005297	1.306793	0.000040
C58	C	1.005299	1.409124	0.000042
C59	C	1.123050	0.946392	-0.510770
C60	C	1.123044	0.946405	-0.606919
C61	C	0.887525	1.064173	-0.489149
C62	C	0.887533	1.064166	-0.393002
C63	C	1.005287	1.005286	0.301555
C64	C	1.005285	1.005289	0.403887
C65	C	0.703783	1.306792	0.000034
C66	C	0.601454	1.409123	0.000034
C67	C	0.703773	1.005286	0.301549
C68	C	0.601440	1.005288	0.403880
C69	C	0.703778	1.306800	0.301554
C70	C	0.601447	1.409134	0.403886
C71	C	1.306806	0.703757	-0.301484
C72	C	1.409137	0.601424	-0.403816
C73	C	1.306801	0.703765	0.000036
C74	C	1.409130	0.601434	0.000036
C75	C	1.306811	1.005272	-0.301479
C76	C	1.409144	1.005269	-0.403810
C77	C	0.553377	1.398323	-0.058842
C78	C	0.457236	1.494478	-0.058846
C79	C	0.457253	1.612229	0.058911
C80	C	0.553399	1.516076	0.058908
C81	C	0.553362	1.064166	0.510834
C82	C	0.457219	1.064156	0.606981
C83	C	0.457236	0.946387	0.489206
C84	C	0.553384	0.946392	0.393062
C85	C	0.553372	1.516085	0.393089
C86	C	0.457229	1.612235	0.489245
C87	C	0.457243	1.494467	0.606993
C88	C	0.553390	1.398320	0.510838
H89	H	0.592517	1.112088	-0.106803
H90	H	0.592507	0.898465	0.106872
Cl91	Cl	0.396757	0.872407	0.132968
Cl92	Cl	1.271098	0.872360	-0.524369
Cl93	Cl	0.396797	1.746688	0.475663
H94	H	0.592512	1.311242	-0.106793
H95	H	0.592491	1.112119	0.519649
H96	H	1.218940	0.311237	-0.106765
H97	H	0.791640	1.112116	-0.305910
Cl98	Cl	1.271087	0.480899	-0.132839
H99	H	0.418101	1.485676	0.694083
Cl100	Cl	0.396828	1.746686	0.132926
H101	H	0.699436	0.732374	0.216903
Cl102	Cl	0.686427	0.758819	0.057618
Cl103	Cl	0.396802	1.480894	-0.132868
Cl104	Cl	0.613850	1.529654	0.132924
Cl105	Cl	0.686420	0.570593	0.261297
H106	H	0.592500	1.524896	0.306007
H107	H	0.699369	0.584052	0.089066
H108	H	1.218928	0.898463	-0.694001
Cl109	Cl	0.739485	1.138201	-0.475563
H110	H	0.418073	1.112096	-0.106780
Cl111	Cl	0.396785	1.138174	0.741437
Cl112	Cl	0.396812	0.872355	0.475617
H113	H	0.592533	0.898441	0.305969
Cl114	Cl	0.613839	1.263855	0.524414
