data_functionalizedCrystal
_audit_creation_method	'MofGen! by Chris Wilmer'
_symmetry_space_group_name_H-M	'P1'
_symmetry_Int_Tables_number	1
_symmetry_cell_setting	triclinic
loop_
_symmetry_equiv_pos_as_xyz
  x,y,z
_cell_length_a	12.594517
_cell_length_b	16.625546
_cell_length_c	16.625527
_cell_angle_alpha	89.912139
_cell_angle_beta	89.939794
_cell_angle_gamma	90.022268
loop_
_atom_site_label
_atom_site_type_symbol
_atom_site_fract_x
_atom_site_fract_y
_atom_site_fract_z
Zn1	Zn	1.627628	-0.320547	-0.455906
Zn2	Zn	2.127628	0.179453	0.044094
Zn3	Zn	1.627378	-0.455526	-0.321068
Zn4	Zn	2.127378	0.044474	0.178932
Zn5	Zn	1.449511	-0.320710	-0.321085
Zn6	Zn	1.949511	0.179290	0.178915
Zn7	Zn	1.449594	-0.455341	-0.455857
Zn8	Zn	1.949594	0.044659	0.044143
O9	O	1.538528	-0.388031	-0.388479
O10	O	2.038528	0.111969	0.111521
O11	O	1.776541	-0.338461	-0.438032
O12	O	2.276541	0.161539	0.061968
O13	O	1.603644	-0.437787	-0.208237
O14	O	2.103644	0.062213	0.291763
O15	O	1.473209	-0.207856	-0.338997
O16	O	1.973209	0.292144	0.161003
O17	O	1.776357	-0.437629	-0.338967
O18	O	2.276357	0.062371	0.161033
O19	O	1.604070	-0.207736	-0.438049
O20	O	2.104070	0.292264	0.061951
O21	O	1.472966	-0.338739	-0.208250
O22	O	1.972966	0.161261	0.291750
O23	O	1.300576	-0.338560	-0.338950
O24	O	1.800576	0.161440	0.161050
O25	O	1.473350	-0.437315	-0.568696
O26	O	1.973350	0.062685	-0.068696
O27	O	1.300637	-0.437473	-0.437966
O28	O	1.800637	0.062527	0.062034
O29	O	1.604151	-0.338282	-0.568732
O30	O	2.104151	0.161718	-0.068732
O31	O	1.603725	-0.568333	-0.338920
O32	O	2.103725	-0.068333	0.161080
O33	O	1.473108	-0.568198	-0.437949
O34	O	1.973108	-0.068198	0.062051
C35	C	1.538427	-0.597522	-0.388445
C36	C	2.038427	-0.097522	0.111555
C37	C	1.538481	-0.687143	-0.388458
C38	C	2.038481	-0.187143	0.111542
C39	C	1.261987	-0.388015	-0.388455
C40	C	1.761987	0.111985	0.111545
C41	C	1.143681	-0.388027	-0.388464
C42	C	1.643681	0.111973	0.111536
C43	C	1.538667	-1.015318	-0.388542
C44	C	2.038667	-0.515318	0.111458
C45	C	1.538612	-0.924010	-0.388521
C46	C	2.038612	-0.424010	0.111479
C47	C	1.538573	-0.851234	-0.388499
C48	C	2.038573	-0.351234	0.111501
C49	C	1.538520	-0.759919	-0.388479
C50	C	2.038520	-0.259919	0.111521
C51	C	1.074364	-0.334155	-0.334712
C52	C	1.574364	0.165845	0.165288
C53	C	1.003525	-0.407723	-0.314873
C54	C	1.503525	0.092277	0.185127
C55	C	1.003722	-0.314496	-0.408317
C56	C	1.503722	0.185504	0.091683
C57	C	1.074400	-0.461633	-0.368587
C58	C	1.574400	0.038367	0.131413
C59	C	1.074604	-0.368357	-0.462065
C60	C	1.574604	0.131643	0.037935
C61	C	1.003796	-0.441975	-0.442254
C62	C	1.503796	0.058025	0.057746
C63	C	1.816149	-0.388048	-0.388503
C64	C	2.316149	0.111952	0.111497
C65	C	1.934454	-0.388055	-0.388514
C66	C	2.434454	0.111945	0.111486
C67	C	1.538788	-0.387760	-0.598788
C68	C	2.038788	0.112240	-0.098788
C69	C	1.538898	-0.387644	-0.688410
C70	C	2.038898	0.112356	-0.188410
C71	C	1.538658	-0.177722	-0.388531
C72	C	2.038658	0.322278	0.111469
C73	C	1.538714	-0.088101	-0.388552
C74	C	2.038714	0.411899	0.111448
C75	C	1.538330	-0.388243	-0.178988
C76	C	2.038330	0.111757	0.321012
C77	C	1.538426	-0.388131	-0.089367
C78	C	2.038426	0.111869	0.410633
C79	C	1.538821	-0.387736	0.238808
C80	C	2.038821	0.112264	0.738808
C81	C	1.538714	-0.387848	0.147500
C82	C	2.038714	0.112152	0.647500
C83	C	1.538623	-0.387934	0.074723
C84	C	2.038623	0.112066	0.574723
C85	C	1.538517	-0.388045	-0.016591
C86	C	2.038517	0.111955	0.483409
H87	H	1.105351	-0.288642	-0.289199
H88	H	1.605351	0.211358	0.210801
C89	C	0.961328	-0.430218	-0.230826
C90	C	1.461328	0.069782	0.269174
H91	H	0.919826	-0.477804	-0.234411
H92	H	1.419826	0.022196	0.265589
H93	H	0.918740	-0.387591	-0.210716
H94	H	1.418740	0.112409	0.289284
H95	H	1.019394	-0.439145	-0.195500
H96	H	1.519394	0.060855	0.304500
H97	H	1.105317	-0.523848	-0.351747
H98	H	1.605317	-0.023848	0.148253
C99	C	0.962186	-0.503603	-0.503687
C100	C	1.462186	-0.003603	-0.003687
H101	H	0.986516	-0.555799	-0.489470
H102	H	1.486516	-0.055799	0.010530
H103	H	0.987598	-0.490066	-0.555795
H104	H	1.487598	0.009934	-0.055795
H105	H	0.886761	-0.502973	-0.503680
H106	H	1.386761	-0.002973	-0.003680
C107	C	1.116820	-0.345829	-0.546092
C108	C	1.616820	0.154171	-0.046092
H109	H	1.092666	-0.293530	-0.560102
H110	H	1.592666	0.206470	-0.060102
H111	H	1.091608	-0.383573	-0.584431
H112	H	1.591608	0.116427	-0.084431
H113	H	1.192241	-0.346466	-0.545577
H114	H	1.692241	0.153534	-0.045577
H115	H	0.972619	-0.252308	-0.425060
H116	H	1.472619	0.247692	0.074940
