data_functionalizedCrystal
_audit_creation_method	'MofGen! by Chris Wilmer'
_symmetry_space_group_name_H-M	'P1'
_symmetry_Int_Tables_number	1
_symmetry_cell_setting	triclinic
loop_
_symmetry_equiv_pos_as_xyz
  x,y,z
_cell_length_a	15.298206
_cell_length_b	14.908579
_cell_length_c	15.298159
_cell_angle_alpha	102.326677
_cell_angle_beta	69.206341
_cell_angle_gamma	96.930429
loop_
_atom_site_label
_atom_site_type_symbol
_atom_site_fract_x
_atom_site_fract_y
_atom_site_fract_z
Zn1	Zn	1.286034	0.637618	0.323891
Zn2	Zn	1.786034	1.137618	0.823891
Zn3	Zn	1.303916	0.766179	0.177360
Zn4	Zn	1.803916	1.266179	0.677360
Zn5	Zn	1.160587	0.593142	0.192239
Zn6	Zn	1.660587	1.093142	0.692239
Zn7	Zn	1.121509	0.766218	0.359791
Zn8	Zn	1.621509	1.266218	0.859791
O9	O	1.218012	0.690789	0.263320
O10	O	1.718012	1.190789	0.763320
O11	O	1.417244	0.673269	0.283202
O12	O	1.917244	1.173269	0.783202
O13	O	1.308741	0.724595	0.047890
O14	O	1.808741	1.224595	0.547890
O15	O	1.186099	0.472805	0.200906
O16	O	1.686099	0.972805	0.700906
O17	O	1.430381	0.767723	0.175547
O18	O	1.930381	1.267723	0.675547
O19	O	1.278265	0.505482	0.297629
O20	O	1.778265	1.005482	0.797629
O21	O	1.203438	0.597465	0.058821
O22	O	1.703438	1.097465	0.558821
O23	O	1.026566	0.597503	0.235716
O24	O	1.526566	1.097503	0.735716
O25	O	1.119496	0.767789	0.486473
O26	O	1.619496	1.267789	0.986473
O27	O	0.997855	0.724662	0.358816
O28	O	1.497855	1.224662	0.858816
O29	O	1.240372	0.673307	0.460097
O30	O	1.740372	1.173307	0.960097
O31	O	1.270848	0.892421	0.210358
O32	O	1.770848	1.392421	0.710358
O33	O	1.136835	0.892450	0.344388
O34	O	1.636835	1.392450	0.844388
C35	C	0.978804	0.656261	0.302777
C36	C	1.478804	1.156261	0.802777
C37	C	0.876465	0.641515	0.319680
C38	C	1.376465	1.141515	0.819680
C39	C	0.821528	0.585514	0.383776
C40	C	1.321528	1.085514	0.883776
C41	C	0.725375	0.571650	0.399660
C42	C	1.225375	1.071650	0.899660
C43	C	0.684148	0.613793	0.351454
C44	C	1.184148	1.113793	0.851454
C45	C	0.739084	0.669801	0.287362
C46	C	1.239084	1.169801	0.787362
C47	C	0.835248	0.683660	0.271471
C48	C	1.335248	1.183660	0.771471
C49	C	0.697868	0.711939	0.239149
C50	C	1.197868	1.211939	0.739149
C51	C	0.752803	0.767947	0.175057
C52	C	1.252803	1.267947	0.675057
C53	C	0.848957	0.781803	0.159170
C54	C	1.348957	1.281803	0.659170
C55	C	0.890184	0.739661	0.207375
C56	C	1.390184	1.239661	0.707375
C57	C	0.601704	0.698080	0.255040
C58	C	1.101704	1.198080	0.755040
C59	C	0.615423	0.796226	0.142735
C60	C	1.115423	1.296226	0.642735
C61	C	0.711576	0.810089	0.126851
C62	C	1.211576	1.310089	0.626851
C63	C	1.201563	0.925173	0.279670
C64	C	1.701563	1.425173	0.779670
C65	C	1.194604	1.025461	0.286683
C66	C	1.694604	1.525461	0.786683
C67	C	1.173580	0.725514	0.508320
C68	C	1.673580	1.225514	1.008320
C69	C	1.154646	0.740312	0.612725
C70	C	1.654646	1.240312	1.112725
C71	C	1.458153	0.725453	0.223710
C72	C	1.958153	1.225453	0.723710
C73	C	1.560487	0.740224	0.206831
C74	C	2.060487	1.240224	0.706831
C75	C	1.321180	1.213851	0.160370
C76	C	1.821180	1.713851	0.660370
C77	C	1.314645	1.308080	0.166955
C78	C	1.814645	1.808080	0.666955
C79	C	1.175005	1.308150	0.306441
C80	C	1.675005	1.808150	0.806441
C81	C	1.181540	1.213921	0.299856
C82	C	1.681540	1.713921	0.799856
C83	C	1.254629	1.166775	0.226817
C84	C	1.754629	1.666775	0.726817
C85	C	1.261159	1.072543	0.220229
C86	C	1.761159	1.572543	0.720229
C87	C	1.121523	1.072616	0.359718
C88	C	1.621523	1.572616	0.859718
C89	C	1.114989	1.166845	0.366303
C90	C	1.614989	1.666845	0.866303
C91	C	1.234538	1.455497	0.246936
C92	C	1.734538	1.955497	0.746936
C93	C	1.241560	1.355232	0.239987
C94	C	1.741560	1.855232	0.739987
C95	C	1.353017	0.585265	0.852093
C96	C	1.853017	1.085265	1.352093
C97	C	1.370812	0.571364	0.753999
C98	C	1.870812	1.071364	1.253999
C99	C	1.316772	0.613599	0.718676
C100	C	1.816772	1.113599	1.218676
C101	C	1.244934	0.669739	0.781456
C102	C	1.744934	1.169739	1.281456
C103	C	1.227142	0.683646	0.879559
C104	C	1.727142	1.183646	1.379559
C105	C	1.190897	0.711981	0.746141
C106	C	1.690897	1.211981	1.246141
C107	C	1.119059	0.768120	0.808922
C108	C	1.619059	1.268120	1.308922
C109	C	1.101270	0.782025	0.907015
C110	C	1.601270	1.282025	1.407015
C111	C	1.155310	0.739790	0.942338
C112	C	1.655310	1.239790	1.442338
C113	C	1.208689	0.698073	0.648038
C114	C	1.708689	1.198073	1.148038
C115	C	1.082815	0.796455	0.675504
C116	C	1.582815	1.296455	1.175504
C117	C	1.065020	0.810356	0.773598
C118	C	1.565020	1.310356	1.273598
C119	C	1.262259	0.656216	1.019276
C120	C	1.762259	1.156216	1.519276
C121	C	1.281185	0.641408	0.914873
C122	C	1.781185	1.141408	1.414873
H123	H	0.893686	0.827400	0.106973
H124	H	1.393686	1.327400	0.606973
H125	H	1.042782	0.827746	0.958128
H126	H	1.542782	1.327746	1.458128
O127	O	1.096185	1.359022	0.385208
O128	O	1.596185	1.859022	0.885208
H129	H	1.099799	1.353629	0.455085
H130	H	1.599799	1.853629	0.955085
O131	O	1.036149	1.217692	0.445068
O132	O	1.536149	1.717692	0.945068
H133	H	1.042778	1.291123	0.438479
H134	H	1.542778	1.791123	0.938479
O135	O	1.448291	0.510821	0.686293
O136	O	1.948291	1.010821	1.186293
H137	H	1.418423	0.452642	0.645189
H138	H	1.918423	0.952642	1.145189
H139	H	1.038812	0.830848	0.646745
H140	H	1.538812	1.330848	1.146745
H141	H	0.581857	0.830543	0.103483
H142	H	1.081857	1.330543	0.603483
H143	H	1.331265	0.602278	0.638802
H144	H	1.831265	1.102278	1.138802
H145	H	1.267180	0.652363	0.596932
H146	H	1.767180	1.152363	1.096932
H147	H	0.605857	0.602499	0.364387
H148	H	1.105857	1.102499	0.864387
O149	O	0.987537	0.870902	0.841314
O150	O	1.487537	1.370902	1.341314
H151	H	1.017409	0.929086	0.882408
H152	H	1.517409	1.429086	1.382408
H153	H	0.756318	0.855691	0.074667
H154	H	1.256318	1.355691	0.574667
O155	O	0.666128	0.511250	0.468787
O156	O	1.166128	1.011250	0.968787
H157	H	0.633148	0.453022	0.430855
H158	H	1.133148	0.953022	0.930855
O159	O	1.411281	0.539720	0.890213
O160	O	1.911281	1.039720	1.390213
H161	H	1.485868	0.562956	0.860563
H162	H	1.985868	1.062956	1.360563
H163	H	0.855106	0.551202	0.423013
H164	H	1.355106	1.051202	0.923013
O165	O	1.136111	0.754784	1.048145
O166	O	1.636111	1.254784	1.548145
H167	H	1.185758	0.715982	1.062155
H168	H	1.685758	1.215982	1.562155
H169	H	0.556985	0.652476	0.307223
H170	H	1.056985	1.152476	0.807223
H171	H	1.368840	1.346406	0.112848
H172	H	1.868840	1.846406	0.612848
O173	O	1.049726	1.021851	0.431395
O174	O	1.549726	1.521851	0.931395
H175	H	1.085186	0.991587	0.469441
H176	H	1.585186	1.491587	0.969441
O177	O	0.993901	0.754597	0.190222
O178	O	1.493901	1.254597	0.690222
H179	H	1.013335	0.715876	0.234504
H180	H	1.513335	1.215876	0.734504
H181	H	1.380686	1.175462	0.100893
H182	H	1.880686	1.675462	0.600893
O183	O	1.339990	1.021687	0.141461
O184	O	1.839990	1.521687	0.641461
H185	H	1.385176	1.070260	0.096370
H186	H	1.885176	1.570260	0.596370
