data_functionalizedCrystal
_audit_creation_method	'MofGen! by Chris Wilmer'
_symmetry_space_group_name_H-M	'P1'
_symmetry_Int_Tables_number	1
_symmetry_cell_setting	triclinic
loop_
_symmetry_equiv_pos_as_xyz
  x,y,z
_cell_length_a	17.699083
_cell_length_b	14.044220
_cell_length_c	16.176319
_cell_angle_alpha	89.992517
_cell_angle_beta	89.998611
_cell_angle_gamma	88.235946
loop_
_atom_site_label
_atom_site_type_symbol
_atom_site_fract_x
_atom_site_fract_y
_atom_site_fract_z
O1	O	1.012346	0.119850	-0.068632
O2	O	0.793044	0.135443	-0.068659
O3	O	0.899403	-0.010330	-0.068638
O4	O	0.905987	0.265624	-0.068653
O5	O	0.899387	-0.010340	0.068855
O6	O	0.793027	0.135434	0.068834
O7	O	1.012330	0.119841	0.068861
Cu8	Cu	0.902677	0.127637	0.081402
Cu9	Cu	0.902696	0.127648	-0.081200
O10	O	0.905970	0.265614	0.068840
C11	C	0.764800	0.134880	0.000084
C12	C	0.680666	0.133204	0.000074
C13	C	0.896513	-0.045643	0.000109
C14	C	0.887917	-0.150849	0.000109
C15	C	0.637948	0.218769	0.000069
C16	C	0.558895	0.217189	0.000080
C17	C	0.522563	0.130041	0.000089
C18	C	0.565287	0.044469	0.000096
C19	C	0.644338	0.046050	0.000092
C20	C	0.246484	0.038089	0.000117
C21	C	0.167427	0.036514	0.000120
C22	C	0.161041	0.209227	0.000106
C23	C	0.240092	0.210809	0.000101
C24	C	0.282809	0.125237	0.000112
C25	C	0.368527	0.126952	0.000102
C26	C	0.436847	0.128325	0.000094
C27	C	0.872202	-0.343474	0.000095
C28	C	0.933168	-0.401248	0.000100
C29	C	0.924424	-0.508431	0.000092
C30	C	0.880945	-0.236281	0.000102
C31	C	1.040574	0.120404	0.000116
C32	C	1.124707	0.122081	0.000121
C33	C	0.908860	0.300927	0.000091
C34	C	0.917456	0.406133	0.000086
N35	N	0.902668	0.127628	0.195767
N36	N	0.902710	0.127648	-0.195565
C37	C	0.949782	0.063106	0.239041
C38	C	0.949786	0.063105	0.325588
C39	C	0.902679	0.127632	0.368860
C40	C	0.855561	0.192157	0.325580
C41	C	0.855554	0.192153	0.239034
C42	C	0.855588	0.192175	0.674608
C43	C	0.855600	0.192176	0.761160
C44	C	0.949820	0.063127	0.761161
C45	C	0.949813	0.063123	0.674616
C46	C	0.902692	0.127644	0.631344
C47	C	0.902687	0.127643	0.537500
C48	C	0.902687	0.127638	0.462702
H49	H	0.667523	0.289735	0.000061
H50	H	0.991930	-0.370212	0.000052
C51	C	0.792822	-0.385393	0.000083
C52	C	0.784077	-0.494148	0.000077
C53	C	0.704699	-0.536081	0.000067
C54	C	0.634064	-0.469259	0.000063
C55	C	0.642806	-0.360498	0.000069
C56	C	0.722185	-0.318565	0.000079
H57	H	0.836367	-0.543620	0.000080
H58	H	0.698227	-0.616594	0.000062
H59	H	0.575303	-0.500300	0.000055
H60	H	0.590516	-0.311026	0.000066
H61	H	0.728656	-0.238052	0.000084
C62	C	1.001649	-0.007858	0.808762
C63	C	0.967199	-0.080299	0.868270
C64	C	1.019029	-0.151279	0.915868
C65	C	1.105308	-0.149818	0.903957
C66	C	1.139763	-0.077374	0.844446
C67	C	1.087933	-0.006393	0.796849
H68	H	0.903326	-0.081383	0.877089
H69	H	0.993523	-0.204907	0.959921
H70	H	1.143676	-0.202362	0.939192
H71	H	1.203636	-0.076289	0.835627
H72	H	1.113439	0.047235	0.752795
C73	C	1.001600	-0.007876	0.191446
C74	C	1.053420	-0.078853	0.239051
C75	C	1.105239	-0.149839	0.191460
C76	C	1.105237	-0.149849	0.096263
C77	C	1.053415	-0.078869	0.048653
C78	C	1.001597	-0.007883	0.096244
H79	H	1.053423	-0.078848	0.309526
H80	H	1.143600	-0.202383	0.226705
H81	H	1.143596	-0.202397	0.061033
H82	H	1.053412	-0.078874	-0.021822
H83	H	0.963235	0.044661	0.060999
H84	H	0.988148	0.010566	0.360821
H85	H	0.988174	0.010583	0.639387
H86	H	0.524117	0.286865	0.000075
H87	H	0.817188	0.244692	0.203802
H88	H	0.817238	0.244723	0.796390
H89	H	0.817222	0.244712	0.639383
C90	C	0.803742	0.263139	0.373174
C91	C	0.803785	0.263197	0.468371
C92	C	0.751967	0.334183	0.515963
C93	C	0.700106	0.405112	0.468357
C94	C	0.700060	0.405057	0.373155
C95	C	0.751879	0.334070	0.325564
H96	H	0.842178	0.210689	0.503616
H97	H	0.752001	0.334224	0.586438
H98	H	0.661747	0.457660	0.503587
H99	H	0.661668	0.457565	0.337911
H100	H	0.751845	0.334030	0.255089
H101	H	0.269670	0.281773	0.000089
H102	H	0.126251	0.278904	0.000101
H103	H	0.281255	-0.031590	0.000127
C104	C	0.525322	-0.051395	0.000107
C105	C	0.471853	-0.076235	0.071505
C106	C	0.431890	-0.172101	0.071512
C107	C	0.445395	-0.243126	0.000121
C108	C	0.498867	-0.218287	-0.071282
C109	C	0.538830	-0.122421	-0.071290
H110	H	0.461854	-0.023657	0.124358
H111	H	0.392307	-0.190488	0.124370
H112	H	0.415812	-0.314091	0.000127
H113	H	0.508866	-0.270865	-0.124135
H114	H	0.578413	-0.104034	-0.124148
C115	C	0.691332	-0.048073	0.000094
C116	C	0.746556	-0.070740	0.071491
C117	C	0.793550	-0.164866	0.071497
C118	C	0.785319	-0.236325	0.000106
C119	C	0.730093	-0.213660	-0.071296
C120	C	0.683099	-0.119534	-0.071303
H121	H	0.752651	-0.017840	0.124344
H122	H	0.834432	-0.181644	0.124355
H123	H	0.820107	-0.306003	0.000111
H124	H	0.723998	-0.266560	-0.124149
H125	H	0.642217	-0.102756	-0.124160
H126	H	0.137848	-0.034456	0.000128
