data_functionalizedCrystal
_audit_creation_method	'MofGen! by Chris Wilmer'
_symmetry_space_group_name_H-M	'P1'
_symmetry_Int_Tables_number	1
_symmetry_cell_setting	triclinic
loop_
_symmetry_equiv_pos_as_xyz
  x,y,z
_cell_length_a	23.532407
_cell_length_b	27.731996
_cell_length_c	22.610064
_cell_angle_alpha	89.998076
_cell_angle_beta	89.997161
_cell_angle_gamma	82.735033
loop_
_atom_site_label
_atom_site_type_symbol
_atom_site_fract_x
_atom_site_fract_y
_atom_site_fract_z
O1	O	0.755125	0.058674	-0.049118
O2	O	1.255125	0.558674	0.450882
O3	O	0.589242	0.067164	-0.049137
O4	O	1.089242	0.567164	0.450863
O5	O	0.677351	-0.007472	-0.049114
O6	O	1.177351	0.492528	0.450886
O7	O	0.667016	0.133309	-0.049141
O8	O	1.167016	0.633309	0.450859
O9	O	0.677335	-0.007461	0.049255
O10	O	1.177335	0.492539	0.549255
O11	O	0.589226	0.067175	0.049232
O12	O	1.089226	0.567175	0.549232
O13	O	0.755110	0.058684	0.049251
O14	O	1.255110	0.558684	0.549251
Zn15	Zn	0.672166	0.062931	0.064860
Zn16	Zn	1.172166	0.562931	0.564860
Zn17	Zn	0.672186	0.062917	-0.064746
Zn18	Zn	1.172186	0.562917	0.435254
O19	O	0.667001	0.133320	0.049228
O20	O	1.167001	0.633320	0.549228
C21	C	0.568019	0.066953	0.000046
C22	C	1.068019	0.566953	0.500046
C23	C	0.504803	0.066303	0.000039
C24	C	1.004803	0.566303	0.500039
C25	C	0.677131	-0.025474	0.000072
C26	C	1.177131	0.474526	0.500072
C27	C	0.676491	-0.079131	0.000078
C28	C	1.176491	0.420869	0.500078
C29	C	0.105606	0.106394	0.000058
C30	C	0.605606	0.606394	0.500058
C31	C	0.046207	0.105790	0.000062
C32	C	0.546207	0.605790	0.500062
O33	O	0.009375	0.142955	0.000077
O34	O	0.509375	0.642955	0.500077
N35	N	0.023685	0.061419	0.000070
N36	N	0.523685	0.561419	0.500070
C37	C	0.060566	0.017649	0.000079
C38	C	0.560566	0.517649	0.500079
O39	O	0.035955	-0.020147	0.000086
O40	O	0.535955	0.479853	0.500086
C41	C	0.119963	0.018253	0.000080
C42	C	0.619963	0.518253	0.500080
C43	C	0.142482	0.062627	0.000066
C44	C	0.642482	0.562627	0.500066
C45	C	0.128124	0.150764	0.000046
C46	C	0.628124	0.650764	0.500046
C47	C	0.187519	0.151368	0.000041
C48	C	0.687519	0.651368	0.500041
C49	C	0.224395	0.107601	0.000049
C50	C	0.724395	0.607601	0.500049
C51	C	0.201876	0.063231	0.000061
C52	C	0.701876	0.563231	0.500061
C53	C	0.156843	-0.025516	0.000094
C54	C	0.656843	0.474484	0.500094
C55	C	0.216244	-0.024908	0.000095
C56	C	0.716244	0.475092	0.500095
C57	C	0.238762	0.019466	0.000081
C58	C	0.738762	0.519466	0.500081
C59	C	0.298147	0.020068	0.000065
C60	C	0.798147	0.520068	0.500065
N61	N	0.320669	0.064439	0.000057
N62	N	0.820669	0.564439	0.500057
C63	C	0.283793	0.108206	0.000049
C64	C	0.783793	0.608206	0.500049
C65	C	-0.064174	0.016383	0.000079
C66	C	0.435826	0.516383	0.500079
C67	C	-0.123570	0.015778	0.000075
C68	C	0.376430	0.515778	0.500075
C69	C	-0.137925	0.103920	0.000058
C70	C	0.362075	0.603920	0.500058
C71	C	-0.078528	0.104524	0.000059
C72	C	0.421472	0.604524	0.500059
C73	C	-0.041652	0.060754	0.000072
C74	C	0.458348	0.560754	0.500072
C75	C	0.408526	0.109470	0.000039
C76	C	0.908526	0.609470	0.500039
C77	C	0.467927	0.110070	0.000031
C78	C	0.967927	0.610070	0.500031
C79	C	0.482277	0.021929	0.000050
C80	C	0.982277	0.521929	0.500050
C81	C	0.422881	0.021329	0.000055
C82	C	0.922881	0.521329	0.500055
C83	C	0.386007	0.065103	0.000051
C84	C	0.886007	0.565103	0.500051
O85	O	0.335014	-0.017077	0.000053
O86	O	0.835014	0.482923	0.500053
O87	O	0.308412	0.145996	0.000050
O88	O	0.808412	0.645996	0.500050
C89	C	0.672477	-0.411860	-0.053572
C90	C	1.172477	0.088140	0.446428
C91	C	0.670048	-0.613522	-0.053583
C92	C	1.170048	-0.113522	0.446417
O93	O	0.669717	-0.639598	-0.099186
O94	O	1.169717	-0.139598	0.400814
N95	N	0.669738	-0.638733	0.000038
N96	N	1.169738	-0.138733	0.500038
C97	C	0.670032	-0.613526	0.053665
C98	C	1.170032	-0.113526	0.553665
O99	O	0.669706	-0.639597	0.099272
O100	O	1.169706	-0.139597	0.599272
C101	C	0.672456	-0.411864	0.053675
C102	C	1.172456	0.088136	0.553675
C103	C	0.672772	-0.386656	0.000051
C104	C	1.172772	0.113344	0.500051
C105	C	0.672792	-0.386651	-0.107192
C106	C	1.172792	0.113349	0.392808
C107	C	0.673402	-0.336239	-0.107188
C108	C	1.173402	0.163761	0.392812
C109	C	0.673697	-0.311036	-0.053566
C110	C	1.173697	0.188964	0.446434
C111	C	0.673382	-0.336244	0.000054
C112	C	1.173382	0.163756	0.500054
C113	C	0.672745	-0.386658	0.107301
C114	C	1.172745	0.113342	0.607301
C115	C	0.673350	-0.336239	0.107299
C116	C	1.173350	0.163761	0.607299
C117	C	0.673665	-0.311030	0.053675
C118	C	1.173665	0.188970	0.553675
C119	C	0.674287	-0.260628	0.053680
C120	C	1.174287	0.239372	0.553680
N121	N	0.674597	-0.235417	0.000060
N122	N	1.174597	0.264583	0.500060
C123	C	0.674302	-0.260620	-0.053563
C124	C	1.174302	0.239380	0.446437
C125	C	0.668760	-0.719401	0.053656
C126	C	1.168760	-0.219401	0.553656
C127	C	0.668155	-0.769817	0.053653
C128	C	1.168155	-0.269817	0.553653
C129	C	0.668171	-0.769809	-0.053594
C130	C	1.168171	-0.269809	0.446406
C131	C	0.668780	-0.719393	-0.053591
C132	C	1.168780	-0.219393	0.446409
C133	C	0.669070	-0.694190	0.000035
C134	C	1.169070	-0.194190	0.500035
C135	C	0.675584	-0.154751	-0.053552
C136	C	1.175584	0.345249	0.446448
C137	C	0.676197	-0.104335	-0.053545
C138	C	1.176197	0.395665	0.446455
C139	C	0.676178	-0.104347	0.053703
C140	C	1.176178	0.395653	0.553703
C141	C	0.675568	-0.154759	0.053695
C142	C	1.175568	0.345241	0.553695
C143	C	0.675269	-0.179960	0.000063
C144	C	1.175269	0.320040	0.500063
O145	O	0.674612	-0.234520	0.099259
O146	O	1.174612	0.265480	0.599259
O147	O	0.674615	-0.234539	-0.099164
O148	O	1.174615	0.265461	0.400836
C149	C	0.671867	-0.462272	-0.053575
C150	C	1.171867	0.037728	0.446425
C151	C	0.671551	-0.487480	0.000044
C152	C	1.171551	0.012520	0.500044
C153	C	0.671846	-0.462277	0.053667
C154	C	1.171846	0.037723	0.553667
C155	C	0.670946	-0.537896	0.000042
C156	C	1.170946	-0.037896	0.500042
C157	C	0.670651	-0.563099	-0.053581
C158	C	1.170651	-0.063099	0.446419
C159	C	0.670961	-0.537888	-0.107201
C160	C	1.170961	-0.037888	0.392799
C161	C	0.671572	-0.487475	-0.107198
C162	C	1.171572	0.012525	0.392802
C163	C	0.671536	-0.487488	0.107288
C164	C	1.171536	0.012512	0.607288
C165	C	0.670927	-0.537901	0.107280
C166	C	1.170927	-0.037901	0.607280
C167	C	0.670632	-0.563104	0.053657
C168	C	1.170632	-0.063104	0.553657
C169	C	0.776333	0.058895	0.000067
C170	C	1.276333	0.558895	0.500067
C171	C	0.839549	0.059545	0.000070
C172	C	1.339549	0.559545	0.500070
C173	C	0.667221	0.151323	0.000040
C174	C	1.167221	0.651323	0.500040
C175	C	0.667860	0.204980	0.000031
C176	C	1.167860	0.704980	0.500031
N177	N	0.672156	0.062941	0.153312
N178	N	1.172156	0.562941	0.653312
N179	N	0.672200	0.062904	-0.153198
N180	N	1.172200	0.562904	0.346802
C181	C	0.711202	0.029873	0.561964
C182	C	1.211202	0.529873	1.061964
C183	C	0.711205	0.029870	0.623884
C184	C	1.211205	0.529870	1.123884
O185	O	0.744380	0.001762	0.655911
O186	O	1.244380	0.501762	1.155911
N187	N	0.672186	0.062907	0.654849
N188	N	1.172186	0.562907	1.154849
C189	C	0.633157	0.095947	0.623892
C190	C	1.133157	0.595947	1.123892
O191	O	0.599967	0.124047	0.655917
O192	O	1.099967	0.624047	1.155917
C193	C	0.633151	0.095947	0.561973
C194	C	1.133151	0.595947	1.061973
C195	C	0.672178	0.062911	0.531011
C196	C	1.172178	0.562911	1.031011
C197	C	0.750225	-0.003160	0.531001
C198	C	1.250225	0.496840	1.031001
C199	C	0.750223	-0.003156	0.469085
C200	C	1.250223	0.496844	0.969085
C201	C	0.711198	0.029882	0.438132
C202	C	1.211198	0.529882	0.938132
C203	C	0.672175	0.062916	0.469095
C204	C	1.172175	0.562916	0.969095
C205	C	0.594120	0.128984	0.531017
C206	C	1.094120	0.628984	1.031017
C207	C	0.594118	0.128982	0.469094
C208	C	1.094118	0.628982	0.969094
C209	C	0.633144	0.095946	0.438132
C210	C	1.133144	0.595946	0.938132
C211	C	0.633148	0.095958	0.376227
C212	C	1.133148	0.595958	0.876227
N213	N	0.672168	0.062921	0.345261
N214	N	1.172168	0.562921	0.845261
C215	C	0.711193	0.029883	0.376214
C216	C	1.211193	0.529883	0.876214
C217	C	0.633170	0.095942	0.753926
C218	C	1.133170	0.595942	1.253926
C219	C	0.633177	0.095944	0.815843
C220	C	1.133177	0.595944	1.315843
C221	C	0.711225	0.029866	0.815831
C222	C	1.211225	0.529866	1.315831
C223	C	0.711220	0.029867	0.753912
C224	C	1.211220	0.529867	1.253912
C225	C	0.672190	0.062905	0.722960
C226	C	1.172190	0.562905	1.222960
C227	C	0.711185	0.029894	0.246186
C228	C	1.211185	0.529894	0.746186
C229	C	0.711181	0.029903	0.184265
C230	C	1.211181	0.529903	0.684265
C231	C	0.633131	0.095978	0.184283
C232	C	1.133131	0.595978	0.684283
C233	C	0.633137	0.095972	0.246199
C234	C	1.133137	0.595972	0.746199
C235	C	0.672166	0.062926	0.277149
C236	C	1.172166	0.562926	0.777149
O237	O	0.599989	0.124050	0.344160
O238	O	1.099989	0.624050	0.844160
O239	O	0.744371	0.001783	0.344182
O240	O	1.244371	0.501783	0.844182
H241	H	0.486258	0.146206	0.000020
H242	H	0.986258	0.646206	0.500020
O243	O	0.670585	-0.565088	0.165121
O244	O	1.170585	-0.065088	0.665121
H245	H	0.670886	-0.539087	0.202406
H246	H	1.170886	-0.039087	0.702406
H247	H	0.671777	-0.466973	0.150955
H248	H	1.171777	0.033027	0.650955
H249	H	0.742965	0.002985	0.271379
H250	H	1.242965	0.502985	0.771379
H251	H	0.673577	-0.315720	0.150969
H252	H	1.173577	0.184280	0.650969
O253	O	0.675244	-0.181957	0.111529
O254	O	1.175244	0.318043	0.611529
H255	H	0.636137	-0.200431	0.114090
H256	H	1.136137	0.299569	0.614090
O257	O	0.591092	0.131588	0.849226
O258	O	1.091092	0.631588	1.349226
H259	H	0.563593	0.111368	0.877444
H260	H	1.063593	0.611368	1.377444
H261	H	0.246266	-0.060551	0.000106
H262	H	0.746266	0.439449	0.500106
O263	O	0.368759	0.156682	0.000029
O264	O	0.868759	0.656682	0.500029
H265	H	0.394405	0.187633	0.000014
H266	H	0.894405	0.687633	0.500014
O267	O	0.676529	-0.077144	-0.111384
O268	O	1.176529	0.422856	0.388616
H269	H	0.676213	-0.103142	-0.148670
H270	H	1.176213	0.396858	0.351330
O271	O	-0.054242	0.152384	0.000048
O272	O	0.445758	0.652384	0.500048
H273	H	-0.027525	0.154771	0.040141
H274	H	0.472475	0.654771	0.540141
H275	H	0.742962	0.003001	0.159057
H276	H	1.242962	0.503001	0.659057
O277	O	0.792312	-0.038792	0.435694
O278	O	1.292312	0.461208	0.935694
H279	H	0.768550	-0.062181	0.407486
H280	H	1.268550	0.437819	0.907486
O281	O	0.132564	-0.073377	0.000121
O282	O	0.632564	0.426623	0.500121
H283	H	0.168193	-0.103704	0.000137
H284	H	0.668193	0.396296	0.500137
O285	O	0.792327	-0.038791	0.564382
O286	O	1.292327	0.461209	1.064382
H287	H	0.819461	-0.061753	0.532439
H288	H	1.319461	0.438247	1.032439
O289	O	0.753306	-0.005769	0.720517
O290	O	1.253306	0.494231	1.220517
H291	H	0.780439	-0.028742	0.752449
H292	H	1.280439	0.471258	1.252449
H293	H	0.205847	0.187502	0.000030
H294	H	0.705847	0.687502	0.500030
O295	O	0.675257	-0.181928	-0.111397
O296	O	1.175257	0.318072	0.388603
H297	H	0.675580	-0.155923	-0.148677
H298	H	1.175580	0.344077	0.351323
H299	H	0.743001	0.002964	0.841044
H300	H	1.243001	0.502964	1.341044
O301	O	-0.177704	0.151128	0.000060
O302	O	0.322296	0.651128	0.500060
H303	H	-0.222788	0.143249	0.000070
H304	H	0.277212	0.643249	0.500070
H305	H	0.601388	0.122849	0.728728
H306	H	1.101388	0.622849	1.228728
O307	O	0.676495	-0.077159	0.111538
O308	O	1.176495	0.422841	0.611538
H309	H	0.676966	-0.037867	0.102526
H310	H	1.176966	0.462133	0.602526
O311	O	0.552048	0.164634	0.564404
O312	O	1.052048	0.664634	1.064404
H313	H	0.524918	0.187606	0.532469
H314	H	1.024918	0.687606	1.032469
H315	H	0.098105	0.186406	0.000041
H316	H	0.598105	0.686406	0.500041
H317	H	0.562333	0.155885	0.443896
H318	H	1.062333	0.655885	0.943896
H319	H	0.601364	0.122878	0.271409
H320	H	1.101364	0.622878	0.771409
H321	H	0.601359	0.122879	0.159072
H322	H	1.101359	0.622879	0.659072
H323	H	-0.141899	-0.020355	0.000076
H324	H	0.358101	0.479645	0.500076
O325	O	0.670631	-0.565075	-0.165039
O326	O	1.170631	-0.065075	0.334961
H327	H	0.709581	-0.559905	-0.190756
H328	H	1.209581	-0.059905	0.309244
H329	H	-0.034152	-0.019262	0.000084
H330	H	0.465848	0.480738	0.500084
O331	O	0.398589	-0.026530	0.000070
O332	O	0.898589	0.473470	0.500070
H333	H	0.413431	-0.047555	-0.040018
H334	H	0.913431	0.452445	0.459982
O335	O	0.522055	-0.025276	0.000067
O336	O	1.022055	0.474724	0.500067
H337	H	0.567139	-0.017397	0.000072
H338	H	1.067139	0.482603	0.500072
O339	O	0.671902	-0.460287	-0.165035
O340	O	1.171902	0.039713	0.334965
H341	H	0.671587	-0.486289	-0.202318
H342	H	1.171587	0.013711	0.297682
O343	O	0.673728	-0.309051	-0.165026
O344	O	1.173728	0.190949	0.334974
H345	H	0.673411	-0.335052	-0.202308
H346	H	1.173411	0.164948	0.297692
O347	O	0.672460	-0.413830	-0.165032
O348	O	1.172460	0.086170	0.334968
H349	H	0.672778	-0.387823	-0.202311
H350	H	1.172778	0.112177	0.297689
H351	H	0.669036	-0.698872	-0.097257
H352	H	1.169036	-0.198872	0.402743
O353	O	0.667845	-0.796995	-0.111433
O354	O	1.167845	-0.296995	0.388567
H355	H	0.667366	-0.836286	-0.102420
H356	H	1.167366	-0.336286	0.397580
H357	H	0.667907	-0.790338	0.097319
H358	H	1.167907	-0.290338	0.597319
H359	H	0.668999	-0.698886	0.097327
H360	H	1.168999	-0.198886	0.597327
H361	H	0.672489	-0.407174	0.150968
H362	H	1.172489	0.092826	0.650968
