data_functionalizedCrystal
_audit_creation_method	'MofGen! by Chris Wilmer'
_symmetry_space_group_name_H-M	'P1'
_symmetry_Int_Tables_number	1
_symmetry_cell_setting	triclinic
loop_
_symmetry_equiv_pos_as_xyz
  x,y,z
_cell_length_a	14.519709
_cell_length_b	17.699083
_cell_length_c	16.776229
_cell_angle_alpha	90.007545
_cell_angle_beta	90.001522
_cell_angle_gamma	83.481580
loop_
_atom_site_label
_atom_site_type_symbol
_atom_site_fract_x
_atom_site_fract_y
_atom_site_fract_z
O1	O	-1.223449	-0.099215	-0.066186
O2	O	-0.954923	-0.110899	-0.066211
O3	O	-1.096772	0.005110	-0.066191
O4	O	-1.081599	-0.215225	-0.066206
O5	O	-1.096754	0.005117	0.066386
O6	O	-0.954904	-0.110892	0.066366
O7	O	-1.223430	-0.099208	0.066390
Zn8	Zn	-1.089164	-0.105049	0.087428
Zn9	Zn	-1.089189	-0.105058	-0.087248
O10	O	-1.081580	-0.215218	0.066370
C11	C	-1.096219	0.033312	0.000098
C12	C	-1.094588	0.117335	0.000098
C13	C	-0.920556	-0.110351	0.000075
C14	C	-0.818181	-0.108719	0.000065
C15	C	-1.257797	-0.099756	0.000104
C16	C	-1.360171	-0.101388	0.000107
C17	C	-0.443311	-0.102712	0.000102
C18	C	-0.547612	-0.104380	0.000092
C19	C	-0.630743	-0.105716	0.000083
C20	C	-0.735050	-0.107384	0.000074
C21	C	-1.082134	-0.243420	0.000080
C22	C	-1.083765	-0.327442	0.000075
N23	N	-1.089154	-0.105042	0.206639
C24	C	-1.177851	0.165718	0.000107
C25	C	-1.176313	0.244665	0.000099
C26	C	-1.091511	0.275229	0.000089
C27	C	-1.008242	0.226840	0.000078
C28	C	-1.009781	0.147894	0.000080
C29	C	-1.002033	0.545221	0.000071
C30	C	-1.000501	0.624173	0.000072
C31	C	-1.168566	0.641992	0.000091
C32	C	-1.170105	0.563046	0.000092
C33	C	-1.086836	0.514664	0.000077
C34	C	-1.088505	0.429060	0.000083
C35	C	-1.089841	0.360831	0.000089
N36	N	-1.089206	-0.105059	-0.206459
C37	C	-1.151984	-0.053694	0.248365
C38	C	-1.151989	-0.053694	0.331817
C39	C	-1.089168	-0.105045	0.373542
C40	C	-1.026331	-0.156395	0.331810
C41	C	-1.026322	-0.156392	0.248359
C42	C	-1.026364	-0.156410	0.668357
C43	C	-1.026380	-0.156411	0.751814
C44	C	-1.152031	-0.053712	0.751815
C45	C	-1.152022	-0.053709	0.668364
C46	C	-1.089183	-0.105056	0.626640
C47	C	-1.089177	-0.105055	0.536151
C48	C	-1.089177	-0.105050	0.464028
H49	H	-1.246907	0.140840	0.000120
H50	H	-0.975176	-0.198204	0.365787
H51	H	-0.934231	0.505837	0.000059
H52	H	-1.203144	-0.011881	0.214398
H53	H	-1.203150	-0.011882	0.365790
C54	C	-0.914021	0.048768	-0.068086
C55	C	-0.918256	0.094709	0.000070
H56	H	-0.857513	0.015938	-0.068095
H57	H	-0.964740	0.019272	-0.068073
H58	H	-0.916924	0.079941	-0.114311
H59	H	-0.915360	0.063536	0.046295
H60	H	-0.867523	0.124208	0.000065
H61	H	-0.975158	-0.198203	0.214387
H62	H	-1.244114	0.284056	0.000108
C63	C	-0.931255	0.339945	0.000076
C64	C	-0.915025	0.260434	0.000070
H65	H	-0.873704	0.360681	0.000078
H66	H	-0.965529	0.356536	-0.046150
H67	H	-0.965526	0.356541	0.046315
H68	H	-0.880759	0.243837	-0.046172
H69	H	-0.880736	0.243836	0.046301
H70	H	-1.203196	-0.011900	0.785796
C71	C	-1.336081	0.588592	0.000101
C72	C	-1.263321	0.529452	0.000100
H73	H	-1.393629	0.567851	0.000098
H74	H	-1.331984	0.619016	0.046331
H75	H	-1.331983	0.619009	-0.046134
H76	H	-1.267415	0.499038	0.046338
H77	H	-1.267421	0.499015	-0.046135
H78	H	-1.203180	-0.011896	0.634394
H79	H	-1.236367	0.681395	0.000099
H80	H	-0.975220	-0.198229	0.785785
C81	C	-0.834516	0.598633	0.000031
C82	C	-0.907279	0.657770	0.000050
H83	H	-0.776969	0.619377	0.000013
H84	H	-0.838593	0.568218	0.046261
H85	H	-0.838630	0.568206	-0.046204
H86	H	-0.903169	0.688194	0.046288
H87	H	-0.903200	0.688198	-0.046185
H88	H	-0.975200	-0.198220	0.634392
