data_functionalizedCrystal
_audit_creation_method	'MofGen! by Chris Wilmer'
_symmetry_space_group_name_H-M	'P1'
_symmetry_Int_Tables_number	1
_symmetry_cell_setting	triclinic
loop_
_symmetry_equiv_pos_as_xyz
  x,y,z
_cell_length_a	15.944551
_cell_length_b	10.654550
_cell_length_c	9.730223
_cell_angle_alpha	90.000193
_cell_angle_beta	89.995714
_cell_angle_gamma	83.991821
loop_
_atom_site_label
_atom_site_type_symbol
_atom_site_fract_x
_atom_site_fract_y
_atom_site_fract_z
O1	O	-1.115457	-0.161961	-0.114143
O2	O	-0.871023	-0.181930	-0.114177
O3	O	-0.998860	0.010867	-0.114154
O4	O	-0.987620	-0.354757	-0.114166
O5	O	-0.998858	0.010862	0.114426
O6	O	-0.871021	-0.181934	0.114403
O7	O	-1.115455	-0.161966	0.114437
Zn8	Zn	-0.993238	-0.171951	0.150712
Zn9	Zn	-0.993240	-0.171944	-0.150452
O10	O	-0.987618	-0.354762	0.114414
C11	C	-0.839723	-0.181103	0.000109
C12	C	-0.746463	-0.178618	0.000096
C13	C	-0.998034	0.057652	0.000134
C14	C	-0.995565	0.197063	0.000129
C15	C	-1.146755	-0.162792	0.000148
C16	C	-1.240015	-0.165278	0.000152
C17	C	-0.530880	-0.053173	0.000127
C18	C	-0.470198	-0.111423	-0.112577
C19	C	-0.575711	-0.174122	0.000112
C20	C	-0.470219	-0.111456	0.112785
C21	C	-0.410773	-0.169770	0.000134
C22	C	-0.516257	-0.232405	-0.112684
C23	C	-0.516284	-0.232421	0.112779
C24	C	-0.455620	-0.290759	0.000047
C25	C	-0.670728	-0.176625	0.000099
C26	C	-0.315757	-0.167276	0.000138
C27	C	-0.988444	-0.401547	0.000123
C28	C	-0.990913	-0.540958	0.000119
N29	N	-0.993243	-0.171954	0.356249
C30	C	-1.070833	0.277522	0.000144
C31	C	-1.068508	0.408513	0.000134
C32	C	-0.915639	0.378572	0.000100
C33	C	-0.917965	0.247584	0.000101
C34	C	-1.148432	0.227002	0.000172
C35	C	-1.223707	0.307463	0.000188
C36	C	-1.221382	0.438453	0.000178
C37	C	-1.143782	0.488983	0.000152
N38	N	-0.993242	-0.171931	-0.355988
C39	C	-1.049864	-0.086613	0.428185
C40	C	-1.049862	-0.086598	0.572068
C41	C	-0.936615	-0.257276	0.572066
C42	C	-0.936614	-0.257285	0.428185
C43	C	-1.106493	-0.001283	0.356248
C44	C	-1.163119	0.084065	0.428184
C45	C	-1.163117	0.084080	0.572067
C46	C	-1.106489	-0.001252	0.644014
H47	H	-0.449792	-0.060265	-0.207857
H48	H	-1.106486	-0.001224	0.761173
C49	C	-0.875005	-0.349778	0.650105
C50	C	-0.792350	-0.329309	0.615128
C51	C	-0.735573	-0.414489	0.687003
H52	H	-0.884495	-0.433659	0.626593
H53	H	-0.883060	-0.337543	0.746110
H54	H	-0.784298	-0.341554	0.519144
H55	H	-0.782832	-0.245445	0.638643
H56	H	-0.743629	-0.402254	0.783008
H57	H	-0.745071	-0.498365	0.663486
H58	H	-0.679485	-0.400605	0.663291
C59	C	-0.574487	0.080706	-0.000302
C60	C	-0.551271	0.143453	-0.118585
C61	C	-0.591438	0.266772	-0.119046
H62	H	-0.558102	0.124264	0.078856
H63	H	-0.633875	0.078234	0.000438
H64	H	-0.491896	0.145932	-0.119313
H65	H	-0.567657	0.099933	-0.197763
H66	H	-0.650826	0.264300	-0.118306
H67	H	-0.575049	0.310318	-0.039883
H68	H	-0.575697	0.309358	-0.199306
C69	C	-0.543228	-0.300791	-0.239765
C70	C	-0.504158	-0.424757	-0.239890
C71	C	-0.528994	-0.487791	-0.356924
H72	H	-0.527090	-0.258268	-0.319799
H73	H	-0.602722	-0.301999	-0.239021
H74	H	-0.444678	-0.423542	-0.240647
H75	H	-0.520291	-0.467313	-0.159883
H76	H	-0.588488	-0.488999	-0.356180
H77	H	-0.512855	-0.445258	-0.436949
H78	H	-0.502496	-0.571911	-0.357018
H79	H	-1.282674	0.503962	0.000177
H80	H	-1.209218	0.153581	0.630636
C81	C	-0.543399	-0.300775	0.239781
C82	C	-0.503755	-0.424403	0.240651
C83	C	-0.528707	-0.487390	0.357644
H84	H	-0.602823	-0.302662	0.238518
H85	H	-0.527776	-0.257759	0.319824
H86	H	-0.519383	-0.467408	0.160629
H87	H	-0.444331	-0.422553	0.241934
H88	H	-0.513085	-0.444374	0.437687
H89	H	-0.588132	-0.489268	0.356372
H90	H	-0.501807	-0.571274	0.358257
C91	C	-0.443169	-0.043027	0.239784
C92	C	-0.481640	0.081280	0.239253
C93	C	-0.456753	0.144359	0.356222
H94	H	-0.383635	-0.042474	0.239427
H95	H	-0.459742	-0.085107	0.319855
H96	H	-0.465062	0.123349	0.159204
H97	H	-0.541174	0.080764	0.239630
H98	H	-0.473326	0.102279	0.436293
H99	H	-0.397219	0.144902	0.355855
H100	H	-0.482858	0.228704	0.355884
C101	C	-0.875241	-0.350145	0.350142
C102	C	-0.889588	-0.473568	0.385115
C103	C	-0.833072	-0.559141	0.313234
H104	H	-0.819069	-0.336621	0.373651
H105	H	-0.883356	-0.338007	0.254138
H106	H	-0.881465	-0.485700	0.481098
H107	H	-0.945748	-0.487132	0.361602
H108	H	-0.841187	-0.547003	0.217229
H109	H	-0.776904	-0.545605	0.336748
H110	H	-0.842803	-0.642892	0.336943
C111	C	-1.307870	0.252364	0.000279
C112	C	-1.293800	0.120429	0.000321
C113	C	-1.371312	0.069633	0.000421
H114	H	-1.338961	0.279839	-0.079406
H115	H	-1.338900	0.279916	0.080026
H116	H	-1.262783	0.092888	-0.079418
H117	H	-1.262722	0.092919	0.080000
H118	H	-1.402342	0.097185	0.080169
H119	H	-1.402397	0.097117	-0.079265
H120	H	-1.361776	-0.019889	0.000463
C121	C	-0.831369	0.433360	-0.000200
C122	C	-0.785832	0.392497	-0.117825
C123	C	-0.708202	0.442954	-0.118153
H124	H	-0.800241	0.405777	0.079412
H125	H	-0.840730	0.522901	-0.000269
H126	H	-0.776469	0.302976	-0.117742
H127	H	-0.816934	0.420079	-0.197455
H128	H	-0.717563	0.532495	-0.118222
H129	H	-0.677083	0.415367	-0.038536
H130	H	-0.677299	0.415245	-0.197965
C131	C	-0.836274	0.160154	-0.000193
C132	C	-0.833142	0.084104	-0.117812
C133	C	-0.757895	0.003559	-0.118145
H134	H	-0.833925	0.108313	0.079423
H135	H	-0.789701	0.208954	-0.000275
H136	H	-0.879703	0.035309	-0.117718
H137	H	-0.835477	0.135911	-0.197447
H138	H	-0.711322	0.052358	-0.118227
H139	H	-0.755552	-0.048274	-0.038525
H140	H	-0.755756	-0.048042	-0.197954
H141	H	-0.423043	-0.391240	-0.000019
C142	C	-1.106397	-0.001541	0.200033
C143	C	-1.044704	-0.094566	0.152429
C144	C	-1.044601	-0.094859	0.008534
H145	H	-1.094412	0.078656	0.167291
H146	H	-1.160163	-0.018858	0.167454
H147	H	-0.990950	-0.077241	0.184994
H148	H	-1.056675	-0.174777	0.185133
H149	H	-1.098367	-0.112177	-0.024045
H150	H	-1.032618	-0.014658	-0.024194
H151	H	-1.002748	-0.157983	-0.023783
H152	H	-1.141895	0.595646	0.000130
C153	C	-1.224444	0.176823	0.349933
C154	C	-1.179235	0.253711	0.267325
C155	C	-1.235692	0.339189	0.195225
H156	H	-1.258169	0.227773	0.413254
H157	H	-1.259677	0.131692	0.293716
H158	H	-1.144017	0.298838	0.323537
H159	H	-1.145513	0.202796	0.203978
H160	H	-1.270924	0.294058	0.139008
H161	H	-1.269413	0.390130	0.258556
H162	H	-1.205026	0.391360	0.139157
H163	H	-1.150334	0.120344	0.000185
