data_functionalizedCrystal
_audit_creation_method	'MofGen! by Chris Wilmer'
_symmetry_space_group_name_H-M	'P1'
_symmetry_Int_Tables_number	1
_symmetry_cell_setting	triclinic
loop_
_symmetry_equiv_pos_as_xyz
  x,y,z
_cell_length_a	15.538191
_cell_length_b	17.699083
_cell_length_c	16.776229
_cell_angle_alpha	89.996964
_cell_angle_beta	89.993235
_cell_angle_gamma	114.722446
loop_
_atom_site_label
_atom_site_type_symbol
_atom_site_fract_x
_atom_site_fract_y
_atom_site_fract_z
O1	O	-1.250477	-0.245976	0.066326
O2	O	-0.976018	-0.158529	0.066315
O3	O	-1.121002	-0.314560	0.066329
O4	O	-1.105493	-0.089944	0.066313
O5	O	-1.120985	-0.314556	-0.066248
O6	O	-0.976001	-0.158525	-0.066261
O7	O	-1.250461	-0.245972	-0.066251
Zn8	Zn	-1.113228	-0.202248	-0.087305
Zn9	Zn	-1.113250	-0.202253	0.087370
O10	O	-1.105477	-0.089940	-0.066264
C11	C	-0.940893	-0.149378	0.000026
C12	C	-0.836257	-0.122125	0.000022
C13	C	-1.120438	-0.342603	0.000044
C14	C	-1.118771	-0.426166	0.000055
C15	C	-1.285585	-0.255123	0.000041
C16	C	-1.390221	-0.282375	0.000049
C17	C	-0.549086	-0.392872	0.000054
C18	C	-0.450762	-0.367245	0.000053
C19	C	-0.427989	-0.223099	0.000043
C20	C	-0.526313	-0.248714	0.000040
C21	C	-0.586855	-0.333602	0.000047
C22	C	-0.564082	-0.189444	0.000032
C23	C	-0.662398	-0.215057	0.000034
C24	C	-0.722945	-0.299940	0.000043
C25	C	-0.685171	-0.359215	0.000048
C26	C	-0.503539	-0.104556	0.000031
C27	C	-0.541308	-0.045286	0.000023
C28	C	-0.639625	-0.070899	0.000019
C29	C	-0.700173	-0.155782	0.000029
C30	C	-0.677400	-0.011624	0.000014
C31	C	-0.775716	-0.037238	0.000016
C32	C	-0.798489	-0.181396	0.000030
C33	C	-1.106041	-0.061897	0.000022
C34	C	-1.107708	0.021665	0.000017
N35	N	-1.113221	-0.202246	-0.206516
C36	C	-1.022605	0.093540	0.000013
C37	C	-1.024178	0.172054	0.000023
C38	C	-1.110853	0.178691	0.000030
C39	C	-1.195962	0.106808	0.000035
C40	C	-1.194389	0.028296	0.000032
C41	C	-1.202307	0.423438	0.000051
C42	C	-1.203874	0.501958	0.000053
C43	C	-1.032096	0.567195	0.000042
C44	C	-1.030523	0.488683	0.000039
C45	C	-1.115632	0.416807	0.000049
C46	C	-1.113926	0.331674	0.000040
C47	C	-1.112559	0.263822	0.000033
C48	C	-1.170278	-0.171988	-0.248231
C49	C	-1.170289	-0.171994	-0.331684
C50	C	-1.113236	-0.202253	-0.373419
C51	C	-1.056176	-0.232515	-0.331699
C52	C	-1.056171	-0.232514	-0.248248
C53	C	-1.056195	-0.232519	-0.668246
C54	C	-1.056202	-0.232515	-0.751702
C55	C	-1.170313	-0.171999	-0.751681
C56	C	-1.170308	-0.171998	-0.668231
C57	C	-1.113252	-0.202265	-0.626517
C58	C	-1.113243	-0.202259	-0.536029
C59	C	-1.113239	-0.202253	-0.463906
N60	N	-1.113265	-0.202263	0.206581
H61	H	-0.847785	-0.250520	0.000031
H62	H	-0.954878	0.230574	0.000022
H63	H	-1.009736	-0.257164	-0.634293
Br64	Br	-1.247748	-0.130922	-0.808297
H65	H	-0.598383	-0.461996	0.000055
H66	H	-0.734468	-0.428339	0.000049
H67	H	-0.420016	-0.415517	0.000061
Br68	Br	-1.313594	0.115815	0.000054
Br69	Br	-0.912888	0.479680	0.000024
Br70	Br	-0.978766	-0.273582	-0.808344
Br71	Br	-0.856377	-0.334705	0.000053
Br72	Br	-0.345818	-0.107899	0.000041
Br73	Br	-0.459137	0.069915	0.000022
H74	H	-0.806467	0.011026	0.000002
Br75	Br	-0.595226	0.103575	0.000023
Br76	Br	-0.978746	-0.273595	-0.191634
H77	H	-0.962797	0.625727	0.000037
Br78	Br	-1.247709	-0.130917	-0.191598
Br79	Br	-0.904968	0.084542	-0.000005
Br80	Br	-1.321513	0.510962	0.000062
Br81	Br	-1.247729	-0.130928	-0.388294
Br82	Br	-1.317812	0.325902	0.000058
Br83	Br	-0.978749	-0.273585	-0.388339
Br84	Br	-1.247724	-0.130915	-0.611593
H85	H	-0.423484	-0.083705	0.000032
H86	H	-1.263688	-0.030226	0.000038
