data_functionalizedCrystal
_audit_creation_method	'MofGen! by Chris Wilmer'
_symmetry_space_group_name_H-M	'P1'
_symmetry_Int_Tables_number	1
_symmetry_cell_setting	triclinic
loop_
_symmetry_equiv_pos_as_xyz
  x,y,z
_cell_length_a	15.186229
_cell_length_b	16.109301
_cell_length_c	16.109301
_cell_angle_alpha	96.538519
_cell_angle_beta	89.994299
_cell_angle_gamma	90.001245
loop_
_atom_site_label
_atom_site_type_symbol
_atom_site_fract_x
_atom_site_fract_y
_atom_site_fract_z
O1	O	-0.073176	-1.103131	0.106867
O2	O	0.426824	-0.603131	0.606867
O3	O	-0.073190	-0.861069	0.120166
O4	O	0.426810	-0.361069	0.620166
O5	O	-0.073174	-0.988750	-0.007515
O6	O	0.426826	-0.488750	0.492485
O7	O	-0.073192	-0.975451	0.234547
O8	O	0.426808	-0.475451	0.734547
O9	O	0.073284	-0.988740	-0.007518
O10	O	0.573284	-0.488740	0.492482
O11	O	0.073267	-0.861059	0.120163
O12	O	0.573267	-0.361059	0.620163
O13	O	0.073282	-1.103121	0.106864
O14	O	0.573282	-0.603121	0.606864
Zn15	Zn	0.096528	-0.982089	0.113513
Zn16	Zn	0.596528	-0.482089	0.613513
Zn17	Zn	-0.096436	-0.982102	0.113517
Zn18	Zn	0.403564	-0.482102	0.613517
O19	O	0.073265	-0.975441	0.234544
O20	O	0.573265	-0.475441	0.734544
C21	C	0.000037	-0.830090	0.119626
C22	C	0.500037	-0.330090	0.619626
C23	C	0.000032	-0.737794	0.118011
C24	C	0.500032	-0.237794	0.618011
N25	N	0.228220	-0.982086	0.113510
N26	N	0.728220	-0.482086	0.613510
C27	C	0.000056	-0.988206	-0.038491
C28	C	0.500056	-0.488206	0.461509
C29	C	0.000057	-0.986591	-0.130786
C30	C	0.500057	-0.486591	0.369214
N31	N	-0.228129	-0.982111	0.113513
N32	N	0.271871	-0.482111	0.613513
C33	C	0.546146	-1.038646	0.056992
C34	C	1.046146	-0.538646	0.556992
C35	C	0.453956	-1.038644	0.056992
C36	C	0.953956	-0.538644	0.556992
C37	C	0.453952	-0.925549	0.170038
C38	C	0.953952	-0.425549	0.670038
C39	C	0.546140	-0.925556	0.170041
C40	C	1.046140	-0.425556	0.670041
C41	C	0.592235	-0.982103	0.113513
C42	C	1.092235	-0.482103	0.613513
C43	C	0.407857	-0.982094	0.113510
C44	C	0.907857	-0.482094	0.613510
C45	C	0.307901	-0.982091	0.113511
C46	C	0.807901	-0.482091	0.613511
C47	C	0.692197	-0.982107	0.113513
C48	C	1.192197	-0.482107	0.613513
C49	C	0.000053	-1.134101	0.107404
C50	C	0.500053	-0.634101	0.607404
C51	C	0.000052	-1.226397	0.109019
C52	C	0.500052	-0.726397	0.609019
C53	C	0.000036	-0.515522	0.190018
C54	C	0.500036	-0.015522	0.690018
C55	C	0.000042	-0.428801	0.188494
C56	C	0.500042	0.071199	0.688494
C57	C	0.000050	-0.448676	0.037006
C58	C	0.500050	0.051324	0.537006
C59	C	0.000051	-0.535394	0.038530
C60	C	0.500051	-0.035394	0.538530
C61	C	0.000039	-0.568815	0.115039
C62	C	0.500039	-0.068815	0.615039
C63	C	0.000045	-0.395376	0.111990
C64	C	0.500045	0.104624	0.611990
C65	C	0.000051	-0.301350	0.110337
C66	C	0.500051	0.198650	0.610337
C67	C	0.000035	-0.662847	0.116693
C68	C	0.500035	-0.162847	0.616693
C69	C	0.000047	-1.058599	-0.353059
C70	C	0.500047	-0.558599	0.146941
C71	C	0.000040	-1.057075	-0.439779
C72	C	0.500040	-0.557075	0.060221
C73	C	0.000034	-0.905586	-0.419905
C74	C	0.500034	-0.405586	0.080095
C75	C	0.000035	-0.907111	-0.333186
C76	C	0.500035	-0.407111	0.166814
C77	C	0.000046	-0.983620	-0.299766
C78	C	0.500046	-0.483620	0.200234
C79	C	0.000038	-0.980571	-0.473205
C80	C	0.500038	-0.480571	0.026795
C81	C	0.000030	-0.978918	-0.567231
C82	C	0.500030	-0.478918	-0.067231
C83	C	0.000052	-0.985273	-0.205734
C84	C	0.500052	-0.485273	0.294266
C85	C	0.000034	-0.975984	0.265521
C86	C	0.500034	-0.475984	0.765521
C87	C	0.000027	-0.977600	0.357816
C88	C	0.500027	-0.477600	0.857816
H89	H	0.583674	-1.084692	0.010964
H90	H	1.083674	-0.584692	0.510964
C91	C	0.403239	-0.863343	0.232208
C92	C	0.903239	-0.363343	0.732208
N93	N	0.365043	-0.816486	0.279034
N94	N	0.865043	-0.316486	0.779034
C95	C	0.000030	-0.824624	-0.274560
C96	C	0.500030	-0.324624	0.225440
N97	N	0.000023	-0.762497	-0.230402
N98	N	0.500023	-0.262497	0.269598
H99	H	0.000065	-0.421454	-0.025285
H100	H	0.500065	0.078546	0.474715
H101	H	0.000027	-0.843295	-0.447127
H102	H	0.500027	-0.343295	0.052873
C103	C	0.403263	-1.100842	-0.005189
C104	C	0.903263	-0.600842	0.494811
N105	N	0.365082	-1.147693	-0.052027
N106	N	0.865082	-0.647693	0.447973
H107	H	0.000056	-0.578788	-0.022530
H108	H	0.500056	-0.078788	0.477470
H109	H	0.583668	-0.879511	0.216071
H110	H	1.083668	-0.379511	0.716071
H111	H	0.000039	-1.118130	-0.483168
H112	H	0.500039	-0.618130	0.016832
H113	H	0.000034	-0.542730	0.252317
H114	H	0.500034	-0.042730	0.752317
H115	H	0.000041	-0.385413	0.249550
H116	H	0.500041	0.114587	0.749550
C117	C	0.000049	-1.142761	-0.316300
C118	C	0.500049	-0.642761	0.183700
N119	N	0.000047	-1.206154	-0.288615
N120	N	0.500047	-0.706154	0.211385
