data_functionalizedCrystal
_audit_creation_method	'MofGen! by Chris Wilmer'
_symmetry_space_group_name_H-M	'P1'
_symmetry_Int_Tables_number	1
_symmetry_cell_setting	triclinic
loop_
_symmetry_equiv_pos_as_xyz
  x,y,z
_cell_length_a	17.038272
_cell_length_b	17.019282
_cell_length_c	13.330367
_cell_angle_alpha	93.873670
_cell_angle_beta	89.995338
_cell_angle_gamma	87.241387
loop_
_atom_site_label
_atom_site_type_symbol
_atom_site_fract_x
_atom_site_fract_y
_atom_site_fract_z
O1	O	0.099546	1.053361	0.007607
O2	O	0.112259	0.824550	-0.012169
O3	O	-0.007912	0.937595	-0.002391
O4	O	0.219716	0.940315	-0.002172
O5	O	-0.007915	0.937578	0.164455
O6	O	0.112256	0.824532	0.154676
O7	O	0.099543	1.053343	0.174452
Cu8	Cu	0.105899	0.938936	0.179799
Cu9	Cu	0.105902	0.938957	-0.017516
O10	O	0.219714	0.940297	0.164674
C11	C	0.111777	0.795119	0.068711
C12	C	0.110337	0.707453	0.061134
C13	C	0.109658	0.666262	0.148524
C14	C	0.108292	0.583890	0.141408
C15	C	0.107612	0.542711	0.046900
C16	C	0.108290	0.583908	-0.040496
C17	C	0.109649	0.666278	-0.033379
C18	C	0.103502	0.294007	0.020861
C19	C	0.102144	0.211631	0.013750
C20	C	0.102145	0.211619	0.195655
C21	C	0.103510	0.293990	0.202764
C22	C	0.104183	0.335180	0.115368
C23	C	0.106219	0.458514	0.039624
C24	C	0.105570	0.419376	0.122645
C25	C	-0.037039	0.935113	0.080818
C26	C	-0.123825	0.927732	0.080180
C27	C	-0.174001	0.995492	0.086037
C28	C	-0.255546	0.988553	0.085428
C29	C	-0.286912	0.913853	0.078968
C30	C	-0.236730	0.846088	0.073108
C31	C	-0.155187	0.853028	0.073710
C32	C	-0.532648	0.889335	0.076836
C33	C	-0.614197	0.882401	0.076237
C34	C	-0.633007	1.024866	0.088556
C35	C	-0.551462	1.031799	0.089163
C36	C	-0.501287	0.964034	0.083297
C37	C	-0.370263	0.906758	0.078349
C38	C	-0.417937	0.971130	0.083910
C39	C	0.248841	0.942780	0.081463
C40	C	0.335627	0.950160	0.082094
C41	C	0.100025	1.082773	0.093570
C42	C	0.101464	1.170440	0.101140
N43	N	0.105897	0.938927	0.318579
N44	N	0.105899	0.938972	-0.156296
C45	C	0.159093	0.888896	0.786875
C46	C	0.052706	0.989038	0.795505
C47	C	0.052703	0.989029	0.690486
C48	C	0.105897	0.938954	0.633656
C49	C	0.159094	0.888888	0.681846
C50	C	-0.000487	1.039100	0.642289
C51	C	-0.000491	1.039094	0.537263
C52	C	0.052700	0.989014	0.480432
C53	C	0.105898	0.938945	0.528627
C54	C	0.159092	0.888870	0.471798
C55	C	0.212287	0.838796	0.519991
C56	C	0.212285	0.838808	0.625014
C57	C	0.052702	0.989002	0.375409
C58	C	0.159093	0.888861	0.366769
H59	H	0.101596	0.178073	0.266809
F60	F	-0.518085	1.111305	0.096013
H61	H	-0.296396	1.043730	0.090200
H62	H	0.202408	0.848080	0.320504
H63	H	-0.043792	1.079874	0.688563
H64	H	0.106120	0.452908	0.199592
F65	F	-0.057106	1.092383	0.485979
F66	F	0.107579	0.540055	0.234421
H67	H	0.105665	0.424977	-0.037324
H68	H	-0.262275	0.785266	0.067842
F69	F	0.268896	0.785522	0.676309
H70	H	0.202402	0.848125	0.826116
H71	H	-0.395811	0.845937	0.073091
H72	H	-0.148469	1.056321	0.091304
F73	F	-0.003903	1.042295	0.324124
H74	H	-0.673868	1.080036	0.093330
F75	F	-0.647577	0.802891	0.069366
F76	F	-0.479258	0.817213	0.070590
H77	H	-0.114334	0.797851	0.068940
F78	F	-0.003900	1.042334	0.855987
F79	F	0.268903	0.785509	0.459499
F80	F	0.101423	0.167806	-0.086842
H81	H	0.104047	0.327534	-0.050304
H82	H	0.110218	0.699784	0.225483
F83	F	-0.384553	1.050628	0.090779
H84	H	0.107731	0.550374	-0.117447
F85	F	0.110370	0.710117	-0.126392
F86	F	0.104237	0.337810	0.303352
