data_functionalizedCrystal
_audit_creation_method	'MofGen! by Chris Wilmer'
_symmetry_space_group_name_H-M	'P1'
_symmetry_Int_Tables_number	1
_symmetry_cell_setting	triclinic
loop_
_symmetry_equiv_pos_as_xyz
  x,y,z
_cell_length_a	11.026607
_cell_length_b	10.723024
_cell_length_c	9.798715
_cell_angle_alpha	89.998022
_cell_angle_beta	90.002411
_cell_angle_gamma	83.473057
loop_
_atom_site_label
_atom_site_type_symbol
_atom_site_fract_x
_atom_site_fract_y
_atom_site_fract_z
O1	O	1.614520	-0.523503	0.113461
O2	O	1.260718	-0.463891	0.113469
O3	O	1.445780	-0.313882	0.113460
O4	O	1.429458	-0.673512	0.113470
O5	O	1.445766	-0.313879	-0.113523
O6	O	1.260704	-0.463888	-0.113513
O7	O	1.614506	-0.523499	-0.113521
Zn8	Zn	1.437603	-0.493693	-0.149556
Zn9	Zn	1.437621	-0.493698	0.149503
O10	O	1.429444	-0.673508	-0.113512
C11	C	1.215408	-0.452892	-0.000021
C12	C	1.080422	-0.420109	-0.000018
C13	C	1.659816	-0.534498	-0.000028
C14	C	1.794803	-0.567282	-0.000023
C15	C	1.867855	-0.476762	-0.000023
C16	C	2.007371	-0.510642	-0.000017
C17	C	1.444585	-0.267125	-0.000030
C18	C	1.441032	-0.127803	-0.000025
C19	C	1.430639	-0.720266	-0.000020
C20	C	1.434193	-0.859587	-0.000016
N21	N	1.437599	-0.493691	-0.353655
C22	C	1.544583	-0.075171	-0.000025
C23	C	1.540912	0.068824	-0.000020
C24	C	1.515302	-0.430355	-0.421436
C25	C	1.515321	-0.430355	-0.578599
N26	N	1.437634	-0.493692	0.353603
H27	H	2.048111	-0.613229	-0.000020
H28	H	1.835548	-0.669862	-0.000025
H29	H	1.581808	-0.376124	-0.363117
H30	H	2.039684	-0.317522	0.000067
C31	C	1.660678	0.130008	-0.000021
C32	C	1.688692	0.217315	-0.117884
C33	C	1.808462	0.278501	-0.117885
C34	C	1.900220	0.252379	-0.000022
C35	C	1.872209	0.165068	0.117850
C36	C	1.752438	0.103882	0.117851
H37	H	1.620765	0.236655	-0.205141
H38	H	1.829197	0.343134	-0.205142
H39	H	1.988881	0.297672	-0.000023
H40	H	1.940135	0.145727	0.205107
H41	H	1.731703	0.039248	0.205108
H42	H	1.349660	-0.066260	-0.000014
C43	C	1.314422	0.079238	-0.000015
C44	C	1.222664	0.105359	-0.117878
C45	C	1.102894	0.044174	-0.117877
C46	C	1.074880	-0.043134	-0.000014
C47	C	1.166640	-0.069259	0.117857
C48	C	1.286410	-0.008074	0.117857
H49	H	1.243399	0.169993	-0.205135
H50	H	1.034967	0.063514	-0.205134
H51	H	0.986219	-0.088427	-0.000014
H52	H	1.145905	-0.133893	0.205115
H53	H	1.354337	-0.027414	0.205114
H54	H	1.635954	-0.136715	-0.000036
H55	H	1.581850	-0.376136	-0.636887
H56	H	1.371111	-0.547925	-0.588117
H57	H	1.371085	-0.547910	-0.411976
H58	H	1.827109	-0.374181	-0.000049
