data_functionalizedCrystal
_audit_creation_method	'MofGen! by Chris Wilmer'
_symmetry_space_group_name_H-M	'P1'
_symmetry_Int_Tables_number	1
_symmetry_cell_setting	triclinic
loop_
_symmetry_equiv_pos_as_xyz
  x,y,z
_cell_length_a	16.120444
_cell_length_b	16.120542
_cell_length_c	11.169409
_cell_angle_alpha	87.078149
_cell_angle_beta	87.138527
_cell_angle_gamma	89.835691
loop_
_atom_site_label
_atom_site_type_symbol
_atom_site_fract_x
_atom_site_fract_y
_atom_site_fract_z
Zn1	Zn	-0.395619	-1.254504	0.798975
Zn2	Zn	-0.145619	-1.004504	1.048975
Zn3	Zn	0.104381	-0.754504	1.298975
Zn4	Zn	0.354381	-0.504504	1.548975
Zn5	Zn	-0.534698	-1.247336	0.607898
Zn6	Zn	-0.284698	-0.997336	0.857898
Zn7	Zn	-0.034698	-0.747336	1.107898
Zn8	Zn	0.215302	-0.497336	1.357898
Zn9	Zn	-0.388597	-1.115434	0.587641
Zn10	Zn	-0.138597	-0.865434	0.837641
Zn11	Zn	0.111403	-0.615434	1.087641
Zn12	Zn	0.361403	-0.365434	1.337641
Zn13	Zn	-0.527562	-1.108353	0.797873
Zn14	Zn	-0.277562	-0.858353	1.047873
Zn15	Zn	-0.027562	-0.608353	1.297873
Zn16	Zn	0.222438	-0.358353	1.547873
O17	O	-0.461619	-1.181407	0.698097
O18	O	-0.211619	-0.931407	0.948097
O19	O	0.038381	-0.681407	1.198097
O20	O	0.288381	-0.431407	1.448097
O21	O	-0.419993	-1.369919	0.782566
O22	O	-0.169993	-1.119919	1.032566
O23	O	0.080007	-0.869919	1.282566
O24	O	0.330007	-0.619919	1.532566
O25	O	-0.515365	-1.229802	0.437262
O26	O	-0.265365	-0.979802	0.687262
O27	O	-0.015365	-0.729802	0.937262
O28	O	0.234635	-0.479802	1.187262
O29	O	-0.273166	-1.139845	0.607658
O30	O	-0.023166	-0.889845	0.857658
O31	O	0.226834	-0.639845	1.107658
O32	O	0.476834	-0.389845	1.357658
O33	O	-0.522174	-1.364652	0.642183
O34	O	-0.272174	-1.114652	0.892183
O35	O	-0.022174	-0.864652	1.142183
O36	O	0.227826	-0.614652	1.392183
O37	O	-0.278325	-1.242019	0.762924
O38	O	-0.028325	-0.992019	1.012924
O39	O	0.221675	-0.742019	1.262924
O40	O	0.471675	-0.492019	1.512924
O41	O	-0.408025	-1.132894	0.422379
O42	O	-0.158025	-0.882894	0.672379
O43	O	0.091975	-0.632894	0.922379
O44	O	0.341975	-0.382894	1.172379
O45	O	-0.401106	-0.998129	0.606591
O46	O	-0.151106	-0.748129	0.856591
O47	O	0.098894	-0.498129	1.106591
O48	O	0.348894	-0.248129	1.356591
O49	O	-0.510011	-1.127777	0.965969
O50	O	-0.260011	-0.877777	1.215969
O51	O	-0.010011	-0.627777	1.465969
O52	O	0.239989	-0.377777	1.715969
O53	O	-0.503203	-0.992927	0.761047
O54	O	-0.253203	-0.742927	1.011047
O55	O	-0.003203	-0.492927	1.261047
O56	O	0.246797	-0.242927	1.511047
O57	O	-0.413073	-1.235153	0.966778
O58	O	-0.163073	-0.985153	1.216778
O59	O	0.086927	-0.735153	1.466778
O60	O	0.336927	-0.485153	1.716778
O61	O	-0.650113	-1.222936	0.641116
O62	O	-0.400113	-0.972936	0.891116
O63	O	-0.150113	-0.722936	1.141116
O64	O	0.099887	-0.472936	1.391116
O65	O	-0.644871	-1.120827	0.780690
O66	O	-0.394871	-0.870827	1.030690
O67	O	-0.144871	-0.620827	1.280690
O68	O	0.105129	-0.370827	1.530690
C69	C	-0.450619	-0.965355	0.681502
C70	C	-0.200619	-0.715355	0.931502
C71	C	0.049381	-0.465355	1.181502
C72	C	0.299381	-0.215355	1.431502
C73	C	-0.445933	-0.872927	0.674433
C74	C	-0.195933	-0.622927	0.924433
C75	C	0.054067	-0.372927	1.174433
C76	C	0.304067	-0.122927	1.424433
C77	C	-0.677664	-1.170358	0.713009
C78	C	-0.427664	-0.920358	0.963009
C79	C	-0.177664	-0.670358	1.213009
C80	C	0.072336	-0.420358	1.463009
C81	C	-0.770094	-1.165707	0.719435
C82	C	-0.520094	-0.915707	0.969435
C83	C	-0.270094	-0.665707	1.219435
C84	C	-0.020094	-0.415707	1.469435
C85	C	-0.485901	-0.659959	0.734701
C86	C	-0.235901	-0.409959	0.984701
C87	C	0.014099	-0.159959	1.234701
C88	C	0.264099	0.090041	1.484701
C89	C	-0.437385	-0.703703	0.661524
C90	C	-0.187385	-0.453703	0.911524
C91	C	0.062615	-0.203703	1.161524
C92	C	0.312615	0.046297	1.411524
C93	C	-0.442142	-0.797868	0.668709
C94	C	-0.192142	-0.547868	0.918709
C95	C	0.057858	-0.297868	1.168709
C96	C	0.307858	-0.047868	1.418709
C97	C	-0.481145	-0.565786	0.727518
C98	C	-0.231145	-0.315786	0.977518
C99	C	0.018855	-0.065786	1.227518
C100	C	0.268855	0.184214	1.477518
C101	C	-0.983075	-1.205735	0.665038
C102	C	-0.733075	-0.955735	0.915038
C103	C	-0.483075	-0.705735	1.165038
C104	C	-0.233075	-0.455735	1.415038
C105	C	-0.939319	-1.157232	0.731180
C106	C	-0.689319	-0.907232	0.981180
C107	C	-0.439319	-0.657232	1.231180
C108	C	-0.189319	-0.407232	1.481180
C109	C	-0.845153	-1.161949	0.724643
C110	C	-0.595153	-0.911949	0.974643
C111	C	-0.345153	-0.661949	1.224643
C112	C	-0.095153	-0.411949	1.474643
C113	C	-1.077249	-1.201019	0.671574
C114	C	-0.827249	-0.951019	0.921574
C115	C	-0.577249	-0.701019	1.171574
C116	C	-0.327249	-0.451019	1.421574
C117	C	-0.244730	-1.192521	0.683155
C118	C	0.005270	-0.942521	0.933155
C119	C	0.255270	-0.692521	1.183155
C120	C	0.505270	-0.442521	1.433155
C121	C	-0.152306	-1.197257	0.676787
C122	C	0.097694	-0.947257	0.926787
C123	C	0.347694	-0.697257	1.176787
C124	C	0.597694	-0.447257	1.426787
C125	C	-0.461530	-1.181475	1.011138
C126	C	-0.211530	-0.931475	1.261138
C127	C	0.038470	-0.681475	1.511138
C128	C	0.288470	-0.431475	1.761138
C129	C	-0.461492	-1.181504	1.144537
C130	C	-0.211492	-0.931504	1.394537
C131	C	0.038508	-0.681504	1.644537
C132	C	0.288508	-0.431504	1.894537
C133	C	-0.472658	-0.398302	0.714740
C134	C	-0.222658	-0.148302	0.964740
C135	C	0.027342	0.101698	1.214740
C136	C	0.277342	0.351698	1.464740
C137	C	-0.477351	-0.490730	0.721789
C138	C	-0.227351	-0.240730	0.971789
C139	C	0.022649	0.009270	1.221789
C140	C	0.272649	0.259270	1.471789
C141	C	-0.461650	-1.181389	0.386273
C142	C	-0.211650	-0.931389	0.636273
C143	C	0.038350	-0.681389	0.886273
C144	C	0.288350	-0.431389	1.136273
C145	C	-0.461462	-1.181533	0.252871
C146	C	-0.211462	-0.931533	0.502871
C147	C	0.038538	-0.681533	0.752871
C148	C	0.288538	-0.431533	1.002871
H149	H	-0.392276	-0.670433	0.593480
H150	H	-0.142276	-0.420433	0.843480
H151	H	0.107724	-0.170433	1.093480
H152	H	0.357724	0.079567	1.343480
H153	H	-0.531007	-0.693227	0.802739
H154	H	-0.281007	-0.443227	1.052739
H155	H	-0.031007	-0.193227	1.302739
H156	H	0.218993	0.056773	1.552739
H157	H	-0.949820	-1.250799	0.603507
H158	H	-0.699820	-1.000799	0.853507
H159	H	-0.449820	-0.750799	1.103507
H160	H	-0.199820	-0.500799	1.353507
H161	H	-0.972578	-1.112164	0.792714
H162	H	-0.722578	-0.862164	1.042714
H163	H	-0.472578	-0.612164	1.292714
H164	H	-0.222578	-0.362164	1.542714
