data_functionalizedCrystal
_audit_creation_method	'MofGen! by Chris Wilmer'
_symmetry_space_group_name_H-M	'P1'
_symmetry_Int_Tables_number	1
_symmetry_cell_setting	triclinic
loop_
_symmetry_equiv_pos_as_xyz
  x,y,z
_cell_length_a	16.109301
_cell_length_b	15.995350
_cell_length_c	15.186229
_cell_angle_alpha	89.998487
_cell_angle_beta	89.999362
_cell_angle_gamma	83.476928
loop_
_atom_site_label
_atom_site_type_symbol
_atom_site_fract_x
_atom_site_fract_y
_atom_site_fract_z
O1	O	1.103160	0.107624	-0.073168
O2	O	0.861101	0.121018	-0.073182
O3	O	0.988747	-0.007569	-0.073174
O4	O	0.975514	0.236210	-0.073176
O5	O	0.988739	-0.007570	0.073283
O6	O	0.861093	0.121016	0.073275
O7	O	1.103151	0.107622	0.073289
Zn8	Zn	0.982121	0.114319	0.096535
Zn9	Zn	0.982132	0.114321	-0.096428
O10	O	0.975505	0.236208	0.073281
C11	C	0.830122	0.120474	0.000045
C12	C	0.737826	0.118848	0.000040
C13	C	0.515573	0.191366	0.000049
C14	C	0.428853	0.189831	0.000055
C15	C	0.448686	0.037268	0.000053
C16	C	0.535405	0.038804	0.000053
C17	C	0.568846	0.115855	0.000047
C18	C	0.395406	0.112785	0.000052
C19	C	0.301380	0.111120	0.000058
C20	C	0.662879	0.117520	0.000043
C21	C	0.988196	-0.038764	0.000053
C22	C	0.986556	-0.131714	0.000048
C23	C	0.980665	-0.469460	0.000050
C24	C	0.889758	-0.422001	-0.000283
C25	C	0.891399	-0.325311	0.000047
C26	C	0.983587	-0.301900	0.000049
C27	C	1.028421	-0.342991	0.083684
C28	C	1.026137	-0.439626	0.083754
C29	C	1.028025	-0.439983	-0.082795
C30	C	1.028003	-0.343037	-0.083901
C31	C	0.985243	-0.207203	0.000051
C32	C	0.979012	-0.564157	0.000054
C33	C	1.134130	0.108166	0.000060
C34	C	1.226426	0.109792	0.000059
C35	C	0.976056	0.267404	0.000052
C36	C	0.977697	0.360354	0.000051
N37	N	0.982119	0.114317	0.228228
N38	N	0.982140	0.114317	-0.228121
C39	C	1.038660	0.057398	0.453954
C40	C	1.038662	0.057396	0.546144
C41	C	0.925593	0.171238	0.546146
C42	C	0.925587	0.171236	0.453958
C43	C	0.982125	0.114316	0.407865
C44	C	0.982134	0.114317	0.592242
C45	C	0.982136	0.114315	0.692198
C46	C	0.982122	0.114317	0.307902
H47	H	0.853427	-0.440522	-0.060260
H48	H	0.578782	-0.022690	0.000054
C49	C	0.863409	0.233854	0.596849
C50	C	0.863457	0.233910	0.698252
C51	C	0.801273	0.296530	0.748953
C52	C	0.739042	0.359094	0.698250
C53	C	0.738992	0.359040	0.596841
C54	C	0.801176	0.296420	0.546141
H55	H	0.909526	0.187594	0.735791
H56	H	0.801310	0.296569	0.824022
H57	H	0.693010	0.405449	0.735781
H58	H	0.692922	0.405356	0.559302
H59	H	0.801138	0.296381	0.471071
H60	H	0.997275	-0.314602	0.145921
C61	C	1.100844	-0.005218	0.403251
C62	C	1.068355	-0.069264	0.339880
C63	C	1.130539	-0.131883	0.289180
C64	C	1.225211	-0.130458	0.301851
C65	C	1.257704	-0.066410	0.365224
C66	C	1.195521	-0.003790	0.415925
H67	H	0.998269	-0.070321	0.330498
H68	H	1.106485	-0.179296	0.242267
H69	H	1.271243	-0.176813	0.264320
H70	H	1.327791	-0.065353	0.374607
H71	H	1.219575	0.043622	0.462838
H72	H	0.879546	0.217586	0.416429
H73	H	0.385481	0.251320	0.000058
C74	C	1.100854	-0.005213	0.596844
C75	C	1.163048	-0.067812	0.546141
C76	C	1.225241	-0.130425	0.596841
C77	C	1.225240	-0.130438	0.698244
C78	C	1.163043	-0.067836	0.748953
C79	C	1.100850	-0.005223	0.698253
H80	H	1.163051	-0.067805	0.471071
H81	H	1.271283	-0.176767	0.559302
H82	H	1.271279	-0.176787	0.735775
H83	H	1.163040	-0.067843	0.824022
H84	H	1.054808	0.041118	0.735791
C85	C	0.552360	0.276120	0.000053
C86	C	0.493757	0.359181	0.000061
C87	C	0.530540	0.443937	0.000067
C88	C	0.625927	0.445633	0.000066
C89	C	0.684536	0.362570	0.000058
C90	C	0.647752	0.277813	0.000051
H91	H	0.423141	0.357928	0.000062
H92	H	0.487154	0.505426	0.000074
H93	H	0.653156	0.508375	0.000071
H94	H	0.755152	0.363823	0.000057
H95	H	0.691139	0.216325	0.000045
H96	H	0.421447	-0.025465	0.000063
C97	C	0.843772	-0.286891	-0.080933
C98	C	0.803978	-0.344183	-0.146356
C99	C	0.756340	-0.305767	-0.227333
C100	C	0.748496	-0.210059	-0.242887
C101	C	0.788292	-0.152762	-0.177461
C102	C	0.835930	-0.191178	-0.096484
H103	H	0.809783	-0.415037	-0.134844
H104	H	0.726881	-0.348183	-0.275765
H105	H	0.713232	-0.181621	-0.302831
H106	H	0.782486	-0.081908	-0.188974
H107	H	0.865389	-0.148762	-0.048053
C108	C	0.840880	-0.448451	0.080284
C109	C	0.883148	-0.512899	0.146284
C110	C	0.834272	-0.539352	0.226851
C111	C	0.743127	-0.501357	0.241418
C112	C	0.700854	-0.436906	0.175416
C113	C	0.749730	-0.410453	0.094849
H114	H	0.950624	-0.541028	0.135502
H115	H	0.865566	-0.587063	0.275710
H116	H	0.706946	-0.520939	0.301059
H117	H	0.633378	-0.408777	0.186198
H118	H	0.718435	-0.362742	0.045990
H119	H	0.855912	-0.297438	0.060099
H120	H	0.993437	-0.457919	0.146271
H121	H	1.092880	-0.471892	0.087550
C122	C	1.119913	-0.323922	0.087892
C123	C	1.139986	-0.232162	0.092437
C124	C	1.231477	-0.213085	0.096640
C125	C	1.302895	-0.285769	0.096298
C126	C	1.282824	-0.377535	0.091753
C127	C	1.191333	-0.396611	0.087550
H128	H	1.087116	-0.178352	0.092690
H129	H	1.246334	-0.145154	0.100004
H130	H	1.370622	-0.271647	0.099409
H131	H	1.335694	-0.431345	0.091500
H132	H	1.176476	-0.464543	0.084185
C133	C	0.987880	-0.467713	-0.168435
C134	C	0.911574	-0.517490	-0.164232
C135	C	0.871419	-0.545220	-0.249866
C136	C	0.907570	-0.523175	-0.339702
C137	C	0.983881	-0.473396	-0.343909
C138	C	1.024036	-0.445665	-0.258275
H139	H	0.884808	-0.533812	-0.097726
H140	H	0.814929	-0.582070	-0.246751
H141	H	0.877845	-0.543703	-0.403094
H142	H	1.010646	-0.457074	-0.410415
H143	H	1.080526	-0.408815	-0.261390
C144	C	0.983713	-0.306173	-0.167464
C145	C	0.944710	-0.364430	-0.232492
C146	C	0.900383	-0.327572	-0.316040
C147	C	0.895060	-0.232459	-0.334561
C148	C	0.934065	-0.174196	-0.269532
C149	C	0.978392	-0.211053	-0.185984
H150	H	0.948649	-0.434844	-0.218783
H151	H	0.871509	-0.370703	-0.364179
H152	H	0.862247	-0.205175	-0.396408
H153	H	0.930126	-0.103782	-0.283241
H154	H	1.007266	-0.167923	-0.137845
C155	C	1.118827	-0.322314	-0.090721
C156	C	1.191401	-0.393825	-0.090991
C157	C	1.282228	-0.373103	-0.097800
C158	C	1.300482	-0.280870	-0.104340
C159	C	1.227905	-0.209353	-0.104071
C160	C	1.137078	-0.230075	-0.097261
H161	H	1.177890	-0.462107	-0.086149
H162	H	1.335954	-0.426045	-0.098000
H163	H	1.367718	-0.265531	-0.109381
H164	H	1.241416	-0.141071	-0.108912
H165	H	1.083352	-0.177133	-0.097062
C166	C	1.118573	-0.482908	-0.083557
C167	C	1.149428	-0.544404	-0.009411
C168	C	1.239973	-0.587331	-0.010161
C169	C	1.299663	-0.568761	-0.085058
C170	C	1.268810	-0.507262	-0.159210
C171	C	1.178264	-0.464335	-0.158460
H172	H	1.105240	-0.558154	0.046038
H173	H	1.262813	-0.632857	0.044731
H174	H	1.366690	-0.600538	-0.085614
H175	H	1.312997	-0.493512	-0.214659
H176	H	1.155425	-0.418809	-0.213352
