data_functionalizedCrystal
_audit_creation_method	'MofGen! by Chris Wilmer'
_symmetry_space_group_name_H-M	'P1'
_symmetry_Int_Tables_number	1
_symmetry_cell_setting	triclinic
loop_
_symmetry_equiv_pos_as_xyz
  x,y,z
_cell_length_a	15.995350
_cell_length_b	17.699083
_cell_length_c	16.776229
_cell_angle_alpha	89.992455
_cell_angle_beta	89.996506
_cell_angle_gamma	83.387695
loop_
_atom_site_label
_atom_site_type_symbol
_atom_site_fract_x
_atom_site_fract_y
_atom_site_fract_z
O1	O	1.110790	0.097560	-0.066222
O2	O	0.866990	0.109607	-0.066239
O3	O	0.995778	-0.006594	-0.066223
O4	O	0.982002	0.213761	-0.066238
O5	O	0.995761	-0.006602	0.066353
O6	O	0.866973	0.109600	0.066338
O7	O	1.110773	0.097553	0.066354
Zn8	Zn	0.988870	0.103575	0.087395
Zn9	Zn	0.988893	0.103584	-0.087280
O10	O	0.981985	0.213754	0.066338
C11	C	0.995276	-0.034796	0.000065
C12	C	0.993795	-0.118816	0.000065
C13	C	0.835788	0.109105	0.000047
C14	C	0.742841	0.107612	0.000041
C15	C	1.069391	-0.167312	0.000072
C16	C	1.067994	-0.246257	0.000065
C17	C	0.991001	-0.276706	0.000057
C18	C	0.915400	-0.228205	0.000048
C19	C	0.916797	-0.149261	0.000050
C20	C	0.909763	-0.546577	0.000041
C21	C	0.908372	-0.625527	0.000042
C22	C	1.060960	-0.643574	0.000056
C23	C	1.062358	-0.564630	0.000058
C24	C	0.986757	-0.516135	0.000045
C25	C	0.988272	-0.430533	0.000051
C26	C	0.989485	-0.362306	0.000056
C27	C	0.405104	0.102250	0.000058
C28	C	0.452706	0.019493	0.000360
C29	C	0.549394	0.020987	0.000055
C30	C	0.572659	0.104910	0.000050
C31	C	0.531499	0.145732	-0.075657
C32	C	0.434867	0.143653	-0.075715
C33	C	0.434505	0.145355	0.075049
C34	C	0.531451	0.145335	0.076044
C35	C	0.667354	0.106417	0.000043
C36	C	0.310409	0.100745	0.000060
C37	C	1.141975	0.098054	0.000066
C38	C	1.234923	0.099547	0.000067
C39	C	0.982487	0.241955	0.000048
C40	C	0.983968	0.325976	0.000043
N41	N	0.988861	0.103568	0.206607
N42	N	0.988909	0.103585	-0.206491
C43	C	1.045906	0.052135	0.248331
C44	C	1.045910	0.052135	0.331783
C45	C	0.988874	0.103571	0.373509
C46	C	0.931823	0.155006	0.331779
C47	C	0.931815	0.155003	0.248329
C48	C	0.931853	0.155021	0.668327
C49	C	0.931867	0.155022	0.751783
C50	C	1.045949	0.052153	0.751781
C51	C	1.045941	0.052150	0.668330
C52	C	0.988887	0.103582	0.626607
C53	C	0.988882	0.103581	0.536119
C54	C	0.988883	0.103576	0.463996
H55	H	1.129552	-0.285740	0.000071
O56	O	1.152435	-0.134473	0.000082
H57	H	1.156723	-0.098926	-0.053950
H58	H	0.885400	0.196900	0.634363
O59	O	1.145399	-0.531787	0.000067
H60	H	1.149684	-0.496240	-0.053966
O61	O	0.870290	0.210471	0.203313
H62	H	0.880834	0.269484	0.219302
H63	H	0.885418	0.196910	0.785756
O64	O	0.825322	-0.658366	0.000029
H65	H	0.821023	-0.693899	0.054070
O66	O	1.142503	-0.695883	0.000066
H67	H	1.196274	-0.661446	0.000084
O68	O	0.835261	-0.096952	0.000053
H69	H	0.798409	-0.107773	-0.053981
O70	O	1.107485	-0.003322	0.796786
H71	H	1.147152	-0.039080	0.753750
H72	H	0.885379	0.196884	0.365758
H73	H	0.848204	-0.507102	0.000031
O74	O	1.107410	-0.003361	0.203333
H75	H	1.097822	0.005274	0.138294
O76	O	0.832354	-0.261040	0.000048
H77	H	0.844080	-0.324082	0.000060
H78	H	0.577324	-0.011312	-0.054305
O79	O	0.587132	-0.021522	0.071939
H80	H	0.656384	-0.020495	0.071795
O81	O	0.392260	0.226173	0.075733
H82	H	0.409493	0.255784	0.020835
O83	O	0.428254	-0.024335	0.072275
H84	H	0.381906	0.012392	0.108570
H85	H	0.414018	0.118297	0.132434
O86	O	0.410696	0.104214	-0.150662
H87	H	0.468000	0.086801	-0.186522
O88	O	0.426849	-0.024132	-0.071145
H89	H	0.380243	0.012872	-0.106900
H90	H	0.558821	0.115535	0.132052
H91	H	0.402496	0.204412	-0.079154
H92	H	0.545499	0.207388	-0.078476
H93	H	0.559938	0.117384	-0.131997
H94	H	0.546691	0.206534	0.080614
O95	O	1.107451	-0.003325	0.376788
H96	H	1.147123	-0.039081	0.333754
H97	H	1.092388	0.010268	0.634359
