data_functionalizedCrystal
_audit_creation_method	'MofGen! by Chris Wilmer'
_symmetry_space_group_name_H-M	'P1'
_symmetry_Int_Tables_number	1
_symmetry_cell_setting	triclinic
loop_
_symmetry_equiv_pos_as_xyz
  x,y,z
_cell_length_a	10.723024
_cell_length_b	27.732048
_cell_length_c	9.198806
_cell_angle_alpha	89.991879
_cell_angle_beta	89.996352
_cell_angle_gamma	83.555262
loop_
_atom_site_label
_atom_site_type_symbol
_atom_site_fract_x
_atom_site_fract_y
_atom_site_fract_z
O1	O	1.654382	0.067789	-0.120901
O2	O	1.290961	0.074278	-0.120907
O3	O	1.483959	0.000707	-0.120876
O4	O	1.461385	0.141360	-0.120932
O5	O	1.483944	0.000707	0.120909
O6	O	1.290946	0.074278	0.120878
O7	O	1.654367	0.067789	0.120884
Cu8	Cu	1.472655	0.071033	0.142958
Cu9	Cu	1.472673	0.071033	-0.142981
O10	O	1.461370	0.141360	0.120853
C11	C	1.244474	0.073806	-0.000015
C12	C	1.105978	0.072393	-0.000017
C13	C	1.029292	0.113559	-0.000034
C14	C	0.886149	0.112100	-0.000035
C15	C	1.483478	-0.017303	0.000020
C16	C	1.482051	-0.070967	0.000032
C17	C	1.587117	-0.409130	-0.000040
C18	C	1.581823	-0.610822	-0.000061
O19	O	1.677898	-0.641481	-0.000123
N20	N	1.467383	-0.630656	-0.000061
C21	C	1.354259	-0.600064	-0.000067
O22	O	1.256800	-0.621562	-0.000083
C23	C	1.359554	-0.398373	-0.000057
C24	C	1.474001	-0.378541	-0.000041
C25	C	1.701554	-0.389298	-0.000026
C26	C	1.702877	-0.338877	-0.000013
C27	C	1.589761	-0.308289	-0.000014
C28	C	1.475324	-0.328121	-0.000028
C29	C	1.246432	-0.367781	-0.000072
C30	C	1.247766	-0.317356	-0.000073
C31	C	1.362213	-0.297524	-0.000058
C32	C	1.363531	-0.247113	-0.000016
N33	N	1.477970	-0.227278	-0.000015
C34	C	1.591085	-0.257867	-0.000014
C35	C	1.351487	-0.705956	-0.000069
C36	C	1.350163	-0.756378	-0.000069
C37	C	1.577727	-0.767133	-0.000066
C38	C	1.579050	-0.716709	-0.000055
C39	C	1.465926	-0.686121	-0.000068
C40	C	1.593854	-0.151980	0.000014
C41	C	1.595166	-0.101555	0.000033
C42	C	1.367603	-0.090805	0.000022
C43	C	1.366290	-0.141226	0.000011
C44	C	1.479425	-0.171813	0.000002
O45	O	1.267507	-0.216425	0.000030
O46	O	1.688531	-0.236359	-0.000031
C47	C	1.585794	-0.459550	-0.000053
C48	C	1.471357	-0.479382	-0.000067
C49	C	1.358241	-0.448793	-0.000068
C50	C	1.470033	-0.529804	-0.000067
C51	C	1.583148	-0.560392	-0.000066
C52	C	1.697587	-0.540558	-0.000066
C53	C	1.698910	-0.490138	-0.000053
C54	C	1.243802	-0.468628	-0.000069
C55	C	1.242489	-0.519048	-0.000080
C56	C	1.355604	-0.549637	-0.000079
C57	C	1.700855	0.068261	-0.000011
C58	C	1.839351	0.069674	-0.000019
C59	C	1.461851	0.159370	-0.000047
C60	C	1.463278	0.213034	-0.000068
N61	N	1.472652	0.071033	0.344072
N62	N	1.472687	0.071030	-0.344095
C63	C	1.553692	0.040006	0.416282
C64	C	1.553711	0.040005	0.583694
H65	H	1.065659	0.036068	-0.000039
Br66	Br	1.194836	-0.783286	-0.000055
Br67	Br	1.096478	0.174106	-0.000048
Br68	Br	1.750497	-0.074644	0.000056
Br69	Br	1.747396	-0.193483	0.000000
Br70	Br	1.858206	-0.311972	-0.000034
H71	H	1.623055	0.013442	0.354167
Br72	Br	1.357019	0.115303	0.447591
Br73	Br	1.090271	-0.427122	-0.000077
Br74	Br	1.669368	-0.004268	0.687186
H75	H	1.793672	-0.414198	-0.000031
Br76	Br	0.776334	0.170842	-0.000077
Br77	Br	0.949158	0.010930	-0.000012
H78	H	1.672242	-0.700566	-0.000044
H79	H	1.259363	-0.681055	-0.000079
H80	H	1.669830	-0.792046	-0.000064
Br81	Br	1.094232	-0.275846	-0.000097
H82	H	1.153237	-0.383919	-0.000094
H83	H	1.273098	-0.157373	0.000039
H84	H	1.275507	-0.065891	0.000027
H85	H	1.792104	-0.473996	-0.000040
H86	H	1.789690	-0.565472	-0.000058
Br87	Br	1.087153	-0.545955	-0.000090
H88	H	1.403306	0.097596	0.593817
