data_functionalizedCrystal
_audit_creation_method	'MofGen! by Chris Wilmer'
_symmetry_space_group_name_H-M	'P1'
_symmetry_Int_Tables_number	1
_symmetry_cell_setting	triclinic
loop_
_symmetry_equiv_pos_as_xyz
  x,y,z
_cell_length_a	16.974829
_cell_length_b	15.500215
_cell_length_c	16.992695
_cell_angle_alpha	92.999191
_cell_angle_beta	87.025716
_cell_angle_gamma	96.836845
loop_
_atom_site_label
_atom_site_type_symbol
_atom_site_fract_x
_atom_site_fract_y
_atom_site_fract_z
O1	O	1.062549	0.146338	0.106564
O2	O	0.832366	0.130224	0.118559
O3	O	0.946534	0.138210	-0.001583
O4	O	0.948381	0.138353	0.226707
O5	O	0.939532	-0.006170	-0.008104
O6	O	0.825363	-0.014156	0.112038
O7	O	1.055546	0.001958	0.100044
Cu8	Cu	0.939815	-0.019282	0.105446
Cu9	Cu	0.948097	0.151464	0.113157
O10	O	0.941378	-0.006027	0.220186
C11	C	0.799275	0.055963	0.114720
C12	C	0.711108	0.049790	0.112987
N13	N	0.933996	-0.139375	0.100021
C14	C	0.214407	0.006598	0.102876
C15	C	0.297250	0.012400	0.104504
C16	C	0.342489	0.094003	0.108867
C17	C	0.304881	0.169810	0.111610
C18	C	0.222039	0.164008	0.109987
C19	C	0.590658	0.119795	0.114107
C20	C	0.673506	0.125592	0.115727
C21	C	0.665869	-0.031819	0.108623
C22	C	0.583026	-0.037614	0.106996
C23	C	0.545425	0.038193	0.109743
N24	N	0.427168	0.099935	0.110529
N25	N	0.460747	0.032260	0.108086
C26	C	0.982925	-0.181220	0.145664
C27	C	0.978535	-0.272100	0.141557
C28	C	0.925210	-0.321135	0.091811
C29	C	0.876279	-0.279284	0.046163
C30	C	0.880674	-0.188405	0.050267
C31	C	0.909386	-0.595712	0.077031
C32	C	0.904993	-0.686597	0.072933
C33	C	1.007250	-0.679408	0.168326
C34	C	1.011637	-0.588527	0.172428
C35	C	0.962709	-0.546684	0.126777
C36	C	0.920719	-0.414030	0.087613
C37	C	0.967204	-0.453790	0.130971
C38	C	1.088637	0.076222	0.103883
C39	C	1.176805	0.082400	0.105616
C40	C	0.940659	0.065854	-0.034061
C41	C	0.933575	0.065358	-0.121120
N42	N	0.953922	0.271558	0.118575
C43	C	1.001922	0.070142	-0.171216
C44	C	0.995262	0.069684	-0.253017
C45	C	0.920254	0.064436	-0.284720
C46	C	0.851902	0.059654	-0.234617
C47	C	0.858563	0.060118	-0.152818
C48	C	0.892646	0.062515	-0.528375
C49	C	0.885990	0.062048	-0.610181
C50	C	1.029351	0.072080	-0.628575
C51	C	1.036006	0.072538	-0.546774
C52	C	0.967654	0.067761	-0.496678
N53	N	0.913444	0.063965	-0.368333
N54	N	0.974464	0.068239	-0.413066
C55	C	0.947253	0.066331	0.252664
C56	C	0.954337	0.066832	0.339723
H57	H	0.177578	-0.059852	0.099327
N58	N	0.770999	0.053986	-0.268809
H59	H	0.728712	0.051026	-0.224659
H60	H	0.767707	0.107095	-0.299929
N61	N	0.818925	0.057359	-0.474353
H62	H	0.834521	0.058456	-0.417721
H63	H	0.789062	0.108613	-0.482221
N64	N	1.040437	-0.128335	0.199322
H65	H	1.070768	-0.168638	0.227611
H66	H	1.078877	-0.088062	0.166937
N67	N	1.060029	-0.724529	0.217558
H68	H	1.026102	-0.764486	0.254149
H69	H	1.094867	-0.759613	0.181764
N70	N	0.181482	0.245766	0.112931
H71	H	0.122138	0.229709	0.111242
H72	H	0.194281	0.280923	0.163334
H73	H	0.546199	-0.104065	0.103426
H74	H	0.802907	0.056223	-0.112030
N75	N	0.337798	-0.069364	0.101553
H76	H	0.325061	-0.104550	0.051147
H77	H	0.397129	-0.053245	0.103280
H78	H	1.055061	-0.548608	0.212934
N79	N	0.706419	-0.113581	0.105670
H80	H	0.743969	-0.114460	0.057617
H81	H	0.737225	-0.114862	0.154789
N82	N	0.722303	0.213611	0.120432
H83	H	0.685913	0.260755	0.121928
H84	H	0.753496	0.219211	0.169828
N85	N	0.550109	0.201555	0.117058
H86	H	0.591341	0.254128	0.120061
H87	H	0.519253	0.202799	0.067967
H88	H	1.018380	-0.306166	0.178722
N89	N	0.353670	0.257827	0.116319
H90	H	0.411856	0.250002	0.116928
H91	H	0.344200	0.291409	0.069015
N92	N	0.847466	-0.739489	0.019286
H93	H	0.817134	-0.699192	-0.009009
H94	H	0.877797	-0.774952	-0.020657
N95	N	1.068979	0.074833	-0.307050
H96	H	1.072015	0.128387	-0.338977
H97	H	1.117463	0.078185	-0.274500
H98	H	0.869545	-0.561654	0.039858
H99	H	0.832865	-0.319215	0.005655
H100	H	0.840831	-0.154336	0.013100
H101	H	1.097085	0.076812	-0.520968
N102	N	1.024719	-0.400902	0.184619
H103	H	0.994429	-0.365445	0.224607
H104	H	1.055039	-0.441250	0.212862
H105	H	1.085000	0.075970	-0.669371
N106	N	1.082827	0.075797	-0.137030
H107	H	1.091385	0.129732	-0.101078
H108	H	1.086134	0.022649	-0.105966
H109	H	0.824906	0.057761	-0.635990
H110	H	0.877302	-0.453964	0.047110
