data_functionalizedCrystal
_audit_creation_method	'MofGen! by Chris Wilmer'
_symmetry_space_group_name_H-M	'P1'
_symmetry_Int_Tables_number	1
_symmetry_cell_setting	triclinic
loop_
_symmetry_equiv_pos_as_xyz
  x,y,z
_cell_length_a	10.723022
_cell_length_b	23.532357
_cell_length_c	9.798715
_cell_angle_alpha	89.991329
_cell_angle_beta	89.996609
_cell_angle_gamma	83.647759
loop_
_atom_site_label
_atom_site_type_symbol
_atom_site_fract_x
_atom_site_fract_y
_atom_site_fract_z
O1	O	1.654669	0.079868	-0.113501
O2	O	1.291275	0.087515	-0.113507
O3	O	1.483963	0.000829	-0.113476
O4	O	1.461981	0.166554	-0.113532
O5	O	1.483948	0.000829	0.113507
O6	O	1.291261	0.087514	0.113475
O7	O	1.654655	0.079868	0.113482
Zn8	Zn	1.472956	0.083691	0.149517
Zn9	Zn	1.472974	0.083691	-0.149542
O10	O	1.461967	0.166554	0.113450
C11	C	1.244786	0.086958	-0.000016
C12	C	1.106284	0.085294	-0.000018
C13	C	1.483406	-0.020391	0.000020
C14	C	1.481753	-0.083621	0.000032
C15	C	1.059300	0.035305	-0.000001
C16	C	0.916151	0.033584	-0.000003
C17	C	1.471383	-0.475699	-0.123769
C18	C	1.469811	-0.535109	-0.123777
O19	O	1.468963	-0.565830	-0.229003
N20	N	1.469024	-0.564825	-0.000051
C21	C	1.469796	-0.535128	0.123691
O22	O	1.468981	-0.565859	0.228929
C23	C	1.471359	-0.475719	0.123698
C24	C	1.472158	-0.446006	-0.000037
C25	C	1.472181	-0.445986	-0.247494
C26	C	1.473755	-0.386581	-0.247485
C27	C	1.474530	-0.356888	-0.123753
C28	C	1.473732	-0.386601	-0.000028
C29	C	1.472121	-0.446022	0.247438
C30	C	1.473683	-0.386609	0.247434
C31	C	1.474482	-0.356897	0.123700
C32	C	1.476081	-0.297503	0.123713
N33	N	1.476868	-0.267786	-0.000014
C34	C	1.476092	-0.297479	-0.123746
C35	C	1.466513	-0.659891	0.123668
C36	C	1.464959	-0.719299	0.123663
C37	C	1.464972	-0.719276	-0.123805
C38	C	1.466535	-0.659867	-0.123799
C39	C	1.467300	-0.630174	-0.000058
C40	C	1.479398	-0.172724	-0.123719
C41	C	1.480977	-0.113313	-0.123700
C42	C	1.480958	-0.113342	0.123768
C43	C	1.479385	-0.172747	0.123750
C44	C	1.478601	-0.202436	-0.000005
O45	O	1.476925	-0.266743	0.228885
O46	O	1.476891	-0.266740	-0.228967
C47	C	1.701144	0.080424	-0.000012
C48	C	1.839646	0.082089	-0.000020
C49	C	1.462524	0.187774	-0.000048
C50	C	1.464177	0.251003	-0.000070
N51	N	1.472952	0.083691	0.353616
N52	N	1.472988	0.083688	-0.353642
C53	C	1.553861	0.047133	0.421406
C54	C	1.553881	0.047131	0.578569
H55	H	1.125052	-0.006217	0.000007
C56	C	1.646186	0.005304	0.656118
C57	C	1.626365	-0.050713	0.621457
C58	C	1.711384	-0.089261	0.692858
H59	H	1.634011	0.010770	0.751439
H60	H	1.729488	0.011682	0.632721
H61	H	1.543083	-0.057089	0.644864
H62	H	1.638549	-0.056198	0.526149
H63	H	1.794685	-0.082883	0.669461
H64	H	1.699202	-0.083790	0.788175
H65	H	1.697954	-0.127273	0.669341
C66	C	1.380460	0.125448	0.431111
C67	C	1.305790	0.159165	0.338112
C68	C	1.220558	0.197634	0.409445
H69	H	1.425104	0.149308	0.486844
H70	H	1.328630	0.104807	0.486838
H71	H	1.357614	0.179805	0.282409
H72	H	1.261119	0.135321	0.282375
H73	H	1.168728	0.176993	0.465172
H74	H	1.265213	0.221490	0.465177
H75	H	1.169877	0.220512	0.346357
H76	H	1.471472	-0.470204	0.348196
C77	C	1.467105	-0.627612	0.257984
C78	C	1.360625	-0.587524	0.265247
C79	C	1.361118	-0.557786	0.388963
H80	H	1.540405	-0.608448	0.263268
H81	H	1.466347	-0.653800	0.331703
H82	H	1.361395	-0.561340	0.191549
H83	H	1.287309	-0.606673	0.259987
H84	H	1.360360	-0.583974	0.462682
H85	H	1.434422	-0.538626	0.394236
H86	H	1.288868	-0.530587	0.393913
C87	C	0.861970	-0.023432	-0.000055
C88	C	0.730760	-0.013804	-0.000094
C89	C	0.680804	-0.066314	-0.000162
H90	H	0.889484	-0.044527	0.079082
H91	H	0.889560	-0.044485	-0.079235
H92	H	0.703182	0.007241	0.079078
H93	H	0.703212	0.007283	-0.079226
H94	H	0.708394	-0.087368	-0.079342
H95	H	0.708327	-0.087405	0.078977
H96	H	0.591774	-0.059789	-0.000201
H97	H	0.880099	0.124891	-0.000026
C98	C	1.646438	0.005429	0.343875
C99	C	1.769039	0.015007	0.378571
C100	C	1.854368	-0.023406	0.307210
H101	H	1.634356	0.010926	0.248549
H102	H	1.633249	-0.032628	0.367283
H103	H	1.782222	0.053055	0.355154
H104	H	1.781161	0.009505	0.473885
H105	H	1.841180	-0.061463	0.330617
H106	H	1.842275	-0.017906	0.211887
H107	H	1.937562	-0.016916	0.330750
H108	H	1.481631	-0.089124	-0.224464
H109	H	1.403719	0.114989	0.588070
H110	H	1.481595	-0.089155	0.224508
C111	C	1.471540	-0.478302	-0.381745
C112	C	1.577994	-0.518406	-0.388967
C113	C	1.577448	-0.548186	-0.512620
H114	H	1.472301	-0.452158	-0.455532
H115	H	1.398197	-0.497452	-0.386926
H116	H	1.651317	-0.499257	-0.383800
H117	H	1.577254	-0.544561	-0.315209
H118	H	1.504105	-0.567337	-0.517801
H119	H	1.578206	-0.522039	-0.586397
H120	H	1.649669	-0.575404	-0.517531
H121	H	1.040532	0.126817	-0.000038
H122	H	1.478754	-0.196889	-0.224492
C123	C	1.464380	-0.751505	-0.258190
C124	C	1.572142	-0.743059	-0.332829
C125	C	1.571649	-0.772748	-0.456613
H126	H	1.391951	-0.737735	-0.309193
H127	H	1.463399	-0.791151	-0.240518
H128	H	1.573111	-0.703422	-0.350505
H129	H	1.644588	-0.756832	-0.281867
H130	H	1.570668	-0.812393	-0.438941
H131	H	1.499215	-0.758975	-0.507604
H132	H	1.644769	-0.767026	-0.507265
H133	H	1.474401	-0.362394	-0.348243
H134	H	1.467184	-0.635679	-0.224555
C135	C	1.474256	-0.354325	0.381742
C136	C	1.367777	-0.314236	0.388978
C137	C	1.368255	-0.284491	0.512685
H138	H	1.547556	-0.335162	0.387030
H139	H	1.473487	-0.380509	0.455468
H140	H	1.368557	-0.288056	0.315271
H141	H	1.294460	-0.333385	0.383713
H142	H	1.367487	-0.310675	0.586411
H143	H	1.441560	-0.265331	0.517962
H144	H	1.296005	-0.257291	0.517616
H145	H	1.478746	-0.196941	0.224504
H146	H	1.464327	-0.743487	0.224420
