data_functionalizedCrystal
_audit_creation_method	'MofGen! by Chris Wilmer'
_symmetry_space_group_name_H-M	'P1'
_symmetry_Int_Tables_number	1
_symmetry_cell_setting	triclinic
loop_
_symmetry_equiv_pos_as_xyz
  x,y,z
_cell_length_a	13.033293
_cell_length_b	16.120444
_cell_length_c	13.032268
_cell_angle_alpha	99.643348
_cell_angle_beta	89.079182
_cell_angle_gamma	100.431871
loop_
_atom_site_label
_atom_site_type_symbol
_atom_site_fract_x
_atom_site_fract_y
_atom_site_fract_z
Zn1	Zn	1.479894	-0.262707	-0.795796
Zn2	Zn	1.979894	0.237293	-0.295796
Zn3	Zn	1.493060	-0.384053	-0.630435
Zn4	Zn	1.993060	0.115947	-0.130435
Zn5	Zn	1.330069	-0.258248	-0.601729
Zn6	Zn	1.830069	0.241752	-0.101729
Zn7	Zn	1.296822	-0.419254	-0.782392
Zn8	Zn	1.796822	0.080746	-0.282392
O9	O	1.399961	-0.331066	-0.702588
O10	O	1.899961	0.168934	-0.202588
O11	O	1.626468	-0.265939	-0.791483
O12	O	2.126468	0.234061	-0.291483
O13	O	1.490862	-0.350767	-0.481814
O14	O	1.990862	0.149233	0.018186
O15	O	1.358348	-0.140674	-0.621068
O16	O	1.858348	0.359326	-0.121068
O17	O	1.636141	-0.355091	-0.669993
O18	O	2.136141	0.144909	-0.169993
O19	O	1.468423	-0.143950	-0.763649
O20	O	1.968423	0.356050	-0.263649
O21	O	1.371114	-0.258339	-0.460724
O22	O	1.871114	0.241661	0.039276
O23	O	1.180831	-0.292471	-0.608071
O24	O	1.680831	0.207529	-0.108071
O25	O	1.301683	-0.415085	-0.928983
O26	O	1.801683	0.084915	-0.428983
O27	O	1.156404	-0.410762	-0.740804
O28	O	1.656404	0.089238	-0.240804
O29	O	1.436185	-0.300071	-0.938831
O30	O	1.936185	0.199929	-0.438831
O31	O	1.458624	-0.506888	-0.656996
O32	O	1.958624	-0.006888	-0.156996
O33	O	1.314450	-0.532750	-0.768639
O34	O	1.814450	-0.032750	-0.268639
C35	C	1.131065	-0.354953	-0.669869
C36	C	1.631065	0.145047	-0.169869
C37	C	1.016026	-0.365195	-0.655897
C38	C	1.516026	0.134805	-0.155897
C39	C	0.959932	-0.325741	-0.709881
C40	C	1.459932	0.174259	-0.209881
C41	C	0.841033	-0.336326	-0.695442
C42	C	1.341033	0.163674	-0.195442
C43	C	1.384383	-0.550458	-0.714504
C44	C	1.884383	-0.050458	-0.214504
C45	C	1.377809	-0.644311	-0.719648
C46	C	1.877809	-0.144311	-0.219648
C47	C	1.434289	-0.845131	-0.676157
C48	C	1.934289	-0.345131	-0.176157
C49	C	1.365823	-0.816133	-0.729053
C50	C	1.865823	-0.316133	-0.229053
C51	C	1.372494	-0.720522	-0.723818
C52	C	1.872494	-0.220522	-0.223818
C53	C	1.427620	-0.940750	-0.681390
C54	C	1.927620	-0.440750	-0.181390
C55	C	1.669907	-0.307086	-0.735435
C56	C	2.169907	0.192914	-0.235435
C57	C	1.784942	-0.296867	-0.749433
C58	C	2.284942	0.203133	-0.249433
C59	C	1.363757	-0.362002	-0.972505
C60	C	1.863757	0.137998	-0.472505
C61	C	1.348329	-0.375185	-1.087528
C62	C	1.848329	0.124815	-0.587528
C63	C	1.415625	-0.110816	-0.690651
C64	C	1.915625	0.389184	-0.190651
C65	C	1.422300	-0.016959	-0.685565
C66	C	1.922300	0.483041	-0.185565
C67	C	1.407999	-0.324156	-1.143681
C68	C	1.907999	0.175844	-0.643681
C69	C	1.392055	-0.337781	-1.262563
C70	C	1.892055	0.162219	-0.762563
C71	C	1.436088	-0.300183	-0.433725
C72	C	1.936088	0.199817	0.066275
C73	C	1.451734	-0.286744	-0.318714
C74	C	1.951734	0.213256	0.181286
H75	H	0.801036	-0.377941	-0.638528
H76	H	1.301036	0.122059	-0.138528
H77	H	1.470886	-0.270379	-1.103743
H78	H	1.970886	0.229621	-0.603743
N79	N	1.285983	-0.875062	-0.790771
N80	N	1.785983	-0.375062	-0.290771
N81	N	1.192086	-0.873061	-0.771672
N82	N	1.692086	-0.373061	-0.271672
H83	H	1.135697	-0.914681	-0.815255
H84	H	1.635697	-0.414681	-0.315255
H85	H	1.497910	-0.798155	-0.626943
H86	H	1.997910	-0.298155	-0.126943
H87	H	1.329154	-0.391554	-1.302495
H88	H	1.829154	0.108446	-0.802495
H89	H	1.514623	-0.232962	-1.278782
H90	H	2.014623	0.267038	-0.778782
H91	H	0.824938	-0.255245	-0.806339
H92	H	1.324938	0.244755	-0.306339
N93	N	1.269428	-0.442637	-1.137633
N94	N	1.769428	0.057363	-0.637633
N95	N	1.256584	-0.453607	-1.234133
N96	N	1.756584	0.046393	-0.734133
H97	H	1.200857	-0.501245	-1.269519
H98	H	1.700857	-0.001245	-0.769519
H99	H	0.999934	-0.284124	-0.766784
H100	H	1.499934	0.215876	-0.266784
N101	N	0.965841	-0.417390	-0.584499
N102	N	1.465841	0.082610	-0.084499
N103	N	0.869326	-0.425910	-0.572866
N104	N	1.369326	0.074090	-0.072866
H105	H	0.833884	-0.462772	-0.522439
H106	H	1.333884	0.037228	-0.022439
