data_functionalizedCrystal
_audit_creation_method	'MofGen! by Chris Wilmer'
_symmetry_space_group_name_H-M	'P1'
_symmetry_Int_Tables_number	1
_symmetry_cell_setting	triclinic
loop_
_symmetry_equiv_pos_as_xyz
  x,y,z
_cell_length_a	8.559649
_cell_length_b	17.038272
_cell_length_c	7.088929
_cell_angle_alpha	83.325468
_cell_angle_beta	95.325015
_cell_angle_gamma	80.445110
loop_
_atom_site_label
_atom_site_type_symbol
_atom_site_fract_x
_atom_site_fract_y
_atom_site_fract_z
O1	O	2.101368	-0.017362	-0.158956
O2	O	1.641608	0.022690	-0.158968
O3	O	1.868757	-0.110988	-0.158947
O4	O	1.874219	0.116317	-0.158977
O5	O	1.899108	-0.128889	0.159031
O6	O	1.671959	0.004789	0.159010
O7	O	2.131720	-0.035263	0.159022
Cu8	Cu	1.904611	-0.016871	0.188050
Cu9	Cu	1.868717	0.004298	-0.187996
O10	O	1.904570	0.098416	0.159001
C11	C	1.597666	0.016775	0.000020
C12	C	1.421514	0.025810	0.000016
C13	C	1.878962	-0.148769	0.000042
C14	C	1.864133	-0.234674	0.000041
C15	C	2.000285	-0.292946	0.000046
C16	C	1.986340	-0.373660	0.000028
C17	C	1.836242	-0.396101	0.000018
C18	C	1.700079	-0.337821	0.000006
C19	C	1.714024	-0.257108	0.000011
C20	C	1.786975	-0.638906	-0.000010
C21	C	1.773041	-0.719626	-0.000009
C22	C	2.059303	-0.755459	0.000009
C23	C	2.073236	-0.674743	0.000025
C24	C	1.937072	-0.616470	0.000004
C25	C	1.821985	-0.478604	0.000005
C26	C	1.951329	-0.533968	0.000003
C27	C	2.175661	-0.029347	0.000030
C28	C	2.351812	-0.038381	0.000022
C29	C	1.894365	0.136197	0.000008
C30	C	1.909193	0.222102	-0.000003
N31	N	1.929868	-0.031762	0.452540
N32	N	1.843471	0.019182	-0.452486
H33	H	1.426899	-0.100250	0.000020
C34	C	2.270698	-0.400974	0.000091
C35	C	2.136007	-0.437714	0.000056
H36	H	2.363099	-0.440521	0.000121
H37	H	2.259612	-0.362505	-0.110787
H38	H	2.280741	-0.374989	0.110985
H39	H	2.125956	-0.463694	-0.110847
H40	H	2.147094	-0.476197	0.110945
H41	H	2.019427	-0.084554	0.534205
C42	C	1.159412	0.102427	-0.000000
C43	C	1.320151	0.109339	0.000003
H44	H	1.096840	0.153993	0.000003
H45	H	1.125608	0.080550	-0.110878
H46	H	1.146777	0.068058	0.110895
H47	H	1.332788	0.143703	-0.110900
H48	H	1.353966	0.131227	0.110892
H49	H	2.122512	-0.274683	0.000066
H50	H	1.753930	0.071976	0.465859
C51	C	2.354795	-0.718273	0.000040
C52	C	2.238230	-0.650079	0.000039
H53	H	2.456653	-0.703044	0.000047
H54	H	2.353978	-0.755254	0.110912
H55	H	2.332816	-0.742761	-0.110860
H56	H	2.260202	-0.625594	0.110948
H57	H	2.239050	-0.613085	-0.110844
C58	C	1.624567	-0.827447	0.000003
C59	C	1.608042	-0.744295	-0.000018
H60	H	1.522710	-0.842677	0.000014
H61	H	1.670501	-0.841788	-0.110871
H62	H	1.691679	-0.854269	0.110902
H63	H	1.540938	-0.717473	-0.110925
H64	H	1.562085	-0.729946	0.110867
C65	C	1.502626	-0.611609	0.000017
C66	C	1.637307	-0.574861	0.000003
H67	H	1.410227	-0.572067	0.000042
H68	H	1.492552	-0.637585	-0.110867
H69	H	1.513751	-0.650087	0.110906
H70	H	1.626187	-0.536387	-0.110894
H71	H	1.647381	-0.548871	0.110898
H72	H	2.170160	-0.802912	0.000023
C73	C	1.502735	-0.398602	-0.163460
C74	C	1.535089	-0.362490	-0.000005
H75	H	1.400880	-0.413834	-0.163452
H76	H	1.503533	-0.361615	-0.274325
H77	H	1.581841	-0.444858	-0.163435
H78	H	1.455990	-0.316230	-0.000037
H79	H	1.534278	-0.399479	0.110890
H80	H	1.603153	-0.209662	0.000006
H81	H	2.073534	-0.515691	-0.000031
H82	H	1.699775	-0.496884	0.000001
