data_functionalizedCrystal
_audit_creation_method	'MofGen! by Chris Wilmer'
_symmetry_space_group_name_H-M	'P1'
_symmetry_Int_Tables_number	1
_symmetry_cell_setting	triclinic
loop_
_symmetry_equiv_pos_as_xyz
  x,y,z
_cell_length_a	12.759401
_cell_length_b	29.839131
_cell_length_c	12.759393
_cell_angle_alpha	89.963184
_cell_angle_beta	89.979062
_cell_angle_gamma	90.042945
loop_
_atom_site_label
_atom_site_type_symbol
_atom_site_fract_x
_atom_site_fract_y
_atom_site_fract_z
Zn1	Zn	1.606071	-0.178813	-0.593974
Zn2	Zn	2.106071	0.321187	-0.093974
Zn3	Zn	1.605880	-0.253950	-0.418275
Zn4	Zn	2.105880	0.246050	0.081725
Zn5	Zn	1.430370	-0.178837	-0.418309
Zn6	Zn	1.930370	0.321163	0.081691
Zn7	Zn	1.430280	-0.253919	-0.593912
Zn8	Zn	1.930280	0.246081	-0.093912
O9	O	1.518150	-0.216380	-0.506117
O10	O	2.018150	0.283620	-0.006117
O11	O	1.753067	-0.188784	-0.570679
O12	O	2.253067	0.311216	-0.070679
O13	O	1.582556	-0.244010	-0.271258
O14	O	2.082556	0.255990	0.228742
O15	O	1.453795	-0.115967	-0.441652
O16	O	1.953795	0.384033	0.058348
O17	O	1.752927	-0.243986	-0.441593
O18	O	2.252927	0.256014	0.058407
O19	O	1.582882	-0.115949	-0.570712
O20	O	2.082882	0.384051	-0.070712
O21	O	1.453610	-0.188824	-0.271283
O22	O	1.953610	0.311176	0.228717
O23	O	1.283337	-0.188794	-0.441592
O24	O	1.783337	0.311206	0.058408
O25	O	1.453641	-0.243933	-0.740941
O26	O	1.953641	0.256067	-0.240941
O27	O	1.283271	-0.243956	-0.570606
O28	O	1.783271	0.256044	-0.070606
O29	O	1.582794	-0.188753	-0.740987
O30	O	2.082794	0.311247	-0.240987
O31	O	1.582469	-0.316813	-0.441533
O32	O	2.082469	0.183187	0.058467
O33	O	1.453456	-0.316790	-0.570573
O34	O	1.953456	0.183210	-0.070573
C35	C	1.245183	-0.216375	-0.506097
C36	C	1.745183	0.283625	-0.006097
C37	C	1.128406	-0.216383	-0.506113
C38	C	1.628406	0.283617	-0.006113
C39	C	1.073538	-0.245150	-0.573185
C40	C	1.573538	0.254850	-0.073185
C41	C	0.963813	-0.245151	-0.573206
C42	C	1.463813	0.254849	-0.073206
C43	C	0.963837	-0.187618	-0.439073
C44	C	1.463837	0.312382	0.060927
C45	C	1.073559	-0.187615	-0.439058
C46	C	1.573559	0.312385	0.060942
C47	C	1.517961	-0.333103	-0.506065
C48	C	2.017961	0.166897	-0.006065
C49	C	1.517976	-0.383037	-0.506078
C50	C	2.017976	0.116963	-0.006078
C51	C	1.585450	-0.692680	-0.439024
C52	C	2.085450	-0.192680	0.060976
C53	C	1.585579	-0.880353	-0.439065
C54	C	2.085579	-0.380353	0.060935
O55	O	1.642798	-0.904617	-0.382014
O56	O	2.142798	-0.404617	0.117986
N57	N	1.518368	-0.903822	-0.506197
N58	N	2.018368	-0.403822	-0.006197
C59	C	1.451125	-0.880370	-0.573327
C60	C	1.951125	-0.380370	-0.073327
O61	O	1.393969	-0.904638	-0.630435
O62	O	1.893969	-0.404638	-0.130435
C63	C	1.451001	-0.692698	-0.573291
C64	C	1.951001	-0.192698	-0.073291
C65	C	1.518209	-0.669231	-0.506148
C66	C	2.018209	-0.169231	-0.006148
C67	C	1.652653	-0.669213	-0.371888
C68	C	2.152653	-0.169213	0.128112
C69	C	1.652616	-0.622297	-0.371874
C70	C	2.152616	-0.122297	0.128126
C71	C	1.585375	-0.598849	-0.438997
C72	C	2.085375	-0.098849	0.061003
C73	C	1.518172	-0.622316	-0.506134
C74	C	2.018172	-0.122316	-0.006134
C75	C	1.383764	-0.669247	-0.640427
C76	C	1.883764	-0.169247	-0.140427
C77	C	1.383741	-0.622326	-0.640413
C78	C	1.883741	-0.122326	-0.140413
C79	C	1.450949	-0.598859	-0.573270
C80	C	1.950949	-0.098859	-0.073270
C81	C	1.450895	-0.551952	-0.573244
C82	C	1.950895	-0.051952	-0.073244
N83	N	1.518106	-0.528482	-0.506113
N84	N	2.018106	-0.028482	-0.006113
C85	C	1.585346	-0.551931	-0.438989
C86	C	2.085346	-0.051931	0.061011
C87	C	1.451193	-0.978901	-0.573340
C88	C	1.951193	-0.478901	-0.073340
C89	C	1.451223	-1.025819	-0.573348
C90	C	1.951223	-0.525819	-0.073348
C91	C	1.585679	-1.025798	-0.439087
C92	C	2.085679	-0.525798	0.060913
C93	C	1.585643	-0.978879	-0.439075
C94	C	2.085643	-0.478879	0.060925
C95	C	1.518404	-0.955431	-0.506209
C96	C	2.018404	-0.455431	-0.006209
C97	C	1.585262	-0.453405	-0.438965
C98	C	2.085262	0.046595	0.061035
C99	C	1.585216	-0.406486	-0.438955
C100	C	2.085216	0.093514	0.061045
C101	C	1.450764	-0.406510	-0.573219
C102	C	1.950764	0.093490	-0.073219
C103	C	1.450806	-0.453426	-0.573226
C104	C	1.950806	0.046574	-0.073226
C105	C	1.518064	-0.476872	-0.506096
C106	C	2.018064	0.023128	-0.006096
O107	O	1.393715	-0.527659	-0.630274
O108	O	1.893715	-0.027659	-0.130274
O109	O	1.642510	-0.527655	-0.381907
O110	O	2.142510	-0.027655	0.118093
C111	C	1.585487	-0.739595	-0.439038
C112	C	2.085487	-0.239595	0.060962
C113	C	1.518284	-0.763062	-0.506175
C114	C	2.018284	-0.263062	-0.006175
C115	C	1.451043	-0.739613	-0.573298
C116	C	1.951043	-0.239613	-0.073298
C117	C	1.518313	-0.809980	-0.506183
C118	C	2.018313	-0.309980	-0.006183
C119	C	1.585553	-0.833428	-0.439060
C120	C	2.085553	-0.333428	0.060940
C121	C	1.652764	-0.809959	-0.371928
C122	C	2.152764	-0.309959	0.128072
C123	C	1.652727	-0.763044	-0.371915
C124	C	2.152727	-0.263044	0.128085
C125	C	1.383832	-0.763083	-0.640430
C126	C	1.883832	-0.263083	-0.140430
C127	C	1.383874	-0.809998	-0.640437
C128	C	1.883874	-0.309998	-0.140437
C129	C	1.451114	-0.833447	-0.573314
C130	C	1.951114	-0.333447	-0.073314
C131	C	1.792184	-0.216386	-0.506139
C132	C	2.292184	0.283614	-0.006139
C133	C	1.908960	-0.216388	-0.506148
C134	C	2.408960	0.283612	-0.006148
C135	C	1.518229	-0.216337	-0.780151
C136	C	2.018229	0.283663	-0.280151
C137	C	1.518263	-0.216318	-0.896928
C138	C	2.018263	0.283682	-0.396928
C139	C	1.518370	-0.099202	-0.506193
C140	C	2.018370	0.400798	-0.006193
C141	C	1.518463	-0.049267	-0.506225
C142	C	2.018463	0.450733	-0.006225
C143	C	1.585518	-0.187582	-0.951815
C144	C	2.085518	0.312418	-0.451815
C145	C	1.585535	-0.187562	-1.061539
C146	C	2.085535	0.312438	-0.561539
C147	C	1.451040	-0.245020	-1.061479
C148	C	1.951040	0.254980	-0.561479
C149	C	1.451018	-0.245037	-0.951757
C150	C	1.951018	0.254963	-0.451757
C151	C	1.518133	-0.216391	-0.233150
C152	C	2.018133	0.283609	0.266850
C153	C	1.518303	-0.216282	-0.116374
C154	C	2.018303	0.283718	0.383626
H155	H	0.919167	-0.164197	-0.384478
H156	H	1.419167	0.335803	0.115522
O157	O	1.718118	-0.832672	-0.306626
O158	O	2.218118	-0.332672	0.193374
C159	C	1.777460	-0.801904	-0.247381
C160	C	2.277460	-0.301904	0.252619
H161	H	1.734412	-0.768478	-0.243682
H162	H	2.234412	-0.268478	0.256318
H163	H	1.788724	-0.815487	-0.164622
H164	H	2.288724	-0.315487	0.335378
H165	H	1.857227	-0.796866	-0.285929
H166	H	2.357227	-0.296866	0.214071
O167	O	1.650818	-0.159585	-1.114738
O168	O	2.150818	0.340415	-0.614738
C169	C	1.627923	-0.114813	-1.087963
C170	C	2.127923	0.385187	-0.587963
H171	H	1.587520	-0.113896	-1.008292
H172	H	2.087520	0.386104	-0.508292
H173	H	1.703787	-0.094673	-1.084229
H174	H	2.203787	0.405327	-0.584229
H175	H	1.573952	-0.099668	-1.149715
H176	H	2.073952	0.400332	-0.649715
O177	O	1.126913	-0.159622	-0.374049
O178	O	1.626913	0.340378	0.125951
C179	C	1.190475	-0.130643	-0.433983
C180	C	1.690475	0.369357	0.066017
H181	H	1.157451	-0.127911	-0.516745
H182	H	1.657451	0.372089	-0.016745
H183	H	1.191761	-0.096050	-0.396134
H184	H	1.691761	0.403950	0.103866
H185	H	1.273610	-0.144534	-0.437535
H186	H	1.773610	0.355466	0.062465
H187	H	1.329031	-0.688346	-0.695097
H188	H	1.829031	-0.188346	-0.195097
H189	H	1.639945	-0.387380	-0.384275
H190	H	2.139945	0.112620	0.115725
O191	O	1.385651	-0.272997	-0.898594
O192	O	1.885651	0.227003	-0.398594
C193	C	1.326292	-0.298336	-0.970513
C194	C	1.826292	0.201664	-0.470513
H195	H	1.369335	-0.299883	-1.048735
H196	H	1.869335	0.200117	-0.548735
H197	H	1.315011	-0.333736	-0.938781
H198	H	1.815011	0.166264	-0.438781
H199	H	1.246533	-0.281881	-0.982180
H200	H	1.746533	0.218119	-0.482180
H201	H	1.640032	-0.472490	-0.384304
H202	H	2.140032	0.027510	0.115696
H203	H	1.118191	-0.268573	-0.627787
H204	H	1.618191	0.231427	-0.127787
H205	H	1.707345	-0.603193	-0.317203
H206	H	2.207345	-0.103193	0.182797
H207	H	1.707414	-0.688300	-0.317227
H208	H	2.207414	-0.188300	0.182773
H209	H	1.328988	-0.603237	-0.695086
H210	H	1.828988	-0.103237	-0.195086
H211	H	1.640370	-0.959775	-0.384402
H212	H	2.140370	-0.459775	0.115598
O213	O	0.910677	-0.273139	-0.638391
O214	O	1.410677	0.226861	-0.138391
C215	C	0.982619	-0.298519	-0.697587
C216	C	1.482619	0.201481	-0.197587
H217	H	1.060807	-0.300049	-0.654533
H218	H	1.560807	0.199951	-0.154533
H219	H	0.950866	-0.333922	-0.708645
H220	H	1.450866	0.166078	-0.208645
H221	H	0.994359	-0.282109	-0.777450
H222	H	1.494359	0.217891	-0.277450
O223	O	1.651027	-1.048650	-0.374045
O224	O	2.151027	-0.548650	0.125955
C225	C	1.636646	-1.095091	-0.388472
C226	C	2.136646	-0.595091	0.111528
H227	H	1.602104	-1.101475	-0.469488
H228	H	2.102104	-0.601475	0.030512
H229	H	1.715381	-1.112880	-0.381541
H230	H	2.215381	-0.612880	0.118459
H231	H	1.580827	-1.108473	-0.326055
H232	H	2.080827	-0.608473	0.173945
O233	O	1.385485	-0.476155	-0.638543
O234	O	1.885485	0.023845	-0.138543
C235	C	1.326108	-0.445395	-0.697762
C236	C	1.826108	0.054605	-0.197762
H237	H	1.369108	-0.411928	-0.701417
H238	H	1.869108	0.088072	-0.201417
H239	H	1.314876	-0.458925	-0.780538
H240	H	1.814876	0.041075	-0.280538
H241	H	1.246328	-0.440459	-0.659220
H242	H	1.746328	0.059541	-0.159220
O243	O	1.650937	-0.159746	-0.898504
O244	O	2.150937	0.340254	-0.398504
C245	C	1.718719	-0.185331	-0.835008
C246	C	2.218719	0.314669	-0.335008
H247	H	1.725157	-0.220709	-0.868049
H248	H	2.225157	0.279291	-0.368049
H249	H	1.799600	-0.169082	-0.833785
H250	H	2.299600	0.330918	-0.333785
H251	H	1.686213	-0.186891	-0.751846
H252	H	2.186213	0.313109	-0.251846
O253	O	1.385895	-1.048542	-0.638662
O254	O	1.885895	-0.548542	-0.138662
C255	C	1.326529	-1.017779	-0.697883
C256	C	1.826529	-0.517779	-0.197883
H257	H	1.369544	-0.984315	-0.701544
H258	H	1.869544	-0.484315	-0.201544
H259	H	1.315286	-1.031311	-0.780656
H260	H	1.815286	-0.531311	-0.280656
H261	H	1.246753	-1.012835	-0.659338
H262	H	1.746753	-0.512835	-0.159338
O263	O	1.385816	-0.956077	-0.638406
O264	O	1.885816	-0.456077	-0.138406
C265	C	1.317952	-0.928995	-0.578526
C266	C	1.817952	-0.428995	-0.078526
H267	H	1.355047	-0.921969	-0.498942
H268	H	1.855047	-0.421969	0.001058
H269	H	1.303816	-0.895998	-0.621308
H270	H	1.803816	-0.395998	-0.121308
H271	H	1.240117	-0.947118	-0.566906
H272	H	1.740117	-0.447118	-0.066906
H273	H	1.396294	-0.268403	-1.106134
H274	H	1.896294	0.231597	-0.606134
O275	O	1.385606	-0.383706	-0.638534
O276	O	1.885606	0.116294	-0.138534
C277	C	1.445387	-0.356511	-0.706405
C278	C	1.945387	0.143489	-0.206405
H279	H	1.528135	-0.370617	-0.712963
H280	H	2.028135	0.129383	-0.212963
H281	H	1.407358	-0.355963	-0.787230
H282	H	1.907358	0.144037	-0.287230
H283	H	1.449009	-0.320963	-0.673905
H284	H	1.949009	0.179037	-0.173905
H285	H	1.707454	-0.743940	-0.317241
H286	H	2.207454	-0.243940	0.182759
O287	O	1.318548	-0.832722	-0.705763
O288	O	1.818548	-0.332722	-0.205763
C289	C	1.259181	-0.801959	-0.764983
C290	C	1.759181	-0.301959	-0.264983
H291	H	1.302190	-0.768493	-0.768634
H292	H	1.802190	-0.268493	-0.268634
H293	H	1.247948	-0.815488	-0.847760
H294	H	1.747948	-0.315488	-0.347760
H295	H	1.179401	-0.797019	-0.726443
H296	H	1.679401	-0.297019	-0.226443
H297	H	1.329078	-0.743995	-0.695091
H298	H	1.829078	-0.243995	-0.195091
