data_functionalizedCrystal
_audit_creation_method	'MofGen! by Chris Wilmer'
_symmetry_space_group_name_H-M	'P1'
_symmetry_Int_Tables_number	1
_symmetry_cell_setting	triclinic
loop_
_symmetry_equiv_pos_as_xyz
  x,y,z
_cell_length_a	11.169417
_cell_length_b	19.077068
_cell_length_c	11.169409
_cell_angle_alpha	87.740935
_cell_angle_beta	90.019824
_cell_angle_gamma	92.327792
loop_
_atom_site_label
_atom_site_type_symbol
_atom_site_fract_x
_atom_site_fract_y
_atom_site_fract_z
Zn1	Zn	1.815630	-0.280126	0.697665
Zn2	Zn	1.807395	-0.397846	0.505018
Zn3	Zn	1.614913	-0.280169	0.497002
Zn4	Zn	1.606803	-0.397789	0.705659
O5	O	1.711185	-0.338983	0.601336
O6	O	1.982486	-0.295748	0.672119
O7	O	1.781809	-0.382278	0.336008
O8	O	1.648378	-0.181673	0.516921
O9	O	1.976436	-0.382237	0.530582
O10	O	1.795844	-0.181642	0.664347
O11	O	1.640393	-0.295821	0.330119
O12	O	1.445887	-0.295766	0.524672
O13	O	1.634556	-0.382139	0.872546
O14	O	1.439929	-0.382181	0.677971
O15	O	1.787981	-0.295693	0.866672
O16	O	1.773945	-0.496329	0.538333
O17	O	1.626571	-0.496287	0.685743
C18	C	1.399361	-0.338972	0.601320
C19	C	1.265960	-0.338984	0.601343
C20	C	1.698517	-0.521846	0.613802
C21	C	1.693208	-0.600075	0.619175
C22	C	1.767503	-0.636826	0.545014
C23	C	1.762516	-0.710331	0.550075
C24	C	1.683227	-0.747084	0.629291
C25	C	1.608929	-0.710328	0.703460
C26	C	1.613923	-0.636824	0.698404
C27	C	1.660064	-0.966916	0.652640
C28	C	1.655073	-1.040425	0.657687
C29	C	1.808662	-1.040424	0.504303
C30	C	1.813643	-0.966918	0.499250
C31	C	1.739350	-0.930169	0.573423
N32	N	1.678125	-0.822218	0.634463
N33	N	1.744459	-0.855036	0.568256
C34	C	2.024226	-0.338994	0.601353
C35	C	2.157626	-0.338999	0.601360
C36	C	1.711282	-0.338905	0.914373
C37	C	1.711324	-0.338871	1.047771
C38	C	1.723935	-0.155406	0.588848
C39	C	1.729368	-0.077176	0.583526
C40	C	1.711160	-0.339010	0.289513
C41	C	1.711365	-0.338845	0.156103
H42	H	1.832062	-0.606907	0.480503
H43	H	1.590521	-1.070347	0.722215
C44	C	1.578338	-0.926503	0.734231
C45	C	1.441214	-0.936683	0.725025
C46	C	1.359485	-0.896268	0.806625
C47	C	1.414881	-0.845672	0.897431
C48	C	1.552013	-0.835490	0.906640
C49	C	1.633741	-0.875905	0.825040
H50	H	1.400200	-0.974139	0.657803
H51	H	1.257971	-0.903806	0.799808
H52	H	1.354381	-0.815755	0.957836
H53	H	1.593026	-0.798034	0.973863
H54	H	1.735255	-0.868367	0.831858
C55	C	1.900860	-0.926498	0.412101
C56	C	1.852318	-0.876047	0.314355
C57	C	1.939529	-0.835629	0.227195
C58	C	2.075282	-0.845662	0.237781
C59	C	2.123831	-0.896116	0.335531
C60	C	2.036620	-0.936533	0.422691
H61	H	1.751819	-0.868618	0.306514
H62	H	1.903589	-0.798280	0.154834
H63	H	2.139840	-0.815742	0.173260
H64	H	2.224329	-0.903545	0.343372
H65	H	2.072560	-0.973882	0.495052
C66	C	1.532194	-0.596394	0.779977
C67	C	1.395069	-0.606568	0.770765
C68	C	1.313341	-0.566139	0.852344
C69	C	1.368739	-0.515535	0.943136
C70	C	1.505871	-0.505359	0.952352
C71	C	1.587598	-0.545789	0.870773
H72	H	1.354054	-0.644030	0.703552
H73	H	1.211827	-0.573672	0.845521
H74	H	1.308239	-0.485607	1.003525
H75	H	1.546886	-0.467897	1.019565
H76	H	1.689113	-0.538255	0.877596
C77	C	1.890387	-1.080850	0.422725
C78	C	1.881346	-1.070818	0.285588
C79	C	1.963079	-1.111244	0.204009
C80	C	2.053852	-1.161703	0.259567
C81	C	2.062897	-1.171737	0.396711
C82	C	1.981165	-1.131311	0.478290
H83	H	1.814147	-1.033464	0.244455
H84	H	1.956383	-1.103816	0.102486
H85	H	2.114356	-1.191629	0.199177
H86	H	2.130096	-1.209091	0.437844
H87	H	1.987860	-1.138739	0.579813
H88	H	1.823014	-0.740251	0.489685
H89	H	1.544376	-0.740258	0.767964
