data_functionalizedCrystal
_audit_creation_method	'MofGen! by Chris Wilmer'
_symmetry_space_group_name_H-M	'P1'
_symmetry_Int_Tables_number	1
_symmetry_cell_setting	triclinic
loop_
_symmetry_equiv_pos_as_xyz
  x,y,z
_cell_length_a	13.448316
_cell_length_b	14.971487
_cell_length_c	16.956984
_cell_angle_alpha	79.833911
_cell_angle_beta	89.992504
_cell_angle_gamma	90.004768
loop_
_atom_site_label
_atom_site_type_symbol
_atom_site_fract_x
_atom_site_fract_y
_atom_site_fract_z
O1	O	0.082551	-1.179132	-0.103913
O2	O	0.582551	-0.679132	0.396087
O3	O	0.082584	-0.917797	-0.116356
O4	O	0.582584	-0.417797	0.383644
O5	O	0.082559	-1.064165	0.005929
O6	O	0.582559	-0.564165	0.505929
O7	O	0.082577	-1.032764	-0.226198
O8	O	0.582577	-0.532764	0.273802
O9	O	-0.082825	-1.064163	0.005940
O10	O	0.417175	-0.564163	0.505940
O11	O	-0.082800	-0.917794	-0.116345
O12	O	0.417200	-0.417794	0.383655
O13	O	-0.082833	-1.179129	-0.103903
O14	O	0.417167	-0.679129	0.396097
Cu15	Cu	-0.097917	-1.048462	-0.110123
Cu16	Cu	0.402083	-0.548462	0.389877
Cu17	Cu	0.097668	-1.048464	-0.110135
Cu18	Cu	0.597668	-0.548464	0.389865
O19	O	-0.082807	-1.032761	-0.226188
O20	O	0.417193	-0.532761	0.273812
C21	C	-0.000103	-0.884513	-0.115794
C22	C	0.499897	-0.384513	0.384206
C23	C	-0.000091	-0.785341	-0.114126
C24	C	0.499909	-0.285341	0.385874
N25	N	-0.235481	-1.048466	-0.110114
N26	N	0.264519	-0.548466	0.389886
C27	C	-0.000086	-0.722718	-0.185965
C28	C	0.499914	-0.222718	0.314035
C29	C	-0.000098	-0.629536	-0.184393
C30	C	0.499902	-0.129536	0.315607
C31	C	-0.000109	-0.598980	-0.110981
C32	C	0.499891	-0.098980	0.389019
C33	C	-0.000118	-0.661611	-0.039137
C34	C	0.499882	-0.161611	0.460863
C35	C	-0.000112	-0.754791	-0.040709
C36	C	0.499888	-0.254791	0.459291
C37	C	-0.000127	-0.467395	-0.035864
C38	C	0.499873	0.032605	0.464136
C39	C	-0.000131	-0.374209	-0.034291
C40	C	0.499869	0.125791	0.465709
C41	C	-0.000113	-0.342140	-0.179548
C42	C	0.499887	0.157860	0.320452
C43	C	-0.000108	-0.435320	-0.181121
C44	C	0.499892	0.064680	0.318879
C45	C	-0.000114	-0.497945	-0.109275
C46	C	0.499886	0.002055	0.390725
N47	N	0.235233	-1.048467	-0.110138
N48	N	0.735233	-0.548467	0.389862
C49	C	0.287262	-1.113384	-0.056097
C50	C	0.787262	-0.613384	0.443903
C51	C	0.391365	-1.113388	-0.056095
C52	C	0.891365	-0.613388	0.443905
C53	C	0.443437	-1.048470	-0.110131
C54	C	0.943437	-0.548470	0.389869
C55	C	0.391401	-0.983550	-0.164177
C56	C	0.891401	-0.483550	0.335823
C57	C	0.287300	-0.983551	-0.164183
C58	C	0.787300	-0.483551	0.335817
C59	C	0.608381	-0.983551	-0.164161
C60	C	1.108381	-0.483551	0.335839
C61	C	0.712490	-0.983549	-0.164155
C62	C	1.212490	-0.483549	0.335845
C63	C	0.712446	-1.113389	-0.056073
C64	C	1.212446	-0.613389	0.443927
C65	C	0.608345	-1.113390	-0.056078
C66	C	1.108345	-0.613390	0.443922
C67	C	0.556316	-1.048468	-0.110125
C68	C	1.056316	-0.548468	0.389875
C69	C	-0.000133	-1.065772	0.035641
C70	C	0.499867	-0.565772	0.535641
C71	C	-0.000133	-1.070552	0.124157
C72	C	0.499867	-0.570552	0.624157
C73	C	-0.000137	-0.212414	-0.104464
C74	C	0.499863	0.287586	0.395536
C75	C	-0.000125	-0.311586	-0.106130
C76	C	0.499875	0.188414	0.393870
C77	C	-0.000113	-1.031154	-0.255900
C78	C	0.499887	-0.531154	0.244100
C79	C	-0.000107	-1.026374	-0.344416
C80	C	0.499893	-0.526374	0.155584
C81	C	-0.000118	-0.990622	0.156318
C82	C	0.499882	-0.490622	0.656318
C83	C	-0.000122	-0.995119	0.239489
C84	C	0.499878	-0.495119	0.739489
C85	C	-0.000132	-1.079547	0.290498
C86	C	0.499868	-0.579547	0.790498
C87	C	-0.000150	-1.159484	0.258332
C88	C	0.499850	-0.659484	0.758332
C89	C	-0.000154	-1.154986	0.175163
C90	C	0.499846	-0.654986	0.675163
C91	C	-0.000129	-1.101812	0.540249
C92	C	0.499871	-0.601812	1.040249
C93	C	-0.000122	-1.106304	0.623424
C94	C	0.499878	-0.606304	1.123424
C95	C	-0.000095	-0.941939	0.604575
C96	C	0.499905	-0.441939	1.104575
C97	C	-0.000093	-0.937448	0.521405
C98	C	0.499907	-0.437448	1.021405
C99	C	-0.000116	-1.017384	0.489246
C100	C	0.499884	-0.517384	0.989246
N101	N	-0.000132	-1.084146	0.375512
N102	N	0.499868	-0.584146	0.875512
N103	N	-0.000123	-1.012785	0.404233
N104	N	0.499877	-0.512785	0.904233
H105	H	-0.000076	-0.747588	-0.245746
H106	H	0.499924	-0.247588	0.254254
H107	H	0.566022	-0.930688	-0.208174
H108	H	1.066022	-0.430688	0.291826
H109	H	0.565948	-1.166247	-0.012075
H110	H	1.065948	-0.666247	0.487925
H111	H	-0.000167	-1.220074	0.148979
H112	H	0.499833	-0.720074	0.648979
H113	H	0.433727	-1.166249	-0.012091
H114	H	0.933727	-0.666249	0.487909
H115	H	-0.000141	-0.349334	0.025488
H116	H	0.499859	0.150666	0.525488
C117	C	-0.000087	-0.854015	0.639957
C118	C	0.499913	-0.354015	1.139957
N119	N	-0.000088	-0.787787	0.666606
N120	N	0.499912	-0.287787	1.166606
H121	H	-0.000116	-0.805779	0.017790
H122	H	0.499884	-0.305779	0.517790
C123	C	-0.000099	-0.468929	-0.261877
C124	C	0.499901	0.031071	0.238123
N125	N	-0.000099	-0.494243	-0.322705
N126	N	0.499901	0.005757	0.177295
H127	H	0.433804	-0.930695	-0.208178
H128	H	0.933804	-0.430695	0.291822
C129	C	0.230068	-0.912135	-0.223631
C130	C	0.730068	-0.412135	0.276369
N131	N	0.186963	-0.858343	-0.268410
N132	N	0.686963	-0.358343	0.231590
H133	H	-0.000134	-0.518383	0.022640
H134	H	0.499866	-0.018383	0.522640
C135	C	-0.000132	-0.627997	0.041617
C136	C	0.499868	-0.127997	0.541617
N137	N	-0.000138	-0.602679	0.102443
N138	N	0.499862	-0.102679	0.602443
C139	C	-0.000103	-0.907189	0.274861
C140	C	0.499897	-0.407189	0.774861
N141	N	-0.000090	-0.840955	0.301502
N142	N	0.499910	-0.340955	0.801502
H143	H	-0.000124	-1.175060	0.664954
H144	H	0.499876	-0.675060	1.164954
H145	H	0.244871	-1.166245	-0.012092
H146	H	0.744871	-0.666245	0.487908
H147	H	-0.000105	-0.921871	0.114791
H148	H	0.499895	-0.421871	0.614791
C149	C	0.769680	-1.184816	0.003367
C150	C	1.269680	-0.684816	0.503367
N151	N	0.812793	-1.238614	0.048134
N152	N	1.312793	-0.738614	0.548134
C153	C	-0.000068	-0.844570	0.465300
C154	C	0.499932	-0.344570	0.965300
N155	N	-0.000040	-0.774613	0.423042
N156	N	0.499960	-0.274613	0.923042
H157	H	0.754882	-0.930687	-0.208157
H158	H	1.254882	-0.430687	0.291843
C159	C	-0.000148	-1.189745	0.504886
C160	C	0.499852	-0.689745	1.004886
N161	N	-0.000162	-1.255981	0.478248
N162	N	0.499838	-0.755981	0.978248
C163	C	-0.000164	-1.252356	0.314445
C164	C	0.499836	-0.752356	0.814445
N165	N	-0.000171	-1.322310	0.356709
N166	N	0.499829	-0.822310	0.856709
H167	H	-0.000093	-0.578551	-0.242892
H168	H	0.499907	-0.078551	0.257108
H169	H	-0.000112	-0.291146	-0.238047
H170	H	0.499888	0.208854	0.261953
