data_functionalizedCrystal
_audit_creation_method	'MofGen! by Chris Wilmer'
_symmetry_space_group_name_H-M	'P1'
_symmetry_Int_Tables_number	1
_symmetry_cell_setting	triclinic
loop_
_symmetry_equiv_pos_as_xyz
  x,y,z
_cell_length_a	14.971482
_cell_length_b	17.699092
_cell_length_c	13.448316
_cell_angle_alpha	89.995078
_cell_angle_beta	89.993798
_cell_angle_gamma	83.449488
loop_
_atom_site_label
_atom_site_type_symbol
_atom_site_fract_x
_atom_site_fract_y
_atom_site_fract_z
O1	O	1.186614	0.098620	-0.082675
O2	O	0.926173	0.110434	-0.082680
O3	O	1.063748	-0.005644	-0.082675
O4	O	1.049039	0.214698	-0.082680
O5	O	1.063731	-0.005651	0.082709
O6	O	0.926156	0.110427	0.082704
O7	O	1.186597	0.098612	0.082709
Cu8	Cu	1.056375	0.104519	0.097807
Cu9	Cu	1.056395	0.104527	-0.097778
O10	O	1.049022	0.214690	0.082704
C11	C	0.892842	0.109903	0.000012
C12	C	0.793550	0.108321	0.000010
C13	C	1.063211	-0.033846	0.000015
C14	C	1.061626	-0.117867	0.000011
C15	C	0.746898	0.107572	0.090162
C16	C	0.653605	0.106073	0.090163
C17	C	0.606964	0.105329	0.000011
C18	C	0.653622	0.106076	-0.090148
C19	C	0.746915	0.107569	-0.090148
C20	C	0.459171	0.102966	-0.090141
C21	C	0.365872	0.101475	-0.090141
C22	C	0.365861	0.101471	0.090169
C23	C	0.459153	0.102963	0.090169
C24	C	0.505805	0.103712	0.000010
C25	C	1.060893	-0.157333	-0.090141
C26	C	1.059398	-0.236279	-0.090142
C27	C	1.058643	-0.275760	0.000009
C28	C	1.059373	-0.236289	0.090168
C29	C	1.060862	-0.157343	0.090168
C30	C	1.053369	-0.554668	0.090170
C31	C	1.051883	-0.633620	0.090162
C32	C	1.051906	-0.633605	-0.090141
C33	C	1.053394	-0.554659	-0.090141
C34	C	1.054120	-0.515194	0.000017
C35	C	1.055739	-0.429591	0.000017
C36	C	1.057030	-0.361362	0.000010
C37	C	1.219928	0.099144	0.000015
C38	C	1.319220	0.100726	0.000010
C39	C	1.049559	0.242892	0.000012
C40	C	1.051144	0.326914	0.000010
N41	N	1.056367	0.104513	0.235372
N42	N	1.056410	0.104528	-0.235342
C43	C	1.117304	0.053134	0.287414
C44	C	1.117309	0.053134	0.391517
C45	C	1.056382	0.104516	0.443576
C46	C	0.995438	0.155896	0.391527
C47	C	0.995429	0.155893	0.287425
C48	C	0.995463	0.155901	0.608507
C49	C	0.995473	0.155906	0.712615
C50	C	1.117343	0.053142	0.712599
C51	C	1.117334	0.053139	0.608497
C52	C	1.056392	0.104521	0.556455
H53	H	0.784866	0.108184	0.163574
H54	H	1.051266	-0.665763	0.163579
O55	O	1.051107	-0.676167	-0.187390
H56	H	1.049933	-0.737695	-0.172250
H57	H	0.327873	0.100862	0.163580
H58	H	1.058805	-0.268409	-0.163553
H59	H	0.945825	0.197730	0.433919
H60	H	0.327899	0.100869	-0.163551
H61	H	1.054013	-0.522518	-0.163552
O62	O	0.603283	0.105274	0.187397
H63	H	0.651387	0.106054	0.250085
O64	O	0.509499	0.103771	-0.187378
H65	H	0.483520	0.155036	-0.230607
H66	H	0.945807	0.197729	0.245053
O67	O	0.929718	0.211317	0.552388
H68	H	0.886308	0.179389	0.504991
H69	H	0.615640	0.105465	-0.163551
O70	O	0.797238	0.108382	-0.187382
H71	H	0.749133	0.107621	-0.250071
H72	H	1.061513	-0.125194	-0.163553
H73	H	1.053978	-0.522548	0.163582
H74	H	1.166950	0.011304	0.566111
H75	H	0.497125	0.103574	0.163579
O76	O	1.183007	-0.002291	0.231258
H77	H	1.252717	0.007437	0.251216
O78	O	1.058576	-0.278867	0.187408
H79	H	1.057433	-0.340396	0.172264
H80	H	1.061446	-0.125210	0.163579
O81	O	1.183050	-0.002267	0.447653
H82	H	1.225427	-0.037985	0.393964
H83	H	1.166964	0.011306	0.754978
H84	H	0.945859	0.197746	0.754996
