data_functionalizedCrystal
_audit_creation_method	'MofGen! by Chris Wilmer'
_symmetry_space_group_name_H-M	'P1'
_symmetry_Int_Tables_number	1
_symmetry_cell_setting	triclinic
loop_
_symmetry_equiv_pos_as_xyz
  x,y,z
_cell_length_a	18.101398
_cell_length_b	19.120785
_cell_length_c	18.101389
_cell_angle_alpha	92.462206
_cell_angle_beta	90.024802
_cell_angle_gamma	92.461139
loop_
_atom_site_label
_atom_site_type_symbol
_atom_site_fract_x
_atom_site_fract_y
_atom_site_fract_z
Zn1	Zn	1.119575	-0.279744	0.406243
Zn2	Zn	1.619575	0.220256	0.906243
Zn3	Zn	1.114204	-0.397185	0.277109
Zn4	Zn	1.614204	0.102815	0.777109
Zn5	Zn	0.995734	-0.279742	0.282403
Zn6	Zn	1.495734	0.220258	0.782403
Zn7	Zn	0.990418	-0.397160	0.400898
Zn8	Zn	1.490418	0.102840	0.900898
O9	O	1.054983	-0.338458	0.341663
O10	O	1.554983	0.161542	0.841663
O11	O	1.222495	-0.295334	0.389134
O12	O	1.722495	0.204666	0.889134
O13	O	1.098465	-0.381615	0.174178
O14	O	1.598465	0.118385	0.674178
O15	O	1.016634	-0.181453	0.303283
O16	O	1.516634	0.318547	0.803283
O17	O	1.218548	-0.381618	0.294261
O18	O	1.718548	0.118382	0.794261
O19	O	1.107619	-0.181454	0.394267
O20	O	1.607619	0.318546	0.894267
O21	O	1.011426	-0.295330	0.178067
O22	O	1.511426	0.204670	0.678067
O23	O	0.891396	-0.295306	0.298100
O24	O	1.391396	0.204694	0.798100
O25	O	1.007575	-0.381575	0.505240
O26	O	1.507575	0.118425	1.005240
O27	O	0.887491	-0.381573	0.385158
O28	O	1.387491	0.118427	0.885158
O29	O	1.102465	-0.295310	0.509167
O30	O	1.602465	0.204690	1.009167
O31	O	1.093311	-0.495471	0.289078
O32	O	1.593311	0.004529	0.789078
O33	O	1.002366	-0.495453	0.380025
O34	O	1.502366	0.004547	0.880025
C35	C	0.862573	-0.338437	0.341624
C36	C	1.362573	0.161563	0.841624
C37	C	0.780259	-0.338445	0.341624
C38	C	1.280259	0.161555	0.841624
C39	C	0.629550	-0.338460	0.341657
C40	C	1.129550	0.161540	0.841657
C41	C	0.600631	-0.284105	0.286981
C42	C	1.100631	0.215895	0.786981
C43	C	0.515023	-0.283901	0.287178
C44	C	1.015023	0.216099	0.787178
C45	C	0.481166	-0.338474	0.341687
C46	C	0.981166	0.161526	0.841687
C47	C	0.513192	-0.318728	0.420713
C48	C	1.013192	0.181272	0.920713
C49	C	0.598855	-0.318325	0.420382
C50	C	1.098855	0.181675	0.920382
C51	C	0.594616	-0.412700	0.317990
C52	C	1.094616	0.087300	0.817990
C53	C	0.508982	-0.412309	0.316305
C54	C	1.008982	0.087691	0.816305
C55	C	0.397306	-0.338483	0.341710
C56	C	0.897306	0.161517	0.841710
C57	C	0.713409	-0.338449	0.341640
C58	C	1.213409	0.161551	0.841640
C59	C	1.046699	-0.520947	0.333413
C60	C	1.546699	-0.020947	0.833413
C61	C	1.043223	-0.599017	0.329909
C62	C	1.543223	-0.099017	0.829909
C63	C	1.021170	-1.040568	0.307733
C64	C	1.521170	-0.540568	0.807733
C65	C	1.024438	-0.967213	0.311026
C66	C	1.524438	-0.467213	0.811026
C67	C	1.073411	-0.930477	0.360081
C68	C	1.573411	-0.430477	0.860081
C69	C	1.119113	-0.967100	0.405851
C70	C	1.619113	-0.467100	0.905851
C71	C	1.115842	-1.040453	0.402561
C72	C	1.615842	-0.540453	0.902561
C73	C	1.085654	-0.708994	0.372389
C74	C	1.585654	-0.208994	0.872389
C75	C	1.088924	-0.635635	0.375673
C76	C	1.588924	-0.135635	0.875673
C77	C	0.994247	-0.635753	0.280850
C78	C	1.494247	-0.135753	0.780850
C79	C	0.990983	-0.709108	0.277561
C80	C	1.490983	-0.209108	0.777561
C81	C	1.036683	-0.745724	0.323334
C82	C	1.536683	-0.245724	0.823334
C83	C	1.076753	-0.855497	0.363446
C84	C	1.576753	-0.355497	0.863446
C85	C	1.033336	-0.820704	0.319971
C86	C	1.533336	-0.320704	0.819971
C87	C	1.248144	-0.338479	0.341703
C88	C	1.748144	0.161521	0.841703
C89	C	1.330457	-0.338488	0.341720
C90	C	1.830457	0.161512	0.841720
C91	C	1.055026	-0.338440	0.534826
C92	C	1.555026	0.161560	1.034826
C93	C	1.055045	-0.338432	0.617141
C94	C	1.555045	0.161568	1.117141
C95	C	1.063319	-0.155255	0.349962
C96	C	1.563319	0.344745	0.849962
C97	C	1.066871	-0.077186	0.353498
C98	C	1.566871	0.422814	0.853498
C99	C	1.054984	-0.338425	0.149254
C100	C	1.554984	0.161575	0.649254
C101	C	1.055118	-0.338234	0.066949
C102	C	1.555118	0.161766	0.566949
C103	C	1.055094	-0.338301	0.916238
C104	C	1.555094	0.161699	1.416238
C105	C	0.995202	-0.392404	0.882450
C106	C	1.495202	0.107596	1.382450
C107	C	0.995346	-0.392655	0.796820
C108	C	1.495346	0.107345	1.296820
C109	C	1.055069	-0.338366	0.767852
C110	C	1.555069	0.161634	1.267852
C111	C	1.132193	-0.358461	0.798053
C112	C	1.632193	0.141539	1.298053
C113	C	1.131857	-0.358816	0.883682
C114	C	1.631857	0.141184	1.383682
C115	C	1.038546	-0.263983	0.888011
C116	C	1.538546	0.236017	1.388011
C117	C	1.036790	-0.264412	0.802340
C118	C	1.536790	0.235588	1.302340
C119	C	1.055060	-0.338402	0.683991
C120	C	1.555060	0.161598	1.183991
C121	C	1.055108	-0.338267	1.000099
C122	C	1.555108	0.161733	1.500099
H123	H	0.491130	-0.357112	0.462724
H124	H	0.991130	0.142888	0.962724
H125	H	0.957039	-0.605933	0.243585
H126	H	1.457039	-0.105933	0.743585
N127	N	0.961636	-0.244328	0.776311
N128	N	1.461636	0.255672	1.276311
H129	H	0.922866	-0.280145	0.792199
H130	H	1.422866	0.219855	1.292199
H131	H	0.961571	-0.242656	0.720621
H132	H	1.461571	0.257344	1.220621
N133	N	1.096371	-0.210584	0.917285
N134	N	1.596371	0.289416	1.417285
H135	H	1.085456	-0.162942	0.898972
H136	H	1.585456	0.337058	1.398972
H137	H	1.146781	-0.224292	0.899367
H138	H	1.646781	0.275708	1.399367
H139	H	1.128807	-0.605728	0.415621
H140	H	1.628807	-0.105728	0.915621
H141	H	1.122875	-0.738798	0.409652
H142	H	1.622875	-0.238798	0.909652
H143	H	1.116629	-0.825580	0.403386
H144	H	1.616629	-0.325580	0.903386
N145	N	0.919464	-0.375968	0.769703
N146	N	1.419464	0.124032	1.269703
H147	H	0.885618	-0.368386	0.813396
H148	H	1.385618	0.131614	1.313396
H149	H	0.898886	-0.416278	0.736960
H150	H	1.398886	0.083722	1.236960
N151	N	1.151714	-0.429658	0.766444
N152	N	1.651714	0.070342	1.266444
H153	H	1.112853	-0.465878	0.781207
H154	H	1.612853	0.034122	1.281207
H155	H	1.201445	-0.442059	0.786217
H156	H	1.701445	0.057941	1.286217
H157	H	0.983459	-0.245675	0.910421
H158	H	1.483459	0.254325	1.410421
H159	H	0.987224	-0.937399	0.273762
H160	H	1.487224	-0.437399	0.773762
N161	N	1.171927	-0.927475	0.458763
N162	N	1.671927	-0.427475	0.958763
H163	H	1.207621	-0.897032	0.430066
H164	H	1.707621	-0.397032	0.930066
H165	H	1.200331	-0.961846	0.487248
H166	H	1.700331	-0.461846	0.987248
N167	N	0.632410	-0.211647	0.307900
N168	N	1.132410	0.288353	0.807900
H169	H	0.662204	-0.193076	0.265263
H170	H	1.162204	0.306924	0.765263
H171	H	0.665420	-0.213942	0.352650
H172	H	1.165420	0.286058	0.852650
H173	H	0.497027	-0.228892	0.303148
H174	H	0.997027	0.271108	0.803148
H175	H	1.153051	-1.070267	0.439833
H176	H	1.653051	-0.570267	0.939833
H177	H	0.620626	-0.296282	0.228313
H178	H	1.120626	0.203718	0.728313
H179	H	0.993459	-0.850617	0.280035
H180	H	1.493459	-0.350617	0.780035
H181	H	1.077495	-0.221962	0.782869
H182	H	1.577495	0.278038	1.282869
N183	N	1.009491	-0.465622	0.766414
N184	N	1.509491	0.034378	1.266414
H185	H	1.056002	-0.464469	0.735610
H186	H	1.556002	0.035531	1.235610
H187	H	0.966251	-0.483514	0.734647
H188	H	1.466251	0.016486	1.234647
N189	N	0.486390	-0.300214	0.209715
N190	N	0.986390	0.199786	0.709715
H191	H	0.529396	-0.307602	0.175132
H192	H	1.029396	0.192398	0.675132
H193	H	0.457288	-0.259818	0.193043
H194	H	0.957288	0.240182	0.693043
H195	H	0.494178	-0.265070	0.440610
H196	H	0.994178	0.234930	0.940610
H197	H	0.617902	-0.356210	0.462711
H198	H	1.117902	0.143790	0.962711
N199	N	0.919063	-0.375911	0.910438
N200	N	1.419063	0.124089	1.410438
H201	H	0.922651	-0.333211	0.945295
H202	H	1.422651	0.166789	1.445295
H203	H	0.897458	-0.417138	0.937438
H204	H	1.397458	0.082862	1.437438
H205	H	0.621293	-0.264067	0.440003
H206	H	1.121293	0.235933	0.940003
N207	N	0.622099	-0.436593	0.242702
N208	N	1.122099	0.063407	0.742702
H209	H	0.657478	-0.399529	0.223173
H210	H	1.157478	0.100471	0.723173
H211	H	0.578762	-0.444479	0.207732
H212	H	1.078762	0.055521	0.707732
N213	N	0.478123	-0.468793	0.364823
N214	N	0.978123	0.031207	0.864823
H215	H	0.494429	-0.458102	0.417621
H216	H	0.994429	0.041898	0.917621
H217	H	0.496937	-0.515568	0.347142
H218	H	0.996937	-0.015568	0.847142
N219	N	0.481139	-0.432045	0.239245
N220	N	0.981139	0.067955	0.739245
H221	H	0.450632	-0.393326	0.220847
H222	H	0.950632	0.106674	0.720847
H223	H	0.449615	-0.476877	0.240207
H224	H	0.949615	0.023123	0.740207
N225	N	1.009173	-0.464934	0.907666
N226	N	1.509173	0.035066	1.407666
H227	H	1.054128	-0.462898	0.940885
H228	H	1.554128	0.037102	1.440885
H229	H	1.017951	-0.497162	0.863155
H230	H	1.517951	0.002838	1.363155
H231	H	0.613074	-0.453193	0.357772
H232	H	1.113074	0.046807	0.857772
N233	N	1.150954	-0.430776	0.906918
N234	N	1.650954	0.069224	1.406918
H235	H	1.159510	-0.461968	0.861549
H236	H	1.659510	0.038032	1.361549
H237	H	1.108827	-0.451505	0.936602
H238	H	1.608827	0.048495	1.436602
H239	H	0.981294	-1.070473	0.267785
H240	H	1.481294	-0.570473	0.767785
N241	N	0.938166	-0.748729	0.224649
N242	N	1.438166	-0.248729	0.724649
H243	H	0.909710	-0.714400	0.196155
H244	H	1.409710	-0.214400	0.696155
H245	H	0.902520	-0.779175	0.253393
H246	H	1.402520	-0.279175	0.753393
H247	H	1.177815	-0.321120	0.906121
H248	H	1.677815	0.178880	1.406121
N249	N	1.192703	-0.307901	0.773397
N250	N	1.692703	0.192099	1.273397
H251	H	1.170650	-0.271397	0.742335
H252	H	1.670650	0.228603	1.242335
H253	H	1.230166	-0.334313	0.743184
H254	H	1.730166	0.165687	1.243184
