data_functionalizedCrystal
_audit_creation_method	'MofGen! by Chris Wilmer'
_symmetry_space_group_name_H-M	'P1'
_symmetry_Int_Tables_number	1
_symmetry_cell_setting	triclinic
loop_
_symmetry_equiv_pos_as_xyz
  x,y,z
_cell_length_a	15.538191
_cell_length_b	17.038272
_cell_length_c	14.750779
_cell_angle_alpha	76.426773
_cell_angle_beta	97.572172
_cell_angle_gamma	69.191825
loop_
_atom_site_label
_atom_site_type_symbol
_atom_site_fract_x
_atom_site_fract_y
_atom_site_fract_z
O1	O	1.211348	-0.226027	-0.079834
O2	O	0.944163	-0.137757	-0.079834
O3	O	1.076169	-0.295259	-0.079826
O4	O	1.079341	-0.068524	-0.079842
O5	O	1.113486	-0.339779	0.079826
O6	O	0.981480	-0.182277	0.079818
O7	O	1.248665	-0.270547	0.079819
Zn8	Zn	1.120997	-0.233481	0.105167
Zn9	Zn	1.071830	-0.174823	-0.105182
O10	O	1.116658	-0.113045	0.079811
C11	C	0.928466	-0.150782	-0.000008
C12	C	0.826097	-0.123272	-0.000008
C13	C	1.091939	-0.345828	-0.000000
C14	C	1.083321	-0.430177	-0.000001
C15	C	0.516405	-0.396569	-0.000005
C16	C	0.420212	-0.370700	-0.000007
C17	C	0.409427	-0.225194	-0.000017
C18	C	0.505622	-0.251052	-0.000010
C19	C	0.559104	-0.336740	-0.000005
C20	C	0.548321	-0.191224	-0.000010
C21	C	0.644507	-0.217079	-0.000007
C22	C	0.697994	-0.302762	-0.000005
C23	C	0.655290	-0.362595	-0.000003
C24	C	0.494837	-0.105535	-0.000021
C25	C	0.537536	-0.045706	-0.000021
C26	C	0.633725	-0.071563	-0.000012
C27	C	0.687212	-0.157246	-0.000010
C28	C	0.676429	-0.011730	-0.000015
C29	C	0.772615	-0.037585	-0.000013
C30	C	0.783398	-0.183101	-0.000008
C31	C	1.162445	-0.502729	0.000001
C32	C	1.154339	-0.581979	-0.000008
C33	C	1.067111	-0.588678	-0.000012
C34	C	0.987981	-0.516117	-0.000016
C35	C	0.996085	-0.436867	-0.000014
C36	C	1.038479	-0.826313	-0.000025
C37	C	1.030381	-0.905573	-0.000025
C38	C	1.196740	-0.971428	-0.000019
C39	C	1.204838	-0.892175	-0.000011
C40	C	1.125706	-0.819621	-0.000020
C41	C	1.058825	-0.669684	-0.000018
C42	C	1.133992	-0.738614	-0.000020
C43	C	1.264361	-0.257522	-0.000009
C44	C	1.366729	-0.285029	-0.000016
C45	C	1.100888	-0.062475	-0.000017
C46	C	1.109505	0.021876	-0.000023
N47	N	1.154558	-0.273515	0.248725
N48	N	1.038276	-0.134797	-0.248740
C49	C	0.944540	-0.023020	0.600530
C50	C	0.968065	-0.051070	0.701031
C51	C	1.084986	-0.190507	0.701000
C52	C	1.061467	-0.162470	0.600498
C53	C	0.991244	-0.078725	0.550271
C54	C	1.108172	-0.218176	0.550238
C55	C	1.084658	-0.190139	0.449744
C56	C	1.014440	-0.106396	0.399510
C57	C	0.967731	-0.050688	0.449777
C58	C	1.178399	-0.301918	0.600467
C59	C	1.225103	-0.357624	0.550208
C60	C	1.201585	-0.329589	0.449712
C61	C	1.131367	-0.245847	0.399478
C62	C	1.248294	-0.385297	0.399446
C63	C	1.224781	-0.357260	0.298952
C64	C	1.107854	-0.217810	0.298984
H65	H	0.776312	-0.323808	-0.000017
N66	N	0.898886	-0.522967	0.000006
N67	N	0.859836	-0.510842	0.067309
H68	H	0.796912	-0.515680	0.067331
H69	H	0.987804	-0.675148	-0.000019
H70	H	0.365869	-0.155426	-0.000025
H71	H	0.887351	0.045170	0.559633
H72	H	1.282282	-0.425809	0.591114
H73	H	0.930027	-0.005700	0.741947
H74	H	1.305477	-0.453480	0.440354
H75	H	1.233477	-0.497286	0.000009
H76	H	0.826947	-0.252878	0.000001
N77	N	0.709920	-0.450134	0.000025
N78	N	0.671791	-0.503552	0.000040
H79	H	0.710374	-0.565375	0.000062
N80	N	0.941271	-0.912405	-0.000010
N81	N	0.870628	-0.847622	-0.000007
H82	H	0.807699	-0.852450	0.000011
H83	H	0.974043	-0.767247	-0.000032
H84	H	1.142164	-0.258692	0.741907
H85	H	1.262814	-0.402621	0.258030
N86	N	0.571035	-0.484107	0.000023
N87	N	0.532907	-0.537526	0.000038
H88	H	0.571489	-0.599348	0.000060
N89	N	0.990437	-0.077728	0.296858
N90	N	1.052115	-0.072709	0.251998
H91	H	1.035165	-0.052454	0.179499
N92	N	1.202395	-0.330565	0.703120
N93	N	1.140714	-0.335581	0.747977
H94	H	1.157657	-0.355818	0.820476
N95	N	0.482917	0.041824	-0.000033
N96	N	0.474328	0.106420	-0.067328
H97	H	0.435757	0.168240	-0.067335
H98	H	0.385450	-0.419425	-0.000009
N99	N	0.396588	-0.079136	-0.000014
N100	N	0.371791	-0.118842	0.067288
H101	H	0.302403	-0.100199	0.067294
H102	H	0.632868	0.058040	-0.000029
H103	H	0.931654	-0.377793	-0.000015
N104	N	1.277559	-1.045532	-0.000038
N105	N	1.318422	-1.039954	-0.067339
H106	H	1.375504	-1.092290	-0.067357
N107	N	0.816245	0.023518	0.000011
N108	N	0.884444	0.006550	0.067313
H109	H	0.915258	0.049704	0.067329
N110	N	1.235170	-0.656077	-0.000017
N111	N	1.313047	-0.650085	-0.000012
H112	H	1.370138	-0.702417	-0.000021
H113	H	1.275868	-0.886730	-0.000008
H114	H	1.205008	-0.733150	-0.000039
N115	N	1.036127	-0.132267	0.247654
N116	N	1.015147	-0.107248	0.157929
H117	H	0.964493	-0.046836	0.121675
N118	N	0.895989	0.034855	0.398477
N119	N	0.854286	0.084585	0.443360
H120	H	0.803620	0.144998	0.407130
