data_functionalizedCrystal
_audit_creation_method	'MofGen! by Chris Wilmer'
_symmetry_space_group_name_H-M	'P1'
_symmetry_Int_Tables_number	1
_symmetry_cell_setting	triclinic
loop_
_symmetry_equiv_pos_as_xyz
  x,y,z
_cell_length_a	12.837939
_cell_length_b	11.892095
_cell_length_c	12.811434
_cell_angle_alpha	99.326043
_cell_angle_beta	90.588920
_cell_angle_gamma	94.310906
loop_
_atom_site_label
_atom_site_type_symbol
_atom_site_fract_x
_atom_site_fract_y
_atom_site_fract_z
O1	O	-1.381292	-0.066438	0.268695
O2	O	-1.079527	-0.067834	0.255122
O3	O	-1.239109	-0.082823	0.108867
O4	O	-1.221710	-0.051449	0.414949
O5	O	-1.225803	0.106432	0.121041
O6	O	-1.066221	0.121421	0.267295
O7	O	-1.367987	0.122817	0.280869
Zn8	Zn	-1.214991	0.152167	0.276015
Zn9	Zn	-1.232522	-0.097184	0.259976
O10	O	-1.208405	0.137806	0.427123
C11	C	-1.034267	0.026322	0.256623
C12	C	-0.919230	0.024918	0.242947
N13	N	-1.203035	0.322343	0.286961
N14	N	-1.244487	-0.267361	0.249022
C15	C	-0.677788	0.041789	0.407362
C16	C	-0.569700	0.040471	0.394517
C17	C	-0.594963	0.020973	0.204414
C18	C	-0.703051	0.022291	0.217259
C19	C	-0.744460	0.032697	0.318736
C20	C	-0.852550	0.034007	0.331579
C21	C	-0.877811	0.014517	0.141477
C22	C	-0.769723	0.013199	0.128633
C23	C	-0.413247	0.028660	0.279368
C24	C	-0.528283	0.030062	0.293046
C25	C	-1.231890	0.007758	0.075505
C26	C	-1.230190	-0.004298	-0.042043
C27	C	-1.327687	0.547291	0.172791
C28	C	-1.319337	0.666417	0.180451
C29	C	-1.177980	0.679726	0.309935
C30	C	-1.186330	0.560599	0.302275
C31	C	-1.261187	0.494385	0.233702
C32	C	-1.269542	0.375257	0.226048
C33	C	-1.128181	0.388566	0.355526
C34	C	-1.119831	0.507693	0.363186
C35	C	-1.235041	-0.124436	-0.214355
C36	C	-1.236643	-0.113121	-0.103910
C37	C	-1.222137	0.093217	-0.090629
C38	C	-1.220536	0.081901	-0.201075
C39	C	-1.226986	-0.026929	-0.262934
C40	C	-1.225377	-0.038244	-0.373381
C41	C	-1.210879	0.168093	-0.360099
C42	C	-1.212481	0.179408	-0.249653
C43	C	-1.215624	0.047222	0.460485
C44	C	-1.217324	0.059271	0.578033
H45	H	-0.886263	0.042483	0.414207
Cl46	Cl	-1.363648	0.292019	0.139845
Cl47	Cl	-1.044584	0.322047	0.432110
H48	H	-1.117027	0.733651	0.365758
H49	H	-0.735992	0.004740	0.046013
Cl50	Cl	-1.421801	0.464051	0.086598
H51	H	-1.230622	-0.126858	-0.423746
Cl52	Cl	-1.025727	0.590940	0.449386
H53	H	-1.240278	-0.213050	-0.264722
H54	H	-1.216897	0.181821	-0.040244
Cl55	Cl	-1.402938	0.732923	0.103871
Cl56	Cl	-0.729850	0.054855	0.534928
Cl57	Cl	-1.246773	-0.235707	-0.042843
Cl58	Cl	-0.485887	0.051904	0.505938
Cl59	Cl	-1.204374	0.316215	-0.171877
H60	H	-0.561222	0.012594	0.121802
Cl61	Cl	-0.961635	0.003070	0.030054
H62	H	-1.204313	0.247490	-0.399663
