data_functionalizedCrystal
_audit_creation_method	'MofGen! by Chris Wilmer'
_symmetry_space_group_name_H-M	'P1'
_symmetry_Int_Tables_number	1
_symmetry_cell_setting	triclinic
loop_
_symmetry_equiv_pos_as_xyz
  x,y,z
_cell_length_a	17.699083
_cell_length_b	17.699083
_cell_length_c	16.776229
_cell_angle_alpha	89.992455
_cell_angle_beta	89.998886
_cell_angle_gamma	83.283015
loop_
_atom_site_label
_atom_site_type_symbol
_atom_site_fract_x
_atom_site_fract_y
_atom_site_fract_z
O1	O	1.004078	0.095713	-0.066178
O2	O	1.337412	0.429046	0.267155
O3	O	1.670745	0.762380	0.600489
O4	O	0.783700	0.108165	-0.066204
O5	O	1.117033	0.441499	0.267129
O6	O	1.450367	0.774832	0.600462
O7	O	0.900116	-0.008250	-0.066183
O8	O	1.233449	0.325083	0.267150
O9	O	1.566782	0.658417	0.600483
O10	O	0.887663	0.212128	-0.066199
O11	O	1.220996	0.545462	0.267134
O12	O	1.554330	0.878795	0.600468
O13	O	0.900100	-0.008257	0.066393
O14	O	1.233433	0.325076	0.399726
O15	O	1.566767	0.658410	0.733060
O16	O	0.783685	0.108158	0.066372
O17	O	1.117018	0.441492	0.399705
O18	O	1.450351	0.774825	0.733039
O19	O	1.004063	0.095706	0.066398
O20	O	1.337396	0.429039	0.399732
O21	O	1.670730	0.762373	0.733065
Zn22	Zn	0.893871	0.101931	0.087435
Zn23	Zn	1.227205	0.435264	0.420768
Zn24	Zn	1.560538	0.768598	0.754101
Zn25	Zn	0.893892	0.101940	-0.087241
Zn26	Zn	1.227225	0.435274	0.246093
Zn27	Zn	1.560558	0.768607	0.579426
O28	O	0.887648	0.212121	0.066378
O29	O	1.220981	0.545455	0.399711
O30	O	1.554314	0.878788	0.733044
C31	C	0.755495	0.107716	0.000081
C32	C	1.088829	0.441049	0.333414
C33	C	1.422162	0.774382	0.666747
C34	C	0.671477	0.106377	0.000071
C35	C	1.004811	0.439710	0.333404
C36	C	1.338144	0.773044	0.666737
C37	C	0.899662	-0.036451	0.000105
C38	C	1.232995	0.296883	0.333438
C39	C	1.566328	0.630216	0.666772
C40	C	0.898323	-0.120469	0.000105
C41	C	1.231656	0.212865	0.333438
C42	C	1.564990	0.546198	0.666772
C43	C	0.622856	0.174710	0.000066
C44	C	0.956190	0.508044	0.333400
C45	C	1.289523	0.841377	0.666733
C46	C	0.543913	0.173448	0.000077
C47	C	0.877246	0.506782	0.333410
C48	C	1.210580	0.840115	0.666743
C49	C	0.513592	0.103852	0.000086
C50	C	0.846926	0.437185	0.333419
C51	C	1.180259	0.770518	0.666753
C52	C	0.562219	0.035513	0.000093
C53	C	0.895553	0.368846	0.333426
C54	C	1.228886	0.702180	0.666760
C55	C	0.641161	0.036776	0.000088
C56	C	0.974495	0.370109	0.333421
C57	C	1.307828	0.703443	0.666755
C58	C	0.243856	0.030418	0.000113
C59	C	0.577190	0.363751	0.333446
C60	C	0.910523	0.697085	0.666780
C61	C	0.164908	0.029160	0.000115
C62	C	0.498242	0.362493	0.333449
C63	C	0.831575	0.695827	0.666782
C64	C	0.146608	0.167090	0.000101
C65	C	0.479942	0.500423	0.333435
C66	C	0.813275	0.833757	0.666768
C67	C	0.225550	0.168353	0.000097
C68	C	0.558883	0.501686	0.333430
C69	C	0.892217	0.835020	0.666763
C70	C	0.274170	0.100015	0.000108
C71	C	0.607504	0.433348	0.333441
C72	C	0.940837	0.766681	0.666774
C73	C	0.359769	0.101384	0.000098
C74	C	0.693103	0.434718	0.333431
C75	C	1.026436	0.768051	0.666765
C76	C	0.427995	0.102481	0.000090
C77	C	0.761328	0.435815	0.333423
C78	C	1.094661	0.769148	0.666757
C79	C	0.966656	-0.169090	0.000114
C80	C	1.299990	0.164244	0.333448
C81	C	1.633323	0.497577	0.666781
C82	C	0.965394	-0.248033	0.000107
C83	C	1.298727	0.085300	0.333440
C84	C	1.632061	0.418634	0.666774
C85	C	0.895798	-0.278354	0.000096
C86	C	1.229131	0.054980	0.333430
C87	C	1.562464	0.388313	0.666763
C88	C	0.827459	-0.229727	0.000085
C89	C	1.160792	0.103607	0.333418
C90	C	1.494126	0.436940	0.666751
C91	C	0.828722	-0.150785	0.000086
C92	C	1.162055	0.182549	0.333420
C93	C	1.495389	0.515882	0.666753
C94	C	0.822364	-0.548090	0.000078
C95	C	1.155697	-0.214756	0.333411
C96	C	1.489030	0.118577	0.666744
C97	C	0.821106	-0.627038	0.000078
C98	C	1.154439	-0.293704	0.333412
C99	C	1.487773	0.039629	0.666745
C100	C	0.959036	-0.645338	0.000099
C101	C	1.292369	-0.312004	0.333432
C102	C	1.625703	0.021329	0.666765
C103	C	0.960299	-0.566396	0.000100
C104	C	1.293632	-0.233063	0.333433
C105	C	1.626966	0.100271	0.666767
C106	C	0.891961	-0.517776	0.000084
C107	C	1.225294	-0.184442	0.333418
C108	C	1.558627	0.148891	0.666751
C109	C	0.893330	-0.432177	0.000090
C110	C	1.226664	-0.098843	0.333424
C111	C	1.559997	0.234490	0.666757
C112	C	0.894427	-0.363951	0.000096
C113	C	1.227761	-0.030618	0.333429
C114	C	1.561094	0.302715	0.666762
C115	C	1.032268	0.096156	0.000112
C116	C	1.365601	0.429489	0.333445
C117	C	1.698934	0.762822	0.666778
C118	C	1.116286	0.097494	0.000116
C119	C	1.449619	0.430828	0.333450
C120	C	1.782953	0.764161	0.666783
C121	C	0.888102	0.240322	0.000087
C122	C	1.221435	0.573655	0.333421
C123	C	1.554768	0.906989	0.666754
C124	C	0.889440	0.324340	0.000082
C125	C	1.222773	0.657673	0.333415
C126	C	1.556107	0.991007	0.666749
N127	N	0.893863	0.101924	0.206646
N128	N	1.227196	0.435257	0.539979
N129	N	1.560530	0.768591	0.873313
N130	N	0.893906	0.101941	-0.206452
N131	N	1.227239	0.435275	0.126882
N132	N	1.560573	0.768608	0.460215
C133	C	0.945428	0.050396	0.248372
C134	C	1.278761	0.383730	0.581706
C135	C	1.612094	0.717063	0.915039
C136	C	0.945432	0.050396	0.331824
C137	C	1.278765	0.383729	0.665158
C138	C	1.612098	0.717062	0.998491
C139	C	0.893875	0.101927	0.373549
C140	C	1.227208	0.435260	0.706882
C141	C	1.560541	0.768594	1.040215
C142	C	0.842305	0.153457	0.331817
C143	C	1.175638	0.486790	0.665150
C144	C	1.508971	0.820124	0.998483
C145	C	0.842297	0.153454	0.248366
C146	C	1.175631	0.486787	0.581699
C147	C	1.508964	0.820120	0.915033
C148	C	0.842332	0.153472	0.668364
C149	C	1.175665	0.486805	1.001697
C150	C	1.508999	0.820139	1.335030
C151	C	0.842345	0.153473	0.751820
C152	C	1.175678	0.486806	1.085154
C153	C	1.509011	0.820140	1.418487
C154	C	0.945466	0.050414	0.751822
C155	C	1.278800	0.383748	1.085156
C156	C	1.612133	0.717081	1.418489
C157	C	0.945459	0.050411	0.668372
C158	C	1.278792	0.383744	1.001705
C159	C	1.612126	0.717077	1.335038
C160	C	0.893887	0.101938	0.626647
C161	C	1.227220	0.435271	0.959980
C162	C	1.560554	0.768604	1.293313
C163	C	0.893882	0.101937	0.536158
C164	C	1.227215	0.435270	0.869492
C165	C	1.560549	0.768603	1.202825
C166	C	0.893882	0.101932	0.464036
C167	C	1.227216	0.435265	0.797369
C168	C	1.560549	0.768599	1.130702
H169	H	0.647537	0.231384	0.000058
H170	H	0.980870	0.564717	0.333391
H171	H	1.314204	0.898051	0.666725
H172	H	0.987457	0.008456	0.785804
H173	H	1.320790	0.341789	1.119137
H174	H	1.654124	0.675122	1.452470
H175	H	0.140225	-0.027517	0.000124
H176	H	0.473558	0.305816	0.333457
H177	H	0.806892	0.639150	0.666791
H178	H	0.766718	-0.508512	0.000065
H179	H	1.100052	-0.175179	0.333398
H180	H	1.433385	0.158155	0.666732
H181	H	0.770792	-0.254420	0.000071
H182	H	1.104126	0.078913	0.333404
H183	H	1.437459	0.412247	0.666738
H184	H	0.800342	0.195428	0.634398
H185	H	1.133675	0.528762	0.967731
H186	H	1.467008	0.862095	1.301065
H187	H	0.250232	0.225025	0.000085
H188	H	0.583566	0.558359	0.333419
H189	H	0.916899	0.891692	0.666752
H190	H	0.107012	0.222734	0.000097
H191	H	0.440345	0.556067	0.333430
H192	H	0.773678	0.889401	0.666763
H193	H	1.016971	-0.541714	0.000113
H194	H	1.350305	-0.208380	0.333446
H195	H	1.683638	0.124953	0.666779
H196	H	0.987414	0.008437	0.214406
H197	H	1.320748	0.341770	0.547739
H198	H	1.654081	0.675104	0.881072
H199	H	1.023330	-0.144409	0.000128
H200	H	1.356663	0.188924	0.333461
H201	H	1.689997	0.522258	0.666795
H202	H	0.283434	-0.025228	0.000123
H203	H	0.616767	0.308106	0.333456
H204	H	0.950101	0.641439	0.666789
H205	H	0.800322	0.195412	0.365793
H206	H	1.133655	0.528746	0.699127
H207	H	1.466989	0.862079	1.032460
H208	H	0.537526	-0.021154	0.000112
H209	H	0.870859	0.312180	0.333445
H210	H	1.204193	0.645513	0.666778
H211	H	1.014680	-0.684934	0.000107
H212	H	1.348013	-0.351601	0.333441
H213	H	1.681347	-0.018268	0.666774
H214	H	0.987444	0.008452	0.634402
H215	H	1.320777	0.341785	0.967736
H216	H	1.654111	0.675118	1.301069
H217	H	0.764429	-0.651721	0.000071
H218	H	1.097762	-0.318388	0.333405
H219	H	1.431096	0.014946	0.666738
H220	H	1.021038	-0.287618	0.000116
H221	H	1.354372	0.045716	0.333450
H222	H	1.687705	0.379049	0.666783
H223	H	0.800308	0.195412	0.214393
H224	H	1.133641	0.528745	0.547726
H225	H	1.466974	0.862078	0.881060
H226	H	0.800358	0.195437	0.785791
H227	H	1.133691	0.528771	1.119124
H228	H	1.467024	0.862104	1.452458
H229	H	0.680748	-0.018868	0.000091
H230	H	1.014082	0.314465	0.333425
H231	H	1.347415	0.647799	0.666758
H232	H	0.773078	-0.111198	0.000078
H233	H	1.106411	0.222136	0.333412
H234	H	1.439745	0.555469	0.666745
H235	H	0.987419	0.008438	0.365798
H236	H	1.320752	0.341771	0.699131
H237	H	1.654085	0.675104	1.032464
H238	H	0.504328	0.229092	0.000072
H239	H	0.837662	0.562426	0.333405
H240	H	1.170995	0.895759	0.666739
