data_functionalizedCrystal
_audit_creation_method	'MofGen! by Chris Wilmer'
_symmetry_space_group_name_H-M	'P1'
_symmetry_Int_Tables_number	1
_symmetry_cell_setting	triclinic
loop_
_symmetry_equiv_pos_as_xyz
  x,y,z
_cell_length_a	10.723023
_cell_length_b	10.723023
_cell_length_c	7.681481
_cell_angle_alpha	95.778717
_cell_angle_beta	95.794907
_cell_angle_gamma	95.532452
loop_
_atom_site_label
_atom_site_type_symbol
_atom_site_fract_x
_atom_site_fract_y
_atom_site_fract_z
O1	O	-0.186734	1.645493	-0.146403
O2	O	-0.203489	1.282339	-0.146410
O3	O	-0.013535	1.472293	-0.146403
O4	O	-0.376688	1.455539	-0.146410
O5	O	0.009898	1.495673	0.146455
O6	O	-0.180056	1.305719	0.146449
O7	O	-0.163301	1.668872	0.146455
Zn8	Zn	-0.167958	1.491008	0.192950
Zn9	Zn	-0.198832	1.460204	-0.192904
O10	O	-0.353255	1.478918	0.146449
C11	C	-0.190553	1.247530	0.000019
C12	C	-0.186906	1.108975	0.000016
C13	C	-0.173141	1.059314	0.151724
C14	C	-0.169371	0.916111	0.151725
C15	C	-0.411471	1.468447	0.000019
C16	C	-0.550026	1.472094	0.000016
C17	C	-0.599659	1.485832	0.151724
C18	C	-0.742862	1.489602	0.151725
C19	C	0.044681	1.482764	0.000023
C20	C	0.183235	1.479116	0.000014
C21	C	-0.176237	1.703682	0.000023
C22	C	-0.179885	1.842235	0.000014
N23	N	-0.146886	1.512040	0.456285
N24	N	-0.219894	1.439182	-0.456239
H25	H	-0.157587	0.873357	0.281607
H26	H	-0.191684	0.884979	-0.129875
H27	H	-0.294414	1.364809	0.468561
H28	H	-0.072370	1.586427	0.531493
H29	H	-0.613552	1.463114	-0.129866
C30	C	-0.161043	1.145089	0.327196
N31	N	-0.151953	1.209691	0.459367
C32	C	-0.199056	1.023194	-0.175457
N33	N	-0.208210	0.958584	-0.307627
C34	C	-0.513846	1.497942	0.327196
N35	N	-0.449213	1.507062	0.459367
H36	H	-0.785591	1.501375	0.281607
C37	C	-0.759052	1.463218	-0.175466
N38	N	-0.715574	1.451241	-0.307637
