data_functionalizedCrystal
_audit_creation_method	'MofGen! by Chris Wilmer'
_symmetry_space_group_name_H-M	'P1'
_symmetry_Int_Tables_number	1
_symmetry_cell_setting	triclinic
loop_
_symmetry_equiv_pos_as_xyz
  x,y,z
_cell_length_a	10.654562
_cell_length_b	10.540539
_cell_length_c	9.130313
_cell_angle_alpha	90.000859
_cell_angle_beta	89.996930
_cell_angle_gamma	84.507798
loop_
_atom_site_label
_atom_site_type_symbol
_atom_site_fract_x
_atom_site_fract_y
_atom_site_fract_z
O1	O	1.667888	0.178372	-0.121888
O2	O	1.302417	0.195342	-0.121869
O3	O	1.493490	0.002148	-0.121877
O4	O	1.476814	0.371566	-0.121880
O5	O	1.493488	0.002153	0.121721
O6	O	1.302415	0.195347	0.121730
O7	O	1.667885	0.178377	0.121711
Cu8	Cu	1.485150	0.186863	0.143963
Cu9	Cu	1.485153	0.186857	-0.144121
O10	O	1.476812	0.371571	0.121719
C11	C	1.255618	0.194095	-0.000068
C12	C	1.116174	0.190357	-0.000061
C13	C	1.050641	0.188617	0.132714
C14	C	0.919618	0.185114	0.132689
C15	C	0.919671	0.185099	-0.132896
C16	C	1.050693	0.188592	-0.132870
C17	C	1.050609	0.188631	0.286047
C18	C	0.919586	0.185128	0.286023
C19	C	1.492239	-0.045152	-0.000081
C20	C	1.488497	-0.186099	-0.000088
C21	C	1.345126	-0.369481	-0.000628
C22	C	1.348919	-0.222864	-0.000079
C23	C	1.555667	-0.247775	0.139015
C24	C	1.550903	-0.394318	0.139133
C25	C	1.553745	-0.394843	-0.137885
C26	C	1.555030	-0.247861	-0.139724
C27	C	1.714685	0.179624	-0.000094
C28	C	1.854128	0.183362	-0.000111
C29	C	1.478064	0.418871	-0.000081
C30	C	1.481805	0.559818	-0.000083
N31	N	1.485157	0.186866	0.346585
N32	N	1.485155	0.186843	-0.346744
C33	C	1.569786	0.101349	0.423234
C34	C	1.569783	0.101334	0.576570
C35	C	1.400517	0.272364	0.576597
C36	C	1.400515	0.272372	0.423263
C37	C	1.667514	0.002610	0.423220
C38	C	1.667511	0.002595	0.576556
H39	H	1.296067	-0.180246	-0.099794
H40	H	1.658169	-0.225453	0.144182
C41	C	1.090614	0.313699	0.350337
N42	N	1.120746	0.407902	0.398762
C43	C	1.492623	-0.190213	0.278871
N44	N	1.445130	-0.146861	0.384207
H45	H	1.104047	0.189990	-0.240987
H46	H	1.096838	0.100902	0.344931
H47	H	1.508571	-0.426384	-0.243317
C48	C	1.488698	-0.192573	-0.278750
N49	N	1.438724	-0.150933	-0.383462
H50	H	1.331593	0.341996	0.360857
H51	H	1.295694	-0.181089	0.099807
C52	C	0.879561	0.060068	0.350324
N53	N	0.849412	-0.034124	0.398758
H54	H	1.656793	-0.223672	-0.148130
C55	C	1.797870	0.032081	0.632778
N56	N	1.896041	0.054327	0.675124
H57	H	1.331603	0.341980	0.639044
C58	C	1.270954	-0.410223	0.133418
N59	N	1.215096	-0.440900	0.234393
C60	C	1.638491	-0.129203	0.366988
N61	N	1.616627	-0.228481	0.324635
H62	H	1.758708	0.033532	0.375656
H63	H	1.636965	-0.089613	0.624106
C64	C	1.270630	-0.408111	-0.135379
N65	N	1.214516	-0.437220	-0.236875
C66	C	0.847628	0.183163	-0.278978
N67	N	0.793367	0.181708	-0.389010
H68	H	0.873330	0.272862	0.344887
C69	C	1.483823	-0.432391	0.279606
N70	N	1.433291	-0.461061	0.385412
H71	H	1.651285	-0.442318	0.145438
H72	H	1.654561	-0.442100	-0.138826
