data_functionalizedCrystal
_audit_creation_method	'MofGen! by Chris Wilmer'
_symmetry_space_group_name_H-M	'P1'
_symmetry_Int_Tables_number	1
_symmetry_cell_setting	triclinic
loop_
_symmetry_equiv_pos_as_xyz
  x,y,z
_cell_length_a	19.377372
_cell_length_b	21.606444
_cell_length_c	21.606444
_cell_angle_alpha	59.998659
_cell_angle_beta	90.001711
_cell_angle_gamma	72.114886
loop_
_atom_site_label
_atom_site_type_symbol
_atom_site_fract_x
_atom_site_fract_y
_atom_site_fract_z
Zr1	Zr	0.580585	0.861723	-0.173370
O2	O	0.484357	0.960303	-0.256925
O3	O	0.610081	0.741966	-0.147755
O4	O	0.610079	0.871088	-0.276877
O5	O	0.484364	0.831177	-0.025949
O6	O	0.709254	0.902566	-0.292617
O7	O	0.484359	0.831180	-0.127802
O8	O	0.709257	0.671589	-0.061640
O9	O	0.484361	1.062154	-0.256926
O10	O	0.696678	0.822559	-0.148578
O11	O	0.622668	0.799065	-0.060819
O12	O	0.622666	0.951090	-0.212845
O13	O	0.548657	0.927597	-0.125086
Zr14	Zr	0.738766	0.911922	-0.036029
Zr15	Zr	0.738758	0.911926	-0.198473
Zr16	Zr	0.580593	0.861719	-0.010925
Zr17	Zr	0.580591	1.024164	-0.173372
Zr18	Zr	0.738760	0.749481	-0.036027
O19	O	0.709270	1.031679	-0.061644
O20	O	0.709259	1.031685	-0.292619
O21	O	0.484369	0.960296	-0.025950
O22	O	0.834994	0.813342	0.047527
O23	O	0.834982	0.813349	-0.183448
O24	O	0.610092	0.741959	0.083220
O25	O	0.834987	0.942468	-0.183450
O26	O	0.709272	0.902556	0.067479
O27	O	0.610097	0.871079	0.083219
O28	O	0.834992	0.942465	-0.081596
O29	O	0.610088	1.102059	-0.276880
O30	O	0.709264	0.671586	0.067482
O31	O	0.834990	0.711491	0.047528
O32	O	0.834984	0.711494	-0.081594
O33	O	0.484368	1.062151	-0.127805
O34	O	0.610094	1.102056	-0.147759
O35	O	0.696685	0.822555	0.003446
O36	O	0.770695	0.846048	-0.084312
O37	O	0.696683	0.974580	-0.148579
O38	O	0.622674	0.951086	-0.060821
C39	C	0.659668	0.683633	-0.104697
C40	C	0.659666	0.614673	-0.104696
C41	C	0.698319	0.203634	-0.150510
C42	C	0.698313	0.268433	-0.150512
C43	C	0.659679	0.288565	-0.104702
C44	C	0.621041	0.243900	-0.058893
C45	C	0.621042	0.179105	-0.058895
C46	C	0.621033	0.505208	-0.058884
C47	C	0.621036	0.570007	-0.058884
C48	C	0.698304	0.594535	-0.150502
C49	C	0.698306	0.529741	-0.150504
C50	C	0.659665	0.485083	-0.104697
C51	C	0.659670	0.414822	-0.104696
C52	C	0.659677	0.358822	-0.104699
C53	C	0.461825	0.824026	-0.073299
C54	C	0.394677	0.802713	-0.062642
C55	C	-0.019328	1.068072	-0.195327
C56	C	-0.082414	1.048027	-0.185304
C57	C	-0.005142	0.913850	-0.118214
C58	C	0.057952	0.933883	-0.128229
C59	C	0.050853	1.010995	-0.166787
C60	C	0.128132	0.876806	-0.099688
C61	C	0.191221	0.896838	-0.109706
C62	C	0.184129	0.973946	-0.148264
C63	C	0.113941	1.031027	-0.176804
C64	C	0.135230	0.799695	-0.061135
C65	C	0.205410	0.742618	-0.032594
C66	C	0.268500	0.762650	-0.042607
C67	C	0.261408	0.839758	-0.081165
C68	C	0.338688	0.705569	-0.014066
C69	C	0.401776	0.725601	-0.024084
C70	C	0.324497	0.859789	-0.091182
C71	C	0.857526	0.949619	-0.136100
C72	C	0.924674	0.970932	-0.146757
C73	C	0.659666	0.886828	-0.307892
C74	C	0.659662	0.886830	-0.376854
C75	C	0.659683	1.090012	-0.104702
C76	C	0.659686	1.158972	-0.104702
C77	C	0.621029	0.953921	-0.442800
C78	C	0.621035	0.953921	-0.507595
C79	C	0.659671	0.886827	-0.506444
C80	C	0.698309	0.819731	-0.440491
C81	C	0.698307	0.819733	-0.375698
C82	C	0.698321	0.819719	-0.701796
C83	C	0.698319	0.819721	-0.766597
C84	C	0.621049	0.953907	-0.833694
C85	C	0.621047	0.953910	-0.768900
C86	C	0.659688	0.886815	-0.702954
C87	C	0.659682	0.886817	-0.632696
C88	C	0.659673	0.886823	-0.576700
C89	C	0.659686	0.886817	0.098494
C90	C	0.659689	0.886815	0.167456
C91	C	0.857518	0.746430	-0.136097
C92	C	0.924664	0.698782	-0.146754
C93	C	0.659678	0.683628	0.098496
C94	C	0.659679	0.614665	0.167459
C95	C	0.857528	0.746424	0.067096
C96	C	0.924678	0.698775	0.125401
C97	C	0.461823	1.027220	-0.276494
C98	C	0.394673	1.074870	-0.334800
C99	C	0.461833	1.027215	-0.073301
C100	C	0.394687	1.074863	-0.062645
C101	C	0.659673	1.090017	-0.307895
C102	C	0.659672	1.158980	-0.376857
C103	C	0.917561	0.664145	-0.185311
C104	C	0.980645	0.619382	-0.195337
C105	C	1.050833	0.609252	-0.166802
C106	C	1.057935	0.643895	-0.128244
C107	C	0.994851	0.688662	-0.118222
C108	C	0.698316	0.594541	0.233397
C109	C	0.698314	0.529752	0.298201
C110	C	0.659679	0.485084	0.297065
C111	C	0.621038	0.505213	0.231120
C112	C	0.621036	0.570005	0.166318
C113	C	0.994851	0.688663	0.106972
C114	C	1.057951	0.643902	0.161749
C115	C	1.050876	0.609249	0.234955
C116	C	0.980696	0.619364	0.253384
C117	C	0.917598	0.664129	0.198607
C118	C	0.324500	1.084989	-0.316371
C119	C	0.261400	1.129771	-0.371148
C120	C	0.268475	1.164428	-0.444354
C121	C	0.338655	1.154308	-0.462782
C122	C	0.401754	1.109532	-0.408006
C123	C	0.401790	1.109507	-0.024095
C124	C	0.338706	1.154288	-0.014086
C125	C	0.268518	1.164420	-0.042623
C126	C	0.261416	1.129773	-0.081179
C127	C	0.324500	1.084998	-0.091191
C128	C	0.698314	1.203629	-0.375698
C129	C	0.698328	1.268422	-0.440492
C130	C	0.659695	1.288569	-0.506443
C131	C	0.621051	1.243913	-0.507601
C132	C	0.621042	1.179118	-0.442809
H133	H	0.318714	0.922582	-0.122558
H134	H	1.000646	0.716859	-0.086821
H135	H	0.729768	0.513350	-0.187804
H136	H	0.974947	0.591143	0.312995
H137	H	0.860462	0.672353	0.213623
O138	O	0.200475	1.212708	-0.031819
H139	H	0.167162	1.177261	-0.001706
O140	O	0.659698	0.415198	0.366966
H141	H	0.602173	0.421799	0.376071
H142	H	0.000628	0.851066	-0.086822
O143	O	0.346338	0.622402	0.027509
H144	H	0.376979	0.594066	0.083631
O145	O	0.739989	1.181907	-0.304570
H146	H	0.782682	1.123979	-0.279927
O147	O	0.316861	1.047618	-0.237415
H148	H	0.257460	1.062193	-0.233815
H149	H	0.589582	0.142743	-0.021595
O150	O	0.579480	0.591624	0.095180
H151	H	0.552666	0.549642	0.105277
H152	H	0.589588	1.008539	-0.887397
O153	O	0.346379	1.191642	0.027508
H154	H	0.319477	1.170674	0.075627
O155	O	0.106235	1.114214	-0.218475
H156	H	0.133117	1.126497	-0.266600
H157	H	1.102261	0.572800	0.279551
H158	H	0.729786	0.765087	-0.648109
H159	H	0.458890	1.101294	-0.423020
H160	H	0.589572	0.468853	-0.021584
O161	O	0.477489	1.098597	0.006675
H162	H	0.471818	1.130226	0.035151
H163	H	0.204261	1.138030	-0.104411
O164	O	0.739996	0.747358	-0.765364
H165	H	0.782685	0.757133	-0.799776
O166	O	0.579408	0.265581	-0.009447
H167	H	0.585917	0.318125	-0.017122
O168	O	0.579357	0.591731	-0.009480
H169	H	0.552480	0.549797	0.022366
H170	H	0.729783	0.187245	-0.187810
H171	H	0.344407	1.182531	-0.522393
O172	O	0.579392	0.457017	0.229894
H173	H	0.585905	0.408576	0.286034
O174	O	0.740001	0.747390	-0.304563
H175	H	0.701016	0.731205	-0.266932
H176	H	1.000625	0.716873	0.047368
O177	O	0.316835	1.047624	-0.132764
H178	H	0.257429	1.062189	-0.150916
O179	O	0.213059	0.659452	0.008989
H180	H	0.272461	0.623128	0.027148
H181	H	0.589597	1.260326	-0.561308
O182	O	1.133647	0.632989	0.141881
H183	H	1.140072	0.605492	0.109413
O184	O	0.739971	0.642710	-0.199922
H185	H	0.733473	0.691156	-0.192235
H186	H	0.589572	1.142769	-0.443762
H187	H	0.235501	0.990254	-0.156421
O188	O	0.185711	1.140665	-0.351264
H189	H	0.191399	1.109026	-0.291157
O190	O	0.200416	1.212731	-0.503432
H191	H	0.150434	1.213939	-0.478312
H192	H	-0.025110	1.130864	-0.226703
H193	H	0.729795	1.304775	-0.439535
O194	O	0.739981	0.747361	-0.439242
H195	H	0.733486	0.758627	-0.495375
H196	H	0.458921	0.679123	-0.000830
H197	H	0.083857	0.783388	-0.052985
O198	O	0.841862	0.675073	-0.216099
H199	H	0.847533	0.643472	-0.244602
O200	O	0.659696	1.358464	-0.576324
H201	H	0.693051	1.386128	-0.564429
H202	H	1.115091	0.635641	-0.105014
H203	H	1.102194	0.572798	-0.174967
H204	H	0.729771	0.304797	-0.187813
H205	H	0.974848	0.591178	-0.226734
O206	O	0.739988	0.642712	0.234631
H207	H	0.717654	0.665153	0.269628
O208	O	-0.158114	1.109592	-0.216083
H209	H	-0.152447	1.166575	-0.244572
H210	H	0.589562	1.008556	-0.443745
O211	O	0.740006	0.508038	0.369320
H212	H	0.766883	0.549976	0.359215
H213	H	0.589582	1.008543	-0.769844
O214	O	0.579364	1.026282	-0.578724
H215	H	0.552489	1.072934	-0.568638
