data_functionalizedCrystal
_audit_creation_method	'MofGen! by Chris Wilmer'
_symmetry_space_group_name_H-M	'P1'
_symmetry_Int_Tables_number	1
_symmetry_cell_setting	triclinic
loop_
_symmetry_equiv_pos_as_xyz
  x,y,z
_cell_length_a	14.044220
_cell_length_b	26.210047
_cell_length_c	14.044190
_cell_angle_alpha	89.999837
_cell_angle_beta	93.190328
_cell_angle_gamma	90.004879
loop_
_atom_site_label
_atom_site_type_symbol
_atom_site_fract_x
_atom_site_fract_y
_atom_site_fract_z
O1	O	1.277180	0.042385	0.230155
O2	O	1.777180	0.542385	0.730155
O3	O	1.000509	0.042398	0.221850
O4	O	1.500509	0.542398	0.721850
O5	O	1.134688	0.042382	0.087666
O6	O	1.634688	0.542382	0.587666
O7	O	1.143001	0.042401	0.364339
O8	O	1.643001	0.542401	0.864339
O9	O	1.134662	-0.042477	0.087687
O10	O	1.634662	0.457523	0.587687
O11	O	1.000482	-0.042460	0.221870
O12	O	1.500482	0.457540	0.721870
O13	O	1.277154	-0.042473	0.230176
O14	O	1.777154	0.457527	0.730176
Cu15	Cu	1.138816	-0.050215	0.226025
Cu16	Cu	1.638816	0.449785	0.726025
Cu17	Cu	1.138847	0.050140	0.226001
Cu18	Cu	1.638847	0.550140	0.726001
O19	O	1.142975	-0.042457	0.364359
O20	O	1.642975	0.457543	0.864359
C21	C	0.964874	-0.000030	0.218224
C22	C	1.464874	0.499970	0.718224
C23	C	0.858731	-0.000026	0.207380
C24	C	1.358731	0.499974	0.707380
N25	N	1.138801	-0.120799	0.226042
N26	N	1.638801	0.379201	0.726042
C27	C	0.664392	-0.000037	0.187553
C28	C	1.164392	0.499963	0.687553
C29	C	0.613264	-0.000034	0.264468
C30	C	1.113264	0.499966	0.764468
C31	C	0.505128	-0.000040	0.253436
C32	C	1.005128	0.499960	0.753436
C33	C	0.772539	-0.000031	0.198583
C34	C	1.272539	0.499969	0.698583
C35	C	1.198256	-0.473320	0.166598
C36	C	1.698256	0.026680	0.666598
C37	C	1.198276	-0.686979	0.166587
C38	C	1.698276	-0.186979	0.666587
O39	O	1.248791	-0.714607	0.116047
O40	O	1.748791	-0.214607	0.616047
N41	N	1.138850	-0.713693	0.225980
N42	N	1.638850	-0.213693	0.725980
C43	C	1.079411	-0.686989	0.285376
C44	C	1.579411	-0.186989	0.785376
O45	O	1.028859	-0.714614	0.335886
O46	O	1.528859	-0.214614	0.835886
C47	C	1.079387	-0.473331	0.285382
C48	C	1.579387	0.026669	0.785382
C49	C	1.138823	-0.446620	0.225992
C50	C	1.638823	0.053380	0.725992
C51	C	1.257688	-0.446609	0.107212
C52	C	1.757688	0.053391	0.607212
C53	C	1.257686	-0.393197	0.107220
C54	C	1.757686	0.106803	0.607220
C55	C	1.198253	-0.366497	0.166613
C56	C	1.698253	0.133503	0.666613
C57	C	1.138822	-0.393209	0.225999
C58	C	1.638822	0.106791	0.725999
C59	C	1.019943	-0.446629	0.344772
C60	C	1.519943	0.053371	0.844772
C61	C	1.019940	-0.393211	0.344766
C62	C	1.519940	0.106789	0.844766
C63	C	1.079377	-0.366499	0.285376
C64	C	1.579377	0.133501	0.785376
C65	C	1.079387	-0.313097	0.285399
C66	C	1.579387	0.186903	0.785399
N67	N	1.138813	-0.286383	0.226006
N68	N	1.638813	0.213617	0.726006
C69	C	1.198246	-0.313083	0.166613
C70	C	1.698246	0.186917	0.666613
C71	C	1.079429	-0.799162	0.285370
C72	C	1.579429	-0.299162	0.785370
C73	C	1.079436	-0.852576	0.285370
C74	C	1.579436	-0.352576	0.785370
C75	C	1.198301	-0.852562	0.166579
C76	C	1.698301	-0.352562	0.666579
C77	C	1.198298	-0.799147	0.166585
C78	C	1.698298	-0.299147	0.666585
C79	C	1.138855	-0.772448	0.225977
C80	C	1.638855	-0.272448	0.725977
C81	C	1.198238	-0.200915	0.166633
C82	C	1.698238	0.299085	0.666633
C83	C	1.198234	-0.147499	0.166649
C84	C	1.698234	0.352501	0.666649
C85	C	1.079366	-0.147518	0.285435
C86	C	1.579366	0.352482	0.785435
C87	C	1.079373	-0.200929	0.285424
C88	C	1.579373	0.299071	0.785424
C89	C	1.138812	-0.227627	0.226015
C90	C	1.638812	0.272373	0.726015
O91	O	1.028891	-0.285436	0.335905
O92	O	1.528891	0.214564	0.835905
O93	O	1.248775	-0.285449	0.116095
O94	O	1.748775	0.214551	0.616095
C95	C	1.198258	-0.526731	0.166591
C96	C	1.698258	-0.026731	0.666591
C97	C	1.138827	-0.553443	0.225977
C98	C	1.638827	-0.053443	0.725977
C99	C	1.079394	-0.526743	0.285370
C100	C	1.579394	-0.026743	0.785370
C101	C	1.138834	-0.606857	0.225977
C102	C	1.638834	-0.106857	0.725977
C103	C	1.198267	-0.633557	0.166584
C104	C	1.698267	-0.133557	0.666584
C105	C	1.257693	-0.606843	0.107191
C106	C	1.757693	-0.106843	0.607191
C107	C	1.257691	-0.553432	0.107198
C108	C	1.757691	-0.053432	0.607198
C109	C	1.019968	-0.553457	0.344764
C110	C	1.519968	-0.053457	0.844764
C111	C	1.019975	-0.606868	0.344752
C112	C	1.519975	-0.106868	0.844752
C113	C	1.079408	-0.633569	0.285359
C114	C	1.579408	-0.133569	0.785359
C115	C	1.312789	-0.000044	0.233801
C116	C	1.812789	0.499956	0.733801
C117	C	1.418932	-0.000045	0.244646
C118	C	1.918932	0.499955	0.744646
C119	C	1.131039	-0.000049	0.052054
C120	C	1.631039	0.499951	0.552054
C121	C	1.120191	-0.000053	-0.054089
C122	C	1.620191	0.499947	0.445911
N123	N	1.138869	0.120724	0.225977
N124	N	1.638869	0.620724	0.725977
C125	C	1.177292	-0.000035	-0.299547
C126	C	1.677292	0.499965	0.200453
C127	C	1.100375	-0.000035	-0.248422
C128	C	1.600375	0.499965	0.251578
C129	C	1.111404	-0.000045	-0.140285
C130	C	1.611404	0.499955	0.359715
C131	C	1.166265	-0.000026	-0.407694
C132	C	1.666265	0.499974	0.092306
C133	C	1.146624	-0.000025	0.399971
C134	C	1.646624	0.499975	0.899971
C135	C	1.157472	-0.000018	0.506114
C136	C	1.657472	0.499982	1.006114
H137	H	0.650706	-0.000026	0.338602
H138	H	1.150706	0.499974	0.838602
H139	H	1.030979	-0.125770	0.333795
H140	H	1.530979	0.374230	0.833795
C141	C	1.323063	-0.636220	0.041856
C142	C	1.823063	-0.136220	0.541856
H143	H	1.314540	-0.671856	0.050358
H144	H	1.814540	-0.171856	0.550358
H145	H	1.387659	-0.627467	0.057640
H146	H	1.887659	-0.127467	0.557640
H147	H	1.307298	-0.627467	-0.022748
H148	H	1.807298	-0.127467	0.477252
H149	H	0.626954	-0.000045	0.113425
H150	H	1.126954	0.499955	0.613425
C151	C	1.263612	-0.118119	0.101312
C152	C	1.763612	0.381881	0.601312
H153	H	1.298999	-0.141674	0.065933
H154	H	1.798999	0.358326	0.565933
H155	H	1.306258	-0.097280	0.139037
H156	H	1.806258	0.402720	0.639037
H157	H	1.225902	-0.097285	0.058643
H158	H	1.725902	0.402715	0.558643
C159	C	1.323065	-0.524056	0.041861
C160	C	1.823065	-0.024056	0.541861
H161	H	1.358450	-0.547614	0.006486
H162	H	1.858450	-0.047614	0.506486
H163	H	1.365713	-0.503215	0.079580
H164	H	1.865713	-0.003215	0.579580
H165	H	1.285356	-0.503223	-0.000812
H166	H	1.785356	-0.003223	0.499188
H167	H	1.246637	-0.222646	0.118256
H168	H	1.746637	0.277354	0.618256
H169	H	1.306081	-0.371452	0.058856
H170	H	1.806081	0.128548	0.558856
H171	H	1.031022	-0.777427	0.333736
H172	H	1.531022	-0.277427	0.833736
H173	H	1.251418	-0.000044	-0.262106
H174	H	1.751418	0.499956	0.237894
H175	H	1.306085	-0.468343	0.058843
H176	H	1.806085	0.031657	0.558843
H177	H	1.031048	-0.874321	0.333742
H178	H	1.531048	-0.374321	0.833742
C179	C	1.263669	-0.769769	0.101249
C180	C	1.763669	-0.269769	0.601249
H181	H	1.299059	-0.793326	0.065876
H182	H	1.799059	-0.293326	0.565876
H183	H	1.306313	-0.748927	0.138969
H184	H	1.806313	-0.248927	0.638969
H185	H	1.225958	-0.748939	0.058575
H186	H	1.725958	-0.248939	0.558575
C187	C	0.954570	-0.476000	0.410111
C188	C	1.454570	0.024000	0.910111
H189	H	0.919174	-0.452441	0.445473
H190	H	1.419174	0.047559	0.945473
H191	H	0.992272	-0.496832	0.452781
H192	H	1.492272	0.003168	0.952781
H193	H	0.911917	-0.496840	0.372387
H194	H	1.411917	0.003160	0.872387
C195	C	0.954586	-0.636245	0.410081
C196	C	1.454586	-0.136245	0.910081
H197	H	0.919185	-0.612689	0.445444
H198	H	1.419185	-0.112689	0.945444
H199	H	0.992273	-0.657085	0.452752
H200	H	1.492273	-0.157085	0.952752
H201	H	0.911938	-0.657079	0.372338
H202	H	1.411938	-0.157079	0.872338
H203	H	1.246695	-0.874311	0.118220
H204	H	1.746695	-0.374311	0.618220
C205	C	1.000226	-0.000030	-0.298993
C206	C	1.500226	0.499970	0.201007
H207	H	0.953417	-0.000030	-0.252693
H208	H	1.453417	0.499970	0.247307
H209	H	0.992731	-0.029619	-0.337748
H210	H	1.492731	0.470381	0.162252
H211	H	0.992743	0.029568	-0.337730
H212	H	1.492743	0.529568	0.162270
H213	H	0.971531	-0.371475	0.393129
H214	H	1.471531	0.128525	0.893129
H215	H	1.030985	-0.222678	0.333794
H216	H	1.530985	0.277322	0.833794
H217	H	0.971569	-0.531722	0.393128
H218	H	1.471569	-0.031722	0.893128
