data_functionalizedCrystal
_audit_creation_method	'MofGen! by Chris Wilmer'
_symmetry_space_group_name_H-M	'P1'
_symmetry_Int_Tables_number	1
_symmetry_cell_setting	triclinic
loop_
_symmetry_equiv_pos_as_xyz
  x,y,z
_cell_length_a	6.394989
_cell_length_b	8.559649
_cell_length_c	7.088929
_cell_angle_alpha	95.344185
_cell_angle_beta	83.614363
_cell_angle_gamma	78.138188
loop_
_atom_site_label
_atom_site_type_symbol
_atom_site_fract_x
_atom_site_fract_y
_atom_site_fract_z
O1	O	-2.705644	-0.276866	-0.158957
O2	O	-2.095406	-0.290011	-0.158965
O3	O	-2.454288	-0.051919	-0.158958
O4	O	-2.346762	-0.514958	-0.158964
O5	O	-2.502260	-0.020027	0.159018
O6	O	-2.143378	-0.258119	0.159011
O7	O	-2.753617	-0.244973	0.159019
Cu8	Cu	-2.452878	-0.248634	0.188049
Cu9	Cu	-2.396144	-0.286351	-0.187995
O10	O	-2.394735	-0.483066	0.159012
C11	C	-2.486422	0.023393	0.000026
C12	C	-2.510676	0.200283	0.000016
C13	C	-2.362600	-0.558378	0.000024
C14	C	-2.338344	-0.735270	0.000022
N15	N	-2.492796	-0.222106	0.452538
C16	C	-2.041989	-0.271465	0.000033
C17	C	-1.807029	-0.263521	0.000041
N18	N	-2.356244	-0.312867	-0.452483
H19	H	-2.676786	0.280446	0.000033
H20	H	-2.634338	-0.128056	0.534196
C21	C	-2.165059	-0.439926	0.437225
H22	H	-2.167779	-0.438094	0.303719
H23	H	-2.175716	-0.543396	0.469934
H24	H	-2.033717	-0.416653	0.469953
C25	C	-2.113950	0.156467	0.000011
H26	H	-2.009090	0.220617	0.000030
H27	H	-2.080426	0.079881	-0.110877
H28	H	-2.113890	0.102122	0.110907
