data_functionalizedCrystal
_audit_creation_method	'MofGen! by Chris Wilmer'
_symmetry_space_group_name_H-M	'P1'
_symmetry_Int_Tables_number	1
_symmetry_cell_setting	triclinic
loop_
_symmetry_equiv_pos_as_xyz
  x,y,z
_cell_length_a	11.026623
_cell_length_b	11.792241
_cell_length_c	10.268362
_cell_angle_alpha	89.998512
_cell_angle_beta	90.004701
_cell_angle_gamma	83.609940
loop_
_atom_site_label
_atom_site_type_symbol
_atom_site_fract_x
_atom_site_fract_y
_atom_site_fract_z
O1	O	-1.613294	0.475913	-0.108313
O2	O	-1.113294	0.975913	0.391687
O3	O	-1.259632	0.421720	-0.108313
O4	O	-0.759632	0.921720	0.391687
O5	O	-1.445045	0.285350	-0.108304
O6	O	-0.945045	0.785350	0.391696
O7	O	-1.427880	0.612283	-0.108322
O8	O	-0.927880	1.112283	0.391678
O9	O	-1.445027	0.285353	0.108297
O10	O	-0.945027	0.785353	0.608297
O11	O	-1.259614	0.421722	0.108288
O12	O	-0.759614	0.921722	0.608288
O13	O	-1.613276	0.475916	0.108287
O14	O	-1.113276	0.975916	0.608287
Cu15	Cu	-1.436443	0.448819	0.128065
Cu16	Cu	-0.936443	0.948819	0.628065
Cu17	Cu	-1.436464	0.448816	-0.128090
Cu18	Cu	-0.936464	0.948816	0.371910
O19	O	-1.427863	0.612285	0.108278
O20	O	-0.927863	1.112285	0.608278
C21	C	-1.214346	0.411723	-0.000013
C22	C	-0.714346	0.911723	0.499987
C23	C	-1.079436	0.381920	-0.000012
C24	C	-0.579436	0.881920	0.499988
C25	C	-1.443958	0.242846	-0.000004
C26	C	-0.943958	0.742846	0.499996
C27	C	-1.440731	0.116192	-0.000005
C28	C	-0.940731	0.616192	0.499995
C29	C	-1.006172	0.464210	-0.000018
C30	C	-0.506172	0.964210	0.499982
C31	C	-0.866735	0.433408	-0.000018
C32	C	-0.366735	0.933408	0.499982
C33	C	-1.434797	-0.115699	-0.000027
C34	C	-0.934797	0.384301	0.499973
C35	C	-1.438094	0.013341	-0.000015
C36	C	-0.938094	0.513341	0.499985
C37	C	-0.658562	0.485911	-0.000015
C38	C	-0.158562	0.985911	0.499985
C39	C	-0.793472	0.515710	-0.000023
C40	C	-0.293472	1.015710	0.499977
C41	C	-1.428950	0.654789	-0.000024
C42	C	-0.928950	1.154789	0.499976
C43	C	-1.432177	0.781444	-0.000032
C44	C	-0.932177	1.281444	0.499968
N45	N	-1.436437	0.448822	0.308231
N46	N	-0.936437	0.948822	0.808231
N47	N	-1.436480	0.448806	-0.308256
N48	N	-0.936480	0.948806	0.191744
C49	C	-1.436446	0.448825	0.426073
C50	C	-0.936446	0.948825	0.926073
C51	C	-1.436461	0.448817	0.573911
C52	C	-0.936461	0.948817	1.073911
H53	H	-1.046677	0.557464	-0.000016
H54	H	-0.546677	1.057464	0.499984
C55	C	-1.024736	0.255938	-0.000005
C56	C	-0.524736	0.755938	0.499995
H57	H	-1.088783	0.208304	0.000007
H58	H	-0.588783	0.708304	0.500007
H59	H	-0.975850	0.240888	-0.075535
H60	H	-0.475850	0.740888	0.424465
H61	H	-0.975845	0.240893	0.075541
H62	H	-0.475845	0.740893	0.575541
C63	C	-0.812034	0.307422	-0.000018
C64	C	-0.312034	0.807422	0.499982
H65	H	-0.725494	0.303247	-0.000029
H66	H	-0.225494	0.803247	0.499971
H67	H	-0.838418	0.270644	0.075514
H68	H	-0.338418	0.770644	0.575514
H69	H	-0.838431	0.270656	-0.075562
H70	H	-0.338431	0.770656	0.424438
C71	C	-0.848170	0.641697	-0.000037
C72	C	-0.348170	1.141697	0.499963
H73	H	-0.934711	0.645875	-0.000047
H74	H	-0.434711	1.145875	0.499953
H75	H	-0.821773	0.678477	0.075489
H76	H	-0.321773	1.178477	0.575489
H77	H	-0.821785	0.678460	-0.075587
H78	H	-0.321785	1.178460	0.424413
