data_functionalizedCrystal
_audit_creation_method	'MofGen! by Chris Wilmer'
_symmetry_space_group_name_H-M	'P1'
_symmetry_Int_Tables_number	1
_symmetry_cell_setting	triclinic
loop_
_symmetry_equiv_pos_as_xyz
  x,y,z
_cell_length_a	8.497366
_cell_length_b	11.169417
_cell_length_c	11.169416
_cell_angle_alpha	89.988411
_cell_angle_beta	90.046879
_cell_angle_gamma	89.969226
loop_
_atom_site_label
_atom_site_type_symbol
_atom_site_fract_x
_atom_site_fract_y
_atom_site_fract_z
Zn1	Zn	-0.891917	1.835096	0.477480
Zn2	Zn	-0.558584	2.168429	0.810814
Zn3	Zn	-0.225251	2.501762	1.144147
Zn4	Zn	-0.628135	1.834946	0.678277
Zn5	Zn	-0.294802	2.168279	1.011610
Zn6	Zn	0.038532	2.501612	1.344944
Zn7	Zn	-0.628153	1.634342	0.477611
Zn8	Zn	-0.294819	1.967675	0.810944
Zn9	Zn	0.038514	2.301009	1.144278
Zn10	Zn	-0.891875	1.634389	0.678125
Zn11	Zn	-0.558542	1.967722	1.011458
Zn12	Zn	-0.225209	2.301056	1.344791
O13	O	-0.760020	1.734693	0.577873
O14	O	-0.426687	2.068026	0.911207
O15	O	-0.093353	2.401360	1.244540
O16	O	-0.856936	2.003025	0.504126
O17	O	-0.523603	2.336359	0.837459
O18	O	-0.190270	2.669692	1.170792
O19	O	-0.407375	1.808253	0.651777
O20	O	-0.074041	2.141586	0.985110
O21	O	0.259292	2.474919	1.318443
O22	O	-0.663167	1.661016	0.309644
O23	O	-0.329833	1.994349	0.642977
O24	O	0.003500	2.327682	0.976311
O25	O	-0.663137	2.002915	0.651650
O26	O	-0.329803	2.336249	0.984983
O27	O	0.003530	2.669582	1.318317
O28	O	-0.856953	1.808508	0.309548
O29	O	-0.523620	2.141842	0.642881
O30	O	-0.190287	2.475175	0.976215
O31	O	-0.407388	1.660870	0.504348
O32	O	-0.074054	1.994204	0.837681
O33	O	0.259279	2.327537	1.171015
O34	O	-0.663126	1.466399	0.504200
O35	O	-0.329793	1.799732	0.837534
O36	O	0.003541	2.133065	1.170867
O37	O	-1.112644	1.661096	0.651390
O38	O	-0.779310	1.994429	0.984724
O39	O	-0.445977	2.327762	1.318057
O40	O	-0.856882	1.466433	0.651517
O41	O	-0.523548	1.799767	0.984850
O42	O	-0.190215	2.133100	1.318183
O43	O	-1.112674	1.808554	0.503978
O44	O	-0.779341	2.141887	0.837311
O45	O	-0.446008	2.475221	1.170645
O46	O	-0.663096	1.808298	0.846206
O47	O	-0.329763	2.141632	1.179540
O48	O	0.003571	2.474965	1.512873
O49	O	-0.856865	1.660950	0.846094
O50	O	-0.523531	1.994284	1.179428
O51	O	-0.190198	2.327617	1.512761
C52	C	-0.760002	1.422868	0.577857
C53	C	-0.426669	1.756202	0.911190
C54	C	-0.093335	2.089535	1.244524
C55	C	-0.760032	1.289468	0.577879
C56	C	-0.426698	1.622802	0.911212
C57	C	-0.093365	1.956135	1.244546
C58	C	-0.760008	1.734646	0.889698
C59	C	-0.426675	2.067979	1.223031
C60	C	-0.093342	2.401312	1.556365
C61	C	-0.760056	1.734735	1.023098
C62	C	-0.426722	2.068068	1.356431
C63	C	-0.093389	2.401402	1.689764
C64	C	-0.171501	1.734763	0.577764
C65	C	0.161833	2.068097	0.911097
C66	C	0.495166	2.401430	1.244430
C67	C	-0.350144	1.734604	0.578015
C68	C	-0.016811	2.067937	0.911348
C69	C	0.316522	2.401271	1.244682
C70	C	-0.760039	2.047735	0.577890
C71	C	-0.426706	2.381069	0.911224
C72	C	-0.093373	2.714402	1.244557
C73	C	-0.760047	2.181135	0.577898
C74	C	-0.426714	2.514469	0.911231
C75	C	-0.093381	2.847802	1.244564
C76	C	-0.760067	1.734774	0.264831
C77	C	-0.426733	2.068107	0.598164
C78	C	-0.093400	2.401440	0.931497
C79	C	-0.760087	1.734808	0.131431
C80	C	-0.426753	2.068141	0.464764
C81	C	-0.093420	2.401475	0.798097
