data_functionalizedCrystal
_audit_creation_method	'MofGen! by Chris Wilmer'
_symmetry_space_group_name_H-M	'P1'
_symmetry_Int_Tables_number	1
_symmetry_cell_setting	triclinic
loop_
_symmetry_equiv_pos_as_xyz
  x,y,z
_cell_length_a	18.101395
_cell_length_b	17.639504
_cell_length_c	17.640968
_cell_angle_alpha	109.667320
_cell_angle_beta	78.770922
_cell_angle_gamma	78.786307
loop_
_atom_site_label
_atom_site_type_symbol
_atom_site_fract_x
_atom_site_fract_y
_atom_site_fract_z
Zn1	Zn	0.097905	-1.354407	-0.721266
Zn2	Zn	0.597905	-0.854407	-0.221266
Zn3	Zn	-0.057351	-1.326410	-0.583413
Zn4	Zn	0.442649	-0.826410	-0.083413
Zn5	Zn	0.035148	-1.188684	-0.555531
Zn6	Zn	0.535148	-0.688684	-0.055531
Zn7	Zn	-0.057275	-1.216499	-0.693295
Zn8	Zn	0.442725	-0.716499	-0.193295
O9	O	0.004607	-1.271500	-0.638376
O10	O	0.504607	-0.771500	-0.138376
O11	O	0.103542	-1.466046	-0.726354
O12	O	0.603542	-0.966046	-0.226354
O13	O	-0.071377	-1.284783	-0.464368
O14	O	0.428623	-0.784783	0.035632
O15	O	0.147127	-1.210744	-0.577553
O16	O	0.647127	-0.710744	-0.077553
O17	O	-0.010524	-1.445477	-0.625074
O18	O	0.489476	-0.945477	-0.125074
O19	O	0.193234	-1.332499	-0.699318
O20	O	0.693234	-0.832499	-0.199318
O21	O	-0.003419	-1.183597	-0.443883
O22	O	0.496581	-0.683597	0.056117
O23	O	-0.003344	-1.077021	-0.550431
O24	O	0.496656	-0.577021	-0.050431
O25	O	-0.010393	-1.258150	-0.812351
O26	O	0.489607	-0.758150	-0.312351
O27	O	-0.071247	-1.097456	-0.651645
O28	O	0.428753	-0.597456	-0.151645
O29	O	0.103616	-1.359470	-0.832902
O30	O	0.603616	-0.859470	-0.332902
O31	O	-0.160995	-1.311754	-0.597952
O32	O	0.339005	-0.811754	-0.097952
O33	O	-0.160939	-1.231003	-0.678681
O34	O	0.339061	-0.731003	-0.178681
C35	C	-0.044098	-1.057329	-0.594978
C36	C	0.455902	-0.557329	-0.094978
C37	C	-0.064947	-0.965709	-0.576431
C38	C	0.435053	-0.465709	-0.076431
C39	C	0.163110	-0.717977	-0.779462
C40	C	0.663110	-0.217977	-0.279462
C41	C	0.143496	-0.631883	-0.762018
C42	C	0.643496	-0.131883	-0.262018
C43	C	0.024842	-0.610455	-0.656403
C44	C	0.524842	-0.110455	-0.156403
C45	C	0.044443	-0.696550	-0.673841
C46	C	0.544443	-0.196550	-0.173841
C47	C	0.113579	-0.750304	-0.735371
C48	C	0.613579	-0.250304	-0.235371
C49	C	-0.005088	-0.728877	-0.629750
C50	C	0.494912	-0.228877	-0.129750
C51	C	0.014515	-0.814963	-0.647184
C52	C	0.514515	-0.314963	-0.147184
C53	C	0.083648	-0.868722	-0.708709
C54	C	0.583648	-0.368722	-0.208709
C55	C	0.133181	-0.836390	-0.752804
C56	C	0.633181	-0.336390	-0.252804
C57	C	-0.074220	-0.675121	-0.568217
C58	C	0.425780	-0.175121	-0.068217
C59	C	-0.123751	-0.707448	-0.524126
C60	C	0.376249	-0.207448	-0.024126
C61	C	-0.104152	-0.793537	-0.541564
C62	C	0.395848	-0.293537	-0.041564
C63	C	-0.035018	-0.847296	-0.603088
C64	C	0.464982	-0.347296	-0.103088
C65	C	-0.153685	-0.825869	-0.497468
C66	C	0.346315	-0.325869	0.002532
C67	C	-0.134082	-0.911955	-0.514902
C68	C	0.365918	-0.411955	-0.014902
C69	C	-0.015416	-0.933382	-0.620522
C70	C	0.484584	-0.433382	-0.120522
C71	C	-0.187834	-1.271385	-0.638330
C72	C	0.312166	-0.771385	-0.138330
C73	C	-0.270138	-1.271417	-0.638352
C74	C	0.229862	-0.771417	-0.138352
C75	C	-0.569178	-1.271606	-0.638433
C76	C	-0.069178	-0.771606	-0.138433
C77	C	-0.537778	-1.220980	-0.689414
C78	C	-0.037778	-0.720980	-0.189414
C79	C	-0.452275	-1.220637	-0.689153
C80	C	0.047725	-0.720637	-0.189153
C81	C	-0.420821	-1.271512	-0.638394
C82	C	0.079179	-0.771512	-0.138394
C83	C	-0.477100	-1.230422	-0.546763
C84	C	0.022900	-0.730422	-0.046763
C85	C	-0.562751	-1.230090	-0.547063
C86	C	-0.062751	-0.730090	-0.047063
C87	C	-0.512621	-1.363308	-0.678347
C88	C	-0.012621	-0.863308	-0.178347
C89	C	-0.426653	-1.363180	-0.680148
C90	C	0.073347	-0.863180	-0.180148
C91	C	-0.336976	-1.271460	-0.638367
C92	C	0.163024	-0.771460	-0.138367
C93	C	-0.653024	-1.271656	-0.638455
C94	C	-0.153024	-0.771656	-0.138455
C95	C	0.197809	-1.271642	-0.638445
C96	C	0.697809	-0.771642	-0.138445
C97	C	0.280140	-1.271702	-0.638475
C98	C	0.780140	-0.771702	-0.138475
C99	C	0.053620	-1.315036	-0.853371
C100	C	0.553620	-0.815036	-0.353371
C101	C	0.074507	-1.333588	-0.944989
C102	C	0.574507	-0.833588	-0.444989
C103	C	0.053511	-0.486507	-0.681942
C104	C	0.553511	0.013493	-0.181942
C105	C	0.074377	-0.578129	-0.700499
C106	C	0.574377	-0.078129	-0.200499
C107	C	-0.153592	-1.130876	-1.192817
C108	C	0.346408	-0.630876	-0.692817
C109	C	-0.133953	-1.148327	-1.278910
C110	C	0.366047	-0.648327	-0.778910
C111	C	-0.015245	-1.253822	-1.300297
C112	C	0.484755	-0.753822	-0.800297
C113	C	-0.034872	-1.236378	-1.214204
C114	C	0.465128	-0.736378	-0.714204
C115	C	-0.104048	-1.174905	-1.160471
C116	C	0.395952	-0.674905	-0.660471
C117	C	0.014673	-1.280406	-1.181857
C118	C	0.514673	-0.780406	-0.681857
C119	C	-0.004956	-1.262967	-1.095772
C120	C	0.495044	-0.762967	-0.595772
C121	C	-0.074129	-1.201498	-1.042034
C122	C	0.425871	-0.701498	-0.542034
C123	C	-0.123676	-1.157465	-1.074386
C124	C	0.376324	-0.657465	-0.574386
C125	C	0.083845	-1.341883	-1.235592
C126	C	0.583845	-0.841883	-0.735592
C127	C	0.133390	-1.385912	-1.203245
C128	C	0.633390	-0.885912	-0.703245
C129	C	0.113764	-1.368468	-1.117158
C130	C	0.613764	-0.868468	-0.617158
C131	C	0.044591	-1.307000	-1.063420
C132	C	0.544591	-0.807000	-0.563420
C133	C	0.163311	-1.412501	-1.084807
C134	C	0.663311	-0.912501	-0.584807
C135	C	0.143683	-1.395061	-0.998722
C136	C	0.643683	-0.895061	-0.498722
C137	C	0.024962	-1.289560	-0.977335
C138	C	0.524962	-0.789560	-0.477335
C139	C	-0.044152	-1.228181	-0.424228
C140	C	0.455848	-0.728181	0.075772
C141	C	-0.064794	-1.209789	-0.332643
C142	C	0.435206	-0.709789	0.167357
H143	H	0.183838	-0.605566	-0.797922
H144	H	0.683838	-0.105566	-0.297922
Br145	Br	-0.068979	-0.537496	-0.572898
Br146	Br	0.431021	-0.037496	-0.072898
Br147	Br	0.257180	-1.495937	-1.157741
Br148	Br	0.757180	-0.995937	-0.657741
H149	H	-0.090166	-0.605021	-0.554006
H150	H	0.409834	-0.105021	-0.054006
Br151	Br	-0.217571	-0.634489	-0.440620
Br152	Br	0.282429	-0.134489	0.059380
Br153	Br	-0.247499	-0.752906	-0.413955
Br154	Br	0.252501	-0.252906	0.086045
H155	H	-0.577291	-1.153794	-0.661849
H156	H	-0.077291	-0.653794	-0.161849
H157	H	-0.174304	-1.112469	-1.305242
H158	H	0.325696	-0.612469	-0.805242
Br159	Br	0.110260	-0.985554	-0.732362
Br160	Br	0.610260	-0.485554	-0.232362
Br161	Br	-0.546083	-1.426542	-0.616832
Br162	Br	-0.046083	-0.926542	-0.116832
H163	H	-0.449909	-1.153021	-0.661323
H164	H	0.050091	-0.653021	-0.161323
Br165	Br	-0.599174	-1.287285	-0.480006
Br166	Br	-0.099174	-0.787285	0.019994
Br167	Br	-0.201307	-0.955834	-0.455070
Br168	Br	0.298693	-0.455834	0.044930
H169	H	-0.515115	-1.397345	-0.744954
H170	H	-0.015115	-0.897345	-0.244954
Br171	Br	0.227003	-0.909352	-0.836319
Br172	Br	0.727003	-0.409352	-0.336319
H173	H	-0.457661	-1.265362	-0.506972
H174	H	0.042339	-0.765362	-0.006972
H175	H	-0.413198	-1.248381	-0.756545
H176	H	0.086802	-0.748381	-0.256545
Br177	Br	0.256931	-0.790939	-0.862976
Br178	Br	0.756931	-0.290939	-0.362976
Br179	Br	-0.627480	-1.117493	-0.494126
Br180	Br	-0.127480	-0.617493	0.005874
Br181	Br	-0.247468	-1.047438	-1.119884
Br182	Br	0.252532	-0.547438	-0.619884
Br183	Br	-0.541982	-1.267043	-0.802040
Br184	Br	-0.041982	-0.767043	-0.302040
H185	H	-0.474429	-1.163473	-0.514802
H186	H	0.025571	-0.663473	-0.014802
Br187	Br	-0.361731	-1.414299	-0.792691
Br188	Br	0.138269	-0.914299	-0.292691
Br189	Br	-0.388419	-1.431734	-0.625122
Br190	Br	0.111581	-0.931734	-0.125122
H191	H	-0.179992	-1.107388	-1.030629
H192	H	0.320008	-0.607388	-0.530629
H193	H	-0.031354	-1.239482	-0.933578
H194	H	0.468646	-0.739482	-0.433578
H195	H	0.099823	-1.356083	-1.305688
H196	H	0.599823	-0.856083	-0.805688
H197	H	0.040879	-0.977153	-0.670628
H198	H	0.540879	-0.477153	-0.170628
Br199	Br	-0.100776	-1.177833	-0.925204
Br200	Br	0.399224	-0.677833	-0.425204
H201	H	0.041077	-1.303876	-1.344058
H202	H	0.541077	-0.803876	-0.844058
H203	H	0.189711	-1.435965	-1.247007
H204	H	0.689711	-0.935965	-0.747007
H205	H	0.184028	-1.430912	-0.972385
H206	H	0.684028	-0.930912	-0.472385
