data_functionalizedCrystal
_audit_creation_method	'MofGen! by Chris Wilmer'
_symmetry_space_group_name_H-M	'P1'
_symmetry_Int_Tables_number	1
_symmetry_cell_setting	triclinic
loop_
_symmetry_equiv_pos_as_xyz
  x,y,z
_cell_length_a	17.917603
_cell_length_b	14.628931
_cell_length_c	14.628931
_cell_angle_alpha	60.000000
_cell_angle_beta	90.000192
_cell_angle_gamma	57.011537
loop_
_atom_site_label
_atom_site_type_symbol
_atom_site_fract_x
_atom_site_fract_y
_atom_site_fract_z
Zr1	Zr	0.754908	0.916420	-0.077880
O2	O	0.629784	1.121074	-0.230816
O3	O	0.793265	0.721438	-0.030997
O4	O	0.793265	0.912143	-0.221702
O5	O	0.629783	0.930370	0.110321
O6	O	0.922222	0.897767	-0.214514
O7	O	0.629783	0.930369	-0.040110
O8	O	0.922221	0.556631	0.126624
O9	O	0.629784	1.271506	-0.230816
O10	O	0.905863	0.787326	-0.005637
O11	O	0.809623	0.798055	0.101264
O12	O	0.809624	1.022586	-0.123268
O13	O	0.713385	1.033315	-0.016367
Zr14	Zr	0.960579	0.893492	0.173506
Zr15	Zr	0.960579	0.893491	-0.066415
Zr16	Zr	0.754907	0.916421	0.162041
Zr17	Zr	0.754908	1.156342	-0.077880
Zr18	Zr	0.960579	0.653571	0.173507
O19	O	0.922222	1.088474	0.126623
O20	O	0.922222	1.088473	-0.214514
O21	O	0.629783	1.121075	0.110321
O22	O	1.085703	0.688838	0.326442
O23	O	1.085703	0.688837	-0.014695
O24	O	0.793264	0.721439	0.310140
O25	O	1.085704	0.879543	-0.014695
O26	O	0.922222	0.897769	0.317329
O27	O	0.793264	0.912145	0.310140
O28	O	1.085703	0.879543	0.135737
O29	O	0.793265	1.253281	-0.221703
O30	O	0.922221	0.556631	0.317329
O31	O	1.085703	0.538406	0.326442
O32	O	1.085703	0.538406	0.135737
O33	O	0.629784	1.271507	-0.040111
O34	O	0.793265	1.253281	-0.030997
O35	O	0.905863	0.787327	0.218894
O36	O	1.002102	0.776597	0.111993
O37	O	0.905863	1.011857	-0.005637
O38	O	0.809624	1.022586	0.101263
C39	C	0.857743	0.604851	0.047814
C40	C	0.857743	0.502998	0.047814
C41	C	0.905484	0.452266	-0.005216
C42	C	0.905485	0.346996	-0.005217
C43	C	0.600479	0.933636	0.033472
C44	C	0.513166	0.943370	0.028605
C45	C	0.353322	0.961150	0.019716
C46	C	0.362157	0.848768	0.075908
C47	C	0.273215	0.858661	0.070962
C48	C	0.442271	0.951260	0.024660
C49	C	1.115007	0.876276	0.062154
C50	C	1.202320	0.866542	0.067022
C51	C	0.857744	0.904955	-0.252292
C52	C	0.857744	0.904955	-0.354144
C53	C	0.857744	1.205061	0.047813
C54	C	0.857744	1.306914	0.047813
C55	C	0.810003	1.021660	-0.457906
C56	C	0.810002	1.021662	-0.563178
C57	C	0.857743	0.904957	0.347918
C58	C	0.857743	0.904957	0.449771
C59	C	1.115007	0.576171	0.062155
C60	C	1.202320	0.464584	0.067022
C61	C	0.857743	0.604852	0.347918
C62	C	0.857742	0.502999	0.449771
C63	C	1.115007	0.576172	0.362260
C64	C	1.202319	0.464585	0.468980
C65	C	0.600480	1.233741	-0.266633
C66	C	0.513167	1.345327	-0.373353
C67	C	0.600480	1.233741	0.033472
C68	C	0.513167	1.345328	0.028604
C69	C	0.857744	1.205060	-0.252292
C70	C	0.857744	1.306913	-0.354145
C71	C	1.193087	0.417782	0.007896
C72	C	1.275119	0.312948	0.012447
C73	C	1.366383	0.254912	0.076130
C74	C	1.375614	0.301724	0.135258
C75	C	1.293583	0.406562	0.130700
C76	C	1.293567	0.406582	0.463296
C77	C	1.375615	0.301747	0.563562
C78	C	1.366412	0.254911	0.669511
C79	C	1.275155	0.312925	0.675192
C80	C	1.193110	0.417765	0.574927
C81	C	0.421920	1.403342	-0.367670
C82	C	0.339872	1.508207	-0.467936
C83	C	0.349074	1.555048	-0.573885
C84	C	0.440331	1.497027	-0.579565
C85	C	0.522377	1.392171	-0.479300
C86	C	0.522399	1.392140	0.087720
C87	C	0.440367	1.497000	0.083143
C88	C	0.349104	1.555040	0.019456
C89	C	0.339873	1.508223	-0.039667
C90	C	0.421904	1.403372	-0.035096
C91	C	0.905483	0.452268	0.553533
C92	C	0.905484	0.346998	0.658805
H93	H	0.816864	0.350522	0.093210
H94	H	0.278965	1.064785	-0.032102
N95	N	1.454904	0.141814	0.777655
H96	H	1.454956	0.175097	0.823731
H97	H	1.514057	0.112215	0.757882
H98	H	0.414373	1.365262	-0.083233
N99	N	0.460649	0.711470	0.144548
H100	H	0.496902	0.702278	0.205501
H101	H	0.496809	0.702383	0.092691
H102	H	0.816873	0.468493	0.093217
H103	H	0.282260	1.640429	-0.655518
N104	N	0.911896	0.772596	-0.432334
H105	H	0.943756	0.694714	-0.438161
H106	H	0.865740	0.772702	-0.392676
H107	H	0.946361	0.486760	-0.050612
N108	N	0.241434	1.570813	-0.108334
H109	H	0.233720	1.611391	-0.190752
H110	H	0.190941	1.644270	-0.102148
N111	N	1.265237	0.262402	0.789468
H112	H	1.331064	0.187181	0.852114
H113	H	1.228970	0.226796	0.796319
N114	N	1.303546	0.457037	0.194477
H115	H	1.339792	0.379971	0.278474
H116	H	1.237703	0.532280	0.181839
N117	N	1.094659	0.480363	-0.060793
H118	H	1.101272	0.434797	-0.097557
H119	H	1.058433	0.580471	-0.121723
H120	H	0.816873	0.350511	0.556851
N121	N	0.755869	1.154014	-0.472359
H122	H	0.763546	1.135251	-0.395108
H123	H	0.685601	1.213065	-0.518563
H124	H	0.946351	0.486775	0.564432
N125	N	0.411976	1.352853	-0.253407
H126	H	0.477792	1.277622	-0.190740
H127	H	0.375689	1.317276	-0.246566
N128	N	0.911890	0.772603	-0.339698
H129	H	0.885557	0.724260	-0.298921
H130	H	0.982168	0.713606	-0.293567
H131	H	1.118815	0.464979	0.579570
H132	H	1.267584	0.274848	-0.035703
N133	N	0.803597	0.457315	0.435311
H134	H	0.753073	0.479596	0.469628
H135	H	0.849768	0.356113	0.475005
H136	H	1.433170	0.169546	0.079833
H137	H	1.449932	0.254456	0.187108
N138	N	0.755850	1.154021	-0.681075
H139	H	0.763523	1.135262	-0.739565
H140	H	0.782215	1.202296	-0.688531
N141	N	1.303506	0.457073	0.349032
H142	H	1.373767	0.404409	0.360663
H143	H	1.271652	0.556694	0.304989
N144	N	1.474033	0.239185	0.557420
H145	H	1.467405	0.284760	0.475086
H146	H	1.510266	0.139076	0.596597
H147	H	0.265575	1.555430	-0.463288
N148	N	0.450249	1.547554	-0.693842
H149	H	0.384423	1.622778	-0.756488
H150	H	0.486515	1.470429	-0.700694
N151	N	0.450347	1.547481	0.146909
H152	H	0.418570	1.647084	0.091385
H153	H	0.520632	1.494691	0.187941
N154	N	0.620793	1.329597	-0.485439
H155	H	0.614163	1.375186	-0.567774
H156	H	0.657014	1.229494	-0.446280
H157	H	0.946358	0.303389	0.747814
H158	H	0.946354	0.303395	-0.050624
H159	H	0.596704	1.344892	0.139589
N160	N	0.260631	1.668129	0.014531
H161	H	0.280338	1.688967	0.061652
H162	H	0.221180	1.639151	0.045662
