data_functionalizedCrystal
_audit_creation_method	'MofGen! by Chris Wilmer'
_symmetry_space_group_name_H-M	'P1'
_symmetry_Int_Tables_number	1
_symmetry_cell_setting	triclinic
loop_
_symmetry_equiv_pos_as_xyz
  x,y,z
_cell_length_a	14.044202
_cell_length_b	13.101039
_cell_length_c	14.044190
_cell_angle_alpha	93.663707
_cell_angle_beta	93.192239
_cell_angle_gamma	86.337612
loop_
_atom_site_label
_atom_site_type_symbol
_atom_site_fract_x
_atom_site_fract_y
_atom_site_fract_z
O1	O	-1.281982	0.085183	-0.225388
O2	O	-0.781982	0.585183	0.274612
O3	O	-1.005311	0.085196	-0.217072
O4	O	-0.505311	0.585196	0.282928
O5	O	-1.139489	0.085170	-0.082895
O6	O	-0.639489	0.585170	0.417105
O7	O	-1.147804	0.085210	-0.359565
O8	O	-0.647804	0.585210	0.140435
O9	O	-1.129863	-0.085258	-0.092539
O10	O	-0.629863	0.414742	0.407461
O11	O	-0.995685	-0.085232	-0.226717
O12	O	-0.495685	0.414768	0.273283
O13	O	-1.272357	-0.085244	-0.235032
O14	O	-0.772357	0.414756	0.264968
Zn15	Zn	-1.132493	-0.112297	-0.232406
Zn16	Zn	-0.632493	0.387703	0.267594
Zn17	Zn	-1.145175	0.112249	-0.219699
Zn18	Zn	-0.645175	0.612249	0.280301
O19	O	-1.138178	-0.085218	-0.369210
O20	O	-0.638178	0.414782	0.130790
C21	C	-0.964876	-0.000016	-0.218257
C22	C	-0.464876	0.499984	0.281743
C23	C	-0.858733	-0.000013	-0.207409
C24	C	-0.358733	0.499987	0.292591
C25	C	-0.613276	-0.000014	-0.264508
C26	C	-0.113276	0.499986	0.235492
C27	C	-0.664399	-0.000024	-0.187592
C28	C	-0.164399	0.499976	0.312408
C29	C	-0.772536	-0.000017	-0.198621
C30	C	-0.272536	0.499983	0.301379
C31	C	-0.505128	-0.000020	-0.253480
C32	C	-0.005128	0.499980	0.246520
N33	N	-1.123844	-0.265544	-0.241078
N34	N	-0.623844	0.234456	0.258922
C35	C	-1.112078	-0.474584	-0.252885
C36	C	-0.612078	0.025416	0.247115
C37	C	-1.165593	-0.525471	-0.199215
C38	C	-0.665593	-0.025471	0.300785
C39	C	-1.159046	-0.641788	-0.205785
C40	C	-0.659046	-0.141788	0.294215
C41	C	-1.118624	-0.358257	-0.246317
C42	C	-0.618624	0.141743	0.253683
C43	C	-0.312792	-0.000029	-0.233845
C44	C	0.187208	0.499971	0.266155
C45	C	-0.418936	-0.000025	-0.244687
C46	C	0.081064	0.499975	0.255313
C47	C	-1.131039	-0.000047	-0.052095
C48	C	-0.631039	0.499953	0.447905
C49	C	-1.120192	-0.000055	0.054048
C50	C	-0.620192	0.499945	0.554048
N51	N	-1.153830	0.265496	-0.211019
N52	N	-0.653830	0.765496	0.288981
C53	C	-1.146628	0.000001	-0.400009
C54	C	-0.646628	0.500001	0.099991
C55	C	-1.157476	0.000016	-0.506152
C56	C	-0.657476	0.500016	-0.006152
C57	C	-1.177294	-0.000018	0.299507
C58	C	-0.677294	0.499982	0.799507
C59	C	-1.100378	-0.000021	0.248384
C60	C	-0.600378	0.499979	0.748384
C61	C	-1.111405	-0.000040	0.140245
C62	C	-0.611405	0.499960	0.640245
C63	C	-1.166269	0.000001	0.407655
C64	C	-0.666269	0.500001	0.907655
H65	H	-0.626957	0.000038	-0.113456
H66	H	-0.126957	0.500038	0.386544
C67	C	-0.663862	0.000011	-0.364651
C68	C	-0.163862	0.500011	0.135349
N69	N	-0.701975	0.000034	-0.440077
N70	N	-0.201975	0.500034	0.059923
H71	H	-1.216325	-0.481678	-0.148333
H72	H	-0.716325	0.018322	0.351667
H73	H	-1.251420	-0.000032	0.262062
H74	H	-0.751420	0.499968	0.762062
C75	C	-1.043545	-0.533743	-0.321620
C76	C	-0.543545	-0.033743	0.178380
N77	N	-0.991926	-0.578313	-0.373391
N78	N	-0.491926	-0.078313	0.126609
C79	C	-1.000227	-0.000016	0.298970
C80	C	-0.500227	0.499984	0.798970
N81	N	-0.924796	-0.000016	0.337075
N82	N	-0.424796	0.499984	0.837075
