data_functionalizedCrystal
_audit_creation_method	'MofGen! by Chris Wilmer'
_symmetry_space_group_name_H-M	'P1'
_symmetry_Int_Tables_number	1
_symmetry_cell_setting	triclinic
loop_
_symmetry_equiv_pos_as_xyz
  x,y,z
_cell_length_a	15.944545
_cell_length_b	14.853567
_cell_length_c	13.330367
_cell_angle_alpha	90.000844
_cell_angle_beta	89.995231
_cell_angle_gamma	96.434449
loop_
_atom_site_label
_atom_site_type_symbol
_atom_site_fract_x
_atom_site_fract_y
_atom_site_fract_z
O1	O	1.114661	-0.116246	-0.083350
O2	O	0.870126	-0.130587	-0.083365
O3	O	0.998925	0.007822	-0.083360
O4	O	0.985862	-0.254655	-0.083355
O5	O	0.998907	0.007825	0.083487
O6	O	0.870108	-0.130584	0.083482
O7	O	1.114642	-0.116243	0.083497
Cu8	Cu	0.992373	-0.123413	0.098724
Cu9	Cu	0.992395	-0.123417	-0.098592
O10	O	0.985843	-0.254652	0.083492
C11	C	0.838822	-0.129991	0.000056
C12	C	0.745574	-0.128209	0.000050
C13	C	0.474840	-0.037092	0.000059
C14	C	0.525461	-0.081020	0.082327
C15	C	0.409923	-0.121854	0.000067
C16	C	0.525460	-0.081046	-0.082172
C17	C	0.574840	-0.124972	0.000057
C18	C	0.459316	-0.165759	0.082403
C19	C	0.459312	-0.165773	-0.082169
C20	C	0.509900	-0.209763	0.000118
C21	C	0.314919	-0.120056	0.000074
C22	C	0.669841	-0.126777	0.000058
C23	C	0.998324	0.041411	0.000060
C24	C	0.996550	0.141493	0.000052
C25	C	1.145946	-0.116839	0.000073
C26	C	1.239194	-0.118620	0.000073
C27	C	0.986444	-0.288241	0.000069
C28	C	0.988218	-0.388322	0.000072
N29	N	0.992364	-0.123410	0.237505
C30	C	0.912543	0.553917	0.000065
C31	C	1.065559	0.575398	0.000075
C32	C	1.067227	0.481366	0.000069
C33	C	0.991551	0.423605	0.000063
C34	C	0.914208	0.459876	0.000063
C35	C	1.144569	0.445088	0.000080
C36	C	1.146240	0.351052	0.000075
C37	C	1.070563	0.293289	0.000062
C38	C	0.993217	0.329565	0.000060
C39	C	0.917542	0.271804	0.000054
C40	C	0.840194	0.308078	0.000045
C41	C	0.838532	0.402114	0.000049
C42	C	1.072226	0.199254	0.000058
C43	C	0.919207	0.177763	0.000051
N44	N	0.992411	-0.123413	-0.237374
C45	C	0.935361	-0.184680	0.710126
C46	C	1.049453	-0.062146	0.710099
C47	C	1.049443	-0.062143	0.605080
C48	C	0.992392	-0.123411	0.552580
C49	C	0.935351	-0.184681	0.605098
C50	C	1.106489	-0.000880	0.552554
C51	C	1.106483	-0.000876	0.447529
C52	C	1.049427	-0.062140	0.395027
C53	C	0.992383	-0.123412	0.447552
C54	C	0.935332	-0.184679	0.395052
C55	C	0.878283	-0.245947	0.447574
C56	C	0.878295	-0.245945	0.552596
C57	C	1.049415	-0.062142	0.290006
C58	C	0.935322	-0.184680	0.290024
H59	H	0.857582	0.130740	0.000042
H60	H	0.525474	-0.282817	0.000168
O61	O	0.563735	-0.033617	0.174454
H62	H	0.633069	-0.035957	0.173958
O63	O	0.758575	0.245774	0.000051
H64	H	0.721568	0.258666	-0.067951
H65	H	0.554345	-0.045235	-0.151718
H66	H	0.775560	0.431657	0.000043
O67	O	1.229662	0.311935	0.000061
H68	H	1.266031	0.335135	0.068060
O69	O	1.110934	0.003933	0.233352
H70	H	1.150605	0.046537	0.287503
O71	O	0.421212	-0.213123	0.174646
H72	H	0.351800	-0.211396	0.173949
O73	O	0.829119	0.593031	0.000068
H74	H	0.840669	0.668124	0.000079
O75	O	0.816736	-0.312015	0.390947
H76	H	0.826312	-0.301711	0.309097
H77	H	1.127170	0.622432	0.000088
O78	O	1.110989	0.003929	0.766715
H79	H	1.075589	0.047774	0.814571
H80	H	0.430413	-0.201540	-0.151721
H81	H	0.459105	0.035905	0.000137
H82	H	0.831849	-0.295828	0.595366
O83	O	1.168000	0.065211	0.390881
H84	H	1.207667	0.107819	0.445033
O85	O	1.226187	0.507382	0.000100
H86	H	1.212033	0.578864	0.000093
H87	H	0.888910	-0.234562	0.752893
O88	O	1.155638	0.160124	0.000060
H89	H	1.207980	0.216087	0.000061
H90	H	1.152942	0.048997	0.595303
O91	O	0.873787	-0.250755	0.233390
H92	H	0.884567	-0.321046	0.253534
