data_functionalizedCrystal
_audit_creation_method	'MofGen! by Chris Wilmer'
_symmetry_space_group_name_H-M	'P1'
_symmetry_Int_Tables_number	1
_symmetry_cell_setting	triclinic
loop_
_symmetry_equiv_pos_as_xyz
  x,y,z
_cell_length_a	23.532407
_cell_length_b	23.532407
_cell_length_c	22.610064
_cell_angle_alpha	90.002839
_cell_angle_beta	89.999397
_cell_angle_gamma	97.151322
loop_
_atom_site_label
_atom_site_type_symbol
_atom_site_fract_x
_atom_site_fract_y
_atom_site_fract_z
O1	O	0.069127	-0.755263	-0.049117
O2	O	0.079130	-0.589400	-0.049135
O3	O	-0.008803	-0.677333	-0.049114
O4	O	0.157060	-0.667330	-0.049137
O5	O	-0.008790	-0.677318	0.049255
O6	O	0.079143	-0.589385	0.049234
O7	O	0.069140	-0.755248	0.049252
Zn8	Zn	0.074144	-0.672314	0.064862
Zn9	Zn	0.074127	-0.672334	-0.064744
O10	O	0.157073	-0.667315	0.049232
C11	C	-0.030013	-0.677071	0.000072
C12	C	-0.093230	-0.676305	0.000076
C13	C	0.078882	-0.568176	0.000048
C14	C	0.078116	-0.504959	0.000041
C15	C	0.069388	-0.776472	0.000069
C16	C	0.070154	-0.839689	0.000071
C17	C	-0.492333	-0.723539	0.000049
C18	C	-0.551733	-0.722827	0.000044
O19	O	-0.588478	-0.766613	0.000027
N20	N	-0.574359	-0.670551	0.000039
C21	C	-0.537582	-0.618983	0.000032
O22	O	-0.562281	-0.574452	0.000027
C23	C	-0.478182	-0.619695	0.000033
C24	C	-0.455560	-0.671974	0.000044
C25	C	-0.469710	-0.775814	0.000060
C26	C	-0.410313	-0.776525	0.000065
C27	C	-0.373540	-0.724961	0.000060
C28	C	-0.396164	-0.672685	0.000050
C29	C	-0.441406	-0.568127	0.000022
C30	C	-0.382004	-0.568844	0.000021
C31	C	-0.359381	-0.621123	0.000033
C32	C	-0.299995	-0.621832	0.000050
N33	N	-0.277368	-0.674109	0.000056
C34	C	-0.314141	-0.725673	0.000061
C35	C	-0.662324	-0.617491	0.000031
C36	C	-0.721722	-0.616778	0.000034
C37	C	-0.735869	-0.720623	0.000045
C38	C	-0.676470	-0.721335	0.000046
C39	C	-0.639698	-0.669767	0.000036
C40	C	-0.189405	-0.727163	0.000073
C41	C	-0.130003	-0.727869	0.000081
C42	C	-0.115860	-0.624025	0.000067
C43	C	-0.175257	-0.623318	0.000062
C44	C	-0.212029	-0.674891	0.000063
O45	O	-0.263215	-0.578070	0.000065
O46	O	-0.289433	-0.770196	0.000058
C47	C	0.178283	-0.667577	0.000045
C48	C	0.241500	-0.668343	0.000036
N49	N	0.074155	-0.672304	0.153314
C50	C	0.125350	-0.105856	0.000061
C51	C	0.124638	-0.046456	0.000065
O52	O	0.168424	-0.009711	0.000081
N53	N	0.072362	-0.023830	0.000071
C54	C	0.020794	-0.060607	0.000080
O55	O	-0.023737	-0.035908	0.000086
C56	C	0.021506	-0.120006	0.000080
C57	C	0.073785	-0.142629	0.000068
C58	C	0.177625	-0.128479	0.000050
C59	C	0.178336	-0.187876	0.000045
C60	C	0.126772	-0.224649	0.000052
C61	C	0.074497	-0.202025	0.000063
C62	C	-0.030062	-0.156783	0.000093
C63	C	-0.029345	-0.216185	0.000094
C64	C	0.022934	-0.238808	0.000082
C65	C	0.023643	-0.298194	0.000065
N66	N	0.075920	-0.320820	0.000059
C67	C	0.127484	-0.284048	0.000052
C68	C	0.019302	0.064135	0.000080
C69	C	0.018589	0.123533	0.000075
C70	C	0.122434	0.137680	0.000061
C71	C	0.123146	0.078281	0.000062
C72	C	0.071578	0.041509	0.000074
C73	C	0.128974	-0.408784	0.000042
C74	C	0.129680	-0.468186	0.000034
C75	C	0.025836	-0.482329	0.000051
C76	C	0.025129	-0.422932	0.000055
C77	C	0.076702	-0.386160	0.000052
O78	O	-0.020119	-0.334974	0.000052
O79	O	0.172007	-0.308755	0.000054
N80	N	0.074111	-0.672349	-0.153196
C81	C	0.035196	-0.711273	0.561965
C82	C	0.035192	-0.711276	0.623884
O83	O	0.002076	-0.744384	0.655911
N84	N	0.074115	-0.672334	0.654851
C85	C	0.113041	-0.633383	0.623895
O86	O	0.146147	-0.600259	0.655920
C87	C	0.113042	-0.633377	0.561976
C88	C	0.074120	-0.672326	0.531013
C89	C	-0.003724	-0.750218	0.531001
C90	C	-0.003719	-0.750215	0.469085
C91	C	0.035206	-0.711268	0.438133
C92	C	0.074125	-0.672323	0.469097
C93	C	0.151965	-0.594424	0.531021
C94	C	0.151962	-0.594422	0.469098
C95	C	0.113040	-0.633370	0.438134
C96	C	0.113054	-0.633374	0.376229
N97	N	0.074131	-0.672316	0.345262
C98	C	0.035207	-0.711263	0.376214
C99	C	0.113035	-0.633396	0.753928
C100	C	0.113037	-0.633403	0.815846
C101	C	0.035187	-0.711296	0.815831
C102	C	0.035188	-0.711291	0.753913
C103	C	0.074112	-0.672338	0.722962
C104	C	0.035220	-0.711255	0.246187
C105	C	0.035230	-0.711251	0.184266
C106	C	0.113078	-0.633357	0.184286
C107	C	0.113071	-0.633363	0.246202
C108	C	0.074137	-0.672314	0.277151
O109	O	0.146152	-0.600281	0.344163
O110	O	0.002101	-0.744376	0.344182
H111	H	-0.111587	-0.770443	0.000092
H112	H	-0.740136	-0.574207	0.000035
O113	O	-0.342343	-0.513221	0.000019
H114	H	-0.350352	-0.488192	-0.040076
O115	O	-0.084967	-0.255847	0.000110
H116	H	-0.087136	-0.283253	-0.039981
O117	O	0.155058	-0.591352	0.150892
H118	H	0.182128	-0.564271	0.182822
H119	H	0.144770	-0.601653	0.271413
O120	O	-0.086454	-0.132398	0.000114
H121	H	-0.089285	-0.105681	-0.039979
H122	H	-0.022693	0.034198	0.000084
H123	H	-0.765821	-0.762610	0.000047
H124	H	-0.658056	-0.763906	0.000054
O125	O	-0.509364	-0.831437	0.000068
H126	H	-0.554472	-0.822171	0.000064
H127	H	-0.035423	-0.781933	0.556197
O128	O	-0.385915	-0.832912	0.000071
H129	H	-0.359189	-0.835723	-0.040020
O130	O	-0.229059	-0.782788	0.000085
H131	H	-0.221045	-0.807834	-0.039999
H132	H	0.165717	0.059867	0.000055
O133	O	-0.622662	-0.561868	0.000036
H134	H	-0.648380	-0.525402	0.000039
H135	H	0.172255	-0.486602	0.000024
O136	O	-0.031256	-0.398525	0.000066
H137	H	-0.066992	-0.434078	0.000073
O138	O	-0.465798	-0.511739	0.000007
H139	H	-0.430240	-0.476009	-0.000003
H140	H	0.170970	-0.378851	0.000041
H141	H	0.183658	-0.562709	0.556223
O142	O	-0.006797	-0.753293	0.720517
H143	H	-0.033863	-0.780371	0.752448
H144	H	-0.193677	-0.580748	0.000069
H145	H	-0.085909	-0.582043	0.000065
H146	H	0.220908	-0.206289	0.000035
H147	H	0.219617	-0.098544	0.000046
O148	O	0.178054	0.177348	0.000064
H149	H	0.168771	0.222451	0.000074
H150	H	-0.023982	0.141947	0.000076
H151	H	-0.016146	-0.512280	0.000054
H152	H	0.144737	-0.601694	0.841052
H153	H	0.003535	-0.742969	0.159057
O154	O	-0.006764	-0.753273	0.279564
H155	H	-0.033817	-0.780355	0.247623
H156	H	-0.035414	-0.781929	0.443878
H157	H	0.003492	-0.743008	0.841044
O158	O	0.155028	-0.591388	0.720546
H159	H	0.182094	-0.564317	0.752486
O160	O	0.193948	-0.552411	0.435714
H161	H	0.221013	-0.525335	0.467651
