data_functionalizedCrystal
_audit_creation_method	'MofGen! by Chris Wilmer'
_symmetry_space_group_name_H-M	'P1'
_symmetry_Int_Tables_number	1
_symmetry_cell_setting	triclinic
loop_
_symmetry_equiv_pos_as_xyz
  x,y,z
_cell_length_a	10.723022
_cell_length_b	10.723024
_cell_length_c	9.798715
_cell_angle_alpha	89.998925
_cell_angle_beta	90.003391
_cell_angle_gamma	95.532452
loop_
_atom_site_label
_atom_site_type_symbol
_atom_site_fract_x
_atom_site_fract_y
_atom_site_fract_z
O1	O	-1.657188	0.175015	-0.113475
O2	O	-1.294036	0.191770	-0.113479
O3	O	-1.483989	0.001817	-0.113475
O4	O	-1.467236	0.364969	-0.113479
O5	O	-1.483975	0.001816	0.113507
O6	O	-1.294022	0.191770	0.113503
O7	O	-1.657174	0.175015	0.113507
Zn8	Zn	-1.475596	0.183392	0.149543
Zn9	Zn	-1.475614	0.183393	-0.149516
O10	O	-1.467221	0.364969	0.113503
C11	C	-1.247529	0.190551	0.000011
C12	C	-1.108975	0.186904	0.000009
C13	C	-1.482763	-0.044683	0.000013
C14	C	-1.479115	-0.183238	0.000006
C15	C	-1.703681	0.176234	0.000013
C16	C	-1.842235	0.179881	0.000006
C17	C	-1.468448	0.411468	0.000011
C18	C	-1.472095	0.550023	0.000009
C19	C	-1.060414	0.077365	0.000010
C20	C	-0.917211	0.073593	0.000008
N21	N	-1.475592	0.183391	0.353643
C22	C	-1.365808	0.625006	0.000007
C23	C	-1.369575	0.768209	0.000006
N24	N	-1.475628	0.183384	-0.353615
C25	C	-1.555348	0.103283	0.421421
C26	C	-1.555368	0.103279	0.578584
H27	H	-1.124856	-0.013624	0.000005
Br28	Br	-1.628421	0.619714	-0.000006
H29	H	-1.407320	0.251967	0.411966
H30	H	-1.278585	0.832642	0.000013
Br31	Br	-1.669193	-0.011029	0.675725
H32	H	-1.407346	0.251976	0.588107
Br33	Br	-0.911906	0.336214	0.000022
H34	H	-0.875399	-0.020195	-0.000026
H35	H	-1.044532	0.277893	0.000002
H36	H	-1.623612	0.034697	0.363100
H37	H	-1.272022	0.583184	-0.000001
H38	H	-1.570110	0.752337	0.000014
