data_functionalizedCrystal
_audit_creation_method	'MofGen! by Chris Wilmer'
_symmetry_space_group_name_H-M	'P1'
_symmetry_Int_Tables_number	1
_symmetry_cell_setting	triclinic
loop_
_symmetry_equiv_pos_as_xyz
  x,y,z
_cell_length_a	16.625548
_cell_length_b	12.827893
_cell_length_c	12.827885
_cell_angle_alpha	89.974758
_cell_angle_beta	90.023203
_cell_angle_gamma	89.996631
loop_
_atom_site_label
_atom_site_type_symbol
_atom_site_fract_x
_atom_site_fract_y
_atom_site_fract_z
Zn1	Zn	-1.232794	-0.415984	-0.590987
Zn2	Zn	-0.899460	-0.082651	-0.257654
Zn3	Zn	-0.566127	0.250682	0.075679
Zn4	Zn	-1.232739	-0.590762	-0.416262
Zn5	Zn	-0.899406	-0.257429	-0.082929
Zn6	Zn	-0.566073	0.075904	0.250405
Zn7	Zn	-1.097953	-0.416035	-0.416250
Zn8	Zn	-0.764620	-0.082702	-0.082916
Zn9	Zn	-0.431287	0.250631	0.250417
Zn10	Zn	-1.097970	-0.590684	-0.590951
Zn11	Zn	-0.764637	-0.257350	-0.257617
Zn12	Zn	-0.431304	0.075983	0.075716
O13	O	-1.165364	-0.503366	-0.503612
O14	O	-0.832031	-0.170033	-0.170279
O15	O	-0.498697	0.163300	0.163054
O16	O	-1.345619	-0.439180	-0.567830
O17	O	-1.012285	-0.105847	-0.234497
O18	O	-0.678952	0.227486	0.098836
O19	O	-1.214830	-0.567639	-0.270024
O20	O	-0.881497	-0.234305	0.063309
O21	O	-0.548163	0.099028	0.396642
O22	O	-1.115856	-0.269793	-0.439439
O23	O	-0.782522	0.063541	-0.106106
O24	O	-0.449189	0.396874	0.227228
O25	O	-1.345579	-0.567589	-0.439460
O26	O	-1.012246	-0.234256	-0.106127
O27	O	-0.678912	0.099078	0.227206
O28	O	-1.214922	-0.269755	-0.567818
O29	O	-0.881589	0.063578	-0.234485
O30	O	-0.548256	0.396912	0.098848
O31	O	-1.115803	-0.439268	-0.270015
O32	O	-0.782470	-0.105934	0.063318
O33	O	-0.449137	0.227399	0.396652
O34	O	-0.985123	-0.439191	-0.439404
O35	O	-0.651790	-0.105858	-0.106070
O36	O	-0.318457	0.227475	0.227263
O37	O	-1.115885	-0.567455	-0.737192
O38	O	-0.782551	-0.234122	-0.403858
O39	O	-0.449218	0.099212	-0.070525
O40	O	-0.985136	-0.567505	-0.567756
O41	O	-0.651802	-0.234171	-0.234422
O42	O	-0.318469	0.099162	0.098911
O43	O	-1.214939	-0.439104	-0.737219
O44	O	-0.881605	-0.105771	-0.403885
O45	O	-0.548272	0.227562	-0.070552
O46	O	-1.214846	-0.736988	-0.439425
O47	O	-0.881513	-0.403654	-0.106092
O48	O	-0.548180	-0.070321	0.227242
O49	O	-1.115832	-0.736930	-0.567768
O50	O	-0.782499	-0.403597	-0.234434
O51	O	-0.449166	-0.070263	0.098899
C52	C	-0.955873	-0.503346	-0.503575
C53	C	-0.622540	-0.170012	-0.170242
C54	C	-0.289207	0.163321	0.163092
C55	C	-0.866252	-0.503362	-0.503584
C56	C	-0.532919	-0.170029	-0.170250
C57	C	-0.199586	0.163305	0.163083
C58	C	-1.165357	-0.774876	-0.503616
C59	C	-0.832024	-0.441543	-0.170283
C60	C	-0.498691	-0.108210	0.163050
C61	C	-1.165428	-0.891029	-0.503653
C62	C	-0.832095	-0.557696	-0.170320
C63	C	-0.498761	-0.224363	0.163014
C64	C	-1.165420	-0.503265	-0.776183
C65	C	-0.832086	-0.169932	-0.442849
C66	C	-0.498753	0.163402	-0.109516
C67	C	-1.165443	-0.503222	-0.892336
C68	C	-0.832110	-0.169889	-0.559003
C69	C	-0.498777	0.163445	-0.225669
C70	C	-0.538077	-0.503360	-0.503615
C71	C	-0.204743	-0.170027	-0.170282
C72	C	0.128590	0.163307	0.163052
C73	C	-0.629385	-0.503358	-0.503603
C74	C	-0.296052	-0.170024	-0.170270
C75	C	0.037282	0.163309	0.163064
C76	C	-0.702161	-0.503362	-0.503598
C77	C	-0.368828	-0.170028	-0.170265
C78	C	-0.035495	0.163305	0.163068
C79	C	-0.793476	-0.503358	-0.503588
C80	C	-0.460142	-0.170025	-0.170255
C81	C	-0.126809	0.163309	0.163079
C82	C	-0.375673	-0.503381	-0.503641
C83	C	-0.042340	-0.170048	-0.170307
C84	C	0.290994	0.163286	0.163026
C85	C	-0.465294	-0.503370	-0.503627
C86	C	-0.131961	-0.170036	-0.170294
C87	C	0.201373	0.163297	0.163040
C88	C	-1.165393	-0.230796	-0.503631
C89	C	-0.832060	0.102537	-0.170298
C90	C	-0.498726	0.435870	0.163035
C91	C	-1.165405	-0.114643	-0.503639
C92	C	-0.832072	0.218690	-0.170306
C93	C	-0.498739	0.552024	0.163027
C94	C	-1.116395	-0.062877	-0.440124
C95	C	-0.783061	0.270456	-0.106790
C96	C	-0.449728	0.603790	0.226543
C97	C	-1.116406	0.057173	-0.440130
C98	C	-0.783073	0.390507	-0.106797
C99	C	-0.449740	0.723840	0.226536
C100	C	-1.116444	-0.566708	-0.944107
C101	C	-0.783111	-0.233375	-0.610774
C102	C	-0.449777	0.099958	-0.277441
C103	C	-1.116467	-0.566665	-1.064158
C104	C	-0.783134	-0.233332	-0.730825
C105	C	-0.449801	0.100002	-0.397491
C106	C	-1.165355	-0.503392	-0.232103
C107	C	-0.832022	-0.170058	0.101231
C108	C	-0.498689	0.163275	0.434564
C109	C	-1.165488	-0.503141	-0.115950
C110	C	-0.832154	-0.169807	0.217383
C111	C	-0.498821	0.163526	0.550717
H112	H	-1.074424	-0.107435	-0.385744
H113	H	-0.741090	0.225898	-0.052411
H114	H	-0.407757	0.559232	0.280923
H115	H	-1.207371	-0.070086	-0.558027
H116	H	-0.874038	0.263247	-0.224694
H117	H	-0.540704	0.596580	0.108640
N118	N	-1.060825	0.116140	-0.368099
N119	N	-0.727492	0.449473	-0.034766
N120	N	-0.394158	0.782806	0.298568
H121	H	-1.003202	0.097213	-0.384299
H122	H	-0.669869	0.430546	-0.050965
H123	H	-0.336536	0.763879	0.282368
H124	H	-1.073386	0.097147	-0.293446
H125	H	-0.740053	0.430480	0.039888
H126	H	-0.406720	0.763813	0.373221
N127	N	-1.221018	0.050035	-0.575699
N128	N	-0.887684	0.383368	-0.242366
N129	N	-0.554351	0.716702	0.090968
H130	H	-1.258343	0.004729	-0.533202
H131	H	-0.925010	0.338062	-0.199869
H132	H	-0.591676	0.671395	0.133465
H133	H	-1.188169	0.004832	-0.624067
H134	H	-0.854835	0.338166	-0.290734
H135	H	-0.521502	0.671499	0.042599
H136	H	-1.074480	-0.621097	-0.899554
H137	H	-0.741146	-0.287764	-0.566221
H138	H	-0.407813	0.045570	-0.232887
N139	N	-1.060902	-0.638671	-1.123124
N140	N	-0.727568	-0.305338	-0.789791
N141	N	-0.394235	0.027995	-0.456458
H142	H	-1.028186	-0.681071	-1.072061
H143	H	-0.694853	-0.347737	-0.738728
H144	H	-0.361519	-0.014404	-0.405395
H145	H	-1.023631	-0.596074	-1.168407
H146	H	-0.690298	-0.262741	-0.835074
H147	H	-0.356965	0.070593	-0.501740
N148	N	-1.221066	-0.431145	-1.056990
N149	N	-0.887732	-0.097811	-0.723657
N150	N	-0.554399	0.235522	-0.390323
H151	H	-1.253783	-0.388747	-1.108053
H152	H	-0.920450	-0.055414	-0.774720
H153	H	-0.587116	0.277919	-0.441386
H154	H	-1.188211	-0.382836	-1.011701
H155	H	-0.854878	-0.049503	-0.678367
H156	H	-0.521544	0.283831	-0.345034
N157	N	-1.221027	-0.431168	-0.951342
N158	N	-0.887694	-0.097834	-0.618009
N159	N	-0.554361	0.235499	-0.284675
H160	H	-1.253722	-0.388803	-0.900299
H161	H	-0.920389	-0.055470	-0.566966
H162	H	-0.587055	0.277864	-0.233633
H163	H	-1.258317	-0.473727	-0.996636
H164	H	-0.924984	-0.140393	-0.663302
H165	H	-0.591650	0.192940	-0.329969
