data_functionalizedCrystal
_audit_creation_method	'MofGen! by Chris Wilmer'
_symmetry_space_group_name_H-M	'P1'
_symmetry_Int_Tables_number	1
_symmetry_cell_setting	triclinic
loop_
_symmetry_equiv_pos_as_xyz
  x,y,z
_cell_length_a	10.686220
_cell_length_b	19.121063
_cell_length_c	10.686551
_cell_angle_alpha	88.212799
_cell_angle_beta	90.308082
_cell_angle_gamma	96.652836
loop_
_atom_site_label
_atom_site_type_symbol
_atom_site_fract_x
_atom_site_fract_y
_atom_site_fract_z
Zn1	Zn	1.960178	-0.171149	-0.576393
Zn2	Zn	1.934959	-0.298212	-0.377034
Zn3	Zn	1.733026	-0.189107	-0.384180
Zn4	Zn	1.741490	-0.296789	-0.602695
O5	O	1.842413	-0.238814	-0.485075
O6	O	2.132864	-0.181084	-0.535949
O7	O	1.894076	-0.291850	-0.203100
O8	O	1.770171	-0.088483	-0.401661
O9	O	2.114336	-0.274436	-0.389481
O10	O	1.937058	-0.075289	-0.542879
O11	O	1.745717	-0.211691	-0.208351
O12	O	1.558117	-0.210311	-0.427165
O13	O	1.784596	-0.272012	-0.774087
O14	O	1.564336	-0.289425	-0.587707
O15	O	1.945265	-0.179704	-0.754764
O16	O	1.902282	-0.396264	-0.414984
O17	O	1.760141	-0.395219	-0.580777
C18	C	1.515583	-0.251663	-0.511066
C19	C	1.375765	-0.257175	-0.522216
C20	C	1.829430	-0.421212	-0.499984
C21	C	1.823994	-0.499236	-0.506394
C22	C	1.895514	-0.536407	-0.423148
C23	C	1.890409	-0.609719	-0.429183
C24	C	1.813778	-0.645858	-0.518461
C25	C	1.742256	-0.608681	-0.601716
C26	C	1.747368	-0.535371	-0.595685
C27	C	1.794644	-0.867182	-0.540991
C28	C	1.789534	-0.940498	-0.547013
C29	C	1.937690	-0.941530	-0.374481
C30	C	1.942789	-0.868219	-0.368454
C31	C	1.871272	-0.831048	-0.451713
C32	C	1.808556	-0.720794	-0.524630
C33	C	1.876502	-0.756113	-0.445549
C34	C	2.170519	-0.225915	-0.458984
C35	C	2.310339	-0.220419	-0.447865
C36	C	1.868688	-0.223696	-0.811038
C37	C	1.879884	-0.217254	-0.949944
C38	C	1.855484	-0.055701	-0.470134
C39	C	1.861053	0.022331	-0.463766
C40	C	1.816317	-0.253820	-0.160371
C41	C	1.805378	-0.260055	-0.021430
H42	H	1.361289	-0.184734	-0.375679
H43	H	2.005188	-0.838796	-0.295757
O44	O	1.966380	-0.167723	-1.003640
C45	C	2.088122	-0.179582	-0.963086
H46	H	2.087608	-0.237065	-0.931190
H47	H	2.117658	-0.144119	-0.881722
C48	C	2.182536	-0.092191	-1.110957
C49	C	2.181906	-0.162794	-1.071792
H50	H	2.240388	-0.081832	-1.178009
H51	H	2.100516	-0.084199	-1.138276
H52	H	2.207145	-0.062646	-1.043144
H53	H	2.157282	-0.192337	-1.139599
H54	H	2.263925	-0.170790	-1.044486
H55	H	1.733028	-0.301629	-0.976364
H56	H	1.324808	-0.292868	-0.594399
H57	H	1.938901	-0.726686	-0.372863
O58	O	1.970059	-0.501411	-0.336379
C59	C	2.032064	-0.549946	-0.264179
H60	H	2.036863	-0.599644	-0.319328
H61	H	1.977873	-0.564002	-0.173533
C62	C	2.160621	-0.455799	-0.165528
C63	C	2.166525	-0.516837	-0.233268
H64	H	2.243561	-0.435376	-0.146455
H65	H	2.118844	-0.423100	-0.214167
H66	H	2.115457	-0.467521	-0.089997
H67	H	2.211674	-0.505113	-0.308804
H68	H	2.208312	-0.549534	-0.184641
H69	H	1.948647	-0.639981	-0.361394
H70	H	1.995916	-0.971802	-0.306698
H71	H	1.727149	-0.969919	-0.619734
O72	O	1.725032	-0.831194	-0.621907
C73	C	1.656316	-0.878813	-0.702005
H74	H	1.644250	-0.933630	-0.655453
H75	H	1.709401	-0.880350	-0.793945
C76	C	1.540662	-0.787380	-0.785360
C77	C	1.525833	-0.854706	-0.728181
H78	H	1.460176	-0.772509	-0.801513
H79	H	1.586960	-0.755297	-0.731401
H80	H	1.584904	-0.788670	-0.861971
H81	H	1.481606	-0.853413	-0.651565
H82	H	1.479524	-0.886788	-0.782128
O83	O	1.667795	-0.643672	-0.688555
C84	C	1.605745	-0.595142	-0.760719
H85	H	1.661265	-0.540630	-0.756688
H86	H	1.507088	-0.593284	-0.721838
C87	C	1.528045	-0.685232	-0.902463
C88	C	1.596241	-0.618280	-0.897522
H89	H	1.522176	-0.699506	-0.986849
H90	H	1.569845	-0.717929	-0.853843
H91	H	1.445838	-0.683675	-0.870056
H92	H	1.678451	-0.619840	-0.929914
H93	H	1.554454	-0.585584	-0.946151
O94	O	1.677822	-0.499195	-0.676376
C95	C	1.593820	-0.463354	-0.608142
H96	H	1.631393	-0.455013	-0.509032
H97	H	1.497523	-0.495961	-0.604079
C98	C	1.535242	-0.401665	-0.794708
C99	C	1.581395	-0.391416	-0.672982
H100	H	1.527572	-0.357292	-0.834705
H101	H	1.591831	-0.425814	-0.840680
H102	H	1.454999	-0.428840	-0.791305
H103	H	1.661643	-0.364250	-0.676387
H104	H	1.524819	-0.367261	-0.627012
H105	H	1.746160	-0.750227	-0.597317
