data_functionalizedCrystal
_audit_creation_method	'MofGen! by Chris Wilmer'
_symmetry_space_group_name_H-M	'P1'
_symmetry_Int_Tables_number	1
_symmetry_cell_setting	triclinic
loop_
_symmetry_equiv_pos_as_xyz
  x,y,z
_cell_length_a	13.033286
_cell_length_b	16.120484
_cell_length_c	13.032268
_cell_angle_alpha	99.642751
_cell_angle_beta	105.163409
_cell_angle_gamma	85.378105
loop_
_atom_site_label
_atom_site_type_symbol
_atom_site_fract_x
_atom_site_fract_y
_atom_site_fract_z
Zn1	Zn	1.508909	-0.528411	-0.432341
Zn2	Zn	1.522336	-0.652121	-0.263744
Zn3	Zn	1.356148	-0.497052	-0.275069
Zn4	Zn	1.322253	-0.652088	-0.463895
O5	O	1.427412	-0.582418	-0.358762
O6	O	1.658357	-0.557959	-0.392031
O7	O	1.520095	-0.618441	-0.115663
O8	O	1.384978	-0.384556	-0.287466
O9	O	1.668222	-0.648848	-0.268163
O10	O	1.497211	-0.407595	-0.403013
O11	O	1.397997	-0.504512	-0.123984
O12	O	1.203985	-0.504481	-0.318063
O13	O	1.327209	-0.648793	-0.609292
O14	O	1.179083	-0.618385	-0.456792
O15	O	1.464345	-0.557928	-0.586109
O16	O	1.487229	-0.768773	-0.298760
O17	O	1.340229	-0.768749	-0.445810
C18	C	1.153245	-0.558027	-0.392081
C19	C	1.035951	-0.547615	-0.406362
C20	C	0.988558	-0.587855	-0.351336
C21	C	0.867328	-0.577094	-0.366094
C22	C	1.411534	-0.799013	-0.374500
C23	C	1.404833	-0.891685	-0.381257
C24	C	1.392602	-1.061360	-0.393614
C25	C	1.462408	-1.102654	-0.323905
C26	C	1.455603	-1.197067	-0.330781
C27	C	1.399406	-0.966939	-0.386740
C28	C	1.702648	-0.606905	-0.325314
C29	C	1.819938	-0.617340	-0.311060
C30	C	1.390499	-0.606855	-0.637570
C31	C	1.374768	-0.617268	-0.756382
C32	C	1.443377	-0.364982	-0.342983
C33	C	1.450181	-0.272324	-0.336259
C34	C	1.435607	-0.576952	-0.797881
C35	C	1.419351	-0.587714	-0.920679
C36	C	1.464246	-0.558022	-0.081027
C37	C	1.480198	-0.547393	0.037826
H38	H	0.986776	-0.505200	-0.464403
C39	C	1.550044	-1.054624	-0.236298
N40	N	1.616045	-1.018443	-0.170311
C41	C	1.304957	-1.109387	-0.481198
N42	N	1.238938	-1.145570	-0.547162
C43	C	1.332715	-0.645107	-0.995489
N44	N	1.267462	-0.688335	-1.051837
C45	C	1.054987	-0.645158	-0.272924
N46	N	1.105020	-0.688317	-0.213859
C47	C	0.800905	-0.519780	-0.444500
N48	N	0.750874	-0.476609	-0.503550
H49	H	0.869106	-0.659769	-0.253027
H50	H	1.499725	-0.534466	-0.742500
H51	H	1.544319	-0.504901	-0.906798
C52	C	1.288137	-0.674658	-0.831195
N53	N	1.222884	-0.717886	-0.887544
