data_functionalizedCrystal
_audit_creation_method	'MofGen! by Chris Wilmer'
_symmetry_space_group_name_H-M	'P1'
_symmetry_Int_Tables_number	1
_symmetry_cell_setting	triclinic
loop_
_symmetry_equiv_pos_as_xyz
  x,y,z
_cell_length_a	21.295420
_cell_length_b	21.295412
_cell_length_c	21.295417
_cell_angle_alpha	90.030668
_cell_angle_beta	89.973711
_cell_angle_gamma	89.976453
loop_
_atom_site_label
_atom_site_type_symbol
_atom_site_fract_x
_atom_site_fract_y
_atom_site_fract_z
Zn1	Zn	0.962349	-0.355912	0.250696
Zn2	Zn	1.462349	0.144088	0.750696
Zn3	Zn	0.962253	-0.250637	0.355964
Zn4	Zn	1.462253	0.249363	0.855964
Zn5	Zn	0.857074	-0.250657	0.250705
Zn6	Zn	1.357074	0.249343	0.750705
Zn7	Zn	0.857041	-0.355869	0.355923
Zn8	Zn	1.357041	0.144131	0.855923
O9	O	0.909679	-0.303269	0.303322
O10	O	1.409679	0.196731	0.803322
O11	O	1.050426	-0.341957	0.264673
O12	O	1.550426	0.158043	0.764673
O13	O	0.948274	-0.162551	0.342022
O14	O	1.448274	0.337449	0.842022
O15	O	0.871093	-0.264645	0.162614
O16	O	1.371093	0.235355	0.662614
O17	O	1.050355	-0.264612	0.342013
O18	O	1.550355	0.235388	0.842013
O19	O	0.948438	-0.341976	0.162608
O20	O	1.448438	0.158024	0.662608
O21	O	0.871000	-0.162565	0.264689
O22	O	1.371000	0.337435	0.764689
O23	O	0.768980	-0.264604	0.264649
O24	O	1.268980	0.235396	0.764649
O25	O	0.871037	-0.443964	0.341944
O26	O	1.371037	0.056036	0.841944
O27	O	0.768956	-0.341903	0.341953
O28	O	1.268956	0.158097	0.841953
O29	O	0.948406	-0.443996	0.264633
O30	O	1.448406	0.056004	0.764633
O31	O	0.948243	-0.264570	0.444048
O32	O	1.448243	0.235430	0.944048
O33	O	0.870944	-0.341884	0.444018
O34	O	1.370944	0.158116	0.944018
C35	C	0.746128	-0.303251	0.303298
C36	C	1.246128	0.196749	0.803298
C37	C	0.676160	-0.303258	0.303303
C38	C	1.176160	0.196742	0.803303
C39	C	0.176738	-0.343617	0.263146
C40	C	0.676738	0.156383	0.763146
C41	C	0.242480	-0.343617	0.263141
C42	C	0.742480	0.156383	0.763141
C43	C	0.275320	-0.303283	0.303341
C44	C	0.775320	0.196717	0.803341
C45	C	0.242412	-0.262958	0.343560
C46	C	0.742412	0.237042	0.843560
C47	C	0.176671	-0.262964	0.343568
C48	C	0.676671	0.237036	0.843568
N49	N	0.378511	-0.248164	0.308085
N50	N	0.878511	0.251836	0.808085
N51	N	0.440963	-0.248160	0.308074
N52	N	0.940963	0.251840	0.808074
C53	C	0.473395	-0.303265	0.303320
C54	C	0.973395	0.196735	0.803320
N55	N	0.441017	-0.358375	0.298566
N56	N	0.941017	0.141625	0.798566
N57	N	0.378559	-0.358377	0.298574
N58	N	0.878559	0.141623	0.798574
C59	C	0.346606	-0.303273	0.303337
C60	C	0.846606	0.196727	0.803337
C61	C	0.577580	-0.343591	0.263102
C62	C	1.077580	0.156409	0.763102
C63	C	0.643324	-0.343592	0.263102
C64	C	1.143324	0.156408	0.763102
C65	C	0.643255	-0.262927	0.343517
C66	C	1.143255	0.237073	0.843517
C67	C	0.577513	-0.262932	0.343521
C68	C	1.077513	0.237068	0.843521
C69	C	0.544679	-0.303263	0.303310
C70	C	1.044679	0.196737	0.803310
C71	C	0.909729	-0.467459	0.303283
C72	C	1.409729	0.032541	0.803283
C73	C	0.909750	-0.537427	0.303266
C74	C	1.409750	-0.037427	0.803266
C75	C	0.869523	-0.570291	0.262994
C76	C	1.369523	-0.070291	0.762994
C77	C	0.869521	-0.636034	0.262982
C78	C	1.369521	-0.136034	0.762982
C79	C	0.909756	-0.668910	0.303236
C80	C	1.409756	-0.168910	0.803236
C81	C	0.949985	-0.636038	0.343516
C82	C	1.449985	-0.136038	0.843516
C83	C	0.949982	-0.570296	0.343531
C84	C	1.449982	-0.070296	0.843531
N85	N	0.964861	-0.772148	0.308048
N86	N	1.464861	-0.272148	0.808048
N87	N	0.964862	-0.834600	0.308030
N88	N	1.464862	-0.334600	0.808030
C89	C	0.909768	-0.866985	0.303194
C90	C	1.409768	-0.366985	0.803194
N91	N	0.854671	-0.834559	0.298365
N92	N	1.354671	-0.334559	0.798365
N93	N	0.854670	-0.772102	0.298380
N94	N	1.354670	-0.272102	0.798380
C95	C	0.909764	-0.740195	0.303225
C96	C	1.409764	-0.240195	0.803225
C97	C	0.869536	-0.971134	0.262907
C98	C	1.369536	-0.471134	0.762907
C99	C	0.869533	-1.036878	0.262900
C100	C	1.369533	-0.536878	0.762900
C101	C	0.950003	-1.036881	0.343430
C102	C	1.450003	-0.536881	0.843430
C103	C	0.950000	-0.971138	0.343441
C104	C	1.450000	-0.471138	0.843441
C105	C	0.909768	-0.938269	0.303176
C106	C	1.409768	-0.438269	0.803176
C107	C	1.073870	-0.303287	0.303347
C108	C	1.573870	0.196713	0.803347
C109	C	1.143838	-0.303295	0.303357
C110	C	1.643838	0.196705	0.803357
C111	C	0.909597	-0.303234	0.466874
C112	C	1.409597	0.196766	0.966874
C113	C	0.909619	-0.303240	0.536842
C114	C	1.409619	0.196760	1.036842
C115	C	0.909667	-0.139717	0.303316
C116	C	1.409667	0.360283	0.803316
C117	C	0.909768	-0.069749	0.303155
C118	C	1.409768	0.430251	0.803155
C119	C	0.909779	-0.303318	0.139132
C120	C	1.409779	0.196682	0.639132
C121	C	0.909822	-0.303338	0.069164
C122	C	1.409822	0.196662	0.569164
C123	C	0.949904	-0.263024	0.569703
C124	C	1.449904	0.236976	1.069703
C125	C	0.949934	-0.263038	0.635446
C126	C	1.449934	0.236962	1.135446
C127	C	0.909667	-0.303262	0.668324
C128	C	1.409667	0.196738	1.168324
C129	C	0.869379	-0.343485	0.635455
C130	C	1.369379	0.156515	1.135455
C131	C	0.869355	-0.343474	0.569714
C132	C	1.369355	0.156526	1.069714
N133	N	0.854600	-0.308055	0.771586
N134	N	1.354600	0.191945	1.271586
N135	N	0.854624	-0.308061	0.834038
N136	N	1.354624	0.191939	1.334038
C137	C	0.909737	-0.303298	0.866399
C138	C	1.409737	0.196702	1.366399
N139	N	0.964826	-0.298515	0.833950
N140	N	1.464826	0.201485	1.333950
N141	N	0.964801	-0.298505	0.771493
N142	N	1.464801	0.201495	1.271493
C143	C	0.909689	-0.303278	0.739610
C144	C	1.409689	0.196722	1.239610
C145	C	0.950058	-0.263095	0.970546
C146	C	1.450058	0.236905	1.470546
C147	C	0.950088	-0.263114	1.036290
C148	C	1.450088	0.236886	1.536290
C149	C	0.869528	-0.343557	1.036298
C150	C	1.369528	0.156443	1.536298
C151	C	0.869503	-0.343542	0.970555
C152	C	1.369503	0.156458	1.470555
C153	C	0.909767	-0.303308	0.937683
C154	C	1.409767	0.196692	1.437683
H155	H	0.550725	-0.230094	0.376263
H156	H	1.050725	0.269906	0.876263
O157	O	0.274351	-0.382808	0.224019
O158	O	0.774351	0.117192	0.724019
C159	C	0.267486	-0.462837	0.144282
C160	C	0.767486	0.037163	0.644282
C161	C	0.231318	-0.418476	0.188543
C162	C	0.731318	0.081524	0.688543
H163	H	0.232710	-0.491695	0.115597
H164	H	0.732710	0.008305	0.615597
H165	H	0.298244	-0.434021	0.111287
H166	H	0.798244	0.065979	0.611287
H167	H	0.298289	-0.495671	0.173230
H168	H	0.798289	0.004329	0.673230
H169	H	0.200481	-0.385633	0.159645
H170	H	0.700481	0.114367	0.659645
H171	H	0.200599	-0.447332	0.221540
H172	H	0.700599	0.052668	0.721540
O173	O	0.830528	-0.538334	0.223822
O174	O	1.330528	-0.038334	0.723822
C175	C	0.822101	-0.464101	0.138878
C176	C	1.322101	0.035899	0.638878
C177	C	0.866336	-0.500267	0.183188
C178	C	1.366336	-0.000267	0.683188
H179	H	0.851033	-0.433305	0.106023
H180	H	1.351033	0.066695	0.606023
H181	H	0.793358	-0.498857	0.110046
H182	H	1.293358	0.001143	0.610046
H183	H	0.789154	-0.433332	0.167796
H184	H	1.289154	0.066668	0.667796
H185	H	0.899321	-0.531037	0.154318
H186	H	1.399321	-0.031037	0.654318
H187	H	0.895035	-0.465477	0.212022
H188	H	1.395035	0.034523	0.712022
H189	H	0.836549	-0.376224	0.542957
H190	H	1.336549	0.123776	1.042957
H191	H	0.982745	-0.662809	0.376291
H192	H	1.482745	-0.162809	0.876291
H193	H	0.836696	-0.376287	0.943798
H194	H	1.336696	0.123713	1.443798
H195	H	0.550846	-0.376430	0.230360
H196	H	1.050846	0.123570	0.730360
H197	H	0.269155	-0.230120	0.376293
H198	H	0.769155	0.269880	0.876293
H199	H	0.670110	-0.376431	0.230359
H200	H	1.170110	0.123569	0.730359
O201	O	0.675245	-0.223769	0.382511
O202	O	1.175245	0.276231	0.882511
C203	C	0.776493	-0.188043	0.418171
C204	C	1.276493	0.311957	0.918171
C205	C	0.740339	-0.232409	0.373965
C206	C	1.240339	0.267591	0.873965
H207	H	0.829127	-0.195023	0.411287
H208	H	1.329127	0.304977	0.911287
H209	H	0.763595	-0.137291	0.407055
H210	H	1.263595	0.362709	0.907055
H211	H	0.763514	-0.199002	0.468938
H212	H	1.263514	0.300998	0.968938
H213	H	0.753298	-0.221507	0.323184
H214	H	1.253298	0.278493	0.823184
H215	H	0.753240	-0.283149	0.385135
H216	H	1.253240	0.216851	0.885135
O217	O	0.988992	-0.939183	0.382624
O218	O	1.488992	-0.439183	0.882624
C219	C	0.997410	-0.864907	0.467605
C220	C	1.497410	-0.364907	0.967605
C221	C	0.953179	-0.901067	0.423276
C222	C	1.453179	-0.401067	0.923276
H223	H	0.968473	-0.834072	0.500475
H224	H	1.468473	-0.334072	1.000475
H225	H	1.026156	-0.899667	0.496420
H226	H	1.526156	-0.399667	0.996420
H227	H	1.030353	-0.834178	0.438702
H228	H	1.530353	-0.334178	0.938702
H229	H	0.920197	-0.931797	0.452130
H230	H	1.420197	-0.431797	0.952130
H231	H	0.924477	-0.866273	0.394459
H232	H	1.424477	-0.366273	0.894459
O233	O	0.989081	-0.223928	0.537870
O234	O	1.489081	0.276072	1.037870
C235	C	1.068963	-0.144118	0.544803
C236	C	1.568963	0.355882	1.044803
C237	C	1.024636	-0.188370	0.580934
C238	C	1.524636	0.311630	1.080934
H239	H	1.097711	-0.115348	0.579604
H240	H	1.597711	0.384652	1.079604
H241	H	1.101895	-0.173016	0.513998
H242	H	1.601895	0.326984	1.013998
H243	H	1.040061	-0.111198	0.514051
H244	H	1.540061	0.388802	1.014051
H245	H	1.053487	-0.221299	0.611720
H246	H	1.553487	0.278701	1.111720
H247	H	0.991702	-0.159432	0.611700
H248	H	1.491702	0.340568	1.111700
O249	O	0.144612	-0.223850	0.382609
O250	O	0.644612	0.276150	0.882609
C251	C	0.043303	-0.188083	0.418230
C252	C	0.543303	0.311917	0.918230
C253	C	0.079533	-0.232422	0.373995
C254	C	0.579533	0.267578	0.873995
H255	H	-0.009320	-0.194989	0.411271
H256	H	0.490680	0.305011	0.911271
H257	H	0.056167	-0.199048	0.469015
H258	H	0.556167	0.300952	0.969015
H259	H	0.056246	-0.137350	0.407119
H260	H	0.556246	0.362650	0.907119
H261	H	0.066609	-0.283170	0.385049
H262	H	0.566609	0.216830	0.885049
H263	H	0.066665	-0.221404	0.323223
H264	H	0.566665	0.278596	0.823223
H265	H	0.982897	-0.230367	1.063044
H266	H	1.482897	0.269633	1.563044
O267	O	0.830426	-0.667870	0.223799
O268	O	1.330426	-0.167870	0.723799
C269	C	0.750595	-0.660935	0.143943
C270	C	1.250595	-0.160935	0.643943
C271	C	0.794847	-0.624805	0.188276
C272	C	1.294847	-0.124805	0.688276
H273	H	0.721808	-0.626132	0.115221
H274	H	1.221808	-0.126132	0.615221
H275	H	0.779493	-0.691715	0.110987
H276	H	1.279493	-0.191715	0.610987
H277	H	0.717690	-0.691712	0.172839
H278	H	1.217690	-0.191712	0.672839
H279	H	0.827761	-0.593994	0.159431
H280	H	1.327761	-0.093994	0.659431
H281	H	0.765909	-0.594065	0.221234
H282	H	1.265909	-0.094065	0.721234
H283	H	0.982742	-0.543539	0.376325
H284	H	1.482742	-0.043539	0.876325
H285	H	0.982741	-0.230290	0.662207
H286	H	1.482741	0.269710	1.162207
O287	O	0.830350	-0.382588	0.667460
O288	O	1.330350	0.117412	1.167460
C289	C	0.821868	-0.467605	0.741604
C290	C	1.321868	0.032395	1.241604
C291	C	0.866137	-0.423346	0.705410
C292	C	1.366137	0.076654	1.205410
H293	H	0.850784	-0.500578	0.772286
H294	H	1.350784	-0.000578	1.272286
H295	H	0.788988	-0.438714	0.772471
H296	H	1.288988	0.061286	1.272471
H297	H	0.793055	-0.496319	0.706810
H298	H	1.293055	0.003681	1.206810
H299	H	0.894990	-0.394623	0.740160
H300	H	1.394990	0.105377	1.240160
H301	H	0.898976	-0.452274	0.674534
H302	H	1.398976	0.047726	1.174534
H303	H	0.836776	-0.944371	0.230122
H304	H	1.336776	-0.444371	0.730122
H305	H	0.150009	-0.376460	0.230405
H306	H	0.650009	0.123540	0.730405
O307	O	0.830434	-1.068707	0.223719
O308	O	1.330434	-0.568707	0.723719
C309	C	0.750602	-1.061764	0.143865
C310	C	1.250602	-0.561764	0.643865
C311	C	0.794859	-1.025639	0.188196
C312	C	1.294859	-0.525639	0.688196
H313	H	0.721819	-1.026959	0.115142
H314	H	1.221819	-0.526959	0.615142
H315	H	0.779496	-1.092548	0.110909
H316	H	1.279496	-0.592548	0.610909
H317	H	0.717694	-1.092537	0.172762
H318	H	1.217694	-0.592537	0.672762
H319	H	0.827776	-0.994833	0.159349
H320	H	1.327776	-0.494833	0.659349
H321	H	0.765926	-0.994894	0.221153
H322	H	1.265926	-0.494894	0.721153
H323	H	0.982764	-1.063647	0.376205
H324	H	1.482764	-0.563647	0.876205
H325	H	0.982845	-0.230336	0.943780
H326	H	1.482845	0.269664	1.443780
H327	H	0.836745	-0.376311	1.063067
H328	H	1.336745	0.123689	1.563067
