data_functionalizedCrystal
_audit_creation_method	'MofGen! by Chris Wilmer'
_symmetry_space_group_name_H-M	'P1'
_symmetry_Int_Tables_number	1
_symmetry_cell_setting	triclinic
loop_
_symmetry_equiv_pos_as_xyz
  x,y,z
_cell_length_a	17.038272
_cell_length_b	14.044220
_cell_length_c	12.503572
_cell_angle_alpha	86.156832
_cell_angle_beta	86.232200
_cell_angle_gamma	87.849783
loop_
_atom_site_label
_atom_site_type_symbol
_atom_site_fract_x
_atom_site_fract_y
_atom_site_fract_z
O1	O	1.055991	-0.201858	-0.089189
O2	O	1.555991	0.298142	0.410811
O3	O	0.828132	-0.198570	-0.089221
O4	O	1.328132	0.301430	0.410779
O5	O	0.938641	-0.061954	-0.089195
O6	O	1.438641	0.438046	0.410805
O7	O	0.945483	-0.338474	-0.089215
O8	O	1.445483	0.161526	0.410785
O9	O	0.930332	-0.072247	0.089445
O10	O	1.430332	0.427753	0.589445
O11	O	0.819823	-0.208862	0.089419
O12	O	1.319823	0.291138	0.589419
O13	O	1.047682	-0.212151	0.089451
O14	O	1.547682	0.287849	0.589451
Cu15	Cu	0.932993	-0.211446	0.105746
Cu16	Cu	1.432993	0.288554	0.605746
Cu17	Cu	0.942821	-0.199274	-0.105516
Cu18	Cu	1.442821	0.300726	0.394484
O19	O	0.937173	-0.348766	0.089425
O20	O	1.437173	0.151234	0.589425
C21	C	0.794640	-0.200726	0.000095
C22	C	1.294640	0.299274	0.500095
C23	C	0.707224	-0.191806	0.000084
C24	C	1.207224	0.308194	0.500084
C25	C	0.931492	-0.031545	0.000125
C26	C	1.431492	0.468455	0.500125
C27	C	0.922561	0.074401	0.000125
C28	C	1.422561	0.574401	0.500125
N29	N	0.926087	-0.220008	0.254337
N30	N	1.426087	0.279992	0.754337
C31	C	0.662839	-0.273694	0.000078
C32	C	1.162839	0.226306	0.500078
C33	C	0.580701	-0.265309	0.000094
C34	C	1.080701	0.234691	0.500094
C35	C	0.542950	-0.175035	0.000107
C36	C	1.042950	0.324965	0.500107
C37	C	0.587341	-0.093141	0.000115
C38	C	1.087341	0.406859	0.500115
C39	C	0.669477	-0.101527	0.000107
C40	C	1.169477	0.398473	0.500107
C41	C	0.295118	-0.145406	0.000138
C42	C	0.795118	0.354594	0.500138
C43	C	0.212976	-0.137026	0.000142
C44	C	0.712976	0.362974	0.500142
C45	C	0.206341	-0.309195	0.000123
C46	C	0.706341	0.190805	0.500123
C47	C	0.288479	-0.317574	0.000109
C48	C	0.788479	0.182426	0.500109
C49	C	0.332863	-0.235680	0.000123
C50	C	0.832863	0.264320	0.500123
C51	C	0.458992	-0.166461	0.000119
C52	C	0.958992	0.333539	0.500119
C53	C	0.416819	-0.244255	0.000118
C54	C	0.916819	0.255745	0.500118
C55	C	1.081174	-0.209994	0.000132
C56	C	1.581174	0.290006	0.500132
C57	C	1.168591	-0.218914	0.000137
C58	C	1.668591	0.281086	0.500137
C59	C	0.944322	-0.379176	0.000102
C60	C	1.444322	0.120824	0.500102
C61	C	0.953254	-0.485122	0.000095
C62	C	1.453254	0.014878	0.500095
C63	C	0.906233	0.268380	0.000108
C64	C	1.406233	0.768380	0.500108
C65	C	0.969578	0.320905	0.000113
C66	C	1.469578	0.820905	0.500113
C67	C	0.960493	0.428842	0.000103
C68	C	1.460493	0.928842	0.500103
C69	C	0.915317	0.160434	0.000117
C70	C	1.415317	0.660434	0.500117
N71	N	0.949733	-0.190706	-0.254107
N72	N	1.449733	0.309294	0.245893
C73	C	0.915929	-0.232609	0.473450
C74	C	1.415929	0.267391	0.973450
C75	C	0.959889	-0.178107	0.526787
C76	C	1.459889	0.321893	1.026787
C77	C	0.954236	-0.185119	0.648709
C78	C	1.454236	0.314881	1.148709
C79	C	0.921580	-0.225599	0.351517
C80	C	1.421580	0.274401	0.851517
H81	H	0.544566	-0.331991	0.000088
H82	H	1.044566	0.168009	0.500088
N83	N	0.160991	-0.392833	0.000130
N84	N	0.660991	0.107167	0.500130
N85	N	0.110924	-0.411696	0.075437
N86	N	0.610924	0.088304	0.575437
H87	H	0.078894	-0.470769	0.075447
H88	H	0.578894	0.029231	0.575447
H89	H	0.845184	0.304473	0.000096
H90	H	1.345184	0.804473	0.500096
N91	N	0.863395	-0.297741	0.531041
N92	N	1.363395	0.202259	1.031041
N93	N	0.858822	-0.303415	0.631437
N94	N	1.358822	0.196585	1.131437
H95	H	0.821722	-0.349415	0.672124
H96	H	1.321722	0.150585	1.172124
N97	N	1.012434	-0.112958	0.469231
N98	N	1.512434	0.387042	0.969231
N99	N	0.986168	-0.048243	0.406455
N100	N	1.486168	0.451757	0.906455
H101	H	1.023281	-0.002234	0.365809
H102	H	1.523281	0.497766	0.865809
N103	N	0.701384	-0.365916	0.000055
N104	N	1.201384	0.134084	0.500055
N105	N	0.661741	-0.439022	0.000053
N106	N	1.161741	0.060978	0.500053
H107	H	0.688961	-0.504157	0.000039
H108	H	1.188961	-0.004157	0.500039
H109	H	0.319211	-0.391084	0.000086
H110	H	0.819211	0.108916	0.500086
N111	N	1.046165	0.275617	0.000151
N112	N	1.546165	0.775617	0.500151
N113	N	1.063070	0.216953	0.075468
N114	N	1.563070	0.716953	0.575468
H115	H	1.117157	0.184963	0.075501
H116	H	1.617157	0.684963	0.575501
N117	N	0.174425	-0.044800	0.000153
N118	N	0.674425	0.455200	0.500153
N119	N	0.214061	0.028312	0.000165
N120	N	0.714061	0.528312	0.500165
H121	H	0.186836	0.093444	0.000171
H122	H	0.686836	0.593444	0.500171
H123	H	0.331245	-0.078722	0.000150
H124	H	0.831245	0.421278	0.500150
N125	N	0.548795	-0.000919	0.000119
N126	N	1.048795	0.499081	0.500119
N127	N	0.588437	0.072188	0.000122
N128	N	1.088437	0.572188	0.500122
H129	H	0.561217	0.137324	0.000121
H130	H	1.061217	0.637324	0.500121
H131	H	0.705615	-0.034845	0.000111
H132	H	1.205615	0.465155	0.500111
H133	H	0.428245	-0.092961	0.000160
H134	H	0.928245	0.407039	0.500160
N135	N	0.455376	-0.336467	0.000127
N136	N	0.955376	0.163533	0.500127
N137	N	0.496972	-0.364690	0.075426
N138	N	0.996972	0.135310	0.575426
H139	H	0.524210	-0.429816	0.075431
H140	H	1.024210	0.070184	0.575431
