data_functionalizedCrystal
_audit_creation_method	'MofGen! by Chris Wilmer'
_symmetry_space_group_name_H-M	'P1'
_symmetry_Int_Tables_number	1
_symmetry_cell_setting	triclinic
loop_
_symmetry_equiv_pos_as_xyz
  x,y,z
_cell_length_a	13.032721
_cell_length_b	12.759401
_cell_length_c	13.033109
_cell_angle_alpha	97.200066
_cell_angle_beta	74.856674
_cell_angle_gamma	97.203268
loop_
_atom_site_label
_atom_site_type_symbol
_atom_site_fract_x
_atom_site_fract_y
_atom_site_fract_z
Zn1	Zn	-0.499116	1.625984	0.654158
Zn2	Zn	0.000884	2.125984	1.154158
Zn3	Zn	-0.654196	1.586266	0.499103
Zn4	Zn	-0.154196	2.086266	0.999103
Zn5	Zn	-0.476604	1.430493	0.476581
Zn6	Zn	0.023396	1.930493	0.976581
Zn7	Zn	-0.676672	1.430457	0.676656
Zn8	Zn	-0.176672	1.930457	1.176656
O9	O	-0.576647	1.518300	0.576625
O10	O	-0.076647	2.018300	1.076625
O11	O	-0.519702	1.767736	0.633601
O12	O	-0.019702	2.267736	1.133601
O13	O	-0.611811	1.548995	0.347492
O14	O	-0.111811	2.048995	0.847492
O15	O	-0.330960	1.473063	0.481295
O16	O	0.169040	1.973063	0.981295
O17	O	-0.633639	1.738555	0.519682
O18	O	-0.133639	2.238555	1.019682
O19	O	-0.347499	1.616689	0.611761
O20	O	0.152501	2.116689	1.111761
O21	O	-0.481335	1.434549	0.330945
O22	O	0.018665	1.934549	0.830945
O23	O	-0.503129	1.283468	0.503111
O24	O	-0.003129	1.783468	1.003111
O25	O	-0.671946	1.473001	0.822295
O26	O	-0.171946	1.973001	1.322295
O27	O	-0.650118	1.283441	0.650105
O28	O	-0.150118	1.783441	1.150105
O29	O	-0.541497	1.616654	0.805766
O30	O	-0.041497	2.116654	1.305766
O31	O	-0.805808	1.548960	0.541497
O32	O	-0.305808	2.048960	1.041497
O33	O	-0.822321	1.434488	0.671945
O34	O	-0.322321	1.934488	1.171945
C35	C	-0.576620	1.245334	0.576606
C36	C	-0.076620	1.745334	1.076606
C37	C	-0.576638	1.128557	0.576626
C38	C	-0.076638	1.628557	1.076626
C39	C	-0.517473	0.979150	0.636074
C40	C	-0.017473	1.479150	1.136074
C41	C	-0.517451	1.088875	0.636065
C42	C	-0.017451	1.588875	1.136065
C43	C	-0.635859	1.058507	0.517202
C44	C	-0.135859	1.558507	1.017202
C45	C	-0.635886	0.948784	0.517219
C46	C	-0.135886	1.448784	1.017219
C47	C	-0.852606	1.487441	0.611630
C48	C	-0.352606	1.987441	1.111630
C49	C	-0.970667	1.474339	0.626640
C50	C	-0.470667	1.974339	1.126640
C51	C	-1.015104	1.525199	0.568838
C52	C	-0.515104	2.025199	1.068838
C53	C	-1.137126	1.511659	0.584351
C54	C	-0.637126	2.011659	1.084351
C55	C	-0.299614	1.549311	0.541506
C56	C	0.200386	2.049311	1.041506
C57	C	-0.181558	1.562526	0.526541
C58	C	0.318442	2.062526	1.026541
C59	C	-0.611740	1.549254	0.853645
C60	C	-0.111740	2.049254	1.353645
C61	C	-0.626694	1.562445	0.971694
C62	C	-0.126694	2.062445	1.471694
C63	C	-0.576675	1.792332	0.576644
C64	C	-0.076675	2.292332	1.076644
C65	C	-0.576687	1.909108	0.576653
C66	C	-0.076687	2.409108	1.076653
C67	C	-0.541615	1.487535	0.300673
C68	C	-0.041615	1.987535	0.800673
C69	C	-0.526361	1.474581	0.182586
C70	C	-0.026361	1.974581	0.682586
C71	C	-0.568804	1.511701	1.016137
C72	C	-0.068804	2.011701	1.516137
C73	C	-0.584259	1.525333	1.138147
C74	C	-0.084259	2.025333	1.638147
H75	H	-0.962814	1.578770	0.507870
H76	H	-0.462814	2.078770	1.007870
C77	C	-1.207755	1.439291	0.666724
C78	C	-0.707755	1.939291	1.166724
H79	H	-1.280501	1.439679	0.666340
H80	H	-0.780501	1.939679	1.166340
H81	H	-1.198629	1.464583	0.735804
H82	H	-0.698629	1.964583	1.235804
H83	H	-1.187718	1.368954	0.648831
H84	H	-0.687718	1.868954	1.148831
H85	H	-0.469268	0.946850	0.684469
H86	H	0.030732	1.446850	1.184469
H87	H	-0.684055	1.090825	0.468811
H88	H	-0.184055	1.590825	0.968811
C89	C	-1.110936	1.634898	0.444168
C90	C	-0.610936	2.134898	0.944168
H91	H	-1.154641	1.665056	0.409922
H92	H	-0.654641	2.165056	0.909922
H93	H	-1.061844	1.594338	0.392400
H94	H	-0.561844	2.094338	0.892400
H95	H	-1.072766	1.689967	0.479375
H96	H	-0.572766	2.189967	0.979375
C97	C	-0.701028	0.871729	0.451858
C98	C	-0.201028	1.371729	0.951858
H99	H	-0.692575	0.800701	0.460393
H100	H	-0.192575	1.300701	0.960393
H101	H	-0.676340	0.883467	0.378533
H102	H	-0.176340	1.383467	0.878533
H103	H	-0.774370	0.883473	0.476350
H104	H	-0.274370	1.383473	0.976350
C105	C	-1.041300	1.401975	0.709009
C106	C	-0.541300	1.901975	1.209009
H107	H	-1.114046	1.402363	0.708625
H108	H	-0.614046	1.902363	1.208625
H109	H	-1.032174	1.427267	0.778089
H110	H	-0.532174	1.927267	1.278089
H111	H	-1.021263	1.331638	0.691116
H112	H	-0.521263	1.831638	1.191116
H113	H	-0.687698	1.615980	1.023973
H114	H	-0.187698	2.115980	1.523973
C115	C	-0.452310	1.165916	0.701424
C116	C	0.047690	1.665916	1.201424
H117	H	-0.417054	1.126568	0.736814
H118	H	0.082946	1.626568	1.236814
H119	H	-0.498851	1.209348	0.752793
H120	H	0.001149	1.709348	1.252793
H121	H	-0.400818	1.209352	0.654979
H122	H	0.099182	1.709352	1.154979
C123	C	-0.486391	1.439378	0.945523
C124	C	0.013609	1.939378	1.445523
H125	H	-0.486810	1.439710	0.872781
H126	H	0.013190	1.939710	1.372781
H127	H	-0.504203	1.369059	0.965612
H128	H	-0.004203	1.869059	1.465612
H129	H	-0.417305	1.464764	0.954601
H130	H	0.082695	1.964764	1.454601
H131	H	-0.645267	1.578872	1.190422
H132	H	-0.145267	2.078872	1.690422
C133	C	-0.443944	1.402253	1.111978
C134	C	0.056056	1.902253	1.611978
H135	H	-0.444361	1.402583	1.039235
H136	H	0.055639	1.902583	1.539235
H137	H	-0.461757	1.331934	1.132069
H138	H	0.038243	1.831934	1.632069
H139	H	-0.374858	1.427638	1.121057
H140	H	0.125142	1.927638	1.621057
