data_functionalizedCrystal
_audit_creation_method	'MofGen! by Chris Wilmer'
_symmetry_space_group_name_H-M	'P1'
_symmetry_Int_Tables_number	1
_symmetry_cell_setting	triclinic
loop_
_symmetry_equiv_pos_as_xyz
  x,y,z
_cell_length_a	16.109301
_cell_length_b	15.944551
_cell_length_c	15.186229
_cell_angle_alpha	89.995303
_cell_angle_beta	89.999362
_cell_angle_gamma	83.480109
loop_
_atom_site_label
_atom_site_type_symbol
_atom_site_fract_x
_atom_site_fract_y
_atom_site_fract_z
O1	O	1.103166	0.107966	-0.073175
O2	O	0.861108	0.121402	-0.073189
O3	O	0.988747	-0.007593	-0.073174
O4	O	0.975527	0.236961	-0.073190
O5	O	0.988738	-0.007594	0.073284
O6	O	0.861099	0.121401	0.073268
O7	O	1.103157	0.107964	0.073282
Zn8	Zn	0.982127	0.114682	0.096529
Zn9	Zn	0.982138	0.114685	-0.096435
O10	O	0.975518	0.236960	0.073267
C11	C	0.830129	0.120857	0.000038
C12	C	0.737833	0.119226	0.000033
C13	C	0.515584	0.191975	0.000038
C14	C	0.428863	0.190435	0.000044
C15	C	0.448688	0.037387	0.000050
C16	C	0.535407	0.038927	0.000051
C17	C	0.568853	0.116224	0.000040
C18	C	0.395412	0.113143	0.000045
C19	C	0.301386	0.111473	0.000052
C20	C	0.662885	0.117894	0.000036
C21	C	0.988194	-0.038887	0.000055
C22	C	0.986548	-0.132133	0.000056
C23	C	0.903499	-0.346962	0.000039
C24	C	0.942060	-0.407993	0.072253
C25	C	0.983572	-0.302858	0.000049
C26	C	0.942087	-0.407975	-0.072142
C27	C	0.980691	-0.467769	0.000038
C28	C	1.022155	-0.362660	0.072323
C29	C	1.022171	-0.362636	-0.072137
C30	C	1.060790	-0.423649	0.000095
C31	C	0.985229	-0.207856	0.000055
C32	C	0.979039	-0.562770	0.000038
C33	C	1.134136	0.108510	0.000054
C34	C	1.226432	0.110141	0.000053
C35	C	0.976071	0.268254	0.000036
C36	C	0.977717	0.361500	0.000030
N37	N	0.982125	0.114680	0.228221
N38	N	0.982146	0.114680	-0.228128
C39	C	1.038663	0.057580	0.453951
C40	C	1.038666	0.057578	0.546141
C41	C	0.925603	0.171783	0.546136
C42	C	0.925597	0.171780	0.453948
C43	C	0.982132	0.114680	0.407858
C44	C	0.982140	0.114680	0.592236
C45	C	0.982143	0.114679	0.692192
C46	C	0.982128	0.114680	0.307895
H47	H	0.421446	-0.025546	0.000064
C48	C	0.801107	-0.251953	-0.075540
C49	C	0.813776	-0.301967	0.000120
H50	H	0.745716	-0.224181	-0.075489
H51	H	0.839684	-0.211114	-0.076094
H52	H	0.809318	-0.286650	-0.126351
H53	H	0.805572	-0.267270	0.050931
H54	H	0.775188	-0.342811	0.000682
C55	C	1.148356	-0.555968	-0.000613
C56	C	1.150594	-0.468438	0.000120
H57	H	1.203798	-0.583614	-0.000608
H58	H	1.119731	-0.572196	0.050203
H59	H	1.120030	-0.571458	-0.051940
H60	H	1.178914	-0.452947	0.051450
H61	H	1.179231	-0.452203	-0.050701
H62	H	1.056013	-0.342516	-0.133188
H63	H	0.578781	-0.022762	0.000055
C64	C	1.088873	0.006866	0.687458
C65	C	1.100807	-0.005187	0.596807
H66	H	1.127235	-0.031890	0.718735
H67	H	1.097906	0.062921	0.702556
H68	H	1.033386	-0.002275	0.702560
H69	H	1.156292	0.003961	0.581703
H70	H	1.091781	-0.061255	0.581702
C71	C	0.813988	-0.396038	0.154529
C72	C	0.896339	-0.435133	0.154664
H73	H	0.785759	-0.412796	0.205402
H74	H	0.814262	-0.336501	0.154854
H75	H	0.786092	-0.412318	0.103246
H76	H	0.924238	-0.418848	0.205944
H77	H	0.896070	-0.494683	0.154347
H78	H	1.055990	-0.342682	0.133442
C79	C	0.937508	-0.411061	-0.230133
C80	C	0.896363	-0.435078	-0.154561
H81	H	0.909277	-0.427797	-0.281011
H82	H	0.937774	-0.351523	-0.230436
H83	H	0.993374	-0.437589	-0.230211
H84	H	0.840498	-0.408546	-0.154480
H85	H	0.896087	-0.494628	-0.154258
C86	C	0.875416	0.222503	0.687453
C87	C	0.863470	0.234553	0.596802
H88	H	0.837060	0.261262	0.718728
H89	H	0.866381	0.166450	0.702566
H90	H	0.930906	0.231641	0.702543
H91	H	0.807981	0.225409	0.581710
H92	H	0.872498	0.290620	0.581682
H93	H	0.879558	0.218278	0.416417
H94	H	1.084696	0.011085	0.416427
H95	H	0.542812	0.254914	0.000036
H96	H	0.385495	0.252119	0.000044
