data_functionalizedCrystal
_audit_creation_method	'MofGen! by Chris Wilmer'
_symmetry_space_group_name_H-M	'P1'
_symmetry_Int_Tables_number	1
_symmetry_cell_setting	triclinic
loop_
_symmetry_equiv_pos_as_xyz
  x,y,z
_cell_length_a	13.339070
_cell_length_b	13.262397
_cell_length_c	13.930277
_cell_angle_alpha	105.911010
_cell_angle_beta	90.001010
_cell_angle_gamma	80.567773
loop_
_atom_site_label
_atom_site_type_symbol
_atom_site_fract_x
_atom_site_fract_y
_atom_site_fract_z
O1	O	0.136467	-1.432367	-0.294186
O2	O	0.151292	-1.131112	-0.215522
O3	O	-0.003530	-1.247165	-0.245829
O4	O	0.291290	-1.316314	-0.263879
O5	O	-0.003534	-1.247142	-0.405484
O6	O	0.151289	-1.131088	-0.375177
O7	O	0.136464	-1.432344	-0.453842
Zn8	Zn	0.143876	-1.281712	-0.439858
Zn9	Zn	0.143880	-1.281743	-0.229505
O10	O	0.291287	-1.316290	-0.423535
C11	C	0.150458	-1.091755	-0.285076
C12	C	0.147966	-0.974516	-0.254462
C13	C	0.146795	-0.919448	-0.153049
C14	C	0.144463	-0.809297	-0.124287
C15	C	0.143293	-0.754202	-0.196937
C16	C	0.144456	-0.809269	-0.298352
C17	C	0.146797	-0.919431	-0.327116
C18	C	0.143295	-0.754186	-0.371004
C19	C	0.144458	-0.809252	-0.472420
C20	C	0.146798	-0.919404	-0.501179
C21	C	0.147967	-0.974499	-0.428530
C22	C	0.140954	-0.644023	-0.342240
C23	C	0.140956	-0.644007	-0.516308
C24	C	0.143288	-0.754157	-0.545069
C25	C	-0.041271	-1.235473	-0.322605
C26	C	-0.153720	-1.200656	-0.313510
C27	C	-0.517365	-1.471375	-0.384201
C28	C	-0.411714	-1.504090	-0.392752
C29	C	-0.347210	-1.428234	-0.372942
C30	C	-0.388368	-1.319657	-0.344579
C31	C	-0.494030	-1.286938	-0.336034
C32	C	-0.323875	-1.243798	-0.324776
C33	C	-0.365033	-1.135221	-0.296413
C34	C	-0.470685	-1.102508	-0.287868
C35	C	-0.535188	-1.178364	-0.307679
C36	C	-0.218213	-1.276517	-0.333321
C37	C	-0.194878	-1.092081	-0.285154
C38	C	-0.300530	-1.059365	-0.276603
C39	C	0.329027	-1.327983	-0.346756
C40	C	0.441476	-1.362800	-0.355845
N41	N	0.143872	-1.281699	-0.583421
C42	C	0.137297	-0.471700	-0.384286
C43	C	0.139785	-0.588939	-0.414894
C44	C	0.212409	-1.230344	-1.022279
C45	C	0.075344	-1.333169	-1.049101
C46	C	0.075341	-1.333155	-0.948601
C47	C	0.143874	-1.281737	-0.884937
C48	C	0.212410	-1.230332	-0.921771
C49	C	0.006813	-1.384569	-0.911762
C50	C	0.006808	-1.384558	-0.811257
C51	C	0.075337	-1.333133	-0.747589
C52	C	0.143875	-1.281725	-0.784428
C53	C	0.212407	-1.230306	-0.720763
C54	C	0.280941	-1.178891	-0.757599
C55	C	0.280939	-1.178906	-0.858102
C56	C	0.075340	-1.333117	-0.647086
C57	C	0.212408	-1.230294	-0.620255
N58	N	0.143876	-1.281763	-0.085944
H59	H	0.147755	-0.964238	-0.583758
O60	O	0.286329	-1.174838	-0.551588
H61	H	0.333986	-1.139099	-0.594092
O62	O	0.150504	-1.093313	-0.459544
H63	H	0.082175	-1.111640	-0.426753
O64	O	0.139685	-0.584648	-0.232859
H65	H	0.207573	-0.545194	-0.218373
O66	O	-0.067100	-1.440028	-0.980423
H67	H	-0.055593	-1.431387	-1.056494
O68	O	-0.067121	-1.439996	-0.771531
H69	H	-0.055611	-1.431350	-0.690949
H70	H	0.144237	-0.799008	-0.627643
H71	H	-0.184713	-1.364921	-0.356414
H72	H	0.019545	-1.374985	-0.617100
O73	O	0.354864	-1.123469	-0.897833
H74	H	0.343359	-1.132131	-0.978418
H75	H	0.141394	-0.664512	-0.173513
H76	H	0.140007	-0.599149	-0.575465
H77	H	-0.261185	-1.454878	-0.379907
O78	O	-0.367320	-1.621189	-0.423320
H79	H	-0.429920	-1.668440	-0.435645
H80	H	-0.142359	-1.030312	-0.269028
H81	H	-0.569892	-1.533124	-0.400335
H82	H	-0.621220	-1.151732	-0.300714
H83	H	0.336746	-1.137031	-0.705753
H84	H	-0.334056	-0.970960	-0.253510
O85	O	0.143156	-0.749895	-0.014911
H86	H	0.144336	-0.806704	0.030776
H87	H	0.147755	-0.964317	-0.093909
O88	O	-0.515083	-0.985402	-0.257290
H89	H	-0.452484	-0.938150	-0.244943
H90	H	0.268206	-1.188479	-1.052273
O91	O	0.001429	-1.388627	-1.117760
H92	H	0.012940	-1.379996	-1.193834
