data_functionalizedCrystal
_audit_creation_method	'MofGen! by Chris Wilmer'
_symmetry_space_group_name_H-M	'P1'
_symmetry_Int_Tables_number	1
_symmetry_cell_setting	triclinic
loop_
_symmetry_equiv_pos_as_xyz
  x,y,z
_cell_length_a	19.121241
_cell_length_b	19.121063
_cell_length_c	19.120904
_cell_angle_alpha	94.741613
_cell_angle_beta	89.875472
_cell_angle_gamma	95.003121
loop_
_atom_site_label
_atom_site_type_symbol
_atom_site_fract_x
_atom_site_fract_y
_atom_site_fract_z
Zn1	Zn	1.043557	-0.254510	-0.452551
Zn2	Zn	1.376890	0.078823	-0.119218
Zn3	Zn	1.710224	0.412156	0.214116
Zn4	Zn	1.043470	-0.367161	-0.339898
Zn5	Zn	1.376803	-0.033828	-0.006565
Zn6	Zn	1.710137	0.299506	0.326769
Zn7	Zn	0.931342	-0.254092	-0.330304
Zn8	Zn	1.264675	0.079241	0.003030
Zn9	Zn	1.598009	0.412575	0.336363
Zn10	Zn	0.920835	-0.377147	-0.452491
Zn11	Zn	1.254168	-0.043814	-0.119158
Zn12	Zn	1.587502	0.289519	0.214176
O13	O	0.984801	-0.313228	-0.393811
O14	O	1.318134	0.020106	-0.060478
O15	O	1.651468	0.353439	0.272856
O16	O	1.141831	-0.265449	-0.441648
O17	O	1.475164	0.067884	-0.108314
O18	O	1.808498	0.401217	0.225019
O19	O	1.032957	-0.347808	-0.240344
O20	O	1.366290	-0.014474	0.092990
O21	O	1.699624	0.318859	0.426323
O22	O	0.950661	-0.155504	-0.342530
O23	O	1.283995	0.177830	-0.009196
O24	O	1.617328	0.511163	0.324137
O25	O	1.141767	-0.348213	-0.358882
O26	O	1.475100	-0.014880	-0.025549
O27	O	1.808434	0.318453	0.307785
O28	O	1.033105	-0.155811	-0.432344
O29	O	1.366438	0.177522	-0.099011
O30	O	1.699772	0.510856	0.234323
O31	O	0.950577	-0.264736	-0.233295
O32	O	1.283910	0.068597	0.100039
O33	O	1.617244	0.401930	0.433372
O34	O	0.831663	-0.274420	-0.342472
O35	O	1.164996	0.058914	-0.009138
O36	O	1.498330	0.392247	0.324195
O37	O	0.932754	-0.365234	-0.550781
O38	O	1.266087	-0.031900	-0.217447
O39	O	1.599420	0.301433	0.115886
O40	O	0.823943	-0.364828	-0.432242
O41	O	1.157277	-0.031495	-0.098909
O42	O	1.490610	0.301839	0.234424
O43	O	1.022917	-0.275133	-0.550825
O44	O	1.356250	0.058201	-0.217491
O45	O	1.689584	0.391534	0.115842
O46	O	1.022769	-0.467129	-0.358824
O47	O	1.356102	-0.133796	-0.025491
O48	O	1.689435	0.199537	0.307843
O49	O	0.932669	-0.474466	-0.441546
O50	O	1.266003	-0.141133	-0.108212
O51	O	1.599336	0.192200	0.225121
C52	C	0.802319	-0.320663	-0.386310
C53	C	1.135652	0.012671	-0.052976
C54	C	1.468985	0.346004	0.280357
C55	C	0.724250	-0.323861	-0.383118
C56	C	1.057584	0.009472	-0.049785
C57	C	1.390917	0.342806	0.283549
C58	C	0.687602	-0.282348	-0.424782
C59	C	1.020935	0.050986	-0.091448
C60	C	1.354268	0.384319	0.241885
C61	C	0.614249	-0.285349	-0.421777
C62	C	0.947582	0.047984	-0.088443
C63	C	1.280915	0.381317	0.244890
C64	C	0.577546	-0.329869	-0.377111
C65	C	0.910879	0.003465	-0.043778
C66	C	1.244212	0.336798	0.289556
C67	C	0.614200	-0.371384	-0.335443
C68	C	0.947533	-0.038050	-0.002110
C69	C	1.280866	0.295283	0.331224
C70	C	0.687552	-0.368378	-0.338445
C71	C	1.020885	-0.035044	-0.005111
C72	C	1.354218	0.298289	0.328222
C73	C	0.356069	-0.341093	-0.365885
C74	C	0.689402	-0.007759	-0.032551
C75	C	1.022736	0.325574	0.300782
C76	C	0.282712	-0.344097	-0.362887
C77	C	0.616045	-0.010764	-0.029554
C78	C	0.949378	0.322570	0.303779
C79	C	0.282766	-0.258061	-0.449221
C80	C	0.616099	0.075272	-0.115887
C81	C	0.949432	0.408605	0.217446
C82	C	0.356119	-0.255063	-0.452222
C83	C	0.689452	0.078271	-0.118888
C84	C	1.022785	0.411604	0.214445
C85	C	0.392767	-0.296575	-0.410551
C86	C	0.726100	0.036758	-0.077217
C87	C	1.059433	0.370092	0.256116
C88	C	0.502567	-0.332939	-0.374040
C89	C	0.835900	0.000394	-0.040707
C90	C	1.169234	0.333727	0.292627
C91	C	0.467744	-0.293500	-0.413619
C92	C	0.801078	0.039833	-0.080285
C93	C	1.134411	0.373167	0.253048
C94	C	0.976588	-0.496375	-0.401236
C95	C	1.309921	-0.163042	-0.067902
C96	C	1.643254	0.170292	0.265431
C97	C	0.973137	-0.574724	-0.404438
C98	C	1.306471	-0.241391	-0.071105
C99	C	1.639804	0.091942	0.262228
C100	C	1.018459	-0.607690	-0.362913
C101	C	1.351793	-0.274357	-0.029579
C102	C	1.685126	0.058976	0.303754
C103	C	1.015218	-0.681308	-0.365929
C104	C	1.348552	-0.347975	-0.032596
C105	C	1.681885	-0.014642	0.300738
C106	C	0.966651	-0.721959	-0.410467
C107	C	1.299984	-0.388626	-0.077134
C108	C	1.633318	-0.055293	0.256199
C109	C	0.921327	-0.688989	-0.451998
C110	C	1.254660	-0.355655	-0.118664
C111	C	1.587994	-0.022322	0.214669
C112	C	0.924572	-0.615372	-0.448985
C113	C	1.257905	-0.282039	-0.115651
C114	C	1.591239	0.051295	0.217682
C115	C	0.954507	-0.944426	-0.421721
C116	C	1.287841	-0.611093	-0.088388
C117	C	1.621174	-0.277760	0.244946
C118	C	0.951264	-1.018048	-0.424729
C119	C	1.284598	-0.684715	-0.091396
C120	C	1.617931	-0.351381	0.241937
C121	C	1.045157	-1.010363	-0.338661
C122	C	1.378490	-0.677029	-0.005328
C123	C	1.711824	-0.343696	0.328006
C124	C	1.048395	-0.936745	-0.335649
C125	C	1.381728	-0.603412	-0.002316
C126	C	1.715062	-0.270078	0.331018
C127	C	1.003073	-0.903781	-0.377182
C128	C	1.336407	-0.570447	-0.043849
C129	C	1.669740	-0.237114	0.289485
C130	C	0.963335	-0.797209	-0.413550
C131	C	1.296669	-0.463875	-0.080217
C132	C	1.630002	-0.130542	0.253117
C133	C	1.006393	-0.828532	-0.374103
C134	C	1.339726	-0.495199	-0.040769
C135	C	1.673060	-0.161866	0.292564
C136	C	1.167996	-0.305764	-0.401342
C137	C	1.501329	0.027569	-0.068008
C138	C	1.834663	0.360903	0.265325
C139	C	1.246063	-0.302584	-0.404551
C140	C	1.579396	0.030750	-0.071218
C141	C	1.912729	0.364083	0.262116
C142	C	0.976673	-0.321344	-0.576998
C143	C	1.310006	0.011989	-0.243665
C144	C	1.643340	0.345323	0.089668
C145	C	0.973209	-0.324803	-0.655062
C146	C	1.306542	0.008531	-0.321729
C147	C	1.639876	0.341864	0.011605
C148	C	0.993065	-0.129365	-0.386373
C149	C	1.326398	0.203968	-0.053040
C150	C	1.659732	0.537302	0.280293
C151	C	0.996587	-0.051014	-0.383204
C152	C	1.329920	0.282320	-0.049870
C153	C	1.663253	0.615653	0.283463
C154	C	1.018523	-0.279519	-0.691760
C155	C	1.351856	0.053814	-0.358427
C156	C	1.685189	0.387148	-0.025094
C157	C	1.015260	-0.282766	-0.765109
C158	C	1.348593	0.050567	-0.431776
C159	C	1.681926	0.383900	-0.098442
C160	C	0.966686	-0.331301	-0.801758
C161	C	1.300019	0.002032	-0.468425
C162	C	1.633353	0.335365	-0.135091
C163	C	0.921368	-0.376587	-0.765054
C164	C	1.254701	-0.043254	-0.431721
C165	C	1.588034	0.290080	-0.098388
C166	C	0.924628	-0.373336	-0.691707
C167	C	1.257961	-0.040002	-0.358374
C168	C	1.591294	0.293331	-0.025040
C169	C	0.954491	-0.343462	-1.023219
C170	C	1.287824	-0.010129	-0.689885
C171	C	1.621158	0.323205	-0.356552
C172	C	0.951236	-0.346711	-1.096572
C173	C	1.284569	-0.013378	-0.763238
C174	C	1.617902	0.319955	-0.429905
C175	C	1.045127	-0.252889	-1.096621
C176	C	1.378460	0.080444	-0.763288
C177	C	1.711794	0.413777	-0.429954
C178	C	1.048386	-0.249645	-1.023272
C179	C	1.381719	0.083688	-0.689939
C180	C	1.715052	0.417021	-0.356606
C181	C	1.003065	-0.294928	-0.986575
C182	C	1.336398	0.038405	-0.653241
C183	C	1.669732	0.371738	-0.319908
C184	C	0.963351	-0.334623	-0.876732
C185	C	1.296684	-0.001290	-0.543399
C186	C	1.630018	0.332043	-0.210066
C187	C	1.006397	-0.291602	-0.911602
C188	C	1.339730	0.041731	-0.578268
C189	C	1.673064	0.375064	-0.244935
C190	C	0.992940	-0.305090	-0.211336
C191	C	1.326274	0.028243	0.121998
C192	C	1.659607	0.361576	0.455331
C193	C	0.996549	-0.301428	-0.133270
C194	C	1.329882	0.031906	0.200063
C195	C	1.663216	0.365239	0.533397
H196	H	0.717480	-0.246097	-0.461155
H197	H	1.050813	0.087236	-0.127822
H198	H	1.384146	0.420570	0.205511
H199	H	0.917597	-0.380345	-0.993349
H200	H	1.250931	-0.047011	-0.660016
H201	H	1.584264	0.286322	-0.326683
H202	H	0.881785	-0.722093	-0.488265
H203	H	1.215119	-0.388759	-0.154932
H204	H	1.548452	-0.055426	0.178402
H205	H	1.082056	-1.037210	-0.304849
H206	H	1.415390	-0.703877	0.028485
H207	H	1.748723	-0.370544	0.361818
H208	H	1.087942	-0.903648	-0.299382
H209	H	1.421276	-0.570315	0.033951
H210	H	1.754609	-0.236981	0.367285
H211	H	0.584311	-0.407629	-0.299072
H212	H	0.917644	-0.074295	0.034262
H213	H	1.250977	0.259038	0.367595
H214	H	0.911723	-1.051145	-0.461011
H215	H	1.245056	-0.717811	-0.127677
H216	H	1.578390	-0.384478	0.205656
H217	H	0.917604	-0.917593	-0.455537
H218	H	1.250937	-0.584260	-0.122204
H219	H	1.584270	-0.250926	0.211129
H220	H	1.052160	-0.245893	-0.794986
H221	H	1.385494	0.087440	-0.461652
H222	H	1.718827	0.420774	-0.128319
H223	H	0.887667	-0.588532	-0.482800
H224	H	1.221000	-0.255199	-0.149467
H225	H	1.554333	0.078134	0.183867
H226	H	0.923805	-0.374144	-0.906580
H227	H	1.257139	-0.040810	-0.573247
H228	H	1.590472	0.292523	-0.239914
H229	H	0.497631	-0.257250	-0.449982
H230	H	0.830965	0.076084	-0.116649
H231	H	1.164298	0.409417	0.216685
H232	H	1.045939	-0.795432	-0.337842
H233	H	1.379272	-0.462099	-0.004509
H234	H	1.712606	-0.128766	0.328825
H235	H	0.385997	-0.218813	-0.488596
H236	H	0.719330	0.114520	-0.155262
H237	H	1.052664	0.447854	0.178071
H238	H	0.252919	-0.224264	-0.483146
H239	H	0.586252	0.109070	-0.149812
H240	H	0.919586	0.442403	0.183521
H241	H	1.052124	-0.708145	-0.332114
H242	H	1.385457	-0.374812	0.001220
H243	H	1.718791	-0.041479	0.334553
H244	H	1.082024	-0.216022	-1.126508
H245	H	1.415357	0.117312	-0.793175
H246	H	1.748690	0.450645	-0.459841
H247	H	0.472675	-0.369187	-0.337673
H248	H	0.806008	-0.035854	-0.004340
H249	H	1.139342	0.297479	0.328993
H250	H	0.923790	-0.830315	-0.449812
H251	H	1.257124	-0.496982	-0.116479
H252	H	1.590457	-0.163648	0.216855
H253	H	0.252830	-0.380353	-0.326515
H254	H	0.586163	-0.047020	0.006818
H255	H	0.919497	0.286313	0.340152
H256	H	1.045943	-0.252083	-0.881759
H257	H	1.379276	0.081251	-0.548425
H258	H	1.712609	0.414584	-0.215092
H259	H	0.887722	-0.410204	-0.661827
H260	H	1.221055	-0.076870	-0.328494
H261	H	1.554388	0.256463	0.004839
H262	H	1.058079	-0.239998	-0.661926
H263	H	1.391412	0.093335	-0.328593
H264	H	1.724745	0.426668	0.004741
H265	H	0.385899	-0.374896	-0.331954
H266	H	0.719232	-0.041562	0.001380
H267	H	1.052566	0.291771	0.334713
H268	H	1.087941	-0.210125	-0.993438
H269	H	1.421275	0.123209	-0.660104
H270	H	1.754608	0.456542	-0.326771
H271	H	0.881815	-0.416103	-0.794900
H272	H	1.215149	-0.082769	-0.461566
H273	H	1.548482	0.250564	-0.128233
H274	H	0.911679	-0.386236	-1.126409
H275	H	1.245012	-0.052903	-0.793076
H276	H	1.578345	0.280431	-0.459743
H277	H	0.584412	-0.251546	-0.455705
H278	H	0.917745	0.081787	-0.122372
H279	H	1.251079	0.415121	0.210962
H280	H	1.058005	-0.574597	-0.326641
H281	H	1.391338	-0.241263	0.006692
H282	H	1.724672	0.092070	0.340025
H283	H	0.717390	-0.402182	-0.304517
H284	H	1.050724	-0.068849	0.028816
H285	H	1.384057	0.264485	0.362149
