data_functionalizedCrystal
_audit_creation_method	'MofGen! by Chris Wilmer'
_symmetry_space_group_name_H-M	'P1'
_symmetry_Int_Tables_number	1
_symmetry_cell_setting	triclinic
loop_
_symmetry_equiv_pos_as_xyz
  x,y,z
_cell_length_a	16.109302
_cell_length_b	15.625429
_cell_length_c	15.186229
_cell_angle_alpha	71.919106
_cell_angle_beta	89.994701
_cell_angle_gamma	83.865709
loop_
_atom_site_label
_atom_site_type_symbol
_atom_site_fract_x
_atom_site_fract_y
_atom_site_fract_z
O1	O	1.103291	0.115882	-0.110266
O2	O	1.603291	0.615882	0.389734
O3	O	0.861250	0.130302	-0.114863
O4	O	1.361250	0.630302	0.385137
O5	O	0.988738	-0.008146	-0.070658
O6	O	1.488738	0.491854	0.429342
O7	O	0.975803	0.254330	-0.154471
O8	O	1.475803	0.754330	0.345529
O9	O	0.988729	-0.008148	0.075800
O10	O	1.488729	0.491852	0.575800
O11	O	0.861241	0.130300	0.031595
O12	O	1.361241	0.630300	0.531595
O13	O	1.103283	0.115880	0.036192
O14	O	1.603283	0.615880	0.536192
Zn15	Zn	0.982261	0.123090	0.057147
Zn16	Zn	1.482261	0.623090	0.557147
Zn17	Zn	0.982272	0.123092	-0.135818
Zn18	Zn	1.482272	0.623092	0.364182
O19	O	0.975795	0.254328	-0.008013
O20	O	1.475795	0.754328	0.491987
C21	C	0.830270	0.129717	-0.041447
C22	C	1.330270	0.629717	0.458553
C23	C	0.737972	0.127965	-0.040885
C24	C	1.237972	0.627965	0.459115
C25	C	0.525621	0.123914	0.040234
C26	C	1.025621	0.623914	0.540234
C27	C	0.438898	0.122259	0.040760
C28	C	0.938898	0.622259	0.540760
C29	C	0.438918	0.122265	-0.118918
C30	C	0.938918	0.622265	0.381082
C31	C	0.525640	0.123914	-0.119441
C32	C	1.025640	0.623914	0.380559
C33	C	0.568988	0.124743	-0.039863
C34	C	1.068988	0.624743	0.460137
C35	C	0.395544	0.121439	-0.038815
C36	C	0.895544	0.621439	0.461185
C37	C	0.301516	0.119644	-0.038246
C38	C	0.801516	0.619644	0.461754
C39	C	0.663023	0.126537	-0.040432
C40	C	1.163023	0.626537	0.459568
C41	C	0.988148	-0.041734	0.013294
C42	C	1.488148	0.458266	0.513294
C43	C	0.986394	-0.141814	0.045245
C44	C	1.486394	0.358186	0.545245
C45	C	0.980624	-0.470957	-0.248810
C46	C	1.480624	0.029043	0.251190
C47	C	0.978971	-0.564996	-0.218759
C48	C	1.478971	-0.064996	0.281241
C49	C	0.978962	-0.564985	-0.059101
C50	C	1.478962	-0.064985	0.440899
C51	C	0.980619	-0.470944	-0.089138
C52	C	1.480619	0.029056	0.410862
C53	C	0.981448	-0.423938	-0.183993
C54	C	1.481448	0.076062	0.316007
C55	C	0.981443	-0.423925	-0.024322
C56	C	1.481443	0.076075	0.475678
C57	C	0.983095	-0.329892	-0.054357
C58	C	1.483095	0.170108	0.445643
C59	C	0.983922	-0.282879	-0.149208
C60	C	1.483922	0.217121	0.350792
C61	C	0.983100	-0.329905	-0.214028
C62	C	1.483100	0.170095	0.285972
C63	C	0.980608	-0.470932	0.070533
C64	C	1.480608	0.029068	0.570533
C65	C	0.981432	-0.423913	0.135349
C66	C	1.481432	0.076087	0.635349
C67	C	0.983090	-0.329879	0.105315
C68	C	1.483090	0.170121	0.605315
C69	C	0.983917	-0.282866	0.010464
C70	C	1.483917	0.217134	0.510464
C71	C	0.983912	-0.282853	0.170135
C72	C	1.483912	0.217147	0.670135
C73	C	0.985564	-0.188820	0.140100
C74	C	1.485564	0.311180	0.640100
C75	C	0.985569	-0.188833	-0.019571
C76	C	1.485569	0.311167	0.480429
C77	C	1.134263	0.116465	-0.037226
C78	C	1.634263	0.616465	0.462774
C79	C	1.226561	0.118217	-0.037794
C80	C	1.726561	0.618217	0.462206
C81	C	0.976384	0.287917	-0.091967
C82	C	1.476384	0.787917	0.408033
C83	C	0.978139	0.387996	-0.123924
C84	C	1.478139	0.887996	0.376076
N85	N	0.982259	0.123087	0.188840
N86	N	1.482259	0.623087	0.688840
N87	N	0.982280	0.123088	-0.267509
N88	N	1.482280	0.623088	0.232491
C89	C	1.038730	0.061803	0.434130
C90	C	1.538730	0.561803	0.934130
C91	C	1.038733	0.061801	0.526321
C92	C	1.538733	0.561801	1.026321
C93	C	0.925803	0.184375	0.487194
C94	C	1.425803	0.684375	0.987194
C95	C	0.925797	0.184372	0.395007
C96	C	1.425797	0.684372	0.895007
C97	C	0.982265	0.123087	0.368477
C98	C	1.482265	0.623087	0.868477
C99	C	0.982274	0.123088	0.552854
C100	C	1.482274	0.623088	1.052854
C101	C	0.982276	0.123086	0.652811
C102	C	1.482276	0.623086	1.152811
C103	C	0.982262	0.123088	0.268514
C104	C	1.482262	0.623088	0.768514
H105	H	0.986252	-0.150559	-0.096811
H106	H	1.486252	0.349441	0.403189
H107	H	0.983229	-0.321139	0.247366
H108	H	1.483229	0.178861	0.747366
C109	C	0.863690	0.251783	0.516386
C110	C	1.363690	0.751783	1.016386
N111	N	0.816904	0.302555	0.538373
N112	N	1.316904	0.802555	1.038373
H113	H	0.403613	0.121591	-0.183708
H114	H	0.903613	0.621591	0.316292
H115	H	0.560951	0.124587	-0.184669
H116	H	1.060951	0.624587	0.315331
C117	C	0.391197	0.121357	0.128870
C118	C	0.891197	0.621357	0.628870
N119	N	0.355268	0.120681	0.195238
N120	N	0.855268	0.620681	0.695238
H121	H	0.985258	-0.206310	-0.173661
H122	H	1.485258	0.293690	0.326339
C123	C	0.863716	0.251833	0.322769
C124	C	1.363716	0.751833	0.822769
N125	N	0.816971	0.302657	0.268356
N126	N	1.316971	0.802657	0.768356
C127	C	1.100840	-0.005619	0.404954
C128	C	1.600840	0.494381	0.904954
N129	N	1.147620	-0.056406	0.382982
N130	N	1.647620	0.443594	0.882982
H131	H	1.084710	0.011897	0.579775
H132	H	1.584710	0.511897	1.079775
H133	H	0.983783	-0.291631	-0.291268
H134	H	1.483783	0.208369	0.208732
C135	C	0.573302	0.124815	0.127775
C136	C	1.073302	0.624815	0.627775
N137	N	0.609214	0.125490	0.193715
N138	N	1.109214	0.625490	0.693715
H139	H	0.978284	-0.603270	0.018130
H140	H	1.478284	-0.103270	0.518130
C141	C	0.986476	-0.137096	0.211402
C142	C	1.486476	0.362904	0.711402
N143	N	0.987161	-0.098138	0.265108
N144	N	1.487161	0.401862	0.765108
H145	H	0.981307	-0.432683	-0.326050
H146	H	1.481307	0.067317	0.173950
H147	H	0.980754	-0.462198	0.212581
H148	H	1.480754	0.037802	0.712581
H149	H	0.978292	-0.603275	-0.271548
H150	H	1.478292	-0.103275	0.228452
C151	C	0.978801	-0.574373	0.103570
C152	C	1.478801	-0.074373	0.603570
N153	N	0.977444	-0.652286	0.128453
N154	N	1.477444	-0.152286	0.628453
