data_functionalizedCrystal
_audit_creation_method	'MofGen! by Chris Wilmer'
_symmetry_space_group_name_H-M	'P1'
_symmetry_Int_Tables_number	1
_symmetry_cell_setting	triclinic
loop_
_symmetry_equiv_pos_as_xyz
  x,y,z
_cell_length_a	10.489711
_cell_length_b	10.489716
_cell_length_c	11.892095
_cell_angle_alpha	93.932635
_cell_angle_beta	86.060095
_cell_angle_gamma	84.528072
loop_
_atom_site_label
_atom_site_type_symbol
_atom_site_fract_x
_atom_site_fract_y
_atom_site_fract_z
O1	O	1.702144	0.171706	-0.094034
O2	O	1.330942	0.188639	-0.094026
O3	O	1.525006	-0.005429	-0.094034
O4	O	1.508080	0.365773	-0.094026
O5	O	1.508825	0.010727	0.093974
O6	O	1.314761	0.204795	0.093982
O7	O	1.685964	0.187861	0.093974
Zn8	Zn	1.497793	0.198893	0.123829
Zn9	Zn	1.519112	0.177607	-0.123880
O10	O	1.491899	0.381929	0.093982
C11	C	1.275319	0.195446	-0.000021
C12	C	1.133688	0.191644	-0.000019
C13	C	0.951292	0.308349	-0.000029
C14	C	1.051421	0.242087	-0.092726
C15	C	1.035441	0.257984	0.092635
C16	C	0.981488	0.118536	-0.092817
C17	C	0.965491	0.134457	0.092628
C18	C	1.065595	0.068103	-0.000092
C19	C	1.515644	-0.044883	-0.000034
C20	C	1.511841	-0.186515	-0.000044
C21	C	1.630846	-0.284201	-0.000036
C22	C	1.575938	-0.369520	-0.092730
C23	C	1.559957	-0.353555	0.092632
C24	C	1.456989	-0.269975	-0.092814
C25	C	1.441019	-0.253998	0.092631
C26	C	1.386025	-0.339270	-0.000086
C27	C	1.741586	0.181054	-0.000033
C28	C	1.883218	0.184855	-0.000043
C29	C	1.501261	0.421383	-0.000021
C30	C	1.505066	0.563014	-0.000018
N31	N	1.483253	0.213420	0.292883
N32	N	1.533663	0.163071	-0.292935
C33	C	1.634841	0.061916	0.529525
C34	C	1.624687	0.072079	0.647867
C35	C	1.452784	0.243902	0.647912
C36	C	1.462939	0.233739	0.529570
C37	C	1.553971	0.142744	0.470380
C38	C	1.564131	0.132588	0.352036
C39	C	1.392223	0.304404	0.352083
C40	C	1.382069	0.314568	0.470426
H41	H	0.927728	0.088982	0.170998
H42	H	1.734369	-0.259543	-0.000132
C43	C	1.364107	-0.186091	0.198503
H44	H	1.400874	-0.214665	0.264307
H45	H	1.277550	-0.205824	0.199173
H46	H	1.366478	-0.095878	0.197357
H47	H	1.089155	0.287610	-0.171090
C48	C	1.068146	0.337686	0.198507
H49	H	1.121110	0.285134	0.242164
H50	H	0.991137	0.369235	0.242443
H51	H	1.112392	0.407859	0.176221
H52	H	1.632920	-0.419755	-0.171099
C53	C	1.618734	-0.403179	0.198501
H54	H	1.705658	-0.384695	0.198375
H55	H	1.615155	-0.493353	0.198116
H56	H	1.571663	-0.362075	0.264328
C57	C	1.398306	-0.220590	-0.198808
H58	H	1.401158	-0.130295	-0.198192
H59	H	1.311636	-0.239794	-0.199079
H60	H	1.445947	-0.261202	-0.264552
C61	C	0.949007	0.038910	-0.198813
H62	H	0.858599	0.036979	-0.198196
H63	H	0.989189	-0.046200	-0.199087
H64	H	0.979176	0.076852	-0.264556
H65	H	1.307949	0.388651	0.518631
H66	H	1.638257	0.058499	0.303845
C67	C	1.246093	-0.372278	-0.000147
H68	H	1.209691	-0.343543	-0.066055
H69	H	1.197924	-0.331061	0.065077
H70	H	1.244345	-0.462610	0.000473
C71	C	1.734973	-0.038167	0.464413
H72	H	1.781681	-0.084854	0.516588
H73	H	1.792445	0.004268	0.418236
H74	H	1.692559	-0.095680	0.418258
H75	H	1.690537	0.006259	0.696019
C76	C	1.352580	0.343909	0.713028
H77	H	1.305838	0.390568	0.660857
H78	H	1.394906	0.401443	0.759229
H79	H	1.295133	0.301382	0.759160
C80	C	1.303262	0.393324	0.287028
H81	H	1.247603	0.448977	0.339232
H82	H	1.253707	0.342970	0.240866
H83	H	1.353606	0.442906	0.240862
C84	C	0.884141	0.445446	-0.000154
H85	H	0.913609	0.483447	-0.066101
H86	H	0.903462	0.495369	0.065031
H87	H	0.793911	0.442091	0.000506
C88	C	1.132445	-0.069138	-0.000161
H89	H	1.114186	-0.118456	-0.066070
H90	H	1.101811	-0.107729	0.065062
H91	H	1.222595	-0.065895	0.000460
