data_functionalizedCrystal
_audit_creation_method	'MofGen! by Chris Wilmer'
_symmetry_space_group_name_H-M	'P1'
_symmetry_Int_Tables_number	1
_symmetry_cell_setting	triclinic
loop_
_symmetry_equiv_pos_as_xyz
  x,y,z
_cell_length_a	27.732064
_cell_length_b	15.944551
_cell_length_c	14.421503
_cell_angle_alpha	90.011571
_cell_angle_beta	89.994262
_cell_angle_gamma	96.925919
loop_
_atom_site_label
_atom_site_type_symbol
_atom_site_fract_x
_atom_site_fract_y
_atom_site_fract_z
O1	O	0.062336	-1.113702	0.077006
O2	O	0.070022	-0.869053	0.077028
O3	O	-0.004184	-0.998968	0.077020
O4	O	0.136543	-0.983786	0.077014
O5	O	-0.004179	-0.998984	-0.077203
O6	O	0.070027	-0.869068	-0.077195
O7	O	0.062341	-1.113718	-0.077217
Cu8	Cu	0.066185	-0.991394	-0.091288
Cu9	Cu	0.066179	-0.991376	0.091099
O10	O	0.136547	-0.983802	-0.077209
C11	C	0.069706	-0.837771	-0.000080
C12	C	0.068749	-0.744537	-0.000072
C13	C	0.062658	-1.145000	-0.000106
C14	C	0.063614	-1.238233	-0.000109
C15	C	-0.022190	-0.998655	-0.000088
C16	C	-0.075848	-0.997689	-0.000080
C17	C	-0.453282	-0.914339	-0.000069
C18	C	-0.251606	-0.917895	-0.000068
O19	O	-0.220634	-0.853217	-0.000025
N20	N	-0.232145	-0.994932	-0.000075
C21	C	-0.263107	-1.071086	-0.000075
O22	O	-0.241926	-1.136693	-0.000072
C23	C	-0.464781	-1.067530	-0.000070
C24	C	-0.484239	-0.990487	-0.000072
C25	C	-0.472741	-0.837303	-0.000070
C26	C	-0.523157	-0.836414	-0.000075
C27	C	-0.554114	-0.912563	-0.000079
C28	C	-0.534655	-0.989599	-0.000078
C29	C	-0.495742	-1.143683	-0.000064
C30	C	-0.546163	-1.142787	-0.000060
C31	C	-0.565621	-1.065744	-0.000063
C32	C	-0.616029	-1.064859	-0.000087
N33	N	-0.635490	-0.987822	-0.000080
C34	C	-0.604532	-0.911673	-0.000076
C35	C	-0.157224	-1.072948	-0.000080
C36	C	-0.106806	-1.073837	-0.000083
C37	C	-0.095309	-0.920645	-0.000074
C38	C	-0.145728	-0.919757	-0.000077
C39	C	-0.176685	-0.995910	-0.000074
C40	C	-0.710410	-0.909814	-0.000088
C41	C	-0.760831	-0.908933	-0.000097
C42	C	-0.772323	-1.062124	-0.000102
C43	C	-0.721907	-1.063006	-0.000097
C44	C	-0.690951	-0.986844	-0.000087
O45	O	-0.647030	-1.129502	-0.000119
O46	O	-0.625722	-0.846076	-0.000059
C47	C	-0.402866	-0.915227	-0.000063
C48	C	-0.383408	-0.992263	-0.000062
C49	C	-0.414365	-1.068412	-0.000066
C50	C	-0.332989	-0.993153	-0.000065
C51	C	-0.302032	-0.917004	-0.000061
C52	C	-0.321493	-0.839967	-0.000054
C53	C	-0.371909	-0.839079	-0.000060
C54	C	-0.394904	-1.145449	-0.000072
C55	C	-0.344487	-1.146331	-0.000068
C56	C	-0.313530	-1.070183	-0.000064
C57	C	0.154553	-0.984115	-0.000098
C58	C	0.208212	-0.985081	-0.000101
N59	N	0.066188	-0.991413	-0.219569
C60	C	0.020466	-0.530307	-0.000088
C61	C	0.042885	-0.468988	0.075952
C62	C	0.067018	-0.573834	-0.000082
C63	C	0.042900	-0.469026	-0.076100
C64	C	0.065343	-0.408943	-0.000097
C65	C	0.089450	-0.513743	0.076020
C66	C	0.089459	-0.513787	-0.076101
C67	C	0.111911	-0.452485	-0.000043
C68	C	0.067982	-0.668823	-0.000073
C69	C	0.064383	-0.313954	-0.000100
C70	C	0.031868	-1.051499	-0.469202
C71	C	0.022478	-0.975722	-0.530991
C72	C	0.066182	-0.991395	-0.408731
C73	C	0.075544	-1.067155	-0.531035
C74	C	0.066176	-0.991384	-0.591452
C75	C	0.056771	-0.915579	-0.469159
C76	C	0.109856	-1.007062	-0.469198
C77	C	0.100485	-0.931229	-0.530959
C78	C	0.066185	-0.991402	-0.303469
C79	C	0.066173	-0.991367	-0.696711
N80	N	0.066171	-0.991364	0.219380
H81	H	-0.776671	-0.846193	-0.000103
Br82	Br	0.043498	-0.808760	-0.424057
Br83	Br	0.010067	-0.435887	0.183106
H84	H	-0.685211	-0.847796	-0.000079
H85	H	0.146781	-1.020348	-0.442034
H86	H	0.083465	-1.131229	-0.558214
H87	H	-0.420105	-1.207460	-0.000074
H88	H	-0.182426	-1.134965	-0.000079
Br89	Br	0.122241	-0.546614	0.183284
H90	H	-0.447540	-0.775290	-0.000064
Br91	Br	-0.172130	-0.815196	-0.000081
Br92	Br	-0.549556	-0.731851	-0.000069
Br93	Br	-0.039085	-0.953606	-0.576222
H94	H	0.002833	-1.102275	-0.442084
H95	H	-0.479908	-1.206419	-0.000061
Br96	Br	0.176370	-0.396378	0.000019
Br97	Br	0.122254	-0.546929	-0.183257
Br98	Br	0.010074	-0.435983	-0.183244
H99	H	0.129502	-0.880341	-0.557904
H100	H	-0.070095	-0.858642	-0.000075
H101	H	-0.090968	-1.136573	-0.000096
H102	H	-0.706063	-1.125741	-0.000109
Br103	Br	-0.814346	-1.165463	-0.000116
Br104	Br	-0.398308	-0.734515	-0.000063
Br105	Br	-0.588173	-1.246145	-0.000048
Br106	Br	-0.279469	-0.736624	-0.000055
Br107	Br	-0.318087	-1.250899	-0.000066
Br108	Br	-0.043937	-0.586657	0.000034
