data_functionalizedCrystal
_audit_creation_method	'MofGen! by Chris Wilmer'
_symmetry_space_group_name_H-M	'P1'
_symmetry_Int_Tables_number	1
_symmetry_cell_setting	triclinic
loop_
_symmetry_equiv_pos_as_xyz
  x,y,z
_cell_length_a	14.519709
_cell_length_b	9.065218
_cell_length_c	8.140239
_cell_angle_alpha	89.997198
_cell_angle_beta	89.995533
_cell_angle_gamma	84.348015
loop_
_atom_site_label
_atom_site_type_symbol
_atom_site_fract_x
_atom_site_fract_y
_atom_site_fract_z
O1	O	0.135225	1.957864	-0.136622
O2	O	0.146317	1.528371	-0.136625
O3	O	0.006616	1.754505	-0.136608
O4	O	0.274926	1.731730	-0.136638
O5	O	0.006614	1.754492	0.136619
O6	O	0.146315	1.528359	0.136603
O7	O	0.135224	1.957851	0.136605
Zn8	Zn	0.140769	1.743103	0.179985
Zn9	Zn	0.140771	1.743119	-0.180004
O10	O	0.274924	1.731718	0.136589
C11	C	0.145250	1.473398	-0.000011
C12	C	0.142063	1.309615	-0.000012
C13	C	-0.027752	1.753437	0.000005
C14	C	-0.130157	1.750257	0.000006
C15	C	-0.505138	1.738547	-0.000036
C16	C	-0.400807	1.741799	-0.000024
C17	C	-0.317651	1.744402	-0.000014
C18	C	-0.213313	1.747654	-0.000004
C19	C	0.309293	1.732785	-0.000028
C20	C	0.411697	1.735966	-0.000040
C21	C	0.136290	2.012824	-0.000012
C22	C	0.139478	2.176607	-0.000022
N23	N	0.140767	1.743103	0.425667
N24	N	0.140766	1.743132	-0.425687
