data_functionalizedCrystal
_audit_creation_method	'MofGen! by Chris Wilmer'
_symmetry_space_group_name_H-M	'P1'
_symmetry_Int_Tables_number	1
_symmetry_cell_setting	triclinic
loop_
_symmetry_equiv_pos_as_xyz
  x,y,z
_cell_length_a	17.699083
_cell_length_b	16.109293
_cell_length_c	16.776229
_cell_angle_alpha	90.004112
_cell_angle_beta	90.006081
_cell_angle_gamma	96.629358
loop_
_atom_site_label
_atom_site_type_symbol
_atom_site_fract_x
_atom_site_fract_y
_atom_site_fract_z
O1	O	0.097259	-1.102954	0.066353
O2	O	0.597259	-0.602954	0.566353
O3	O	0.109372	-0.860870	0.066341
O4	O	0.609372	-0.360870	0.566341
O5	O	-0.006864	-0.988751	0.066340
O6	O	0.493136	-0.488751	0.566340
O7	O	0.213495	-0.975072	0.066353
O8	O	0.713495	-0.475072	0.566353
O9	O	-0.006871	-0.988770	-0.066236
O10	O	0.493129	-0.488770	0.433764
O11	O	0.109365	-0.860888	-0.066236
O12	O	0.609365	-0.360888	0.433764
O13	O	0.097252	-1.102972	-0.066224
O14	O	0.597252	-0.602972	0.433776
Zn15	Zn	0.103307	-0.981933	-0.087279
Zn16	Zn	0.603307	-0.481933	0.412721
Zn17	Zn	0.103317	-0.981909	0.087396
Zn18	Zn	0.603317	-0.481909	0.587396
O19	O	0.213488	-0.975091	-0.066223
O20	O	0.713488	-0.475091	0.433777
C21	C	0.108879	-0.829905	0.000051
C22	C	0.608879	-0.329905	0.500051
C23	C	0.107411	-0.737612	0.000046
C24	C	0.607411	-0.237612	0.500046
C25	C	-0.035065	-0.988270	0.000052
C26	C	0.464935	-0.488270	0.500052
C27	C	-0.119085	-0.986800	0.000051
C28	C	0.380915	-0.486800	0.500051
C29	C	-0.167601	-1.061864	0.000054
C30	C	0.332399	-0.561864	0.500054
C31	C	-0.246546	-1.060477	0.000061
C32	C	0.253454	-0.560477	0.500061
C33	C	-0.276974	-0.984026	0.000060
C34	C	0.223026	-0.484026	0.500060
C35	C	-0.228452	-0.908956	0.000059
C36	C	0.271548	-0.408956	0.500059
C37	C	-0.149509	-0.910344	0.000058
C38	C	0.350491	-0.410344	0.500058
C39	C	-0.546823	-0.903359	0.000065
C40	C	-0.046823	-0.403359	0.500065
C41	C	-0.625773	-0.901978	0.000064
C42	C	-0.125773	-0.401978	0.500064
C43	C	-0.643861	-1.053492	0.000068
C44	C	-0.143861	-0.553492	0.500068
C45	C	-0.564917	-1.054880	0.000067
C46	C	-0.064917	-0.554880	0.500067
C47	C	-0.516402	-0.979811	0.000071
C48	C	-0.016402	-0.479811	0.500071
C49	C	-0.430801	-0.981315	0.000065
C50	C	0.069199	-0.481315	0.500065
C51	C	-0.362574	-0.982521	0.000060
C52	C	0.137426	-0.482521	0.500060
C53	C	0.104012	-0.525286	-0.072219
C54	C	0.604012	-0.025286	0.427781
C55	C	0.102625	-0.438568	-0.072218
C56	C	0.602625	0.061432	0.427782
C57	C	0.102637	-0.438558	0.072324
C58	C	0.602637	0.061442	0.572324
C59	C	0.104019	-0.525276	0.072322
C60	C	0.604019	-0.025276	0.572322
C61	C	0.104711	-0.568637	0.000049
C62	C	0.604711	-0.068637	0.500049
C63	C	0.101941	-0.395201	0.000051
C64	C	0.601941	0.104799	0.500051
C65	C	0.100437	-0.301178	0.000052
C66	C	0.600437	0.198822	0.500052
C67	C	0.106214	-0.662666	0.000047
C68	C	0.606214	-0.162666	0.500047
C69	C	0.241689	-0.975572	0.000067
C70	C	0.741689	-0.475572	0.500067
C71	C	0.325709	-0.977042	0.000073
C72	C	0.825709	-0.477042	0.500073
C73	C	0.097752	-0.133936	0.000062
C74	C	0.597752	0.366064	0.500062
C75	C	0.099241	-0.226226	0.000053
C76	C	0.599241	0.273774	0.500053
N77	N	0.103318	-0.981893	0.206607
N78	N	0.603318	-0.481893	0.706607
C79	C	0.051939	-1.038676	0.751772
C80	C	0.551939	-0.538676	1.251772
C81	C	0.051939	-1.038666	0.668320
C82	C	0.551939	-0.538666	1.168320
C83	C	0.103304	-0.981930	0.626607
C84	C	0.603304	-0.481930	1.126607
C85	C	0.154668	-0.925193	0.668350
C86	C	0.654668	-0.425193	1.168350
C87	C	0.154665	-0.925200	0.751801
C88	C	0.654665	-0.425200	1.251801
C89	C	0.154683	-0.925166	0.331803
C90	C	0.654683	-0.425166	0.831803
C91	C	0.154684	-0.925166	0.248347
C92	C	0.654684	-0.425166	0.748347
C93	C	0.051957	-1.038633	0.248322
C94	C	0.551957	-0.538633	0.748322
C95	C	0.051954	-1.038639	0.331772
C96	C	0.551954	-0.538639	0.831772
C97	C	0.103315	-0.981900	0.373509
C98	C	0.603315	-0.481900	0.873509
C99	C	0.103314	-0.981910	0.463997
C100	C	0.603314	-0.481910	0.963997
C101	C	0.103309	-0.981923	0.536120
C102	C	0.603309	-0.481923	1.036120
N103	N	0.103301	-0.981946	0.793510
N104	N	0.603301	-0.481946	1.293510
H105	H	-0.286045	-1.121601	0.000061
H106	H	0.213955	-0.621601	0.500061
H107	H	0.196488	-0.879003	0.785783
H108	H	0.696488	-0.379003	1.285783
H109	H	-0.507331	-0.842233	0.000069
H110	H	-0.007331	-0.342233	0.500069
C111	C	-0.193419	-1.211495	0.000071
C112	C	0.306581	-0.711495	0.500071
C113	C	-0.134159	-1.145903	0.000061
C114	C	0.365841	-0.645903	0.500061
H115	H	-0.172773	-1.263377	0.000083
H116	H	0.327227	-0.763377	0.500083
H117	H	-0.223836	-1.207812	-0.046160
H118	H	0.276164	-0.707812	0.453840
H119	H	-0.223829	-1.207784	0.046305
H120	H	0.276171	-0.707784	0.546305
H121	H	-0.103752	-1.149609	-0.046177
H122	H	0.396248	-0.649609	0.453823
H123	H	-0.103729	-1.149587	0.046296
H124	H	0.396271	-0.649587	0.546296
H125	H	0.102057	-0.403276	-0.131066
H126	H	0.602057	0.096724	0.368934
H127	H	0.196489	-0.878993	0.634383
H128	H	0.696489	-0.378993	1.134383
H129	H	-0.253233	-0.846709	0.000063
H130	H	0.246767	-0.346709	0.500063
H131	H	0.196505	-0.878969	0.365778
H132	H	0.696505	-0.378969	0.865778
H133	H	0.010115	-1.084881	0.785729
H134	H	0.510115	-0.584881	1.285729
C135	C	0.170880	-0.811978	0.154505
C136	C	0.670880	-0.311978	0.654505
C137	C	0.211144	-0.862792	0.202491
C138	C	0.711144	-0.362792	0.702491
H139	H	0.205735	-0.773478	0.126192
H140	H	0.705735	-0.273478	0.626192
H141	H	0.139313	-0.782216	0.187058
H142	H	0.639313	-0.282216	0.687058
H143	H	0.140295	-0.845780	0.117710
H144	H	0.640295	-0.345780	0.617710
H145	H	0.241725	-0.828990	0.239289
H146	H	0.741725	-0.328990	0.739289
H147	H	0.242724	-0.892556	0.169934
H148	H	0.742724	-0.392556	0.669934
H149	H	0.104575	-0.560588	-0.131069
H150	H	0.604575	-0.060588	0.368931
C151	C	-0.109777	-0.781616	0.068205
C152	C	0.390223	-0.281616	0.568205
C153	C	-0.096177	-0.827831	0.000054
C154	C	0.403823	-0.327831	0.500054
H155	H	-0.076855	-0.730673	0.068201
H156	H	0.423145	-0.230673	0.568201
H157	H	-0.100548	-0.812967	0.114428
H158	H	0.399452	-0.312967	0.614428
H159	H	-0.161149	-0.769854	0.068194
H160	H	0.338851	-0.269854	0.568194
H161	H	-0.044806	-0.839598	0.000067
H162	H	0.455194	-0.339598	0.500067
H163	H	-0.105400	-0.796474	-0.046182
H164	H	0.394600	-0.296474	0.453818
C165	C	-0.590729	-1.204512	0.000081
C166	C	-0.090729	-0.704512	0.500081
C167	C	-0.531472	-1.138917	0.000072
C168	C	-0.031472	-0.638917	0.500072
H169	H	-0.570080	-1.256393	0.000092
H170	H	-0.070080	-0.756393	0.500092
H171	H	-0.621146	-1.200830	-0.046149
H172	H	-0.121146	-0.700830	0.453851
H173	H	-0.621139	-1.200805	0.046316
H174	H	-0.121139	-0.700805	0.546316
H175	H	-0.501065	-1.142621	-0.046166
H176	H	-0.001065	-0.642621	0.453834
H177	H	-0.501042	-1.142601	0.046307
H178	H	-0.001042	-0.642601	0.546307
C179	C	0.103902	-0.516561	0.215203
C180	C	0.603902	-0.016561	0.715203
C181	C	0.104790	-0.572933	0.151765
C182	C	0.604790	-0.072933	0.651765
H183	H	0.104380	-0.545984	0.264244
H184	H	0.604380	-0.045984	0.764244
H185	H	0.059255	-0.489170	0.212199
H186	H	0.559255	0.010830	0.712199
H187	H	0.147476	-0.476306	0.212193
H188	H	0.647476	0.023694	0.712193
H189	H	0.061213	-0.613184	0.154771
H190	H	0.561213	-0.113184	0.654771
H191	H	0.149441	-0.600337	0.154770
H192	H	0.649441	-0.100337	0.654770
H193	H	-0.683372	-1.114617	0.000069
H194	H	-0.183372	-0.614617	0.500069
H195	H	0.010133	-1.084830	0.214331
H196	H	0.510133	-0.584830	0.714331
C197	C	0.100533	-0.305621	0.136506
C198	C	0.600533	0.194379	0.636506
C199	C	0.101888	-0.390891	0.151764
C200	C	0.601888	0.109109	0.651764
H201	H	0.100077	-0.276195	0.185552
H202	H	0.600077	0.223805	0.685552
H203	H	0.056196	-0.297844	0.106819
H204	H	0.556196	0.202156	0.606819
H205	H	0.144416	-0.284991	0.106811
H206	H	0.644416	0.215009	0.606811
H207	H	0.058001	-0.411522	0.181455
H208	H	0.558001	0.088478	0.681455
H209	H	0.146229	-0.398673	0.181464
H210	H	0.646229	0.101327	0.681464
C211	C	-0.079029	-1.087909	0.357273
C212	C	0.420971	-0.587909	0.857273
C213	C	-0.004576	-1.101001	0.377545
C214	C	0.495424	-0.601001	0.877545
H215	H	-0.113948	-1.126405	0.385512
H216	H	0.386052	-0.626405	0.885512
H217	H	-0.086305	-1.095976	0.301592
H218	H	0.413695	-0.595976	0.801592
H219	H	-0.087329	-1.032468	0.370982
H220	H	0.412671	-0.532468	0.870982
H221	H	0.003725	-1.156441	0.363831
H222	H	0.503725	-0.656441	0.863831
H223	H	0.002703	-1.092941	0.433239
H224	H	0.502703	-0.592941	0.933239
C225	C	-0.599967	-0.752338	0.000083
C226	C	-0.099967	-0.252338	0.500083
C227	C	-0.659221	-0.817936	0.000073
C228	C	-0.159221	-0.317936	0.500073
H229	H	-0.620619	-0.700458	0.000093
H230	H	-0.120619	-0.200458	0.500093
H231	H	-0.569559	-0.756026	-0.046147
H232	H	-0.069559	-0.256026	0.453853
H233	H	-0.569547	-0.756035	0.046318
H234	H	-0.069547	-0.256035	0.546318
H235	H	-0.689638	-0.814243	-0.046165
H236	H	-0.189638	-0.314243	0.453835
H237	H	-0.689642	-0.814246	0.046308
H238	H	-0.189642	-0.314246	0.546308
C239	C	-0.049584	-1.150850	0.676677
C240	C	0.450416	-0.650850	1.176677
C241	C	-0.004508	-1.101039	0.622442
C242	C	0.495492	-0.601039	1.122442
H243	H	-0.084428	-1.189363	0.648352
H244	H	0.415572	-0.689363	1.148352
H245	H	-0.076895	-1.116374	0.709221
H246	H	0.423105	-0.616374	1.209221
H247	H	-0.017998	-1.180604	0.709232
H248	H	0.482002	-0.680604	1.209232
H249	H	-0.036094	-1.071280	0.589891
H250	H	0.463906	-0.571280	1.089891
H251	H	0.022804	-1.135519	0.589884
H252	H	0.522804	-0.635519	1.089884
