data_functionalizedCrystal
_audit_creation_method	'MofGen! by Chris Wilmer'
_symmetry_space_group_name_H-M	'P1'
_symmetry_Int_Tables_number	1
_symmetry_cell_setting	triclinic
loop_
_symmetry_equiv_pos_as_xyz
  x,y,z
_cell_length_a	15.944551
_cell_length_b	15.995350
_cell_length_c	15.021413
_cell_angle_alpha	90.004882
_cell_angle_beta	90.009811
_cell_angle_gamma	96.504444
loop_
_atom_site_label
_atom_site_type_symbol
_atom_site_fract_x
_atom_site_fract_y
_atom_site_fract_z
O1	O	-1.114505	0.107995	0.073931
O2	O	-0.869955	0.121309	0.073952
O3	O	-0.998915	-0.007235	0.073944
O4	O	-0.985545	0.236539	0.073939
O5	O	-0.998929	-0.007252	-0.074120
O6	O	-0.869969	0.121292	-0.074112
O7	O	-1.114520	0.107978	-0.074133
Zn8	Zn	-0.992247	0.114632	-0.097631
Zn9	Zn	-0.992228	0.114655	0.097450
O10	O	-0.985560	0.236522	-0.074126
C11	C	-0.838668	0.120748	-0.000077
C12	C	-0.745422	0.119091	-0.000069
C13	C	-0.998370	-0.038438	-0.000085
C14	C	-0.996712	-0.131389	-0.000076
C15	C	-1.145806	0.108539	-0.000102
C16	C	-1.239052	0.110196	-0.000105
C17	C	-0.530570	0.035452	-0.000084
C18	C	-0.469541	0.074300	0.072919
C19	C	-0.574697	0.116093	-0.000079
C20	C	-0.469577	0.074302	-0.073061
C21	C	-0.409784	0.113192	-0.000093
C22	C	-0.514895	0.154963	0.072984
C23	C	-0.514938	0.154953	-0.073062
C24	C	-0.453926	0.193859	-0.000041
C25	C	-0.669699	0.117762	-0.000070
C26	C	-0.314783	0.111529	-0.000096
C27	C	-0.986105	0.267726	-0.000094
C28	C	-0.987762	0.360676	-0.000097
N29	N	-0.992266	0.114616	-0.230769
C30	C	-0.993713	0.698424	-0.000084
C31	C	-1.085556	0.650995	0.000239
C32	C	-1.083899	0.554305	-0.000100
C33	C	-0.990761	0.530863	-0.000090
C34	C	-0.945469	0.571934	-0.084635
C35	C	-0.947777	0.668570	-0.084701
C36	C	-0.945863	0.668937	0.083676
C37	C	-0.945885	0.571991	0.084789
C38	C	-0.989088	0.436166	-0.000096
C39	C	-0.995384	0.793122	-0.000083
N40	N	-0.992216	0.114664	0.230588
C41	C	-0.932473	0.173983	0.470269
C42	C	-0.916366	0.098261	0.529609
C43	C	-0.992232	0.114646	0.412194
C44	C	-1.008316	0.190351	0.529596
C45	C	-0.992246	0.114636	0.587618
C46	C	-0.976088	0.038887	0.470228
C47	C	-1.068071	0.131026	0.470210
C48	C	-1.051997	0.055250	0.529523
C49	C	-0.992222	0.114654	0.311137
C50	C	-0.992257	0.114620	0.688674
H51	H	-0.563907	-0.031473	0.000008
Cl52	Cl	-0.402721	0.297291	0.000016
H53	H	-0.535073	0.189026	-0.134785
Cl54	Cl	-0.992207	0.700664	0.182616
H55	H	-0.534875	0.189052	0.134769
H56	H	-0.976946	0.543559	-0.147560
Cl57	Cl	-0.996939	0.529850	0.181358
H58	H	-1.119750	0.526439	-0.060818
Cl59	Cl	-1.142227	0.679611	0.093850
Cl60	Cl	-0.841315	0.717962	0.084567
Cl61	Cl	-0.854392	0.251374	0.430094
Cl62	Cl	-0.998787	0.696827	-0.182286
H63	H	-0.852238	0.084401	0.555706
H64	H	-0.962415	-0.025154	0.444260
H65	H	-1.122141	0.670665	-0.060000
H66	H	-1.102543	0.005011	0.555377
H67	H	-1.021925	0.254379	0.555658
Cl68	Cl	-0.438487	0.021655	0.168212
Cl69	Cl	-0.839825	0.550122	-0.089483
H70	H	-1.119507	0.525887	0.060502
H71	H	-1.132179	0.144915	0.444098
H72	H	-0.880348	0.700814	-0.088538
Cl73	Cl	-0.438580	0.021611	-0.168347
H74	H	-0.877966	0.556621	0.089904
