data_functionalizedCrystal
_audit_creation_method	'MofGen! by Chris Wilmer'
_symmetry_space_group_name_H-M	'P1'
_symmetry_Int_Tables_number	1
_symmetry_cell_setting	triclinic
loop_
_symmetry_equiv_pos_as_xyz
  x,y,z
_cell_length_a	11.792254
_cell_length_b	10.268362
_cell_length_c	14.971486
_cell_angle_alpha	89.994507
_cell_angle_beta	96.093637
_cell_angle_gamma	90.004525
loop_
_atom_site_label
_atom_site_type_symbol
_atom_site_fract_x
_atom_site_fract_y
_atom_site_fract_z
O1	O	1.506109	0.108300	-0.122652
O2	O	1.175688	0.108303	-0.135275
O3	O	1.349755	0.108292	0.001201
O4	O	1.332043	0.108311	-0.259128
O5	O	1.349740	-0.108309	0.001207
O6	O	1.175673	-0.108298	-0.135269
O7	O	1.506094	-0.108301	-0.122646
Cu8	Cu	1.340882	-0.128077	-0.128957
Cu9	Cu	1.340900	0.128079	-0.128964
O10	O	1.332027	-0.108290	-0.259122
C11	C	1.133395	0.000003	-0.134477
C12	C	1.007398	0.000004	-0.132097
C13	C	0.905073	0.000009	-0.130163
C14	C	0.776702	0.000010	-0.127745
N15	N	1.340878	-0.308243	-0.128952
C16	C	1.340894	-0.573913	-0.128962
C17	C	1.340881	-0.426075	-0.128959
C18	C	1.548387	0.000002	-0.123444
C19	C	1.674385	0.000010	-0.125824
C20	C	1.348955	-0.000008	0.034532
C21	C	1.346581	-0.000007	0.133838
N22	N	1.340913	0.308245	-0.128962
C23	C	1.332827	0.000013	-0.292453
C24	C	1.335201	0.000020	-0.391759
C25	C	1.448841	-0.000009	0.190650
C26	C	1.446603	0.000004	0.283959
C27	C	1.342106	0.000010	0.320454
C28	C	1.239839	0.000016	0.263634
C29	C	1.242077	0.000012	0.170328
C30	C	1.235180	0.000021	0.458116
C31	C	1.232942	0.000022	0.551429
C32	C	1.439707	0.000013	0.571747
C33	C	1.441945	0.000009	0.478440
C34	C	1.339678	0.000013	0.421627
H35	H	1.533935	-0.000021	0.160944
H36	H	1.151903	0.000027	0.411860
F37	F	1.555442	0.000000	0.344419
F38	F	1.121724	0.000026	0.590267
H39	H	1.158807	0.000014	0.124072
F40	F	1.128624	0.000037	0.302477
F41	F	1.553163	0.000006	0.439602
H42	H	1.522977	0.000014	0.618009
