data_functionalizedCrystal
_audit_creation_method	'MofGen! by Chris Wilmer'
_symmetry_space_group_name_H-M	'P1'
_symmetry_Int_Tables_number	1
_symmetry_cell_setting	triclinic
loop_
_symmetry_equiv_pos_as_xyz
  x,y,z
_cell_length_a	19.188930
_cell_length_b	23.532357
_cell_length_c	17.666332
_cell_angle_alpha	89.987974
_cell_angle_beta	89.976766
_cell_angle_gamma	82.986534
loop_
_atom_site_label
_atom_site_type_symbol
_atom_site_fract_x
_atom_site_fract_y
_atom_site_fract_z
O1	O	0.925907	0.071104	-0.063201
O2	O	0.722563	0.080675	-0.063150
O3	O	0.830385	-0.007031	-0.063161
O4	O	0.818085	0.158810	-0.063189
O5	O	0.830366	-0.007036	0.062735
O6	O	0.722544	0.080671	0.062747
O7	O	0.925888	0.071099	0.062696
Cu8	Cu	0.824215	0.075885	0.074217
Cu9	Cu	0.824237	0.075890	-0.074671
O10	O	0.818066	0.158806	0.062707
C11	C	0.696544	0.080363	-0.000195
C12	C	0.619042	0.079433	-0.000175
C13	C	0.830068	-0.028251	-0.000211
C14	C	0.829143	-0.091471	-0.000203
C15	C	0.573943	0.130896	-0.000196
C16	C	0.501122	0.130022	-0.000204
C17	C	0.473404	0.077681	-0.000206
C18	C	0.518513	0.026211	-0.000182
C19	C	0.591333	0.027087	-0.000166
N20	N	0.365567	0.037675	-0.043078
N21	N	0.296391	0.036847	-0.043095
C22	C	0.254004	0.075040	-0.000252
N23	N	0.283406	0.114101	0.042598
N24	N	0.352587	0.114931	0.042611
C25	C	0.394445	0.076726	-0.000223
C26	C	0.129944	0.125559	-0.000281
C27	C	0.057122	0.124683	-0.000284
C28	C	0.074515	0.020871	-0.000270
C29	C	0.147335	0.021749	-0.000259
C30	C	0.175045	0.074094	-0.000268
C31	C	0.823346	-0.483492	-0.068869
C32	C	0.822467	-0.542894	-0.068873
O33	O	0.821997	-0.573609	-0.127237
N34	N	0.822021	-0.572608	-0.000248
C35	C	0.822447	-0.542918	0.068387
O36	O	0.821986	-0.573647	0.126757
C37	C	0.823321	-0.483517	0.068390
C38	C	0.823774	-0.453806	-0.000240
C39	C	0.823799	-0.453781	-0.137493
C40	C	0.824679	-0.394384	-0.137489
C41	C	0.825107	-0.364698	-0.068860
C42	C	0.824655	-0.394409	-0.000236
C43	C	0.823742	-0.453827	0.137023
C44	C	0.824616	-0.394422	0.137021
C45	C	0.825069	-0.364711	0.068391
C46	C	0.825963	-0.305326	0.068397
N47	N	0.826410	-0.275611	-0.000228
C48	C	0.825982	-0.305297	-0.068857
C49	C	0.820609	-0.667663	0.068374
C50	C	0.819740	-0.727063	0.068372
C51	C	0.819759	-0.727035	-0.068888
C52	C	0.820633	-0.667634	-0.068885
C53	C	0.821056	-0.637949	-0.000251
C54	C	0.827831	-0.180559	-0.068842
C55	C	0.828715	-0.121157	-0.068832
C56	C	0.828692	-0.121190	0.068427
C57	C	0.827812	-0.180588	0.068417
C58	C	0.827380	-0.210270	-0.000224
O59	O	0.826431	-0.274573	0.126731
O60	O	0.826433	-0.274560	-0.127218
C61	C	0.951908	0.071411	-0.000261
C62	C	1.029409	0.072342	-0.000286
C63	C	0.818383	0.180025	-0.000245
C64	C	0.819308	0.243246	-0.000257
N65	N	0.824204	0.075880	0.178936
N66	N	0.824253	0.075890	-0.179390
C67	C	0.871963	0.037063	0.218541
C68	C	0.871967	0.037060	0.297789
C69	C	0.824219	0.075885	0.337428
C70	C	0.776451	0.114705	0.297814
C71	C	0.776444	0.114703	0.218568
N72	N	0.814971	0.126301	0.461840
N73	N	0.814982	0.126301	0.537120
C74	C	0.824237	0.075893	0.576192
N75	N	0.833495	0.025482	0.537140
N76	N	0.833487	0.025482	0.461853
C77	C	0.824221	0.075891	0.423357
C78	C	0.872003	0.037069	0.701726
C79	C	0.872002	0.037065	0.780975
C80	C	0.776490	0.114715	0.780999
C81	C	0.776487	0.114714	0.701752
C82	C	0.824248	0.075891	0.662120
H83	H	0.596499	0.173520	-0.000204
H84	H	0.910859	0.005449	0.330041
H85	H	0.824949	-0.370254	0.192912
N86	N	0.490216	-0.027258	-0.000178
N87	N	0.504142	-0.061915	0.052900
H88	H	0.484159	-0.099680	0.052906
H89	H	0.823448	-0.477945	-0.193382
N90	N	0.727713	0.154365	0.821492
N91	N	0.727722	0.154360	0.892247
H92	H	0.693270	0.182361	0.920850
N93	N	0.158266	0.179021	-0.000272
N94	N	0.223283	0.179796	-0.000261
H95	H	0.243286	0.217554	-0.000254
H96	H	0.737573	0.146316	0.330093
H97	H	0.051948	-0.021746	-0.000319
N98	N	0.821076	-0.637287	-0.138988
N99	N	0.772340	-0.598767	-0.154293
H100	H	0.772650	-0.577336	-0.203807
H101	H	0.823374	-0.478007	0.192909
H102	H	0.819408	-0.751216	-0.124769
N103	N	0.727698	0.154370	0.661304
N104	N	0.685065	0.189030	0.696702
H105	H	0.650603	0.217038	0.668137
N106	N	0.825121	-0.364037	-0.207593
N107	N	0.776386	-0.325516	-0.222894
H108	H	0.776695	-0.304085	-0.272408
N109	N	0.727660	0.154367	0.178122
N110	N	0.728237	0.207007	0.186959
H111	H	0.693784	0.235022	0.158394
N112	N	0.455053	0.182598	-0.000221
N113	N	0.479803	0.229329	-0.000224
H114	H	0.447270	0.266462	-0.000236
H115	H	0.910891	0.005455	0.669457
H116	H	0.020402	0.166592	-0.000297
N117	N	0.819293	-0.757401	0.138483
N118	N	0.819679	-0.730882	0.199750
H119	H	0.819360	-0.752305	0.249269
H120	H	0.827450	-0.204780	0.124301
H121	H	0.820955	-0.643497	0.124267
N122	N	0.920789	-0.002597	0.821422
N123	N	0.963423	-0.037255	0.786023
H124	H	0.997880	-0.065268	0.814588
H125	H	0.829044	-0.097010	0.124303
H126	H	0.628054	-0.014822	-0.000150
H127	H	0.184056	-0.020159	-0.000246
H128	H	0.827476	-0.204720	-0.124737
N129	N	0.829184	-0.090819	-0.138946
N130	N	0.828801	-0.117336	-0.200215
H131	H	0.829132	-0.095912	-0.249732
N132	N	0.920810	-0.002548	0.178071
N133	N	0.963488	-0.037173	0.213449
H134	H	0.998009	-0.065131	0.184866
