data_functionalizedCrystal
_audit_creation_method	'MofGen! by Chris Wilmer'
_symmetry_space_group_name_H-M	'P1'
_symmetry_Int_Tables_number	1
_symmetry_cell_setting	triclinic
loop_
_symmetry_equiv_pos_as_xyz
  x,y,z
_cell_length_a	14.044220
_cell_length_b	10.654550
_cell_length_c	12.503552
_cell_angle_alpha	93.557060
_cell_angle_beta	86.160057
_cell_angle_gamma	88.836890
loop_
_atom_site_label
_atom_site_type_symbol
_atom_site_fract_x
_atom_site_fract_y
_atom_site_fract_z
O1	O	0.127796	1.687871	0.089317
O2	O	0.140489	1.323668	0.089321
O3	O	-0.003877	1.500302	0.089309
O4	O	0.272163	1.511237	0.089330
O5	O	0.006990	1.487002	-0.089333
O6	O	0.151356	1.310368	-0.089320
O7	O	0.138663	1.674571	-0.089324
Cu8	Cu	0.146002	1.491255	-0.105634
Cu9	Cu	0.133151	1.506984	0.105631
O10	O	0.283029	1.497937	-0.089312
C11	C	-0.033790	1.488866	-0.000013
C12	C	-0.139109	1.474591	-0.000014
C13	C	0.144991	1.270127	0.000001
C14	C	0.142202	1.130403	0.000002
C15	C	0.134161	1.728113	-0.000002
C16	C	0.136949	1.867837	0.000004
C17	C	-0.331943	1.448493	0.000002
C18	C	-0.388911	1.549741	0.000004
C19	C	-0.496210	1.535220	0.000013
C20	C	-0.224634	1.463012	-0.000007
C21	C	0.312942	1.509373	0.000012
C22	C	0.418261	1.523649	0.000020
N23	N	0.155040	1.480202	-0.254226
C24	C	0.051948	1.938780	0.000002
C25	C	0.054575	2.070065	-0.000003
C26	C	0.227210	2.059450	0.000001
C27	C	0.224583	1.928167	-0.000002
C28	C	-0.035685	1.878450	0.000008
C29	C	-0.120693	1.949394	0.000007
C30	C	-0.118067	2.080678	0.000002
C31	C	-0.030433	2.141018	-0.000002
C32	C	0.110806	1.534299	-0.526663
C33	C	0.168336	1.463953	-0.473334
C34	C	0.160936	1.472996	-0.351411
C35	C	0.118204	1.525257	-0.648597
N36	N	0.124105	1.518046	0.254223
H37	H	-0.363754	1.350914	0.000006
C38	C	0.316969	1.851358	0.000063
C39	C	0.394275	1.932292	0.000099
C40	C	0.479396	1.861581	0.000170
H41	H	0.323455	1.795275	-0.062216
H42	H	0.315791	1.804586	0.062385
H43	H	0.395454	1.979042	-0.062216
H44	H	0.387821	1.988375	0.062373
H45	H	0.478218	1.814809	0.062491
H46	H	0.485872	1.805501	-0.062111
H47	H	0.531857	1.916484	0.000204
H48	H	0.056001	1.601313	-0.480757
C49	C	0.241283	1.374509	-0.534677
C50	C	0.194125	1.287174	-0.599276
C51	C	0.261293	1.204777	-0.655815
H52	H	0.276441	1.331437	-0.485305
H53	H	0.283672	1.420937	-0.578602
H54	H	0.151753	1.240751	-0.555355
H55	H	0.158971	1.330210	-0.648669
H56	H	0.303682	1.251205	-0.699740
H57	H	0.296447	1.161714	-0.606435
H58	H	0.229306	1.145518	-0.699660
C59	C	-0.346314	1.679754	-0.000064
C60	C	-0.246810	1.668498	-0.000102
C61	C	-0.207532	1.788232	-0.000183
H62	H	-0.370489	1.728872	0.062212
H63	H	-0.362980	1.719487	-0.062389
H64	H	-0.230152	1.628784	0.062217
H65	H	-0.222608	1.619404	-0.062373
H66	H	-0.224198	1.827965	-0.062507
H67	H	-0.231715	1.837340	0.062094
H68	H	-0.140015	1.780611	-0.000218
H69	H	-0.037833	1.771552	0.000015
H70	H	-0.192042	1.900257	0.000019
C71	C	0.322251	2.125196	0.000066
C72	C	0.306355	2.255355	0.000100
C73	C	0.393884	2.315960	0.000180
H74	H	0.361152	2.097019	-0.062210
H75	H	0.353502	2.106207	0.062391
H76	H	0.275119	2.274334	-0.062218
H77	H	0.267469	2.283568	0.062371
H78	H	0.425135	2.296971	0.062505
H79	H	0.432779	2.287773	-0.062096
H80	H	0.383111	2.404279	0.000213
H81	H	-0.187284	2.138437	-0.000010
H82	H	-0.028301	2.247918	-0.000016
