data_functionalizedCrystal
_audit_creation_method	'MofGen! by Chris Wilmer'
_symmetry_space_group_name_H-M	'P1'
_symmetry_Int_Tables_number	1
_symmetry_cell_setting	triclinic
loop_
_symmetry_equiv_pos_as_xyz
  x,y,z
_cell_length_a	19.805407
_cell_length_b	29.839131
_cell_length_c	19.805407
_cell_angle_alpha	90.023761
_cell_angle_beta	90.002724
_cell_angle_gamma	90.035228
loop_
_atom_site_label
_atom_site_type_symbol
_atom_site_fract_x
_atom_site_fract_y
_atom_site_fract_z
Zn1	Zn	1.034582	-0.178923	0.382674
Zn2	Zn	1.034512	-0.254033	0.269467
Zn3	Zn	0.921430	-0.178918	0.269499
Zn4	Zn	0.921342	-0.254027	0.382614
O5	O	0.977966	-0.216476	0.326063
O6	O	1.129289	-0.188892	0.367669
O7	O	1.019519	-0.244070	0.174755
O8	O	0.936505	-0.116052	0.284550
O9	O	1.129238	-0.244075	0.284496
O10	O	1.019637	-0.116056	0.367700
O11	O	0.936438	-0.188883	0.174778
O12	O	0.826701	-0.188877	0.284492
O13	O	0.936356	-0.244064	0.477338
O14	O	0.826637	-0.244059	0.367597
O15	O	1.019553	-0.188886	0.477383
O16	O	1.019435	-0.316900	0.284437
O17	O	0.936289	-0.316895	0.367566
C18	C	0.802110	-0.216467	0.326041
C19	C	0.726878	-0.216474	0.326048
C20	C	0.977863	-0.333198	0.326006
C21	C	0.977881	-0.383133	0.326004
C22	C	0.691519	-0.245251	0.369251
C23	C	0.620830	-0.245251	0.369260
C24	C	0.585503	-0.216478	0.326063
C25	C	0.620868	-0.187698	0.282859
C26	C	0.691555	-0.187695	0.282853
C27	C	0.335794	-0.187708	0.282881
C28	C	0.265102	-0.187714	0.282889
C29	C	0.265070	-0.245264	0.369288
C30	C	0.335757	-0.245261	0.369283
C31	C	0.371115	-0.216480	0.326081
C32	C	0.447764	-0.216479	0.326072
C33	C	0.508856	-0.216481	0.326068
C34	C	1.021244	-0.692743	0.369421
C35	C	1.021317	-0.880416	0.369462
O36	O	1.058085	-0.904653	0.406333
N37	N	0.978081	-0.903918	0.326138
C38	C	0.934821	-0.880498	0.282805
O39	O	0.898043	-0.904794	0.245962
C40	C	0.934744	-0.692826	0.282768
C41	C	0.977988	-0.669327	0.326090
C42	C	1.064484	-0.669244	0.412739
C43	C	1.064467	-0.622328	0.412726
C44	C	1.021212	-0.598912	0.369394
C45	C	0.977972	-0.622411	0.326076
C46	C	0.891481	-0.669407	0.239439
C47	C	0.891464	-0.622486	0.239435
C48	C	0.934708	-0.598987	0.282756
C49	C	0.934700	-0.552079	0.282732
N50	N	0.977936	-0.528578	0.326055
C51	C	1.021192	-0.551994	0.369386
C52	C	0.934865	-0.979029	0.282827
C53	C	0.934885	-1.025946	0.282835
C54	C	1.021381	-1.025861	0.369492
C55	C	1.021364	-0.978943	0.369480
C56	C	0.978101	-0.955527	0.326150
C57	C	1.021155	-0.453468	0.369355
C58	C	1.021137	-0.406549	0.369336
C59	C	0.934639	-0.406638	0.282681
C60	C	0.934659	-0.453554	0.282697
C61	C	0.977919	-0.476968	0.326040
O62	O	0.897946	-0.527814	0.245885
O63	O	1.057954	-0.527690	0.406235
C64	C	1.021260	-0.739658	0.369434
C65	C	0.978020	-0.763158	0.326116
C66	C	0.934765	-0.739741	0.282785
C67	C	0.978040	-0.810075	0.326124
C68	C	1.021296	-0.833492	0.369456
C69	C	1.064532	-0.809990	0.412779
C70	C	1.064516	-0.763075	0.412765
C71	C	0.891529	-0.763243	0.239461
C72	C	0.891549	-0.810158	0.239478
C73	C	0.934805	-0.833575	0.282809
C74	C	1.154509	-0.216484	0.326086
C75	C	1.229741	-0.216488	0.326095
C76	C	0.977952	-0.216475	0.502606
C77	C	0.977947	-0.216474	0.577838
C78	C	0.978088	-0.099297	0.326135
C79	C	0.978141	-0.049363	0.326166
C80	C	1.021230	-0.245216	1.039614
C81	C	1.021224	-0.245217	0.968926
C82	C	0.977966	-0.216484	0.933600
C83	C	0.934706	-0.187751	0.968966
C84	C	0.934709	-0.187754	1.039653
C85	C	0.934693	-0.187742	0.683892
C86	C	0.934694	-0.187741	0.613200
C87	C	1.021207	-0.245205	0.613165
C88	C	1.021210	-0.245207	0.683853
C89	C	0.977948	-0.216477	0.719212
C90	C	0.977954	-0.216478	0.795861
C91	C	0.977963	-0.216480	0.856953
C92	C	0.977974	-0.216486	1.150207
C93	C	0.977975	-0.216485	1.074975
H94	H	0.720277	-0.268683	0.404425
F95	F	0.888650	-0.157158	0.575605
H96	H	0.592043	-0.268685	0.404440
H97	H	0.899634	-0.959967	0.247540
H98	H	0.364517	-0.268694	0.404456
H99	H	0.720344	-0.164260	0.247677
F100	F	0.888606	-0.381708	0.236566
F101	F	0.888625	-0.157181	0.721516
F102	F	0.845452	-0.694406	0.193332
H103	H	0.856232	-0.603423	0.204151
H104	H	1.056353	-0.387417	0.404613
H105	H	0.364575	-0.164276	0.247698
H106	H	0.236272	-0.268698	0.404468
H107	H	0.236341	-0.164280	0.247712
H108	H	0.899452	-0.472688	0.247416
F109	F	0.583268	-0.157071	0.236889
F110	F	1.067263	-0.275795	0.931295
F111	F	1.067198	-0.478381	0.415484
F112	F	1.110542	-0.738071	0.458875
H113	H	0.899487	-0.164358	1.068443
H114	H	1.099755	-0.829064	0.448058
H115	H	0.856336	-0.829287	0.204194
H116	H	1.056602	-1.044935	0.404774
H117	H	1.056438	-0.268603	0.712612
F118	F	0.888674	-0.157167	0.931367
H119	H	1.099678	-0.603198	0.448004
F120	F	1.067388	-0.953937	0.415589
H121	H	1.099708	-0.688305	0.448029
H122	H	1.056459	-0.268612	1.068372
F123	F	0.888867	-1.050951	0.236718
F124	F	0.845484	-0.738328	0.193343
F125	F	1.067250	-0.275784	0.575528
