data_functionalizedCrystal
_audit_creation_method	'MofGen! by Chris Wilmer'
_symmetry_space_group_name_H-M	'P1'
_symmetry_Int_Tables_number	1
_symmetry_cell_setting	triclinic
loop_
_symmetry_equiv_pos_as_xyz
  x,y,z
_cell_length_a	10.489741
_cell_length_b	10.868271
_cell_length_c	11.792241
_cell_angle_alpha	90.005737
_cell_angle_beta	84.366295
_cell_angle_gamma	89.997969
loop_
_atom_site_label
_atom_site_type_symbol
_atom_site_fract_x
_atom_site_fract_y
_atom_site_fract_z
O1	O	1.693501	0.102247	0.160139
O2	O	1.322254	0.102266	0.175170
O3	O	1.516886	0.102247	0.002508
O4	O	1.498868	0.102265	0.332801
O5	O	1.516884	-0.102397	0.002499
O6	O	1.322252	-0.102379	0.175160
O7	O	1.693498	-0.102398	0.160129
Zn8	Zn	1.507875	-0.134880	0.167643
Zn9	Zn	1.507878	0.134748	0.167656
O10	O	1.498866	-0.102379	0.332791
C11	C	1.274725	-0.000054	0.174030
C12	C	1.133107	-0.000047	0.170633
N13	N	1.507882	-0.318894	0.167634
C14	C	1.065341	-0.000065	0.060774
C15	C	0.973039	0.100836	0.112675
C16	C	0.973070	-0.100927	0.112692
C17	C	1.042670	0.100937	0.222580
C18	C	1.042711	-0.100917	0.222581
C19	C	0.950436	0.000008	0.274563
N20	N	1.507880	0.318762	0.167656
C21	C	1.741027	-0.000075	0.161269
C22	C	1.882645	-0.000074	0.164666
C23	C	1.515753	-0.000075	-0.039791
C24	C	1.512366	-0.000073	-0.165813
C25	C	1.507877	0.569768	0.167649
C26	C	1.507875	0.430091	0.167657
C27	C	1.506136	-0.000052	-0.396542
C28	C	1.509598	-0.000064	-0.268148
C29	C	1.499999	-0.000055	0.375090
C30	C	1.503387	-0.000048	0.501113
H31	H	1.115339	0.000057	-0.029538
H32	H	1.073598	-0.186222	0.269023
H33	H	0.942184	0.186137	0.066195
F34	F	1.082753	0.212563	0.283296
H35	H	0.942250	-0.186231	0.066184
H36	H	0.900704	0.000068	0.364970
