data_functionalizedCrystal
_audit_creation_method	'MofGen! by Chris Wilmer'
_symmetry_space_group_name_H-M	'P1'
_symmetry_Int_Tables_number	1
_symmetry_cell_setting	triclinic
loop_
_symmetry_equiv_pos_as_xyz
  x,y,z
_cell_length_a	13.032721
_cell_length_b	12.759401
_cell_length_c	12.759393
_cell_angle_alpha	89.979062
_cell_angle_beta	82.850774
_cell_angle_gamma	82.794169
loop_
_atom_site_label
_atom_site_type_symbol
_atom_site_fract_x
_atom_site_fract_y
_atom_site_fract_z
Zn1	Zn	-0.415945	-1.553113	0.647098
Zn2	Zn	0.084055	-1.053113	1.147098
Zn3	Zn	-0.590725	-1.530669	0.493722
Zn4	Zn	-0.090725	-1.030669	0.993722
Zn5	Zn	-0.416001	-1.377404	0.471441
Zn6	Zn	0.083999	-0.877404	0.971441
Zn7	Zn	-0.590652	-1.355078	0.669350
Zn8	Zn	-0.090652	-0.855078	1.169350
O9	O	-0.503331	-1.454066	0.570403
O10	O	-0.003331	-0.954066	1.070403
O11	O	-0.439137	-1.697156	0.626765
O12	O	0.060863	-1.197156	1.126765
O13	O	-0.567601	-1.510289	0.343752
O14	O	-0.067601	-1.010289	0.843752
O15	O	-0.269756	-1.419449	0.476105
O16	O	0.230244	-0.919449	0.976105
O17	O	-0.567547	-1.680666	0.514080
O18	O	-0.067547	-1.180666	1.014080
O19	O	-0.269715	-1.548541	0.605160
O20	O	0.230285	-1.048541	1.105160
O21	O	-0.439232	-1.397686	0.327382
O22	O	0.060768	-0.897686	0.827382
O23	O	-0.439161	-1.227423	0.497681
O24	O	0.060839	-0.727423	0.997681
O25	O	-0.567423	-1.381397	0.813412
O26	O	-0.067423	-0.881397	1.313412
O27	O	-0.567477	-1.211019	0.643084
O28	O	-0.067477	-0.711019	1.143084
O29	O	-0.439067	-1.526892	0.797064
O30	O	0.060933	-1.026892	1.297064
O31	O	-0.736953	-1.488640	0.535656
O32	O	-0.236953	-0.988640	1.035656
O33	O	-0.736899	-1.359634	0.664689
O34	O	-0.236899	-0.859634	1.164689
C35	C	-0.503318	-1.181100	0.570380
C36	C	-0.003318	-0.681100	1.070380
C37	C	-0.503338	-1.064321	0.570399
C38	C	-0.003338	-0.564321	1.070399
C39	C	-0.774844	-1.419307	0.605028
C40	C	-0.274844	-0.919307	1.105028
C41	C	-0.890999	-1.404533	0.619876
C42	C	-0.390999	-0.904533	1.119876
C43	C	-0.503230	-1.454157	0.844423
C44	C	-0.003230	-0.954157	1.344423
C45	C	-0.503188	-1.454196	0.961194
C46	C	-0.003188	-0.954196	1.461194
C47	C	-0.942776	-1.461832	0.562700
C48	C	-0.442776	-0.961832	1.062700
C49	C	-1.062828	-1.446564	0.578045
C50	C	-0.562828	-0.946564	1.078045
C51	C	-0.230757	-1.488989	0.535665
C52	C	0.269243	-0.988989	1.035665
C53	C	-0.114602	-1.503872	0.520862
C54	C	0.385398	-1.003872	1.020862
C55	C	-0.503344	-1.728097	0.570426
C56	C	-0.003344	-1.228097	1.070426
C57	C	-0.503350	-1.844873	0.570436
C58	C	-0.003350	-1.344873	1.070436
C59	C	-0.570253	-1.000932	0.646017
C60	C	-0.070253	-0.500932	1.146017
C61	C	-0.570257	-0.891208	0.646038
C62	C	-0.070257	-0.391208	1.146038
C63	C	-0.436427	-0.908271	0.494813
C64	C	0.063573	-0.408271	0.994813
C65	C	-0.436419	-1.017994	0.494797
C66	C	0.063581	-0.517994	0.994797
C67	C	-0.503355	-1.454045	0.297438
C68	C	-0.003355	-0.954045	0.797438
C69	C	-0.503104	-1.454247	0.180630
C70	C	-0.003104	-0.954247	0.680630
C71	C	-0.436342	-1.529962	1.007544
C72	C	0.063658	-1.029962	1.507544
C73	C	-0.436297	-1.529986	1.117263
C74	C	0.063703	-1.029986	1.617263
C75	C	-0.569952	-1.378473	1.134273
C76	C	-0.069952	-0.878473	1.634273
C77	C	-0.569991	-1.378446	1.024556
C78	C	-0.069991	-0.878446	1.524556
H79	H	-0.898229	-1.522197	0.502394
H80	H	-0.398229	-1.022197	1.002394
H81	H	-0.381946	-0.870537	0.433260
H82	H	0.118054	-0.370537	0.933260
H83	H	-1.070058	-1.564240	0.460551
H84	H	-0.570058	-1.064240	0.960551
Cl85	Cl	-0.654381	-0.811523	0.741108
Cl86	Cl	-0.154381	-0.311523	1.241108
H87	H	-0.624740	-1.038649	0.707579
H88	H	-0.124740	-0.538649	1.207579
Cl89	Cl	-0.959770	-1.311345	0.713000
Cl90	Cl	-0.459770	-0.811345	1.213000
Cl91	Cl	-1.131596	-1.353372	0.671173
Cl92	Cl	-0.631596	-0.853372	1.171173
H93	H	-0.381922	-1.069608	0.433219
H94	H	0.118078	-0.569608	0.933219
Cl95	Cl	-0.352356	-1.625187	0.927893
Cl96	Cl	0.147644	-1.125187	1.427893
H97	H	-0.381863	-1.591680	1.154995
H98	H	0.118137	-1.091680	1.654995
Cl99	Cl	-0.653935	-1.283255	1.213934
Cl100	Cl	-0.153935	-0.783255	1.713934
H101	H	-0.624424	-1.316741	0.986817
H102	H	-0.124424	-0.816741	1.486817
