data_functionalizedCrystal
_audit_creation_method	'MofGen! by Chris Wilmer'
_symmetry_space_group_name_H-M	'P1'
_symmetry_Int_Tables_number	1
_symmetry_cell_setting	triclinic
loop_
_symmetry_equiv_pos_as_xyz
  x,y,z
_cell_length_a	16.959454
_cell_length_b	12.759395
_cell_length_c	16.959447
_cell_angle_alpha	90.016707
_cell_angle_beta	90.025463
_cell_angle_gamma	90.021612
loop_
_atom_site_label
_atom_site_type_symbol
_atom_site_fract_x
_atom_site_fract_y
_atom_site_fract_z
Zn1	Zn	-0.314643	1.606190	0.446902
Zn2	Zn	-0.446833	1.606076	0.314732
Zn3	Zn	-0.314676	1.430500	0.314742
Zn4	Zn	-0.446787	1.430464	0.446873
O5	O	-0.380735	1.518307	0.380812
O6	O	-0.332184	1.753196	0.429377
O7	O	-0.429335	1.582752	0.204122
O8	O	-0.204061	1.453868	0.332290
O9	O	-0.429303	1.753112	0.332272
O10	O	-0.204037	1.582947	0.429387
O11	O	-0.332239	1.453758	0.204130
O12	O	-0.332195	1.283474	0.332262
O13	O	-0.429226	1.453807	0.557488
O14	O	-0.429257	1.283448	0.429338
O15	O	-0.332140	1.582912	0.557509
O16	O	-0.557438	1.582718	0.332244
O17	O	-0.557404	1.453697	0.429328
C18	C	-0.380725	1.245340	0.380799
C19	C	-0.380740	1.128563	0.380811
C20	C	-0.481974	1.128574	0.481733
C21	C	-0.532597	1.073719	0.532196
C22	C	-0.532607	0.963998	0.532206
C23	C	-0.481986	0.909129	0.481749
C24	C	-0.431363	0.963984	0.431286
C25	C	-0.431361	1.073708	0.431280
C26	C	-0.330126	0.963973	0.330369
C27	C	-0.330120	1.073694	0.330354
C28	C	-0.279506	0.909104	0.279912
C29	C	-0.228885	0.963959	0.229444
C30	C	-0.228878	1.073687	0.229435
C31	C	-0.279496	1.128550	0.279891
C32	C	-0.586101	1.518219	0.380799
C33	C	-0.673958	1.518278	0.380819
C34	C	-1.045446	1.451224	0.431358
C35	C	-1.045421	1.585684	0.330347
C36	C	-0.962875	1.585647	0.330339
C37	C	-0.921611	1.518397	0.380841
C38	C	-0.962892	1.451183	0.431351
C39	C	-0.921587	1.652852	0.279825
C40	C	-0.839036	1.652818	0.279815
C41	C	-0.797770	1.585571	0.330322
C42	C	-0.839057	1.518356	0.380834
C43	C	-0.797793	1.451105	0.431336
C44	C	-0.839078	1.383894	0.481853
C45	C	-0.921627	1.383936	0.481858
C46	C	-0.715222	1.585529	0.330317
C47	C	-0.715239	1.451064	0.431329
C48	C	-0.174567	1.518424	0.380843
C49	C	-0.086710	1.518474	0.380856
C50	C	-0.380674	1.518369	0.586980
C51	C	-0.380648	1.518395	0.674837
C52	C	-0.380745	1.792341	0.380826
C53	C	-0.380750	1.909118	0.380832
C54	C	-0.380739	1.518307	0.175446
C55	C	-0.380542	1.518484	0.087590
C56	C	-0.431188	1.585570	0.716109
C57	C	-0.330088	1.451238	0.716119
C58	C	-0.330065	1.451256	0.798665
C59	C	-0.380605	1.518431	0.839937
C60	C	-0.431168	1.585588	0.798662
C61	C	-0.279509	1.384092	0.839946
C62	C	-0.279484	1.384107	0.922497
C63	C	-0.330021	1.451288	0.963770
C64	C	-0.380585	1.518449	0.922490
C65	C	-0.431125	1.585624	0.963762
C66	C	-0.481686	1.652790	0.922484
C67	C	-0.481704	1.652769	0.839935
C68	C	-0.330002	1.451309	1.046318
C69	C	-0.431105	1.585641	1.046315
H70	H	-0.573825	0.919335	0.573301
H71	H	-0.238314	1.329416	0.956098
H72	H	-0.573810	1.118406	0.573279
H73	H	-0.522838	1.707481	0.956098
H74	H	-0.187649	1.118344	0.188348
F75	F	-0.279497	1.245325	0.279883
F76	F	-0.535509	1.724247	0.795999
F77	F	-0.484991	1.657056	0.672178
F78	F	-0.279513	0.792328	0.279928
F79	F	-0.276190	1.379838	1.090245
H80	H	-0.481992	0.819788	0.481768
H81	H	-0.805471	1.329133	0.522969
F82	F	-0.481978	1.245350	0.481717
H83	H	-0.187670	0.919276	0.188369
H84	H	-0.955248	1.329215	0.522985
F85	F	-1.089339	1.657252	0.276601
H86	H	-1.079064	1.396505	0.472490
H87	H	-0.681647	1.396304	0.472457
H88	H	-0.805427	1.707545	0.238683
F89	F	-0.965507	1.724424	0.226084
F90	F	-0.671287	1.657045	0.276550
F91	F	-0.484894	1.657145	1.090233
H92	H	-0.288946	1.396541	0.682511
H93	H	-0.238367	1.329395	0.806336
