data_functionalizedCrystal
_audit_creation_method	'MofGen! by Chris Wilmer'
_symmetry_space_group_name_H-M	'P1'
_symmetry_Int_Tables_number	1
_symmetry_cell_setting	triclinic
loop_
_symmetry_equiv_pos_as_xyz
  x,y,z
_cell_length_a	8.597340
_cell_length_b	15.995350
_cell_length_c	7.088929
_cell_angle_alpha	83.778427
_cell_angle_beta	103.954719
_cell_angle_gamma	84.418396
loop_
_atom_site_label
_atom_site_type_symbol
_atom_site_fract_x
_atom_site_fract_y
_atom_site_fract_z
O1	O	2.101368	0.114992	0.187181
O2	O	1.636685	0.128660	0.110631
O3	O	1.881729	-0.000071	0.151001
O4	O	1.856324	0.243723	0.146812
O5	O	1.914477	-0.017313	0.474371
O6	O	1.669433	0.111418	0.434001
O7	O	2.134116	0.097749	0.510552
Cu8	Cu	1.904764	0.103009	0.501803
Cu9	Cu	1.866037	0.123400	0.119380
O10	O	1.889072	0.226481	0.470182
C11	C	1.593596	0.119532	0.262521
C12	C	1.416415	0.118010	0.233332
C13	C	1.897052	-0.039886	0.312509
C14	C	1.893903	-0.132833	0.311979
C15	C	1.882595	-0.470573	0.310123
C16	C	1.708006	-0.422972	0.280649
C17	C	1.711229	-0.326323	0.281896
C18	C	1.888204	-0.303016	0.311043
C19	C	1.992981	-0.354003	0.509880
C20	C	1.988613	-0.450644	0.509312
C21	C	1.954978	-0.431397	0.142174
C22	C	1.954689	-0.334321	0.139726
C23	C	1.891384	-0.208321	0.311571
C24	C	1.879422	-0.565269	0.309609
C25	C	2.177205	0.106878	0.358658
C26	C	2.354385	0.108401	0.387834
C27	C	1.873748	0.266296	0.308670
C28	C	1.876897	0.359244	0.309186
N29	N	1.932015	0.088667	0.770780
N30	N	1.838798	0.137736	-0.149595
H31	H	1.624844	-0.434392	0.136737
H32	H	2.028642	0.037819	0.868355
H33	H	1.883747	-0.444432	-0.007185
O34	O	1.930480	-0.481354	0.661591
C35	C	1.859660	-0.603928	0.835596
C36	C	1.925564	-0.569272	0.663099
H37	H	1.855632	-0.675010	0.836847
H38	H	1.941839	-0.591797	0.979521
H39	H	1.732596	-0.570611	0.818038
H40	H	2.052607	-0.602567	0.680468
H41	H	1.843271	-0.581390	0.519240
O42	O	1.452919	0.099866	0.572203
C43	C	1.679785	0.018046	0.810547
C44	C	1.568325	0.027623	0.601683
H45	H	1.773097	-0.040370	0.834462
H46	H	1.744137	0.076780	0.829729
H47	H	1.604549	0.010610	0.922135
H48	H	1.643444	0.035034	0.489967
H49	H	1.503966	-0.031115	0.582667
O50	O	1.317958	0.126586	0.048895
C51	C	1.090967	0.208346	-0.189369
C52	C	1.202372	0.198744	0.019531
H53	H	0.997467	0.266672	-0.213162
H54	H	1.166069	0.215883	-0.301085
H55	H	1.026820	0.149543	-0.208467
H56	H	1.266543	0.257527	0.038819
H57	H	1.127186	0.191167	0.131143
H58	H	1.877922	-0.299742	-0.007245
H59	H	1.630162	-0.290793	0.138381
O60	O	1.640888	-0.454730	0.423860
C61	C	1.422237	-0.523536	0.500575
C62	C	1.498085	-0.487616	0.338195
H63	H	1.306750	-0.550118	0.431374
H64	H	1.511274	-0.576217	0.603410
H65	H	1.392481	-0.470804	0.587164
H66	H	1.527840	-0.540290	0.251462
H67	H	1.409004	-0.434914	0.235496
O68	O	1.723506	0.198464	0.734316
C69	C	1.510528	0.310495	0.719957
C70	C	1.641061	0.241766	0.851673
H71	H	1.443813	0.345512	0.814782
H72	H	1.569882	0.357337	0.636056
H73	H	1.421174	0.279471	0.611485
H74	H	1.730456	0.272716	0.960256
H75	H	1.581595	0.194931	0.935435
H76	H	2.082617	-0.318459	0.149832
H77	H	1.656540	-0.305479	0.403270
H78	H	2.117588	-0.483433	0.538792
H79	H	2.123695	-0.340339	0.538160
H80	H	1.947113	-0.332905	0.637451
H81	H	2.083521	-0.463186	0.162123
