data_functionalizedCrystal
_audit_creation_method	'MofGen! by Chris Wilmer'
_symmetry_space_group_name_H-M	'P1'
_symmetry_Int_Tables_number	1
_symmetry_cell_setting	triclinic
loop_
_symmetry_equiv_pos_as_xyz
  x,y,z
_cell_length_a	10.654555
_cell_length_b	12.837943
_cell_length_c	11.892095
_cell_angle_alpha	94.310562
_cell_angle_beta	93.929642
_cell_angle_gamma	90.340753
loop_
_atom_site_label
_atom_site_type_symbol
_atom_site_fract_x
_atom_site_fract_y
_atom_site_fract_z
O1	O	0.319512	-1.384387	-0.093971
O2	O	0.303370	-1.082466	-0.093978
O3	O	0.129459	-1.240362	-0.093974
O4	O	0.493422	-1.226491	-0.093975
O5	O	0.143935	-1.227197	0.094033
O6	O	0.317846	-1.069300	0.094029
O7	O	0.333987	-1.371222	0.094036
Zn8	Zn	0.328215	-1.218171	0.123883
Zn9	Zn	0.309143	-1.235517	-0.123825
O10	O	0.507898	-1.213326	0.094032
C11	C	0.305155	-1.037223	0.000024
C12	C	0.288892	-0.922029	0.000021
C13	C	0.332202	-1.416465	0.000031
C14	C	0.348464	-1.531660	0.000027
C15	C	0.089788	-1.232759	0.000027
C16	C	-0.049989	-1.229705	0.000020
C17	C	-0.296863	-1.209618	0.204999
C18	C	-0.223301	-1.203872	0.307484
C19	C	-0.091970	-1.206737	0.307484
C20	C	-0.034198	-1.215347	0.204989
C21	C	-0.107759	-1.221093	0.102504
C22	C	-0.239093	-1.218230	0.102515
C23	C	-0.123550	-1.235451	-0.102464
C24	C	-0.254882	-1.232593	-0.102467
C25	C	-0.065778	-1.244060	-0.204960
C26	C	-0.139340	-1.249814	-0.307447
C27	C	-0.270679	-1.246950	-0.307443
C28	C	-0.328444	-1.238340	-0.204952
C29	C	0.547569	-1.220929	0.000029
C30	C	0.687345	-1.223984	0.000028
N31	N	0.341231	-1.206341	0.292937
C32	C	0.484398	-0.682481	0.000037
C33	C	0.469124	-0.574245	0.000035
C34	C	0.243071	-0.597318	0.000024
C35	C	0.258346	-0.705554	0.000026
C36	C	0.379013	-0.748132	0.000031
C37	C	0.394285	-0.856370	0.000025
C38	C	0.168235	-0.879440	0.000021
C39	C	0.152960	-0.771204	0.000019
N40	N	0.296117	-1.247355	-0.292878
C41	C	0.205471	-1.329677	0.529588
C42	C	0.214579	-1.321415	0.647929
C43	C	0.368549	-1.181551	0.647964
C44	C	0.359441	-1.189813	0.529622
C45	C	0.277900	-1.263879	0.470438
C46	C	0.268799	-1.272145	0.352094
C47	C	0.422762	-1.132276	0.352131
C48	C	0.431870	-1.124015	0.470473
H49	H	-0.403800	-1.207296	0.205009
H50	H	0.481742	-1.078702	0.303958
C51	C	-0.351587	-1.253284	-0.420186
N52	N	-0.412523	-1.258062	-0.505108
H53	H	-0.270354	-1.196859	0.390933
C54	C	0.527021	-0.903204	0.000036
N55	N	0.627001	-0.938475	0.000049
H56	H	-0.092290	-1.256816	-0.390890
C57	C	-0.011050	-1.200416	0.420221
N58	N	0.049898	-1.195657	0.505135
H59	H	0.072741	-1.217667	0.204998
C60	C	0.110349	-0.550462	0.000030
N61	N	0.010380	-0.515169	0.000036
H62	H	0.139087	-1.389992	0.481399
C63	C	-0.472911	-1.235186	-0.204938
N64	N	-0.581725	-1.232805	-0.204922
H65	H	0.041160	-1.246388	-0.204952
C66	C	0.617130	-0.729320	0.000035
N67	N	0.717107	-0.764596	0.000035
C68	C	0.458203	-1.100059	0.713087
N69	N	0.525723	-1.038672	0.762138
H70	H	0.554940	-0.520796	0.000044
C71	C	0.020233	-0.724356	0.000012
N72	N	-0.079740	-0.689072	0.000002
C73	C	0.052303	-0.951665	0.000011
N74	N	-0.035015	-1.006066	-0.000000
H75	H	0.202409	-1.332456	0.303908
C76	C	0.134897	-1.393795	0.712990
N77	N	0.074874	-1.448313	0.761993
C78	C	0.521550	-1.042538	0.535588
N79	N	0.589098	-0.981168	0.584632
