data_functionalizedCrystal
_audit_creation_method	'MofGen! by Chris Wilmer'
_symmetry_space_group_name_H-M	'P1'
_symmetry_Int_Tables_number	1
_symmetry_cell_setting	triclinic
loop_
_symmetry_equiv_pos_as_xyz
  x,y,z
_cell_length_a	16.992694
_cell_length_b	15.455313
_cell_length_c	10.540495
_cell_angle_alpha	87.305300
_cell_angle_beta	87.587867
_cell_angle_gamma	92.857794
loop_
_atom_site_label
_atom_site_type_symbol
_atom_site_fract_x
_atom_site_fract_y
_atom_site_fract_z
O1	O	-1.045276	-0.072012	-0.264114
O2	O	-0.545276	0.427988	0.235886
O3	O	-0.816975	-0.072038	-0.261158
O4	O	-0.316975	0.427962	0.238842
O5	O	-0.936352	-0.072025	-0.078379
O6	O	-0.436352	0.427975	0.421621
O7	O	-0.925899	-0.072024	-0.446893
O8	O	-0.425899	0.427976	0.053107
O9	O	-0.929525	0.072236	-0.088786
O10	O	-0.429525	0.572236	0.411214
O11	O	-0.810149	0.072224	-0.271564
O12	O	-0.310149	0.572224	0.228436
O13	O	-1.038449	0.072249	-0.274520
O14	O	-0.538449	0.572249	0.225480
Cu15	Cu	-0.923675	0.085409	-0.273992
Cu16	Cu	-0.423675	0.585409	0.226008
Cu17	Cu	-0.931749	-0.085197	-0.261686
Cu18	Cu	-0.431749	0.414803	0.238314
O19	O	-0.919072	0.072237	-0.457299
O20	O	-0.419072	0.572237	0.042701
C21	C	-0.784329	0.000090	-0.262560
C22	C	-0.284329	0.500090	0.237440
C23	C	-0.697223	0.000080	-0.251218
C24	C	-0.197223	0.500080	0.248782
C25	C	-0.932162	0.000103	-0.036211
C26	C	-0.432162	0.500103	0.463789
C27	C	-0.929839	0.000096	0.104942
C28	C	-0.429839	0.500096	0.604942
C29	C	-1.071096	0.000120	-0.273118
C30	C	-0.571096	0.500120	0.226882
C31	C	-1.158202	0.000124	-0.284459
C32	C	-0.658202	0.500124	0.215541
N33	N	-0.918003	0.205404	-0.282648
N34	N	-0.418003	0.705404	0.217352
C35	C	-0.647584	0.000080	-0.360640
C36	C	-0.147584	0.500080	0.139360
C37	C	-0.565738	0.000092	-0.349977
C38	C	-0.065738	0.500092	0.150023
C39	C	-0.533533	0.000097	-0.229892
C40	C	-0.033533	0.500097	0.270108
C41	C	-0.583177	0.000099	-0.120463
C42	C	-0.083177	0.500099	0.379537
C43	C	-0.665021	0.000093	-0.131127
C44	C	-0.165021	0.500093	0.368873
C45	C	-0.289691	0.000120	-0.185694
C46	C	0.210309	0.500120	0.314306
C47	C	-0.207841	0.000123	-0.175038
C48	C	0.292159	0.500123	0.324962
C49	C	-0.190407	0.000119	-0.404554
C50	C	0.309593	0.500119	0.095446
C51	C	-0.272253	0.000108	-0.415207
C52	C	0.227747	0.500108	0.084793
C53	C	-0.321891	0.000114	-0.305778
C54	C	0.178109	0.500114	0.194222
N55	N	-0.449874	0.000107	-0.218990
N56	N	0.050126	0.500107	0.281010
N57	N	-0.405548	0.000111	-0.316681
N58	N	0.094452	0.500111	0.183319
N59	N	-0.937428	-0.205192	-0.253021
N60	N	-0.437428	0.294808	0.246979
C61	C	-0.968736	0.250803	-0.205029
C62	C	-0.468736	0.750803	0.294971
C63	C	-0.964453	0.341610	-0.211588
C64	C	-0.464453	0.841610	0.288412
C65	C	-0.909441	0.387017	-0.295772
C66	C	-0.409441	0.887017	0.204228
C67	C	-0.858702	0.341611	-0.373393
C68	C	-0.358702	0.841611	0.126607
C69	C	-0.862981	0.250805	-0.366828
C70	C	-0.362981	0.750805	0.133172
C71	C	-0.890968	0.658596	-0.324077
C72	C	-0.390968	1.158596	0.175923
C73	C	-0.886694	0.749409	-0.330639
C74	C	-0.386694	1.249409	0.169361
C75	C	-0.992445	0.749402	-0.168831
C76	C	-0.492445	1.249402	0.331169
C77	C	-0.996723	0.658594	-0.162279
C78	C	-0.496723	1.158594	0.337721
C79	C	-0.945982	0.613196	-0.239895
C80	C	-0.445982	1.113196	0.260105
N81	N	-0.905063	0.479837	-0.302480
N82	N	-0.405063	0.979837	0.197520
N83	N	-0.950356	0.520378	-0.233180
N84	N	-0.450356	1.020378	0.266820
C85	C	-1.015213	0.000108	0.168239
C86	C	-0.515213	0.500108	0.668239
C87	C	-1.012809	0.000441	0.315036
C88	C	-0.512809	0.500441	0.815036
C89	C	-0.879527	0.082318	0.295376
C90	C	-0.379527	0.582318	0.795376
C91	C	-0.882518	0.082382	0.148571
C92	C	-0.382518	0.582382	0.648571
C93	C	-0.889018	-0.081676	0.160117
C94	C	-0.389018	0.418324	0.660117
C95	C	-0.888251	-0.082751	0.307245
C96	C	-0.388251	0.417249	0.807245
C97	C	-0.923273	0.000107	0.500534
C98	C	-0.423273	0.500107	1.000534
C99	C	-0.925627	0.000108	0.359385
C100	C	-0.425627	0.500108	0.859385
H101	H	-0.673799	0.000076	-0.458426
H102	H	-0.173799	0.500076	0.041574
F103	F	-0.930012	-0.163151	0.121600
F104	F	-0.430012	0.336849	0.621600
H105	H	-1.013537	0.213839	-0.136484
H106	H	-0.513537	0.713839	0.363516
H107	H	-0.149984	0.000115	-0.493644
H108	H	0.350016	0.500115	0.006356
F109	F	-1.056177	0.077060	0.119308
F110	F	-0.556177	0.577060	0.619308
F111	F	-0.808981	0.202489	-0.449437
F112	F	-0.308981	0.702489	0.050563
F113	F	-0.173567	0.000144	-0.047222
F114	F	0.326433	0.500144	0.452778
F115	F	-0.800148	0.389937	-0.462983
F116	F	-0.300148	0.889937	0.037017
H117	H	-0.298469	0.000094	-0.512992
H118	H	0.201531	0.500094	-0.012992
H119	H	-0.841894	0.786374	-0.399197
H120	H	-0.341894	1.286374	0.100803
H121	H	-0.525325	0.000092	-0.439080
H122	H	-0.025325	0.500092	0.060920
H123	H	-0.921976	-0.143572	0.349953
H124	H	-0.421976	0.356428	0.849953
F125	F	-0.805524	-0.089620	0.346667
F126	F	-0.305524	0.410380	0.846667
F127	F	-0.548900	0.000110	0.007341
F128	F	-0.048900	0.500110	0.507341
H129	H	-0.330096	0.000126	-0.096589
H130	H	0.169904	0.500126	0.403411
H131	H	-0.849654	0.621641	-0.387278
H132	H	-0.349654	1.121641	0.112722
H133	H	-1.005764	0.378574	-0.148384
H134	H	-0.505764	0.878574	0.351616
H135	H	-0.815349	0.085136	0.323045
H136	H	-0.315349	0.585136	0.823045
H137	H	-0.826079	-0.082470	0.118397
H138	H	-0.326079	0.417530	0.618397
H139	H	-0.705437	0.000092	-0.042024
H140	H	-0.205437	0.500092	0.457976
F141	F	-1.046443	0.797723	-0.086229
F142	F	-0.546443	1.297723	0.413771
F143	F	-1.064126	-0.076941	0.132575
F144	F	-0.564126	0.423059	0.632575
F145	F	-1.055274	0.610270	-0.072683
F146	F	-0.555274	1.110270	0.427317
H147	H	-1.048797	-0.058476	0.359071
H148	H	-0.548797	0.441524	0.859071
H149	H	-1.043060	0.059728	0.349622
H150	H	-0.543060	0.559728	0.849622
H151	H	-0.910423	0.144078	0.113220
H152	H	-0.410423	0.644078	0.613220
F153	F	-0.800332	0.086959	0.092602
F154	F	-0.300332	0.586959	0.592602
F155	F	-0.913574	0.162603	0.341931
F156	F	-0.413574	0.662603	0.841931
