data_functionalizedCrystal
_audit_creation_method	'MofGen! by Chris Wilmer'
_symmetry_space_group_name_H-M	'P1'
_symmetry_Int_Tables_number	1
_symmetry_cell_setting	triclinic
loop_
_symmetry_equiv_pos_as_xyz
  x,y,z
_cell_length_a	15.995292
_cell_length_b	9.065218
_cell_length_c	8.140239
_cell_angle_alpha	89.997972
_cell_angle_beta	89.996105
_cell_angle_gamma	84.242251
loop_
_atom_site_label
_atom_site_type_symbol
_atom_site_fract_x
_atom_site_fract_y
_atom_site_fract_z
O1	O	1.112453	0.189751	-0.136653
O2	O	1.612453	0.689751	0.363347
O3	O	0.868850	0.213323	-0.136645
O4	O	1.368850	0.713323	0.363355
O5	O	0.995687	-0.013226	-0.136644
O6	O	1.495687	0.486774	0.363356
O7	O	0.985616	0.416300	-0.136654
O8	O	1.485616	0.916300	0.363346
O9	O	0.995679	-0.013228	0.136583
O10	O	1.495679	0.486772	0.636583
O11	O	0.868843	0.213320	0.136582
O12	O	1.368843	0.713320	0.636582
O13	O	1.112446	0.189748	0.136575
O14	O	1.612446	0.689748	0.636575
Zn15	Zn	0.990643	0.201534	0.179959
Zn16	Zn	1.490643	0.701534	0.679959
Zn17	Zn	0.990652	0.201537	-0.180030
Zn18	Zn	1.490652	0.701537	0.319970
O19	O	0.985609	0.416297	0.136573
O20	O	1.485609	0.916297	0.636573
C21	C	0.837643	0.212362	-0.000031
C22	C	1.337643	0.712362	0.499969
C23	C	0.744669	0.209486	-0.000028
C24	C	1.244669	0.709486	0.499972
C25	C	0.406850	0.198912	-0.000047
C26	C	0.906850	0.698912	0.499953
C27	C	0.431402	0.362429	-0.000660
C28	C	0.931402	0.862429	0.499340
C29	C	0.528101	0.365537	-0.000038
C30	C	1.028101	0.865537	0.499962
C31	C	0.574446	0.204159	-0.000039
C32	C	1.074446	0.704159	0.499961
C33	C	0.544720	0.122407	0.155984
C34	C	1.044720	0.622407	0.655984
C35	C	0.447914	0.120438	0.156107
C36	C	0.947914	0.620438	0.656107
C37	C	0.448042	0.117102	-0.154603
C38	C	0.948042	0.617102	0.345397
C39	C	0.544580	0.123162	-0.156658
C40	C	1.044580	0.623162	0.343342
C41	C	0.669164	0.207116	-0.000029
C42	C	1.169164	0.707116	0.499971
C43	C	0.312132	0.195951	-0.000046
C44	C	0.812132	0.695951	0.499954
C45	C	0.994715	-0.068191	-0.000033
C46	C	1.494715	0.431809	0.499967
C47	C	0.991821	-0.231964	-0.000040
C48	C	1.491821	0.268036	0.499960
C49	C	1.143652	0.190709	-0.000044
C50	C	1.643652	0.690709	0.499956
C51	C	1.236627	0.193585	-0.000057
C52	C	1.736627	0.693585	0.499943
C53	C	0.986580	0.471262	-0.000041
C54	C	1.486580	0.971262	0.499959
C55	C	0.989474	0.635036	-0.000046
C56	C	1.489474	1.135036	0.499954
N57	N	0.990643	0.201531	0.425641
N58	N	1.490643	0.701531	0.925641
N59	N	0.990659	0.201529	-0.425712
N60	N	1.490659	0.701529	0.074288
H61	H	0.420105	0.168213	-0.272859
H62	H	0.920105	0.668213	0.227141
H63	H	0.421524	0.177055	0.272738
H64	H	0.921524	0.677055	0.772738
H65	H	0.402856	0.425105	0.110599
H66	H	0.902856	0.925105	0.610599
H67	H	0.563604	0.182686	-0.272082
H68	H	1.063604	0.682686	0.227918
H69	H	0.576657	0.005373	-0.166082
H70	H	1.076657	0.505373	0.333918
H71	H	0.565206	0.179177	0.272096
H72	H	1.065206	0.679177	0.772096
H73	H	0.432455	0.000547	0.163194
H74	H	0.932455	0.500547	0.663194
H75	H	0.433136	-0.003257	-0.155658
H76	H	0.933136	0.496743	0.344342
Cl77	Cl	0.557272	0.464968	0.172939
Cl78	Cl	1.057272	0.964968	0.672939
Cl79	Cl	0.558234	0.464384	-0.172714
Cl80	Cl	1.058234	0.964384	0.327286
H81	H	0.403887	0.425457	-0.112552
H82	H	0.903887	0.925457	0.387448
Cl83	Cl	0.592521	-0.060945	0.164939
Cl84	Cl	1.092521	0.439055	0.664939
