data_functionalizedCrystal
_audit_creation_method	'MofGen! by Chris Wilmer'
_symmetry_space_group_name_H-M	'P1'
_symmetry_Int_Tables_number	1
_symmetry_cell_setting	triclinic
loop_
_symmetry_equiv_pos_as_xyz
  x,y,z
_cell_length_a	17.640112
_cell_length_b	29.839131
_cell_length_c	17.640968
_cell_angle_alpha	78.768609
_cell_angle_beta	92.139080
_cell_angle_gamma	101.266684
loop_
_atom_site_label
_atom_site_type_symbol
_atom_site_fract_x
_atom_site_fract_y
_atom_site_fract_z
Zn1	Zn	1.247771	-0.012909	-0.195080
Zn2	Zn	1.221948	-0.105602	-0.068098
Zn3	Zn	1.095086	-0.042134	-0.093726
Zn4	Zn	1.120692	-0.099688	-0.220680
O5	O	1.171374	-0.065083	-0.144396
O6	O	1.350620	-0.015449	-0.156796
O7	O	1.183596	-0.111889	0.034776
O8	O	1.115431	0.024621	-0.107183
O9	O	1.331648	-0.083550	-0.063503
O10	O	1.227608	0.046093	-0.181647
O11	O	1.090391	-0.065260	0.015947
O12	O	0.992208	-0.059525	-0.132006
O13	O	1.159073	-0.073471	-0.323557
O14	O	1.011020	-0.101810	-0.225278
O15	O	1.252437	-0.009714	-0.304749
O16	O	1.208425	-0.167697	-0.088326
O17	O	1.134033	-0.163352	-0.200427
C18	C	0.974058	-0.083197	-0.184201
C19	C	0.889649	-0.090955	-0.201248
C20	C	0.563036	-0.006143	-0.014898
C21	C	0.483723	-0.013439	-0.030927
C22	C	0.503332	-0.057573	-0.127883
C23	C	0.582649	-0.050277	-0.111866
C24	C	0.612494	-0.024563	-0.055372
C25	C	0.632108	-0.068697	-0.152339
C26	C	0.711417	-0.061405	-0.136320
C27	C	0.741268	-0.035692	-0.079827
C28	C	0.691803	-0.017270	-0.039352
C29	C	0.602261	-0.094415	-0.208829
C30	C	0.651719	-0.112835	-0.249303
C31	C	0.731031	-0.105540	-0.233287
C32	C	0.760882	-0.079827	-0.176794
C33	C	0.780495	-0.123962	-0.273762
C34	C	0.859805	-0.116670	-0.257742
C35	C	0.840191	-0.072535	-0.160775
C36	C	1.171229	-0.181824	-0.144386
C37	C	1.171242	-0.231756	-0.144393
C38	C	1.210213	-0.543616	-0.086078
C39	C	1.210312	-0.731276	-0.086088
O40	O	1.243332	-0.757439	-0.036500
N41	N	1.171543	-0.752503	-0.144421
C42	C	1.132750	-0.726811	-0.202759
O43	O	1.099784	-0.749171	-0.252379
C44	C	1.132656	-0.539151	-0.202750
C45	C	1.171421	-0.517928	-0.144409
C46	C	1.248976	-0.522392	-0.027742
C47	C	1.248947	-0.475481	-0.027738
C48	C	1.210155	-0.449792	-0.086069
C49	C	1.171392	-0.471016	-0.144405
C50	C	1.093868	-0.513459	-0.261090
C51	C	1.093850	-0.466541	-0.261084
C52	C	1.132615	-0.445318	-0.202743
C53	C	1.132572	-0.398416	-0.202732
N54	N	1.171341	-0.377189	-0.144399
C55	C	1.210133	-0.402877	-0.086068
C56	C	1.132802	-0.825336	-0.202758
C57	C	1.132824	-0.872251	-0.202759
C58	C	1.210387	-0.876713	-0.086090
C59	C	1.210360	-0.829797	-0.086086
C60	C	1.171571	-0.804109	-0.144425
C61	C	1.210069	-0.304360	-0.086062
C62	C	1.210034	-0.257444	-0.086061
C63	C	1.132474	-0.252986	-0.202733
C64	C	1.132505	-0.299898	-0.202732
C65	C	1.171308	-0.325583	-0.144393
O66	O	1.099577	-0.372224	-0.252299
O67	O	1.243109	-0.380507	-0.036464
C68	C	1.210242	-0.590527	-0.086082
C69	C	1.171479	-0.611751	-0.144418
C70	C	1.132687	-0.586063	-0.202750
C71	C	1.171501	-0.658666	-0.144420
C72	C	1.210293	-0.684354	-0.086088
C73	C	1.249062	-0.663127	-0.027755
C74	C	1.249033	-0.616215	-0.027751
C75	C	1.093918	-0.607290	-0.261082
C76	C	1.093949	-0.654202	-0.261082
C77	C	1.132741	-0.679890	-0.202750
C78	C	1.369461	-0.046899	-0.104435
C79	C	1.453873	-0.039150	-0.087407
C80	C	1.211491	-0.037673	-0.342479
C81	C	1.228587	-0.025992	-0.426890
C82	C	1.171544	0.052117	-0.144418
C83	C	1.171616	0.102061	-0.144428
C84	C	1.041792	-0.153550	-0.753463
C85	C	1.057872	-0.142567	-0.832777
C86	C	1.155084	-0.076183	-0.813183
C87	C	1.139010	-0.087159	-0.733867
C88	C	1.082364	-0.125843	-0.704013
C89	C	1.179581	-0.059452	-0.684417
C90	C	1.163511	-0.070429	-0.605107
C91	C	1.106869	-0.109113	-0.575246
C92	C	1.066293	-0.136820	-0.624703
C93	C	1.236231	-0.020770	-0.714271
C94	C	1.276802	0.006936	-0.664821
C95	C	1.260728	-0.004039	-0.585510
C96	C	1.204086	-0.042722	-0.555650
C97	C	1.301304	0.023669	-0.536054
C98	C	1.285233	0.012692	-0.456744
C99	C	1.188016	-0.053699	-0.476340
C100	C	1.131457	-0.092351	0.052925
C101	C	1.114508	-0.103892	0.137366
H102	H	0.587339	0.014805	0.031094
O103	O	1.052009	-0.438837	-0.324011
H104	H	1.058505	-0.402647	-0.314216
H105	H	0.443456	0.001566	0.002031
O106	O	0.471143	-0.085304	-0.188819
H107	H	0.407686	-0.087278	-0.193164
O108	O	1.052059	-0.536343	-0.324017
H109	H	1.077118	-0.517874	-0.381006
H110	H	1.141871	-0.085190	-0.452035
H111	H	1.249315	-0.011835	-0.778851
H112	H	1.062330	-0.586378	-0.308584
O113	O	1.089546	-0.120952	-0.489701
H114	H	1.100621	-0.156327	-0.465691
O115	O	0.872386	-0.044795	-0.099845
H116	H	0.935845	-0.042818	-0.095512
O117	O	0.723997	0.010467	0.021581
H118	H	0.767053	0.041332	-0.005179
O119	O	1.337887	0.048660	-0.697040
H120	H	1.394403	0.044325	-0.669799
H121	H	1.062375	-0.671478	-0.308591
O122	O	0.516721	-0.102296	-0.226119
H123	H	0.498952	-0.068214	-0.245807
H124	H	1.280515	-0.458203	0.019767
H125	H	1.201208	-0.044687	-0.837501
O126	O	1.005193	-0.178542	-0.592493
H127	H	0.979678	-0.195967	-0.640201
H128	H	1.280600	-0.598939	0.019756
H129	H	1.347430	0.055163	-0.560372
O130	O	0.619530	-0.140567	-0.310239
H131	H	0.556073	-0.142541	-0.314584
O132	O	0.826809	-0.027829	-0.062544
H133	H	0.839250	-0.006857	-0.016457
H134	H	0.995647	-0.185041	-0.729159
O135	O	0.748303	-0.151697	-0.334692
H136	H	0.684845	-0.153673	-0.339033
H137	H	1.280569	-0.543302	0.019760
H138	H	1.280645	-0.684051	0.019742
H139	H	1.241926	-0.812520	-0.038580
H140	H	0.900076	-0.131668	-0.290701
H141	H	1.024830	-0.165132	-0.873038
O142	O	1.328985	0.042575	-0.403400
H143	H	1.371068	0.071321	-0.437485
H144	H	1.241600	-0.240166	-0.038551
H145	H	1.241973	-0.897636	-0.038594
O146	O	1.251911	-0.332062	-0.023137
H147	H	1.278850	-0.309417	0.017428
O148	O	1.091007	-0.895142	-0.265679
H149	H	1.064038	-0.869392	-0.306242
O150	O	1.090689	-0.322799	-0.265646
H151	H	1.115736	-0.304333	-0.322641
O152	O	1.090941	-0.797635	-0.265670
H153	H	1.063977	-0.820284	-0.306218
H154	H	1.100887	-0.232064	-0.250224
