data_functionalizedCrystal
_audit_creation_method	'MofGen! by Chris Wilmer'
_symmetry_space_group_name_H-M	'P1'
_symmetry_Int_Tables_number	1
_symmetry_cell_setting	triclinic
loop_
_symmetry_equiv_pos_as_xyz
  x,y,z
_cell_length_a	18.050591
_cell_length_b	18.050590
_cell_length_c	21.395355
_cell_angle_alpha	90.018036
_cell_angle_beta	90.029394
_cell_angle_gamma	90.015000
loop_
_atom_site_label
_atom_site_type_symbol
_atom_site_fract_x
_atom_site_fract_y
_atom_site_fract_z
Zn1	Zn	1.135413	-0.295816	0.354344
Zn2	Zn	1.135324	-0.419988	0.249568
Zn3	Zn	1.011211	-0.295808	0.249572
Zn4	Zn	1.011201	-0.419961	0.354299
O5	O	1.073287	-0.357893	0.301946
O6	O	1.239326	-0.312302	0.340463
O7	O	1.118827	-0.403523	0.161891
O8	O	1.027729	-0.191885	0.263491
O9	O	1.239260	-0.403530	0.263484
O10	O	1.118979	-0.191890	0.340467
O11	O	1.027642	-0.312289	0.161894
O12	O	0.907285	-0.312263	0.263447
O13	O	1.027711	-0.403485	0.441983
O14	O	0.907278	-0.403477	0.340390
O15	O	1.118969	-0.312276	0.442016
O16	O	1.118817	-0.523909	0.263440
O17	O	1.027625	-0.523889	0.340386
C18	C	0.880335	-0.357867	0.301915
C19	C	0.797789	-0.357874	0.301916
C20	C	0.548946	-0.308220	0.260174
C21	C	0.598387	-0.290145	0.317355
C22	C	0.500669	-0.357912	0.301967
C23	C	0.598310	-0.375933	0.244765
C24	C	0.646654	-0.357891	0.301939
C25	C	0.549022	-0.339802	0.359179
C26	C	0.548941	-0.425621	0.286550
C27	C	0.598360	-0.407572	0.343770
C28	C	0.416571	-0.357922	0.301983
C29	C	0.730751	-0.357881	0.301930
C30	C	1.073230	-0.550845	0.301921
C31	C	1.073274	-0.633391	0.301931
C32	C	1.122967	-0.832825	0.260147
C33	C	1.141114	-0.882171	0.317332
C34	C	1.073316	-0.784521	0.301956
C35	C	1.055245	-0.882257	0.244797
C36	C	1.073358	-0.930506	0.301975
C37	C	1.091498	-0.832780	0.359172
C38	C	1.005596	-0.832861	0.286598
C39	C	1.023718	-0.882185	0.343822
C40	C	1.073294	-0.700423	0.301944
C41	C	1.073380	-1.014603	0.301994
C42	C	1.266993	-0.357920	0.301978
C43	C	1.349539	-0.357931	0.301991
C44	C	1.073349	-0.357878	0.465369
C45	C	1.073375	-0.357872	0.535011
C46	C	1.073365	-0.164188	0.301985
C47	C	1.073398	-0.081642	0.302001
C48	C	1.073269	-0.357855	0.139158
C49	C	1.073386	-0.357652	0.069517
C50	C	1.120891	-0.310377	0.567742
C51	C	1.120890	-0.310345	0.633177
C52	C	1.073381	-0.357821	0.665879
C53	C	1.025856	-0.405319	0.633140
C54	C	1.025853	-0.405344	0.567705
C55	C	1.067497	-0.424690	0.769545
C56	C	1.067505	-0.424666	0.834978
C57	C	1.073386	-0.357743	0.867700
C58	C	1.079273	-0.290841	0.834981
C59	C	1.079271	-0.290867	0.769547
C60	C	1.073379	-0.357799	0.736831
C61	C	1.120903	-0.310210	0.971384
C62	C	1.120897	-0.310176	1.036821
C63	C	1.025866	-0.405156	1.036781
C64	C	1.025869	-0.405183	0.971346
C65	C	1.073391	-0.357711	0.938651
H66	H	0.619918	-0.449586	0.379142
H67	H	0.527252	-0.266174	0.224886
H68	H	0.527461	-0.324484	0.407556
Cl69	Cl	1.115237	-0.799373	0.433836
H70	H	1.198401	-0.903833	0.330334
H71	H	0.987156	-0.444019	0.541056
Cl72	Cl	1.031619	-0.915812	0.170154
H73	H	0.987171	-0.443972	0.659769
H74	H	0.620092	-0.232874	0.330394
Cl75	Cl	0.515379	-0.514014	0.266402
H76	H	0.619963	-0.391183	0.196401
H77	H	1.159589	-0.271496	1.063469
Cl78	Cl	1.086669	-0.206704	0.876110
Cl79	Cl	0.958918	-0.915440	0.398484
Cl80	Cl	1.187812	-0.799360	0.205614
H81	H	1.062510	-0.479173	0.742908
Cl82	Cl	1.180614	-0.250618	0.674334
Cl83	Cl	0.917171	-0.799395	0.266499
H84	H	1.159594	-0.271551	0.944762
Cl85	Cl	1.180629	-0.250693	0.526643
H86	H	1.084063	-0.236394	0.742910
H87	H	0.987176	-0.443805	1.063406
H88	H	0.987180	-0.443863	0.944696
H89	H	1.062716	-0.479141	0.861612
