data_functionalizedCrystal
_audit_creation_method	'MofGen! by Chris Wilmer'
_symmetry_space_group_name_H-M	'P1'
_symmetry_Int_Tables_number	1
_symmetry_cell_setting	triclinic
loop_
_symmetry_equiv_pos_as_xyz
  x,y,z
_cell_length_a	13.897449
_cell_length_b	13.897448
_cell_length_c	13.897441
_cell_angle_alpha	90.027040
_cell_angle_beta	89.978743
_cell_angle_gamma	89.979604
loop_
_atom_site_label
_atom_site_type_symbol
_atom_site_fract_x
_atom_site_fract_y
_atom_site_fract_z
Zn1	Zn	1.474670	0.383972	-0.545467
Zn2	Zn	1.724670	0.633972	-0.295467
Zn3	Zn	1.974670	0.883972	-0.045467
Zn4	Zn	2.224670	1.133972	0.204533
Zn5	Zn	1.474564	0.545291	-0.384176
Zn6	Zn	1.724564	0.795291	-0.134176
Zn7	Zn	1.974564	1.045291	0.115824
Zn8	Zn	2.224564	1.295291	0.365824
Zn9	Zn	1.313365	0.384014	-0.384178
Zn10	Zn	1.563365	0.634014	-0.134178
Zn11	Zn	1.813365	0.884014	0.115822
Zn12	Zn	2.063365	1.134014	0.365822
Zn13	Zn	1.313335	0.545229	-0.545421
Zn14	Zn	1.563335	0.795229	-0.295421
Zn15	Zn	1.813335	1.045229	-0.045421
Zn16	Zn	2.063335	1.295229	0.204579
O17	O	1.393984	0.464627	-0.464810
O18	O	1.643984	0.714627	-0.214810
O19	O	1.893984	0.964627	0.035190
O20	O	2.143984	1.214627	0.285190
O21	O	1.609637	0.405380	-0.524090
O22	O	1.859637	0.655380	-0.274090
O23	O	2.109637	0.905380	-0.024090
O24	O	2.359637	1.155380	0.225910
O25	O	1.453149	0.523941	-0.249194
O26	O	1.703149	0.773941	0.000806
O27	O	1.953149	1.023941	0.250806
O28	O	2.203149	1.273941	0.500806
O29	O	1.334819	0.249027	-0.405593
O30	O	1.584819	0.499027	-0.155593
O31	O	1.834819	0.749027	0.094407
O32	O	2.084819	0.999027	0.344407
O33	O	1.609560	0.523900	-0.405590
O34	O	1.859560	0.773900	-0.155590
O35	O	2.109560	1.023900	0.094410
O36	O	2.359560	1.273900	0.344410
O37	O	1.453329	0.248996	-0.524092
O38	O	1.703329	0.498996	-0.274092
O39	O	1.953329	0.748996	-0.024092
O40	O	2.203329	0.998996	0.225908
O41	O	1.334717	0.405451	-0.249196
O42	O	1.584717	0.655451	0.000804
O43	O	1.834717	0.905451	0.250804
O44	O	2.084717	1.155451	0.500804
O45	O	1.178379	0.405391	-0.405549
O46	O	1.428379	0.655391	-0.155549
O47	O	1.678379	0.905391	0.094451
O48	O	1.928379	1.155391	0.344451
O49	O	1.334768	0.523795	-0.680409
O50	O	1.584768	0.773795	-0.430409
O51	O	1.834768	1.023795	-0.180409
O52	O	2.084768	1.273795	0.069591
O53	O	1.178358	0.523835	-0.524013
O54	O	1.428358	0.773835	-0.274013
O55	O	1.678358	1.023835	-0.024013
O56	O	1.928358	1.273835	0.225987
O57	O	1.453300	0.405320	-0.680443
O58	O	1.703300	0.655320	-0.430443
O59	O	1.953300	0.905320	-0.180443
O60	O	2.203300	1.155320	0.069557
O61	O	1.453121	0.680264	-0.405545
O62	O	1.703121	0.930264	-0.155545
O63	O	1.953121	1.180264	0.094455
O64	O	2.203121	1.430264	0.344455
O65	O	1.334666	0.680219	-0.524011
O66	O	1.584666	0.930219	-0.274011
O67	O	1.834666	1.180219	-0.024011
O68	O	2.084666	1.430219	0.225989
C69	C	1.143369	0.464612	-0.464777
C70	C	1.393369	0.714612	-0.214777
C71	C	1.643369	0.964612	0.035223
C72	C	1.893369	1.214612	0.285223
C73	C	1.036155	0.464629	-0.464785
C74	C	1.286155	0.714629	-0.214785
C75	C	1.536155	0.964629	0.035215
C76	C	1.786155	1.214629	0.285215
C77	C	0.949086	0.464632	-0.464801
C78	C	1.199086	0.714632	-0.214801
C79	C	1.449086	0.964632	0.035199
C80	C	1.699086	1.214632	0.285199
C81	C	0.839853	0.464639	-0.464831
C82	C	1.089853	0.714639	-0.214831
C83	C	1.339853	0.964639	0.035169
C84	C	1.589853	1.214639	0.285169
C85	C	1.393905	0.715241	-0.464794
C86	C	1.643905	0.965241	-0.214794
C87	C	1.893905	1.215241	0.035206
C88	C	2.143905	1.465241	0.285206
C89	C	1.393960	0.822455	-0.464819
C90	C	1.643960	1.072455	-0.214819
C91	C	1.893960	1.322455	0.035181
C92	C	2.143960	1.572455	0.285181
C93	C	1.394054	1.018750	-0.464888
C94	C	1.644054	1.268750	-0.214888
C95	C	1.894054	1.518750	0.035112
C96	C	2.144054	1.768750	0.285112
C97	C	1.393999	0.909517	-0.464853
C98	C	1.643999	1.159517	-0.214853
C99	C	1.893999	1.409517	0.035147
C100	C	2.143999	1.659517	0.285147
C101	C	1.645577	0.464642	-0.464845
C102	C	1.895577	0.714642	-0.214845
C103	C	2.145577	0.964642	0.035155
C104	C	2.395577	1.214642	0.285155
C105	C	1.752790	0.464649	-0.464859
C106	C	2.002790	0.714649	-0.214859
C107	C	2.252790	0.964649	0.035141
C108	C	2.502790	1.214649	0.285141
C109	C	1.394081	1.213034	-0.464859
C110	C	1.644081	1.463034	-0.214859
C111	C	1.894081	1.713034	0.035141
C112	C	2.144081	1.963034	0.285141
C113	C	1.394101	1.105820	-0.464909
C114	C	1.644101	1.355820	-0.214909
C115	C	1.894101	1.605820	0.035091
C116	C	2.144101	1.855820	0.285091
C117	C	1.394043	0.464546	-0.716403
C118	C	1.644043	0.714546	-0.466403
C119	C	1.894043	0.964546	-0.216403
C120	C	2.144043	1.214546	0.033597
C121	C	1.394068	0.464511	-0.823617
C122	C	1.644068	0.714511	-0.573617
C123	C	1.894068	0.964511	-0.323617
C124	C	2.144068	1.214511	-0.073617
C125	C	1.394088	0.464484	-0.910687
C126	C	1.644088	0.714484	-0.660687
C127	C	1.894088	0.964484	-0.410687
C128	C	2.144088	1.214484	-0.160687
C129	C	1.394115	0.464440	-1.019920
C130	C	1.644115	0.714440	-0.769920
C131	C	1.894115	0.964440	-0.519920
C132	C	2.144115	1.214440	-0.269920
C133	C	1.393980	0.464638	-0.214196
C134	C	1.643980	0.714638	0.035804
C135	C	1.893980	0.964638	0.285804
C136	C	2.143980	1.214638	0.535804
C137	C	1.394142	0.464400	-0.106983
C138	C	1.644142	0.714400	0.143017
C139	C	1.894142	0.964400	0.393017
C140	C	2.144142	1.214400	0.643017
