data_functionalizedCrystal
_audit_creation_method	'MofGen! by Chris Wilmer'
_symmetry_space_group_name_H-M	'P1'
_symmetry_Int_Tables_number	1
_symmetry_cell_setting	triclinic
loop_
_symmetry_equiv_pos_as_xyz
  x,y,z
_cell_length_a	19.121102
_cell_length_b	29.839131
_cell_length_c	19.120904
_cell_angle_alpha	92.409150
_cell_angle_beta	90.088173
_cell_angle_gamma	87.595578
loop_
_atom_site_label
_atom_site_type_symbol
_atom_site_fract_x
_atom_site_fract_y
_atom_site_fract_z
Zn1	Zn	1.054749	-0.219753	-0.442036
Zn2	Zn	1.059636	-0.291816	-0.324791
Zn3	Zn	0.942520	-0.213364	-0.319821
Zn4	Zn	0.937448	-0.291514	-0.436994
O5	O	0.998588	-0.254112	-0.380911
O6	O	1.153501	-0.232113	-0.430674
O7	O	1.048269	-0.278861	-0.226027
O8	O	0.957485	-0.151347	-0.336063
O9	O	1.157092	-0.285057	-0.344535
O10	O	1.039939	-0.156042	-0.425855
O11	O	0.962224	-0.221223	-0.222376
O12	O	0.843743	-0.220930	-0.331174
O13	O	0.948840	-0.284542	-0.535767
O14	O	0.840017	-0.278346	-0.417260
O15	O	1.035020	-0.231820	-0.539472
O16	O	1.043351	-0.354640	-0.339645
O17	O	0.953579	-0.354418	-0.422080
C18	C	0.816443	-0.248912	-0.373131
C19	C	0.738519	-0.246699	-0.369819
C20	C	0.699992	-0.275595	-0.413013
C21	C	0.626774	-0.273510	-0.409905
C22	C	0.592086	-0.242531	-0.363599
C23	C	0.630619	-0.213632	-0.320403
C24	C	0.703835	-0.215716	-0.323515
C25	C	0.371117	-0.234741	-0.351966
C26	C	0.297896	-0.232660	-0.348855
C27	C	0.294056	-0.292537	-0.438359
C28	C	0.367274	-0.294620	-0.441464
C29	C	0.405800	-0.265720	-0.398271
C30	C	0.517246	-0.240400	-0.360419
C31	C	0.480639	-0.267849	-0.401455
C32	C	0.998463	-0.370830	-0.380870
C33	C	0.998473	-0.420765	-0.380879
C34	C	1.045411	-0.730519	-0.338056
C35	C	1.045496	-0.918195	-0.338087
O36	O	1.085306	-0.942551	-0.301646
N37	N	0.998731	-0.941559	-0.380970
C38	C	0.951945	-0.918001	-0.423851
O39	O	0.912175	-0.942181	-0.460332
C40	C	0.951864	-0.730326	-0.423824
C41	C	0.998627	-0.706964	-0.380933
C42	C	1.092171	-0.707157	-0.295169
C43	C	1.092146	-0.660241	-0.295159
C44	C	1.045362	-0.636686	-0.338036
C45	C	0.998602	-0.660048	-0.380923
C46	C	0.905081	-0.706770	-0.466708
C47	C	0.905066	-0.659848	-0.466699
C48	C	0.951829	-0.636486	-0.423808
C49	C	0.951794	-0.589577	-0.423789
N50	N	0.998559	-0.566213	-0.380906
C51	C	1.045343	-0.589768	-0.338030
C52	C	0.951990	-1.016534	-0.423862
C53	C	0.952010	-1.063452	-0.423868
C54	C	1.045562	-1.063642	-0.338104
C55	C	1.045539	-1.016723	-0.338095
C56	C	0.998755	-0.993169	-0.380979
C57	C	1.045288	-0.491240	-0.338011
C58	C	1.045257	-0.444319	-0.338003
C59	C	0.951708	-0.444133	-0.423769
C60	C	0.951735	-0.491049	-0.423775
C61	C	0.998531	-0.514602	-0.380894
O62	O	0.912011	-0.565193	-0.460217
O63	O	1.085117	-0.565581	-0.301566
C64	C	1.045435	-0.777435	-0.338066
C65	C	0.998676	-0.800797	-0.380953
C66	C	0.951891	-0.777243	-0.423830
C67	C	0.998695	-0.847716	-0.380959
C68	C	1.045479	-0.871270	-0.338082
C69	C	1.092244	-0.847906	-0.295199
C70	C	1.092220	-0.800990	-0.295189
C71	C	0.905126	-0.800607	-0.466712
C72	C	0.905154	-0.847523	-0.466718
C73	C	0.951938	-0.871078	-0.423842
C74	C	1.181445	-0.259331	-0.388721
C75	C	1.259368	-0.261556	-0.392050
C76	C	0.990819	-0.258860	-0.563768
C77	C	0.987508	-0.260884	-0.641691
C78	C	0.998732	-0.136939	-0.380967
C79	C	0.998794	-0.087007	-0.380991
C80	C	1.030820	-0.234387	-0.680230
C81	C	1.027700	-0.236286	-0.753446
C82	C	0.981272	-0.264686	-0.788123
C83	C	0.937956	-0.291184	-0.749580
C84	C	0.941072	-0.289282	-0.676364
C85	C	0.969615	-0.271800	-1.009090
C86	C	0.966503	-0.273701	-1.082311
C87	C	1.056247	-0.218802	-1.086172
C88	C	1.059362	-0.216905	-1.012955
C89	C	1.016043	-0.243401	-0.974418
C90	C	0.978084	-0.266629	-0.862963
C91	C	1.019228	-0.241455	-0.899580
C92	C	1.006368	-0.249350	-0.198766
C93	C	1.009815	-0.247204	-0.120849
H94	H	0.508885	-0.293070	-0.439160
N95	N	1.080905	-0.203760	-0.642834
H96	H	1.076314	-0.206578	-0.590604
H97	H	1.130416	-0.212521	-0.657778
H98	H	0.402476	-0.211211	-0.316789
N99	N	1.074401	-0.207698	-0.795013
H100	H	1.104284	-0.189417	-0.761936
H101	H	1.105531	-0.227692	-0.826779
N102	N	0.479824	-0.207002	-0.310457
H103	H	0.448252	-0.186088	-0.337705
H104	H	0.450851	-0.223567	-0.276651
N105	N	1.109426	-0.186257	-0.975572
H106	H	1.082243	-0.163837	-0.943995
H107	H	1.143186	-0.204670	-0.946609
N108	N	0.928019	-0.297265	-0.900368
H109	H	0.901054	-0.313767	-0.864847
H110	H	0.894305	-0.278843	-0.929367
H111	H	0.602369	-0.188407	-0.282702
N112	N	0.737401	-0.309008	-0.462961
H113	H	0.789629	-0.305945	-0.458378
H114	H	0.725032	-0.340430	-0.451411
H115	H	1.083618	-0.997704	-0.303170
N116	N	0.922871	-0.300362	-0.967529
H117	H	0.892982	-0.318637	-1.000609
H118	H	0.952649	-0.321182	-0.938345
N119	N	0.404687	-0.328035	-0.491405
H120	H	0.369169	-0.346025	-0.518298
H121	H	0.433712	-0.311491	-0.525194
N122	N	0.901519	-0.991135	-0.470113
H123	H	0.870257	-0.970031	-0.440206
H124	H	0.928634	-0.973326	-0.503837
H125	H	1.083337	-0.425299	-0.303073
H126	H	0.262680	-0.316066	-0.473526
H127	H	0.269654	-0.207429	-0.311151
H128	H	0.595408	-0.297040	-0.445078
N129	N	0.854601	-0.634442	-0.512945
H130	H	0.881672	-0.616603	-0.546669
H131	H	0.824992	-0.656389	-0.540068
N132	N	1.102966	-0.190224	-1.127737
H133	H	1.093949	-0.195737	-1.179380
H134	H	1.092637	-0.157497	-1.114487
N135	N	1.096021	-1.089052	-0.291855
H136	H	1.088933	-1.122319	-0.298372
H137	H	1.145612	-1.082530	-0.304949
N138	N	1.142710	-0.873313	-0.248955
H139	H	1.133991	-0.863560	-0.198389
H140	H	1.135602	-0.906573	-0.255531
H141	H	0.735203	-0.192183	-0.288345
N142	N	0.916427	-0.304335	-1.119715
H143	H	0.889457	-0.320832	-1.084193
H144	H	0.882718	-0.285911	-1.148718
N145	N	1.095759	-0.516639	-0.291763
H146	H	1.125373	-0.494714	-0.264595
H147	H	1.068639	-0.534476	-0.258080
H148	H	0.900150	-0.314306	-0.777819
N149	N	0.894363	-0.317862	-0.634790
H150	H	0.863192	-0.297887	-0.603034
H151	H	0.864523	-0.336140	-0.667908
H152	H	1.130227	-0.641222	-0.260236
N153	N	1.142636	-0.732558	-0.248920
H154	H	1.172250	-0.710632	-0.221756
H155	H	1.115514	-0.750392	-0.215235
N156	N	0.901561	-1.088646	-0.470116
H157	H	0.871923	-1.066601	-0.497275
H158	H	0.928696	-1.109744	-0.503806
H159	H	0.866998	-0.725783	-0.501631
H160	H	0.913659	-0.510072	-0.458702
N161	N	0.854661	-0.775203	-0.512955
H162	H	0.863378	-0.784960	-0.563520
H163	H	0.805073	-0.781707	-0.499822
N164	N	0.901245	-0.418723	-0.470008
H165	H	0.908331	-0.385456	-0.463491
H166	H	0.909993	-0.428513	-0.520553
H167	H	1.057027	-0.218330	-0.871343
N168	N	1.142661	-0.775796	-0.248933
H169	H	1.172300	-0.797843	-0.221778
H170	H	1.173861	-0.757969	-0.278879
H171	H	0.867068	-0.866540	-0.501645
