data_functionalizedCrystal
_audit_creation_method	'MofGen! by Chris Wilmer'
_symmetry_space_group_name_H-M	'P1'
_symmetry_Int_Tables_number	1
_symmetry_cell_setting	triclinic
loop_
_symmetry_equiv_pos_as_xyz
  x,y,z
_cell_length_a	15.625950
_cell_length_b	15.625429
_cell_length_c	14.750779
_cell_angle_alpha	59.907167
_cell_angle_beta	120.090508
_cell_angle_gamma	89.777900
loop_
_atom_site_label
_atom_site_type_symbol
_atom_site_fract_x
_atom_site_fract_y
_atom_site_fract_z
O1	O	1.283395	0.030637	0.356105
O2	O	0.992582	0.073015	0.240157
O3	O	1.159199	-0.093594	0.356130
O4	O	1.116778	0.197247	0.240132
O5	O	1.206299	-0.140688	0.548562
O6	O	1.039682	0.025921	0.432590
O7	O	1.330495	-0.016457	0.548537
Zn8	Zn	1.192567	-0.002745	0.521116
Zn9	Zn	1.130510	0.059303	0.267578
O10	O	1.163878	0.150153	0.432565
C11	C	0.979164	0.052212	0.322554
C12	C	0.869013	0.060377	0.281382
C13	C	0.634979	-0.041034	0.670283
C14	C	0.531458	-0.033328	0.631533
C15	C	0.480162	0.018007	0.421770
C16	C	0.583680	0.010312	0.460500
C17	C	0.661081	-0.019211	0.584758
C18	C	0.609782	0.032135	0.374975
C19	C	0.713292	0.024434	0.413705
C20	C	0.790700	-0.005090	0.537959
C21	C	0.764591	-0.026911	0.623488
C22	C	0.532381	0.061649	0.250721
C23	C	0.558484	0.083472	0.165196
C24	C	0.661994	0.075779	0.203922
C25	C	0.739401	0.046255	0.328176
C26	C	0.688102	0.097600	0.118394
C27	C	0.791612	0.089900	0.157123
C28	C	0.842911	0.038554	0.366906
C29	C	1.185499	-0.154112	0.466170
C30	C	1.193679	-0.264273	0.507355
C31	C	1.092195	-0.498234	0.118366
C32	C	1.099886	-0.601755	0.157100
C33	C	1.151231	-0.653080	0.366876
C34	C	1.143550	-0.549562	0.328162
C35	C	1.114030	-0.472146	0.203905
C36	C	1.165384	-0.523474	0.413701
C37	C	1.157698	-0.419965	0.374987
C38	C	1.128176	-0.342543	0.250734
C39	C	1.106343	-0.368637	0.165191
C40	C	1.194897	-0.600890	0.537954
C41	C	1.216732	-0.574803	0.623494
C42	C	1.209053	-0.471293	0.584783
C43	C	1.179531	-0.393871	0.460530
C44	C	1.230886	-0.445199	0.670326
C45	C	1.223199	-0.341689	0.631612
C46	C	1.171844	-0.290361	0.421816
C47	C	1.343912	0.004347	0.466138
C48	C	1.454062	-0.003816	0.507303
C49	C	1.137578	0.210671	0.322522
C50	C	1.129396	0.320834	0.281329
N51	N	1.234926	-0.045092	0.694152
N52	N	1.088160	0.101642	0.094548
C53	C	0.969860	0.219868	0.861506
C54	C	0.999550	0.190200	0.982663
C55	C	1.147112	0.042715	1.085311
C56	C	1.117432	0.072368	0.964160
C57	C	1.028806	0.160946	0.852265
C58	C	1.176378	0.013445	0.954920
C59	C	1.146704	0.043100	0.833779
C60	C	1.058083	0.131676	0.721879
C61	C	0.999132	0.190600	0.731124
C62	C	1.265009	-0.075128	1.066817
C63	C	1.323954	-0.134051	1.057576
C64	C	1.294276	-0.104401	0.936434
C65	C	1.205655	-0.015824	0.824534
C66	C	1.353227	-0.163325	0.927188
C67	C	1.323552	-0.133671	0.806048
C68	C	1.175980	0.013830	0.703393
H69	H	0.495451	0.107505	0.064027
C70	C	1.450717	-0.260756	1.050285
N71	N	1.524146	-0.334143	1.143003
C72	C	0.395011	0.050481	0.285089
N73	N	0.330874	0.074945	0.182137
C74	C	0.928058	0.006085	0.503595
N75	N	0.992190	-0.018373	0.606545
H76	H	0.448097	0.067923	0.219189
C77	C	1.297649	-0.107747	1.200074
N78	N	1.322231	-0.132316	1.300443
H79	H	0.698001	-0.065058	0.771459
H80	H	1.371554	-0.181651	0.798528
H81	H	0.510208	-0.051078	0.701177
H82	H	1.201144	-0.685171	0.569467
C83	C	1.249199	-0.659969	0.760172
N84	N	1.273656	-0.724117	0.863121
H85	H	1.082314	-0.305601	0.064012
H86	H	1.254911	-0.508243	0.771492
H87	H	0.812862	0.107675	0.087478
H88	H	1.240958	-0.320445	0.701258
C89	C	0.602951	0.130064	-0.018282
N90	N	0.538814	0.154517	-0.121229
H91	H	0.897686	0.291992	0.770392
H92	H	1.147815	-0.227325	0.320637
C93	C	1.078450	0.111235	0.580299
N94	N	1.004983	0.184587	0.487587
H95	H	1.121907	-0.258257	0.219210
H96	H	1.068166	-0.435198	0.017187
H97	H	1.033926	0.155822	0.623241
C98	C	1.075835	-0.630438	0.062977
N99	N	1.057708	-0.652039	-0.007920
C100	C	0.849739	-0.059381	0.760176
N101	N	0.913871	-0.083839	0.863127
H102	H	1.175263	-0.716124	0.468045
H103	H	0.926957	0.262724	0.640011
H104	H	0.951542	0.238191	0.990171
H105	H	0.874983	-0.011360	0.569491
H106	H	1.219275	-0.029405	1.176429
H107	H	1.396117	-0.206170	1.148693
