data_functionalizedCrystal
_audit_creation_method	'MofGen! by Chris Wilmer'
_symmetry_space_group_name_H-M	'P1'
_symmetry_Int_Tables_number	1
_symmetry_cell_setting	triclinic
loop_
_symmetry_equiv_pos_as_xyz
  x,y,z
_cell_length_a	17.019282
_cell_length_b	19.188930
_cell_length_c	15.500369
_cell_angle_alpha	92.832382
_cell_angle_beta	83.300600
_cell_angle_gamma	83.267516
loop_
_atom_site_label
_atom_site_type_symbol
_atom_site_fract_x
_atom_site_fract_y
_atom_site_fract_z
O1	O	1.046683	0.088629	-0.006053
O2	O	0.816101	0.100757	0.011134
O3	O	0.938047	-0.006975	0.002027
O4	O	0.924737	0.196361	0.003053
O5	O	0.945408	-0.013490	-0.142408
O6	O	0.823462	0.094242	-0.133301
O7	O	1.054044	0.082114	-0.150489
Cu8	Cu	0.939425	0.087583	-0.155083
Cu9	Cu	0.930720	0.095288	0.015728
O10	O	0.932098	0.189846	-0.141382
C11	C	0.790282	0.097170	-0.058885
C12	C	0.702382	0.096180	-0.052333
C13	C	0.665103	0.092161	-0.127989
C14	C	0.582513	0.091219	-0.121836
C15	C	0.537203	0.094301	-0.040026
C16	C	0.574487	0.098318	0.035635
C17	C	0.657076	0.099255	0.029481
C18	C	0.287637	0.091645	-0.017506
C19	C	0.205042	0.090710	-0.011358
C20	C	0.213074	0.083611	-0.168830
C21	C	0.295664	0.084552	-0.174976
C22	C	0.332941	0.088565	-0.099315
C23	C	0.452782	0.093341	-0.033735
C24	C	0.417361	0.089520	-0.105608
C25	C	0.941297	-0.036242	-0.070161
C26	C	0.940003	-0.113745	-0.070072
C27	C	1.011557	-0.158792	-0.075409
C28	C	1.010341	-0.231613	-0.075305
C29	C	0.937568	-0.259385	-0.069880
C30	C	0.866005	-0.214328	-0.064536
C31	C	0.867223	-0.141508	-0.064632
N32	N	0.884447	-0.369512	-0.114887
N33	N	0.883295	-0.438688	-0.114798
C34	C	0.933895	-0.478786	-0.069588
N35	N	0.985702	-0.447097	-0.024482
N36	N	0.986856	-0.377914	-0.024575
C37	C	0.936239	-0.338345	-0.069774
C38	C	1.004134	-0.602794	-0.074812
C39	C	1.002915	-0.675616	-0.074702
C40	C	0.858577	-0.658331	-0.063942
C41	C	0.859798	-0.585510	-0.064043
C42	C	0.932579	-0.557747	-0.069483
C43	C	1.079863	0.085701	-0.080468
C44	C	1.167763	0.086692	-0.087013
C45	C	0.928848	0.219114	-0.069192
C46	C	0.930141	0.296617	-0.069275
N47	N	0.945554	0.082164	-0.275223
C48	C	0.976280	0.055070	-0.822692
C49	C	0.971627	0.059178	-0.731774
C50	C	0.915288	0.108914	-0.682297
C51	C	0.863603	0.154551	-0.723743
C52	C	0.868261	0.150446	-0.814660
C53	C	0.898527	0.123696	-0.407586
C54	C	0.893872	0.127796	-0.316662
C55	C	1.001897	0.032423	-0.324700
C56	C	1.006546	0.028320	-0.415618
C57	C	0.954864	0.073959	-0.457057
C58	C	0.910528	0.113112	-0.589363
C59	C	0.959628	0.069764	-0.549989
N60	N	0.924598	0.100702	0.135868
H61	H	0.701989	0.089658	-0.194608
F62	F	0.803646	0.207489	-0.671085
H63	H	0.552167	0.087936	-0.183443
H64	H	1.070821	-0.136192	-0.079835
F65	F	0.343881	0.081276	-0.262050
H66	H	0.415881	0.095849	0.032875
H67	H	1.068610	-0.268296	-0.079648
F68	F	1.066507	-0.024616	-0.468275
H69	H	0.801532	-0.548832	-0.059702
F70	F	0.788555	-0.243886	-0.058757
F71	F	0.843522	0.172266	-0.451680
F72	F	0.526265	0.101576	0.122704
F73	F	1.079076	-0.723559	-0.080378
F74	F	0.813255	0.199017	-0.858761
F75	F	1.026633	0.010612	-0.687671
H76	H	1.043974	-0.004734	-0.290953
H77	H	0.799324	-0.680942	-0.059520
H78	H	0.454257	0.087008	-0.172217
F79	F	1.019589	0.016834	-0.602647
H80	H	0.808953	-0.104831	-0.060286
H81	H	1.063397	-0.580188	-0.079237
F82	F	0.833903	0.180735	-0.264010
H83	H	0.864654	0.153608	-0.549071
H84	H	1.022154	0.014567	-0.862971
H85	H	0.182714	0.080342	-0.230429
F86	F	0.156819	0.093992	0.075720
H87	H	0.317978	0.094911	0.044103
H88	H	0.687426	0.102528	0.091088
