data_functionalizedCrystal
_audit_creation_method	'MofGen! by Chris Wilmer'
_symmetry_space_group_name_H-M	'P1'
_symmetry_Int_Tables_number	1
_symmetry_cell_setting	triclinic
loop_
_symmetry_equiv_pos_as_xyz
  x,y,z
_cell_length_a	15.995350
_cell_length_b	26.809956
_cell_length_c	15.995350
_cell_angle_alpha	89.993425
_cell_angle_beta	83.492375
_cell_angle_gamma	90.005182
loop_
_atom_site_label
_atom_site_type_symbol
_atom_site_fract_x
_atom_site_fract_y
_atom_site_fract_z
O1	O	1.110992	0.041435	0.107915
O2	O	1.610992	0.541435	0.607915
O3	O	0.867217	0.041445	0.121242
O4	O	1.367217	0.541445	0.621242
O5	O	0.995768	0.041439	-0.007309
O6	O	1.495768	0.541439	0.492691
O7	O	0.982441	0.041441	0.236466
O8	O	1.482441	0.541441	0.736466
O9	O	0.995744	-0.041520	-0.007289
O10	O	1.495744	0.458480	0.492711
O11	O	0.867193	-0.041514	0.121262
O12	O	1.367193	0.458486	0.621262
O13	O	1.110968	-0.041524	0.107934
O14	O	1.610968	0.458476	0.607934
Zn15	Zn	0.989076	-0.054691	0.114601
Zn16	Zn	1.489076	0.445309	0.614601
Zn17	Zn	0.989108	0.054611	0.114575
Zn18	Zn	1.489108	0.554611	0.614575
O19	O	0.982416	-0.041519	0.236486
O20	O	1.482416	0.458481	0.736486
C21	C	0.836010	-0.000034	0.120701
C22	C	1.336010	0.499966	0.620701
C23	C	0.743060	-0.000030	0.119049
C24	C	1.243060	0.499970	0.619049
N25	N	0.989061	-0.129287	0.114618
N26	N	1.489061	0.370713	0.614618
C27	C	0.405312	-0.000040	0.113117
C28	C	0.905312	0.499960	0.613117
C29	C	0.452746	-0.000226	0.021565
C30	C	0.952746	0.499774	0.521565
C31	C	0.549436	-0.000035	0.023217
C32	C	1.049436	0.499965	0.523217
C33	C	0.572873	-0.000035	0.116060
C34	C	1.072873	0.499965	0.616060
C35	C	0.531799	0.047337	0.161205
C36	C	1.031799	0.547337	0.661205
C37	C	0.435164	0.047373	0.158905
C38	C	0.935164	0.547373	0.658905
C39	C	0.434797	-0.046967	0.160819
C40	C	0.934797	0.453033	0.660819
C41	C	0.531742	-0.047590	0.160797
C42	C	1.031742	0.452410	0.660797
C43	C	0.667570	-0.000031	0.117727
C44	C	1.167570	0.499969	0.617727
C45	C	0.310614	-0.000041	0.111452
C46	C	0.810614	0.499959	0.611452
C47	C	1.046024	-0.473916	0.057667
C48	C	1.546024	0.026084	0.557667
C49	C	1.046043	-0.682793	0.057654
C50	C	1.546043	-0.182793	0.557654
O51	O	1.094441	-0.709799	0.009237
O52	O	1.594441	-0.209799	0.509237
N53	N	0.989113	-0.708914	0.114557
N54	N	1.489113	-0.208914	0.614557
C55	C	0.932170	-0.682812	0.171463
C56	C	1.432170	-0.182812	0.671463
O57	O	0.883741	-0.709822	0.219857
O58	O	1.383741	-0.209822	0.719857
C59	C	0.932146	-0.473936	0.171471
C60	C	1.432146	0.026064	0.671471
C61	C	0.989086	-0.447817	0.114571
C62	C	1.489086	0.052183	0.614571
C63	C	1.102958	-0.447797	0.000770
C64	C	1.602958	0.052203	0.500770
C65	C	1.102956	-0.395581	0.000777
C66	C	1.602956	0.104419	0.500777
C67	C	1.046019	-0.369483	0.057681
C68	C	1.546019	0.130517	0.557681
C69	C	0.989084	-0.395601	0.114577
C70	C	1.489084	0.104399	0.614577
C71	C	0.875200	-0.447835	0.228373
C72	C	1.375200	0.052165	0.728373
C73	C	0.875198	-0.395612	0.228369
C74	C	1.375198	0.104388	0.728369
C75	C	0.932138	-0.369494	0.171468
C76	C	1.432138	0.130506	0.671468
C77	C	0.932144	-0.317287	0.171488
C78	C	1.432144	0.182713	0.671488
N79	N	0.989075	-0.291166	0.114585
N80	N	1.489075	0.208834	0.614585
C81	C	1.046012	-0.317264	0.057681
C82	C	1.546012	0.182736	0.557681
C83	C	0.932187	-0.792476	0.171456
C84	C	1.432187	-0.292476	0.671456
C85	C	0.932194	-0.844695	0.171455
C86	C	1.432194	-0.344695	0.671455
C87	C	1.046067	-0.844672	0.057645
C88	C	1.546067	-0.344672	0.557645
C89	C	1.046063	-0.792452	0.057650
C90	C	1.546063	-0.292452	0.557650
C91	C	0.989117	-0.766355	0.114553
C92	C	1.489117	-0.266355	0.614553
C93	C	1.046003	-0.207606	0.057701
C94	C	1.546003	0.292394	0.557701
C95	C	1.045998	-0.155385	0.057715
C96	C	1.545998	0.344615	0.557715
C97	C	0.932122	-0.155412	0.171522
C98	C	1.432122	0.344588	0.671522
C99	C	0.932130	-0.207629	0.171511
C100	C	1.432130	0.292371	0.671511
C101	C	0.989074	-0.233724	0.114593
C102	C	1.489074	0.266276	0.614593
O103	O	0.883765	-0.290249	0.219873
O104	O	1.383765	0.209751	0.719873
O105	O	1.094421	-0.290245	0.009283
O106	O	1.594421	0.209755	0.509283
C107	C	1.046026	-0.526132	0.057660
C108	C	1.546026	-0.026132	0.557660
C109	C	0.989091	-0.552250	0.114557
C110	C	1.489091	-0.052250	0.614557
C111	C	0.932154	-0.526152	0.171461
C112	C	1.432154	-0.026152	0.671461
C113	C	0.989098	-0.604469	0.114556
C114	C	1.489098	-0.104469	0.614556
C115	C	1.046035	-0.630567	0.057652
C116	C	1.546035	-0.130567	0.557652
C117	C	1.102966	-0.604446	0.000750
C118	C	1.602966	-0.104446	0.500750
C119	C	1.102963	-0.552230	0.000757
C120	C	1.602963	-0.052230	0.500757
C121	C	0.875224	-0.552273	0.228363
C122	C	1.375224	-0.052273	0.728363
C123	C	0.875231	-0.604489	0.228353
C124	C	1.375231	-0.104489	0.728353
C125	C	0.932169	-0.630587	0.171449
C126	C	1.432169	-0.130587	0.671449
C127	C	1.142175	-0.000045	0.108476
C128	C	1.642175	0.499955	0.608476
C129	C	1.235125	-0.000046	0.110127
C130	C	1.735125	0.499954	0.610127
N131	N	0.989131	0.129207	0.114552
N132	N	1.489131	0.629207	0.614552
C133	C	0.995205	-0.000040	-0.038494
C134	C	1.495205	0.499960	0.461506
C135	C	0.993553	-0.000037	-0.131444
C136	C	1.493553	0.499963	0.368556
C137	C	0.987621	-0.000038	-0.469192
C138	C	1.487621	0.499962	0.030808
C139	C	0.896069	0.000152	-0.421758
C140	C	1.396069	0.500152	0.078242
C141	C	0.897721	-0.000035	-0.325068
C142	C	1.397721	0.499965	0.174932
C143	C	0.990564	-0.000037	-0.301631
C144	C	1.490564	0.499963	0.198369
C145	C	1.035706	-0.047412	-0.342698
C146	C	1.535706	0.452588	0.157302
C147	C	1.033407	-0.047451	-0.439333
C148	C	1.533407	0.452549	0.060667
C149	C	1.035325	0.046889	-0.439714
C150	C	1.535325	0.546889	0.060286
C151	C	1.035304	0.047515	-0.342769
C152	C	1.535304	0.547515	0.157231
C153	C	0.992231	-0.000038	-0.206934
C154	C	1.492231	0.499962	0.293066
C155	C	0.985956	-0.000040	-0.563890
C156	C	1.485956	0.499960	-0.063890
C157	C	0.982980	-0.000039	0.267671
C158	C	1.482980	0.499961	0.767671
C159	C	0.984631	-0.000039	0.360621
C160	C	1.484631	0.499961	0.860621
H161	H	0.577855	-0.033994	-0.012270
H162	H	1.077855	0.466006	0.487730
Cl163	Cl	1.174546	-0.480598	-0.070775
Cl164	Cl	1.674546	0.019402	0.429225
H165	H	0.859629	-0.033630	-0.441344
H166	H	1.359629	0.466370	0.058656
H167	H	0.885773	-0.228894	0.217853
H168	H	1.385773	0.271106	0.717853
Cl169	Cl	0.385372	0.050694	0.262677
Cl170	Cl	0.885372	0.550694	0.762677
Cl171	Cl	0.803602	-0.362808	0.299908
Cl172	Cl	1.303602	0.137192	0.799908
H173	H	1.092368	-0.134121	0.011379
H174	H	1.592368	0.365879	0.511379
Cl175	Cl	1.139836	0.051933	-0.319049
Cl176	Cl	1.639836	0.551933	0.180951
Cl177	Cl	0.553632	0.050070	0.266505
Cl178	Cl	1.053632	0.550070	0.766505
Cl179	Cl	0.424129	-0.052677	-0.034925
Cl180	Cl	0.924129	0.447323	0.465075
Cl181	Cl	1.139540	0.047380	-0.488751
Cl182	Cl	1.639540	0.547380	0.011249
H183	H	0.433162	0.033559	-0.014870
H184	H	0.933162	0.533559	0.485130
H185	H	0.577304	0.033982	-0.012526
H186	H	1.077304	0.533982	0.487474
H187	H	1.149319	-0.374319	-0.045559
H188	H	1.649319	0.125681	0.454441
Cl189	Cl	0.987269	-0.101842	-0.298871
Cl190	Cl	1.487269	0.398158	0.201129
H191	H	0.416866	0.082785	0.125967
H192	H	0.916866	0.582785	0.625967
H193	H	0.885814	-0.771231	0.217796
H194	H	1.385814	-0.271231	0.717796
H195	H	0.414251	-0.082874	0.130897
H196	H	0.914251	0.417126	0.630897
H197	H	1.000468	-0.082864	-0.457626
H198	H	1.500468	0.417136	0.042374
Cl199	Cl	0.842532	-0.052551	-0.282028
Cl200	Cl	1.342532	0.447449	0.217972
H201	H	0.560184	0.082592	0.129833
H202	H	1.060184	0.582592	0.629833
H203	H	0.885767	-0.134155	0.217855
H204	H	1.385767	0.365845	0.717855
H205	H	0.559049	-0.082635	0.127842
H206	H	1.059049	0.417365	0.627842
Cl207	Cl	0.842932	0.052396	-0.281195
Cl208	Cl	1.342932	0.552396	0.218805
Cl209	Cl	0.803613	-0.480658	0.299907
Cl210	Cl	1.303613	0.019342	0.799907
H211	H	1.092428	-0.865930	0.011313
H212	H	1.592428	-0.365930	0.511313
H213	H	0.547107	-0.050451	0.228501
H214	H	1.047107	0.449549	0.728501
Cl215	Cl	0.385761	-0.047463	0.265034
Cl216	Cl	0.885761	0.452537	0.765034
H217	H	1.005403	0.082796	-0.460262
H218	H	1.505403	0.582796	0.039738
H219	H	1.092371	-0.228847	0.011352
H220	H	1.592371	0.271153	0.511352
Cl221	Cl	0.839583	0.052605	-0.450379
Cl222	Cl	1.339583	0.552605	0.049621
Cl223	Cl	1.141015	-0.050137	-0.320890
Cl224	Cl	1.641015	0.449863	0.179110
H225	H	1.149329	-0.530968	-0.045578
H226	H	1.649329	-0.030968	0.454422
H227	H	1.100622	-0.049602	-0.471581
H228	H	1.600622	0.450398	0.028419
H229	H	1.149329	-0.625704	-0.045581
H230	H	1.649329	-0.125704	0.454419
H231	H	0.828866	-0.625751	0.274695
H232	H	1.328866	-0.125751	0.774695
H233	H	1.002299	0.082561	-0.315528
H234	H	1.502299	0.582561	0.184472
Cl235	Cl	1.117646	-0.759623	-0.013886
Cl236	Cl	1.617646	-0.259623	0.486114
H237	H	0.885837	-0.865956	0.217798
H238	H	1.385837	-0.365956	0.717798
Cl239	Cl	0.803640	-0.519470	0.299907
Cl240	Cl	1.303640	-0.019470	0.799907
