data_functionalizedCrystal
_audit_creation_method	'MofGen! by Chris Wilmer'
_symmetry_space_group_name_H-M	'P1'
_symmetry_Int_Tables_number	1
_symmetry_cell_setting	triclinic
loop_
_symmetry_equiv_pos_as_xyz
  x,y,z
_cell_length_a	21.395364
_cell_length_b	19.805405
_cell_length_c	21.395355
_cell_angle_alpha	89.980090
_cell_angle_beta	89.975484
_cell_angle_gamma	90.022175
loop_
_atom_site_label
_atom_site_type_symbol
_atom_site_fract_x
_atom_site_fract_y
_atom_site_fract_z
Zn1	Zn	0.957878	-0.269618	-0.354255
Zn2	Zn	0.957788	-0.382788	-0.249475
Zn3	Zn	0.853093	-0.269610	-0.249492
Zn4	Zn	0.853070	-0.382762	-0.354215
O5	O	0.905457	-0.326194	-0.301859
O6	O	1.045544	-0.284645	-0.340365
O7	O	0.943872	-0.367782	-0.161799
O8	O	0.867040	-0.174894	-0.263412
O9	O	1.045478	-0.367790	-0.263384
O10	O	0.944025	-0.174900	-0.340381
O11	O	0.866953	-0.284630	-0.161811
O12	O	0.765412	-0.284605	-0.263374
O13	O	0.867001	-0.367746	-0.441898
O14	O	0.765395	-0.367738	-0.340314
O15	O	0.944003	-0.284620	-0.441927
O16	O	0.943850	-0.477501	-0.263345
O17	O	0.866914	-0.477482	-0.340297
C18	C	0.742669	-0.326169	-0.301841
C19	C	0.673028	-0.326174	-0.301849
C20	C	0.905387	-0.502051	-0.301829
C21	C	0.905414	-0.577282	-0.301837
C22	C	0.171266	-0.283003	-0.342017
C23	C	0.236701	-0.282998	-0.342017
C24	C	0.269390	-0.326215	-0.301873
C25	C	0.236638	-0.369453	-0.261737
C26	C	0.171204	-0.369462	-0.261743
C27	C	0.373027	-0.331456	-0.245406
C28	C	0.438460	-0.331443	-0.245399
C29	C	0.471211	-0.326193	-0.301856
C30	C	0.438521	-0.320941	-0.358321
C31	C	0.373086	-0.320950	-0.358327
C32	C	0.340342	-0.326211	-0.301863
C33	C	0.574907	-0.282955	-0.341992
C34	C	0.640344	-0.282955	-0.341993
C35	C	0.640279	-0.369407	-0.261707
C36	C	0.574844	-0.369411	-0.261712
C37	C	0.542162	-0.326181	-0.301853
C38	C	0.945513	-0.612614	-0.261810
C39	C	0.945540	-0.683302	-0.261823
C40	C	0.905463	-0.718658	-0.301862
C41	C	0.865362	-0.683322	-0.341893
C42	C	0.865339	-0.612634	-0.341882
C43	C	0.865454	-0.968395	-0.341940
C44	C	0.865479	-1.039087	-0.341946
C45	C	0.945655	-1.039063	-0.261881
C46	C	0.945632	-0.968376	-0.261870
C47	C	0.905534	-0.933045	-0.301903
C48	C	0.905506	-0.856397	-0.301889
C49	C	0.905487	-0.795305	-0.301874
C50	C	1.068880	-0.326221	-0.301877
C51	C	1.138522	-0.326232	-0.301885
C52	C	0.905509	-0.326181	-0.465282
C53	C	0.905531	-0.326175	-0.534924
C54	C	0.905545	-0.149652	-0.301903
C55	C	0.905582	-0.074420	-0.301922
C56	C	0.945624	-0.282889	-0.567653
C57	C	0.945624	-0.282860	-0.633088
C58	C	0.905536	-0.326129	-0.665792
C59	C	0.865435	-0.369418	-0.633055
C60	C	0.865433	-0.369441	-0.567621
C61	C	0.900564	-0.387073	-0.769456
C62	C	0.900571	-0.387051	-0.834889
C63	C	0.905540	-0.326057	-0.867613
C64	C	0.910515	-0.265084	-0.834895
C65	C	0.910513	-0.265107	-0.769461
C66	C	0.905534	-0.326108	-0.736744
C67	C	0.945634	-0.282736	-0.971295
C68	C	0.945629	-0.282706	-1.036731
C69	C	0.865444	-0.369270	-1.036697
C70	C	0.865446	-0.369294	-0.971261
C71	C	0.905545	-0.326028	-0.938564
C72	C	0.905441	-0.326159	-0.139071
C73	C	0.905541	-0.325974	-0.069431
H74	H	0.144660	-0.247805	-0.374706
H75	H	0.832804	-0.939634	-0.374535
C76	C	0.989654	-0.722163	-0.217793
C77	C	0.984573	-0.712489	-0.146560
C78	C	1.028692	-0.751347	-0.102529
C79	C	1.077892	-0.799879	-0.129732
C80	C	1.082975	-0.809556	-0.200970
C81	C	1.038856	-0.770698	-0.245000
H82	H	0.948150	-0.676560	-0.126419
H83	H	1.024929	-0.744184	-0.049794
H84	H	1.110552	-0.828645	-0.097138
H85	H	1.119398	-0.845484	-0.221110
H86	H	1.042619	-0.777861	-0.297735
H87	H	0.346366	-0.335735	-0.199429
C88	C	0.989599	-0.573726	-0.217766
C89	C	0.984528	-0.583490	-0.146536
C90	C	1.028616	-0.544604	-0.102493
C91	C	1.077776	-0.495953	-0.129681
C92	C	1.082850	-0.486186	-0.200915
C93	C	1.038761	-0.525072	-0.244958
H94	H	0.948134	-0.619507	-0.126407
H95	H	1.024860	-0.551834	-0.049761
H96	H	1.110413	-0.467167	-0.097078
H97	H	1.119243	-0.450169	-0.221044
H98	H	1.042517	-0.517842	-0.297690
C99	C	0.538822	-0.416959	-0.217559
C100	C	0.547784	-0.411324	-0.146340
C101	C	0.511763	-0.458877	-0.102186
C102	C	0.466780	-0.512066	-0.129251
C103	C	0.457817	-0.517704	-0.200473
C104	C	0.493838	-0.470150	-0.244627
H105	H	0.581084	-0.371948	-0.126302
H106	H	0.518398	-0.454703	-0.049462
H107	H	0.440115	-0.547268	-0.096565
H108	H	0.424516	-0.557079	-0.220511
H109	H	0.487202	-0.474324	-0.297351
H110	H	0.978277	-0.247454	-1.063379
C111	C	0.272592	-0.416992	-0.217577
C112	C	0.344567	-0.416982	-0.217566
C113	C	0.380521	-0.464526	-0.173407
C114	C	0.344499	-0.512080	-0.129259
C115	C	0.272520	-0.512092	-0.129269
C116	C	0.236567	-0.464548	-0.173428
H117	H	0.371236	-0.381778	-0.250248
H118	H	0.433805	-0.464517	-0.173400
H119	H	0.371114	-0.547275	-0.096570
H120	H	0.245852	-0.547296	-0.096586
H121	H	0.183283	-0.464557	-0.173435
C122	C	0.821327	-0.417060	-0.531616
C123	C	0.772151	-0.387736	-0.486613
C124	C	0.728045	-0.435356	-0.450608
C125	C	0.733115	-0.512299	-0.459606
C126	C	0.782294	-0.541627	-0.504611
C127	C	0.826400	-0.494007	-0.540616
H128	H	0.768396	-0.330775	-0.479950
H129	H	0.691640	-0.413645	-0.417292
H130	H	0.700466	-0.547550	-0.432953
H131	H	0.786049	-0.598588	-0.511274
H132	H	0.862805	-0.515717	-0.573932
C133	C	0.821279	-0.722210	-0.385939
C134	C	0.821301	-0.799963	-0.385953
C135	C	0.777216	-0.838851	-0.429999
C136	C	0.733110	-0.799985	-0.474032
C137	C	0.733087	-0.722227	-0.474019
C138	C	0.777171	-0.683340	-0.429973
H139	H	0.853952	-0.828738	-0.353356
H140	H	0.777234	-0.896412	-0.430008
H141	H	0.700476	-0.828771	-0.506637
H142	H	0.700435	-0.693452	-0.506616
H143	H	0.777154	-0.625779	-0.429964
C144	C	0.989771	-1.077928	-0.217848
C145	C	0.989805	-1.155681	-0.217858
C146	C	1.033918	-1.194543	-0.173824
C147	C	1.077997	-1.155653	-0.129781
C148	C	1.077965	-1.077895	-0.129769
C149	C	1.033852	-1.039033	-0.173802
H150	H	0.957173	-1.184474	-0.250463
H151	H	1.033941	-1.252105	-0.173833
H152	H	1.110652	-1.184421	-0.097184
H153	H	1.110597	-1.049102	-0.097164
H154	H	1.033829	-0.981471	-0.173794
C155	C	0.821396	-1.077980	-0.385995
C156	C	0.777291	-1.039120	-0.430033
C157	C	0.733210	-1.078013	-0.474079
C158	C	0.733235	-1.155766	-0.474086
C159	C	0.777342	-1.194631	-0.430046
C160	C	0.821422	-1.155737	-0.386001
H161	H	0.777271	-0.981559	-0.430029
H162	H	0.700559	-1.049243	-0.506680
H163	H	0.700603	-1.184558	-0.506691
H164	H	0.777361	-1.252192	-0.430050
H165	H	0.854073	-1.184508	-0.353400
H166	H	0.548296	-0.247755	-0.374677
C167	C	0.989727	-0.235291	-0.531689
C168	C	0.984652	-0.158342	-0.540691
C169	C	1.028754	-0.110742	-0.504727
C170	C	1.077931	-0.140091	-0.459761
C171	C	1.083008	-0.217043	-0.450758
C172	C	1.038906	-0.264643	-0.486722
H173	H	0.948247	-0.136613	-0.573979
H174	H	1.024995	-0.053777	-0.511392
H175	H	1.110577	-0.104854	-0.433138
H176	H	1.119413	-0.238772	-0.417470
H177	H	1.042665	-0.321609	-0.480057
C178	C	0.895030	-0.454173	-0.870778
C179	C	0.947374	-0.476203	-0.915779
C180	C	0.941800	-0.543353	-0.951619
C181	C	0.883880	-0.588472	-0.942458
C182	C	0.831531	-0.566442	-0.897455
C183	C	0.837106	-0.499293	-0.861615
H184	H	0.990254	-0.442803	-0.922562
H185	H	0.980552	-0.559661	-0.984934
H186	H	0.879753	-0.638180	-0.968989
H187	H	0.788652	-0.599843	-0.890671
H188	H	0.798354	-0.482985	-0.828300
C189	C	0.989734	-0.235249	-0.669101
C190	C	1.033841	-0.187661	-0.633136
C191	C	1.077953	-0.140052	-0.669147
C192	C	1.077957	-0.140031	-0.741122
C193	C	1.033848	-0.187621	-0.777090
C194	C	0.989737	-0.235230	-0.741080
H195	H	1.033839	-0.187675	-0.579852
H196	H	1.110605	-0.104823	-0.642520
H197	H	1.110611	-0.104788	-0.767779
H198	H	1.033850	-0.187607	-0.830374
H199	H	0.957084	-0.270459	-0.767707
C200	C	0.895169	-0.454117	-0.733367
C201	C	0.837339	-0.499429	-0.742198
C202	C	0.831976	-0.566445	-0.706064
C203	C	0.884442	-0.588149	-0.661099
C204	C	0.942276	-0.542836	-0.652266
C205	C	0.947639	-0.475820	-0.688400
H206	H	0.798497	-0.483363	-0.775485
H207	H	0.789163	-0.599988	-0.712603
H208	H	0.880471	-0.637757	-0.634350
H209	H	0.981118	-0.558902	-0.618979
H210	H	0.990452	-0.442277	-0.681862
C211	C	0.915997	-0.197986	-0.870882
C212	C	0.916006	-0.197955	-0.942857
C213	C	0.921499	-0.130861	-0.978847
C214	C	0.926982	-0.063797	-0.942861
C215	C	0.926973	-0.063825	-0.870882
C216	C	0.921481	-0.130920	-0.834893
H217	H	0.911947	-0.247602	-0.969499
H218	H	0.921506	-0.130841	-1.032131
H219	H	0.931048	-0.014130	-0.969503
H220	H	0.931032	-0.014179	-0.844240
H221	H	0.921474	-0.130940	-0.781609
H222	H	0.832794	-0.404645	-0.659686
H223	H	0.914562	-0.215460	-0.742826
C224	C	0.821346	-0.416866	-1.072662
C225	C	0.821345	-0.416843	-1.144637
C226	C	0.777242	-0.464438	-1.180606
C227	C	0.733141	-0.512057	-1.144600
C228	C	0.733141	-0.512082	-1.072621
C229	C	0.777243	-0.464486	-1.036652
H230	H	0.853992	-0.381591	-1.171295
H231	H	0.777243	-0.464419	-1.233890
H232	H	0.700494	-0.547289	-1.171227
H233	H	0.700493	-0.547333	-1.045964
H234	H	0.777242	-0.464505	-0.983368
H235	H	0.263367	-0.247792	-0.374697
H236	H	0.978282	-0.247503	-0.944671
C237	C	0.474537	-0.315166	-0.420430
C238	C	0.438582	-0.309391	-0.482536
C239	C	0.474601	-0.303613	-0.544642
C240	C	0.546576	-0.303609	-0.544642
C241	C	0.582536	-0.309384	-0.482533
C242	C	0.546516	-0.315163	-0.420427
H243	H	0.385298	-0.309393	-0.482539
H244	H	0.447981	-0.299337	-0.590619
H245	H	0.573240	-0.299332	-0.590616
H246	H	0.635820	-0.309382	-0.482530
H247	H	0.573136	-0.319438	-0.374450
H248	H	0.346473	-0.316676	-0.404303
H249	H	0.667003	-0.247754	-0.374678
H250	H	0.666894	-0.404601	-0.229026
H251	H	0.832801	-0.404546	-0.944613
H252	H	0.465071	-0.335715	-0.199421
H253	H	0.144544	-0.404666	-0.229061
H254	H	0.978264	-0.939591	-0.229265
H255	H	0.832687	-0.583868	-0.374477
