data_functionalizedCrystal
_audit_creation_method	'MofGen! by Chris Wilmer'
_symmetry_space_group_name_H-M	'P1'
_symmetry_Int_Tables_number	1
_symmetry_cell_setting	triclinic
loop_
_symmetry_equiv_pos_as_xyz
  x,y,z
_cell_length_a	10.654541
_cell_length_b	23.532407
_cell_length_c	9.730217
_cell_angle_alpha	89.992119
_cell_angle_beta	89.999932
_cell_angle_gamma	83.666303
loop_
_atom_site_label
_atom_site_type_symbol
_atom_site_fract_x
_atom_site_fract_y
_atom_site_fract_z
O1	O	1.665305	0.079977	-0.114264
O2	O	1.299584	0.087599	-0.114277
O3	O	1.493473	0.000928	-0.114245
O4	O	1.471416	0.166648	-0.114296
O5	O	1.493467	0.000928	0.114335
O6	O	1.299578	0.087598	0.114303
O7	O	1.665299	0.079977	0.114317
Zn8	Zn	1.482437	0.083787	0.150602
Zn9	Zn	1.482445	0.083788	-0.150562
O10	O	1.471410	0.166647	0.114284
C11	C	1.252801	0.087039	0.000012
C12	C	1.113410	0.085366	0.000008
C13	C	1.082156	0.189004	-0.000042
C14	C	1.001045	0.240035	-0.000071
C15	C	0.870077	0.238459	-0.000072
C16	C	0.820218	0.185847	-0.000039
C17	C	0.901329	0.134816	-0.000009
C18	C	1.032299	0.136398	-0.000013
C19	C	0.932583	0.031179	0.000050
C20	C	1.063552	0.032754	0.000041
C21	C	0.882725	-0.021433	0.000083
C22	C	0.963837	-0.072465	0.000103
C23	C	1.094812	-0.070887	0.000102
C24	C	1.144663	-0.018277	0.000071
C25	C	1.492908	-0.020292	0.000049
C26	C	1.491219	-0.083520	0.000059
C27	C	1.595367	-0.481945	-0.000012
C28	C	1.593798	-0.541355	-0.000023
O29	O	1.690344	-0.577471	-0.000070
N30	N	1.478531	-0.564732	-0.000026
C31	C	1.364826	-0.528695	-0.000033
O32	O	1.266639	-0.554034	-0.000038
C33	C	1.366396	-0.469285	-0.000032
C34	C	1.481670	-0.445912	-0.000015
C35	C	1.710632	-0.458571	0.000003
C36	C	1.712200	-0.399164	0.000017
C37	C	1.598503	-0.363132	0.000014
C38	C	1.483238	-0.386506	-0.000002
C39	C	1.252692	-0.433249	-0.000049
C40	C	1.254272	-0.373836	-0.000049
C41	C	1.369546	-0.350463	-0.000032
C42	C	1.371110	-0.291067	0.000009
N43	N	1.486377	-0.267690	0.000012
C44	C	1.600073	-0.303723	0.000015
C45	C	1.361537	-0.653459	-0.000036
C46	C	1.359966	-0.712867	-0.000027
C47	C	1.588939	-0.725523	-0.000020
C48	C	1.590509	-0.666114	-0.000019
C49	C	1.476804	-0.630082	-0.000033
C50	C	1.603358	-0.178964	0.000043
C51	C	1.604916	-0.119552	0.000062
C52	C	1.375944	-0.106901	0.000047
C53	C	1.374385	-0.166308	0.000036
C54	C	1.488102	-0.202339	0.000029
O55	O	1.274615	-0.254916	0.000050
O56	O	1.698244	-0.278375	0.000002
C57	C	1.712082	0.080536	0.000025
C58	C	1.851472	0.082210	0.000020
C59	C	1.471975	0.187867	-0.000012
C60	C	1.473663	0.251096	-0.000032
N61	N	1.482441	0.083786	0.356138
N62	N	1.482451	0.083785	-0.356099
C63	C	1.654199	0.007062	0.356158
C64	C	1.740086	-0.031299	0.428107
C65	C	1.740099	-0.031299	0.571987
C66	C	1.654213	0.007064	0.643920
C67	C	1.568326	0.045425	0.571971
C68	C	1.568325	0.045422	0.428088
C69	C	1.396564	0.122146	0.571952
C70	C	1.396555	0.122150	0.428072
C71	C	1.310678	0.160509	0.643885
C72	C	1.224795	0.198873	0.571936
C73	C	1.224787	0.198872	0.428047
C74	C	1.310668	0.160510	0.356122
H75	H	1.041654	0.282871	-0.000095
C76	C	1.731722	-0.093845	0.000073
H77	H	1.799208	-0.123817	0.000057
H78	H	1.737099	-0.070939	0.079787
H79	H	1.737095	-0.070927	-0.079645
H80	H	1.695957	-0.208294	0.000032
H81	H	0.713576	0.184568	-0.000023
H82	H	1.188795	0.190293	-0.000071
C83	C	0.780852	0.294591	-0.000114
H84	H	0.829298	0.326150	-0.000143
H85	H	0.729104	0.296133	0.079591
H86	H	0.729122	0.296122	-0.079841
H87	H	1.251302	-0.016987	0.000054
C88	C	0.908997	-0.130332	0.000141
H89	H	0.976058	-0.160499	0.000160
H90	H	0.858548	-0.133103	-0.079562
H91	H	0.858564	-0.133097	0.079870
H92	H	0.776083	-0.022713	0.000090
C93	C	1.834569	-0.073495	0.651134
H94	H	1.885721	-0.096341	0.587693
H95	H	1.789703	-0.097391	0.707277
H96	H	1.886583	-0.052782	0.707247
H97	H	1.280520	-0.185339	0.000060
H98	H	1.160847	-0.112443	0.000132
C99	C	1.839002	-0.373461	0.000009
H100	H	1.906481	-0.403436	-0.000007
H101	H	1.844393	-0.350553	0.079716
H102	H	1.844373	-0.350547	-0.079716
C103	C	1.654193	0.007067	0.197894
H104	H	1.590749	0.035411	0.165347
H105	H	1.637481	-0.029404	0.165349
H106	H	1.734352	0.015210	0.165348
H107	H	1.654218	0.007057	0.761075
H108	H	1.803222	-0.487903	0.000001
C109	C	1.310693	0.160510	0.802149
H110	H	1.374152	0.132174	0.834700
H111	H	1.230543	0.152375	0.834713
H112	H	1.327420	0.196986	0.834672
C113	C	1.233165	-0.738571	-0.000035
H114	H	1.165683	-0.708598	-0.000045
H115	H	1.227781	-0.761491	0.079668
H116	H	1.227794	-0.761474	-0.079764
C117	C	1.130335	0.241067	0.651062
H118	H	1.142645	0.235573	0.747055
H119	H	1.046608	0.234529	0.627488
H120	H	1.143497	0.279135	0.627476
C121	C	1.236454	-0.613828	-0.000026
H122	H	1.167589	-0.636263	-0.000015
H123	H	1.232294	-0.590382	-0.079732
H124	H	1.232305	-0.590397	0.079699
C125	C	1.129193	-0.334204	-0.000059
H126	H	1.060324	-0.356637	-0.000060
H127	H	1.125046	-0.310758	-0.079764
H128	H	1.125038	-0.310774	0.079667
H129	H	1.154843	0.230108	0.369473
H130	H	1.684375	-0.647088	-0.000006
H131	H	1.810011	-0.062535	0.369526
H132	H	1.283375	-0.077553	0.000050
C133	C	1.125889	-0.458947	-0.000079
H134	H	1.058412	-0.428971	-0.000099
H135	H	1.120491	-0.481866	0.079624
H136	H	1.120521	-0.481850	-0.079808
H137	H	1.681517	-0.754872	-0.000023
C138	C	1.310663	0.160507	0.197859
H139	H	1.374105	0.132163	0.165328
H140	H	1.327374	0.196978	0.165287
H141	H	1.230502	0.152365	0.165322
