data_functionalizedCrystal
_audit_creation_method	'MofGen! by Chris Wilmer'
_symmetry_space_group_name_H-M	'P1'
_symmetry_Int_Tables_number	1
_symmetry_cell_setting	triclinic
loop_
_symmetry_equiv_pos_as_xyz
  x,y,z
_cell_length_a	21.295420
_cell_length_b	21.295417
_cell_length_c	13.032268
_cell_angle_alpha	97.140648
_cell_angle_beta	97.162788
_cell_angle_gamma	90.026289
loop_
_atom_site_label
_atom_site_type_symbol
_atom_site_fract_x
_atom_site_fract_y
_atom_site_fract_z
Zn1	Zn	0.917099	-0.295851	-0.590812
Zn2	Zn	1.417099	0.204149	-0.090812
Zn3	Zn	0.930388	-0.387763	-0.416057
Zn4	Zn	1.430388	0.112237	0.083943
Zn5	Zn	0.825206	-0.282507	-0.416089
Zn6	Zn	1.325206	0.217493	0.083911
Zn7	Zn	0.811797	-0.401073	-0.590741
Zn8	Zn	1.311797	0.098927	-0.090741
O9	O	0.871122	-0.341799	-0.503425
O10	O	1.371122	0.158201	-0.003425
O11	O	1.006950	-0.308058	-0.567647
O12	O	1.506950	0.191942	-0.067647
O13	O	0.927608	-0.362645	-0.269833
O14	O	1.427608	0.137355	0.230167
O15	O	0.837446	-0.196191	-0.439310
O16	O	1.337446	0.303809	0.060690
O17	O	1.016713	-0.375585	-0.439255
O18	O	1.516713	0.124415	0.060745
O19	O	0.904960	-0.205995	-0.567678
O20	O	1.404960	0.294005	-0.067678
O21	O	0.850332	-0.285314	-0.269857
O22	O	1.350332	0.214686	0.230143
O23	O	0.735339	-0.298220	-0.439241
O24	O	1.235339	0.201780	0.060759
O25	O	0.814593	-0.398270	-0.736979
O26	O	1.314593	0.101730	-0.236979
O27	O	0.725488	-0.385331	-0.567557
O28	O	1.225488	0.114669	-0.067557
O29	O	0.891957	-0.320964	-0.737031
O30	O	1.391957	0.179036	-0.237031
O31	O	0.914606	-0.477615	-0.439186
O32	O	1.414606	0.022385	0.060814
O33	O	0.827478	-0.487394	-0.567525
O34	O	1.327478	0.012606	-0.067525
C35	C	0.707573	-0.341772	-0.503395
C36	C	1.207573	0.158228	-0.003395
C37	C	0.637604	-0.341778	-0.503408
C38	C	1.137604	0.158222	-0.003408
C39	C	0.133051	-0.306741	-0.570403
C40	C	0.633051	0.193259	-0.070403
C41	C	0.198793	-0.306737	-0.570403
C42	C	0.698793	0.193263	-0.070403
C43	C	0.236761	-0.341820	-0.503449
C44	C	0.736761	0.158180	-0.003449
C45	C	0.208980	-0.376922	-0.436510
C46	C	0.708980	0.123078	0.063490
C47	C	0.143238	-0.376931	-0.436519
C48	C	0.643238	0.123069	0.063481
N49	N	0.346960	-0.339571	-0.411951
N50	N	0.846960	0.160429	0.088049
N51	N	0.409412	-0.339559	-0.411945
N52	N	0.909412	0.160441	0.088055
C53	C	0.434839	-0.341796	-0.503419
C54	C	0.934839	0.158204	-0.003419
N55	N	0.395454	-0.344034	-0.594900
N56	N	0.895454	0.155966	-0.094900
N57	N	0.332996	-0.344042	-0.594905
N58	N	0.832996	0.155958	-0.094905
C59	C	0.308048	-0.341814	-0.503432
C60	C	0.808048	0.158186	-0.003432
C61	C	0.533897	-0.306694	-0.570359
C62	C	1.033897	0.193306	-0.070359
C63	C	0.599641	-0.306694	-0.570361
C64	C	1.099641	0.193306	-0.070361
C65	C	0.609827	-0.376876	-0.436458
C66	C	1.109827	0.123124	0.063542
C67	C	0.544084	-0.376880	-0.436466
C68	C	1.044084	0.123120	0.063534
C69	C	0.506123	-0.341786	-0.503415
C70	C	1.006123	0.158214	-0.003415
C71	C	0.871044	-0.505346	-0.503367
C72	C	1.371044	-0.005346	-0.003367
C73	C	0.871066	-0.575315	-0.503377
C74	C	1.371066	-0.075315	-0.003377
C75	C	0.916464	-0.603074	-0.436619
C76	C	1.416464	-0.103074	0.063381
C77	C	0.916492	-0.668818	-0.436643
C78	C	1.416492	-0.168818	0.063357
C79	C	0.871111	-0.706800	-0.503413
C80	C	1.371111	-0.206800	-0.003413
C81	C	0.825709	-0.679034	-0.570184
C82	C	1.325709	-0.179034	-0.070184
C83	C	0.825686	-0.613291	-0.570166
C84	C	1.325686	-0.113291	-0.070166
N85	N	0.815434	-0.810670	-0.511370
N86	N	1.315434	-0.310670	-0.011370
N87	N	0.815458	-0.873122	-0.511381
N88	N	1.315458	-0.373122	-0.011381
C89	C	0.871177	-0.904879	-0.503473
C90	C	1.371177	-0.404879	-0.003473
N91	N	0.926874	-0.871823	-0.495534
N92	N	1.426874	-0.371823	0.004466
N93	N	0.926850	-0.809365	-0.495518
N94	N	1.426850	-0.309365	0.004482
C95	C	0.871131	-0.778087	-0.503441
C96	C	1.371131	-0.278087	-0.003441
C97	C	0.916609	-1.003925	-0.436737
C98	C	1.416609	-0.503925	0.063263
C99	C	0.916637	-1.069671	-0.436768
C100	C	1.416637	-0.569671	0.063232
C101	C	0.825849	-1.079886	-0.570304
C102	C	1.325849	-0.579886	-0.070304
C103	C	0.825826	-1.014141	-0.570279
C104	C	1.325826	-0.514141	-0.070279
C105	C	0.871205	-0.976165	-0.503490
C106	C	1.371205	-0.476165	-0.003490
C107	C	1.035310	-0.341825	-0.503455
C108	C	1.535310	0.158175	-0.003455
C109	C	1.105277	-0.341837	-0.503468
C110	C	1.605277	0.158163	-0.003468
C111	C	0.850297	-0.362591	-0.775980
C112	C	1.350297	0.137409	-0.275980
C113	C	0.841422	-0.371451	-0.892127
C114	C	1.341422	0.128549	-0.392127
C115	C	0.871216	-0.177614	-0.503506
C116	C	1.371216	0.322386	-0.003506
C117	C	0.871256	-0.107649	-0.503540
C118	C	1.371256	0.392351	-0.003540
C119	C	0.875744	-0.337152	-0.943935
C120	C	1.375744	0.162848	-0.443935
C121	C	0.866573	-0.346308	-1.063979
C122	C	1.366573	0.153692	-0.563979
C123	C	0.891903	-0.321042	-0.231930
C124	C	1.391903	0.178958	0.268070
C125	C	0.900900	-0.312004	-0.115784
C126	C	1.400900	0.187996	0.384216
H127	H	0.239898	-0.405489	-0.381998
H128	H	0.739898	0.094511	0.118002
C129	C	0.966528	-0.962147	-0.363289
C130	C	1.466528	-0.462147	0.136711
H131	H	0.960009	-0.919016	-0.372830
H132	H	1.460009	-0.419016	0.127170
H133	H	1.007645	-0.974053	-0.378655
H134	H	1.507645	-0.474053	0.121345
H135	H	0.962719	-0.967592	-0.293064
H136	H	1.462719	-0.467592	0.206936
C137	C	0.775933	-1.121658	-0.643756
C138	C	1.275933	-0.621658	-0.143756
H139	H	0.782447	-1.164788	-0.634204
H140	H	1.282447	-0.664788	-0.134204
H141	H	0.779743	-1.116211	-0.713975
H142	H	1.279743	-0.616211	-0.213975
H143	H	0.734813	-1.109753	-0.628391
H144	H	1.234813	-0.609753	-0.128391
H145	H	0.805244	-0.407591	-0.936644
H146	H	1.305244	0.092409	-0.436644
C147	C	0.949772	-0.263172	-1.055666
C148	C	1.449772	0.236828	-0.555666
H149	H	0.970112	-0.242838	-1.103738
H150	H	1.470112	0.257162	-0.603738
H151	H	0.980415	-0.284029	-1.013080
H152	H	1.480415	0.215971	-0.513080
H153	H	0.928933	-0.232513	-1.013102
H154	H	1.428933	0.267487	-0.513102
C155	C	0.775743	-0.582754	-0.643597
C156	C	1.275743	-0.082754	-0.143597
H157	H	0.748717	-0.614788	-0.683366
H158	H	1.248717	-0.114788	-0.183366
H159	H	0.796310	-0.560548	-0.689154
H160	H	1.296310	-0.060548	-0.189154
H161	H	0.751381	-0.554092	-0.603566
H162	H	1.251381	-0.054092	-0.103566
H163	H	0.953609	-1.092271	-0.382408
H164	H	1.453609	-0.592271	0.117592
C165	C	0.775881	-0.983603	-0.643700
C166	C	1.275881	-0.483603	-0.143700
H167	H	0.748853	-1.015638	-0.683464
H168	H	1.248853	-0.515638	-0.183464
H169	H	0.796444	-0.961399	-0.689260
H170	H	1.296444	-0.461399	-0.189260
H171	H	0.751520	-0.954940	-0.603667
H172	H	1.251520	-0.454940	-0.103667
H173	H	0.911916	-0.301005	-0.899418
H174	H	1.411916	0.198995	-0.399418
C175	C	0.091297	-0.268146	-0.644053
C176	C	0.591297	0.231854	-0.144053
H177	H	0.117257	-0.247247	-0.683923
H178	H	0.617257	0.252753	-0.183923
H179	H	0.068701	-0.237643	-0.604169
H180	H	0.568701	0.262357	-0.104169
H181	H	0.062177	-0.295743	-0.689521
H182	H	0.562177	0.204257	-0.189521
C183	C	0.651584	-0.415467	-0.362812
C184	C	1.151584	0.084533	0.137188
H185	H	0.694716	-0.410434	-0.372388
H186	H	1.194716	0.089566	0.127612
H187	H	0.639637	-0.458934	-0.377978
H188	H	1.139637	0.041066	0.122022
H189	H	0.646168	-0.400834	-0.292627
H190	H	1.146168	0.099166	0.207373
H191	H	0.622252	-0.278117	-0.624875
H192	H	1.122252	0.221883	-0.124875
C193	C	0.492137	-0.268104	-0.644014
C194	C	0.992137	0.231896	-0.144014
H195	H	0.518095	-0.247210	-0.683893
H196	H	1.018095	0.252790	-0.183893
H197	H	0.469542	-0.237598	-0.604135
H198	H	0.969542	0.262402	-0.104135
H199	H	0.463016	-0.295705	-0.689474
H200	H	0.963016	0.204295	-0.189474
C201	C	0.513529	-0.415482	-0.362835
C202	C	1.013529	0.084518	0.137165
H203	H	0.468937	-0.410467	-0.372436
H204	H	0.968937	0.089533	0.127564
H205	H	0.529659	-0.400854	-0.292649
H206	H	1.029659	0.099146	0.207351
H207	H	0.523132	-0.458949	-0.378012
H208	H	1.023132	0.041051	0.121988
H209	H	0.221411	-0.278155	-0.624908
H210	H	0.721411	0.221845	-0.124908
H211	H	0.953416	-0.572155	-0.382238
H212	H	1.453416	-0.072155	0.117762
C213	C	0.112687	-0.415533	-0.362881
C214	C	0.612687	0.084467	0.137119
H215	H	0.144713	-0.436425	-0.323000
H216	H	0.644713	0.063575	0.177000
H217	H	0.083985	-0.446041	-0.402771
H218	H	0.583985	0.053959	0.097229
H219	H	0.090522	-0.387940	-0.317421
H220	H	0.590522	0.112060	0.182579
C221	C	0.966427	-0.699360	-0.363198
C222	C	1.466427	-0.199360	0.136802
H223	H	0.993447	-0.667326	-0.323414
H224	H	1.493447	-0.167326	0.176586
H225	H	0.990789	-0.728028	-0.403210
H226	H	1.490789	-0.228028	0.096790
H227	H	0.945848	-0.721559	-0.317641
H228	H	1.445848	-0.221559	0.182359
H229	H	0.788761	-0.709963	-0.624551
H230	H	1.288761	-0.209963	-0.124551
H231	H	0.830392	-0.382451	-1.108492
H232	H	1.330392	0.117549	-0.608492
