data_functionalizedCrystal
_audit_creation_method	'MofGen! by Chris Wilmer'
_symmetry_space_group_name_H-M	'P1'
_symmetry_Int_Tables_number	1
_symmetry_cell_setting	triclinic
loop_
_symmetry_equiv_pos_as_xyz
  x,y,z
_cell_length_a	14.519731
_cell_length_b	16.109302
_cell_length_c	14.586319
_cell_angle_alpha	89.994552
_cell_angle_beta	89.998350
_cell_angle_gamma	96.424683
loop_
_atom_site_label
_atom_site_type_symbol
_atom_site_fract_x
_atom_site_fract_y
_atom_site_fract_z
O1	O	-0.118542	1.103344	-0.076270
O2	O	0.214791	1.436677	0.257063
O3	O	0.548125	1.770010	0.590396
O4	O	-0.133293	0.861308	-0.076262
O5	O	0.200040	1.194642	0.257072
O6	O	0.533373	1.527975	0.590405
O7	O	0.008333	0.988734	-0.076273
O8	O	0.341667	1.322067	0.257060
O9	O	0.675000	1.655401	0.590394
O10	O	-0.260168	0.975918	-0.076259
O11	O	0.073165	1.309251	0.257074
O12	O	0.406498	1.642585	0.590407
O13	O	0.008335	0.988725	0.076208
O14	O	0.341669	1.322059	0.409541
O15	O	0.675002	1.655392	0.742875
O16	O	-0.133291	0.861300	0.076219
O17	O	0.200042	1.194633	0.409552
O18	O	0.533376	1.527966	0.742886
O19	O	-0.118540	1.103335	0.076210
O20	O	0.214793	1.436668	0.409544
O21	O	0.548127	1.770002	0.742877
Cu22	Cu	-0.125915	0.982316	0.090137
Cu23	Cu	0.207418	1.315650	0.423471
Cu24	Cu	0.540751	1.648983	0.756804
Cu25	Cu	-0.125918	0.982327	-0.090189
Cu26	Cu	0.207416	1.315660	0.243145
Cu27	Cu	0.540749	1.648994	0.576478
O28	O	-0.260166	0.975909	0.076222
O29	O	0.073167	1.309243	0.409555
O30	O	0.406500	1.642576	0.742888
C31	C	-0.132695	0.830328	-0.000020
C32	C	0.200639	1.163661	0.333313
C33	C	0.533972	1.496995	0.666646
C34	C	-0.130903	0.738030	-0.000018
C35	C	0.202431	1.071363	0.333316
C36	C	0.535764	1.404696	0.666649
C37	C	-0.126758	0.525676	0.083090
C38	C	0.206575	0.859010	0.416424
C39	C	0.539908	1.192343	0.749757
C40	C	-0.125065	0.438953	0.083087
C41	C	0.208268	0.772287	0.416420
C42	C	0.541602	1.105620	0.749754
C43	C	-0.125072	0.438973	-0.083156
C44	C	0.208261	0.772307	0.250177
C45	C	0.541595	1.105640	0.583511
C46	C	-0.126759	0.525696	-0.083152
C47	C	0.206575	0.859029	0.250182
C48	C	0.539908	1.192362	0.583515
C49	C	-0.127607	0.569044	-0.000026
C50	C	0.205727	0.902378	0.333307
C51	C	0.539060	1.235711	0.666641
C52	C	-0.124226	0.395599	-0.000033
C53	C	0.209107	0.728932	0.333300
C54	C	0.542440	1.062266	0.666633
C55	C	-0.122390	0.301570	-0.000038
C56	C	0.210943	0.634903	0.333296
C57	C	0.544276	0.968237	0.666629
C58	C	-0.129441	0.663080	-0.000021
C59	C	0.203892	0.996413	0.333312
C60	C	0.537225	1.329746	0.666645
C61	C	-0.294525	0.976514	-0.000017
C62	C	0.038808	1.309848	0.333316
C63	C	0.372141	1.643181	0.666649
C64	C	-0.396902	0.978314	-0.000012
C65	C	-0.063568	1.311647	0.333321
C66	C	0.269765	1.644980	0.666654
C67	C	-0.480043	0.979776	-0.000016
C68	C	-0.146710	1.313109	0.333317
C69	C	0.186624	1.646443	0.666651
C70	C	-0.584348	0.981603	-0.000025
C71	C	-0.251014	1.314936	0.333308
C72	C	0.082319	1.648270	0.666642
C73	C	-0.667484	0.983053	-0.000032
C74	C	-0.334150	1.316386	0.333301
C75	C	-0.000817	1.649720	0.666634
C76	C	-0.771795	0.984880	-0.000039
C77	C	-0.438462	1.318213	0.333294
C78	C	-0.105129	1.651546	0.666627
C79	C	0.042692	0.988129	-0.000036
C80	C	0.376026	1.321462	0.333297
C81	C	0.709359	1.654796	0.666631
C82	C	0.145069	0.986330	-0.000047
C83	C	0.478402	1.319663	0.333286
C84	C	0.811735	1.652996	0.666620
C85	C	-0.119139	1.134315	-0.000033
C86	C	0.214195	1.467649	0.333301
C87	C	0.547528	1.800982	0.666634
C88	C	-0.120930	1.226614	-0.000042
C89	C	0.212403	1.559947	0.333292
C90	C	0.545736	1.893280	0.666625
N91	N	-0.125913	0.982315	0.216969
N92	N	0.207420	1.315648	0.550303
N93	N	0.540754	1.648982	0.883636
N94	N	-0.125913	0.982335	-0.217020
N95	N	0.207421	1.315668	0.116313
N96	N	0.540754	1.649001	0.449646
C97	C	-0.063222	1.038758	0.451971
C98	C	0.270112	1.372091	0.785304
C99	C	0.603445	1.705425	1.118637
C100	C	-0.063220	1.038760	0.547952
C101	C	0.270114	1.372094	0.881285
C102	C	0.603447	1.705427	1.214619
C103	C	-0.188607	0.925886	0.547971
C104	C	0.144726	1.259219	0.881305
C105	C	0.478060	1.592553	1.214638
C106	C	-0.188604	0.925880	0.451992
C107	C	0.144729	1.259214	0.785325
C108	C	0.478063	1.592547	1.118658
C109	C	-0.125913	0.982321	0.403994
C110	C	0.207421	1.315654	0.737327
C111	C	0.540754	1.648988	1.070661
C112	C	-0.125913	0.982329	0.595955
C113	C	0.207420	1.315662	0.929288
C114	C	0.540753	1.648996	1.262621
C115	C	-0.125911	0.982331	0.700022
C116	C	0.207422	1.315665	1.033355
C117	C	0.540755	1.648998	1.366689
C118	C	-0.125913	0.982318	0.299920
C119	C	0.207420	1.315651	0.633254
C120	C	0.540754	1.648985	0.966587
H121	H	-0.124374	0.403647	0.150769
H122	H	0.208959	0.736980	0.484102
H123	H	0.542292	1.070314	0.817435
H124	H	-0.239655	0.879918	0.412926
H125	H	0.093679	1.213252	0.746260
H126	H	0.427012	1.546585	1.079593
H127	H	-0.124383	0.403668	-0.150834
H128	H	0.208951	0.737002	0.182499
H129	H	0.542284	1.070335	0.515833
N130	N	-0.127616	0.569989	-0.168066
N131	N	0.205718	0.903323	0.165267
N132	N	0.539051	1.236656	0.498600
N133	N	-0.126863	0.531277	-0.242278
N134	N	0.206470	0.864610	0.091055
N135	N	0.539803	1.197944	0.424389
H136	H	-0.127464	0.562559	-0.302247
H137	H	0.205869	0.895893	0.031086
H138	H	0.539202	1.229226	0.364420
N139	N	0.000832	1.096393	0.596964
N140	N	0.334165	1.429726	0.930297
N141	N	0.667499	1.763059	1.263631
N142	N	0.058089	1.069917	0.650512
N143	N	0.391422	1.403251	0.983845
N144	N	0.724756	1.736584	1.317178
H145	H	0.103335	1.110618	0.685124
H146	H	0.436669	1.443951	1.018458
H147	H	0.770002	1.777285	1.351791
N148	N	-0.252635	0.868241	0.597016
N149	N	0.080699	1.201575	0.930349
N150	N	0.414032	1.534908	1.263683
N151	N	-0.252630	0.868253	0.682711
N152	N	0.080703	1.201587	1.016044
N153	N	0.414037	1.534920	1.349378
H154	H	-0.297852	0.827541	0.717349
H155	H	0.035481	1.160875	1.050682
H156	H	0.368815	1.494208	1.384016
H157	H	-0.012173	1.084714	0.412893
H158	H	0.321160	1.418048	0.746227
H159	H	0.654493	1.751381	1.079560
H160	H	-0.127449	0.560968	0.150777
H161	H	0.205885	0.894302	0.484110
H162	H	0.539218	1.227635	0.817443
