data_functionalizedCrystal
_audit_creation_method	'MofGen! by Chris Wilmer'
_symmetry_space_group_name_H-M	'P1'
_symmetry_Int_Tables_number	1
_symmetry_cell_setting	triclinic
loop_
_symmetry_equiv_pos_as_xyz
  x,y,z
_cell_length_a	12.594516
_cell_length_b	17.638785
_cell_length_c	17.640968
_cell_angle_alpha	114.308072
_cell_angle_beta	78.772174
_cell_angle_gamma	101.217217
loop_
_atom_site_label
_atom_site_type_symbol
_atom_site_fract_x
_atom_site_fract_y
_atom_site_fract_z
Zn1	Zn	-0.596922	-1.354134	-0.720276
Zn2	Zn	-0.804823	-1.326190	-0.582465
Zn3	Zn	-0.596867	-1.188460	-0.554669
Zn4	Zn	-0.744853	-1.216299	-0.692426
O5	O	-0.685866	-1.271271	-0.637459
O6	O	-0.649622	-1.465751	-0.725283
O7	O	-0.802311	-1.284575	-0.463453
O8	O	-0.447934	-1.210481	-0.576660
O9	O	-0.802365	-1.445221	-0.624034
O10	O	-0.447975	-1.332201	-0.698330
O11	O	-0.649527	-1.183386	-0.443031
O12	O	-0.591376	-1.076829	-0.549655
O13	O	-0.700155	-1.257928	-0.811446
O14	O	-0.700101	-1.097281	-0.650864
O15	O	-0.591471	-1.359194	-0.831907
O16	O	-0.945808	-1.311569	-0.597030
O17	O	-0.901748	-1.230832	-0.677817
C18	C	-0.639226	-1.057153	-0.594222
C19	C	-0.619294	-0.965556	-0.575744
C20	C	-0.837431	-0.717576	-0.778031
C21	C	-0.818697	-0.631503	-0.760648
C22	C	-0.705235	-0.610205	-0.655422
C23	C	-0.723964	-0.696277	-0.672794
C24	C	-0.790061	-0.749956	-0.734100
C25	C	-0.676594	-0.728658	-0.628862
C26	C	-0.695317	-0.814723	-0.646235
C27	C	-0.761409	-0.868408	-0.707540
C28	C	-0.808784	-0.836022	-0.751473
C29	C	-0.610491	-0.674978	-0.567560
C30	C	-0.563121	-0.707359	-0.523629
C31	C	-0.581849	-0.793425	-0.540998
C32	C	-0.647941	-0.847110	-0.602303
C33	C	-0.534474	-0.825811	-0.497065
C34	C	-0.553197	-0.911877	-0.514438
C35	C	-0.666664	-0.933175	-0.619676
C36	C	-0.962397	-1.271215	-0.637440
C37	C	-1.080709	-1.271272	-0.637475
C38	C	-1.126044	-1.227347	-0.681375
C39	C	-1.208858	-1.192064	-0.602126
C40	C	-1.208706	-1.306632	-0.716752
C41	C	-1.161965	-1.235942	-0.558178
C42	C	-1.161804	-1.350555	-0.672861
C43	C	-1.244604	-1.315291	-0.593566
C44	C	-0.408256	-1.271353	-0.637501
C45	C	-0.289956	-1.271388	-0.637518
C46	C	-0.639130	-1.314784	-0.852415
C47	C	-0.619214	-1.333326	-0.944017
C48	C	-0.732681	-0.486225	-0.680864
C49	C	-0.752610	-0.577824	-0.699358
C50	C	-0.836657	-1.130721	-1.192024
C51	C	-0.817933	-1.148162	-1.278101
C52	C	-0.704770	-1.253602	-1.299395
C53	C	-0.723481	-1.236167	-1.213318
C54	C	-0.789426	-1.174727	-1.159639
C55	C	-0.676249	-1.280172	-1.180932
C56	C	-0.694963	-1.262742	-1.094862
C57	C	-0.760908	-1.201306	-1.041179
C58	C	-0.808140	-1.157296	-1.073569
C59	C	-0.610310	-1.341617	-1.234613
C60	C	-0.563079	-1.385622	-1.202228
C61	C	-0.581786	-1.368188	-1.116156
C62	C	-0.647731	-1.306752	-1.062472
C63	C	-0.534554	-1.412197	-1.083765
C64	C	-0.553268	-1.394767	-0.997696
C65	C	-0.666445	-1.289321	-0.976402
C66	C	-0.732354	-1.227975	-0.423349
C67	C	-0.752005	-1.209592	-0.331780
H68	H	-0.891260	-0.761284	-0.827949
H69	H	-0.856400	-1.112323	-1.304465
H70	H	-1.229629	-1.336492	-0.783778
H71	H	-0.651415	-0.566488	-0.605509
H72	H	-0.651081	-1.303629	-1.343112
H73	H	-1.229947	-1.125071	-0.572226
H74	H	-0.720114	-1.239270	-0.932689
H75	H	-0.509301	-0.663642	-0.473716
H76	H	-0.861809	-1.107245	-1.029856
H77	H	-0.595242	-0.604899	-0.553422
H78	H	-0.480649	-0.782094	-0.447156
H79	H	-0.890327	-1.080670	-1.148311
H80	H	-0.514806	-1.430599	-0.971327
H81	H	-0.480871	-1.462228	-1.127484
H82	H	-0.595079	-1.355809	-1.304696
H83	H	-0.514614	-0.938242	-0.478671
H84	H	-0.720493	-0.976884	-0.669593
H85	H	-0.776644	-0.938489	-0.721689
H86	H	-0.862613	-0.879731	-0.801390
H87	H	-0.857272	-0.605144	-0.796430
H88	H	-1.074771	-1.190103	-0.718416
H89	H	-1.141159	-1.206006	-0.491119
H90	H	-1.295697	-1.352476	-0.556406
H91	H	-1.140707	-1.417542	-0.702795
H92	H	-0.509390	-1.435649	-1.245945
H93	H	-0.776148	-1.187118	-0.971096
