data_functionalizedCrystal
_audit_creation_method	'MofGen! by Chris Wilmer'
_symmetry_space_group_name_H-M	'P1'
_symmetry_Int_Tables_number	1
_symmetry_cell_setting	triclinic
loop_
_symmetry_equiv_pos_as_xyz
  x,y,z
_cell_length_a	12.759401
_cell_length_b	13.897447
_cell_length_c	12.759393
_cell_angle_alpha	89.969000
_cell_angle_beta	89.980324
_cell_angle_gamma	90.019956
loop_
_atom_site_label
_atom_site_type_symbol
_atom_site_fract_x
_atom_site_fract_y
_atom_site_fract_z
Zn1	Zn	1.606231	-0.383957	-0.593981
Zn2	Zn	1.606107	-0.545284	-0.418300
Zn3	Zn	1.430530	-0.384005	-0.418320
Zn4	Zn	1.430507	-0.545213	-0.593941
O5	O	1.518344	-0.464615	-0.506135
O6	O	1.753236	-0.405367	-0.570685
O7	O	1.582774	-0.523939	-0.271281
O8	O	1.453898	-0.249017	-0.441647
O9	O	1.753145	-0.523893	-0.441612
O10	O	1.582985	-0.248982	-0.570705
O11	O	1.453778	-0.405449	-0.271296
O12	O	1.283506	-0.405381	-0.441608
O13	O	1.453859	-0.523773	-0.740967
O14	O	1.283489	-0.523819	-0.570636
O15	O	1.582963	-0.405299	-0.740997
O16	O	1.582752	-0.680256	-0.441573
O17	O	1.453739	-0.680204	-0.570616
C18	C	1.245376	-0.464598	-0.506121
C19	C	1.128600	-0.464614	-0.506139
C20	C	1.073786	-0.403010	-0.573451
C21	C	0.964062	-0.403019	-0.573458
C22	C	0.963975	-0.526247	-0.438838
C23	C	1.073697	-0.526232	-0.438827
C24	C	1.518258	-0.715229	-0.506111
C25	C	1.518318	-0.822443	-0.506136
C26	C	1.518369	-0.909513	-0.506160
C27	C	1.518442	-1.018745	-0.506187
C28	C	1.792377	-0.464632	-0.506151
C29	C	1.909154	-0.464640	-0.506157
C30	C	1.518422	-0.464522	-0.780169
C31	C	1.518456	-0.464483	-0.896946
C32	C	1.518458	-0.213022	-0.506183
C33	C	1.518507	-0.105808	-0.506203
C34	C	1.585685	-0.402784	-0.951825
C35	C	1.585703	-0.402742	-1.061549
C36	C	1.451259	-0.526107	-1.061505
C37	C	1.451237	-0.526143	-0.951783
C38	C	1.518326	-0.464638	-0.233168
C39	C	1.518496	-0.464405	-0.116392
H40	H	0.919437	-0.352853	-0.628268
C41	C	0.904175	-0.593114	-0.365882
C42	C	0.796352	-0.579963	-0.380318
C43	C	0.741235	-0.641557	-0.313140
H44	H	0.922000	-0.578979	-0.295273
H45	H	0.922091	-0.657959	-0.381144
H46	H	0.778443	-0.515133	-0.365049
H47	H	0.778496	-0.594106	-0.450914
H48	H	0.759151	-0.706402	-0.328402
H49	H	0.759068	-0.627416	-0.242535
H50	H	0.668071	-0.632649	-0.322933
C51	C	1.133029	-0.593228	-0.365702
C52	C	1.061466	-0.647217	-0.306781
C53	C	1.116084	-0.708946	-0.239419
H54	H	1.175822	-0.556378	-0.319899
H55	H	1.175819	-0.635345	-0.405785
H56	H	1.018694	-0.605106	-0.266701
H57	H	1.018670	-0.684087	-0.352556
H58	H	1.158874	-0.751063	-0.279502
H59	H	1.158875	-0.672088	-0.193623
H60	H	1.067537	-0.745592	-0.199440
H61	H	1.118484	-0.352834	-0.628257
H62	H	1.640416	-0.352573	-0.907179
C63	C	1.658814	-0.335719	-1.120942
C64	C	1.717690	-0.281748	-1.049429
C65	C	1.785062	-0.220002	-1.104103
H66	H	1.618772	-0.293584	-1.163749
H67	H	1.704636	-0.372587	-1.163724
H68	H	1.671874	-0.244883	-1.006666
H69	H	1.757753	-0.323857	-1.006620
H70	H	1.830884	-0.256870	-1.146884
H71	H	1.745012	-0.177874	-1.146908
H72	H	1.825024	-0.183382	-1.055590
C73	C	1.378402	-0.593019	-1.121235
C74	C	1.392830	-0.579803	-1.229072
C75	C	1.325743	-0.641437	-1.284125
H76	H	1.307772	-0.578963	-1.103374
H77	H	1.393754	-0.657857	-1.103302
H78	H	1.377471	-0.514979	-1.246998
H79	H	1.463447	-0.593866	-1.246964
H80	H	1.341094	-0.706275	-1.266191
H81	H	1.255117	-0.627376	-1.266255
H82	H	1.335530	-0.632484	-1.357297
H83	H	1.396483	-0.576385	-0.907099
