data_functionalizedCrystal
_audit_creation_method	'MofGen! by Chris Wilmer'
_symmetry_space_group_name_H-M	'P1'
_symmetry_Int_Tables_number	1
_symmetry_cell_setting	triclinic
loop_
_symmetry_equiv_pos_as_xyz
  x,y,z
_cell_length_a	13.635800
_cell_length_b	27.923497
_cell_length_c	11.168136
_cell_angle_alpha	84.460907
_cell_angle_beta	108.508683
_cell_angle_gamma	81.035752
loop_
_atom_site_label
_atom_site_type_symbol
_atom_site_fract_x
_atom_site_fract_y
_atom_site_fract_z
V1	V	2.031149	-0.067135	0.394531
O2	O	2.035874	0.003219	0.386165
O3	O	1.995911	-0.133110	0.392656
O4	O	2.019659	-0.066105	0.566224
O5	O	2.011962	-0.064250	0.211395
V6	V	2.272746	-0.058719	0.372526
O7	O	2.162138	-0.085595	0.442800
O8	O	2.366855	-0.040259	0.324258
O9	O	2.196380	0.007256	0.374402
O10	O	2.326719	-0.129073	0.380893
O11	O	2.350631	-0.061604	0.555662
O12	O	2.172632	-0.059749	0.200833
V13	V	2.531149	-0.067135	0.394531
O14	O	2.535874	0.003219	0.386165
O15	O	2.495911	-0.133110	0.392656
O16	O	2.519659	-0.066105	0.566224
O17	O	2.511962	-0.064250	0.211395
V18	V	2.772746	-0.058719	0.372526
O19	O	2.662138	-0.085595	0.442800
O20	O	2.866855	-0.040259	0.324258
O21	O	2.696380	0.007256	0.374402
O22	O	2.826719	-0.129073	0.380893
O23	O	2.850631	-0.061604	0.555662
O24	O	2.672632	-0.059749	0.200833
C25	C	1.915315	-0.149193	0.386644
C26	C	1.927232	-0.203128	0.386256
C27	C	1.973767	-0.530649	0.267989
C28	C	2.018585	-0.733356	0.266459
O29	O	2.001092	-0.753675	0.167851
N30	N	2.051621	-0.765632	0.381990
C31	C	2.073460	-0.747229	0.497912
O32	O	2.102597	-0.779333	0.596144
C33	C	2.028649	-0.544523	0.499441
C34	C	1.995602	-0.512249	0.383901
C35	C	1.940724	-0.498375	0.152459
C36	C	1.929515	-0.447701	0.152842
C37	C	1.951349	-0.429301	0.268755
C38	C	1.984393	-0.461575	0.384284
C39	C	2.050495	-0.526121	0.615362
C40	C	2.039291	-0.475440	0.615734
C41	C	2.006244	-0.443166	0.500194
C42	C	1.995018	-0.392501	0.500580
N43	N	1.961983	-0.360225	0.385049
C44	C	1.940148	-0.378625	0.269137
C45	C	2.096982	-0.853652	0.497101
C46	C	2.108183	-0.904329	0.496719
C47	C	2.053310	-0.890452	0.265266
C48	C	2.042102	-0.839775	0.265649
C49	C	2.063947	-0.821376	0.381570
C50	C	1.916610	-0.272206	0.269950
C51	C	1.905398	-0.221529	0.270343
C52	C	1.960277	-0.235409	0.501796
C53	C	1.971483	-0.286083	0.501403
C54	C	1.949650	-0.304480	0.385470
O55	O	2.012504	-0.372148	0.599138
O56	O	1.911035	-0.346513	0.170921
C57	C	1.984976	-0.581323	0.267605
C58	C	2.018020	-0.613596	0.383135
C59	C	2.039854	-0.595196	0.499048
C60	C	2.029221	-0.664273	0.382753
C61	C	2.007386	-0.682673	0.266840
C62	C	1.974351	-0.650397	0.151310
C63	C	1.963142	-0.599723	0.151693
C64	C	2.072890	-0.627472	0.614579
C65	C	2.084096	-0.678145	0.614186
C66	C	2.062261	-0.696546	0.498273
C67	C	1.945607	-0.063722	0.608046
C68	C	1.976781	-0.063316	0.748412
C69	C	2.108646	0.023336	0.380410
C70	C	2.086349	0.077271	0.380807
C71	C	2.078354	-0.062134	0.159005
C72	C	2.036800	-0.062537	0.018638
C73	C	2.415315	-0.149193	0.386644
C74	C	2.427232	-0.203128	0.386256
C75	C	2.445607	-0.063722	0.608046
C76	C	2.476781	-0.063316	0.748412
C77	C	2.077284	-0.065437	0.817130
C78	C	2.109506	-0.065018	0.962205
C79	C	2.608646	0.023336	0.380410
C80	C	2.586349	0.077271	0.380807
C81	C	2.578354	-0.062134	0.159005
C82	C	2.536800	-0.062537	0.018638
C83	C	2.523951	-0.230931	0.392413
C84	C	2.535167	-0.281611	0.392067
C85	C	2.449661	-0.304486	0.385555
C86	C	2.352936	-0.276680	0.379401
C87	C	2.341723	-0.226002	0.379756
C88	C	2.662124	0.105074	0.374653
C89	C	2.641180	0.155753	0.375005
C90	C	2.544463	0.178628	0.381520
C91	C	2.468681	0.150822	0.387670
C92	C	2.489623	0.100145	0.387309
C93	C	2.577284	-0.065437	0.817130
C94	C	2.609506	-0.065018	0.962205
H95	H	1.878484	-0.195252	0.176253
C96	C	2.462007	-0.360231	0.385161
H97	H	2.531857	-0.373509	0.389750
H98	H	2.448445	-0.375221	0.456770
H99	H	2.413346	-0.366353	0.308699
C100	C	1.984315	-0.215163	0.629291
H101	H	1.972922	-0.180360	0.612963
H102	H	1.939154	-0.224736	0.672757
H103	H	2.055725	-0.227896	0.680805
C104	C	1.892583	-0.292436	0.142426
H105	H	1.871290	-0.265951	0.073685
H106	H	1.954095	-0.313493	0.141499
H107	H	1.837517	-0.310337	0.133414
C108	C	2.144524	-0.939824	0.623811
H109	H	2.155931	-0.921603	0.692894
H110	H	2.091752	-0.958305	0.624434
H111	H	2.208331	-0.961458	0.632526
H112	H	1.950701	-0.060724	0.959575
H113	H	2.283322	-0.295313	0.374099
C114	C	2.724552	0.186329	0.368253
H115	H	2.785155	0.165443	0.364344
H116	H	2.696208	0.210634	0.294099
H117	H	2.743741	0.201767	0.442172
C118	C	2.725818	-0.067469	1.041997
H119	H	2.732215	-0.066863	1.129034
H120	H	2.767550	-0.096951	1.034987
H121	H	2.749442	-0.040098	1.011206
H122	H	1.902612	-0.421428	0.058758
H123	H	2.740882	0.086455	0.369349
H124	H	1.914592	-0.061188	0.796981
H125	H	2.613932	-0.304243	0.397075
C126	C	2.362298	0.175988	0.394838
H127	H	2.320156	0.152175	0.398443
H128	H	2.374327	0.191222	0.469274
H129	H	2.326771	0.200088	0.321202
C130	C	2.618016	-0.205777	0.399574
H131	H	2.677221	-0.229600	0.403202
H132	H	2.599890	-0.181679	0.325945
H133	H	2.634987	-0.190544	0.474016
C134	C	2.121002	-0.833420	0.624622
H135	H	2.142269	-0.859904	0.693363
H136	H	2.176062	-0.815518	0.633652
H137	H	2.059476	-0.812363	0.625531
H138	H	2.450701	-0.060724	0.959575
H139	H	2.414592	-0.061188	0.796981
C140	C	2.235322	-0.195423	0.372961
H141	H	2.186008	-0.216307	0.369018
H142	H	2.244692	-0.179979	0.446859
H143	H	2.209611	-0.171122	0.298789
H144	H	2.077404	-0.552390	0.709446
H145	H	2.527424	0.219894	0.381812
H146	H	2.427916	0.077511	0.392331
C147	C	2.661307	-0.068310	0.751534
H148	H	2.728539	-0.069583	0.813459
H149	H	2.662661	-0.096982	0.712232
H150	H	2.644566	-0.040129	0.688455
C151	C	1.916693	-0.518607	0.024943
H152	H	1.895403	-0.492122	-0.043796
H153	H	1.978200	-0.539667	0.024011
H154	H	1.861622	-0.536505	0.015931
H155	H	2.195605	-0.066836	1.021279
H156	H	2.015192	-0.813500	0.171567
H157	H	1.998376	-0.312362	0.595483
C158	C	2.063305	-0.455202	0.743246
H159	H	2.051903	-0.420399	0.726936
H160	H	2.018127	-0.464784	0.786676
H161	H	2.134709	-0.467933	0.794785
C162	C	2.029312	-0.910699	0.137766
H163	H	2.040730	-0.945503	0.154098
H164	H	1.957920	-0.897970	0.086204
H165	H	2.074512	-0.901124	0.094352
C166	C	2.161303	-0.068309	0.751527
H167	H	2.128624	-0.068217	0.662628
H168	H	2.194511	-0.040819	0.763848
H169	H	2.212603	-0.097672	0.787627
C170	C	1.950335	-0.670641	0.023806
H171	H	1.929045	-0.644165	-0.044957
H172	H	2.011856	-0.691700	0.022907
H173	H	1.895273	-0.688545	0.014801
C174	C	2.120451	-0.713642	0.741289
H175	H	2.131857	-0.695421	0.810371
H176	H	2.067687	-0.732127	0.741918
H177	H	2.184261	-0.735272	0.749997
H178	H	1.936233	-0.573449	0.057609
C179	C	2.096901	-0.607239	0.742089
H180	H	2.118172	-0.633722	0.810831
H181	H	2.151957	-0.589334	0.751119
H182	H	2.035371	-0.586185	0.742996
