data_functionalizedCrystal
_audit_creation_method	'MofGen! by Chris Wilmer'
_symmetry_space_group_name_H-M	'P1'
_symmetry_Int_Tables_number	1
_symmetry_cell_setting	triclinic
loop_
_symmetry_equiv_pos_as_xyz
  x,y,z
_cell_length_a	14.044220
_cell_length_b	16.098538
_cell_length_c	17.019370
_cell_angle_alpha	83.407930
_cell_angle_beta	88.280241
_cell_angle_gamma	92.982557
loop_
_atom_site_label
_atom_site_type_symbol
_atom_site_fract_x
_atom_site_fract_y
_atom_site_fract_z
O1	O	1.260867	0.055722	0.187562
O2	O	1.760867	0.555722	0.687562
O3	O	0.984939	0.056236	0.180676
O4	O	1.484939	0.556236	0.680676
O5	O	1.131106	0.064193	0.069447
O6	O	1.631106	0.564193	0.569447
O7	O	1.114700	0.047764	0.298791
O8	O	1.614700	0.547764	0.798791
O9	O	1.122567	-0.074782	0.075917
O10	O	1.622567	0.425218	0.575917
O11	O	0.976400	-0.082740	0.187146
O12	O	1.476400	0.417260	0.687146
O13	O	1.252329	-0.083254	0.194032
O14	O	1.752329	0.416746	0.694032
Zn15	Zn	1.113009	-0.105062	0.191616
Zn16	Zn	1.613009	0.394938	0.691616
Zn17	Zn	1.124258	0.078044	0.183092
Zn18	Zn	1.624258	0.578044	0.683092
O19	O	1.106162	-0.091211	0.305261
O20	O	1.606162	0.408789	0.805261
C21	C	0.945373	-0.013033	0.180897
C22	C	1.445373	0.486967	0.680897
C23	C	0.840199	-0.012381	0.171907
C24	C	1.340199	0.487619	0.671907
N25	N	1.105338	-0.230028	0.197434
N26	N	1.605338	0.269972	0.697434
C27	C	0.647631	-0.011220	0.155474
C28	C	1.147631	0.488780	0.655474
C29	C	0.589631	-0.015791	0.219231
C30	C	1.089631	0.484209	0.719231
C31	C	0.482480	-0.015145	0.210087
C32	C	0.982480	0.484855	0.710087
C33	C	0.754792	-0.011866	0.164616
C34	C	1.254792	0.488134	0.664616
C35	C	1.167400	-0.270237	0.150243
C36	C	1.667400	0.229763	0.650243
C37	C	1.162043	-0.357717	0.154321
C38	C	1.662043	0.142283	0.654321
C39	C	1.094628	-0.404988	0.205594
C40	C	1.594628	0.095012	0.705594
C41	C	1.032560	-0.364773	0.252786
C42	C	1.532560	0.135227	0.752786
C43	C	1.037913	-0.277293	0.248703
C44	C	1.537913	0.222707	0.748703
C45	C	1.075222	-0.669295	0.220379
C46	C	1.575222	-0.169295	0.720379
C47	C	1.069875	-0.756781	0.224459
C48	C	1.569875	-0.256781	0.724459
C49	C	1.199357	-0.749719	0.125993
C50	C	1.699357	-0.249719	0.625993
C51	C	1.204709	-0.662239	0.121919
C52	C	1.704709	-0.162239	0.621919
C53	C	1.142637	-0.622031	0.169108
C54	C	1.642637	-0.122031	0.669108
C55	C	1.089153	-0.494407	0.209765
C56	C	1.589153	0.005593	0.709765
C57	C	1.148109	-0.532613	0.164932
C58	C	1.648109	-0.032613	0.664932
C59	C	1.291895	-0.013983	0.193811
C60	C	1.791895	0.486017	0.693811
C61	C	1.397069	-0.014630	0.202801
C62	C	1.897069	0.485370	0.702801
C63	C	1.126383	-0.003177	0.043154
C64	C	1.626383	0.496823	0.543154
C65	C	1.125019	0.003132	-0.044832
C66	C	1.625019	0.503132	0.455168
N67	N	1.131937	0.203010	0.177269
N68	N	1.631937	0.703010	0.677269
C69	C	1.119722	-0.069656	-0.082649
C70	C	1.619722	0.430344	0.417351
C71	C	1.118447	-0.063721	-0.165322
C72	C	1.618447	0.436279	0.334678
C73	C	1.122462	0.015003	-0.210176
C74	C	1.622462	0.515003	0.289824
C75	C	1.127762	0.087796	-0.172354
C76	C	1.627762	0.587796	0.327646
C77	C	1.129044	0.081860	-0.089683
C78	C	1.629044	0.581860	0.410317
C79	C	1.118831	0.036715	-0.459966
C80	C	1.618831	0.536715	0.040034
C81	C	1.117546	0.042646	-0.542643
C82	C	1.617546	0.542646	-0.042643
C83	C	1.108232	-0.108872	-0.535605
C84	C	1.608232	0.391128	-0.035605
C85	C	1.109509	-0.114801	-0.452932
C86	C	1.609509	0.385199	0.047068
C87	C	1.114814	-0.042008	-0.415118
C88	C	1.614814	0.457992	0.084882
C89	C	1.121156	0.021071	-0.294681
C90	C	1.621156	0.521071	0.205319
C91	C	1.116127	-0.048077	-0.330614
C92	C	1.616127	0.451923	0.169386
C93	C	1.110885	-0.023839	0.331554
C94	C	1.610885	0.476161	0.831554
C95	C	1.112249	-0.030142	0.419540
C96	C	1.612249	0.469858	0.919540
H97	H	0.620449	-0.020189	0.280683
H98	H	1.120449	0.479811	0.780683
H99	H	1.120807	0.106755	-0.579161
H100	H	1.620807	0.606755	-0.079161
H101	H	1.202995	-0.494123	0.123183
H102	H	1.702995	0.005877	0.623183
H103	H	1.123149	0.095989	-0.429187
H104	H	1.623149	0.595989	0.070813
Cl105	Cl	0.600053	-0.004425	0.060602
Cl106	Cl	1.100053	0.495575	0.560602
Cl107	Cl	1.252159	-0.210820	0.085787
Cl108	Cl	1.752159	0.289180	0.585787
H109	H	1.212578	-0.390455	0.115895
H110	H	1.712578	0.109545	0.615895
H111	H	1.259603	-0.623753	0.080169
H112	H	1.759603	-0.123753	0.580169
Cl113	Cl	1.132823	0.186764	-0.228743
Cl114	Cl	1.632823	0.686764	0.271257
H115	H	1.034263	-0.532902	0.251513
H116	H	1.534263	-0.032902	0.751513
H117	H	1.116436	-0.133762	-0.046134
H118	H	1.616436	0.366238	0.453866
H119	H	0.987375	-0.244556	0.287129
H120	H	1.487375	0.255444	0.787129
Cl121	Cl	0.947804	-0.424196	0.317240
Cl122	Cl	1.447804	0.075804	0.817240
H123	H	1.249892	-0.782465	0.087573
H124	H	1.749892	-0.282465	0.587573
H125	H	1.014975	-0.795265	0.266214
H126	H	1.514975	-0.295265	0.766214
Cl127	Cl	0.997195	-0.618755	0.279704
Cl128	Cl	1.497195	-0.118755	0.779704
H129	H	1.103914	-0.168137	-0.566403
H130	H	1.603914	0.331863	-0.066403
H131	H	1.114138	-0.122993	-0.196109
H132	H	1.614138	0.377007	0.303891
Cl133	Cl	1.104436	-0.213773	-0.396549
Cl134	Cl	1.604436	0.286227	0.103451
H135	H	1.133358	0.141132	-0.058894
H136	H	1.633358	0.641132	0.441106
H137	H	1.112863	-0.112174	-0.294091
H138	H	1.612863	0.387826	0.205909
H139	H	1.124423	0.085169	-0.331211
H140	H	1.624423	0.585169	0.168789
