data_functionalizedCrystal
_audit_creation_method	'MofGen! by Chris Wilmer'
_symmetry_space_group_name_H-M	'P1'
_symmetry_Int_Tables_number	1
_symmetry_cell_setting	triclinic
loop_
_symmetry_equiv_pos_as_xyz
  x,y,z
_cell_length_a	16.992694
_cell_length_b	15.944551
_cell_length_c	15.455313
_cell_angle_alpha	92.664316
_cell_angle_beta	87.142206
_cell_angle_gamma	87.083481
loop_
_atom_site_label
_atom_site_type_symbol
_atom_site_fract_x
_atom_site_fract_y
_atom_site_fract_z
O1	O	1.043832	0.174669	-0.072025
O2	O	1.543832	0.674669	0.427975
O3	O	0.815548	0.172714	-0.072051
O4	O	1.315548	0.672714	0.427949
O5	O	0.935924	0.051836	-0.072029
O6	O	1.435924	0.551836	0.427971
O7	O	0.923457	0.295548	-0.072046
O8	O	1.423457	0.795548	0.427954
O9	O	0.929040	0.058718	0.072232
O10	O	1.429040	0.558718	0.572232
O11	O	0.808664	0.179596	0.072210
O12	O	1.308664	0.679596	0.572210
O13	O	1.036949	0.181551	0.072236
O14	O	1.536949	0.681551	0.572236
Cu15	Cu	0.922178	0.181202	0.085395
Cu16	Cu	1.422178	0.681202	0.585395
Cu17	Cu	0.930319	0.173063	-0.085210
Cu18	Cu	1.430319	0.673063	0.414790
O19	O	0.916573	0.302430	0.072215
O20	O	1.416573	0.802430	0.572215
C21	C	0.782894	0.173641	0.000077
C22	C	1.282894	0.673641	0.500077
C23	C	0.695850	0.166141	0.000067
C24	C	1.195850	0.666141	0.500067
C25	C	0.645613	0.238506	0.000063
C26	C	1.145613	0.738506	0.500063
C27	C	0.563826	0.231454	0.000075
C28	C	1.063826	0.731454	0.500075
C29	C	0.532276	0.152037	0.000086
C30	C	1.032276	0.652037	0.500086
C31	C	0.582519	0.079667	0.000093
C32	C	1.082519	0.579667	0.500093
C33	C	0.664305	0.086719	0.000087
C34	C	1.164305	0.586719	0.500087
C35	C	0.288676	0.122807	0.000111
C36	C	0.788676	0.622807	0.500111
C37	C	0.206884	0.115760	0.000115
C38	C	0.706884	0.615760	0.500115
C39	C	0.188196	0.267548	0.000099
C40	C	0.688196	0.767548	0.500099
C41	C	0.269984	0.274593	0.000087
C42	C	0.769984	0.774593	0.500087
C43	C	0.320220	0.202223	0.000099
C44	C	0.820220	0.702223	0.500099
N45	N	0.448677	0.144827	0.000096
N46	N	0.948677	0.644827	0.500096
N47	N	0.403817	0.209434	0.000095
N48	N	0.903817	0.709434	0.500095
C49	C	0.931964	0.023948	0.000101
C50	C	1.431964	0.523948	0.500101
C51	C	0.930413	-0.069402	0.000102
C52	C	1.430413	0.430598	0.500102
C53	C	0.852089	-0.289513	0.000081
C54	C	1.352089	0.210487	0.500081
C55	C	0.885066	-0.344697	0.071214
C56	C	1.385066	0.155303	0.571214
C57	C	0.927606	-0.240317	0.000095
C58	C	1.427606	0.259683	0.500095
C59	C	0.891871	-0.351465	-0.071016
C60	C	1.391871	0.148535	0.428984
C61	C	0.924889	-0.405412	0.000084
C62	C	1.424889	0.094588	0.500084
C63	C	0.960600	-0.294269	0.071287
C64	C	1.460600	0.205731	0.571287
C65	C	0.967397	-0.301034	-0.071007
C66	C	1.467397	0.198966	0.428993
C67	C	1.000428	-0.356196	0.000144
C68	C	1.500428	0.143804	0.500144
C69	C	0.929168	-0.145209	0.000101
C70	C	1.429168	0.354791	0.500101
C71	C	0.923332	-0.500518	0.000084
C72	C	1.423332	-0.000518	0.500084
C73	C	1.069603	0.180624	0.000107
C74	C	1.569603	0.680624	0.500107
C75	C	1.156647	0.188124	0.000110
C76	C	1.656647	0.688124	0.500110
C77	C	0.920532	0.330318	0.000082
C78	C	1.420532	0.830318	0.500082
C79	C	0.922084	0.423668	0.000076
C80	C	1.422084	0.923668	0.500076
N81	N	0.916458	0.186926	0.205390
N82	N	1.416458	0.686926	0.705390
N83	N	0.936045	0.167333	-0.205204
N84	N	1.436045	0.667333	0.294796
C85	C	0.967616	0.135594	0.250793
C86	C	1.467616	0.635594	0.750793
C87	C	0.963297	0.139932	0.341600
C88	C	1.463297	0.639932	0.841600
C89	C	0.907824	0.195606	0.387002
C90	C	1.407824	0.695606	0.887002
C91	C	0.856661	0.246940	0.341593
C92	C	1.356661	0.746940	0.841593
C93	C	0.860976	0.242598	0.250787
C94	C	1.360976	0.742598	0.750787
C95	C	0.889197	0.214325	0.658581
C96	C	1.389197	0.714325	1.158581
C97	C	0.884887	0.218665	0.749392
C98	C	1.384887	0.718665	1.249392
C99	C	0.991523	0.111655	0.749393
C100	C	1.491523	0.611655	1.249393
C101	C	0.995836	0.107321	0.658586
C102	C	1.495836	0.607321	1.158586
C103	C	0.944671	0.158653	0.613185
C104	C	1.444671	0.658653	1.113185
N105	N	0.903410	0.200042	0.479822
N106	N	1.403410	0.700042	0.979822
N107	N	0.949081	0.154211	0.520367
N108	N	1.449081	0.654211	1.020367
H109	H	0.705207	0.027792	0.000090
H110	H	1.205207	0.527792	0.500090
Br111	Br	0.809599	0.294234	0.811004
Br112	Br	1.309599	0.794234	1.311004
Br113	Br	0.312796	0.382377	0.000063
Br114	Br	0.812796	0.882377	0.500063
H115	H	0.862790	-0.376554	-0.131158
H116	H	1.362790	0.123446	0.368842
H117	H	0.556825	0.015004	0.000114
H118	H	1.056825	0.515004	0.500114
H119	H	1.002180	-0.281632	-0.131141
H120	H	1.502180	0.218368	0.368859
Br121	Br	1.042910	0.060039	0.189185
Br122	Br	1.542910	0.560039	0.689185
Br123	Br	0.356842	0.024590	0.000129
Br124	Br	0.856842	0.524590	0.500129
H125	H	0.819318	0.284397	0.213821
H126	H	1.319318	0.784397	0.713821
Br127	Br	0.819762	0.283988	0.596969
Br128	Br	1.319762	0.783988	1.096969
H129	H	0.522926	0.290381	0.000071
H130	H	1.022926	0.790381	0.500071
Br131	Br	0.747610	-0.241001	0.000179
Br132	Br	1.247610	0.258999	0.500179
H133	H	0.850256	-0.364079	0.131345
H134	H	1.350256	0.135921	0.631345
Br135	Br	1.009009	-0.252603	0.171629
Br136	Br	1.509009	0.247397	0.671629
H137	H	1.033179	0.069863	0.786368
H138	H	1.533179	0.569863	1.286368
H139	H	1.063164	-0.385145	0.000191
H140	H	1.563164	0.114855	0.500191
H141	H	1.004953	0.098132	0.378567
H142	H	1.504953	0.598132	0.878567
Br143	Br	1.071124	0.031767	0.596967
Br144	Br	1.571124	0.531767	1.096967
H145	H	0.811490	0.292268	0.378565
H146	H	1.311490	0.792268	0.878565
H147	H	0.671294	0.303176	0.000054
H148	H	1.171294	0.803176	0.500054
H149	H	0.147286	0.326467	0.000091
H150	H	0.647286	0.826467	0.500091
Br151	Br	0.164067	0.007973	0.000148
Br152	Br	0.664067	0.507973	0.500148
