data_functionalizedCrystal
_audit_creation_method	'MofGen! by Chris Wilmer'
_symmetry_space_group_name_H-M	'P1'
_symmetry_Int_Tables_number	1
_symmetry_cell_setting	triclinic
loop_
_symmetry_equiv_pos_as_xyz
  x,y,z
_cell_length_a	19.188930
_cell_length_b	19.288859
_cell_length_c	17.666332
_cell_angle_alpha	90.010223
_cell_angle_beta	90.011603
_cell_angle_gamma	83.139253
loop_
_atom_site_label
_atom_site_type_symbol
_atom_site_fract_x
_atom_site_fract_y
_atom_site_fract_z
O1	O	0.087079	0.921362	0.062972
O2	O	0.098833	0.719102	0.062971
O3	O	-0.008700	0.826069	0.062957
O4	O	0.194612	0.814395	0.062986
O5	O	-0.008706	0.826050	-0.062940
O6	O	0.098827	0.719083	-0.062926
O7	O	0.087073	0.921344	-0.062925
Cu8	Cu	0.092950	0.820212	-0.074421
Cu9	Cu	0.092956	0.820234	0.074467
O10	O	0.194606	0.814377	-0.062911
C11	C	-0.034714	0.825681	0.000006
C12	C	-0.112219	0.824547	-0.000000
C13	C	0.098453	0.693216	0.000022
C14	C	0.097319	0.616112	0.000021
C15	C	0.152749	0.052076	0.000031
C16	C	0.153820	0.124522	0.000035
C17	C	0.090725	0.169224	0.000024
C18	C	0.026553	0.141474	0.000029
C19	C	0.025484	0.069029	0.000032
C20	C	0.043666	0.290484	-0.044093
C21	C	0.044738	0.362928	-0.044101
C22	C	0.094019	0.392670	0.000017
C23	C	0.142241	0.349958	0.044133
C24	C	0.141172	0.277513	0.044136
C25	C	0.091877	0.247780	0.000021
C26	C	0.159347	0.498967	0.000022
C27	C	0.160416	0.571415	0.000031
C28	C	0.033147	0.588366	0.000017
C29	C	0.032081	0.515919	0.000016
C30	C	0.095183	0.471223	0.000015
C31	C	-0.157149	0.887311	-0.000004
C32	C	-0.229972	0.886245	0.000008
C33	C	-0.257863	0.822411	0.000009
C34	C	-0.212923	0.759638	0.000016
C35	C	-0.140101	0.760706	0.000012
N36	N	-0.365865	0.773611	-0.042837
N37	N	-0.435043	0.772600	-0.042834
C38	C	-0.477271	0.819189	0.000024
N39	N	-0.447708	0.866837	0.042869
N40	N	-0.378524	0.867850	0.042863
C41	C	-0.336825	0.821246	0.000014
C42	C	-0.601165	0.880803	0.000035
C43	C	-0.673990	0.879734	0.000051
C44	C	-0.656939	0.753125	0.000052
C45	C	-0.584116	0.754195	0.000043
C46	C	-0.556234	0.818036	0.000030
C47	C	0.220620	0.814764	0.000042
C48	C	0.298125	0.815899	0.000053
C49	C	0.087453	0.947229	0.000025
C50	C	0.088587	1.024333	0.000031
N51	N	0.092944	0.820201	-0.179140
C52	C	0.045352	0.867581	-0.218756
C53	C	0.045349	0.867585	-0.298004
C54	C	0.092950	0.820216	-0.337632
C55	C	0.140546	0.772827	-0.298007
C56	C	0.140543	0.772819	-0.218761
N57	N	0.154758	0.811187	-0.462042
N58	N	0.154758	0.811198	-0.537323
C59	C	0.092960	0.820234	-0.576396
N60	N	0.031158	0.829273	-0.537346
N61	N	0.031159	0.829265	-0.462058
C62	C	0.092958	0.820218	-0.423561
C63	C	0.045359	0.867621	-0.701942
C64	C	0.045355	0.867621	-0.781191
C65	C	0.140558	0.772865	-0.781192
C66	C	0.140557	0.772863	-0.701945
C67	C	0.092958	0.820244	-0.662324
N68	N	0.092956	0.820250	0.179186
H69	H	0.204132	0.015688	0.000033
O70	O	-0.034756	0.184867	0.000152
C71	C	-0.143213	0.221509	0.065345
C72	C	-0.073797	0.172340	0.065303
H73	H	-0.174804	0.211388	0.118005
H74	H	-0.131469	0.278067	0.065389
H75	H	-0.174780	0.211438	0.012633
H76	H	-0.042196	0.182348	0.118006
H77	H	-0.085591	0.115798	0.065219
O78	O	0.186730	0.726753	-0.819643
C79	C	0.227983	0.605859	-0.843876
C80	C	0.175645	0.658007	-0.800293
H81	H	0.219049	0.550266	-0.828236
H82	H	0.219811	0.613939	-0.907330
H83	H	0.283876	0.614771	-0.828286
H84	H	0.119731	0.649126	-0.815819
H85	H	0.183878	0.649914	-0.736849
H86	H	-0.026766	0.046443	0.000033
H87	H	-0.235636	0.707663	0.000018
H88	H	0.006596	0.906201	-0.813447
H89	H	-0.103518	0.709593	0.000014
H90	H	0.206071	0.147114	0.000027
H91	H	0.005477	0.397699	-0.080027
H92	H	-0.134452	0.939296	-0.000011
H93	H	-0.578463	0.932786	0.000028
O94	O	-0.273528	0.947282	-0.000031
C95	C	-0.282761	1.072971	-0.000001
C96	C	-0.233357	1.003901	0.000027
H97	H	-0.250302	1.118766	0.000062
H98	H	-0.317277	1.075670	-0.052700
H99	H	-0.317285	1.075608	0.052675
H100	H	-0.198789	1.001218	-0.052614
H101	H	-0.198889	1.001231	0.052761
O102	O	-0.717539	0.940771	0.000015
C103	C	-0.726762	1.066460	0.000044
C104	C	-0.677363	0.997387	0.000068
H105	H	-0.694301	1.112252	0.000103
H106	H	-0.761283	1.069161	-0.052652
H107	H	-0.761282	1.069100	0.052724
H108	H	-0.642799	0.994701	-0.052575
H109	H	-0.642891	0.994716	0.052799
O110	O	0.220623	0.455517	-0.000104
C111	C	0.293257	0.363849	-0.065294
C112	C	0.223844	0.413022	-0.065255
H113	H	0.295877	0.329469	-0.117955
H114	H	0.339328	0.396091	-0.065335
H115	H	0.295932	0.329548	-0.012583
H116	H	0.221100	0.447333	-0.117958
H117	H	0.177806	0.380738	-0.065175
O118	O	-0.683906	0.691054	0.000086
C119	C	-0.659309	0.565590	0.000040
C120	C	-0.628671	0.635838	0.000016
H121	H	-0.614666	0.520929	-0.000032
H122	H	-0.692937	0.561885	0.052743
H123	H	-0.693013	0.561955	-0.052632
H124	H	-0.594935	0.639520	0.052652
H125	H	-0.595083	0.639513	-0.052722
H126	H	0.006599	0.906201	-0.669682
O127	O	-0.540439	0.693243	0.000172
C128	C	-0.448284	0.620999	0.065368
C129	C	-0.497718	0.690049	0.065321
H130	H	-0.413721	0.618401	0.118026
H131	H	-0.480690	0.575164	0.065419
H132	H	-0.413808	0.618334	0.012654
H133	H	-0.532204	0.692782	0.118025
H134	H	-0.465269	0.735852	0.065230
H135	H	0.180434	0.242740	0.080059
O136	O	-0.000956	0.913628	-0.180388
C137	C	-0.095354	1.007640	-0.188754
C138	C	-0.042957	0.955522	-0.232302
H139	H	-0.129315	1.041534	-0.230707
H140	H	-0.130208	0.977794	-0.151694
H141	H	-0.065287	1.042209	-0.151611
H142	H	-0.072967	0.920940	-0.269486
H143	H	-0.008103	0.985411	-0.269313
H144	H	0.006592	0.906169	-0.330265
O145	O	0.186690	0.726784	-0.336582
C146	C	0.201797	0.631866	-0.426048
C147	C	0.149464	0.683985	-0.382423
H148	H	0.171720	0.597239	-0.463108
H149	H	0.236594	0.661711	-0.463180
H150	H	0.235829	0.598030	-0.384104
H151	H	0.115386	0.717835	-0.424312
H152	H	0.114716	0.654097	-0.345279
H153	H	0.182372	0.374172	0.080056
H154	H	0.179299	0.734236	-0.186504
O155	O	0.186892	0.726911	-0.663493
C156	C	0.308404	0.685810	-0.639267
C157	C	0.256005	0.737904	-0.682845
H158	H	0.364293	0.694670	-0.654908
H159	H	0.300290	0.693939	-0.575811
H160	H	0.299414	0.630215	-0.654859
H161	H	0.264963	0.793519	-0.667316
H162	H	0.264132	0.729714	-0.746289
H163	H	-0.018227	0.624762	0.000015
O164	O	-0.030292	0.489050	0.000108
C165	C	-0.139371	0.481353	0.065342
C166	C	-0.068762	0.511840	0.065320
H167	H	-0.170487	0.499755	0.118069
H168	H	-0.170591	0.499788	0.012686
H169	H	-0.129282	0.421898	0.065309
H170	H	-0.078787	0.571296	0.065380
H171	H	-0.037564	0.493350	0.117972
O172	O	-0.004237	0.261708	-0.087020
C173	C	-0.100858	0.282222	-0.174504
C174	C	-0.046637	0.314899	-0.125943
H175	H	-0.135163	0.325213	-0.205973
H176	H	-0.072429	0.244461	-0.217109
H177	H	-0.135157	0.252797	-0.136331
H178	H	-0.012323	0.344360	-0.164055
H179	H	-0.075110	0.352623	-0.083331
H180	H	0.212667	0.594000	0.000037
