data_functionalizedCrystal
_audit_creation_method	'MofGen! by Chris Wilmer'
_symmetry_space_group_name_H-M	'P1'
_symmetry_Int_Tables_number	1
_symmetry_cell_setting	triclinic
loop_
_symmetry_equiv_pos_as_xyz
  x,y,z
_cell_length_a	21.883469
_cell_length_b	21.882911
_cell_length_c	21.879399
_cell_angle_alpha	60.006540
_cell_angle_beta	60.013207
_cell_angle_gamma	59.992231
loop_
_atom_site_label
_atom_site_type_symbol
_atom_site_fract_x
_atom_site_fract_y
_atom_site_fract_z
O1	O	0.084645	-0.892842	0.746620
O2	O	0.031867	-0.695139	0.601571
O3	O	0.157054	-0.820237	0.601476
O4	O	-0.040542	-0.767744	0.746716
O5	O	0.198586	-0.778715	0.642912
O6	O	0.073399	-0.653617	0.643007
O7	O	0.126177	-0.851320	0.788056
Cu8	Cu	0.103580	-0.748677	0.719315
Cu9	Cu	0.054464	-0.797782	0.670313
O10	O	0.000990	-0.726222	0.788151
N11	N	0.138128	-0.714145	0.753785
N12	N	0.019923	-0.832320	0.635843
C13	C	0.190018	-0.547369	0.805644
C14	C	0.190029	-0.662289	0.805630
C15	C	0.218780	-0.633565	0.834353
C16	C	0.344122	-0.611968	0.768360
C17	C	0.422474	-0.638085	0.742222
C18	C	0.422504	-0.764859	0.790561
C19	C	0.344154	-0.738739	0.816702
C20	C	0.208899	-0.508180	0.728617
C21	C	0.182748	-0.429822	0.702522
C22	C	0.118843	-0.429847	0.830485
C23	C	0.144993	-0.508205	0.856580
C24	C	0.112994	-0.643364	0.824587
C25	C	0.086865	-0.669476	0.798467
C26	C	0.214799	-0.733437	0.734451
C27	C	0.240932	-0.707325	0.760562
C28	C	0.113084	-0.643389	0.959747
C29	C	0.087018	-0.669524	1.038102
C30	C	0.214996	-0.733501	1.038048
C31	C	0.241061	-0.707367	0.959690
C32	C	0.190103	-0.662308	0.920542
C33	C	0.304966	-0.662293	0.805598
C34	C	-0.117460	-0.854702	0.612901
C35	C	-0.002405	-0.854864	0.498145
C36	C	-0.002621	-0.969735	0.613108
C37	C	-0.002603	-0.854858	0.613180
C38	C	-0.031272	-0.883541	0.584334
N39	N	0.460550	-0.714150	0.753681
O40	O	0.699805	-0.721060	0.574973
O41	O	0.700047	-0.866553	0.772482
O42	O	0.699952	-0.866219	0.647213
O43	O	0.699900	-0.721394	0.700242
O44	O	0.575478	-0.824800	0.688791
O45	O	0.575573	-0.825134	0.814060
O46	O	0.575331	-0.679641	0.616551
Cu47	Cu	0.564087	-0.748606	0.719102
Cu48	Cu	0.711292	-0.797588	0.669931
O49	O	0.575426	-0.679975	0.741820
N50	N	0.814828	-0.832044	0.635345
N51	N	0.138106	-0.391772	0.753815
O52	O	-0.040520	-0.152377	0.746758
O53	O	0.156993	-0.152371	0.601281
O54	O	0.031698	-0.152390	0.601639
O55	O	0.084775	-0.152358	0.746401
O56	O	0.073234	-0.276876	0.643130
O57	O	0.198529	-0.276856	0.642772
O58	O	0.001015	-0.276863	0.788249
Cu59	Cu	0.103564	-0.288226	0.719299
Cu60	Cu	0.054444	-0.141007	0.670231
O61	O	0.126310	-0.276844	0.787892
N62	N	0.019892	-0.037461	0.635717
N63	N	0.138332	-0.714192	1.076133
O64	O	0.131293	-0.892804	1.315506
O65	O	-0.014162	-0.695219	1.315533
O66	O	-0.013826	-0.820490	1.315480
O67	O	0.130957	-0.767533	1.315559
O68	O	0.027651	-0.778981	1.191001
O69	O	0.027314	-0.653710	1.191054
O70	O	0.172770	-0.851295	1.191026
Cu71	Cu	0.103829	-0.748713	1.179674
Cu72	Cu	0.054778	-0.797802	1.326885
O73	O	0.172434	-0.726024	1.191079
N74	N	0.020275	-0.832331	1.430426
C75	C	0.047687	-0.649466	0.602306
C76	C	0.202716	-0.804385	0.602188
C77	C	0.110357	-0.896993	0.787321
C78	C	-0.044672	-0.742074	0.787439
C79	C	0.637839	-0.865879	0.818154
C80	C	0.637724	-0.865466	0.663023
C81	C	0.637536	-0.680313	0.570880
C82	C	0.637655	-0.680728	0.726010
C83	C	0.202592	-0.214459	0.601942
C84	C	0.047481	-0.214636	0.602435
C85	C	-0.044635	-0.214620	0.787537
C86	C	0.110528	-0.214598	0.787096
C87	C	-0.013455	-0.649572	1.253296
C88	C	-0.013030	-0.804697	1.253206
C89	C	0.172063	-0.896942	1.253263
C90	C	0.171648	-0.741808	1.253325
H91	H	0.024299	-0.654107	1.070013
O92	O	0.637313	-0.625746	0.503270
C93	C	0.572711	-0.500909	0.436514
C94	C	0.572862	-0.562648	0.513126
H95	H	0.520616	-0.449874	0.444458
H96	H	0.572646	-0.522543	0.398750
H97	H	0.624798	-0.484588	0.409616
H98	H	0.520784	-0.578996	0.540089
H99	H	0.572965	-0.540981	0.550837
H100	H	0.637745	-0.910963	0.651673
H101	H	0.637644	-0.635235	0.737357
O102	O	-0.112313	-0.728789	0.841947
C103	C	-0.179202	-0.722015	0.966677
C104	C	-0.102551	-0.737096	0.905018
H105	H	-0.171337	-0.728710	1.017680
H106	H	-0.206137	-0.763539	0.983103
H107	H	-0.216890	-0.662573	0.944869
H108	H	-0.064805	-0.796517	0.926774
H109	H	-0.075677	-0.695526	0.888602
H110	H	0.036114	-0.214639	0.556956
O111	O	0.270366	-0.817615	0.547679
C112	C	0.347169	-0.768332	0.421517
C113	C	0.270517	-0.753255	0.483176
H114	H	0.347321	-0.716302	0.369357
H115	H	0.358107	-0.817266	0.407401
H116	H	0.392849	-0.782581	0.442172
H117	H	0.224789	-0.738974	0.462572
H118	H	0.259644	-0.704343	0.497282
O119	O	0.124005	-0.214462	0.841333
C120	C	0.088025	-0.149992	0.923006
C121	C	0.072689	-0.150042	0.861574
H122	H	0.046536	-0.097922	0.939401
H123	H	0.147475	-0.149940	0.901071
H124	H	0.081386	-0.202114	0.974067
H125	H	0.079286	-0.097929	0.810493
H126	H	0.013245	-0.150133	0.883569
O127	O	-0.067867	-0.581845	1.253337
C128	C	-0.102647	-0.458529	1.253329
C129	C	-0.040967	-0.535201	1.253300
H130	H	-0.080916	-0.420791	1.253283
H131	H	-0.153691	-0.466340	1.305427
H132	H	-0.118984	-0.431677	1.201238
H133	H	-0.024566	-0.562095	1.305356
H134	H	0.010037	-0.527341	1.201168
H135	H	0.217133	-0.730478	1.253340
O136	O	0.034322	-0.581685	0.547974
C137	C	0.070482	-0.471676	0.466181
C138	C	0.085687	-0.548415	0.527722
H139	H	0.112012	-0.444762	0.449777
H140	H	0.011046	-0.434003	0.488013
H141	H	0.077162	-0.479480	0.415151
H142	H	0.079049	-0.540681	0.578773
H143	H	0.145117	-0.586061	0.505829
H144	H	0.121632	-0.953785	0.832877
H145	H	-0.058496	-0.816008	1.253133
O146	O	0.226454	-0.964690	1.253284
C147	C	0.261269	-1.087971	1.253188
C148	C	0.199599	-1.011288	1.253184
H149	H	0.239585	-1.125662	1.253092
H150	H	0.277593	-1.114915	1.305302
H151	H	0.312311	-1.080084	1.201114
H152	H	0.148518	-1.019110	1.305224
H153	H	0.183339	-0.984371	1.201035
H154	H	0.637900	-0.911553	0.874882
H155	H	0.259199	-0.214112	0.556156
O156	O	-0.112362	-0.214478	0.841959
C157	C	-0.245513	-0.149993	0.878094
C158	C	-0.168859	-0.150058	0.816405
H159	H	-0.291213	-0.097923	0.857452
H160	H	-0.245631	-0.149931	0.930228
H161	H	-0.256446	-0.202115	0.892258
H162	H	-0.157877	-0.097945	0.802177
H163	H	-0.168778	-0.150159	0.764311
O164	O	0.063552	-0.599729	0.921751
C165	C	-0.037884	-0.589684	0.897849
C166	C	0.018175	-0.639211	0.940914
H167	H	-0.074596	-0.621580	0.913339
H168	H	-0.006062	-0.574273	0.835105
H169	H	-0.074531	-0.536505	0.913262
H170	H	0.054837	-0.692421	0.925563
H171	H	-0.013692	-0.654561	1.003648
O172	O	0.264528	-0.777363	1.076036
C173	C	0.365983	-0.892661	1.099913
C174	C	0.309915	-0.843068	1.056858
H175	H	0.402704	-0.945786	1.084411
H176	H	0.334169	-0.908155	1.162659
H177	H	0.402621	-0.860722	1.084502
H178	H	0.273263	-0.874961	1.072206
H179	H	0.341776	-0.827570	0.994123
O180	O	0.063619	-0.599524	0.868280
C181	C	0.018805	-0.480235	0.882244
C182	C	0.074778	-0.529812	0.832695
H183	H	0.027798	-0.423857	0.853485
H184	H	0.027871	-0.508898	0.938593
H185	H	-0.040733	-0.471232	0.891314
H186	H	0.134338	-0.538831	0.823564
H187	H	0.065647	-0.501125	0.776376
H188	H	0.024137	-0.654049	0.813885
O189	O	0.264287	-0.777071	0.690567
C190	C	0.365648	-0.787056	0.575240
C191	C	0.309623	-0.737561	0.624864
H192	H	0.402328	-0.755138	0.522115
H193	H	0.333797	-0.802462	0.559752
H194	H	0.402330	-0.840239	0.607149
H195	H	0.272927	-0.684347	0.593001
H196	H	0.341521	-0.722215	0.640355
O197	O	0.306232	-0.787724	0.852829
C198	C	0.314534	-0.916229	0.898051
C199	C	0.357573	-0.860833	0.857108
H200	H	0.356024	-0.975351	0.901537
H201	H	0.277844	-0.900552	0.866029
H202	H	0.277861	-0.913795	0.956949
H203	H	0.394286	-0.863238	0.798209
H204	H	0.394215	-0.876528	0.889187
H205	H	0.303780	-0.722782	0.927774
H206	H	0.454413	-0.827107	0.799589
O207	O	0.460396	-0.589095	0.706033
C208	C	0.452101	-0.460602	0.660879
C209	C	0.409058	-0.516001	0.701860
H210	H	0.410613	-0.401496	0.657505
H211	H	0.488735	-0.462940	0.601942
H212	H	0.488829	-0.476374	0.692901
H213	H	0.372289	-0.500267	0.669900
H214	H	0.372471	-0.513654	0.760799
H215	H	0.312222	-0.549720	0.759316
O216	O	0.252596	-0.546109	0.679040
C217	C	0.313242	-0.537813	0.549361
C218	C	0.263737	-0.494767	0.605428
H219	H	0.322278	-0.496321	0.489833
H220	H	0.284545	-0.574478	0.558344
H221	H	0.369602	-0.574517	0.558406
H222	H	0.207369	-0.458022	0.596417
H223	H	0.292493	-0.458149	0.596431
H224	H	0.198119	-0.397913	0.639797
O225	O	0.075094	-0.391914	0.880063
C226	C	0.014527	-0.400205	1.009741
C227	C	0.064064	-0.443255	0.953676
H228	H	0.005607	-0.441695	1.069269
H229	H	-0.041884	-0.363546	1.000800
H230	H	0.043233	-0.363495	1.000651
H231	H	0.035425	-0.480006	0.962732
H232	H	0.120474	-0.479866	0.962631
H233	H	0.303660	-0.722726	0.745118
H234	H	0.129609	-0.540114	0.919306
