data_functionalizedCrystal
_audit_creation_method	'MofGen! by Chris Wilmer'
_symmetry_space_group_name_H-M	'P1'
_symmetry_Int_Tables_number	1
_symmetry_cell_setting	triclinic
loop_
_symmetry_equiv_pos_as_xyz
  x,y,z
_cell_length_a	12.837943
_cell_length_b	22.010155
_cell_length_c	12.811415
_cell_angle_alpha	95.426581
_cell_angle_beta	89.411917
_cell_angle_gamma	90.008188
loop_
_atom_site_label
_atom_site_type_symbol
_atom_site_fract_x
_atom_site_fract_y
_atom_site_fract_z
O1	O	1.376642	0.065552	0.272960
O2	O	1.074778	0.064813	0.259475
O3	O	1.233303	0.056803	0.114187
O4	O	1.218117	0.073562	0.418249
O5	O	1.233274	-0.044246	0.114208
O6	O	1.074749	-0.036237	0.259497
O7	O	1.376613	-0.035497	0.272981
Cu8	Cu	1.225679	-0.045094	0.266241
Cu9	Cu	1.225713	0.074409	0.266216
O10	O	1.218089	-0.027488	0.418270
C11	C	1.036123	0.014037	0.254931
C12	C	0.920987	0.013290	0.241345
N13	N	1.225662	-0.129145	0.266259
C14	C	0.680735	0.022284	0.404673
C15	C	0.572554	0.021581	0.391913
C16	C	0.596442	0.011179	0.203065
C17	C	0.704623	0.011881	0.215825
C18	C	0.746766	0.017435	0.316632
C19	C	0.854949	0.018141	0.329392
C20	C	0.878835	0.007735	0.140545
C21	C	0.770654	0.007033	0.127785
C22	C	1.295911	-0.552473	0.201892
C23	C	1.295916	-0.616081	0.201886
O24	O	1.355603	-0.651989	0.147169
N25	N	1.225712	-0.644356	0.266194
C26	C	1.155491	-0.609020	0.330505
O27	O	1.095777	-0.638910	0.385202
C28	C	1.155482	-0.545413	0.330505
C29	C	1.225698	-0.517141	0.266201
C30	C	1.366121	-0.524201	0.137593
C31	C	1.366117	-0.460597	0.137601
C32	C	1.295904	-0.425266	0.201909
C33	C	1.225694	-0.453538	0.266209
C34	C	1.085257	-0.510078	0.394810
C35	C	1.085254	-0.446468	0.394804
C36	C	1.155470	-0.418196	0.330500
C37	C	1.155477	-0.354602	0.330526
N38	N	1.225682	-0.326328	0.266218
C39	C	1.295895	-0.361659	0.201910
C40	C	1.155514	-0.742598	0.330498
C41	C	1.155527	-0.806203	0.330503
C42	C	1.295951	-0.813260	0.201883
C43	C	1.295942	-0.749653	0.201883
C44	C	1.225718	-0.714323	0.266190
C45	C	1.295882	-0.228087	0.201933
C46	C	1.295875	-0.164477	0.201950
C47	C	1.155448	-0.157425	0.330566
C48	C	1.155458	-0.221029	0.330554
C49	C	1.225679	-0.256359	0.266229
O50	O	1.095818	-0.318656	0.385212
O51	O	1.355590	-0.331761	0.147211
C52	C	1.415268	0.015279	0.277526
C53	C	1.530404	0.016030	0.291112
C54	C	1.232437	0.004120	0.075009
C55	C	1.229886	-0.002313	-0.041763
N56	N	1.225737	0.158460	0.266190
C57	C	1.225107	0.095777	-0.261202
C58	C	1.222711	0.089737	-0.370920
C59	C	1.222691	-0.020434	-0.370916
C60	C	1.225087	-0.014393	-0.261199
C61	C	1.226297	0.043714	-0.206346
C62	C	1.228700	0.049754	-0.096627
C63	C	1.228672	-0.060416	-0.096625
C64	C	1.226276	-0.066456	-0.206343
C65	C	1.218955	0.025197	0.457448
C66	C	1.221505	0.031633	0.574220
H67	H	0.889259	0.022662	0.411474
H68	H	1.353057	-0.141460	0.149586
Br69	Br	0.737935	0.029831	0.541478
H70	H	0.932609	0.003791	0.068856
Br71	Br	1.230302	-0.131077	-0.022173
Br72	Br	0.989940	-0.398524	0.482078
H73	H	1.028081	-0.533088	0.447172
H74	H	1.221698	-0.067742	-0.415596
H75	H	1.098284	-0.128648	0.382929
H76	H	0.736326	0.002504	0.045710
Br77	Br	1.060176	-0.259396	0.417842
H78	H	0.518796	0.025528	0.463605
H79	H	0.562111	0.006608	0.120992
Br80	Br	1.060248	-0.844563	0.417795
Br81	Br	1.391241	-0.861224	0.114607
Br82	Br	1.060208	-0.694654	0.417786
H83	H	1.353062	-0.256845	0.149552
H84	H	1.423290	-0.437583	0.085236
Br85	Br	1.461421	-0.572141	0.050304
H86	H	1.353117	-0.726639	0.149521
Br87	Br	1.230349	0.128613	-0.022184
H88	H	1.226102	0.143091	-0.216541
Br89	Br	1.221090	0.160397	-0.445365
Br90	Br	1.224621	-0.145312	-0.280795
