data_functionalizedCrystal
_audit_creation_method	'MofGen! by Chris Wilmer'
_symmetry_space_group_name_H-M	'P1'
_symmetry_Int_Tables_number	1
_symmetry_cell_setting	triclinic
loop_
_symmetry_equiv_pos_as_xyz
  x,y,z
_cell_length_a	17.019372
_cell_length_b	17.038272
_cell_length_c	16.176319
_cell_angle_alpha	89.993159
_cell_angle_beta	93.869003
_cell_angle_gamma	87.242864
loop_
_atom_site_label
_atom_site_type_symbol
_atom_site_fract_x
_atom_site_fract_y
_atom_site_fract_z
O1	O	1.053348	0.099573	0.006175
O2	O	0.824539	0.112280	-0.010101
O3	O	0.937584	-0.007887	-0.002053
O4	O	0.940304	0.219741	-0.001873
O5	O	0.937567	-0.007895	0.135439
O6	O	0.824522	0.112273	0.127391
O7	O	1.053331	0.099565	0.143667
Cu8	Cu	0.938925	0.105918	0.148083
Cu9	Cu	0.938945	0.105927	-0.014517
O10	O	0.940286	0.219733	0.135619
C11	C	0.795110	0.111796	0.056552
C12	C	0.707444	0.110354	0.050316
C13	C	0.211627	0.102173	0.011231
C14	C	0.293999	0.103528	0.017102
C15	C	0.335166	0.104207	0.094985
C16	C	0.293959	0.103523	0.167002
C17	C	0.211590	0.102163	0.161130
C18	C	0.583868	0.108310	0.116462
C19	C	0.666243	0.109673	0.122328
C20	C	0.666276	0.109676	-0.027573
C21	C	0.583905	0.108320	-0.033437
C22	C	0.542706	0.107632	0.038579
C23	C	0.419363	0.105594	0.100987
C24	C	0.458511	0.106239	0.032576
C25	C	0.935102	-0.037017	0.066517
C26	C	0.927721	-0.123804	0.065992
C27	C	0.995480	-0.173978	0.070812
C28	C	0.988541	-0.255522	0.070311
C29	C	0.913842	-0.286891	0.064994
C30	C	0.846078	-0.236710	0.060171
C31	C	0.853018	-0.155167	0.060666
C32	C	0.889325	-0.532627	0.063239
C33	C	0.882390	-0.614176	0.062746
C34	C	1.024854	-0.632983	0.072885
C35	C	1.031787	-0.551438	0.073385
C36	C	0.964023	-0.501264	0.068557
C37	C	0.906748	-0.370242	0.064484
C38	C	0.971118	-0.417914	0.069061
C39	C	1.082760	0.100050	0.077012
C40	C	1.170426	0.101492	0.083243
C41	C	0.942769	0.248863	0.067047
C42	C	0.950149	0.335649	0.067567
N43	N	0.938916	0.105912	0.262448
N44	N	0.938960	0.105928	-0.128881
C45	C	0.988990	0.052723	0.309277
C46	C	0.988994	0.052722	0.395824
C47	C	0.938928	0.105914	0.435541
C48	C	0.888849	0.159105	0.388706
C49	C	0.888841	0.159102	0.302160
C50	C	0.888877	0.159120	0.737736
C51	C	0.888889	0.159121	0.824288
C52	C	0.989029	0.052740	0.831400
C53	C	0.989022	0.052737	0.744854
C54	C	0.938940	0.105925	0.698026
C55	C	0.938935	0.105924	0.604182
C56	C	0.938936	0.105919	0.529384
H57	H	0.327485	0.104071	0.230416
C58	C	1.063075	-0.310717	0.075621
C59	C	1.077912	-0.369354	0.005280
C60	C	1.152448	-0.424550	0.010591
C61	C	1.212148	-0.421111	0.086244
C62	C	1.197314	-0.362473	0.156591
C63	C	1.122777	-0.307276	0.151280
H64	H	1.033717	-0.371902	-0.050727
H65	H	1.163430	-0.467958	-0.041485
H66	H	1.267325	-0.461971	0.090175
H67	H	1.241509	-0.359925	0.212598
H68	H	1.111796	-0.263868	0.203355
C69	C	0.824582	-0.404755	0.058636
C70	C	0.800218	-0.458246	0.128292
C71	C	0.718053	-0.492764	0.122437
C72	C	0.660254	-0.473791	0.046927
C73	C	0.684617	-0.420298	-0.022735
C74	C	0.766781	-0.385780	-0.016881
H75	H	0.843006	-0.472293	0.184195
H76	H	0.700019	-0.532364	0.174006
H77	H	0.599431	-0.499344	0.042593
H78	H	0.641829	-0.406250	-0.078638
H79	H	0.784816	-0.346180	-0.068449
C80	C	0.800213	-0.648676	0.056881
C81	C	0.775876	-0.702139	-0.016255
C82	C	0.693702	-0.736637	-0.022124
C83	C	0.635866	-0.717671	0.045143
C84	C	0.660201	-0.664206	0.118284
C85	C	0.742375	-0.629708	0.124153
H86	H	0.818691	-0.716181	-0.066054
H87	H	0.675688	-0.776215	-0.076268
H88	H	0.575036	-0.743209	0.040798
H89	H	0.617386	-0.650164	0.168083
H90	H	0.760390	-0.590130	0.178297
H91	H	0.327541	0.104078	-0.041538
C92	C	0.464661	0.106357	0.186651
C93	C	0.516877	0.175153	0.210947
C94	C	0.562183	0.175918	0.296608
C95	C	0.555273	0.107886	0.357972
C96	C	0.503055	0.039085	0.333677
C97	C	0.457749	0.038320	0.248017
H98	H	0.521994	0.225519	0.165520
H99	H	0.600838	0.226849	0.314592
H100	H	0.588811	0.108452	0.421383
H101	H	0.497938	-0.011281	0.379104
H102	H	0.419093	-0.012611	0.230033
H103	H	0.178114	0.101626	-0.052189
C104	C	0.763909	-0.271216	0.054317
C105	C	0.739535	-0.324696	0.123977
C106	C	0.657364	-0.359201	0.118124
C107	C	0.599569	-0.340225	0.042610
C108	C	0.623942	-0.286742	-0.027055
C109	C	0.706112	-0.252237	-0.021202
H110	H	0.782320	-0.338746	0.179881
H111	H	0.639322	-0.398793	0.169695
H112	H	0.538741	-0.365768	0.038278
H113	H	0.581157	-0.272692	-0.082959
H114	H	0.724154	-0.212645	-0.072773
H115	H	0.834146	-0.491785	0.059308
C116	C	1.044065	-0.005791	0.265593
C117	C	1.099141	-0.064300	0.317109
C118	C	1.154216	-0.122818	0.273428
C119	C	1.154214	-0.122826	0.178231
C120	C	1.099136	-0.064314	0.126710
C121	C	1.044062	-0.005797	0.170391
H122	H	1.099144	-0.064296	0.387584
H123	H	1.194988	-0.166132	0.311568
H124	H	1.194984	-0.166144	0.145896
H125	H	1.099133	-0.064318	0.056234
H126	H	1.003289	0.037517	0.132251
C127	C	1.099390	-0.688175	0.078186
C128	C	1.114204	-0.746832	0.150632
C129	C	1.188744	-0.802025	0.155929
C130	C	1.248470	-0.798559	0.088780
C131	C	1.233657	-0.739900	0.016329
C132	C	1.159117	-0.684707	0.011032
H133	H	1.069990	-0.749400	0.200344
H134	H	1.199709	-0.845448	0.209563
H135	H	1.303649	-0.839416	0.092701
H136	H	1.277871	-0.737332	-0.033383
H137	H	1.148152	-0.641284	-0.042602
C138	C	0.711544	0.110448	0.207995
C139	C	0.695794	0.178134	0.268676
C140	C	0.741102	0.178927	0.354334
C141	C	0.802161	0.112036	0.379311
C142	C	0.817915	0.044345	0.318629
C143	C	0.772606	0.043552	0.232971
H144	H	0.650592	0.227655	0.250188
H145	H	0.729441	0.229036	0.399255
H146	H	0.835701	0.112623	0.442720
H147	H	0.863117	-0.005176	0.337117
H148	H	0.784268	-0.006558	0.188050
C149	C	0.711599	0.110426	-0.106787
C150	C	0.772637	0.043506	-0.123044
C151	C	0.817960	0.044253	-0.202261
C152	C	0.802243	0.111920	-0.265222
C153	C	0.741201	0.178845	-0.248968
C154	C	0.695879	0.178098	-0.169750
H155	H	0.784274	-0.006590	-0.076434
H156	H	0.863147	-0.005290	-0.214294
H157	H	0.835793	0.112474	-0.323864
H158	H	0.729564	0.228941	-0.295577
H159	H	0.650692	0.227641	-0.157717
H160	H	1.029767	0.009411	0.433952
H161	H	0.848100	0.202429	0.699615
C162	C	1.044094	-0.005776	0.701165
C163	C	1.099173	-0.064289	0.752674
C164	C	1.154243	-0.122805	0.708986
C165	C	1.154234	-0.122808	0.613788
C166	C	1.099153	-0.064294	0.562274
C167	C	1.044083	-0.005777	0.605963
H168	H	1.099181	-0.064288	0.823150
H169	H	1.195017	-0.166121	0.747120
H170	H	1.195000	-0.166126	0.581447
H171	H	1.099145	-0.064294	0.491798
H172	H	1.003309	0.037539	0.567828
H173	H	1.029806	0.009429	0.869537
H174	H	1.056308	-0.148445	0.075147
C175	C	0.833774	0.217619	0.432389
C176	C	0.833818	0.217667	0.527589
C177	C	0.778743	0.276184	0.571270
C178	C	0.723624	0.334654	0.519751
C179	C	0.723578	0.334609	0.424546
C180	C	0.778653	0.276091	0.380865
H181	H	0.874622	0.174382	0.565731
H182	H	0.778778	0.276218	0.641748
H183	H	0.682855	0.377972	0.552087
H184	H	0.682774	0.377893	0.386404
H185	H	0.778618	0.276058	0.310388
C186	C	0.166264	0.101417	0.240344
C187	C	0.173161	0.169459	0.302661
C188	C	0.127836	0.168709	0.381877
C189	C	0.075614	0.099917	0.398775
C190	C	0.068714	0.031871	0.336456
C191	C	0.114040	0.032620	0.257240
H192	H	0.211821	0.220387	0.290154
H193	H	0.132944	0.219082	0.428009
H194	H	0.042061	0.099363	0.457415
H195	H	0.030054	-0.019058	0.348963
H196	H	0.108932	-0.017753	0.211107
C197	C	0.413230	0.105493	-0.053094
C198	C	0.420157	0.173538	-0.114437
C199	C	0.374868	0.172795	-0.200108
C200	C	0.322651	0.104007	-0.224434
C201	C	0.315722	0.035957	-0.163089
C202	C	0.361012	0.036700	-0.077419
H203	H	0.458813	0.224464	-0.096430
H204	H	0.379997	0.223171	-0.245519
H205	H	0.289126	0.103458	-0.287852
H206	H	0.277067	-0.014968	-0.181096
H207	H	0.355882	-0.013676	-0.032007
H208	H	0.550392	0.107766	-0.096858
H209	H	0.550334	0.107738	0.175103
H210	H	1.092614	-0.525904	0.077715
H211	H	0.797841	-0.114316	0.056740
H212	H	1.031938	-0.392371	0.073372
H213	H	0.848117	0.202438	0.856624
H214	H	0.848065	0.202412	0.264032
