data_functionalizedCrystal
_audit_creation_method	'MofGen! by Chris Wilmer'
_symmetry_space_group_name_H-M	'P1'
_symmetry_Int_Tables_number	1
_symmetry_cell_setting	triclinic
loop_
_symmetry_equiv_pos_as_xyz
  x,y,z
_cell_length_a	19.288840
_cell_length_b	10.540535
_cell_length_c	17.766277
_cell_angle_alpha	89.992335
_cell_angle_beta	89.983415
_cell_angle_gamma	83.824829
loop_
_atom_site_label
_atom_site_type_symbol
_atom_site_fract_x
_atom_site_fract_y
_atom_site_fract_z
O1	O	0.922418	0.158194	-0.062722
O2	O	0.720298	0.179588	-0.062697
O3	O	0.825971	-0.015920	-0.062702
O4	O	0.816745	0.353701	-0.062716
O5	O	0.825952	-0.015930	0.062486
O6	O	0.720279	0.179578	0.062492
O7	O	0.922400	0.158184	0.062466
Cu8	Cu	0.821338	0.168880	0.073910
Cu9	Cu	0.821360	0.168892	-0.074140
O10	O	0.816726	0.353691	0.062472
C11	C	0.694407	0.178900	-0.000099
C12	C	0.617289	0.176849	-0.000089
C13	C	0.581089	0.175869	-0.068331
C14	C	0.508629	0.173929	-0.068340
C15	C	0.472374	0.172942	-0.000103
C16	C	0.508582	0.173929	0.068148
C17	C	0.581039	0.175883	0.068155
C18	C	0.362522	0.095495	0.052168
C19	C	0.290066	0.093534	0.052158
C20	C	0.248890	0.166922	-0.000123
C21	C	0.280179	0.242256	-0.052406
C22	C	0.352637	0.244210	-0.052399
C23	C	0.393806	0.170824	-0.000103
C24	C	0.134121	0.163840	-0.068379
C25	C	0.061659	0.161907	-0.068386
C26	C	0.061614	0.161895	0.068104
C27	C	0.134073	0.163840	0.068109
C28	C	0.170323	0.164807	-0.000135
C29	C	0.825270	-0.063212	-0.000108
C30	C	0.823202	-0.204114	-0.000106
C31	C	0.746048	-0.239052	-0.000102
C32	C	0.743872	-0.385604	-0.000399
C33	C	0.858433	-0.414224	-0.071478
C34	C	0.860075	-0.267496	-0.071524
C35	C	0.861175	-0.267670	0.070843
C36	C	0.857607	-0.413937	0.071768
C37	C	0.948290	0.158872	-0.000133
C38	C	1.025408	0.160922	-0.000148
C39	C	0.817427	0.400984	-0.000124
C40	C	0.819495	0.541886	-0.000131
N41	N	0.821327	0.168871	0.178040
N42	N	0.821376	0.168891	-0.178271
C43	C	0.868135	0.082343	0.217424
C44	C	0.868139	0.082337	0.296226
C45	C	0.821342	0.168881	0.335641
C46	C	0.774525	0.255416	0.296247
C47	C	0.774518	0.255411	0.217447
C48	C	0.812813	0.284537	0.460475
C49	C	0.812826	0.284544	0.539274
C50	C	0.821360	0.168896	0.578687
C51	C	0.829897	0.053237	0.539292
C52	C	0.829890	0.053232	0.460491
C53	C	0.821344	0.168896	0.421086
C54	C	0.868175	0.082354	0.703517
C55	C	0.868174	0.082347	0.782320
C56	C	0.774564	0.255437	0.782340
C57	C	0.774561	0.255434	0.703538
C58	C	0.821371	0.168894	0.664131
H59	H	0.479149	0.173133	-0.123913
C60	C	0.919619	-0.012867	0.174082
N61	N	0.958396	-0.084583	0.141435
C62	C	0.706703	-0.179458	-0.069116
N63	N	0.677071	-0.134575	-0.121101
C64	C	0.822361	-0.455132	-0.143482
N65	N	0.795187	-0.485940	-0.197714
H66	H	0.912802	-0.464212	0.076284
C67	C	0.702940	-0.423109	-0.069886
N68	N	0.672103	-0.451355	-0.122222
H69	H	0.264597	0.032186	0.094727
C70	C	0.723046	0.350610	0.339604
N71	N	0.684267	0.422308	0.372261
H72	H	0.736401	0.325874	0.185379
C73	C	0.620959	0.176930	-0.143402
N74	N	0.650991	0.177727	-0.199946
C75	C	0.468699	0.172842	0.143209
N76	N	0.438660	0.172026	0.199747
C77	C	0.021737	0.160811	0.143166
N78	N	-0.008302	0.159997	0.199705
C79	C	0.702727	-0.424332	0.068677
N80	N	0.671730	-0.453494	0.120705
C81	C	0.919657	-0.012868	0.825643
N82	N	0.958432	-0.084591	0.858274
C83	C	0.819329	-0.451740	0.143078
N84	N	0.790496	-0.480221	0.196788
H85	H	0.906256	0.011872	0.328299
H86	H	0.032186	0.161117	-0.123959
H87	H	0.610513	0.176681	0.123728
C88	C	0.407810	0.014752	0.109683
N89	N	0.441920	-0.046062	0.153002
C90	C	0.919659	-0.012852	0.660167
N91	N	0.958436	-0.084565	0.627519
H92	H	0.163548	0.164630	0.123679
H93	H	0.716412	-0.196429	0.051058
H94	H	0.378109	0.305552	-0.094968
H95	H	0.833794	-0.226721	-0.125055
C96	C	0.936484	-0.238093	-0.075648
N97	N	0.994035	-0.215952	-0.078762
C98	C	0.839272	-0.073990	0.417159
N99	N	0.846334	-0.169816	0.384522
C100	C	0.723119	0.350715	0.660213
N101	N	0.684386	0.422513	0.627582
C102	C	0.234890	0.322999	-0.109916
N103	N	0.200775	0.383813	-0.153230
C104	C	0.933654	-0.479894	-0.074807
N105	N	0.990309	-0.529360	-0.077314
C106	C	0.803428	0.411770	0.582601
N107	N	0.796345	0.507600	0.615233
H108	H	0.837092	-0.224683	0.124943
C109	C	0.937862	-0.239414	0.071771
N110	N	0.995621	-0.218124	0.072465
H111	H	0.836847	-0.040934	0.571380
H112	H	0.736458	0.325898	0.814430
H113	H	0.163636	0.164640	-0.123948
H114	H	0.805851	0.378717	0.428391
