data_functionalizedCrystal
_audit_creation_method	'MofGen! by Chris Wilmer'
_symmetry_space_group_name_H-M	'P1'
_symmetry_Int_Tables_number	1
_symmetry_cell_setting	triclinic
loop_
_symmetry_equiv_pos_as_xyz
  x,y,z
_cell_length_a	9.065215
_cell_length_b	16.109304
_cell_length_c	8.140239
_cell_angle_alpha	89.999293
_cell_angle_beta	89.997810
_cell_angle_gamma	84.238668
loop_
_atom_site_label
_atom_site_type_symbol
_atom_site_fract_x
_atom_site_fract_y
_atom_site_fract_z
O1	O	1.957453	0.121893	-0.136583
O2	O	1.527926	0.131895	-0.136589
O3	O	1.754487	0.005954	-0.136587
O4	O	1.730892	0.247835	-0.136585
O5	O	1.754475	0.005953	0.136640
O6	O	1.527914	0.131894	0.136638
O7	O	1.957441	0.121892	0.136644
Zn8	Zn	1.742675	0.126893	0.180022
Zn9	Zn	1.742692	0.126895	-0.179967
O10	O	1.730880	0.247833	0.136642
C11	C	1.472956	0.130934	0.000023
C12	C	1.309183	0.128061	0.000020
C13	C	1.753524	-0.025029	0.000023
C14	C	1.750657	-0.117346	0.000012
C15	C	1.744038	-0.329734	-0.148918
C16	C	1.741330	-0.416474	-0.148917
C17	C	1.741324	-0.416473	0.148970
C18	C	1.744022	-0.329733	0.148967
C19	C	1.745386	-0.286366	0.000018
C20	C	1.739981	-0.459847	0.000023
C21	C	1.737045	-0.553895	0.000025
C22	C	1.748320	-0.192311	0.000015
C23	C	2.012410	0.122853	0.000028
C24	C	2.176184	0.125726	0.000020
C25	C	1.731843	0.278816	0.000028
C26	C	1.734710	0.371133	0.000029
N27	N	1.742675	0.126891	0.425704
N28	N	1.742704	0.126890	-0.425649
H29	H	1.745145	-0.294426	-0.270202
N30	N	1.739971	-0.463257	-0.309554
H31	H	1.741277	-0.422621	-0.403906
H32	H	1.830283	-0.505280	-0.315965
N33	N	1.739886	-0.463251	0.309615
H34	H	1.647378	-0.493195	0.316270
H35	H	1.830237	-0.505242	0.316136
H36	H	1.745111	-0.294422	0.270256
