data_functionalizedCrystal
_audit_creation_method	'MofGen! by Chris Wilmer'
_symmetry_space_group_name_H-M	'P1'
_symmetry_Int_Tables_number	1
_symmetry_cell_setting	triclinic
loop_
_symmetry_equiv_pos_as_xyz
  x,y,z
_cell_length_a	6.817900
_cell_length_b	9.109307
_cell_length_c	10.773894
_cell_angle_alpha	101.959138
_cell_angle_beta	96.645922
_cell_angle_gamma	111.764999
loop_
_atom_site_label
_atom_site_type_symbol
_atom_site_fract_x
_atom_site_fract_y
_atom_site_fract_z
V1	V	-3.998221	-0.219011	-0.412393
O2	O	-3.934188	0.016673	-0.379755
O3	O	-4.000032	-0.440176	-0.433412
O4	O	-3.914517	-0.212944	-0.581375
O5	O	-4.020295	-0.212132	-0.230768
V6	V	-4.479918	-0.191139	-0.387773
O7	O	-4.263487	-0.280150	-0.466399
O8	O	-4.664850	-0.130000	-0.333767
O9	O	-4.254900	0.030026	-0.366754
O10	O	-4.661349	-0.426824	-0.420411
O11	O	-4.575241	-0.198019	-0.569398
O12	O	-4.340416	-0.197206	-0.218791
C13	C	-3.858390	-0.494176	-0.433058
C14	C	-3.940922	-0.674964	-0.451370
C15	C	-3.749306	-0.204317	-0.621798
C16	C	-3.762484	-0.200820	-0.760099
C17	C	-3.941935	-0.206880	-0.828610
C18	C	-3.955559	-0.203266	-0.971551
C19	C	-4.059887	0.084017	-0.367105
C20	C	-3.956592	0.264803	-0.348802
C21	C	-4.168971	-0.205839	-0.178362
C22	C	-4.135030	-0.209328	-0.040060
H23	H	-3.990619	-0.761717	-0.553227
O24	O	-3.784321	-0.193666	-1.027897
C25	C	-3.519926	-0.039330	-1.134288
C26	C	-3.713859	-0.050021	-1.070537
H27	H	-3.462870	0.076815	-1.168755
H28	H	-3.570465	-0.151433	-1.220742
H29	H	-3.382763	-0.035412	-1.060470
H30	H	-3.851100	-0.053888	-1.144256
H31	H	-3.663146	0.062079	-0.984060
O32	O	-3.897143	-0.631491	-0.227377
C33	C	-3.758178	-0.350692	-0.097772
C34	C	-3.825387	-0.467964	-0.235356
H35	H	-3.700190	-0.218458	-0.104179
H36	H	-3.622037	-0.366983	-0.038164
H37	H	-3.902718	-0.379839	-0.049115
H38	H	-3.680985	-0.438890	-0.284125
H39	H	-3.961598	-0.451650	-0.294870
O40	O	-4.113275	-0.216551	-0.772357
C41	C	-4.377495	-0.370775	-0.665814
C42	C	-4.183496	-0.360045	-0.729509
H43	H	-4.434298	-0.486763	-0.631130
H44	H	-4.514854	-0.374887	-0.739599
H45	H	-4.326847	-0.258532	-0.579472
H46	H	-4.233938	-0.472260	-0.815842
H47	H	-4.046185	-0.355853	-0.655643
O48	O	-4.306394	-0.219005	-0.983820
C49	C	-4.570635	-0.373244	-0.877297
C50	C	-4.376619	-0.362503	-0.940977
H51	H	-4.627441	-0.489235	-0.842616
H52	H	-4.707985	-0.377359	-0.951089
H53	H	-4.520004	-0.261005	-0.790953
H54	H	-4.427043	-0.474714	-1.027311
H55	H	-4.239316	-0.358309	-0.867103
H56	H	-3.618931	-0.192945	-0.807264
