data_functionalizedCrystal
_audit_creation_method	'MofGen! by Chris Wilmer'
_symmetry_space_group_name_H-M	'P1'
_symmetry_Int_Tables_number	1
_symmetry_cell_setting	triclinic
loop_
_symmetry_equiv_pos_as_xyz
  x,y,z
_cell_length_a	12.759401
_cell_length_b	16.959454
_cell_length_c	12.759393
_cell_angle_alpha	89.970996
_cell_angle_beta	89.979541
_cell_angle_gamma	90.021600
loop_
_atom_site_label
_atom_site_type_symbol
_atom_site_fract_x
_atom_site_fract_y
_atom_site_fract_z
Zn1	Zn	1.606222	-0.314616	-0.594026
Zn2	Zn	1.606098	-0.446814	-0.418349
Zn3	Zn	1.430522	-0.314657	-0.418362
Zn4	Zn	1.430496	-0.446760	-0.593986
O5	O	1.518335	-0.380712	-0.506181
O6	O	1.753227	-0.332158	-0.570734
O7	O	1.582767	-0.429322	-0.271330
O8	O	1.453892	-0.204040	-0.441686
O9	O	1.753136	-0.429283	-0.441665
O10	O	1.582978	-0.204011	-0.570746
O11	O	1.453772	-0.332227	-0.271339
O12	O	1.283498	-0.332175	-0.441647
O13	O	1.453848	-0.429191	-0.741013
O14	O	1.283479	-0.429231	-0.570678
O15	O	1.582953	-0.332106	-0.741042
O16	O	1.582742	-0.557418	-0.441626
O17	O	1.453728	-0.557378	-0.570666
C18	C	1.245367	-0.380702	-0.506160
C19	C	1.128591	-0.380717	-0.506176
C20	C	1.518247	-0.586078	-0.506163
C21	C	1.518305	-0.673934	-0.506190
C22	C	1.073746	-0.431331	-0.573257
C23	C	0.964022	-0.431334	-0.573277
C24	C	0.963997	-0.330107	-0.439128
C25	C	1.073719	-0.330100	-0.439113
C26	C	1.451255	-1.045419	-0.573365
C27	C	1.585708	-1.045401	-0.439104
C28	C	1.585671	-0.962855	-0.439094
C29	C	1.518424	-0.921587	-0.506220
C30	C	1.451214	-0.962866	-0.573355
C31	C	1.652872	-0.921570	-0.371953
C32	C	1.652837	-0.839019	-0.371940
C33	C	1.585595	-0.797750	-0.439071
C34	C	1.518383	-0.839034	-0.506210
C35	C	1.451136	-0.797767	-0.573335
C36	C	1.383928	-0.839049	-0.640480
C37	C	1.383971	-0.921597	-0.640486
C38	C	1.585552	-0.715202	-0.439065
C39	C	1.451095	-0.715213	-0.573326
C40	C	1.792368	-0.380722	-0.506202
C41	C	1.909145	-0.380726	-0.506212
C42	C	1.518411	-0.380638	-0.780214
C43	C	1.518444	-0.380607	-0.896991
C44	C	1.518452	-0.174543	-0.506222
C45	C	1.518502	-0.086687	-0.506239
C46	C	1.585639	-0.431105	-1.061584
C47	C	1.585613	-0.431143	-0.951860
C48	C	1.451288	-0.330036	-0.951852
C49	C	1.451309	-0.330003	-1.061574
C50	C	1.518319	-0.380728	-0.233213
C51	C	1.518490	-0.380537	-0.116437
H52	H	1.118420	-0.472544	-0.627866
H53	H	1.640451	-1.079005	-0.384447
C54	C	1.377439	-0.274367	-1.121917
N55	N	1.321803	-0.232465	-1.167367
C56	C	1.659505	-0.486756	-0.891526
N57	N	1.715170	-0.528641	-0.846083
H58	H	1.396539	-1.079035	-0.628035
H59	H	0.919373	-0.472547	-0.627903
H60	H	1.329253	-0.955216	-0.695151
C61	C	1.726823	-0.966969	-0.298105
N62	N	1.782523	-1.001167	-0.242477
C63	C	1.377409	-0.274438	-0.891493
N64	N	1.321768	-0.232557	-0.846031
H65	H	1.707562	-0.805412	-0.317268
H66	H	1.329171	-0.805439	-0.695130
C67	C	1.659477	-0.669795	-0.365212
N68	N	1.715165	-0.635596	-0.309585
H69	H	1.640341	-0.472254	-1.106250
H70	H	0.919307	-0.288898	-0.384526
H71	H	1.396338	-0.681618	-0.627992
C72	C	1.134051	-0.274419	-0.365315
N73	N	1.179494	-0.232480	-0.309734
