data_functionalizedCrystal
_audit_creation_method	'MofGen! by Chris Wilmer'
_symmetry_space_group_name_H-M	'P1'
_symmetry_Int_Tables_number	1
_symmetry_cell_setting	triclinic
loop_
_symmetry_equiv_pos_as_xyz
  x,y,z
_cell_length_a	15.298708
_cell_length_b	15.299816
_cell_length_c	17.077396
_cell_angle_alpha	80.343631
_cell_angle_beta	80.353222
_cell_angle_gamma	88.425743
loop_
_atom_site_label
_atom_site_type_symbol
_atom_site_fract_x
_atom_site_fract_y
_atom_site_fract_z
Zn1	Zn	1.399317	-0.116639	0.251052
Zn2	Zn	1.424552	-0.263098	0.138073
Zn3	Zn	1.252856	-0.142044	0.145650
Zn4	Zn	1.278145	-0.288407	0.295123
O5	O	1.338717	-0.202547	0.207475
O6	O	1.525231	-0.114843	0.214451
O7	O	1.401754	-0.247079	0.029240
O8	O	1.251139	-0.016126	0.144358
O9	O	1.543771	-0.222445	0.131445
O10	O	1.358743	0.002538	0.221797
O11	O	1.275609	-0.158141	0.034807
O12	O	1.133644	-0.182683	0.187092
O13	O	1.294241	-0.265583	0.399115
O14	O	1.152224	-0.290216	0.296910
O15	O	1.383265	-0.139385	0.366736
O16	O	1.426276	-0.389002	0.174179
O17	O	1.318711	-0.407597	0.289563
C18	C	1.111154	-0.241953	0.247606
C19	C	1.013805	-0.258833	0.264796
C20	C	0.700541	-0.082127	0.084837
C21	C	0.792004	-0.066263	0.068687
C22	C	0.847459	-0.114404	0.117713
C23	C	0.811441	-0.178412	0.182892
C24	C	0.719968	-0.194273	0.199047
C25	C	0.866886	-0.226550	0.231923
C26	C	0.830868	-0.290558	0.297102
C27	C	0.739404	-0.306416	0.313254
C28	C	0.683950	-0.258275	0.264229
C29	C	0.958359	-0.210689	0.215767
C30	C	0.977786	-0.322835	0.329977
C31	C	0.886323	-0.338699	0.346127
C32	C	1.378000	-0.430071	0.235844
C33	C	1.394885	-0.527392	0.247993
C34	C	1.218610	-0.840857	0.120811
C35	C	1.202741	-0.749419	0.109399
C36	C	1.250776	-0.693908	0.144046
C37	C	1.314682	-0.729843	0.190108
C38	C	1.330548	-0.821291	0.201526
C39	C	1.362714	-0.674342	0.224761
C40	C	1.426620	-0.710278	0.270823
C41	C	1.442483	-0.801717	0.282238
C42	C	1.394449	-0.857228	0.247591
C43	C	1.346848	-0.582895	0.213343
C44	C	1.458786	-0.563329	0.294058
C45	C	1.474655	-0.654767	0.305470
C46	C	1.567170	-0.162987	0.167187
C47	C	1.664522	-0.146129	0.150019
C48	C	1.338759	-0.202473	0.412202
C49	C	1.338777	-0.202442	0.499444
C50	C	1.299305	0.025869	0.179007
C51	C	1.282510	0.123207	0.166876
C52	C	1.338715	-0.202548	0.003527
C53	C	1.338824	-0.202304	-0.083775
C54	C	1.385133	-0.136726	0.523575
C55	C	1.385139	-0.136695	0.605550
C56	C	1.338793	-0.202384	0.663392
C57	C	1.292431	-0.268104	0.639257
C58	C	1.292421	-0.268130	0.557284
C59	C	1.292457	-0.268045	0.810115
C60	C	1.292468	-0.268020	0.892094
C61	C	1.385175	-0.136610	0.858381
C62	C	1.385165	-0.136636	0.776407
C63	C	1.338804	-0.202357	0.752278
H64	H	0.710081	-0.358529	0.366332
O65	O	0.847442	-0.407756	0.416396
H66	H	0.876857	-0.473415	0.408261
O67	O	0.830861	0.002763	-0.001608
H68	H	0.879281	-0.029157	-0.044071
H69	H	1.022937	-0.362032	0.369900
H70	H	1.254689	-0.321551	0.790473
O71	O	1.435156	-0.065792	0.714015
H72	H	1.467390	-0.020083	0.744564
H73	H	1.494517	-0.830973	0.319748
H74	H	0.987675	-0.158571	0.162699
O75	O	0.640738	-0.030229	0.031947
H76	H	0.571087	-0.052024	0.054124
H77	H	1.422922	-0.083096	0.878030
H78	H	1.294814	-0.553644	0.175840
O79	O	1.133832	-0.710655	0.059709
H80	H	1.103105	-0.764614	0.037524
H81	H	1.237852	-0.619455	0.134751
O82	O	1.166815	-0.900722	0.083433
H83	H	1.188592	-0.970343	0.099105
H84	H	1.254691	-0.321587	0.686360
O85	O	1.411567	-0.955853	0.259902
H86	H	1.349689	-0.991456	0.290391
O87	O	0.946110	-0.097301	0.100290
H88	H	0.981620	-0.159151	0.088302
H89	H	1.526688	-0.684039	0.342974
H90	H	0.609472	-0.271192	0.277372
H91	H	1.254727	-0.321508	0.939189
H92	H	1.497899	-0.518132	0.322273
O93	O	1.435121	-0.065875	0.461188
H94	H	1.467349	-0.020169	0.491744
O95	O	1.435143	-0.065820	0.631580
H96	H	1.467379	-0.020155	0.577586
O97	O	1.242409	-0.338999	0.531251
H98	H	1.210184	-0.384674	0.585243
