data_functionalizedCrystal
_audit_creation_method	'MofGen! by Chris Wilmer'
_symmetry_space_group_name_H-M	'P1'
_symmetry_Int_Tables_number	1
_symmetry_cell_setting	triclinic
loop_
_symmetry_equiv_pos_as_xyz
  x,y,z
_cell_length_a	15.944551
_cell_length_b	11.026607
_cell_length_c	10.065875
_cell_angle_alpha	79.268236
_cell_angle_beta	98.743338
_cell_angle_gamma	96.042377
loop_
_atom_site_label
_atom_site_type_symbol
_atom_site_fract_x
_atom_site_fract_y
_atom_site_fract_z
O1	O	-1.147764	-0.138698	-0.113343
O2	O	-0.906134	-0.157989	-0.113377
O3	O	-1.006922	0.028311	-0.113358
O4	O	-1.046975	-0.324998	-0.113362
O5	O	-0.987725	-0.007357	0.113627
O6	O	-0.886936	-0.193656	0.113609
O7	O	-1.128566	-0.174365	0.113642
Zn8	Zn	-1.004703	-0.189674	0.149664
Zn9	Zn	-1.029997	-0.142680	-0.149399
O10	O	-1.027778	-0.360665	0.113623
C11	C	-0.865120	-0.175021	0.000112
C12	C	-0.771512	-0.172617	0.000099
C13	C	-0.989935	0.055689	0.000132
C14	C	-0.967908	0.190406	0.000124
C15	C	-1.169580	-0.157333	0.000151
C16	C	-1.263189	-0.159735	0.000154
C17	C	-0.538329	-0.051402	0.000127
C18	C	-0.495283	-0.090106	-0.111789
C19	C	-0.600128	-0.168275	0.000115
C20	C	-0.476383	-0.125299	0.112000
C21	C	-0.434578	-0.164073	0.000137
C22	C	-0.558324	-0.206997	-0.111894
C23	C	-0.539418	-0.242189	0.111996
C24	C	-0.496406	-0.280974	0.000053
C25	C	-0.695497	-0.170692	0.000101
C26	C	-0.339212	-0.161664	0.000141
C27	C	-1.044765	-0.388043	0.000130
C28	C	-1.066792	-0.522759	0.000129
N29	N	-0.987447	-0.221745	0.353766
C30	C	-1.028728	0.264206	0.000131
C31	C	-1.005964	0.403443	0.000123
N32	N	-1.047258	-0.110600	-0.353501
C33	C	-1.023986	-0.153831	0.421552
C34	C	-1.010713	-0.178523	0.578717
H35	H	-0.557011	0.045616	-0.000010
Cl36	Cl	-1.087226	-0.035564	0.331523
H37	H	-0.475703	-0.025806	-0.206406
Cl38	Cl	-0.899547	0.465029	0.000094
Cl39	Cl	-1.173212	0.415663	0.000137
Cl40	Cl	-0.569677	-0.341403	0.258084
H41	H	-0.440819	-0.090712	0.206613
H42	H	-0.593789	-0.241509	-0.206613
H43	H	-0.477930	-0.378061	-0.000011
Cl44	Cl	-1.135143	0.202618	0.000137
Cl45	Cl	-0.861495	0.251997	0.000096
Cl46	Cl	-0.947235	-0.296518	0.668741
Cl47	Cl	-1.110950	0.007143	0.556478
Cl48	Cl	-0.923971	-0.339734	0.443796
