data_functionalizedCrystal
_audit_creation_method	'MofGen! by Chris Wilmer'
_symmetry_space_group_name_H-M	'P1'
_symmetry_Int_Tables_number	1
_symmetry_cell_setting	triclinic
loop_
_symmetry_equiv_pos_as_xyz
  x,y,z
_cell_length_a	19.805407
_cell_length_b	17.077402
_cell_length_c	17.077396
_cell_angle_alpha	89.970216
_cell_angle_beta	89.979457
_cell_angle_gamma	90.022883
loop_
_atom_site_label
_atom_site_type_symbol
_atom_site_fract_x
_atom_site_fract_y
_atom_site_fract_z
Zn1	Zn	-1.034759	0.312508	0.443857
Zn2	Zn	-0.534759	0.812508	0.943857
Zn3	Zn	-1.034679	0.443783	0.312588
Zn4	Zn	-0.534679	0.943783	0.812588
Zn5	Zn	-0.921571	0.312535	0.312603
Zn6	Zn	-0.421571	0.812535	0.812603
Zn7	Zn	-0.921544	0.443736	0.443810
Zn8	Zn	-0.421544	0.943736	0.943810
O9	O	-0.978138	0.378141	0.378215
O10	O	-0.478138	0.878141	0.878215
O11	O	-1.129465	0.329930	0.426458
O12	O	-0.629465	0.829930	0.926458
O13	O	-1.019653	0.426404	0.202743
O14	O	-0.519653	0.926404	0.702743
O15	O	-0.936631	0.202685	0.330040
O16	O	-0.436631	0.702685	0.830040
O17	O	-1.129406	0.426377	0.330015
O18	O	-0.629406	0.926377	0.830015
O19	O	-1.019789	0.202665	0.426472
O20	O	-0.519789	0.702665	0.926472
O21	O	-0.936553	0.329976	0.202754
O22	O	-0.436553	0.829976	0.702754
O23	O	-0.826851	0.329931	0.329994
O24	O	-0.326851	0.829931	0.829994
O25	O	-0.936584	0.426297	0.553663
O26	O	-0.436584	0.926297	1.053663
O27	O	-0.826831	0.426323	0.426391
O28	O	-0.326831	0.926323	0.926391
O29	O	-1.019763	0.329885	0.553698
O30	O	-0.519763	0.829885	1.053698
O31	O	-1.019626	0.553624	0.329969
O32	O	-0.519626	1.053624	0.829969
O33	O	-0.936506	0.553589	0.426377
O34	O	-0.436506	1.053589	0.926377
C35	C	-0.802282	0.378126	0.378189
C36	C	-0.302282	0.878126	0.878189
C37	C	-0.727050	0.378138	0.378197
C38	C	-0.227050	0.878138	0.878197
C39	C	-0.978073	0.582088	0.378183
C40	C	-0.478073	1.082088	0.878183
C41	C	-0.978107	0.669338	0.378196
C42	C	-0.478107	1.169338	0.878196
C43	C	-1.154681	0.378156	0.378241
C44	C	-0.654681	0.878156	0.878241
C45	C	-1.229913	0.378163	0.378252
C46	C	-0.729913	0.878163	0.878252
C47	C	-0.691713	0.428405	0.428310
C48	C	-0.191713	0.928405	0.928310
C49	C	-0.621025	0.428407	0.428321
C50	C	-0.121025	0.928407	0.928321
C51	C	-0.585675	0.378144	0.378215
C52	C	-0.085675	0.878144	0.878215
C53	C	-0.621017	0.327871	0.328100
C54	C	-0.121017	0.827871	0.828100
C55	C	-0.691704	0.327867	0.328093
C56	C	-0.191704	0.827867	0.828093
C57	C	-0.335943	0.327889	0.328126
C58	C	0.164057	0.827889	0.828126
C59	C	-0.265251	0.327899	0.328134
C60	C	0.234749	0.827899	0.828134
C61	C	-0.265264	0.428429	0.428353
C62	C	0.234736	0.928429	0.928353
C63	C	-0.335951	0.428424	0.428347
C64	C	0.164049	0.928424	0.928347
C65	C	-0.371287	0.378149	0.378235
C66	C	0.128713	0.878149	0.878235
C67	C	-0.447936	0.378147	0.378225
C68	C	0.052064	0.878147	0.878225
C69	C	-0.509027	0.378149	0.378220
C70	C	-0.009027	0.878149	0.878220
C71	C	-0.978179	0.378083	0.582959
C72	C	-0.478179	0.878083	1.082959
C73	C	-0.978197	0.378058	0.670209
C74	C	-0.478197	0.878058	1.170209
C75	C	-0.978222	0.173396	0.378263
C76	C	-0.478222	0.673396	0.878263
C77	C	-0.978258	0.086146	0.378284
C78	C	-0.478258	0.586146	0.878284
C79	C	-1.021431	0.710320	0.328051
C80	C	-0.521431	1.210320	0.828051
C81	C	-1.021465	0.792301	0.328071
C82	C	-0.521465	1.292301	0.828071
C83	C	-0.978169	0.833298	0.378233
C84	C	-0.478169	1.333298	0.878233
C85	C	-0.934843	0.792310	0.428384
C86	C	-0.434843	1.292310	0.928384
C87	C	-0.934813	0.710331	0.428367
C88	C	-0.434813	1.210331	0.928367
C89	C	-0.934905	0.963180	0.428414
C90	C	-0.434905	1.463180	0.928414
C91	C	-0.934933	1.045164	0.428430
C92	C	-0.434933	1.545164	0.928430
C93	C	-1.021556	1.045150	0.328117
C94	C	-0.521556	1.545150	0.828117
C95	C	-1.021527	0.963171	0.328100
C96	C	-0.521527	1.463171	0.828100
C97	C	-0.978200	0.922189	0.378251
C98	C	-0.478200	1.422189	0.878251
C99	C	-0.978136	0.378142	0.174267
C100	C	-0.478136	0.878142	0.674267
C101	C	-0.978250	0.377945	0.087017
C102	C	-0.478250	0.877945	0.587017
C103	C	-1.021509	0.327852	0.711219
C104	C	-0.521509	0.827852	1.211219
C105	C	-1.021517	0.327826	0.793199
C106	C	-0.521517	0.827826	1.293199
C107	C	-0.978216	0.378010	0.834168
C108	C	-0.478216	0.878010	1.334168
C109	C	-0.934898	0.428219	0.793153
C110	C	-0.434898	0.928219	1.293153
C111	C	-0.934887	0.428240	0.711174
C112	C	-0.434887	0.928240	1.211174
C113	C	-0.934926	0.428172	0.964023
C114	C	-0.434926	0.928172	1.464023
C115	C	-0.934937	0.428151	1.046008
C116	C	-0.434937	0.928151	1.546008
C117	C	-1.021556	0.327757	1.046048
C118	C	-0.521556	0.827757	1.546048
C119	C	-1.021545	0.327779	0.964069
C120	C	-0.521545	0.827779	1.464069
C121	C	-0.978228	0.377988	0.923059
C122	C	-0.478228	0.877988	1.423059
H123	H	-0.720490	0.469337	0.469109
H124	H	-0.220490	0.969337	0.969109
F125	F	-0.373541	0.274379	0.274794
F126	F	0.126459	0.774379	0.774794
F127	F	-1.067606	0.919540	0.274711
F128	F	-0.567606	1.419540	0.774711
F129	F	-1.067640	0.274416	0.836841
F130	F	-0.567640	0.774416	1.336841
F131	F	-0.583420	0.481908	0.481658
F132	F	-0.083420	0.981908	0.981658
F133	F	-0.888846	0.481557	1.089609
F134	F	-0.388846	0.981557	1.589609
F135	F	-0.729312	0.274364	0.274758
F136	F	-0.229312	0.774364	0.774758
F137	F	-0.888848	1.088795	0.481811
F138	F	-0.388848	1.588795	0.981811
H139	H	-1.056743	0.825665	0.287236
H140	H	-0.556743	1.325665	0.787236
F141	F	-0.888821	0.481609	0.920379
F142	F	-0.388821	0.981609	1.420379
F143	F	-0.888768	0.835944	0.481775
F144	F	-0.388768	1.335944	0.981775
F145	F	-0.888811	0.481626	0.836758
F146	F	-0.388811	0.981626	1.336758
H147	H	-0.236471	0.286964	0.287332
H148	H	0.263529	0.786964	0.787332
F149	F	-0.888793	0.919565	0.481792
F150	F	-0.388793	1.419565	0.981792
F151	F	-1.067664	1.088767	0.274737
F152	F	-0.567664	1.588767	0.774737
H153	H	-0.592229	0.286943	0.287306
H154	H	-0.092229	0.786943	0.787306
H155	H	-0.899535	0.676964	0.469202
H156	H	-0.399535	1.176964	0.969202
H157	H	-0.364730	0.469355	0.469146
H158	H	0.135270	0.969355	0.969146
F159	F	-1.067601	0.274442	0.667623
F160	F	-0.567601	0.774442	1.167623
H161	H	-1.056808	0.286918	0.930714
H162	H	-0.556808	0.786918	1.430714
F163	F	-1.067657	0.274320	1.089694
F164	F	-0.567657	0.774320	1.589694
F165	F	-0.227652	0.481936	0.481688
F166	F	0.272348	0.981936	0.981688
H167	H	-1.056685	0.676946	0.287199
H168	H	-0.556685	1.176946	0.787199
F169	F	-0.888786	0.481675	0.667529
F170	F	-0.388786	0.981675	1.167529
