data_functionalizedCrystal
_audit_creation_method	'MofGen! by Chris Wilmer'
_symmetry_space_group_name_H-M	'P1'
_symmetry_Int_Tables_number	1
_symmetry_cell_setting	triclinic
loop_
_symmetry_equiv_pos_as_xyz
  x,y,z
_cell_length_a	14.446369
_cell_length_b	20.875641
_cell_length_c	14.446369
_cell_angle_alpha	57.592924
_cell_angle_beta	90.002026
_cell_angle_gamma	62.438463
loop_
_atom_site_label
_atom_site_type_symbol
_atom_site_fract_x
_atom_site_fract_y
_atom_site_fract_z
Zr1	Zr	0.928957	0.702068	-0.158609
O2	O	0.788236	0.835886	-0.313500
O3	O	0.967181	0.568250	-0.106214
O4	O	0.974268	0.702061	-0.306408
O5	O	0.781148	0.702081	0.039023
O6	O	1.126605	0.702055	-0.306402
O7	O	0.781148	0.702076	-0.113306
O8	O	1.113927	0.462692	0.051709
O9	O	0.793827	0.941445	-0.319089
O10	O	1.103108	0.623287	-0.089799
O11	O	0.989421	0.623296	0.023878
O12	O	0.997766	0.780841	-0.211825
O13	O	0.884079	0.780849	-0.098149
Zr14	Zr	1.171917	0.702068	0.084347
Zr15	Zr	1.171917	0.702059	-0.158600
Zr16	Zr	0.928957	0.702077	0.084337
Zr17	Zr	0.937874	0.870421	-0.167522
Zr18	Zr	1.163000	0.533715	0.093260
O19	O	1.133693	0.835886	0.031951
O20	O	1.133693	0.835873	-0.313487
O21	O	0.788236	0.835900	0.031938
O22	O	1.312638	0.568250	0.239238
O23	O	1.312638	0.568237	-0.106200
O24	O	0.967181	0.568263	0.239225
O25	O	1.319726	0.702055	-0.113285
O26	O	1.126606	0.702076	0.232146
O27	O	0.974269	0.702081	0.232140
O28	O	1.319726	0.702061	0.039043
O29	O	0.986947	0.941437	-0.319081
O30	O	1.113927	0.462699	0.244819
O31	O	1.307047	0.462692	0.244826
O32	O	1.307047	0.462684	0.051716
O33	O	0.793827	0.941452	-0.125979
O34	O	0.986948	0.941445	-0.125971
O35	O	1.103108	0.623296	0.137563
O36	O	1.216795	0.623287	0.023886
O37	O	1.111453	0.780841	-0.098140
O38	O	0.997766	0.780849	0.015537
C39	C	1.039283	0.491484	-0.025983
C40	C	1.035498	0.420014	-0.022199
C41	C	1.093060	0.386432	-0.079759
C42	C	1.089505	0.319274	-0.076193
C43	C	1.028382	0.285702	-0.015073
C44	C	0.970819	0.319286	0.042495
C45	C	0.974380	0.386439	0.038935
C46	C	1.011374	0.084860	0.001944
C47	C	1.007815	0.017704	0.005497
C48	C	1.126504	0.017695	-0.113190
C49	C	1.130054	0.084853	-0.116750
C50	C	1.072495	0.118428	-0.059178
N51	N	1.024745	0.217057	-0.011429
N52	N	1.076139	0.187067	-0.062815
C53	C	0.746532	0.702080	-0.037143
C54	C	0.643389	0.702084	-0.037147
C55	C	0.430283	0.801442	-0.113747
C56	C	0.537518	0.801509	-0.114152
C57	C	0.637451	0.652723	-0.086832
C58	C	0.529715	0.653354	-0.087389
C59	C	0.530971	0.651314	0.089270
C60	C	0.637039	0.653187	0.088976
C61	C	1.354342	0.702057	-0.037119
C62	C	1.457485	0.702053	-0.037115
C63	C	1.050437	0.702057	-0.341020
C64	C	1.050437	0.702053	-0.444157
C65	C	1.061591	0.912652	-0.048280
C66	C	1.065377	0.984123	-0.052064
C67	C	1.117234	0.602694	-0.513877
C68	C	1.116918	0.602627	-0.406544
C69	C	0.929521	0.751413	-0.521335
C70	C	0.929883	0.750783	-0.628160
C71	C	1.103598	0.752822	-0.629835
C72	C	1.105999	0.750950	-0.521064
C73	C	1.050437	0.702080	0.266758
C74	C	1.050437	0.702084	0.369895
C75	C	1.343189	0.491473	-0.025971
C76	C	1.442546	0.419998	-0.022183
C77	C	1.039283	0.491496	0.277906
C78	C	1.035498	0.420029	0.384827
C79	C	1.343189	0.491484	0.277918
C80	C	1.442546	0.420014	0.384843
C81	C	0.757685	0.912652	-0.352180
C82	C	0.658328	0.984123	-0.459105
C83	C	0.757686	0.912664	-0.048292
C84	C	0.658328	0.984138	-0.052079
C85	C	1.061591	0.912641	-0.352169
C86	C	1.065376	0.984107	-0.459089
C87	C	1.429861	0.386433	-0.079757
C88	C	1.523209	0.319285	-0.076221
C89	C	1.629240	0.285698	-0.015104
C90	C	1.641923	0.319270	0.042471
C91	C	1.548576	0.386422	0.038928
C92	C	1.093064	0.386468	0.494391
C93	C	1.089503	0.319327	0.594863
C94	C	1.028382	0.285744	0.585769
C95	C	0.970809	0.319312	0.476194
C96	C	0.974364	0.386456	0.375724
C97	C	1.548559	0.386446	0.375718
C98	C	1.641925	0.319301	0.476175
C99	C	1.629276	0.285721	0.585757
C100	C	1.523252	0.319296	0.594879
C101	C	1.429888	0.386444	0.494423
C102	C	0.552316	1.017698	-0.449981
C103	C	0.458950	1.084864	-0.550439
C104	C	0.471600	1.118448	-0.660021
C105	C	0.577623	1.084869	-0.669143
C106	C	0.670986	1.017709	-0.568686
C107	C	0.671013	1.017710	0.005484
C108	C	0.577666	1.084877	0.001921
C109	C	0.471635	1.118466	-0.059200
C110	C	0.458953	1.084891	-0.116771
C111	C	0.552299	1.017730	-0.113214
C112	C	1.126508	1.017669	-0.449958
C113	C	1.130086	1.084810	-0.550412
C114	C	1.072526	1.118393	-0.659996
C115	C	1.011393	1.084825	-0.669125
C116	C	1.007821	1.017680	-0.568672
H117	H	1.173367	-0.009649	-0.160062
H118	H	0.541995	0.990358	-0.360763
N119	N	1.067786	0.551024	-0.332578
H120	H	1.067376	0.550766	-0.262468
H121	H	1.113628	0.486576	-0.306221
H122	H	1.142835	0.413804	0.501818
N123	N	0.591354	1.121094	0.064001
H124	H	0.553165	1.109431	0.124330
H125	H	0.557388	1.188489	0.005914
H126	H	1.142827	0.413766	-0.129536
N127	N	1.729990	0.213286	0.694093
H128	H	1.727092	0.157559	0.743681
H129	H	1.731241	0.236720	0.739421
H130	H	0.921046	0.291959	0.468806
N131	N	0.941899	-0.018521	0.071431
H132	H	0.882796	-0.006831	0.016384
H133	H	0.906048	0.012948	0.107367
N134	N	0.860432	0.848250	-0.562543
H135	H	0.906961	0.861084	-0.531502
H136	H	0.795226	0.857643	-0.533440
N137	N	0.344602	1.121062	-0.540592
H138	H	0.305309	1.188469	-0.581703
H139	H	0.350850	1.089521	-0.455905
N140	N	1.220039	0.710697	-0.633057
H141	H	1.239509	0.658291	-0.634726
H142	H	1.273343	0.688023	-0.561668
H143	H	1.558919	0.413742	0.085819
H144	H	1.512969	0.291945	0.684114
H145	H	0.541955	0.990398	-0.160086
N146	N	0.344587	1.121112	-0.182674
H147	H	0.332797	1.069877	-0.148821
H148	H	0.337033	1.148987	-0.267155
H149	H	0.958037	0.990362	-0.576123
N150	N	0.466966	0.693438	0.144923
H151	H	0.462794	0.646532	0.217773
H152	H	0.389703	0.745853	0.088690
H153	H	1.343571	0.413766	0.501869
N154	N	0.370895	1.190883	-0.768366
H155	H	0.301821	1.207050	-0.745947
H156	H	0.369701	1.167463	-0.813729
H157	H	1.136378	0.291931	-0.123062
N158	N	1.151620	0.283126	0.713033
H159	H	1.207767	0.215715	0.759459
H160	H	1.097752	0.294885	0.755179
H161	H	0.927490	0.413773	0.286516
H162	H	1.558879	0.413777	0.286500
N163	N	0.538124	0.852777	-0.070365
H164	H	0.468570	0.875541	-0.050632
H165	H	0.541315	0.905946	-0.132588
N166	N	0.736811	0.557107	0.170429
H167	H	0.777494	0.549576	0.235912
H168	H	0.787674	0.543925	0.126432
H169	H	0.877132	0.823703	-0.710602
N170	N	1.509516	0.283085	-0.138325
H171	H	1.428180	0.314549	-0.177567
H172	H	1.543572	0.215673	-0.080276
N173	N	1.024555	0.213323	0.694138
H174	H	1.070304	0.197160	0.764923
H175	H	1.055358	0.157642	0.697039
N176	N	1.039547	0.849803	-0.738580
H177	H	1.090207	0.861276	-0.784183
H178	H	1.009112	0.892189	-0.716522
N179	N	0.949301	0.121064	0.064043
H180	H	0.910040	0.089606	0.103299
H181	H	0.893211	0.188476	0.005992
N182	N	1.756270	0.283096	0.466321
H183	H	1.750107	0.314555	0.381657
H184	H	1.795501	0.215684	0.507517
N185	N	0.361548	0.853124	-0.070260
H186	H	0.347369	0.812616	-0.000465
H187	H	0.288682	0.908005	-0.133812
N188	N	0.591258	1.121095	-0.787338
H189	H	0.516020	1.168731	-0.849583
H190	H	0.631383	1.069811	-0.793607
H191	H	0.757304	0.990372	-0.576129
N192	N	0.465483	0.699824	-0.210424
H193	H	0.390484	0.754610	-0.235813
H194	H	0.455730	0.656233	-0.214024
N195	N	0.785371	0.981491	0.071403
H196	H	0.792978	0.953640	0.155892
H197	H	0.797088	1.032768	0.037459
N198	N	0.370960	1.190904	-0.063032
H199	H	0.395095	1.207068	-0.017284
H200	H	0.323116	1.167487	-0.028044
H201	H	0.641402	0.687003	-0.178809
H202	H	1.179825	0.112185	-0.166520
H203	H	1.173380	0.990336	-0.360738
N204	N	1.196027	1.121005	-0.540550
H205	H	1.231937	1.089544	-0.455885
H206	H	1.145118	1.188418	-0.581745
N207	N	1.076395	1.190805	-0.768336
H208	H	1.123860	1.206964	-0.745912
H209	H	0.998947	1.246491	-0.817899
N210	N	0.949313	1.121051	-0.787322
H211	H	0.960855	1.168682	-0.849564
H212	H	0.867793	1.148875	-0.797783
N213	N	0.904901	0.283070	0.108424
H214	H	0.845797	0.294759	0.053379
H215	H	0.869050	0.314548	0.144350
H216	H	0.927503	0.413783	0.085804
N217	N	0.360212	0.852855	-0.236624
H218	H	0.346009	0.812045	-0.242865
H219	H	0.400391	0.873453	-0.291753
H220	H	1.343534	0.413779	-0.129540
H221	H	0.537136	0.840469	-0.207463
H222	H	0.711847	0.579618	-0.033482
N223	N	0.559891	0.556767	-0.017871
H224	H	0.643055	0.513970	0.012994
H225	H	0.526408	0.548876	-0.069383
H226	H	0.638427	0.689177	0.126140
H227	H	0.554532	0.578099	0.146574
H228	H	1.205831	0.563900	-0.350217
H229	H	1.206367	0.563683	-0.509469
H230	H	1.195104	0.714952	-0.467738
N231	N	1.068583	0.551269	-0.509783
H232	H	1.003463	0.592075	-0.582889
H233	H	1.043170	0.530651	-0.439888
H234	H	0.887618	0.715709	-0.626035
N235	N	0.873198	0.706014	-0.450601
H236	H	0.870312	0.708818	-0.382925
H237	H	0.916145	0.640559	-0.420535
N238	N	1.048788	0.847030	-0.559949
H239	H	0.968623	0.882409	-0.607130
H240	H	1.086337	0.876626	-0.609094
N241	N	1.729917	0.213272	-0.011289
H242	H	1.705781	0.197108	-0.057038
H243	H	1.773573	0.157592	0.072057
N244	N	1.756287	0.283041	0.108387
H245	H	1.813488	0.235406	0.101892
H246	H	1.763800	0.255222	0.192850
