data_functionalizedCrystal
_audit_creation_method	'MofGen! by Chris Wilmer'
_symmetry_space_group_name_H-M	'P1'
_symmetry_Int_Tables_number	1
_symmetry_cell_setting	triclinic
loop_
_symmetry_equiv_pos_as_xyz
  x,y,z
_cell_length_a	12.759400
_cell_length_b	18.215407
_cell_length_c	18.215399
_cell_angle_alpha	90.020595
_cell_angle_beta	89.975454
_cell_angle_gamma	89.985394
loop_
_atom_site_label
_atom_site_type_symbol
_atom_site_fract_x
_atom_site_fract_y
_atom_site_fract_z
Zn1	Zn	-0.418279	-1.125124	-0.416148
Zn2	Zn	0.081721	-0.625124	0.083852
Zn3	Zn	-0.593977	-1.125054	-0.293089
Zn4	Zn	-0.093977	-0.625054	0.206911
Zn5	Zn	-0.418312	-1.002057	-0.293094
Zn6	Zn	0.081688	-0.502057	0.206906
Zn7	Zn	-0.593917	-1.002044	-0.416113
Zn8	Zn	-0.093917	-0.502044	0.083887
O9	O	-0.506121	-1.063570	-0.354611
O10	O	-0.006121	-0.563570	0.145389
O11	O	-0.441597	-1.228099	-0.399837
O12	O	0.058403	-0.728099	0.100163
O13	O	-0.570713	-1.108714	-0.190106
O14	O	-0.070713	-0.608714	0.309894
O15	O	-0.271287	-1.018416	-0.309434
O16	O	0.228713	-0.518416	0.190566
O17	O	-0.570681	-1.228048	-0.309426
O18	O	-0.070681	-0.728048	0.190574
O19	O	-0.271263	-1.108833	-0.399842
O20	O	0.228737	-0.608833	0.100158
O21	O	-0.441653	-1.018349	-0.190109
O22	O	0.058347	-0.518349	0.309891
O23	O	-0.441595	-0.899071	-0.309400
O24	O	0.058405	-0.399071	0.190600
O25	O	-0.570579	-1.018395	-0.519102
O26	O	-0.070579	-0.518395	-0.019102
O27	O	-0.570611	-0.899062	-0.399781
O28	O	-0.070611	-0.399062	0.100219
O29	O	-0.441539	-1.108821	-0.519128
O30	O	0.058461	-0.608821	-0.019128
O31	O	-0.740990	-1.108703	-0.309392
O32	O	-0.240990	-0.608703	0.190608
O33	O	-0.740946	-1.018328	-0.399776
O34	O	-0.240946	-0.518328	0.100224
C35	C	-0.506101	-0.872364	-0.354587
C36	C	-0.006101	-0.372364	0.145413
C37	C	-0.506117	-0.790565	-0.354595
C38	C	-0.006117	-0.290565	0.145405
C39	C	-0.573399	-0.602385	-0.401595
C40	C	-0.073399	-0.102385	0.098405
C41	C	-0.573401	-0.525527	-0.401603
C42	C	-0.073401	-0.025527	0.098397
C43	C	-0.438849	-0.525506	-0.307630
C44	C	0.061151	-0.025506	0.192370
C45	C	-0.438842	-0.602364	-0.307626
C46	C	0.061158	-0.102364	0.192374
C47	C	-0.506123	-0.640801	-0.354607
C48	C	-0.006123	-0.140801	0.145393
C49	C	-0.506132	-0.487085	-0.354619
C50	C	-0.006132	0.012915	0.145381
C51	C	-0.506134	-0.403752	-0.354628
C52	C	-0.006134	0.096248	0.145372
C53	C	-0.506120	-0.724140	-0.354600
C54	C	-0.006120	-0.224140	0.145400
C55	C	-0.779088	-1.063526	-0.354596
C56	C	-0.279088	-0.563526	0.145404
C57	C	-0.895865	-1.063575	-0.354614
C58	C	-0.395865	-0.563575	0.145386
C59	C	-0.950715	-1.110685	-0.307602
C60	C	-0.450715	-0.610685	0.192398
C61	C	-1.060439	-1.110731	-0.307625
C62	C	-0.560439	-0.610731	0.192375
C63	C	-1.060453	-1.016549	-0.401672
C64	C	-0.560453	-0.516549	0.098328
C65	C	-0.950731	-1.016508	-0.401653
C66	C	-0.450731	-0.516508	0.098347
C67	C	-0.895849	-1.157753	-0.260563
C68	C	-0.395849	-0.657753	0.239437
C69	C	-0.950699	-1.204866	-0.213548
C70	C	-0.450699	-0.704866	0.286452
C71	C	-1.060423	-1.204911	-0.213570
C72	C	-0.560423	-0.704911	0.286430
C73	C	-1.115297	-1.157843	-0.260609
C74	C	-0.615297	-0.657843	0.239391
C75	C	-0.232088	-1.063634	-0.354643
C76	C	0.267912	-0.563634	0.145357
C77	C	-0.115311	-1.063661	-0.354656
C78	C	0.384689	-0.563661	0.145344
C79	C	-0.506049	-1.063615	-0.546564
C80	C	-0.006049	-0.563615	-0.046564
C81	C	-0.506018	-1.063634	-0.628363
C82	C	-0.006018	-0.563634	-0.128363
C83	C	-0.506139	-0.255523	-0.354632
C84	C	-0.006139	0.244477	0.145368
C85	C	-0.506138	-0.337322	-0.354632
C86	C	-0.006138	0.162678	0.145368
C87	C	-0.438764	-1.110736	-0.816572
C88	C	0.061236	-0.610736	-0.316572
C89	C	-0.438733	-1.110744	-0.893431
C90	C	0.061267	-0.610744	-0.393431
C91	C	-0.573109	-1.016584	-0.893392
C92	C	-0.073109	-0.516584	-0.393392
C93	C	-0.573134	-1.016572	-0.816535
C94	C	-0.073134	-0.516572	-0.316535
C95	C	-0.505963	-1.063652	-0.778127
C96	C	-0.005963	-0.563652	-0.278127
C97	C	-0.505907	-1.063673	-0.931843
C98	C	-0.005907	-0.563673	-0.431843
C99	C	-0.505875	-1.063682	-1.015176
C100	C	-0.005875	-0.563682	-0.515176
C101	C	-0.505994	-1.063642	-0.694788
C102	C	-0.005994	-0.563642	-0.194788
C103	C	-0.506117	-1.063568	-0.163405
C104	C	-0.006117	-0.563568	0.336595
C105	C	-0.505852	-1.063691	-0.081606
C106	C	-0.005852	-0.563691	0.418394
H107	H	-0.628182	-0.494252	-0.439866
H108	H	-0.128182	0.005748	0.060134
H109	H	-0.384012	-1.149083	-0.924729
H110	H	0.115988	-0.649083	-0.424729
H111	H	-0.627854	-0.978226	-0.785232
H112	H	-0.127854	-0.478226	-0.285232
H113	H	-0.627800	-0.978255	-0.924673
H114	H	-0.127800	-0.478255	-0.424673
H115	H	-0.384073	-0.494201	-0.269379
H116	H	0.115927	0.005799	0.230621
H117	H	-0.906015	-1.243192	-0.175255
H118	H	-0.406015	-0.743192	0.324745
H119	H	-0.906072	-0.978147	-0.439935
H120	H	-0.406072	-0.478147	0.060065
H121	H	-0.628181	-0.633679	-0.439852
H122	H	-0.128181	-0.133679	0.060148
H123	H	-0.384066	-1.149069	-0.785302
H124	H	0.115934	-0.649069	-0.285302
H125	H	-1.105079	-1.243279	-0.175293
H126	H	-0.605079	-0.743279	0.324707
H127	H	-0.384052	-0.633643	-0.269364
H128	H	0.115948	-0.133643	0.230636
H129	H	-0.806506	-1.157719	-0.260537
H130	H	-0.306506	-0.657719	0.239463
H131	H	-1.204642	-1.157889	-0.260629
H132	H	-0.704642	-0.657889	0.239371
O133	O	-1.113917	-0.970849	-0.447289
O134	O	-0.613917	-0.470849	0.052711
C135	C	-1.222522	-0.981000	-0.437237
C136	C	-0.722522	-0.481000	0.062763
H137	H	-1.237533	-1.005141	-0.380468
H138	H	-0.737533	-0.505141	0.119532
H139	H	-1.253574	-1.020177	-0.480931
H140	H	-0.753574	-0.520177	0.019069
C141	C	-1.260497	-0.876905	-0.513644
C142	C	-0.760497	-0.376905	-0.013644
C143	C	-1.278934	-0.906550	-0.443917
C144	C	-0.778934	-0.406550	0.056083
H145	H	-1.295296	-0.830982	-0.517768
H146	H	-0.795296	-0.330982	-0.017768
H147	H	-1.187327	-0.870067	-0.520419
H148	H	-0.687327	-0.370067	-0.020419
H149	H	-1.286374	-0.909559	-0.550048
H150	H	-0.786374	-0.409559	-0.050048
H151	H	-1.253045	-0.873900	-0.407515
H152	H	-0.753045	-0.373900	0.092485
H153	H	-1.352100	-0.913380	-0.437136
H154	H	-0.852100	-0.413380	0.062864
