data_functionalizedCrystal
_audit_creation_method	'MofGen! by Chris Wilmer'
_symmetry_space_group_name_H-M	'P1'
_symmetry_Int_Tables_number	1
_symmetry_cell_setting	triclinic
loop_
_symmetry_equiv_pos_as_xyz
  x,y,z
_cell_length_a	21.295417
_cell_length_b	19.121102
_cell_length_c	19.120904
_cell_angle_alpha	90.088173
_cell_angle_beta	92.409419
_cell_angle_gamma	87.583861
loop_
_atom_site_label
_atom_site_type_symbol
_atom_site_fract_x
_atom_site_fract_y
_atom_site_fract_z
Zn1	Zn	-0.307921	1.054819	-0.442038
Zn2	Zn	0.192079	1.554819	0.057962
Zn3	Zn	-0.408895	1.059730	-0.324794
Zn4	Zn	0.091105	1.559730	0.175206
Zn5	Zn	-0.298968	0.942589	-0.319823
Zn6	Zn	0.201032	1.442589	0.180177
Zn7	Zn	-0.408472	0.937541	-0.436996
Zn8	Zn	0.091528	1.437541	0.063004
O9	O	-0.356064	0.998670	-0.380912
O10	O	0.143936	1.498670	0.119088
O11	O	-0.325240	1.153575	-0.430676
O12	O	0.174760	1.653575	0.069324
O13	O	-0.390743	1.048358	-0.226029
O14	O	0.109257	1.548358	0.273971
O15	O	-0.212069	0.957533	-0.336065
O16	O	0.287931	1.457533	0.163935
O17	O	-0.399425	1.157183	-0.344537
O18	O	0.100575	1.657183	0.155463
O19	O	-0.218647	1.039988	-0.425856
O20	O	0.281353	1.539988	0.074144
O21	O	-0.309980	0.962295	-0.222377
O22	O	0.190020	1.462295	0.277623
O23	O	-0.309570	0.843814	-0.331175
O24	O	0.190430	1.343814	0.168825
O25	O	-0.398704	0.948931	-0.535769
O26	O	0.101296	1.448931	-0.035769
O27	O	-0.390022	0.840106	-0.417262
O28	O	0.109978	1.340106	0.082738
O29	O	-0.324829	1.035094	-0.539474
O30	O	0.175171	1.535094	-0.039474
O31	O	-0.496925	1.043464	-0.339648
O32	O	0.003075	1.543464	0.160352
O33	O	-0.496614	0.953692	-0.422082
O34	O	0.003386	1.453692	0.077918
C35	C	-0.348779	0.816522	-0.373133
C36	C	0.151221	1.316522	0.126867
C37	C	-0.345678	0.738598	-0.369821
C38	C	0.154322	1.238598	0.130179
C39	C	-0.386167	0.700080	-0.413015
C40	C	0.113833	1.200080	0.086985
C41	C	-0.383245	0.626862	-0.409907
C42	C	0.116755	1.126862	0.090093
C43	C	-0.339837	0.592163	-0.363600
C44	C	0.160163	1.092163	0.136400
C45	C	-0.299344	0.630687	-0.320404
C46	C	0.200656	1.130687	0.179596
C47	C	-0.302263	0.703903	-0.323516
C48	C	0.197737	1.203903	0.176484
C49	C	-0.328921	0.371192	-0.351968
C50	C	0.171079	0.871192	0.148032
C51	C	-0.326007	0.297970	-0.348857
C52	C	0.173993	0.797970	0.151143
C53	C	-0.409907	0.294150	-0.438361
C54	C	0.090093	0.794150	0.061639
C55	C	-0.412825	0.367368	-0.441467
C56	C	0.087175	0.867368	0.058533
C57	C	-0.372330	0.405885	-0.398273
C58	C	0.127670	0.905885	0.101727
C59	C	-0.336851	0.517323	-0.360421
C60	C	0.163149	1.017323	0.139579
C61	C	-0.375313	0.480724	-0.401457
C62	C	0.124687	0.980724	0.098543
C63	C	-0.519611	0.998582	-0.380873
C64	C	-0.019611	1.498582	0.119127
C65	C	-0.589580	0.998607	-0.380883
C66	C	-0.089580	1.498607	0.119117
C67	C	-0.625815	1.041515	-0.427668
C68	C	-0.125815	1.541515	0.072332
C69	C	-0.691559	1.041539	-0.427686
C70	C	-0.191559	1.541539	0.072314
C71	C	-0.721066	0.998663	-0.380907
C72	C	-0.221066	1.498663	0.119093
C73	C	-0.684823	0.955747	-0.334118
C74	C	-0.184823	1.455747	0.165882
C75	C	-0.619080	0.955719	-0.334106
C76	C	-0.119080	1.455719	0.165894
N77	N	-0.821870	0.995988	-0.319328
N78	N	-0.321870	1.495988	0.180672
N79	N	-0.884323	0.996019	-0.319341
N80	N	-0.384323	1.496019	0.180659
C81	C	-0.919145	0.998744	-0.380942
C82	C	-0.419145	1.498744	0.119058
N83	N	-0.889155	1.001450	-0.442531
N84	N	-0.389155	1.501450	0.057469
N85	N	-0.826696	1.001423	-0.442516
N86	N	-0.326696	1.501423	0.057484
C87	C	-0.792353	0.998688	-0.380915
C88	C	-0.292353	1.498688	0.119085
C89	C	-1.026667	1.041679	-0.427751
C90	C	-0.526667	1.541679	0.072249
C91	C	-1.092413	1.041698	-0.427771
C92	C	-0.592413	1.541698	0.072229
C93	C	-1.085675	0.955911	-0.334197
C94	C	-0.585675	1.455911	0.165803
C95	C	-1.019931	0.955888	-0.334183
C96	C	-0.519931	1.455888	0.165817
C97	C	-0.990431	0.998776	-0.380960
C98	C	-0.490431	1.498776	0.119040
C99	C	-0.191880	0.998776	-0.380968
C100	C	0.308120	1.498776	0.119032
C101	C	-0.121915	0.998822	-0.380992
C102	C	0.378085	1.498822	0.119008
C103	C	-0.362718	0.990902	-0.563770
C104	C	0.137282	1.490902	-0.063770
C105	C	-0.365554	0.987591	-0.641693
C106	C	0.134446	1.487591	-0.141693
C107	C	-0.363378	1.181528	-0.388723
C108	C	0.136622	1.681528	0.111277
C109	C	-0.366495	1.259452	-0.392052
C110	C	0.133505	1.759452	0.107948
C111	C	-0.328425	1.030895	-0.680232
C112	C	0.171575	1.530895	-0.180232
C113	C	-0.331087	1.027776	-0.753448
C114	C	0.168913	1.527776	-0.253448
C115	C	-0.370881	0.981357	-0.788125
C116	C	0.129119	1.481357	-0.288125
C117	C	-0.408011	0.938049	-0.749582
C118	C	0.091989	1.438049	-0.249582
C119	C	-0.405345	0.941165	-0.676366
C120	C	0.094655	1.441165	-0.176366
C121	C	-0.380849	0.969701	-1.009092
C122	C	0.119151	1.469701	-0.509092
C123	C	-0.383513	0.966590	-1.082313
C124	C	0.116487	1.466590	-0.582313
C125	C	-0.306588	1.056317	-1.086174
C126	C	0.193412	1.556317	-0.586174
C127	C	-0.303929	1.059432	-1.012957
C128	C	0.196071	1.559432	-0.512957
C129	C	-0.341057	1.016121	-0.974420
C130	C	0.158943	1.516121	-0.474420
C131	C	-0.373604	0.978169	-0.862965
C132	C	0.126396	1.478169	-0.362965
C133	C	-0.338330	1.019305	-0.899582
C134	C	0.161670	1.519305	-0.399582
C135	C	-0.349392	1.006448	-0.198768
C136	C	0.150608	1.506448	0.301232
C137	C	-0.346385	1.009894	-0.120851
C138	C	0.153615	1.509894	0.379149
H139	H	-0.295952	0.402544	-0.316791
H140	H	0.204048	0.902544	0.183209
F141	F	-0.426338	0.585871	-0.455881
F142	F	0.073662	1.085871	0.044119
H143	H	-1.121914	1.076638	-0.465872
H144	H	-0.621914	1.576638	0.034128
H145	H	-0.305927	1.057097	-0.871344
H146	H	0.194073	1.557097	-0.371344
H147	H	-0.721067	1.076473	-0.465792
H148	H	-0.221067	1.576473	0.034208
F149	F	-0.444861	0.895073	-0.635351
F150	F	0.055139	1.395073	-0.135351
H151	H	-0.406007	0.940378	-0.891207
H152	H	0.093993	1.440378	-0.391207
F153	F	-0.716227	0.910113	-0.284336
F154	F	-0.216227	1.410113	0.215664
H155	H	-0.300854	1.063040	-0.784823
H156	H	0.199146	1.563040	-0.284823
H157	H	-0.589576	0.920778	-0.296007
H158	H	-0.089576	1.420778	0.203993
F159	F	-0.261575	1.108837	-0.976056
F160	F	0.238425	1.608837	-0.476056
H161	H	-1.002648	1.076599	-0.465842
H162	H	-0.502648	1.576599	0.034158
H163	H	-0.421516	0.728326	-0.450721
H164	H	0.078484	1.228326	0.049279
F165	F	-0.459027	0.404291	-0.490751
F166	F	0.040973	0.904291	0.009249
H167	H	-0.410653	0.508979	-0.439163
H168	H	0.089347	1.008979	0.060837
H169	H	-0.301509	0.489063	-0.322716
H170	H	0.198491	0.989063	0.177284
H171	H	-0.296023	1.068696	-0.652003
H172	H	0.203977	1.568696	-0.152003
F173	F	-0.450360	0.888643	-0.786490
F174	F	0.049640	1.388643	-0.286490
H175	H	-0.990426	0.920952	-0.296084
H176	H	-0.490426	1.420952	0.203916
F177	F	-0.453003	0.253152	-0.484327
F178	F	0.046997	0.753152	0.015673
F179	F	-1.117073	0.910277	-0.284412
F180	F	-0.617073	1.410277	0.215588
H181	H	-0.263998	0.602429	-0.282703
H182	H	0.236002	1.102429	0.217297
H183	H	-0.290652	0.269721	-0.311153
H184	H	0.209348	0.769721	0.188847
H185	H	-0.269290	0.735264	-0.288347
H186	H	0.230710	1.235264	0.211653
F187	F	-0.425867	0.917180	-1.119217
F188	F	0.074133	1.417180	-0.619217
F189	F	-0.594423	1.087156	-0.477455
F190	F	-0.094423	1.587156	0.022545
H191	H	-0.411091	0.934445	-0.977724
H192	H	0.088909	1.434445	-0.477724
F193	F	-0.267076	1.102406	-1.127193
F194	F	0.232924	1.602406	-0.627193
