data_functionalizedCrystal
_audit_creation_method	'MofGen! by Chris Wilmer'
_symmetry_space_group_name_H-M	'P1'
_symmetry_Int_Tables_number	1
_symmetry_cell_setting	triclinic
loop_
_symmetry_equiv_pos_as_xyz
  x,y,z
_cell_length_a	14.519731
_cell_length_b	19.188900
_cell_length_c	12.996460
_cell_angle_alpha	89.990587
_cell_angle_beta	90.007160
_cell_angle_gamma	96.589329
loop_
_atom_site_label
_atom_site_type_symbol
_atom_site_fract_x
_atom_site_fract_y
_atom_site_fract_z
O1	O	0.115004	-0.926571	0.085769
O2	O	0.615004	-0.426571	0.585769
O3	O	0.130533	-0.723313	0.085727
O4	O	0.630533	-0.223313	0.585727
O5	O	-0.011503	-0.830323	0.085740
O6	O	0.488497	-0.330323	0.585740
O7	O	0.257040	-0.819560	0.085756
O8	O	0.757040	-0.319560	0.585756
O9	O	-0.011512	-0.830321	-0.085394
O10	O	0.488488	-0.330321	0.414606
O11	O	0.130523	-0.723311	-0.085406
O12	O	0.630523	-0.223311	0.414594
O13	O	0.114995	-0.926569	-0.085365
O14	O	0.614995	-0.426569	0.414635
Cu15	Cu	0.122758	-0.824940	-0.101012
Cu16	Cu	0.622758	-0.324940	0.398988
Cu17	Cu	0.122769	-0.824942	0.101374
Cu18	Cu	0.622769	-0.324942	0.601374
O19	O	0.257031	-0.819558	-0.085377
O20	O	0.757031	-0.319558	0.414623
C21	C	0.130030	-0.697298	0.000155
C22	C	0.630030	-0.197298	0.500155
C23	C	0.128534	-0.619787	0.000139
C24	C	0.628534	-0.119787	0.500139
C25	C	-0.045864	-0.829818	0.000173
C26	C	0.454136	-0.329818	0.500173
C27	C	-0.148234	-0.828307	0.000172
C28	C	0.351766	-0.328307	0.500172
C29	C	0.127821	-0.583394	0.093425
C30	C	0.627821	-0.083394	0.593425
C31	C	0.126405	-0.510565	0.093436
C32	C	0.626405	-0.010565	0.593436
C33	C	0.125684	-0.474134	0.000154
C34	C	0.625684	0.025866	0.500154
C35	C	0.126403	-0.510536	-0.093145
C36	C	0.626403	-0.010536	0.406855
C37	C	0.127828	-0.583363	-0.093152
C38	C	0.627828	-0.083363	0.406848
N39	N	0.070963	-0.364915	-0.069272
N40	N	0.570963	0.135085	0.430728
N41	N	0.069607	-0.295733	-0.069259
N42	N	0.569607	0.204267	0.430741
C43	C	0.121394	-0.254711	0.000172
C44	C	0.621394	0.245289	0.500172
N45	N	0.174575	-0.285487	0.069604
N46	N	0.674575	0.214513	0.569604
N47	N	0.175926	-0.354676	0.069593
N48	N	0.675926	0.145324	0.569593
C49	C	0.124140	-0.395166	0.000152
C50	C	0.624140	0.104834	0.500152
C51	C	0.119147	-0.139348	0.093476
C52	C	0.619147	0.360652	0.593476
C53	C	0.117737	-0.066518	0.093482
C54	C	0.617737	0.433482	0.593482
C55	C	0.117725	-0.066491	-0.093101
C56	C	0.617725	0.433509	0.406899
C57	C	0.119145	-0.139319	-0.093104
C58	C	0.619145	0.360681	0.406896
C59	C	0.119851	-0.175744	0.000187
C60	C	0.619851	0.324256	0.500187
C61	C	-0.231371	-0.827079	0.000174
C62	C	0.268629	-0.327079	0.500174
C63	C	-0.335670	-0.825544	0.000181
C64	C	0.164330	-0.325544	0.500181
C65	C	-0.418801	-0.824327	0.000188
C66	C	0.081199	-0.324327	0.500188
C67	C	-0.523107	-0.822792	0.000193
C68	C	-0.023107	-0.322792	0.500193
C69	C	0.291391	-0.820064	0.000192
C70	C	0.791391	-0.320064	0.500192
C71	C	0.393762	-0.821575	0.000200
C72	C	0.893762	-0.321575	0.500200
C73	C	0.115504	0.047418	0.000201
C74	C	0.615504	0.547418	0.500201
C75	C	0.117018	-0.030092	0.000200
C76	C	0.617018	0.469908	0.500200
N77	N	0.122770	-0.824944	0.243721
N78	N	0.622770	-0.324944	0.743721
N79	N	0.122750	-0.824943	-0.243359
N80	N	0.622750	-0.324943	0.256641
C81	C	0.122761	-0.824940	0.663535
C82	C	0.622761	-0.324940	1.163535
C83	C	0.122767	-0.824939	0.546730
C84	C	0.622767	-0.324939	1.046730
C85	C	0.122765	-0.824941	0.453632
C86	C	0.622765	-0.324941	0.953632
C87	C	0.122772	-0.824941	0.336819
C88	C	0.622772	-0.324941	0.836819
H89	H	0.128396	-0.613047	0.169390
H90	H	0.628396	-0.113047	0.669390
H91	H	0.125826	-0.480927	0.169403
H92	H	0.625826	0.019073	0.669403
H93	H	0.125819	-0.480869	-0.169095
H94	H	0.625819	0.019131	0.330905
Cl95	Cl	0.116848	-0.020764	0.210768
Cl96	Cl	0.616848	0.479236	0.710768
H97	H	0.128410	-0.612994	-0.169120
H98	H	0.628410	-0.112994	0.330880
H99	H	0.119731	-0.169006	0.169439
H100	H	0.619731	0.330994	0.669439
Cl101	Cl	0.116829	-0.020698	-0.210371
Cl102	Cl	0.616829	0.479302	0.289629
Cl103	Cl	0.120036	-0.185074	-0.210386
Cl104	Cl	0.620036	0.314926	0.289614
