data_functionalizedCrystal
_audit_creation_method	'MofGen! by Chris Wilmer'
_symmetry_space_group_name_H-M	'P1'
_symmetry_Int_Tables_number	1
_symmetry_cell_setting	triclinic
loop_
_symmetry_equiv_pos_as_xyz
  x,y,z
_cell_length_a	21.295420
_cell_length_b	21.295417
_cell_length_c	21.295411
_cell_angle_alpha	89.978356
_cell_angle_beta	90.024693
_cell_angle_gamma	89.971243
loop_
_atom_site_label
_atom_site_type_symbol
_atom_site_fract_x
_atom_site_fract_y
_atom_site_fract_z
Zn1	Zn	0.962355	0.250710	0.355914
Zn2	Zn	0.962258	0.355962	0.250639
Zn3	Zn	0.857079	0.250708	0.250658
Zn4	Zn	0.857048	0.355942	0.355870
O5	O	0.909685	0.303331	0.303270
O6	O	1.050432	0.264682	0.341959
O7	O	0.948277	0.342007	0.162552
O8	O	0.871097	0.162619	0.264647
O9	O	1.050360	0.342010	0.264614
O10	O	0.948444	0.162621	0.341977
O11	O	0.871003	0.264677	0.162566
O12	O	0.768985	0.264658	0.264605
O13	O	0.871045	0.341976	0.443966
O14	O	0.768963	0.341973	0.341904
O15	O	0.948414	0.264662	0.443997
O16	O	0.948248	0.444049	0.264572
O17	O	0.870951	0.444034	0.341885
C18	C	0.746133	0.303314	0.303252
C19	C	0.676165	0.303321	0.303260
C20	C	0.176712	0.343663	0.343481
C21	C	0.242454	0.343663	0.343474
C22	C	0.275326	0.303345	0.303290
C23	C	0.242449	0.263035	0.263098
C24	C	0.176708	0.263040	0.263102
N25	N	0.378566	0.248227	0.298558
N26	N	0.441018	0.248224	0.298558
C27	C	0.473400	0.303327	0.303277
N28	N	0.440972	0.358435	0.308007
N29	N	0.378515	0.358438	0.308010
C30	C	0.346611	0.303335	0.303282
C31	C	0.577555	0.343638	0.343456
C32	C	0.643298	0.343639	0.343445
C33	C	0.643292	0.263005	0.263072
C34	C	0.577549	0.263010	0.263080
C35	C	0.544685	0.303325	0.303275
C36	C	0.909602	0.466882	0.303236
C37	C	0.909625	0.536850	0.303242
C38	C	0.909737	0.303317	0.467461
C39	C	0.909759	0.303312	0.537429
C40	C	1.073875	0.303348	0.303289
C41	C	1.143843	0.303356	0.303297
C42	C	0.909785	0.139140	0.303319
C43	C	0.909827	0.069172	0.303340
C44	C	0.949909	0.569704	0.263026
C45	C	0.949939	0.635446	0.263040
C46	C	0.909672	0.668333	0.303263
C47	C	0.869385	0.635472	0.343487
C48	C	0.869361	0.569730	0.343476
N49	N	0.854605	0.771598	0.308056
N50	N	0.854630	0.834049	0.308063
C51	C	0.909743	0.866407	0.303299
N52	N	0.964832	0.833955	0.298517
N53	N	0.964807	0.771498	0.298507
C54	C	0.909694	0.739618	0.303280
C55	C	0.950063	0.970546	0.263097
C56	C	0.950093	1.036290	0.263116
C57	C	0.869534	1.036314	0.343559
C58	C	0.869509	0.970572	0.343544
C59	C	0.909773	0.937692	0.303309
C60	C	0.909669	0.303298	0.139719
C61	C	0.909769	0.303127	0.069751
C62	C	0.950044	0.263053	0.570313
C63	C	0.950043	0.263025	0.636056
C64	C	0.909764	0.303268	0.668911
C65	C	0.869472	0.343530	0.636019
C66	C	0.869470	0.343552	0.570278
N67	N	0.904908	0.358336	0.772127
N68	N	0.904914	0.358314	0.834578
C69	C	0.909768	0.303204	0.866986
N70	N	0.914629	0.248117	0.834584
N71	N	0.914626	0.248141	0.772126
C72	C	0.909762	0.303249	0.740197
C73	C	0.950054	0.262913	0.971156
C74	C	0.950048	0.262884	1.036900
C75	C	0.869481	0.343395	1.036862
C76	C	0.869483	0.343417	0.971120
C77	C	0.909773	0.303177	0.938271
H78	H	0.269221	0.376486	0.376199
C79	C	0.825090	0.671648	0.387730
N80	N	0.791726	0.698896	0.421056
H81	H	0.982695	0.542935	0.230266
H82	H	0.982745	0.662201	0.230292
H83	H	0.982902	1.063038	0.230368
C84	C	0.825163	0.387795	0.672162
N85	N	0.791785	0.421134	0.699385
H86	H	0.836556	0.542981	0.376225
C87	C	0.994366	0.218592	1.073072
N88	N	1.027747	0.185232	1.100318
C89	C	0.825169	0.387709	0.934946
N90	N	0.791788	0.421069	0.907700
H91	H	0.982850	0.943774	0.230338
C92	C	0.825242	1.072486	0.387806
N93	N	0.791881	1.099733	0.421136
C94	C	0.825205	0.934432	0.387798
N95	N	0.791841	0.907211	0.421139
C96	C	0.825175	0.387663	1.073000
N97	N	0.791801	0.421007	1.100222
H98	H	0.550787	0.230185	0.230360
H99	H	0.982850	0.230285	0.543571
C100	C	0.278609	0.218681	0.218900
N101	N	0.305844	0.185272	0.185608
C102	C	0.679446	0.218656	0.218867
N103	N	0.706681	0.185253	0.185570
H104	H	0.982846	0.230238	0.662835
H105	H	0.550795	0.376466	0.376184
H106	H	0.149958	0.376493	0.376209
C107	C	0.825153	0.387843	0.534104
N108	N	0.791775	0.421205	0.506857
H109	H	0.982856	0.230143	0.944409
C110	C	0.679454	0.387986	0.387650
N111	N	0.706687	0.421389	0.420946
H112	H	0.149946	0.230215	0.230379
