data_functionalizedCrystal
_audit_creation_method	'MofGen! by Chris Wilmer'
_symmetry_space_group_name_H-M	'P1'
_symmetry_Int_Tables_number	1
_symmetry_cell_setting	triclinic
loop_
_symmetry_equiv_pos_as_xyz
  x,y,z
_cell_length_a	11.792253
_cell_length_b	10.654550
_cell_length_c	10.268362
_cell_angle_alpha	89.995760
_cell_angle_beta	89.988676
_cell_angle_gamma	84.341750
loop_
_atom_site_label
_atom_site_type_symbol
_atom_site_fract_x
_atom_site_fract_y
_atom_site_fract_z
O1	O	-0.159421	-1.667391	0.108425
O2	O	0.340579	-1.167391	0.608425
O3	O	-0.174610	-1.301871	0.108406
O4	O	0.325390	-0.801871	0.608406
O5	O	-0.001866	-1.493493	0.108389
O6	O	0.498134	-0.993493	0.608389
O7	O	-0.332165	-1.475769	0.108442
O8	O	0.167835	-0.975769	0.608442
O9	O	-0.001856	-1.493490	-0.108212
O10	O	0.498144	-0.993490	0.391788
O11	O	-0.174599	-1.301868	-0.108195
O12	O	0.325401	-0.801868	0.391805
O13	O	-0.159411	-1.667389	-0.108175
O14	O	0.340589	-1.167389	0.391825
Cu15	Cu	-0.167004	-1.484628	-0.127962
Cu16	Cu	0.332996	-0.984628	0.372038
Cu17	Cu	-0.167016	-1.484631	0.128193
Cu18	Cu	0.332984	-0.984631	0.628193
O19	O	-0.332154	-1.475767	-0.108158
O20	O	0.167846	-0.975767	0.391842
C21	C	0.040432	-1.492375	0.000085
C22	C	0.540432	-0.992375	0.500085
C23	C	0.166453	-1.489033	0.000072
C24	C	0.666453	-0.989033	0.500072
C25	C	-0.173489	-1.255074	0.000103
C26	C	0.326511	-0.755074	0.500103
C27	C	-0.170153	-1.115640	0.000094
C28	C	0.329847	-0.615640	0.500094
C29	C	0.268796	-1.486318	0.000065
C30	C	0.768796	-0.986318	0.500065
C31	C	0.397190	-1.482923	0.000063
C32	C	0.897190	-0.982923	0.500063
C33	C	0.625547	-1.476884	0.000122
C34	C	1.125547	-0.976884	0.500122
C35	C	0.499527	-1.480226	0.000062
C36	C	0.999527	-0.980226	0.500062
C37	C	-0.160531	-1.714185	0.000131
C38	C	0.339469	-1.214185	0.500131
C39	C	-0.163868	-1.853619	0.000148
C40	C	0.336132	-1.353619	0.500148
C41	C	-0.271861	-1.035872	0.000130
C42	C	0.228139	-0.535872	0.500130
C43	C	-0.268719	-0.904860	0.000152
C44	C	0.231281	-0.404860	0.500152
C45	C	-0.062152	-0.933397	0.000109
C46	C	0.437848	-0.433397	0.500109
C47	C	-0.065295	-1.064407	0.000077
C48	C	0.434705	-0.564407	0.500077
C49	C	-0.376719	-1.087106	0.000147
C50	C	0.123281	-0.587106	0.500147
C51	C	-0.478436	-1.007336	0.000184
C52	C	0.021564	-0.507336	0.500184
C53	C	-0.475294	-0.876324	0.000206
C54	C	0.024706	-0.376324	0.500206
C55	C	-0.370436	-0.825082	0.000191
C56	C	0.129564	-0.325082	0.500191
N57	N	-0.167016	-1.484634	0.308359
N58	N	0.332984	-0.984634	0.808359
N59	N	-0.166995	-1.484635	-0.308128
N60	N	0.333005	-0.984635	0.191872
C61	C	-0.167010	-1.484631	0.574029
C62	C	0.332990	-0.984631	1.074029
C63	C	-0.167017	-1.484629	0.426192
C64	C	0.332983	-0.984629	0.926192
H65	H	-0.379289	-1.193781	0.000135
H66	H	0.120711	-0.693781	0.500135
H67	H	0.023220	-0.891665	0.000118
H68	H	0.523220	-0.391665	0.500118
C69	C	0.046582	-1.152165	0.000041
C70	C	0.546582	-0.652165	0.500041
C71	C	0.132225	-1.145895	-0.112446
C72	C	0.632225	-0.645895	0.387554
C73	C	0.244103	-1.233655	-0.112489
C74	C	0.744103	-0.733655	0.387511
C75	C	0.270338	-1.327685	-0.000046
C76	C	0.770338	-0.827685	0.499954
C77	C	0.184693	-1.333959	0.112450
C78	C	0.684693	-0.833959	0.612450
C79	C	0.072815	-1.246199	0.112493
C80	C	0.572815	-0.746199	0.612493
H81	H	0.112806	-1.076285	-0.195691
H82	H	0.612806	-0.576285	0.304309
H83	H	0.307503	-1.229011	-0.195766
H84	H	0.807503	-0.729011	0.304234
H85	H	0.353157	-1.392651	-0.000078
H86	H	0.853157	-0.892651	0.499922
H87	H	0.204112	-1.403569	0.195695
H88	H	0.704112	-0.903569	0.695695
H89	H	0.009415	-1.250843	0.195770
H90	H	0.509415	-0.750843	0.695770
H91	H	-0.563809	-1.049067	0.000185
H92	H	-0.063809	-0.549067	0.500185
H93	H	-0.558117	-0.811378	0.000223
H94	H	-0.058117	-0.311378	0.500223
H95	H	-0.367886	-0.718401	0.000189
H96	H	0.132114	-0.218401	0.500189
