data_functionalizedCrystal
_audit_creation_method	'MofGen! by Chris Wilmer'
_symmetry_space_group_name_H-M	'P1'
_symmetry_Int_Tables_number	1
_symmetry_cell_setting	triclinic
loop_
_symmetry_equiv_pos_as_xyz
  x,y,z
_cell_length_a	16.974885
_cell_length_b	16.992695
_cell_length_c	9.130313
_cell_angle_alpha	89.998255
_cell_angle_beta	93.651792
_cell_angle_gamma	87.023153
loop_
_atom_site_label
_atom_site_type_symbol
_atom_site_fract_x
_atom_site_fract_y
_atom_site_fract_z
O1	O	1.055447	0.099901	0.003189
O2	O	0.826047	0.112635	-0.023980
O3	O	0.939827	-0.007874	-0.010493
O4	O	0.941667	0.220409	-0.010298
O5	O	0.939826	-0.007871	0.233106
O6	O	0.826046	0.112638	0.219618
O7	O	1.055446	0.099904	0.246788
Cu8	Cu	0.940746	0.106271	0.255446
Cu9	Cu	0.940747	0.106267	-0.032638
O10	O	0.941665	0.220413	0.233300
C11	C	0.796558	0.112153	0.094326
C12	C	0.708690	0.110703	0.083920
C13	C	0.937461	-0.037082	0.111026
C14	C	0.930401	-0.124119	0.110189
C15	C	0.214091	0.102515	0.010988
C16	C	0.296652	0.103878	0.020786
C17	C	0.337923	0.104566	0.158472
C18	C	0.296630	0.103885	0.286368
C19	C	0.214071	0.102517	0.276569
C20	C	0.584838	0.108653	0.202017
C21	C	0.667402	0.110024	0.211807
C22	C	0.667419	0.110015	-0.053777
C23	C	0.584858	0.108652	-0.063564
C24	C	0.543572	0.107966	0.064333
N25	N	0.422313	0.105961	0.168490
N26	N	0.459183	0.106565	0.054313
C27	C	0.998516	-0.174434	0.118258
C28	C	0.991878	-0.256213	0.117458
C29	C	0.917125	-0.287676	0.108600
C30	C	0.849005	-0.237353	0.100526
C31	C	0.855643	-0.155576	0.101316
C32	C	0.889610	-0.531243	0.105321
C33	C	0.882977	-0.613027	0.104536
C34	C	1.025851	-0.631881	0.121466
C35	C	1.032483	-0.550101	0.122264
C36	C	0.964363	-0.499786	0.114182
N37	N	0.910338	-0.371267	0.107786
N38	N	0.971150	-0.416197	0.114985
C39	C	1.084935	0.100386	0.128478
C40	C	1.172803	0.101836	0.138875
C41	C	0.944032	0.249621	0.111778
C42	C	0.951092	0.336657	0.112605
N43	N	0.940750	0.106273	0.458069
N44	N	0.940748	0.106259	-0.235261
C45	C	0.991147	0.052930	0.540695
C46	C	0.991144	0.052921	0.694031
C47	C	0.890346	0.159605	0.682102
C48	C	0.890345	0.159610	0.528768
C49	C	1.049345	-0.008661	0.547583
C50	C	1.049342	-0.008670	0.700920
H51	H	0.180493	0.101960	-0.101131
H52	H	0.551233	0.108083	0.306160
F53	F	0.340556	0.104615	0.432904
F54	F	0.340590	0.104597	-0.115330
H55	H	1.027044	-0.065436	0.745832
H56	H	0.849301	0.203039	0.461494
H57	H	0.849307	0.203029	0.739682
F58	F	0.803410	-0.646509	0.095115
H59	H	0.788139	-0.262976	0.093304
H60	H	0.800177	-0.114609	0.094745
H61	H	0.701042	0.110572	-0.157902
F62	F	1.027423	-0.087262	0.490587
H63	H	1.110801	0.004173	0.749814
F64	F	0.711325	0.110756	0.358358
F65	F	1.125693	0.015578	0.494453
F66	F	1.112046	-0.516623	0.131655
H67	H	0.180455	0.101972	0.380708
F68	F	0.540939	0.107919	-0.210108
H69	H	1.059388	-0.148825	0.125481
H70	H	1.081310	-0.672856	0.128043
F71	F	1.064376	-0.309760	0.126049
H72	H	0.834142	-0.490286	0.098741
