data_functionalizedCrystal
_audit_creation_method	'MofGen! by Chris Wilmer'
_symmetry_space_group_name_H-M	'P1'
_symmetry_Int_Tables_number	1
_symmetry_cell_setting	triclinic
loop_
_symmetry_equiv_pos_as_xyz
  x,y,z
_cell_length_a	18.050590
_cell_length_b	19.120786
_cell_length_c	18.050582
_cell_angle_alpha	92.465003
_cell_angle_beta	89.999233
_cell_angle_gamma	92.454965
loop_
_atom_site_label
_atom_site_type_symbol
_atom_site_fract_x
_atom_site_fract_y
_atom_site_fract_z
Zn1	Zn	1.122683	-0.279875	0.406968
Zn2	Zn	1.372683	-0.029875	0.656968
Zn3	Zn	1.622683	0.220125	0.906968
Zn4	Zn	1.872683	0.470125	1.156968
Zn5	Zn	1.117303	-0.397324	0.277476
Zn6	Zn	1.367303	-0.147324	0.527476
Zn7	Zn	1.617303	0.102676	0.777476
Zn8	Zn	1.867303	0.352676	1.027476
Zn9	Zn	0.998503	-0.279863	0.282826
Zn10	Zn	1.248503	-0.029863	0.532826
Zn11	Zn	1.498503	0.220137	0.782826
Zn12	Zn	1.748503	0.470137	1.032826
Zn13	Zn	0.993162	-0.397273	0.401660
Zn14	Zn	1.243162	-0.147273	0.651660
Zn15	Zn	1.493162	0.102727	0.901660
Zn16	Zn	1.743162	0.352727	1.151660
O17	O	1.057913	-0.338584	0.342232
O18	O	1.307913	-0.088584	0.592232
O19	O	1.557913	0.161416	0.842232
O20	O	1.807913	0.411416	1.092232
O21	O	1.225893	-0.295481	0.389772
O22	O	1.475893	-0.045481	0.639772
O23	O	1.725893	0.204519	0.889772
O24	O	1.975893	0.454519	1.139772
O25	O	1.101527	-0.381759	0.174260
O26	O	1.351527	-0.131759	0.424260
O27	O	1.601527	0.118241	0.674260
O28	O	1.851527	0.368241	0.924260
O29	O	1.019463	-0.181576	0.303754
O30	O	1.269463	0.068424	0.553754
O31	O	1.519463	0.318424	0.803754
O32	O	1.769463	0.568424	1.053754
O33	O	1.221940	-0.381770	0.294635
O34	O	1.471940	-0.131770	0.544635
O35	O	1.721940	0.118230	0.794635
O36	O	1.971940	0.368230	1.044635
O37	O	1.110698	-0.181584	0.394960
O38	O	1.360698	0.068416	0.644960
O39	O	1.610698	0.318416	0.894960
O40	O	1.860698	0.568416	1.144960
O41	O	1.014246	-0.295462	0.178191
O42	O	1.264246	-0.045462	0.428191
O43	O	1.514246	0.204538	0.678191
O44	O	1.764246	0.454538	0.928191
O45	O	0.893871	-0.295412	0.298608
O46	O	1.143871	-0.045412	0.548608
O47	O	1.393871	0.204588	0.798608
O48	O	1.643871	0.454588	1.048608
O49	O	1.010359	-0.381683	0.506290
O50	O	1.260359	-0.131683	0.756290
O51	O	1.510359	0.118317	1.006290
O52	O	1.760359	0.368317	1.256290
O53	O	0.889947	-0.381672	0.385915
O54	O	1.139947	-0.131672	0.635915
O55	O	1.389947	0.118328	0.885915
O56	O	1.639947	0.368328	1.135915
O57	O	1.105518	-0.295431	0.510189
O58	O	1.355518	-0.045431	0.760189
O59	O	1.605518	0.204569	1.010189
O60	O	1.855518	0.454569	1.260189
O61	O	1.096348	-0.495606	0.289489
O62	O	1.346348	-0.245606	0.539489
O63	O	1.596348	0.004394	0.789489
O64	O	1.846348	0.254394	1.039489
O65	O	1.005142	-0.495569	0.380727
O66	O	1.255142	-0.245569	0.630727
O67	O	1.505142	0.004431	0.880727
O68	O	1.755142	0.254431	1.130727
C69	C	0.864963	-0.338536	0.342267
C70	C	1.114963	-0.088536	0.592267
C71	C	1.364963	0.161464	0.842267
C72	C	1.614963	0.411464	1.092267
C73	C	0.782417	-0.338532	0.342298
C74	C	1.032417	-0.088532	0.592298
C75	C	1.282417	0.161468	0.842298
C76	C	1.532417	0.411468	1.092298
C77	C	0.580848	-0.385575	0.389652
C78	C	0.830848	-0.135575	0.639652
C79	C	1.080848	0.114425	0.889652
C80	C	1.330848	0.364425	1.139652
C81	C	0.534340	-0.321532	0.410818
C82	C	0.784340	-0.071532	0.660818
C83	C	1.034340	0.178468	0.910818
C84	C	1.284340	0.428468	1.160818
C85	C	0.631285	-0.338571	0.342260
C86	C	0.881285	-0.088571	0.592260
C87	C	1.131285	0.161429	0.842260
C88	C	1.381285	0.411429	1.092260
C89	C	0.530710	-0.402651	0.321091
C90	C	0.780710	-0.152651	0.571091
C91	C	1.030710	0.097349	0.821091
C92	C	1.280710	0.347349	1.071091
C93	C	0.485298	-0.338615	0.342224
C94	C	0.735298	-0.088615	0.592224
C95	C	0.985298	0.161385	0.842224
C96	C	1.235298	0.411385	1.092224
C97	C	0.585866	-0.274494	0.363463
C98	C	0.835866	-0.024494	0.613463
C99	C	1.085866	0.225506	0.863463
C100	C	1.335866	0.475506	1.113463
C101	C	0.582238	-0.355657	0.273703
C102	C	0.832238	-0.105657	0.523703
C103	C	1.082238	0.144343	0.773703
C104	C	1.332238	0.394343	1.023703
C105	C	0.535754	-0.291570	0.294846
C106	C	0.785754	-0.041570	0.544846
C107	C	1.035754	0.208430	0.794846
C108	C	1.285754	0.458430	1.044846
C109	C	0.715384	-0.338547	0.342282
C110	C	0.965384	-0.088547	0.592282
C111	C	1.215384	0.161453	0.842282
C112	C	1.465384	0.411453	1.092282
C113	C	0.401201	-0.338632	0.342202
C114	C	0.651201	-0.088632	0.592202
C115	C	0.901201	0.161368	0.842202
C116	C	1.151201	0.411368	1.092202
C117	C	1.049602	-0.521073	0.333967
C118	C	1.299602	-0.271073	0.583967
C119	C	1.549602	-0.021073	0.833967
C120	C	1.799602	0.228927	1.083967
C121	C	1.046114	-0.599142	0.330457
C122	C	1.296114	-0.349142	0.580457
C123	C	1.546114	-0.099142	0.830457
C124	C	1.796114	0.150858	1.080457
C125	C	1.091941	-0.635763	0.376332
C126	C	1.341941	-0.385763	0.626332
C127	C	1.591941	-0.135763	0.876332
C128	C	1.841941	0.114237	1.126332
C129	C	1.088661	-0.709118	0.373034
C130	C	1.338661	-0.459118	0.623034
C131	C	1.588661	-0.209118	0.873034
C132	C	1.838661	0.040882	1.123034
C133	C	1.039557	-0.745850	0.323857
C134	C	1.289557	-0.495850	0.573857
C135	C	1.539557	-0.245850	0.823857
C136	C	1.789557	0.004150	1.073857
C137	C	0.993725	-0.709224	0.277980
C138	C	1.243725	-0.459224	0.527980
C139	C	1.493725	-0.209224	0.777980
C140	C	1.743725	0.040776	1.027980
C141	C	0.997002	-0.635871	0.281282
C142	C	1.247002	-0.385871	0.531282
C143	C	1.497002	-0.135871	0.781282
C144	C	1.747002	0.114129	1.031282
C145	C	1.027285	-0.967333	0.311513
C146	C	1.277285	-0.717333	0.561513
C147	C	1.527285	-0.467333	0.811513
C148	C	1.777285	-0.217333	1.061513
C149	C	1.024014	-1.040691	0.308213
C150	C	1.274014	-0.790691	0.558213
C151	C	1.524014	-0.540691	0.808213
C152	C	1.774014	-0.290691	1.058213
C153	C	1.118949	-1.040580	0.403269
C154	C	1.368949	-0.790580	0.653269
C155	C	1.618949	-0.540580	0.903269
C156	C	1.868949	-0.290580	1.153269
C157	C	1.122225	-0.967226	0.406563
C158	C	1.372225	-0.717226	0.656563
C159	C	1.622225	-0.467226	0.906563
C160	C	1.872225	-0.217226	1.156563
C161	C	1.076390	-0.930606	0.360689
C162	C	1.326390	-0.680606	0.610689
C163	C	1.576390	-0.430606	0.860689
C164	C	1.826390	-0.180606	1.110689
C165	C	1.036205	-0.820831	0.320483
C166	C	1.286205	-0.570831	0.570483
C167	C	1.536205	-0.320831	0.820483
C168	C	1.786205	-0.070831	1.070483
C169	C	1.079739	-0.855627	0.364067
C170	C	1.329739	-0.605627	0.614067
C171	C	1.579739	-0.355627	0.864067
C172	C	1.829739	-0.105627	1.114067
C173	C	1.251616	-0.338632	0.342199
C174	C	1.501616	-0.088632	0.592199
C175	C	1.751616	0.161368	0.842199
C176	C	2.001616	0.411368	1.092199
C177	C	1.334161	-0.338653	0.342184
C178	C	1.584161	-0.088653	0.592184
C179	C	1.834161	0.161347	0.842184
C180	C	2.084161	0.411347	1.092184
C181	C	1.057943	-0.338553	0.535939
C182	C	1.307943	-0.088553	0.785939
C183	C	1.557943	0.161447	1.035939
C184	C	1.807943	0.411447	1.285939
C185	C	1.057956	-0.338539	0.618486
C186	C	1.307956	-0.088539	0.868486
C187	C	1.557956	0.161461	1.118486
C188	C	1.807956	0.411461	1.368486
C189	C	1.066277	-0.155382	0.350546
C190	C	1.316277	0.094618	0.600546
C191	C	1.566277	0.344618	0.850546
C192	C	1.816277	0.594618	1.100546
C193	C	1.069841	-0.077312	0.354089
C194	C	1.319841	0.172688	0.604089
C195	C	1.569841	0.422688	0.854089
C196	C	1.819841	0.672688	1.104089
C197	C	1.057927	-0.338564	0.149281
C198	C	1.307927	-0.088564	0.399281
C199	C	1.557927	0.161436	0.649281
C200	C	1.807927	0.411436	0.899281
C201	C	1.058067	-0.338379	0.066744
C202	C	1.308067	-0.088379	0.316744
C203	C	1.558067	0.161621	0.566744
C204	C	1.808067	0.411621	0.816744
C205	C	1.006250	-0.385379	0.815819
C206	C	1.256250	-0.135379	1.065819
C207	C	1.506250	0.114621	1.315819
C208	C	1.756250	0.364621	1.565819
C209	C	1.073231	-0.402560	0.864416
C210	C	1.323231	-0.152560	1.114416
C211	C	1.573231	0.097440	1.364416
C212	C	1.823231	0.347440	1.614416
C213	C	1.057995	-0.338486	0.769619
C214	C	1.307995	-0.088486	1.019619
C215	C	1.557995	0.161514	1.269619
C216	C	1.807995	0.411514	1.519619
C217	C	0.991052	-0.321285	0.868104
C218	C	1.241052	-0.071285	1.118104
C219	C	1.491052	0.178715	1.368104
C220	C	1.741052	0.428715	1.618104
C221	C	1.058027	-0.338435	0.915606
C222	C	1.308027	-0.088435	1.165606
C223	C	1.558027	0.161565	1.415606
C224	C	1.808027	0.411565	1.665606
C225	C	1.125011	-0.355700	0.817127
C226	C	1.375011	-0.105700	1.067127
C227	C	1.625011	0.144300	1.317127
C228	C	1.875011	0.394300	1.567127
C229	C	1.042788	-0.274395	0.820812
C230	C	1.292788	-0.024395	1.070812
C231	C	1.542788	0.225605	1.320812
C232	C	1.792788	0.475605	1.570812
C233	C	1.109817	-0.291552	0.869388
C234	C	1.359817	-0.041552	1.119388
C235	C	1.609817	0.208448	1.369388
C236	C	1.859817	0.458448	1.619388
C237	C	1.057976	-0.338517	0.685519
C238	C	1.307976	-0.088517	0.935519
C239	C	1.557976	0.161483	1.185519
C240	C	1.807976	0.411483	1.435519
C241	C	1.058054	-0.338404	0.999704
C242	C	1.308054	-0.088404	1.249704
C243	C	1.558054	0.161596	1.499704
C244	C	1.808054	0.411596	1.749704
H245	H	0.609908	-0.220305	0.381418
H246	H	0.859908	0.029695	0.631418
H247	H	1.109908	0.279695	0.881418
H248	H	1.359908	0.529695	1.131418
Br249	Br	0.934802	-0.586169	0.219023
Br250	Br	1.184802	-0.336169	0.469023
Br251	Br	1.434802	-0.086169	0.719023
Br252	Br	1.684802	0.163831	0.969023
Br253	Br	0.502864	-0.225277	0.228023
Br254	Br	0.752864	0.024723	0.478023
Br255	Br	1.002864	0.274723	0.728023
Br256	Br	1.252864	0.524723	0.978023
H257	H	0.513276	-0.307095	0.468780
H258	H	0.763276	-0.057095	0.718780
H259	H	1.013276	0.192905	0.968780
H260	H	1.263276	0.442905	1.218780
H261	H	0.506573	-0.456824	0.303204
H262	H	0.756573	-0.206824	0.553204
H263	H	1.006573	0.043176	0.803204
H264	H	1.256573	0.293176	1.053204
H265	H	1.153638	-0.251875	0.892704
H266	H	1.403638	-0.001875	1.142704
H267	H	1.653638	0.248125	1.392704
H268	H	1.903638	0.498125	1.642704
Br269	Br	1.021284	-0.184119	0.788698
Br270	Br	1.271284	0.065881	1.038698
Br271	Br	1.521284	0.315881	1.288698
Br272	Br	1.771284	0.565881	1.538698
H273	H	1.131930	-0.605861	0.416374
H274	H	1.381930	-0.355861	0.666374
H275	H	1.631930	-0.105861	0.916374
H276	H	1.881930	0.144139	1.166374
H277	H	1.119717	-0.825717	0.404110
H278	H	1.369717	-0.575717	0.654110
H279	H	1.619717	-0.325717	0.904110
H280	H	1.869717	-0.075717	1.154110
Br281	Br	0.896674	-0.297071	0.905384
Br282	Br	1.146674	-0.047071	1.155384
Br283	Br	1.396674	0.202929	1.405384
Br284	Br	1.646674	0.452929	1.655384
Br285	Br	1.150845	-0.758816	0.435309
Br286	Br	1.400845	-0.508816	0.685309
Br287	Br	1.650845	-0.258816	0.935309
Br288	Br	1.900845	-0.008816	1.185309
Br289	Br	0.613972	-0.451714	0.456528
Br290	Br	0.863972	-0.201714	0.706528
Br291	Br	1.113972	0.048286	0.956528
Br292	Br	1.363972	0.298286	1.206528
Br293	Br	0.617344	-0.379736	0.177105
Br294	Br	0.867344	-0.129736	0.427105
Br295	Br	1.117344	0.120264	0.677105
Br296	Br	1.367344	0.370264	0.927105
Br297	Br	1.188869	-0.917380	0.473305
Br298	Br	1.438869	-0.667380	0.723305
Br299	Br	1.688869	-0.417380	0.973305
Br300	Br	1.938869	-0.167380	1.223305
Br301	Br	1.181148	-1.090282	0.465525
Br302	Br	1.431148	-0.840282	0.715525
Br303	Br	1.681148	-0.590282	0.965525
Br304	Br	1.931148	-0.340282	1.215525
Br305	Br	0.933374	-0.451557	0.776725
Br306	Br	1.183374	-0.201557	1.026725
Br307	Br	1.433374	0.048443	1.276725
Br308	Br	1.683374	0.298443	1.526725
Br309	Br	0.957373	-1.090542	0.241463
Br310	Br	1.207373	-0.840542	0.491463
Br311	Br	1.457373	-0.590542	0.741463
Br312	Br	1.707373	-0.340542	0.991463
H313	H	0.989966	-0.937523	0.274159
H314	H	1.239966	-0.687523	0.524159
H315	H	1.489966	-0.437523	0.774159
H316	H	1.739966	-0.187523	1.024159
Br317	Br	0.927073	-0.759074	0.211248
Br318	Br	1.177073	-0.509074	0.461248
Br319	Br	1.427073	-0.259074	0.711248
Br320	Br	1.677073	-0.009074	0.961248
Br321	Br	0.969559	-0.870687	0.253751
Br322	Br	1.219559	-0.620687	0.503751
Br323	Br	1.469559	-0.370687	0.753751
Br324	Br	1.719559	-0.120687	1.003751
H325	H	1.086113	-0.456738	0.883666
H326	H	1.336113	-0.206738	1.133666
H327	H	1.586113	0.043262	1.383666
H328	H	1.836113	0.293262	1.633666
Br329	Br	1.219413	-0.380024	0.780004
Br330	Br	1.469413	-0.130024	1.030004
Br331	Br	1.719413	0.119976	1.280004
Br332	Br	1.969413	0.369976	1.530004
