data_functionalizedCrystal
_audit_creation_method	'MofGen! by Chris Wilmer'
_symmetry_space_group_name_H-M	'P1'
_symmetry_Int_Tables_number	1
_symmetry_cell_setting	triclinic
loop_
_symmetry_equiv_pos_as_xyz
  x,y,z
_cell_length_a	6.394984
_cell_length_b	16.992694
_cell_length_c	15.455313
_cell_angle_alpha	92.857794
_cell_angle_beta	92.744371
_cell_angle_gamma	91.418212
loop_
_atom_site_label
_atom_site_type_symbol
_atom_site_fract_x
_atom_site_fract_y
_atom_site_fract_z
O1	O	0.435072	-1.048119	-0.072017
O2	O	0.430202	-0.819786	-0.072043
O3	O	0.129113	-0.937196	-0.072027
O4	O	0.736160	-0.930709	-0.072033
O5	O	0.146255	-0.930481	0.072234
O6	O	0.447344	-0.813072	0.072219
O7	O	0.452214	-1.041404	0.072244
Cu8	Cu	0.451344	-0.926625	0.085404
Cu9	Cu	0.431072	-0.934566	-0.085202
O10	O	0.753302	-0.923995	0.072228
C11	C	0.432511	-0.787155	0.000085
C12	C	0.413829	-0.699927	0.000075
C13	C	1.059651	-0.932548	0.000106
C14	C	0.822760	-0.928640	0.000104
C15	C	0.449904	-1.074036	0.000115
C16	C	0.468586	-1.161264	0.000119
N17	N	0.465602	-0.921045	0.205398
N18	N	0.416798	-0.940151	-0.205197
C19	C	0.594077	-0.651466	0.000074
C20	C	0.576513	-0.569505	0.000086
C21	C	0.378698	-0.536007	0.000093
C22	C	0.198437	-0.584474	0.000097
C23	C	0.216003	-0.666433	0.000091
C24	C	0.305891	-0.291690	0.000117
C25	C	0.288338	-0.209725	0.000120
C26	C	0.666416	-0.194761	0.000111
C27	C	0.683965	-0.276723	0.000100
C28	C	0.503704	-0.325182	0.000108
N29	N	0.360740	-0.452231	0.000103
N30	N	0.521665	-0.408957	0.000105
C31	C	0.337742	-0.970943	0.250799
C32	C	0.348546	-0.966731	0.341607
C33	C	0.487221	-0.912624	0.387011
C34	C	0.615085	-0.862721	0.341604
C35	C	0.604270	-0.866930	0.250799
C36	C	0.533847	-0.894457	0.658590
C37	C	0.544658	-0.890253	0.749402
C38	C	0.278114	-0.994263	0.749398
C39	C	0.267319	-0.998470	0.658591
C40	C	0.395176	-0.948564	0.613192
N41	N	0.498271	-0.908319	0.479831
N42	N	0.384114	-0.952866	0.520374
H43	H	0.755159	-0.678733	0.000068
H44	H	0.127245	-0.182454	0.000125
Cl45	Cl	0.932655	-0.318828	0.000085
Cl46	Cl	0.893014	-0.133837	0.000104
Cl47	Cl	0.803122	-0.508587	0.000079
Cl48	Cl	0.187803	-1.029460	0.398683
Cl49	Cl	0.694586	-0.831723	0.601523
H50	H	0.159109	-0.331136	0.000124
Cl51	Cl	-0.050246	-0.542362	0.000111
H52	H	0.069226	-0.705889	0.000091
H53	H	0.708384	-0.826297	0.213834
Cl54	Cl	0.163408	-1.038971	0.193728
Cl55	Cl	0.789413	-0.794696	0.398683
Cl56	Cl	0.092986	-1.066491	0.601510
H57	H	0.174016	-1.034893	0.786371
H58	H	0.657592	-0.846191	0.786367
