data_functionalizedCrystal
_audit_creation_method	'MofGen! by Chris Wilmer'
_symmetry_space_group_name_H-M	'P1'
_symmetry_Int_Tables_number	1
_symmetry_cell_setting	triclinic
loop_
_symmetry_equiv_pos_as_xyz
  x,y,z
_cell_length_a	18.215407
_cell_length_b	18.101397
_cell_length_c	18.215407
_cell_angle_alpha	90.014899
_cell_angle_beta	90.007301
_cell_angle_gamma	90.017925
loop_
_atom_site_label
_atom_site_type_symbol
_atom_site_fract_x
_atom_site_fract_y
_atom_site_fract_z
Zn1	Zn	1.125025	-0.295002	0.416044
Zn2	Zn	1.458358	0.038331	0.749378
Zn3	Zn	1.791691	0.371664	1.082711
Zn4	Zn	1.124963	-0.418815	0.292972
Zn5	Zn	1.458297	-0.085481	0.626306
Zn6	Zn	1.791630	0.247852	0.959639
Zn7	Zn	1.001978	-0.294986	0.292998
Zn8	Zn	1.335311	0.038347	0.626331
Zn9	Zn	1.668645	0.371681	0.959665
Zn10	Zn	1.001933	-0.418801	0.416003
Zn11	Zn	1.335266	-0.085468	0.749337
Zn12	Zn	1.668599	0.247866	1.082670
O13	O	1.063475	-0.356901	0.354504
O14	O	1.396808	-0.023568	0.687838
O15	O	1.730141	0.309766	1.021171
O16	O	1.228001	-0.311439	0.399725
O17	O	1.561334	0.021894	0.733058
O18	O	1.894668	0.355228	1.066391
O19	O	1.108642	-0.402388	0.189991
O20	O	1.441976	-0.069054	0.523325
O21	O	1.775309	0.264279	0.856658
O22	O	1.018345	-0.191355	0.309348
O23	O	1.351678	0.141978	0.642682
O24	O	1.685012	0.475311	0.976015
O25	O	1.227956	-0.402403	0.309304
O26	O	1.561289	-0.069070	0.642638
O27	O	1.894622	0.264263	0.975971
O28	O	1.108747	-0.191367	0.399750
O29	O	1.442080	0.141966	0.733083
O30	O	1.775414	0.475299	1.066416
O31	O	1.018285	-0.311411	0.190010
O32	O	1.351619	0.021922	0.523344
O33	O	1.684952	0.355255	0.856677
O34	O	0.898988	-0.311398	0.309309
O35	O	1.232321	0.021935	0.642642
O36	O	1.565654	0.355269	0.975975
O37	O	1.018268	-0.402380	0.518993
O38	O	1.351601	-0.069047	0.852326
O39	O	1.684935	0.264287	1.185660
O40	O	0.898954	-0.402364	0.399680
O41	O	1.232288	-0.069031	0.733013
O42	O	1.565621	0.264302	1.066347
O43	O	1.108703	-0.311426	0.519023
O44	O	1.442036	0.021908	0.852356
O45	O	1.775370	0.355241	1.185690
O46	O	1.108598	-0.522446	0.309265
O47	O	1.441932	-0.189113	0.642598
O48	O	1.775265	0.144221	0.975931
O49	O	1.018208	-0.522436	0.399655
O50	O	1.351542	-0.189102	0.732989
O51	O	1.684875	0.144231	1.066322
C52	C	0.872268	-0.356878	0.354493
C53	C	1.205602	-0.023545	0.687827
C54	C	1.538935	0.309788	1.021160
C55	C	0.790470	-0.356887	0.354506
C56	C	1.123803	-0.023553	0.687839
C57	C	1.457136	0.309780	1.021172
C58	C	1.063412	-0.549312	0.354469
C59	C	1.396745	-0.215978	0.687802
C60	C	1.730078	0.117355	1.021135
C61	C	1.063452	-0.631626	0.354478
C62	C	1.396785	-0.298292	0.687812
C63	C	1.730119	0.035041	1.021145
C64	C	0.525414	-0.404345	0.401496
C65	C	0.858747	-0.071012	0.734830
C66	C	1.192081	0.262322	1.068163
C67	C	0.602273	-0.404339	0.401493
C68	C	0.935606	-0.071005	0.734826
C69	C	1.268939	0.262328	1.068159
C70	C	0.602277	-0.309474	0.307526
C71	C	0.935610	0.023859	0.640859
C72	C	1.268943	0.357193	0.974192
C73	C	0.525419	-0.309484	0.307526
C74	C	0.858753	0.023849	0.640859
C75	C	1.192086	0.357182	0.974193
C76	C	0.486990	-0.356919	0.354516
C77	C	0.820323	-0.023586	0.687849
C78	C	1.153657	0.309748	1.021182
C79	C	0.640706	-0.356902	0.354512
C80	C	0.974039	-0.023569	0.687845
C81	C	1.307373	0.309765	1.021178
C82	C	0.724040	-0.356895	0.354507
C83	C	1.057373	-0.023561	0.687841
C84	C	1.390706	0.309772	1.021174
C85	C	0.403651	-0.356927	0.354519
C86	C	0.736984	-0.023594	0.687852
C87	C	1.070318	0.309739	1.021186
C88	C	1.063546	-0.930717	0.354545
C89	C	1.396879	-0.597383	0.687879
C90	C	1.730213	-0.264050	1.021212
C91	C	1.120258	-0.899367	0.297522
C92	C	1.453592	-0.566034	0.630855
C93	C	1.786925	-0.232700	0.964188
C94	C	1.120455	-0.813748	0.297669
C95	C	1.453788	-0.480415	0.631003
C96	C	1.787122	-0.147082	0.964336
C97	C	1.063499	-0.782334	0.354511
C98	C	1.396833	-0.449001	0.687845
C99	C	1.730166	-0.115668	1.021178
C100	C	1.084511	-0.813364	0.432082
C101	C	1.417844	-0.480030	0.765416
C102	C	1.751178	-0.146697	1.098749
C103	C	1.084950	-0.899009	0.431772
C104	C	1.418283	-0.565675	0.765105
C105	C	1.751616	-0.232342	1.098438
C106	C	0.985671	-0.899217	0.334669
C107	C	1.319004	-0.565883	0.668003
C108	C	1.652338	-0.232550	1.001336
C109	C	0.986056	-0.813567	0.332938
C110	C	1.319389	-0.480233	0.666271
C111	C	1.652722	-0.146900	0.999604
C112	C	1.063472	-0.698475	0.354497
C113	C	1.396805	-0.365141	0.687830
C114	C	1.730139	-0.031808	1.021164
C115	C	1.063575	-1.014576	0.354565
C116	C	1.396909	-0.681243	0.687898
C117	C	1.730242	-0.347909	1.021232
C118	C	1.255428	-0.356924	0.354516
C119	C	1.588761	-0.023591	0.687850
C120	C	1.922094	0.309742	1.021183
C121	C	1.337226	-0.356934	0.354521
C122	C	1.670560	-0.023601	0.687855
C123	C	2.003893	0.309732	1.021188
C124	C	1.063487	-0.356903	0.546457
C125	C	1.396821	-0.023570	0.879791
C126	C	1.730154	0.309764	1.213124
C127	C	1.063493	-0.356904	0.628256
C128	C	1.396826	-0.023571	0.961590
C129	C	1.730159	0.309763	1.294923
C130	C	1.063558	-0.163739	0.354556
C131	C	1.396891	0.169594	0.687890
C132	C	1.730225	0.502927	1.021223
C133	C	1.063593	-0.081425	0.354579
C134	C	1.396927	0.251908	0.687912
C135	C	1.730260	0.585242	1.021245
C136	C	1.110568	-0.309552	0.816467
C137	C	1.443901	0.023782	1.149800
C138	C	1.777234	0.357115	1.483134
C139	C	1.110564	-0.309551	0.893326
C140	C	1.443897	0.023782	1.226659
C141	C	1.777230	0.357115	1.559992
C142	C	1.016394	-0.404267	0.893283
C143	C	1.349727	-0.070934	1.226617
C144	C	1.683061	0.262400	1.559950
C145	C	1.016395	-0.404263	0.816426
C146	C	1.349728	-0.070930	1.149759
C147	C	1.683061	0.262404	1.483093
C148	C	1.063486	-0.356906	0.778020
C149	C	1.396819	-0.023573	1.111353
C150	C	1.730153	0.309760	1.444686
C151	C	1.063481	-0.356910	0.931736
C152	C	1.396814	-0.023577	1.265069
C153	C	1.730148	0.309757	1.598403
C154	C	1.063476	-0.356910	1.015070
C155	C	1.396809	-0.023577	1.348403
C156	C	1.730143	0.309757	1.681736
C157	C	1.063490	-0.356905	0.694681
C158	C	1.396823	-0.023572	1.028014
C159	C	1.730157	0.309761	1.361347
C160	C	1.063462	-0.356915	1.163298
C161	C	1.396796	-0.023582	1.496632
C162	C	1.730129	0.309752	1.829965
C163	C	1.063474	-0.356913	1.081499
C164	C	1.396807	-0.023579	1.414833
C165	C	1.730141	0.309754	1.748166
H166	H	0.494127	-0.442970	0.439758
H167	H	0.827460	-0.109636	0.773091
H168	H	1.160794	0.223697	1.106425
N169	N	1.196256	-0.927796	0.314746
N170	N	1.529590	-0.594463	0.648079
N171	N	1.862923	-0.261129	0.981412
H172	H	1.232350	-0.907394	0.277863
H173	H	1.565683	-0.574061	0.611196
H174	H	1.899016	-0.240727	0.944529
H175	H	1.196349	-0.983533	0.312209
H176	H	1.529683	-0.650199	0.645542
H177	H	1.863016	-0.316866	0.978876
H178	H	1.148901	-0.270989	0.924626
H179	H	1.482235	0.062344	1.257959
H180	H	1.815568	0.395677	1.591293
N181	N	0.965594	-0.455331	0.934707
N182	N	1.298927	-0.121998	1.268040
N183	N	1.632260	0.211336	1.601374
H184	H	0.972734	-0.448146	0.989230
H185	H	1.306067	-0.114813	1.322564
H186	H	1.639400	0.218520	1.655897
H187	H	0.977015	-0.508226	0.921264
H188	H	1.310348	-0.174893	1.254597
H189	H	1.643681	0.158440	1.587930
H190	H	0.633575	-0.270853	0.269269
H191	H	0.966909	0.062480	0.602603
H192	H	1.300242	0.395813	0.935936
N193	N	1.161359	-0.258477	0.775046
N194	N	1.494692	0.074857	1.108379
N195	N	1.828025	0.408190	1.441712
H196	H	1.195453	-0.288579	0.743159
H197	H	1.528787	0.044755	1.076493
H198	H	1.862120	0.378088	1.409826
H199	H	1.191133	-0.228492	0.811118
H200	H	1.524467	0.104841	1.144451
H201	H	1.857800	0.438175	1.477784
N202	N	0.643717	-0.455494	0.452161
N203	N	0.977050	-0.122161	0.785495
N204	N	1.310383	0.211172	1.118828
H205	H	0.607707	-0.485544	0.481926
H206	H	0.941040	-0.152211	0.815259
H207	H	1.274374	0.181123	1.148593
H208	H	0.675618	-0.425398	0.486270
H209	H	1.008952	-0.092065	0.819603
H210	H	1.342285	0.241268	1.152937
H211	H	0.494134	-0.270863	0.269265
H212	H	0.827467	0.062470	0.602598
H213	H	1.160800	0.395803	0.935932
N214	N	0.965596	-0.455335	0.774962
N215	N	1.298929	-0.122001	1.108296
N216	N	1.632262	0.211332	1.441629
H217	H	0.976996	-0.508252	0.788319
H218	H	1.310329	-0.174919	1.121652
H219	H	1.643663	0.158414	1.454986
H220	H	0.972755	-0.448083	0.720458
H221	H	1.306088	-0.114750	1.053791
H222	H	1.639422	0.218584	1.387125
N223	N	1.103054	-0.785953	0.221481
N224	N	1.436387	-0.452620	0.554815
N225	N	1.769721	-0.119286	0.888148
H226	H	1.095186	-0.829337	0.187498
H227	H	1.428519	-0.496003	0.520831
H228	H	1.761853	-0.162670	0.854165
H229	H	1.145302	-0.755019	0.202916
H230	H	1.478635	-0.421685	0.536249
H231	H	1.811968	-0.088352	0.869583
H232	H	0.966554	-0.920861	0.279086
H233	H	1.299887	-0.587528	0.612419
H234	H	1.633220	-0.254194	0.945752
H235	H	1.107274	-0.919994	0.239832
H236	H	1.440607	-0.586660	0.573165
H237	H	1.773940	-0.253327	0.906498
N238	N	0.927080	-0.785247	0.383929
N239	N	1.260413	-0.451914	0.717262
N240	N	1.593747	-0.118581	1.050595
H241	H	0.902577	-0.828302	0.409294
H242	H	1.235910	-0.494969	0.742627
H243	H	1.569243	-0.161635	1.075960
H244	H	0.889365	-0.756829	0.354715
H245	H	1.222699	-0.423495	0.688048
H246	H	1.556032	-0.090162	1.021382
H247	H	1.141873	-0.918935	0.448609
H248	H	1.475206	-0.585601	0.781942
H249	H	1.808539	-0.252268	1.115275
N250	N	1.196863	-0.786535	0.315089
N251	N	1.530197	-0.453202	0.648422
N252	N	1.863530	-0.119869	0.981756
H253	H	1.230548	-0.830176	0.322706
H254	H	1.563881	-0.496843	0.656040
H255	H	1.897215	-0.163509	0.989373
H256	H	1.195512	-0.755631	0.361240
H257	H	1.528845	-0.422297	0.694573
H258	H	1.862179	-0.088964	1.027906
H259	H	1.044467	-0.793015	0.475712
H260	H	1.377800	-0.459681	0.809045
H261	H	1.711133	-0.126348	1.142378
N262	N	1.032614	-0.926485	0.489969
N263	N	1.365948	-0.593152	0.823303
N264	N	1.699281	-0.259819	1.156636
H265	H	1.009363	-0.882960	0.515714
H266	H	1.342697	-0.549626	0.849047
H267	H	1.676030	-0.216293	1.182381
H268	H	1.060403	-0.957380	0.526828
H269	H	1.393737	-0.624046	0.860161
H270	H	1.727070	-0.290713	1.193494
N271	N	1.159072	-0.784899	0.454764
N272	N	1.492405	-0.451566	0.788097
N273	N	1.825738	-0.118233	1.121430
H274	H	1.179345	-0.751911	0.414911
H275	H	1.512678	-0.418578	0.748244
H276	H	1.846012	-0.085244	1.081577
H277	H	1.193385	-0.827972	0.462742
H278	H	1.526718	-0.494639	0.796076
H279	H	1.860051	-0.161305	1.129409
H280	H	0.970212	-0.793292	0.275852
H281	H	1.303546	-0.459959	0.609185
H282	H	1.636879	-0.126625	0.942518
H283	H	0.943416	-0.919492	0.376202
H284	H	1.276749	-0.586159	0.709535
H285	H	1.610083	-0.252825	1.042869
