data_functionalizedCrystal
_audit_creation_method	'MofGen! by Chris Wilmer'
_symmetry_space_group_name_H-M	'P1'
_symmetry_Int_Tables_number	1
_symmetry_cell_setting	triclinic
loop_
_symmetry_equiv_pos_as_xyz
  x,y,z
_cell_length_a	20.875444
_cell_length_b	18.426585
_cell_length_c	20.875641
_cell_angle_alpha	90.001073
_cell_angle_beta	64.273268
_cell_angle_gamma	61.742540
loop_
_atom_site_label
_atom_site_type_symbol
_atom_site_fract_x
_atom_site_fract_y
_atom_site_fract_z
Zr1	Zr	0.664088	0.740105	-0.047808
O2	O	0.784819	0.635167	-0.140529
O3	O	0.538559	0.767258	-0.023837
O4	O	0.657173	0.779334	-0.146953
O5	O	0.673333	0.619271	0.084769
O6	O	0.657177	0.898760	-0.146956
O7	O	0.666205	0.623092	-0.017413
O8	O	0.444998	0.877159	0.073277
O9	O	0.885512	0.640872	-0.135464
O10	O	0.591971	0.874025	-0.008235
O11	O	0.597288	0.782047	0.068023
O12	O	0.736941	0.796265	-0.076930
O13	O	0.742258	0.704287	-0.000672
Zr14	Zr	0.675463	0.924482	0.115156
Zr15	Zr	0.664095	0.930576	-0.047812
Zr16	Zr	0.675457	0.734011	0.115160
Zr17	Zr	0.824683	0.749203	-0.039730
Zr18	Zr	0.514869	0.915384	0.107078
O19	O	0.800993	0.897329	0.091185
O20	O	0.784828	0.905992	-0.140534
O21	O	0.800984	0.626503	0.091190
O22	O	0.554733	1.029420	0.207877
O23	O	0.538568	1.038084	-0.023842
O24	O	0.554724	0.758595	0.207883
O25	O	0.666219	1.045316	-0.017421
O26	O	0.682379	0.885253	0.214301
O27	O	0.682375	0.765827	0.214304
O28	O	0.673347	1.041495	0.084761
O29	O	0.885517	0.792271	-0.135467
O30	O	0.454034	0.872316	0.202815
O31	O	0.454039	1.023715	0.202812
O32	O	0.445003	1.028558	0.073274
O33	O	0.894549	0.636029	-0.005926
O34	O	0.894554	0.787428	-0.005929
O35	O	0.602611	0.868322	0.144279
O36	O	0.597294	0.960300	0.068020
O37	O	0.742264	0.882540	-0.000675
O38	O	0.747580	0.790562	0.075583
C39	C	0.468897	0.820913	0.023569
C40	C	0.400721	0.817050	0.020140
C41	C	0.669768	0.594043	0.033679
C42	C	0.669765	0.513183	0.033680
C43	C	0.022396	0.788804	-0.004699
C44	C	0.086469	0.792432	-0.001508
C45	C	0.066977	0.854799	0.053588
C46	C	-0.016596	0.913535	0.105500
C47	C	-0.080668	0.909902	0.102312
C48	C	0.253076	0.872153	0.068864
C49	C	0.317156	0.875783	0.072047
C50	C	0.420217	0.754679	-0.034960
C51	C	0.356139	0.751055	-0.038147
C52	C	0.272573	0.809788	0.013768
N53	N	0.132469	0.858511	0.056850
N54	N	0.207082	0.806072	0.010509
C55	C	0.669790	0.217071	0.033668
C56	C	0.669787	0.299456	0.033670
C57	C	0.669778	0.365124	0.033674
C58	C	0.669774	0.447515	0.033677
C59	C	0.870655	0.843675	0.043779
C60	C	0.938831	0.847537	0.047208
C61	C	0.655555	0.839915	-0.170174
C62	C	0.650729	0.842502	-0.239358
C63	C	0.669784	1.070544	0.033669
C64	C	0.669787	1.151404	0.033668
C65	C	0.724132	0.803129	-0.307719
C66	C	0.719593	0.805570	-0.372723
C67	C	0.641649	0.847381	-0.369363
C68	C	0.568240	0.886759	-0.300995
C69	C	0.572780	0.884322	-0.235993
C70	C	0.619954	0.859026	-0.559924
C71	C	0.615419	0.861458	-0.624933
C72	C	0.766773	0.780270	-0.696656
C73	C	0.771306	0.777833	-0.631650
C74	C	0.697898	0.817215	-0.563287
N75	N	0.637006	0.849875	-0.435806
N76	N	0.702541	0.814725	-0.496846
C77	C	0.683996	0.824672	0.237522
C78	C	0.688823	0.822085	0.306706
C79	C	0.468905	1.059163	0.023565
C80	C	0.400731	1.136160	0.020134
C81	C	0.483117	0.813291	0.227417
C82	C	0.419767	0.806841	0.293172
C83	C	0.483126	1.051541	0.227413
C84	C	0.419778	1.125951	0.293166
C85	C	0.856426	0.613046	-0.160064
C86	C	0.919774	0.538636	-0.225818
C87	C	0.870647	0.605424	0.043783
C88	C	0.938820	0.528427	0.047215
C89	C	0.856434	0.851296	-0.160069
C90	C	0.919784	0.857746	-0.225824
C91	C	0.365937	1.127284	-0.021289
C92	C	0.301889	1.199625	-0.024528
C93	C	0.272631	1.280841	0.013661
C94	C	0.307432	1.289715	0.055085
C95	C	0.371483	1.217375	0.058319
C96	C	0.392796	0.848847	0.363862
C97	C	0.333282	0.842784	0.425653
C98	C	0.300734	0.794720	0.416751
C99	C	0.327711	0.752709	0.346053
C100	C	0.387229	0.758767	0.284265
C101	C	0.387254	1.208915	0.284238
C102	C	0.327741	1.278839	0.346014
C103	C	0.300749	1.265799	0.416717
C104	C	0.333279	1.182827	0.425644
C105	C	0.392795	1.112904	0.363869
C106	C	0.952305	0.455673	-0.216889
C107	C	1.011838	0.385749	-0.278664
C108	C	1.038834	0.398790	-0.349367
C109	C	1.006300	0.481762	-0.358294
C110	C	0.946772	0.551684	-0.296520
C111	C	0.973621	0.537303	0.088631
C112	C	1.037686	0.464964	0.091852
C113	C	1.066945	0.383749	0.053661
C114	C	1.032142	0.374874	0.012240
C115	C	0.968082	0.447213	0.009015
C116	C	0.952313	0.905817	-0.216899
C117	C	1.011829	0.911894	-0.278676
C118	C	1.038820	0.869893	-0.349378
C119	C	1.006285	0.821820	-0.358303
C120	C	0.946766	0.815749	-0.296526
H121	H	0.154509	0.744614	-0.043783
O122	O	0.416307	0.713462	0.208022
H123	H	0.463166	0.725739	0.166545
H124	H	1.038313	0.951038	-0.271396
O125	O	0.292574	0.700897	0.336467
H126	H	0.306781	0.649144	0.364808
O127	O	0.923198	0.441589	-0.140637
H128	H	0.876332	0.504141	-0.099173
H129	H	1.038318	0.318196	-0.271382
O130	O	0.203545	1.358864	0.010174
H131	H	0.146916	1.354568	0.032148
O132	O	0.236536	0.788191	0.483396
H133	H	0.178163	0.813996	0.480418
O134	O	0.043421	0.721536	-0.064123
H135	H	0.112295	0.681299	-0.099675
O136	O	0.292691	1.368323	0.336373
H137	H	0.246789	1.414763	0.391203
O138	O	0.275862	1.377318	0.096274
H139	H	0.328018	1.388971	0.075979
O140	O	0.416369	1.222997	0.207985
H141	H	0.362138	1.257104	0.198667
H142	H	1.028271	0.787626	-0.415876
O143	O	0.236546	1.341218	0.483344
H144	H	0.218461	1.401096	0.465250
H145	H	0.920287	0.776601	-0.303803
O146	O	0.304151	1.168765	0.501903
H147	H	0.257292	1.231329	0.543352
O148	O	1.035414	0.495823	-0.434555
H149	H	1.082263	0.433258	-0.476004
H150	H	1.087305	0.341848	-0.399662
O151	O	0.930545	0.437635	-0.035653
H152	H	0.902969	0.398228	-0.014106
O153	O	0.531345	0.906562	-0.621306
H154	H	0.525650	0.860415	-0.649197
O155	O	0.408998	1.226951	0.103011
H156	H	0.377880	1.295580	0.129027
H157	H	0.920285	0.619234	-0.303798
O158	O	0.942080	0.624897	0.129813
H159	H	0.977060	0.618903	0.159139
O160	O	0.377168	0.683782	-0.097569
H161	H	0.348358	0.715127	-0.131351
O162	O	0.808205	0.758030	-0.311351
H163	H	0.813896	0.705776	-0.283460
H164	H	0.488262	0.706861	-0.077226
H165	H	0.930347	0.940020	-0.159335
H166	H	1.087285	0.874843	-0.399675
H167	H	0.779366	0.773510	-0.428383
H168	H	0.419269	1.045354	0.371148
O169	O	1.075203	0.474545	0.136542
H170	H	1.102764	0.513970	0.115020
O171	O	0.296134	0.943047	0.131479
H172	H	0.227261	0.983272	0.167048
O173	O	0.162952	0.935520	0.124845
H174	H	0.152626	0.929373	0.180883
O175	O	-0.037628	0.980813	0.164919
H176	H	0.020963	0.973483	0.158410
O177	O	-0.170803	0.973256	0.158290
H178	H	-0.173595	1.017241	0.197132
O179	O	1.136016	0.305725	0.057166
H180	H	1.155282	0.325549	0.092397
H181	H	0.419290	0.887986	0.371125
O182	O	1.063704	0.287276	-0.028950
H183	H	1.114089	0.238472	-0.019739
O184	O	0.304181	0.888117	0.501897
H185	H	0.358418	0.864049	0.511206
O186	O	0.855374	0.732732	-0.635272
H187	H	0.905655	0.705765	-0.693730
H188	H	0.826538	0.748208	-0.752322
O189	O	0.540782	0.901489	-0.486195
H190	H	0.485823	0.930960	-0.494783
H191	H	0.504776	0.920807	-0.298264
O192	O	0.493624	0.926792	-0.162246
H193	H	0.456450	0.897537	-0.157499
O194	O	0.397495	1.039692	-0.062489
H195	H	0.362540	1.045689	-0.091842
H196	H	0.273562	1.192383	-0.058259
