data_functionalizedCrystal
_audit_creation_method	'MofGen! by Chris Wilmer'
_symmetry_space_group_name_H-M	'P1'
_symmetry_Int_Tables_number	1
_symmetry_cell_setting	triclinic
loop_
_symmetry_equiv_pos_as_xyz
  x,y,z
_cell_length_a	23.532407
_cell_length_b	19.188905
_cell_length_c	18.266242
_cell_angle_alpha	89.983837
_cell_angle_beta	90.016826
_cell_angle_gamma	97.008346
loop_
_atom_site_label
_atom_site_type_symbol
_atom_site_fract_x
_atom_site_fract_y
_atom_site_fract_z
O1	O	-0.071034	0.925934	-0.061018
O2	O	0.428966	1.425934	0.438982
O3	O	-0.080620	0.722589	-0.060995
O4	O	0.419380	1.222589	0.439005
O5	O	0.007092	0.830393	-0.060983
O6	O	0.507092	1.330393	0.439017
O7	O	-0.158746	0.818130	-0.061030
O8	O	0.341254	1.318130	0.438970
O9	O	0.007096	0.830375	0.060779
O10	O	0.507096	1.330375	0.560779
O11	O	-0.080616	0.722571	0.060767
O12	O	0.419384	1.222571	0.560767
O13	O	-0.071030	0.925916	0.060744
O14	O	0.428970	1.425916	0.560744
Zn15	Zn	-0.075822	0.824241	0.080087
Zn16	Zn	0.424178	1.324241	0.580087
Zn17	Zn	-0.075828	0.824264	-0.080339
Zn18	Zn	0.424172	1.324264	0.419661
O19	O	-0.158742	0.818112	0.060732
O20	O	0.341258	1.318112	0.560732
C21	C	0.028311	0.830072	-0.000098
C22	C	0.528311	1.330072	0.499902
C23	C	0.091530	0.829133	-0.000084
C24	C	0.591530	1.329133	0.499916
C25	C	-0.080310	0.696570	-0.000111
C26	C	0.419690	1.196570	0.499889
C27	C	-0.079385	0.619067	-0.000101
C28	C	0.420615	1.119067	0.499899
C29	C	0.357836	0.761465	-0.000110
C30	C	0.857836	1.261465	0.499890
C31	C	0.298434	0.762337	-0.000107
C32	C	0.798434	1.262337	0.499893
O33	O	0.261799	0.708657	-0.000126
O34	O	0.761799	1.208657	0.499874
N35	N	0.275676	0.826426	-0.000107
N36	N	0.775676	1.326426	0.499893
C37	C	0.312324	0.889648	-0.000117
C38	C	0.812324	1.389648	0.499883
O39	O	0.287513	0.944241	-0.000117
O40	O	0.787513	1.444241	0.499883
C41	C	0.371725	0.888775	-0.000125
C42	C	0.871725	1.388775	0.499875
C43	C	0.394479	0.824681	-0.000118
C44	C	0.894479	1.324681	0.499882
C45	C	0.380591	0.697376	-0.000103
C46	C	0.880591	1.197376	0.499897
C47	C	0.439989	0.696504	-0.000105
C48	C	0.939989	1.196504	0.499895
C49	C	0.476632	0.759721	-0.000113
C50	C	0.976632	1.259721	0.499887
C51	C	0.453877	0.823809	-0.000119
C52	C	0.953877	1.323809	0.499881
C53	C	0.408372	0.951995	-0.000141
C54	C	0.908372	1.451995	0.499859
C55	C	0.467776	0.951117	-0.000149
C56	C	0.967776	1.451117	0.499851
C57	C	0.490530	0.887023	-0.000142
C58	C	0.990530	1.387023	0.499858
C59	C	0.549918	0.886154	-0.000129
C60	C	1.049918	1.386154	0.499871
N61	N	0.572676	0.822064	-0.000129
N62	N	1.072676	1.322064	0.499871
C63	C	0.536033	0.758848	-0.000121
C64	C	1.036033	1.258848	0.499879
C65	C	0.187578	0.891476	-0.000101
C66	C	0.687578	1.391476	0.499899
C67	C	0.128178	0.892350	-0.000088
C68	C	0.628178	1.392350	0.499912
C69	C	0.114292	0.765039	-0.000079
C70	C	0.614292	1.265039	0.499921
C71	C	0.173693	0.764166	-0.000087
C72	C	0.673693	1.264166	0.499913
C73	C	0.210336	0.827387	-0.000101
C74	C	0.710336	1.327387	0.499899
C75	C	0.660773	0.757022	-0.000123
C76	C	1.160773	1.257022	0.499877
C77	C	0.720177	0.756155	-0.000122
C78	C	1.220177	1.256155	0.499878
C79	C	0.734058	0.883466	-0.000135
C80	C	1.234058	1.383466	0.499865
C81	C	0.674659	0.884333	-0.000132
C82	C	1.174659	1.384333	0.499868
C83	C	0.638018	0.821105	-0.000129
C84	C	1.138018	1.321105	0.499871
O85	O	0.586588	0.939806	-0.000113
O86	O	1.086588	1.439806	0.499887
O87	O	0.560853	0.704264	-0.000130
O88	O	1.060853	1.204264	0.499870
C89	C	0.820039	0.818433	-0.000145
C90	C	1.320039	1.318433	0.499855
C91	C	0.756820	0.819372	-0.000130
C92	C	1.256820	1.319372	0.499870
C93	C	-0.078944	0.582687	-0.066476
C94	C	0.421056	1.082687	0.433524
C95	C	-0.078068	0.509866	-0.066484
C96	C	0.421932	1.009866	0.433516
C97	C	-0.077623	0.473431	-0.000115
C98	C	0.422377	0.973431	0.499885
C99	C	-0.078068	0.509819	0.066268
C100	C	0.421932	1.009819	0.566268
C101	C	-0.078949	0.582638	0.066275
C102	C	0.421051	1.082638	0.566275
N103	N	-0.043829	0.364511	0.049286
N104	N	0.456171	0.864511	0.549286
N105	N	-0.042991	0.295336	0.049275
N106	N	0.457009	0.795336	0.549275
C107	C	-0.074970	0.254032	-0.000132
C108	C	0.425030	0.754032	0.499868
N109	N	-0.107812	0.284517	-0.049539
N110	N	0.392188	0.784517	0.450461
N111	N	-0.108648	0.353698	-0.049530
N112	N	0.391352	0.853698	0.450470
C113	C	-0.076668	0.394471	-0.000115
C114	C	0.423332	0.894471	0.499885
C115	C	-0.073580	0.138691	-0.066521
C116	C	0.426420	0.638691	0.433479
C117	C	-0.072709	0.065868	-0.066527
C118	C	0.427291	0.565868	0.433473
C119	C	-0.072703	0.065824	0.066227
C120	C	0.427297	0.565824	0.566227
C121	C	-0.073580	0.138644	0.066232
C122	C	0.426420	0.638644	0.566232
C123	C	-0.074016	0.175074	-0.000144
C124	C	0.425984	0.675074	0.499856
C125	C	-0.071340	0.951935	-0.000142
C126	C	0.428660	1.451935	0.499858
C127	C	-0.072265	1.029438	-0.000157
C128	C	0.427735	1.529438	0.499843
N129	N	-0.075818	0.824229	0.189574
N130	N	0.424182	1.324229	0.689574
N131	N	-0.075828	0.824281	-0.189826
N132	N	0.424172	1.324281	0.310174
C133	C	-0.036998	0.871980	0.227889
C134	C	0.463002	1.371980	0.727889
C135	C	-0.036995	0.871985	0.304534
C136	C	0.463005	1.371985	0.804534
C137	C	-0.075822	0.824245	0.342861
C138	C	0.424178	1.324245	0.842861
C139	C	-0.114645	0.776485	0.304538
C140	C	0.385355	1.276485	0.804538
C141	C	-0.114643	0.776477	0.227894
C142	C	0.385357	1.276477	0.727894
N143	N	-0.126238	0.815008	0.463180
N144	N	0.373762	1.315008	0.963180
N145	N	-0.126238	0.815020	0.535988
N146	N	0.373762	1.315020	1.035988
C147	C	-0.075830	0.824264	0.573784
C148	C	0.424170	1.324264	1.073784
N149	N	-0.025420	0.833511	0.536021
N150	N	0.474580	1.333511	1.036021
N151	N	-0.025421	0.833503	0.463206
N152	N	0.474579	1.333503	0.963206
C153	C	-0.075829	0.824248	0.425968
C154	C	0.424171	1.324248	0.925968
C155	C	-0.037004	0.872023	0.695205
C156	C	0.462996	1.372023	1.195205
C157	C	-0.037001	0.872023	0.771851
C158	C	0.462999	1.372023	1.271851
C159	C	-0.114656	0.776526	0.771854
C160	C	0.385344	1.276526	1.271854
C161	C	-0.114654	0.776523	0.695209
C162	C	0.385346	1.276523	1.195209
C163	C	-0.075829	0.824275	0.656889
C164	C	0.424171	1.324275	1.156889
H165	H	0.738700	0.703961	-0.000113
H166	H	1.238700	1.203961	0.499887
H167	H	-0.146268	0.737642	0.664012
H168	H	0.353732	1.237642	1.164012
H169	H	-0.005383	0.910861	0.196691
H170	H	0.494617	1.410861	0.696691
H171	H	-0.072344	0.036158	0.120267
H172	H	0.427656	0.536158	0.620267
C173	C	-0.024447	0.967098	0.390696
C174	C	0.475553	1.467098	0.890696
C175	C	0.005678	0.924479	0.346658
C176	C	0.505678	1.424479	0.846658
H177	H	0.001899	0.999503	0.416702
H178	H	0.501899	1.499503	0.916702
H179	H	-0.048097	0.992039	0.360774
H180	H	0.451903	1.492039	0.860774
H181	H	-0.047567	0.938656	0.424487
H182	H	0.452433	1.438656	0.924487
H183	H	0.028795	0.952920	0.312864
H184	H	0.528795	1.452920	0.812864
H185	H	0.029338	0.899537	0.376583
H186	H	0.529338	1.399537	0.876583
C187	C	0.653030	0.631092	-0.000105
C188	C	1.153030	1.131092	0.499895
C189	C	0.620503	0.687521	-0.000114
C190	C	1.120503	1.187521	0.499886
H191	H	0.628168	0.588187	-0.000092
H192	H	1.128168	1.088187	0.499908
H193	H	0.676475	0.633408	-0.042566
H194	H	1.176475	1.133408	0.457434
H195	H	0.676501	0.633406	0.042356
H196	H	1.176501	1.133406	0.542356
H197	H	0.597035	0.685210	-0.042579
H198	H	1.097035	1.185210	0.457421
H199	H	0.597048	0.685204	0.042351
H200	H	1.097048	1.185204	0.542351
C201	C	-0.074925	0.250340	-0.125456
C202	C	0.425075	0.750340	0.374544
C203	C	-0.074065	0.178740	-0.139478
C204	C	0.425935	0.678740	0.360522
H205	H	-0.075221	0.275063	-0.170498
H206	H	0.424779	0.775063	0.329502
H207	H	-0.108269	0.256701	-0.098197
H208	H	0.391731	0.756701	0.401803
H209	H	-0.041861	0.267817	-0.098174
H210	H	0.458139	0.767817	0.401826
H211	H	-0.107131	0.161262	-0.166756
H212	H	0.392869	0.661262	0.333244
H213	H	-0.040718	0.172375	-0.166749
H214	H	0.459282	0.672375	0.333251
C215	C	-0.073480	0.131285	0.197448
C216	C	0.426520	0.631285	0.697448
C217	C	-0.074057	0.178640	0.139193
C218	C	0.425943	0.678640	0.639193
H219	H	-0.073771	0.155978	0.242493
H220	H	0.426229	0.655978	0.742493
H221	H	-0.106338	0.097324	0.194677
H222	H	0.393662	0.597324	0.694677
H223	H	-0.039931	0.108444	0.194687
H224	H	0.460069	0.608444	0.694687
H225	H	-0.107608	0.201477	0.141952
H226	H	0.392392	0.701477	0.641952
H227	H	-0.041195	0.212613	0.141966
H228	H	0.458805	0.712613	0.641966
H229	H	-0.146258	0.737613	0.335748
H230	H	0.353742	1.237613	0.835748
H231	H	-0.146255	0.737592	0.196698
H232	H	0.353745	1.237592	0.696698
C233	C	-0.127215	0.681432	0.858074
C234	C	0.372785	1.181432	1.358074
C235	C	-0.157335	0.724047	0.813976
C236	C	0.342665	1.224047	1.313976
H237	H	-0.153564	0.649035	0.884083
H238	H	0.346436	1.149035	1.384083
H239	H	-0.103566	0.656484	0.828193
H240	H	0.396434	1.156484	1.328193
H241	H	-0.104095	0.709878	0.891862
H242	H	0.395905	1.209878	1.391862
H243	H	-0.180452	0.695601	0.780184
H244	H	0.319548	1.195601	1.280184
H245	H	-0.180995	0.748997	0.843859
H246	H	0.319005	1.248997	1.343859
C247	C	0.420278	0.570755	-0.000105
C248	C	0.920278	1.070755	0.499895
C249	C	0.464994	0.626050	-0.000107
C250	C	0.964994	1.126050	0.499893
H251	H	0.435714	0.527258	-0.000113
H252	H	0.935714	1.027258	0.499887
H253	H	0.397413	0.573738	0.042357
H254	H	0.897413	1.073738	0.542357
H255	H	0.397386	0.573764	-0.042565
H256	H	0.897386	1.073764	0.457435
H257	H	0.487884	0.623044	0.042356
H258	H	0.987884	1.123044	0.542356
H259	H	0.487869	0.623066	-0.042574
H260	H	0.987869	1.123066	0.457426
H261	H	0.656132	0.936523	-0.000128
H262	H	1.156132	1.436523	0.499872
H263	H	-0.005389	0.910904	0.664004
H264	H	0.494611	1.410904	1.164004
C265	C	0.283369	0.642163	-0.000089
C266	C	0.783369	1.142163	0.499911
C267	C	0.340317	0.627881	-0.000094
C268	C	0.840317	1.127881	0.499906
H269	H	0.258510	0.599255	-0.000084
H270	H	0.758510	1.099255	0.499916
H271	H	0.276499	0.668448	0.042368
H272	H	0.776499	1.168448	0.542368
H273	H	0.276476	0.668463	-0.042555
H274	H	0.776476	1.168463	0.457445
H275	H	0.347212	0.601585	0.042375
H276	H	0.847212	1.101585	0.542375
H277	H	0.347190	0.601585	-0.042555
H278	H	0.847190	1.101585	0.457445
C279	C	0.153987	0.638415	-0.000081
C280	C	0.653987	1.138415	0.499919
C281	C	0.198701	0.693713	-0.000090
C282	C	0.698701	1.193713	0.499910
H283	H	0.169425	0.594920	-0.000089
H284	H	0.669425	1.094920	0.499911
H285	H	0.131124	0.641398	0.042382
H286	H	0.631124	1.141398	0.542382
H287	H	0.131093	0.641421	-0.042540
H288	H	0.631093	1.141421	0.457460
H289	H	0.221593	0.690710	0.042372
H290	H	0.721593	1.190710	0.542372
H291	H	0.221573	0.690729	-0.042558
H292	H	0.721573	1.190729	0.457442
C293	C	0.017064	0.709857	-0.000084
C294	C	0.517064	1.209857	0.499916
C295	C	0.074005	0.695548	-0.000082
C296	C	0.574005	1.195548	0.499918
H297	H	-0.007807	0.666958	-0.000091
H298	H	0.492193	1.166958	0.499909
H299	H	0.010197	0.736138	0.042376
H300	H	0.510197	1.236138	0.542376
H301	H	0.010183	0.736168	-0.042546
H302	H	0.510183	1.236168	0.457454
H303	H	0.080887	0.669241	0.042384
H304	H	0.580887	1.169241	0.542384
H305	H	0.080875	0.669255	-0.042546
H306	H	0.580875	1.169255	0.457454
H307	H	-0.005386	0.910905	0.803047
H308	H	0.494614	1.410905	1.303047
H309	H	0.109658	0.944541	-0.000082
H310	H	0.609658	1.444541	0.499918
C311	C	0.195328	1.017406	-0.000097
C312	C	0.695328	1.517406	0.499903
C313	C	0.227854	0.960975	-0.000102
C314	C	0.727854	1.460975	0.499898
H315	H	0.220191	1.060311	-0.000093
H316	H	0.720191	1.560311	0.499907
H317	H	0.171861	1.015105	-0.042553
H318	H	0.671861	1.515105	0.457447
H319	H	0.171879	1.015079	0.042369
H320	H	0.671879	1.515079	0.542369
H321	H	0.251299	0.963300	-0.042571
H322	H	0.751299	1.463300	0.457429
H323	H	0.251330	0.963278	0.042359
H324	H	0.751330	1.463278	0.542359
H325	H	0.389856	1.004187	-0.000147
H326	H	0.889856	1.504187	0.499853
H327	H	0.497609	1.002600	-0.000165
H328	H	0.997609	1.502600	0.499835
C329	C	-0.028120	0.436109	0.143288
C330	C	0.471880	0.936109	0.643288
C331	C	-0.077576	0.469774	0.139224
C332	C	0.422424	0.969774	0.639224
H333	H	-0.027817	0.411392	0.188332
H334	H	0.472183	0.911392	0.688332
H335	H	-0.027737	0.404020	0.103761
H336	H	0.472263	0.904020	0.603761
H337	H	0.004734	0.470089	0.140539
H338	H	0.504734	0.970089	0.640539
H339	H	-0.110430	0.435794	0.141967
H340	H	0.389570	0.935794	0.641967
H341	H	-0.077965	0.501867	0.178762
H342	H	0.422035	1.001867	0.678762
H343	H	0.763904	0.934935	-0.000138
H344	H	1.263904	1.434935	0.499862
C345	C	-0.078151	0.517219	-0.197705
C346	C	0.421849	1.017219	0.302295
C347	C	-0.077581	0.469866	-0.139448
C348	C	0.422419	0.969866	0.360552
H349	H	-0.077847	0.492525	-0.242749
H350	H	0.422153	0.992525	0.257251
H351	H	-0.111697	0.540056	-0.194956
H352	H	0.388303	1.040056	0.305044
H353	H	-0.045289	0.551185	-0.194926
H354	H	0.454711	1.051185	0.305074
H355	H	-0.110446	0.435903	-0.142224
H356	H	0.389554	0.935903	0.357776
H357	H	-0.044032	0.447018	-0.142198
H358	H	0.455968	0.947018	0.357802
H359	H	-0.079310	0.612258	0.120326
H360	H	0.420690	1.112258	0.620326
C361	C	-0.121378	0.035301	-0.179703
C362	C	0.378622	0.535301	0.320297
C363	C	-0.072223	0.025878	-0.139493
C364	C	0.427777	0.525878	0.360507
H365	H	-0.121074	0.010616	-0.224752
H366	H	0.378926	0.510616	0.275248
H367	H	-0.154433	0.017793	-0.152447
H368	H	0.345567	0.517793	0.347553
H369	H	-0.121957	0.083886	-0.189190
H370	H	0.378043	0.583886	0.310810
H371	H	-0.071646	-0.022707	-0.130001
H372	H	0.428354	0.477293	0.369999
H373	H	-0.039159	0.043383	-0.166754
H374	H	0.460841	0.543383	0.333246
H375	H	-0.079299	0.612344	-0.120524
H376	H	0.420701	1.112344	0.379476
