data_functionalizedCrystal
_audit_creation_method	'MofGen! by Chris Wilmer'
_symmetry_space_group_name_H-M	'P1'
_symmetry_Int_Tables_number	1
_symmetry_cell_setting	triclinic
loop_
_symmetry_equiv_pos_as_xyz
  x,y,z
_cell_length_a	6.817900
_cell_length_b	11.005837
_cell_length_c	7.076028
_cell_angle_alpha	92.037313
_cell_angle_beta	117.700652
_cell_angle_gamma	70.234673
loop_
_atom_site_label
_atom_site_type_symbol
_atom_site_fract_x
_atom_site_fract_y
_atom_site_fract_z
V1	V	-4.231494	0.176573	-0.664953
O2	O	-4.181934	-0.010601	-0.652347
O3	O	-4.213519	0.352149	-0.660355
O4	O	-4.257828	0.172928	-0.954984
O5	O	-4.137319	0.169861	-0.355678
V6	V	-4.701496	0.154294	-0.627967
O7	O	-4.522412	0.225442	-0.746084
O8	O	-4.860776	0.105425	-0.546836
O9	O	-4.496266	-0.021282	-0.632565
O10	O	-4.868453	0.341468	-0.640573
O11	O	-4.913069	0.161006	-0.937242
O12	O	-4.451956	0.157939	-0.337935
C13	C	-4.063503	0.394980	-0.649852
C14	C	-4.130590	0.538510	-0.648026
C15	C	-4.015709	0.701553	-0.634793
C16	C	-4.157888	0.635188	-0.818094
C17	C	-3.987509	0.602975	-0.464830
C18	C	-4.392507	0.727897	-0.828296
C19	C	-4.222027	0.695675	-0.474872
C20	C	-4.364387	0.629358	-0.658224
C21	C	-4.316556	0.935892	-0.643055
C22	C	-4.249371	0.792358	-0.644873
C23	C	-4.253087	0.164505	-0.267230
C24	C	-4.126987	0.166356	-0.025671
H25	H	-4.564279	0.781976	-0.982058
H26	H	-3.815616	0.548731	-0.311270
H27	H	-4.511371	0.597682	-0.668200
C28	C	-4.258663	0.731871	-0.281251
C29	C	-4.100723	0.792270	-0.152513
C30	C	-4.134398	0.825647	0.025874
H31	H	-4.229835	0.655272	-0.199307
H32	H	-4.417479	0.790166	-0.329525
H33	H	-3.941945	0.733978	-0.104238
H34	H	-4.129522	0.868882	-0.234391
H35	H	-4.293213	0.883942	-0.022400
H36	H	-4.105571	0.749041	0.107799
H37	H	-4.027258	0.866641	0.113234
H38	H	-4.130157	0.608209	-0.963234
C39	C	-3.820443	0.744405	-0.621737
C40	C	-3.885421	0.879185	-0.618258
C41	C	-3.705599	0.918705	-0.606210
H42	H	-3.798403	0.724172	-0.743781
H43	H	-3.676421	0.700029	-0.493844
H44	H	-4.029402	0.923546	-0.746137
H45	H	-3.907442	0.899452	-0.496220
H46	H	-3.561577	0.874329	-0.478317
H47	H	-3.683572	0.898464	-0.728257
H48	H	-3.749651	1.010154	-0.603828
