data_functionalizedCrystal
_audit_creation_method	'MofGen! by Chris Wilmer'
_symmetry_space_group_name_H-M	'P1'
_symmetry_Int_Tables_number	1
_symmetry_cell_setting	triclinic
loop_
_symmetry_equiv_pos_as_xyz
  x,y,z
_cell_length_a	31.640172
_cell_length_b	31.640171
_cell_length_c	19.851628
_cell_angle_alpha	59.998920
_cell_angle_beta	90.005652
_cell_angle_gamma	59.979319
loop_
_atom_site_label
_atom_site_type_symbol
_atom_site_fract_x
_atom_site_fract_y
_atom_site_fract_z
Zr1	Zr	0.406965	0.462736	-0.088513
O2	O	0.339436	0.550943	-0.196120
O3	O	0.427696	0.374529	-0.055498
O4	O	0.427657	0.462725	-0.196063
O5	O	0.339473	0.462755	0.055293
O6	O	0.497214	0.462717	-0.196048
O7	O	0.339475	0.462747	-0.055556
O8	O	0.497283	0.304950	0.055396
O9	O	0.339403	0.620521	-0.196151
O10	O	0.488411	0.410803	-0.041440
O11	O	0.436500	0.410816	0.041274
O12	O	0.436454	0.514655	-0.124222
O13	O	0.384543	0.514668	-0.041508
Zr14	Zr	0.517897	0.462735	0.088302
Zr15	Zr	0.517901	0.462722	-0.088489
Zr16	Zr	0.406962	0.462749	0.088278
Zr17	Zr	0.406913	0.573706	-0.088562
Zr18	Zr	0.517950	0.351765	0.088351
O19	O	0.497167	0.550941	0.055287
O20	O	0.497172	0.550923	-0.196087
O21	O	0.339431	0.550961	0.055254
O22	O	0.585427	0.374528	0.195909
O23	O	0.585431	0.374509	-0.055465
O24	O	0.427691	0.374548	0.195876
O25	O	0.585390	0.462716	-0.055504
O26	O	0.497206	0.462745	0.195851
O27	O	0.427649	0.462754	0.195837
O28	O	0.585388	0.462724	0.055345
O29	O	0.427582	0.620510	-0.196132
O30	O	0.497281	0.304960	0.195921
O31	O	0.585459	0.304949	0.195940
O32	O	0.585462	0.304939	0.055414
O33	O	0.339401	0.620532	-0.055626
O34	O	0.427579	0.620521	-0.055607
O35	O	0.488408	0.410815	0.124011
O36	O	0.540320	0.410803	0.041296
O37	O	0.488363	0.514655	-0.041486
O38	O	0.436451	0.514667	0.041229
C39	C	0.462497	0.323929	-0.000044
C40	C	0.462519	0.276819	-0.000024
C41	C	0.500772	-0.097747	0.060982
C42	C	0.500818	0.079206	0.061028
O43	O	0.533439	0.069473	0.112971
N44	N	0.462486	0.139681	-0.000061
C45	C	0.424142	0.155918	-0.061168
O46	O	0.391543	0.211417	-0.113131
C47	C	0.424099	-0.021034	-0.061216
C48	C	0.462430	-0.081510	-0.000119
C49	C	0.539101	-0.158220	0.122074
C50	C	0.539087	-0.202455	0.122064
C51	C	0.500745	-0.186218	0.060963
C52	C	0.462417	-0.125745	-0.000129
C53	C	0.385757	-0.004797	-0.122326
C54	C	0.385751	-0.049041	-0.122334
C55	C	0.424082	-0.109517	-0.061237
C56	C	0.424061	-0.153743	-0.061239
N57	N	0.462393	-0.214218	-0.000151
C58	C	0.500735	-0.230456	0.060950
C59	C	0.424167	0.248818	-0.061137
C60	C	0.424177	0.293057	-0.061125
C61	C	0.500854	0.216341	0.061070
C62	C	0.500841	0.172102	0.061060
C63	C	0.462499	0.188343	-0.000049
C64	C	0.500704	-0.323350	0.060926
C65	C	0.500686	-0.367586	0.060914
C66	C	0.424011	-0.290866	-0.061283
C67	C	0.424027	-0.246634	-0.061268
C68	C	0.462378	-0.262881	-0.000160
O69	O	0.391461	-0.144054	-0.113160
O70	O	0.533336	-0.285957	0.112895
C71	C	0.500786	-0.053512	0.060991
C72	C	0.462457	0.006961	-0.000100
C73	C	0.424115	0.023198	-0.061201
C74	C	0.462467	0.051199	-0.000088
C75	C	0.500809	0.034961	0.061014
C76	C	0.539141	-0.025514	0.122102
C77	C	0.539128	-0.069749	0.122092
C78	C	0.385783	0.083673	-0.122290
C79	C	0.385800	0.127906	-0.122275
C80	C	0.424142	0.111668	-0.061174
C81	C	0.323668	0.462753	-0.000135
C82	C	0.276573	0.462759	-0.000145
C83	C	0.011688	0.408520	0.043122
C84	C	-0.165297	0.408510	0.043139
O85	O	-0.165117	0.362406	0.079918
N86	N	-0.214548	0.462719	-0.000074
C87	C	-0.219551	0.516935	-0.043289
O88	O	-0.265503	0.563043	-0.080036
C89	C	-0.042567	0.516944	-0.043300
C90	C	0.006683	0.462732	-0.000091
C91	C	0.060936	0.354312	0.086328
C92	C	0.105180	0.354315	0.086320
C93	C	0.100175	0.408526	0.043106
C94	C	0.050927	0.462735	-0.000100
C95	C	-0.047571	0.571160	-0.086510
C96	C	-0.003320	0.571157	-0.086507
C97	C	0.045930	0.516944	-0.043298
C98	C	0.090165	0.516949	-0.043322
N99	N	0.139416	0.462740	-0.000109
C100	C	0.144421	0.408529	0.043105
C101	C	-0.312469	0.516926	-0.043281
C102	C	-0.356715	0.516923	-0.043280
C103	C	-0.302457	0.408498	0.043149
C104	C	-0.258211	0.408501	0.043142
C105	C	-0.263218	0.462716	-0.000069
C106	C	0.237333	0.408539	0.043084
C107	C	0.281578	0.408547	0.043069
C108	C	0.227316	0.516972	-0.043356
C109	C	0.183075	0.516965	-0.043345
C110	C	0.188087	0.462743	-0.000119
O111	O	0.090025	0.563029	-0.080074
O112	O	0.190377	0.362427	0.079862
C113	C	-0.032555	0.408517	0.043131
C114	C	-0.081803	0.462725	-0.000075
C115	C	-0.086808	0.516937	-0.043289
C116	C	-0.126049	0.462723	-0.000074
C117	C	-0.121045	0.408511	0.043140
C118	C	-0.071794	0.354302	0.086353
C119	C	-0.027551	0.354305	0.086344
C120	C	-0.136059	0.571146	-0.086501
C121	C	-0.180300	0.571139	-0.086490
C122	C	-0.175295	0.516927	-0.043276
C123	C	0.601195	0.462718	-0.000076
C124	C	0.648290	0.462712	-0.000066
C125	C	0.462436	0.462719	-0.221244
C126	C	0.462437	0.462714	-0.296297
C127	C	0.462366	0.601542	-0.000167
C128	C	0.462344	0.648652	-0.000187
C129	C	0.490765	0.406102	-0.432526
C130	C	0.441942	0.434412	-0.500002
C131	C	0.462432	0.462729	-0.433728
C132	C	0.511245	0.434416	-0.499987
C133	C	0.462431	0.462740	-0.566477
C134	C	0.413581	0.491039	-0.500215
C135	C	0.482919	0.491035	-0.500190
C136	C	0.434067	0.519386	-0.567678
C137	C	0.462433	0.462721	-0.357253
C138	C	0.462425	0.462752	-0.642954
C139	C	0.462427	0.462752	0.221033
C140	C	0.462426	0.462757	0.296085
C141	C	0.601260	0.323911	-0.000015
C142	C	0.648377	0.276796	0.000016
C143	C	0.462493	0.323945	0.221094
C144	C	0.462513	0.276841	0.296167
C145	C	0.601256	0.323928	0.221124
C146	C	0.648372	0.276818	0.296207
C147	C	0.323607	0.601543	-0.221335
C148	C	0.276491	0.648653	-0.296418
C149	C	0.323603	0.601559	-0.000196
C150	C	0.276485	0.648675	-0.000227
C151	C	0.462370	0.601526	-0.221305
C152	C	0.462349	0.648630	-0.296378
C153	C	0.643409	0.254670	-0.043165
C154	C	0.687676	0.210406	-0.043152
C155	C	0.736912	0.188266	0.000046
C156	C	0.741879	0.210396	0.043228
C157	C	0.697613	0.254662	0.043210
C158	C	0.489619	0.254720	0.374617
C159	C	0.489636	0.210467	0.445163
C160	C	0.462551	0.188333	0.437257
C161	C	0.435443	0.210458	0.358799
C162	C	0.435422	0.254713	0.288255
C163	C	0.697600	0.254688	0.288291
C164	C	0.741874	0.210429	0.358833
C165	C	0.736920	0.188298	0.437290
C166	C	0.687687	0.210432	0.445204
C167	C	0.643413	0.254693	0.374663
C168	C	0.227263	0.670788	-0.288502
C169	C	0.182989	0.715061	-0.359044
C170	C	0.187943	0.737194	-0.437501
C171	C	0.237176	0.715057	-0.445415
C172	C	0.281449	0.670788	-0.374874
C173	C	0.281454	0.670805	0.042946
C174	C	0.237187	0.715082	0.042914
C175	C	0.187951	0.737224	-0.000286
C176	C	0.182983	0.715091	-0.043465
C177	C	0.227250	0.670819	-0.043437
C178	C	0.489440	0.670750	-0.288446
C179	C	0.489430	0.715004	-0.358979
C180	C	0.462327	0.737139	-0.437443
C181	C	0.435236	0.715014	-0.445373
C182	C	0.435249	0.670758	-0.374842
H183	H	0.570302	-0.251695	0.171814
H184	H	0.413352	0.272718	0.224380
H185	H	0.413187	0.652753	-0.381312
H186	H	0.701644	0.272700	0.224413
H187	H	0.392942	0.262052	-0.110902
H188	H	0.321540	0.652781	0.078131
H189	H	0.223250	0.561110	-0.078543
F190	F	0.518450	0.278268	0.383050
F191	F	0.419288	0.403136	-0.500877
F192	F	0.579913	-0.175514	0.187112
F193	F	0.130596	0.738611	-0.350603
F194	F	0.383205	-0.273595	-0.126305
F195	F	0.359598	0.522303	-0.499464
H196	H	0.410073	0.567305	-0.625445
F197	F	0.242674	0.350831	0.089089
F198	F	0.462317	0.784241	-0.512502
H199	H	0.142973	0.561109	-0.078540
F200	F	0.344971	0.100965	-0.187324
H201	H	0.781973	0.192363	0.078398
F202	F	0.541484	-0.431950	0.125946
F203	F	0.794267	0.186878	0.350392
F204	F	0.541521	-0.340648	0.125965
F205	F	0.406389	0.738582	-0.528887
H206	H	0.603323	0.272696	-0.078352
H207	H	0.511713	0.192458	0.509040
F208	F	0.784044	0.141190	0.512360
F209	F	0.541639	0.107741	0.126086
H210	H	0.532072	0.203126	0.110823
F211	F	-0.232715	0.628844	-0.132485
F212	F	0.784020	0.141152	0.000058
F213	F	0.518289	0.647200	-0.204945
F214	F	0.383374	0.357417	-0.126143
F215	F	0.344959	0.059560	-0.187354
F216	F	0.140818	0.784309	-0.512571
H217	H	0.701665	0.272671	0.078377
H218	H	0.354528	-0.035810	-0.172100
F219	F	0.383228	-0.182270	-0.126289
H220	H	0.462572	0.152297	0.494706
H221	H	0.500261	0.514943	-0.499490
H222	H	0.413391	0.192429	0.352374
F223	F	0.130579	0.738661	-0.089437
H224	H	0.570341	-0.118989	0.171844
H225	H	0.570359	-0.038728	0.171855
H226	H	0.511490	0.733013	-0.352505
F227	F	0.066273	0.296607	0.132329
H228	H	0.321680	0.364399	0.078257
F229	F	0.682378	0.186860	-0.089111
F230	F	0.344996	0.192269	-0.187304
H231	H	0.683660	0.192407	0.509093
H232	H	0.603331	0.272706	0.381120
H233	H	0.514683	0.358223	-0.374664
H234	H	0.012548	0.310160	0.121531
F235	F	0.221978	0.647239	-0.205008
F236	F	0.242441	0.738618	-0.528922
H237	H	0.145278	0.310169	0.121501
F238	F	-0.297138	0.350802	0.089140
F239	F	0.242485	0.738626	0.088875
F240	F	0.565201	0.403116	-0.500822
F241	F	-0.205798	0.350801	0.089131
H242	H	0.223197	0.652802	-0.078592
H243	H	-0.396814	0.561069	-0.078475
H244	H	0.321532	0.652766	-0.381330
H245	H	0.151910	0.773273	-0.000302
H246	H	-0.316555	0.561077	-0.078475
F247	F	-0.099980	0.628861	-0.132493
H248	H	-0.007403	0.615307	-0.121685
H249	H	-0.067726	0.310161	0.121534
F250	F	-0.141394	0.628849	-0.132498
