data_functionalizedCrystal
_audit_creation_method	'MofGen! by Chris Wilmer'
_symmetry_space_group_name_H-M	'P1'
_symmetry_Int_Tables_number	1
_symmetry_cell_setting	triclinic
loop_
_symmetry_equiv_pos_as_xyz
  x,y,z
_cell_length_a	14.853567
_cell_length_b	19.288865
_cell_length_c	17.766277
_cell_angle_alpha	89.988397
_cell_angle_beta	89.993613
_cell_angle_gamma	83.385589
loop_
_atom_site_label
_atom_site_type_symbol
_atom_site_fract_x
_atom_site_fract_y
_atom_site_fract_z
O1	O	-1.195855	-0.090685	0.062551
O2	O	-0.695855	0.409315	0.562551
O3	O	-0.933334	-0.101488	0.062565
O4	O	-0.433334	0.398512	0.562565
O5	O	-1.072180	0.005018	0.062543
O6	O	-0.572180	0.505018	0.562543
O7	O	-1.057009	-0.197191	0.062574
O8	O	-0.557009	0.302809	0.562574
O9	O	-1.072156	0.005024	-0.062646
O10	O	-0.572156	0.505024	0.437354
O11	O	-0.933310	-0.101482	-0.062623
O12	O	-0.433310	0.398518	0.437377
O13	O	-1.195831	-0.090680	-0.062637
O14	O	-0.695831	0.409320	0.437363
Cu15	Cu	-1.064568	-0.096080	-0.074061
Cu16	Cu	-0.564568	0.403920	0.425939
Cu17	Cu	-1.064597	-0.096087	0.073989
Cu18	Cu	-0.564597	0.403913	0.573989
O19	O	-1.056985	-0.197186	-0.062615
O20	O	-0.556985	0.302814	0.437385
C21	C	-0.899736	-0.100996	-0.000027
C22	C	-0.399736	0.399004	0.499973
C23	C	-0.799661	-0.099529	-0.000023
C24	C	-0.299661	0.400471	0.499977
C25	C	-1.071680	0.030899	-0.000053
C26	C	-0.571680	0.530899	0.499947
C27	C	-1.070215	0.108008	-0.000060
C28	C	-0.570215	0.608008	0.499940
C29	C	-1.229429	-0.091172	-0.000043
C30	C	-0.729429	0.408828	0.499957
C31	C	-1.329504	-0.092639	-0.000043
C32	C	-0.829504	0.407361	0.499957
C33	C	-0.387522	-0.030061	-0.000050
C34	C	0.112478	0.469939	0.499950
C35	C	-0.365522	-0.156593	-0.000030
C36	C	0.134478	0.343407	0.499970
C37	C	-0.459547	-0.157972	-0.000028
C38	C	0.040453	0.342028	0.499972
C39	C	-0.517565	-0.095395	-0.000035
C40	C	-0.017565	0.404605	0.499965
C41	C	-0.481557	-0.031439	-0.000045
C42	C	0.018443	0.468561	0.499955
C43	C	-0.495563	-0.221927	-0.000010
C44	C	0.004437	0.278073	0.499990
C45	C	-0.589594	-0.223309	-0.000006
C46	C	-0.089594	0.276691	0.499994
C47	C	-0.647614	-0.160731	-0.000019
C48	C	-0.147614	0.339269	0.499981
C49	C	-0.611600	-0.096772	-0.000030
C50	C	-0.111600	0.403228	0.499970
C51	C	-0.669618	-0.034195	-0.000038
C52	C	-0.169618	0.465805	0.499962
C53	C	-0.633606	0.029764	-0.000054
C54	C	-0.133606	0.529764	0.499946
C55	C	-0.539577	0.031139	-0.000058
C56	C	-0.039577	0.531139	0.499942
C57	C	-0.741643	-0.162106	-0.000015
C58	C	-0.241643	0.337894	0.499985
C59	C	-0.763653	-0.035572	-0.000033
C60	C	-0.263653	0.464428	0.499967
C61	C	-1.057485	-0.223067	-0.000017
C62	C	-0.557485	0.276933	0.499983
C63	C	-1.058951	-0.300175	-0.000005
C64	C	-0.558951	0.199825	0.499995
N65	N	-1.064555	-0.096076	-0.178191
N66	N	-0.564555	0.403924	0.321809
C67	C	-1.151683	0.152429	-0.000068
C68	C	-0.651683	0.652429	0.499932
C69	C	-1.150307	0.224881	-0.000056
C70	C	-0.650307	0.724881	0.499944
C71	C	-1.067457	0.252908	-0.000051
C72	C	-0.567457	0.752908	0.499949
C73	C	-0.985977	0.208477	-0.000039
C74	C	-0.485977	0.708477	0.499961
C75	C	-0.987356	0.136027	-0.000043
C76	C	-0.487356	0.636027	0.499957
C77	C	-1.002318	0.361417	-0.043899
C78	C	-0.502318	0.861417	0.456101
C79	C	-1.000943	0.433866	-0.043899
C80	C	-0.500943	0.933866	0.456101
C81	C	-1.063200	0.476368	-0.000034
C82	C	-0.563200	0.976368	0.499966
C83	C	-1.126848	0.446413	0.043821
C84	C	-0.626848	0.946413	0.543821
C85	C	-1.128227	0.373963	0.043817
C86	C	-0.628227	0.873963	0.543817
C87	C	-1.065952	0.331467	-0.000046
C88	C	-0.565952	0.831467	0.499954
C89	C	-1.143181	0.599350	-0.000028
C90	C	-0.643181	1.099350	0.499972
C91	C	-1.141801	0.671803	-0.000011
C92	C	-0.641801	1.171803	0.499989
C93	C	-0.977470	0.655397	-0.000002
C94	C	-0.477470	1.155397	0.499998
C95	C	-0.978852	0.582946	-0.000011
C96	C	-0.478852	1.082946	0.499989
C97	C	-1.061710	0.554927	-0.000028
C98	C	-0.561710	1.054927	0.499972
C99	C	-1.126055	-0.048938	-0.217588
C100	C	-0.626055	0.451062	0.282412
C101	C	-1.126061	-0.048935	-0.296390
C102	C	-0.626061	0.451065	0.203610
C103	C	-1.064574	-0.096081	-0.335792
C104	C	-0.564574	0.403919	0.164208
C105	C	-1.003061	-0.143222	-0.296386
C106	C	-0.503061	0.356778	0.203614
C107	C	-1.003052	-0.143220	-0.217585
C108	C	-0.503052	0.356780	0.282415
C109	C	-1.052504	-0.159328	-0.460620
C110	C	-0.552504	0.340672	0.039380
C111	C	-1.052520	-0.159332	-0.539419
C112	C	-0.552520	0.340668	-0.039419
C113	C	-1.064598	-0.096090	-0.578838
C114	C	-0.564598	0.403910	-0.078838
C115	C	-1.076679	-0.032841	-0.539449
C116	C	-0.576679	0.467159	-0.039449
C117	C	-1.076669	-0.032838	-0.460649
C118	C	-0.576669	0.467162	0.039351
C119	C	-1.064577	-0.096089	-0.421238
C120	C	-0.564577	0.403911	0.078762
C121	C	-1.126108	-0.048944	-0.703681
C122	C	-0.626108	0.451056	-0.203681
C123	C	-1.126107	-0.048940	-0.782484
C124	C	-0.626107	0.451060	-0.282484
C125	C	-1.003111	-0.143234	-0.782478
C126	C	-0.503111	0.356766	-0.282478
C127	C	-1.003108	-0.143232	-0.703677
C128	C	-0.503108	0.356768	-0.203677
C129	C	-1.064611	-0.096088	-0.664283
C130	C	-0.564611	0.403912	-0.164283
N131	N	-1.064618	-0.096086	0.178119
N132	N	-0.564618	0.403914	0.678119
H133	H	-0.810886	0.015386	-0.000042
H134	H	-0.310886	0.515386	0.499958
H135	H	-0.318279	-0.207540	-0.000018
H136	H	0.181721	0.292460	0.499982
F137	F	-0.937592	-0.193392	-0.175654
F138	F	-0.437592	0.306608	0.324346
F139	F	-1.039715	-0.226645	-0.418674
F140	F	-0.539715	0.273355	0.081326
F141	F	-1.191561	0.001233	-0.661754
F142	F	-0.691561	0.501233	-0.161754
H143	H	-0.918520	0.231301	-0.000033
H144	H	-0.418520	0.731301	0.499967
H145	H	-0.680856	0.080715	-0.000055
H146	H	-0.180856	0.580715	0.499945
F147	F	-1.191562	0.001236	-0.824415
F148	F	-0.691562	0.501236	-0.324415
F149	F	-0.900642	0.088748	-0.000034
F150	F	-0.400642	0.588748	0.499966
F151	F	-1.191508	0.001239	-0.175664
F152	F	-0.691508	0.501239	0.324336
F153	F	-1.039669	-0.226646	-0.581332
F154	F	-0.539669	0.273354	-0.081332
H155	H	-1.177543	0.481017	0.079540
H156	H	-0.677543	0.981017	0.579540
F157	F	-0.937619	-0.193397	-0.338320
F158	F	-0.437619	0.306603	0.161680
F159	F	-0.779966	-0.230171	0.000008
F160	F	-0.279966	0.269829	0.500008
F161	F	-0.937667	-0.193406	-0.824409
F162	F	-0.437667	0.306594	-0.324409
H163	H	-0.510247	0.083212	-0.000089
H164	H	-0.010247	0.583212	0.499911
H165	H	-0.448319	-0.272874	0.000004
H166	H	0.051681	0.227126	0.500004
H167	H	-1.180050	0.349577	0.079526
H168	H	-0.680050	0.849577	0.579526
F169	F	-0.349196	0.038006	-0.000071
F170	F	0.150804	0.538006	0.499929
F171	F	-0.627912	-0.291380	0.000010
F172	F	-0.127912	0.208620	0.500010
H173	H	-1.208146	0.707971	-0.000014
H174	H	-0.708146	1.207971	0.499986
H175	H	-1.219153	0.129621	-0.000079
H176	H	-0.719153	0.629621	0.499921
F177	F	-1.237020	0.272166	-0.000063
F178	F	-0.737020	0.772166	0.499937
H179	H	-1.210650	0.576536	-0.000038
H180	H	-0.710650	1.076536	0.499962
F181	F	-0.937654	-0.193406	-0.661744
F182	F	-0.437654	0.306594	-0.161744
H183	H	-0.910012	0.678216	0.000006
H184	H	-0.410012	1.178216	0.500006
H185	H	-0.949113	0.458249	-0.079604
H186	H	-0.449113	0.958249	0.420396
F187	F	-0.892141	0.535668	-0.000005
F188	F	-0.392141	1.035668	0.499995
H189	H	-0.951619	0.326817	-0.079622
H190	H	-0.451619	0.826817	0.420378
F191	F	-1.191522	0.001238	-0.338326
F192	F	-0.691522	0.501238	0.161674
F193	F	-1.089519	0.034474	-0.418731
F194	F	-0.589519	0.534474	0.081269
H195	H	-1.086513	0.018657	-0.571543
H196	H	-0.586513	0.518657	-0.071543
