data_functionalizedCrystal
_audit_creation_method	'MofGen! by Chris Wilmer'
_symmetry_space_group_name_H-M	'P1'
_symmetry_Int_Tables_number	1
_symmetry_cell_setting	triclinic
loop_
_symmetry_equiv_pos_as_xyz
  x,y,z
_cell_length_a	14.044191
_cell_length_b	11.792241
_cell_length_c	10.868271
_cell_angle_alpha	90.005281
_cell_angle_beta	89.998192
_cell_angle_gamma	91.307404
loop_
_atom_site_label
_atom_site_type_symbol
_atom_site_fract_x
_atom_site_fract_y
_atom_site_fract_z
O1	O	1.259115	-0.273808	-0.102263
O2	O	1.592449	0.059525	0.231070
O3	O	1.925782	0.392858	0.564403
O4	O	0.983095	-0.263921	-0.102279
O5	O	1.316428	0.069412	0.231054
O6	O	1.649762	0.402746	0.564388
O7	O	1.127803	-0.104323	-0.102262
O8	O	1.461137	0.229010	0.231071
O9	O	1.794470	0.562343	0.564405
O10	O	1.114407	-0.433406	-0.102280
O11	O	1.447740	-0.100073	0.231053
O12	O	1.781073	0.233260	0.564386
O13	O	1.127791	-0.104315	0.102383
O14	O	1.461125	0.229018	0.435716
O15	O	1.794458	0.562351	0.769049
O16	O	0.983083	-0.263913	0.102366
O17	O	1.316416	0.069420	0.435699
O18	O	1.649750	0.402754	0.769032
O19	O	1.259103	-0.273801	0.102381
O20	O	1.592437	0.059533	0.435715
O21	O	1.925770	0.392866	0.769048
Zn22	Zn	1.121091	-0.268856	0.134865
Zn23	Zn	1.454424	0.064478	0.468199
Zn24	Zn	1.787758	0.397811	0.801532
Zn25	Zn	1.121107	-0.268866	-0.134763
Zn26	Zn	1.454440	0.064467	0.198570
Zn27	Zn	1.787774	0.397801	0.531904
O28	O	1.114395	-0.433398	0.102364
O29	O	1.447728	-0.100065	0.435698
O30	O	1.781061	0.233268	0.769031
C31	C	0.947752	-0.259592	0.000041
C32	C	1.281085	0.073742	0.333375
C33	C	1.614419	0.407075	0.666708
C34	C	0.842460	-0.246689	0.000036
C35	C	1.175793	0.086644	0.333369
C36	C	1.509127	0.419977	0.666702
C37	C	0.592522	-0.314607	0.000044
C38	C	0.925856	0.018727	0.333378
C39	C	1.259189	0.352060	0.666711
C40	C	0.649681	-0.223120	0.000047
C41	C	0.983015	0.110213	0.333381
C42	C	1.316348	0.443547	0.666714
C43	C	0.756953	-0.236237	0.000041
C44	C	1.090286	0.097096	0.333374
C45	C	1.423620	0.430430	0.666708
C46	C	0.485241	-0.301491	0.000051
C47	C	0.818574	0.031842	0.333384
C48	C	1.151907	0.365175	0.666717
C49	C	1.126956	-0.061949	0.000060
C50	C	1.460289	0.271384	0.333393
C51	C	1.793622	0.604717	0.666726
C52	C	1.124437	0.064301	0.000058
C53	C	1.457770	0.397634	0.333392
C54	C	1.791104	0.730968	0.666725
C55	C	1.294446	-0.278130	0.000058
C56	C	1.627779	0.055203	0.333391
C57	C	1.961113	0.388537	0.666725
C58	C	1.399738	-0.291032	0.000056
C59	C	1.733072	0.042301	0.333389
C60	C	2.066405	0.375635	0.666722
C61	C	1.115242	-0.475772	0.000040
C62	C	1.448576	-0.142439	0.333373
C63	C	1.781909	0.190894	0.666707
C64	C	1.117761	-0.602023	0.000033
C65	C	1.451094	-0.268689	0.333366
C66	C	1.784428	0.064644	0.666700
N67	N	1.121087	-0.268848	0.318879
N68	N	1.454421	0.064485	0.652213
N69	N	1.787754	0.397818	0.985546
C70	C	1.119806	0.295448	0.000038
C71	C	1.453139	0.628781	0.333371
C72	C	1.786472	0.962115	0.666704
C73	C	1.122379	0.166821	0.000049
C74	C	1.455712	0.500155	0.333382
C75	C	1.789046	0.833488	0.666716
N76	N	1.121118	-0.268865	-0.318777
N77	N	1.454452	0.064468	0.014556
N78	N	1.787785	0.397802	0.347890
C79	C	1.121102	-0.268863	0.569885
C80	C	1.454435	0.064470	0.903219
C81	C	1.787769	0.397804	1.236552
C82	C	1.121091	-0.268858	0.430208
C83	C	1.454424	0.064475	0.763541
C84	C	1.787757	0.397809	1.096875
H85	H	0.624149	-0.402776	0.000036
H86	H	0.957483	-0.069442	0.333369
H87	H	1.290816	0.263891	0.666702
C88	C	0.637360	-0.045024	-0.105158
C89	C	0.970693	0.288310	0.228175
C90	C	1.304027	0.621643	0.561509
C91	C	0.606997	-0.104080	0.000044
C92	C	0.940330	0.229254	0.333378
C93	C	1.273664	0.562587	0.666711
H94	H	0.611010	0.028466	-0.105157
H95	H	0.944343	0.361799	0.228176
H96	H	1.277676	0.695133	0.561509
H97	H	0.616769	-0.085118	-0.176505
H98	H	0.950102	0.248215	0.156828
H99	H	1.283435	0.581548	0.490161
H100	H	0.704895	-0.038352	-0.105145
H101	H	1.038229	0.294981	0.228188
H102	H	1.371562	0.628315	0.561521
H103	H	0.539462	-0.110758	0.000027
H104	H	0.872795	0.222575	0.333360
H105	H	1.206128	0.555908	0.666694
H106	H	0.627583	-0.063975	0.071410
H107	H	0.960916	0.269358	0.404743
H108	H	1.294249	0.602692	0.738077
