data_functionalizedCrystal
_audit_creation_method	'MofGen! by Chris Wilmer'
_symmetry_space_group_name_H-M	'P1'
_symmetry_Int_Tables_number	1
_symmetry_cell_setting	triclinic
loop_
_symmetry_equiv_pos_as_xyz
  x,y,z
_cell_length_a	17.699083
_cell_length_b	16.974813
_cell_length_c	16.176319
_cell_angle_alpha	86.338635
_cell_angle_beta	89.998611
_cell_angle_gamma	83.339637
loop_
_atom_site_label
_atom_site_type_symbol
_atom_site_fract_x
_atom_site_fract_y
_atom_site_fract_z
O1	O	1.004151	0.099992	-0.075319
O2	O	0.783782	0.113001	-0.076216
O3	O	0.900110	-0.008619	-0.068062
O4	O	0.887824	0.221612	-0.083473
O5	O	0.900094	-0.008626	0.069432
O6	O	0.783766	0.112994	0.061278
O7	O	1.004135	0.099985	0.062175
Cu8	Cu	0.893949	0.106488	0.074280
Cu9	Cu	0.893968	0.106498	-0.088322
O10	O	0.887808	0.221605	0.054020
C11	C	0.755577	0.112531	-0.007442
C12	C	0.671558	0.111133	-0.007358
C13	C	0.622988	0.182521	-0.012137
C14	C	0.544044	0.181203	-0.012038
C15	C	0.513671	0.108495	-0.007166
C16	C	0.562246	0.037101	-0.002385
C17	C	0.641189	0.038420	-0.002478
C18	C	0.243879	0.031778	-0.002008
C19	C	0.164930	0.030464	-0.001918
C20	C	0.146735	0.174560	-0.011568
C21	C	0.225677	0.175880	-0.011661
C22	C	0.274246	0.104486	-0.006875
C23	C	0.359846	0.105917	-0.006981
C24	C	0.428072	0.107063	-0.007066
C25	C	0.899634	-0.038080	0.002655
C26	C	0.898232	-0.125855	0.008525
C27	C	0.897584	-0.167082	-0.063665
C28	C	0.896261	-0.249555	-0.058147
C29	C	0.895593	-0.290799	0.019561
C30	C	0.896239	-0.249565	0.091756
C31	C	0.897556	-0.167093	0.086238
C32	C	0.891648	-0.537454	0.044103
C33	C	0.890334	-0.619932	0.049616
C34	C	0.890355	-0.619916	-0.100288
C35	C	0.891676	-0.537443	-0.105799
C36	C	0.892318	-0.496216	-0.033605
N37	N	0.894244	-0.375100	0.025203
N38	N	0.893662	-0.411916	-0.039247
C39	C	1.032340	0.100455	-0.006602
C40	C	1.116360	0.101853	-0.006690
C41	C	0.888283	0.251066	-0.016698
C42	C	0.889685	0.338840	-0.022573
N43	N	0.893941	0.106481	0.188646
N44	N	0.893982	0.106498	-0.202687
C45	C	0.945467	0.052650	0.235520
C46	C	0.945471	0.052649	0.322067
C47	C	0.893952	0.106484	0.361739
C48	C	0.842421	0.160318	0.314859
C49	C	0.842415	0.160315	0.228314
C50	C	0.842447	0.160333	0.663886
C51	C	0.842460	0.160334	0.750438
C52	C	0.945503	0.052668	0.757639
C53	C	0.945496	0.052664	0.671094
C54	C	0.893963	0.106495	0.624222
C55	C	0.893959	0.106494	0.530378
C56	C	0.893960	0.106489	0.455581
H57	H	0.250403	0.235086	-0.015632
O58	O	0.898121	-0.126925	-0.139109
C59	C	0.833350	-0.070161	-0.147402
H60	H	0.811709	-0.054778	-0.083357
H61	H	0.849001	-0.014208	-0.182880
H62	H	0.786964	-0.095596	-0.182676
H63	H	0.987450	0.008829	0.638796
H64	H	0.107180	0.232692	-0.015460
O65	O	0.895456	-0.289575	0.167260
C66	C	0.830265	-0.260336	0.210902
H67	H	0.784837	-0.231316	0.165102
H68	H	0.807406	-0.311530	0.248321
H69	H	0.845835	-0.214522	0.254573
H70	H	0.537510	-0.022099	0.001594
O71	O	0.135551	-0.040238	0.002861
C72	C	0.195346	-0.102970	0.007047
H73	H	0.248953	-0.080912	0.031597
H74	H	0.178896	-0.153739	0.050369
H75	H	0.206539	-0.124987	-0.057440
O76	O	0.792366	0.212702	0.618485
C77	C	0.746888	0.260206	0.672063
H78	H	0.777926	0.261059	0.733692
H79	H	0.735269	0.323368	0.642825
H80	H	0.690696	0.234605	0.682995
O81	O	0.995628	0.000335	0.803047
C82	C	1.041084	-0.047193	0.749472
H83	H	1.041902	-0.014772	0.685609
H84	H	1.101539	-0.059340	0.775286
H85	H	1.016571	-0.105898	0.744201
H86	H	0.680734	-0.019712	0.001413
O87	O	0.792376	0.212520	0.789075
C88	C	0.745733	0.170227	0.841966
H89	H	0.775952	0.108316	0.859074
H90	H	0.733730	0.203245	0.900614
H91	H	0.689800	0.164920	0.808980
O92	O	0.995604	0.000336	0.367473
C93	C	1.041068	-0.047186	0.313900
H94	H	1.041871	-0.014771	0.250032
H95	H	1.101526	-0.059311	0.339707
H96	H	1.016571	-0.105902	0.308640
H97	H	0.800470	0.204149	0.347165
H98	H	0.892222	-0.503868	-0.169078
H99	H	0.895737	-0.283120	-0.116931
H100	H	0.283415	-0.026355	0.001890
O101	O	0.889609	-0.659868	-0.170468
C102	C	0.824399	-0.630640	-0.218000
H103	H	0.803526	-0.567730	-0.200903
H104	H	0.839169	-0.629864	-0.286621
H105	H	0.777775	-0.670689	-0.204914
H106	H	0.892186	-0.503898	0.102890
O107	O	0.652364	0.253220	-0.016838
C108	C	0.592563	0.315946	-0.021054
H109	H	0.538959	0.293880	0.006457
H110	H	0.609007	0.366716	0.015464
H111	H	0.581366	0.337963	-0.088490
O112	O	0.496790	0.250499	-0.016795
C113	C	0.450594	0.254055	-0.088250
H114	H	0.446663	0.191301	-0.107779
H115	H	0.391232	0.283628	-0.074216
H116	H	0.476530	0.290112	-0.140534
H117	H	0.800457	0.204149	0.190150
H118	H	0.898073	-0.133525	0.145022
O119	O	0.889649	-0.659870	0.125172
C120	C	0.890516	-0.605801	0.187711
H121	H	0.867505	-0.543690	0.161583
H122	H	0.853399	-0.624550	0.241375
H123	H	0.951341	-0.605441	0.210746
O124	O	0.995394	0.000290	0.196918
C125	C	0.954884	-0.048451	0.150173
H126	H	0.895642	-0.016852	0.135076
H127	H	0.986482	-0.061056	0.090164
H128	H	0.949770	-0.106857	0.187478
