data_functionalizedCrystal
_audit_creation_method	'MofGen! by Chris Wilmer'
_symmetry_space_group_name_H-M	'P1'
_symmetry_Int_Tables_number	1
_symmetry_cell_setting	triclinic
loop_
_symmetry_equiv_pos_as_xyz
  x,y,z
_cell_length_a	12.759395
_cell_length_b	21.295417
_cell_length_c	21.295412
_cell_angle_alpha	89.969332
_cell_angle_beta	89.978893
_cell_angle_gamma	90.032044
loop_
_atom_site_label
_atom_site_type_symbol
_atom_site_fract_x
_atom_site_fract_y
_atom_site_fract_z
Zn1	Zn	1.606159	-0.250599	-0.355871
Zn2	Zn	1.606000	-0.355868	-0.250596
Zn3	Zn	1.430456	-0.250619	-0.250620
Zn4	Zn	1.430402	-0.355837	-0.355833
O5	O	1.518254	-0.303231	-0.303230
O6	O	1.753159	-0.264568	-0.341912
O7	O	1.582669	-0.341927	-0.162510
O8	O	1.453853	-0.162527	-0.264608
O9	O	1.753042	-0.341908	-0.264567
O10	O	1.582942	-0.162512	-0.341935
O11	O	1.453698	-0.264601	-0.162528
O12	O	1.283428	-0.264572	-0.264571
O13	O	1.453760	-0.341856	-0.443927
O14	O	1.283388	-0.341875	-0.341870
O15	O	1.582889	-0.264538	-0.443955
O16	O	1.582617	-0.443953	-0.264530
O17	O	1.453605	-0.443931	-0.341847
C18	C	1.245287	-0.303223	-0.303219
C19	C	1.128510	-0.303235	-0.303230
C20	C	1.518116	-0.466782	-0.303195
C21	C	1.518154	-0.536750	-0.303201
C22	C	1.128507	-0.383861	-0.383591
C23	C	1.073645	-0.424179	-0.423773
C24	C	0.963923	-0.424187	-0.423781
C25	C	0.909061	-0.383871	-0.383603
C26	C	0.963924	-0.343553	-0.343421
C27	C	1.073648	-0.343551	-0.343416
C28	C	0.963926	-0.262924	-0.263064
C29	C	1.073648	-0.262919	-0.263052
C30	C	0.909065	-0.222608	-0.222886
C31	C	0.963927	-0.182292	-0.182700
C32	C	1.073655	-0.182287	-0.182693
C33	C	1.128510	-0.222601	-0.222870
C34	C	1.585389	-0.569608	-0.262984
C35	C	1.585439	-0.635350	-0.262998
C36	C	1.518233	-0.668233	-0.303223
C37	C	1.450993	-0.635368	-0.343448
C38	C	1.450953	-0.569626	-0.343438
N39	N	1.426326	-0.771500	-0.308018
N40	N	1.426367	-0.833952	-0.308025
C41	C	1.518351	-0.866308	-0.303259
N42	N	1.610294	-0.833853	-0.298474
N43	N	1.610252	-0.771396	-0.298464
C44	C	1.518270	-0.739518	-0.303240
C45	C	1.585646	-0.970450	-0.263055
C46	C	1.585697	-1.036194	-0.263073
C47	C	1.451242	-1.036210	-0.343520
C48	C	1.451200	-0.970468	-0.343505
C49	C	1.518401	-0.937592	-0.303269
C50	C	1.792288	-0.303239	-0.303241
C51	C	1.909064	-0.303242	-0.303246
C52	C	1.518336	-0.303192	-0.467420
C53	C	1.518371	-0.303175	-0.537389
C54	C	1.518421	-0.139040	-0.303279
C55	C	1.518492	-0.069072	-0.303300
C56	C	1.451234	-0.262907	-0.570254
C57	C	1.451230	-0.262895	-0.635997
C58	C	1.518383	-0.303145	-0.668871
C59	C	1.585525	-0.343421	-0.635997
C60	C	1.585519	-0.343436	-0.570256
N61	N	1.610352	-0.307951	-0.772107
N62	N	1.610354	-0.307933	-0.834559
C63	C	1.518402	-0.303103	-0.866946
N64	N	1.426445	-0.298279	-0.834523
N65	N	1.426444	-0.298294	-0.772065
C66	C	1.518396	-0.303133	-0.740157
C67	C	1.451255	-0.262820	-0.971097
C68	C	1.451249	-0.262813	-1.036841
C69	C	1.585553	-0.343335	-1.036840
C70	C	1.585550	-0.343346	-0.971098
C71	C	1.518402	-0.303085	-0.938230
C72	C	1.518233	-0.303224	-0.139679
C73	C	1.518401	-0.303064	-0.069711
H74	H	1.217848	-0.383864	-0.383584
O75	O	1.385904	-0.223782	-0.538426
C76	C	1.252749	-0.143883	-0.545368
C77	C	1.326664	-0.188170	-0.581494
H78	H	1.204850	-0.115070	-0.580172
H79	H	1.197707	-0.172757	-0.514588
H80	H	1.301034	-0.111005	-0.514591
H81	H	1.278463	-0.221057	-0.612304
H82	H	1.381709	-0.159257	-0.612234
O83	O	1.385813	-1.068076	-0.382565
C84	C	1.207087	-1.088302	-0.413008
C85	C	1.281063	-1.052160	-0.368757
H86	H	1.122379	-1.075457	-0.401852
H87	H	1.225399	-1.075317	-0.463785
H88	H	1.218722	-1.140930	-0.406120
H89	H	1.269469	-0.999523	-0.375590
H90	H	1.262732	-1.065197	-0.317998
O91	O	1.650873	-0.382427	-0.667956
C92	C	1.792680	-0.390882	-0.742229
C93	C	1.718757	-0.346632	-0.706066
H94	H	1.847569	-0.361960	-0.773060
H95	H	1.840744	-0.419655	-0.707470
H96	H	1.744394	-0.423801	-0.772962
H97	H	1.766962	-0.313675	-0.675331
H98	H	1.670690	-0.317903	-0.740858
H99	H	1.396560	-0.230101	-0.662762
O100	O	1.650796	-0.382464	-0.538258
C101	C	1.792672	-0.390950	-0.464089
C102	C	1.718795	-0.346681	-0.500278
H103	H	1.847682	-0.362036	-0.433383
H104	H	1.744458	-0.423858	-0.433246
H105	H	1.840618	-0.419732	-0.498887
H106	H	1.670833	-0.317857	-0.465525
H107	H	1.767069	-0.313814	-0.531130
H108	H	1.396578	-0.230038	-0.944335
O109	O	1.650727	-0.382544	-0.939238
C110	C	1.701581	-0.489628	-0.919070
C111	C	1.627718	-0.445303	-0.955201
H112	H	1.682990	-0.540379	-0.931953
H113	H	1.786326	-0.478624	-0.932030
H114	H	1.690063	-0.482693	-0.866440
H115	H	1.639142	-0.452214	-1.007839
H116	H	1.543000	-0.456319	-0.942189
O117	O	1.650592	-0.667339	-0.223883
C118	C	1.664771	-0.741565	-0.138865
C119	C	1.590878	-0.705395	-0.183143
H120	H	1.616521	-0.772332	-0.105907
H121	H	1.719702	-0.772344	-0.167744
H122	H	1.712802	-0.706754	-0.110137
H123	H	1.542779	-0.740160	-0.211881
H124	H	1.536017	-0.674606	-0.154228
O125	O	0.802482	-0.222515	-0.222949
C126	C	0.645078	-0.162193	-0.239207
C127	C	0.765782	-0.162213	-0.239177
H128	H	0.615370	-0.113441	-0.252314
H129	H	0.615232	-0.197899	-0.274846
H130	H	0.615272	-0.175218	-0.190434
H131	H	0.795678	-0.149172	-0.287924
H132	H	0.795557	-0.126520	-0.203505
H133	H	1.217852	-0.222602	-0.222866
H134	H	1.118325	-0.457003	-0.456486
H135	H	1.640233	-0.376106	-1.063606
O136	O	0.910787	-0.463406	-0.462837
C137	C	0.922350	-0.543344	-0.542579
C138	C	0.982657	-0.498974	-0.498368
H139	H	0.980431	-0.572103	-0.571328
H140	H	0.870958	-0.576264	-0.513651
H141	H	0.871004	-0.514475	-0.575522
H142	H	1.034060	-0.527793	-0.465417
H143	H	1.033983	-0.466052	-0.527336
O144	O	0.910590	-0.143224	-0.143608
C145	C	0.786590	-0.134641	-0.058675
C146	C	0.846951	-0.178958	-0.102899
H147	H	0.735106	-0.163514	-0.025760
H148	H	0.844598	-0.105837	-0.029904
H149	H	0.735322	-0.101755	-0.087658
H150	H	0.898220	-0.211882	-0.073965
H151	H	0.788886	-0.207718	-0.131672
O152	O	1.126783	-0.143102	-0.143598
C153	C	1.115192	-0.063103	-0.063919
C154	C	1.054901	-0.107457	-0.108153
H155	H	1.057102	-0.034263	-0.035259
H156	H	1.166478	-0.091925	-0.030900
H157	H	1.166643	-0.030253	-0.092888
H158	H	1.003392	-0.140316	-0.079235
H159	H	1.003681	-0.078596	-0.141174
H160	H	0.819720	-0.383875	-0.383618
H161	H	1.396570	-0.230024	-1.063600
H162	H	1.640111	-0.542842	-0.230223
O163	O	1.385821	-0.667279	-0.382613
C164	C	1.334705	-0.687321	-0.489665
C165	C	1.408591	-0.651155	-0.445380
H166	H	1.353073	-0.674288	-0.540421
H167	H	1.346284	-0.739960	-0.482818
H168	H	1.249997	-0.674456	-0.478533
H169	H	1.493327	-0.663967	-0.456484
H170	H	1.396920	-0.598525	-0.452235
O171	O	1.385783	-0.537677	-0.382571
C172	C	1.371528	-0.463367	-0.467510
C173	C	1.445454	-0.499523	-0.423242
H174	H	1.419741	-0.432501	-0.500394
H175	H	1.323521	-0.498131	-0.496312
H176	H	1.316576	-0.432670	-0.438560
H177	H	1.500469	-0.530221	-0.452143
H178	H	1.493387	-0.464726	-0.394438
O179	O	1.651024	-0.938607	-0.223954
C180	C	1.784336	-0.945528	-0.144134
C181	C	1.710370	-0.981666	-0.188395
H182	H	1.832321	-0.980325	-0.115364
H183	H	1.839297	-0.914712	-0.173025
H184	H	1.736087	-0.914787	-0.111215
H185	H	1.758535	-1.012441	-0.221323
H186	H	1.655406	-1.012443	-0.159465
H187	H	1.640455	-1.062945	-0.230325
O188	O	1.385927	-0.938616	-0.382654
C189	C	1.334856	-0.918425	-0.489702
C190	C	1.408829	-0.954546	-0.445433
H191	H	1.353361	-0.931281	-0.540468
H192	H	1.250142	-0.931420	-0.478655
H193	H	1.346351	-0.865794	-0.482753
H194	H	1.397428	-1.007186	-0.452358
H195	H	1.493516	-0.941499	-0.456491
