data_functionalizedCrystal
_audit_creation_method	'MofGen! by Chris Wilmer'
_symmetry_space_group_name_H-M	'P1'
_symmetry_Int_Tables_number	1
_symmetry_cell_setting	triclinic
loop_
_symmetry_equiv_pos_as_xyz
  x,y,z
_cell_length_a	10.654541
_cell_length_b	14.044220
_cell_length_c	9.130307
_cell_angle_alpha	89.995545
_cell_angle_beta	89.999822
_cell_angle_gamma	88.836403
loop_
_atom_site_label
_atom_site_type_symbol
_atom_site_fract_x
_atom_site_fract_y
_atom_site_fract_z
O1	O	1.681226	0.133219	-0.121759
O2	O	1.317023	0.145915	-0.121772
O3	O	1.493658	0.001547	-0.121751
O4	O	1.504591	0.277588	-0.121780
O5	O	1.493651	0.001545	0.121848
O6	O	1.317016	0.145914	0.121827
O7	O	1.681220	0.133218	0.121840
Cu8	Cu	1.499117	0.139565	0.144076
Cu9	Cu	1.499125	0.139567	-0.144008
O10	O	1.504585	0.277586	0.121819
C11	C	1.270128	0.144983	0.000026
C12	C	1.130404	0.142195	0.000021
C13	C	1.488869	-0.033800	0.000049
C14	C	1.474593	-0.139120	0.000050
C15	C	1.119781	0.314827	-0.000015
C16	C	1.048829	0.399829	-0.000039
C17	C	0.917547	0.397204	-0.000040
C18	C	0.857215	0.309567	-0.000013
C19	C	0.928167	0.224565	0.000011
C20	C	1.059452	0.227199	0.000008
C21	C	0.938790	0.051935	0.000058
C22	C	1.070072	0.054558	0.000049
C23	C	0.878458	-0.035701	0.000085
C24	C	0.949411	-0.120706	0.000098
C25	C	1.080701	-0.118077	0.000098
C26	C	1.141025	-0.030444	0.000072
C27	C	1.448494	-0.331952	0.000028
C28	C	1.549742	-0.388921	0.000027
C29	C	1.535221	-0.496219	0.000015
C30	C	1.463014	-0.224644	0.000040
C31	C	1.728114	0.134150	0.000039
C32	C	1.867838	0.136938	0.000034
C33	C	1.509374	0.312933	0.000016
C34	C	1.523649	0.418252	0.000005
N35	N	1.499121	0.139564	0.346699
N36	N	1.499130	0.139561	-0.346631
C37	C	1.655605	0.011763	0.346707
C38	C	1.733855	-0.052134	0.423378
C39	C	1.733868	-0.052135	0.576712
C40	C	1.655619	0.011767	0.653378
C41	C	1.577368	0.075664	0.576707
C42	C	1.577367	0.075660	0.423370
C43	C	1.420880	0.203459	0.576698
C44	C	1.420872	0.203466	0.423365
C45	C	1.342631	0.267361	0.653364
C46	C	1.264385	0.331265	0.576693
C47	C	1.264377	0.331263	0.423351
C48	C	1.342621	0.267363	0.346694
H49	H	1.226677	0.316973	-0.000046
H50	H	1.797563	-0.104165	0.360944
H51	H	1.350915	-0.363762	0.000021
H52	H	1.797581	-0.104169	0.639138
Br53	Br	1.655618	0.011773	0.138611
Br54	Br	1.158189	0.417972	0.680742
Br55	Br	1.130712	0.518759	-0.000071
H56	H	1.200651	0.383293	0.360933
H57	H	1.655622	0.011755	0.778230
Br58	Br	1.342633	0.267357	0.861461
Br59	Br	0.700289	-0.039266	0.000096
Br60	Br	1.342626	0.267362	0.138597
H61	H	0.750318	0.307437	0.000004
Br62	Br	0.821249	0.512564	-0.000052
H63	H	1.647330	-0.357109	-0.000067
Br64	Br	0.867527	-0.239628	0.000153
Br65	Br	1.176983	-0.233444	0.000148
H66	H	1.247921	-0.028295	0.000055
