data_functionalizedCrystal
_audit_creation_method	'MofGen! by Chris Wilmer'
_symmetry_space_group_name_H-M	'P1'
_symmetry_Int_Tables_number	1
_symmetry_cell_setting	triclinic
loop_
_symmetry_equiv_pos_as_xyz
  x,y,z
_cell_length_a	19.288865
_cell_length_b	10.654550
_cell_length_c	9.130313
_cell_angle_alpha	90.000276
_cell_angle_beta	89.990258
_cell_angle_gamma	96.189411
loop_
_atom_site_label
_atom_site_type_symbol
_atom_site_fract_x
_atom_site_fract_y
_atom_site_fract_z
O1	O	0.097555	-1.665751	-0.121709
O2	O	0.106849	-1.300074	-0.121738
O3	O	0.001141	-1.493479	-0.121693
O4	O	0.203263	-1.472346	-0.121753
O5	O	0.001138	-1.493466	0.121905
O6	O	0.106846	-1.300061	0.121861
O7	O	0.097552	-1.665738	0.121890
Cu8	Cu	0.102198	-1.482898	0.144118
Cu9	Cu	0.102202	-1.482914	-0.143966
O10	O	0.203260	-1.472333	0.121846
C11	C	0.106165	-1.253284	0.000059
C12	C	0.104123	-1.113884	0.000049
C13	C	-0.024742	-1.492792	0.000110
C14	C	-0.101859	-1.490751	0.000123
C15	C	0.098236	-1.712528	0.000090
C16	C	0.100277	-1.851928	0.000091
C17	C	-0.145812	-1.604232	0.000139
C18	C	-0.218272	-1.602315	0.000116
C19	C	-0.246775	-1.486909	0.000106
C20	C	-0.202812	-1.373413	0.000081
C21	C	-0.130354	-1.375334	0.000090
C22	C	-0.355657	-1.396183	0.085426
C23	C	-0.428114	-1.394266	0.085426
C24	C	-0.470259	-1.480980	0.000073
C25	C	-0.439940	-1.569631	-0.085263
C26	C	-0.367482	-1.571552	-0.085254
C27	C	-0.325343	-1.484814	0.000095
C28	C	-0.592782	-1.592390	0.000061
C29	C	-0.665243	-1.590467	0.000029
C30	C	-0.649781	-1.361562	0.000009
C31	C	-0.577322	-1.363488	0.000027
C32	C	-0.548827	-1.478905	0.000060
C33	C	0.229142	-1.473020	0.000039
C34	C	0.306259	-1.475061	0.000016
N35	N	0.102195	-1.482896	0.346741
C36	C	0.166363	-1.033066	0.000035
C37	C	0.164440	-0.902087	0.000061
C38	C	0.038033	-0.932756	0.000109
C39	C	0.039956	-1.063733	0.000094
N40	N	0.102200	-1.482925	-0.346588
C41	C	0.055408	-1.568565	0.423412
C42	C	0.055408	-1.568577	0.576749
C43	C	0.148990	-1.397248	0.576729
C44	C	0.148986	-1.397231	0.423395
H45	H	-0.254065	-1.694728	0.000123
C46	C	-0.032546	-0.877590	0.000140
H47	H	-0.069338	-0.944485	0.000159
H48	H	-0.035923	-0.827128	-0.084802
H49	H	-0.035924	-0.827140	0.085105
H50	H	-0.569580	-1.686369	0.000081
C51	C	0.232901	-0.813187	0.000038
H52	H	0.222569	-0.727997	0.000068
H53	H	0.259184	-0.828343	-0.084925
H54	H	0.259186	-0.828362	0.084983
H55	H	0.017308	-1.638334	0.639171
C56	C	0.200461	-1.303036	0.661054
H57	H	0.193768	-1.315323	0.763356
H58	H	0.192488	-1.219269	0.635947
H59	H	0.246888	-1.316414	0.635895
H60	H	0.187086	-1.327464	0.360965
H61	H	-0.321348	-1.325567	0.154939
H62	H	-0.010730	-1.129539	0.000109
H63	H	-0.342798	-1.643732	-0.154740
C64	C	-0.114467	-1.731182	0.000170
H65	H	-0.065018	-1.716078	0.000186
H66	H	-0.129510	-1.777906	-0.084769
H67	H	-0.129528	-1.777876	0.085138
C68	C	-0.486289	-1.665014	-0.179167
H69	H	-0.533784	-1.651166	-0.166970
H70	H	-0.480032	-1.748415	-0.149159
H71	H	-0.473652	-1.654285	-0.279316
C72	C	0.003942	-1.662789	0.339090
H73	H	0.010645	-1.650523	0.236787
H74	H	-0.042485	-1.649432	0.364239
H75	H	0.011927	-1.746555	0.364209
C76	C	-0.681126	-1.234618	-0.000006
H77	H	-0.730575	-1.249725	-0.000003
H78	H	-0.666065	-1.187913	-0.084957
H79	H	-0.666086	-1.187905	0.084951
C80	C	-0.713592	-1.715303	0.000049
H81	H	-0.686241	-1.784311	0.000084
H82	H	-0.742170	-1.719328	-0.084902
H83	H	-0.742187	-1.719296	0.085005
H84	H	-0.541534	-1.271079	0.000022
H85	H	-0.452794	-1.322076	0.154903
C86	C	-0.234162	-1.246471	0.000076
H87	H	-0.283611	-1.261579	0.000088
H88	H	-0.219105	-1.199764	-0.084875
H89	H	-0.219119	-1.199759	0.085032
H90	H	-0.094566	-1.282921	0.000077
C91	C	0.236942	-1.088230	0.000001
H92	H	0.273734	-1.021334	0.000010
H93	H	0.240323	-1.138680	-0.084953
H94	H	0.240319	-1.138692	0.084954
