data_functionalizedCrystal
_audit_creation_method	'MofGen! by Chris Wilmer'
_symmetry_space_group_name_H-M	'P1'
_symmetry_Int_Tables_number	1
_symmetry_cell_setting	triclinic
loop_
_symmetry_equiv_pos_as_xyz
  x,y,z
_cell_length_a	14.519710
_cell_length_b	14.853567
_cell_length_c	13.330367
_cell_angle_alpha	90.000844
_cell_angle_beta	89.993389
_cell_angle_gamma	96.342463
loop_
_atom_site_label
_atom_site_type_symbol
_atom_site_fract_x
_atom_site_fract_y
_atom_site_fract_z
O1	O	1.223824	-0.118179	-0.083393
O2	O	0.955341	-0.132096	-0.083399
O3	O	1.096754	0.006090	-0.083399
O4	O	1.082411	-0.256364	-0.083393
O5	O	1.096733	0.006093	0.083448
O6	O	0.955321	-0.132093	0.083448
O7	O	1.223803	-0.118175	0.083454
Cu8	Cu	1.089560	-0.125134	0.098686
Cu9	Cu	1.089584	-0.125137	-0.098630
O10	O	1.082390	-0.256361	0.083454
C11	C	1.096094	0.039680	0.000022
C12	C	1.094146	0.139765	0.000013
C13	C	0.920971	-0.131446	0.000024
C14	C	0.818591	-0.129502	0.000021
C15	C	1.258173	-0.118826	0.000029
C16	C	1.360553	-0.120769	0.000025
C17	C	1.735446	-0.127924	0.000025
C18	C	1.631139	-0.125937	0.000025
C19	C	1.548003	-0.124347	0.000024
C20	C	1.443689	-0.122360	0.000026
C21	C	1.083050	-0.289952	0.000031
C22	C	1.084998	-0.390036	0.000034
N23	N	1.089550	-0.125131	0.237467
C24	C	1.001911	0.552334	0.000030
C25	C	1.169913	0.573550	0.000034
C26	C	1.171744	0.479516	0.000028
C27	C	1.088658	0.421886	0.000025
C28	C	1.003740	0.458291	0.000027
C29	C	1.256661	0.443104	0.000036
C30	C	1.258495	0.349064	0.000031
C31	C	1.175408	0.291433	0.000020
C32	C	1.090486	0.327843	0.000022
C33	C	1.007400	0.270213	0.000019
C34	C	0.922478	0.306621	0.000013
C35	C	0.920653	0.400660	0.000017
C36	C	1.177233	0.197394	0.000016
C37	C	1.009229	0.176170	0.000016
N38	N	1.089602	-0.125133	-0.237412
C39	C	1.026964	-0.186302	0.710090
C40	C	1.152229	-0.063966	0.710058
C41	C	1.152219	-0.063963	0.605040
C42	C	1.089581	-0.125132	0.552542
C43	C	1.026953	-0.186303	0.605062
C44	C	1.214852	-0.002799	0.552512
C45	C	1.214844	-0.002795	0.447487
C46	C	1.152201	-0.063959	0.394987
C47	C	1.089571	-0.125132	0.447514
C48	C	1.026933	-0.186301	0.395016
C49	C	0.964297	-0.247470	0.447541
C50	C	0.964310	-0.247468	0.552562
C51	C	1.152188	-0.063962	0.289965
C52	C	1.026922	-0.186302	0.289988
H53	H	0.854829	0.259687	0.000018
H54	H	0.932770	0.581982	0.000022
H55	H	0.851513	0.430312	0.000014
H56	H	0.941568	0.129253	0.000009
H57	H	1.324305	0.490032	0.000047
C58	C	0.958872	-0.252817	0.233175
C59	C	0.904041	-0.306396	0.301654
C60	C	0.841353	-0.367687	0.249356
H61	H	0.920355	-0.220409	0.192208
H62	H	0.992064	-0.290473	0.192222
H63	H	0.870851	-0.268745	0.342590
H64	H	0.942533	-0.338824	0.342624
H65	H	0.874545	-0.405342	0.208404
H66	H	0.802842	-0.335271	0.208391
H67	H	0.804149	-0.404053	0.295811
H68	H	1.203232	-0.014169	0.752805
H69	H	1.265854	0.046998	0.595259
H70	H	1.265845	0.047013	0.404728
H71	H	1.327644	0.319429	0.000034
H72	H	1.203189	-0.014163	0.247204
H73	H	0.913300	-0.297278	0.404785
H74	H	0.913315	-0.297270	0.595334
C75	C	1.269516	0.158039	-0.000033
C76	C	1.341888	0.228636	-0.000050
C77	C	1.426917	0.192417	-0.000113
H78	H	1.273846	0.121803	0.058130
H79	H	1.273779	0.121827	-0.058244
H80	H	1.337627	0.264832	0.058156
H81	H	1.337589	0.264878	-0.058208
H82	H	1.431180	0.156206	-0.058324
H83	H	1.431237	0.156182	0.058051
H84	H	1.476031	0.240311	-0.000134
H85	H	0.975964	-0.236103	0.752859
H86	H	1.237558	0.620477	0.000045
