data_functionalizedCrystal
_audit_creation_method	'MofGen! by Chris Wilmer'
_symmetry_space_group_name_H-M	'P1'
_symmetry_Int_Tables_number	1
_symmetry_cell_setting	triclinic
loop_
_symmetry_equiv_pos_as_xyz
  x,y,z
_cell_length_a	10.908878
_cell_length_b	11.026607
_cell_length_c	10.065875
_cell_angle_alpha	100.697662
_cell_angle_beta	96.607824
_cell_angle_gamma	95.664596
loop_
_atom_site_label
_atom_site_type_symbol
_atom_site_fract_x
_atom_site_fract_y
_atom_site_fract_z
O1	O	0.499649	-1.527085	-0.113483
O2	O	0.441147	-1.185585	-0.113486
O3	O	0.293931	-1.401605	-0.113483
O4	O	0.646865	-1.311065	-0.113487
O5	O	0.322147	-1.360384	0.113505
O6	O	0.469363	-1.144364	0.113502
O7	O	0.527865	-1.485864	0.113505
Zn8	Zn	0.503094	-1.308569	0.149542
Zn9	Zn	0.465918	-1.362880	-0.149524
O10	O	0.675081	-1.269844	0.113501
C11	C	0.444462	-1.121942	0.000007
C12	C	0.412289	-0.993721	0.000006
C13	C	0.262153	-1.389456	0.000009
C14	C	0.125424	-1.414656	0.000002
C15	C	0.524549	-1.549508	0.000008
C16	C	0.556721	-1.677730	0.000000
C17	C	0.706859	-1.281994	0.000006
C18	C	0.843586	-1.256795	0.000004
C19	C	0.913849	-1.348740	0.000004
C20	C	1.055164	-1.322699	0.000002
N21	N	0.528467	-1.271512	0.353647
C22	C	0.501124	-0.901988	0.000004
C23	C	0.467874	-0.769464	0.000002
N24	N	0.440537	-1.399948	-0.353629
C25	C	0.474737	-1.349981	0.421427
C26	C	0.494276	-1.321468	0.578594
H27	H	0.869384	-1.446734	0.000013
H28	H	1.080967	-1.512658	0.000008
C29	C	0.637130	-0.928426	0.000007
N30	N	0.739572	-0.948336	0.000009
H31	H	1.099625	-1.224694	0.000010
H32	H	0.414265	-1.438267	0.363105
H33	H	0.554740	-1.233170	0.636913
C34	C	0.903650	-1.124404	0.000000
N35	N	0.948888	-1.024684	-0.000005
C36	C	0.358851	-1.519235	0.567590
N37	N	0.297329	-1.609084	0.508251
H38	H	0.367192	-0.749902	-0.000031
H39	H	0.657400	-0.697296	0.000008
H40	H	0.311614	-0.974152	-0.000028
C41	C	0.610151	-1.152232	0.432436
N42	N	0.671676	-1.062388	0.491779
