data_functionalizedCrystal
_audit_creation_method	'MofGen! by Chris Wilmer'
_symmetry_space_group_name_H-M	'P1'
_symmetry_Int_Tables_number	1
_symmetry_cell_setting	triclinic
loop_
_symmetry_equiv_pos_as_xyz
  x,y,z
_cell_length_a	25.639242
_cell_length_b	21.295417
_cell_length_c	21.295412
_cell_angle_alpha	90.030668
_cell_angle_beta	89.967738
_cell_angle_gamma	89.973967
loop_
_atom_site_label
_atom_site_type_symbol
_atom_site_fract_x
_atom_site_fract_y
_atom_site_fract_z
Zn1	Zn	0.799307	0.250700	-0.356058
Zn2	Zn	0.799227	0.355968	-0.250784
Zn3	Zn	0.711868	0.250709	-0.250787
Zn4	Zn	0.711841	0.355927	-0.355999
O5	O	0.755561	0.303326	-0.303407
O6	O	0.872462	0.264678	-0.342117
O7	O	0.787617	0.342026	-0.162695
O8	O	0.723511	0.162618	-0.264778
O9	O	0.872403	0.342018	-0.264772
O10	O	0.787752	0.162612	-0.342120
O11	O	0.723434	0.264693	-0.162697
O12	O	0.638699	0.264653	-0.264721
O13	O	0.723465	0.341947	-0.444097
O14	O	0.638679	0.341956	-0.342020
O15	O	0.787726	0.264638	-0.444140
O16	O	0.787591	0.444052	-0.264715
O17	O	0.723388	0.444022	-0.342016
C18	C	0.619718	0.303301	-0.303364
C19	C	0.561604	0.303306	-0.303361
C20	C	0.755492	0.466878	-0.303372
C21	C	0.755511	0.536846	-0.303378
C22	C	0.755602	0.303287	-0.467597
C23	C	0.755619	0.303270	-0.537566
C24	C	0.201240	0.343645	-0.343619
C25	C	0.146635	0.343649	-0.343628
O26	O	0.118397	0.377916	-0.377821
N27	N	0.119322	0.303343	-0.303448
C28	C	0.146615	0.263027	-0.263260
O29	O	0.118369	0.228744	-0.229085
C30	C	0.201218	0.263020	-0.263254
C31	C	0.228529	0.303333	-0.303432
C32	C	0.228551	0.383954	-0.383794
C33	C	0.283151	0.383951	-0.383783
C34	C	0.310441	0.343639	-0.343597
C35	C	0.283130	0.303330	-0.303421
C36	C	0.228511	0.222701	-0.223069
C37	C	0.283118	0.222697	-0.223067
C38	C	0.310429	0.263010	-0.263245
C39	C	0.365020	0.263014	-0.263224
N40	N	0.392334	0.303320	-0.303404
C41	C	0.365044	0.343632	-0.343590
C42	C	0.031945	0.263043	-0.263277
C43	C	-0.022658	0.263052	-0.263280
C44	C	-0.022634	0.343674	-0.343649
C45	C	0.031969	0.343667	-0.343643
C46	C	0.059258	0.303348	-0.303457
C47	C	0.479709	0.343623	-0.343564
C48	C	0.534314	0.343618	-0.343548
C49	C	0.534286	0.262994	-0.263181
C50	C	0.479685	0.263001	-0.263195
C51	C	0.452398	0.303318	-0.303391
O52	O	0.393293	0.228763	-0.229051
O53	O	0.393297	0.377904	-0.377766
C54	C	0.891934	0.303351	-0.303450
C55	C	0.950048	0.303362	-0.303469
C56	C	0.755644	0.139136	-0.303456
C57	C	0.755679	0.069168	-0.303477
C58	C	0.788971	0.569707	-0.263169
C59	C	0.788995	0.635450	-0.263183
C60	C	0.755550	0.668328	-0.303400
C61	C	0.722088	0.635459	-0.343618
C62	C	0.722068	0.569717	-0.343607
N63	N	0.709813	0.771590	-0.308185
N64	N	0.709833	0.834041	-0.308191
C65	C	0.755609	0.866403	-0.303436
N66	N	0.801365	0.833954	-0.298662
N67	N	0.801344	0.771497	-0.298652
C68	C	0.755568	0.739614	-0.303417
C69	C	0.789098	0.970550	-0.263240
C70	C	0.789124	1.036294	-0.263258
C71	C	0.722212	1.036301	-0.343690
C72	C	0.722191	0.970559	-0.343674
C73	C	0.755634	0.937687	-0.303446
C74	C	0.722208	0.262998	-0.570424
C75	C	0.722206	0.262986	-0.636166
C76	C	0.755625	0.303240	-0.669048
C77	C	0.789038	0.343520	-0.636182
C78	C	0.789035	0.343535	-0.570441
N79	N	0.801393	0.308052	-0.772295
N80	N	0.801395	0.308034	-0.834746
C81	C	0.755634	0.303198	-0.867123
N82	N	0.709872	0.298369	-0.834689
N83	N	0.709871	0.298383	-0.772232
C84	C	0.755631	0.303229	-0.740334
C85	C	0.722218	0.262911	-0.971267
C86	C	0.722216	0.262904	-1.037010
C87	C	0.789052	0.343435	-1.037025
C88	C	0.789050	0.343445	-0.971283
C89	C	0.755634	0.303180	-0.938407
C90	C	0.755550	0.303320	-0.139856
C91	C	0.755634	0.303159	-0.069888
H92	H	0.556549	0.376448	-0.376266
C93	C	-0.052695	0.218712	-0.219077
C94	C	-0.090200	0.169324	-0.246446
C95	C	-0.120234	0.124980	-0.202244
C96	C	-0.112764	0.130024	-0.130672
C97	C	-0.075258	0.179413	-0.103300
C98	C	-0.045223	0.223758	-0.147502
H99	H	-0.095731	0.165589	-0.299430
H100	H	-0.147999	0.088419	-0.222507
H101	H	-0.134997	0.097197	-0.097951
H102	H	-0.069726	0.183149	-0.050315
H103	H	-0.017458	0.260319	-0.127238
H104	H	-0.044863	0.376496	-0.376373
H105	H	0.695005	0.230111	-1.063762
H106	H	0.054160	0.230211	-0.230548
C107	C	0.825891	0.934388	-0.218998
C108	C	0.866912	0.889131	-0.246323
C109	C	0.903706	0.852972	-0.202083
C110	C	0.899479	0.862070	-0.130517
C111	C	0.858457	0.907328	-0.103189
C112	C	0.821663	0.943487	-0.147429
H113	H	0.870042	0.882395	-0.299304
H114	H	0.934073	0.819468	-0.222314
H115	H	0.926717	0.835302	-0.097768
H116	H	0.855327	0.914065	-0.050208
H117	H	0.791295	0.976991	-0.127198
C118	C	0.825817	0.387716	-1.073182
C119	C	0.803143	0.437127	-1.118347
C120	C	0.839909	0.481413	-1.154505
C121	C	0.899347	0.476286	-1.145497
C122	C	0.922024	0.426873	-1.100330
C123	C	0.885259	0.382588	-1.064172
H124	H	0.759140	0.440924	-1.125017
H125	H	0.823122	0.517992	-1.187941
H126	H	0.926563	0.509069	-1.172263
H127	H	0.966027	0.423076	-1.093660
H128	H	0.902046	0.346008	-1.030736
H129	H	0.206284	0.189875	-0.190350
C130	C	0.685420	1.072459	-0.387928
C131	C	0.685439	1.144772	-0.387942
C132	C	0.648647	1.180934	-0.432183
C133	C	0.611836	1.144782	-0.476411
C134	C	0.611816	1.072465	-0.476399
C135	C	0.648608	1.036304	-0.432157
H136	H	0.712690	1.171537	-0.355201
H137	H	0.648662	1.234467	-0.432192
H138	H	0.584600	1.171551	-0.509161
H139	H	0.584565	1.045700	-0.509140
H140	H	0.648593	0.982770	-0.432149
H141	H	0.816244	0.662211	-0.230440
H142	H	0.816374	1.063048	-0.230516
C143	C	0.198539	0.428306	-0.428001
C144	C	0.160976	0.477702	-0.400638
C145	C	0.130969	0.522062	-0.444843
C146	C	0.138525	0.517026	-0.516413
C147	C	0.176089	0.467628	-0.543780
C148	C	0.206096	0.423268	-0.499574
H149	H	0.155381	0.481432	-0.347654
H150	H	0.103161	0.558629	-0.424584
H151	H	0.116312	0.549863	-0.549137
H152	H	0.181684	0.463898	-0.596763
H153	H	0.233904	0.386700	-0.519834
C154	C	0.825797	0.387801	-0.672351
C155	C	0.821488	0.459364	-0.663291
C156	C	0.858245	0.503650	-0.699460
C157	C	0.899311	0.476373	-0.744689
C158	C	0.903622	0.404807	-0.753751
C159	C	0.866864	0.360521	-0.717582
H160	H	0.791088	0.479559	-0.629808
H161	H	0.855054	0.556628	-0.692751
H162	H	0.926521	0.509156	-0.771463
H163	H	0.934022	0.384612	-0.787234
H164	H	0.870056	0.307542	-0.724290
C165	C	0.825793	0.387834	-0.534293
C166	C	0.862552	0.432117	-0.570456
C167	C	0.899310	0.476415	-0.534307
C168	C	0.899310	0.476430	-0.461994
C169	C	0.862549	0.432145	-0.425826
C170	C	0.825791	0.387847	-0.461976
H171	H	0.862553	0.432107	-0.623990
H172	H	0.926523	0.509197	-0.561080
H173	H	0.926521	0.509221	-0.435234
H174	H	0.862548	0.432155	-0.372292
H175	H	0.798578	0.355065	-0.435202
C176	C	0.685453	0.218683	-0.672321
C177	C	0.648696	0.174395	-0.636160
C178	C	0.611944	0.130092	-0.672312
C179	C	0.611948	0.130077	-0.744625
C180	C	0.648706	0.174366	-0.780789
C181	C	0.685459	0.218669	-0.744637
H182	H	0.648692	0.174405	-0.582626
H183	H	0.584733	0.097306	-0.645540
H184	H	0.584742	0.097281	-0.771386
H185	H	0.648711	0.174356	-0.834323
H186	H	0.712670	0.251455	-0.771410
H187	H	0.695009	0.230125	-0.944498
H188	H	0.816203	0.542945	-0.230414
H189	H	0.305334	0.189860	-0.190346
H190	H	0.457448	0.230177	-0.230477
H191	H	0.694821	0.542961	-0.376351
C192	C	0.825809	0.387740	-0.935134
C193	C	0.862570	0.432020	-0.971299
C194	C	0.899329	0.476318	-0.935151
C195	C	0.899327	0.476337	-0.862838
C196	C	0.862565	0.432055	-0.826669
C197	C	0.825806	0.387757	-0.862817
H198	H	0.862572	0.432007	-1.024833
H199	H	0.926542	0.509098	-0.961925
H200	H	0.926538	0.509129	-0.836079
H201	H	0.862562	0.432068	-0.773135
H202	H	0.798592	0.354977	-0.836042
C203	C	0.685298	0.671622	-0.387857
C204	C	0.644273	0.716875	-0.360534
C205	C	0.607484	0.753038	-0.404778
C206	C	0.611720	0.743948	-0.476344
C207	C	0.652747	0.698694	-0.503670
C208	C	0.689536	0.662531	-0.459426
H209	H	0.641136	0.723606	-0.307554
H210	H	0.577113	0.786539	-0.384549
H211	H	0.584486	0.770719	-0.509095
H212	H	0.655884	0.691963	-0.556650
H213	H	0.719907	0.629030	-0.479655
H214	H	0.457498	0.376451	-0.376297
H215	H	0.694943	0.943801	-0.376414
H216	H	0.694996	0.230213	-0.543661
H217	H	0.054202	0.376492	-0.376361
C218	C	0.564314	0.218647	-0.218985
C219	C	0.556835	0.147094	-0.224269
C220	C	0.586866	0.102741	-0.180080
C221	C	0.624376	0.129941	-0.130607
C222	C	0.631856	0.201498	-0.125321
C223	C	0.601825	0.245851	-0.169510
H224	H	0.529067	0.126955	-0.260894
H225	H	0.581329	0.049769	-0.183993
H226	H	0.646607	0.097108	-0.097896
H227	H	0.659624	0.221637	-0.088696
H228	H	0.607363	0.298823	-0.165597
C229	C	0.313187	0.428290	-0.427988
C230	C	0.305647	0.499845	-0.422728
C231	C	0.335677	0.544184	-0.466939
C232	C	0.373248	0.516969	-0.516410
C233	C	0.380790	0.445410	-0.521673
C234	C	0.350759	0.401071	-0.477462
H235	H	0.277833	0.519995	-0.386105
H236	H	0.330094	0.597157	-0.463043
H237	H	0.395478	0.549791	-0.549138
H238	H	0.408603	0.425260	-0.558296
H239	H	0.356342	0.348098	-0.481358
