data_functionalizedCrystal
_audit_creation_method	'MofGen! by Chris Wilmer'
_symmetry_space_group_name_H-M	'P1'
_symmetry_Int_Tables_number	1
_symmetry_cell_setting	triclinic
loop_
_symmetry_equiv_pos_as_xyz
  x,y,z
_cell_length_a	17.699077
_cell_length_b	11.026607
_cell_length_c	16.776229
_cell_angle_alpha	89.991871
_cell_angle_beta	90.003019
_cell_angle_gamma	95.933297
loop_
_atom_site_label
_atom_site_type_symbol
_atom_site_fract_x
_atom_site_fract_y
_atom_site_fract_z
O1	O	1.025147	0.153342	0.066275
O2	O	1.358481	0.486675	0.399609
O3	O	1.691814	0.820008	0.732942
O4	O	0.807511	0.173307	0.066279
O5	O	1.140845	0.506640	0.399612
O6	O	1.474178	0.839973	0.732946
O7	O	0.898292	-0.013275	0.066274
O8	O	1.231625	0.320058	0.399608
O9	O	1.564959	0.653392	0.732941
O10	O	0.934367	0.339923	0.066280
O11	O	1.267700	0.673257	0.399613
O12	O	1.601033	1.006590	0.732946
O13	O	0.898286	-0.013242	-0.066302
O14	O	1.231619	0.320091	0.267031
O15	O	1.564952	0.653424	0.600365
O16	O	0.807505	0.173339	-0.066298
O17	O	1.140838	0.506673	0.267036
O18	O	1.474172	0.840006	0.600369
O19	O	1.025141	0.153374	-0.066301
O20	O	1.358474	0.486708	0.267032
O21	O	1.691808	0.820041	0.600365
Zn22	Zn	0.916322	0.163362	-0.087349
Zn23	Zn	1.249655	0.496695	0.245984
Zn24	Zn	1.582989	0.830029	0.579318
Zn25	Zn	0.916330	0.163319	0.087326
Zn26	Zn	1.249664	0.496652	0.420660
Zn27	Zn	1.582997	0.829986	0.753993
O28	O	0.934360	0.339956	-0.066297
O29	O	1.267694	0.673289	0.267036
O30	O	1.601027	1.006623	0.600370
C31	C	0.779213	0.172609	-0.000009
C32	C	1.112546	0.505942	0.333324
C33	C	1.445880	0.839276	0.666658
C34	C	0.694900	0.170466	-0.000008
C35	C	1.028234	0.503800	0.333326
C36	C	1.361567	0.837133	0.666659
C37	C	0.655291	0.169475	-0.072276
C38	C	0.988624	0.502808	0.261058
C39	C	1.321957	0.836141	0.594391
C40	C	0.576069	0.167442	-0.072277
C41	C	0.909402	0.500775	0.261057
C42	C	1.242736	0.834109	0.594390
C43	C	0.536459	0.166410	-0.000008
C44	C	0.869792	0.499743	0.333325
C45	C	1.203125	0.833077	0.666658
C46	C	0.576074	0.167398	0.072265
C47	C	0.909407	0.500732	0.405599
C48	C	1.242740	0.834065	0.738932
C49	C	0.655293	0.169422	0.072266
C50	C	0.988627	0.502755	0.405599
C51	C	1.321960	0.836089	0.738932
C52	C	0.256589	0.159235	0.072267
C53	C	0.589922	0.492569	0.405600
C54	C	0.923255	0.825902	0.738934
C55	C	0.177363	0.157215	0.072261
C56	C	0.510697	0.490548	0.405595
C57	C	0.844030	0.823882	0.738928
C58	C	0.177364	0.157255	-0.072275
C59	C	0.510698	0.490589	0.261058
C60	C	0.844031	0.823922	0.594391
C61	C	0.256584	0.159279	-0.072275
C62	C	0.589917	0.492612	0.261058
C63	C	0.923251	0.825946	0.594391
C64	C	0.296192	0.160261	-0.000002
C65	C	0.629525	0.493594	0.333331
C66	C	0.962858	0.826927	0.666665
C67	C	0.382093	0.162462	-0.000002
C68	C	0.715426	0.495796	0.333331
C69	C	1.048760	0.829129	0.666665
C70	C	0.450559	0.164217	-0.000008
C71	C	0.783893	0.497551	0.333326
C72	C	1.117226	0.830884	0.666659
C73	C	0.891634	-0.058450	-0.000013
C74	C	1.224967	0.274884	0.333321
C75	C	1.558300	0.608217	0.666654
C76	C	0.871794	-0.193105	-0.000010
C77	C	1.205127	0.140229	0.333324
C78	C	1.538461	0.473562	0.666657
C79	C	0.926574	-0.267074	-0.000009
C80	C	1.259907	0.066260	0.333324
C81	C	1.593241	0.399593	0.666657
C82	C	0.906070	-0.406247	-0.000006
C83	C	1.239404	-0.072913	0.333327
C84	C	1.572737	0.260420	0.666661
C85	C	1.053439	0.154072	-0.000012
C86	C	1.386773	0.487405	0.333322
C87	C	1.720106	0.820739	0.666655
C88	C	1.137752	0.156215	-0.000008
C89	C	1.471085	0.489548	0.333325
C90	C	1.804419	0.822881	0.666659
N91	N	0.916322	0.163390	-0.206560
N92	N	1.249655	0.496724	0.126773
N93	N	1.582988	0.830057	0.460107
C94	C	0.941019	0.385131	-0.000008
C95	C	1.274352	0.718464	0.333325
C96	C	1.607685	1.051797	0.666659
C97	C	0.960858	0.519786	-0.000006
C98	C	1.294191	0.853119	0.333327
C99	C	1.627525	1.186452	0.666661
C100	C	0.860423	0.089814	-0.751732
C101	C	1.193757	0.423147	-0.418399
C102	C	1.527090	0.756481	-0.085066
C103	C	0.860423	0.089824	-0.668280
C104	C	1.193756	0.423158	-0.334947
C105	C	1.527090	0.756491	-0.001613
C106	C	0.916332	0.163309	-0.626559
C107	C	1.249665	0.496642	-0.293226
C108	C	1.582999	0.829975	0.040107
C109	C	0.972250	0.236779	-0.668295
C110	C	1.305583	0.570112	-0.334962
C111	C	1.638916	0.903445	-0.001629
C112	C	0.972252	0.236761	-0.751746
C113	C	1.305586	0.570094	-0.418413
C114	C	1.638919	0.903428	-0.085079
C115	C	0.972240	0.236850	-0.331748
C116	C	1.305573	0.570183	0.001585
C117	C	1.638906	0.903517	0.334918
C118	C	0.972231	0.236865	-0.248292
C119	C	1.305564	0.570198	0.085042
C120	C	1.638898	0.903531	0.418375
C121	C	0.860410	0.089913	-0.248282
C122	C	1.193744	0.423247	0.085051
C123	C	1.527077	0.756580	0.418384
C124	C	0.860413	0.089896	-0.331733
C125	C	1.193746	0.423229	0.001600
C126	C	1.527080	0.756562	0.334934
C127	C	0.916333	0.163360	-0.373462
C128	C	1.249666	0.496693	-0.040128
C129	C	1.582999	0.830027	0.293205
C130	C	0.916333	0.163346	-0.463950
C131	C	1.249666	0.496680	-0.130617
C132	C	1.583000	0.830013	0.202717
C133	C	0.916329	0.163330	-0.536073
C134	C	1.249662	0.496663	-0.202739
C135	C	1.582996	0.829997	0.130594
N136	N	0.916335	0.163281	0.206538
N137	N	1.249669	0.496614	0.539871
N138	N	1.583002	0.829948	0.873204
H139	H	0.145115	0.156374	0.131114
H140	H	0.478448	0.489707	0.464448
H141	H	0.811782	0.823040	0.797781
H142	H	0.814884	0.030062	-0.365698
H143	H	1.148217	0.363395	-0.032364
H144	H	1.481551	0.696728	0.300969
H145	H	1.022941	-0.440516	0.000053
H146	H	1.356274	-0.107182	0.333386
H147	H	1.689607	0.226151	0.666720
F148	F	0.697440	0.170581	-0.149195
F149	F	1.030774	0.503914	0.184138
F150	F	1.364107	0.837248	0.517472
H151	H	0.809716	-0.232811	-0.000003
H152	H	1.143049	0.100522	0.333330
H153	H	1.476383	0.433856	0.666663
F154	F	0.298732	0.160281	0.149187
F155	F	0.632065	0.493615	0.482520
F156	F	0.965399	0.826948	0.815853
F157	F	0.533913	0.166263	0.149179
F158	F	0.867246	0.499596	0.482512
F159	F	1.200580	0.832930	0.815846
F160	F	0.135204	0.156205	-0.149196
F161	F	0.468538	0.489538	0.184137
F162	F	0.801871	0.822872	0.517471
H163	H	0.988652	-0.227367	-0.000015
H164	H	1.321986	0.105966	0.333318
H165	H	1.655319	0.439299	0.666651
F166	F	0.533918	0.166403	-0.149195
F167	F	0.867251	0.499737	0.184139
F168	F	1.200585	0.833070	0.517472
H169	H	1.017782	0.296585	-0.785722
H170	H	1.351115	0.629918	-0.452388
H171	H	1.684449	0.963251	-0.119055
F172	F	0.697448	0.170473	0.149183
F173	F	1.030782	0.503806	0.482517
F174	F	1.364115	0.837140	0.815850
F175	F	0.824924	-0.458133	0.000003
F176	F	1.158257	-0.124800	0.333336
F177	F	1.491590	0.208534	0.666669
F178	F	0.800913	0.011606	-0.796127
F179	F	1.134247	0.344940	-0.462794
F180	F	1.467580	0.678273	-0.129460
H181	H	0.814896	0.029997	-0.634307
H182	H	1.148229	0.363330	-0.300974
H183	H	1.481562	0.696663	0.032360
H184	H	0.814880	0.030091	-0.214297
H185	H	1.148213	0.363425	0.119037
H186	H	1.481546	0.696758	0.452370
H187	H	1.017762	0.296708	-0.214325
H188	H	1.351095	0.630041	0.119008
H189	H	1.684428	0.963375	0.452342
F190	F	1.031751	0.315045	-0.376148
F191	F	1.365084	0.648378	-0.042815
F192	F	1.698417	0.981711	0.290518
H193	H	1.017774	0.296605	-0.634320
H194	H	1.351108	0.629938	-0.300987
H195	H	1.684441	0.963272	0.032347
H196	H	0.288831	0.160125	-0.131124
H197	H	0.622165	0.493459	0.202210
H198	H	0.955498	0.826792	0.535543
