data_functionalizedCrystal
_audit_creation_method	'MofGen! by Chris Wilmer'
_symmetry_space_group_name_H-M	'P1'
_symmetry_Int_Tables_number	1
_symmetry_cell_setting	triclinic
loop_
_symmetry_equiv_pos_as_xyz
  x,y,z
_cell_length_a	19.805407
_cell_length_b	16.625539
_cell_length_c	19.805405
_cell_angle_alpha	90.031831
_cell_angle_beta	89.971650
_cell_angle_gamma	89.977631
loop_
_atom_site_label
_atom_site_type_symbol
_atom_site_fract_x
_atom_site_fract_y
_atom_site_fract_z
Zn1	Zn	1.034749	-0.455928	0.269427
Zn2	Zn	1.034660	-0.321087	0.382620
Zn3	Zn	0.921560	-0.321105	0.269454
Zn4	Zn	0.921527	-0.455873	0.382583
O5	O	0.978124	-0.388498	0.326021
O6	O	1.129454	-0.438057	0.284446
O7	O	1.019633	-0.208257	0.367636
O8	O	0.936625	-0.339020	0.174734
O9	O	1.129388	-0.338990	0.367609
O10	O	1.019785	-0.438074	0.174714
O11	O	0.936539	-0.208270	0.284493
O12	O	0.826839	-0.338966	0.284457
O13	O	0.936570	-0.568713	0.367546
O14	O	0.826815	-0.437980	0.367572
O15	O	1.019753	-0.568753	0.284410
O16	O	1.019602	-0.338936	0.477332
O17	O	0.936483	-0.437963	0.477305
C18	C	0.802268	-0.388469	0.326014
C19	C	0.727036	-0.388476	0.326028
C20	C	0.265282	-0.440193	0.282799
C21	C	0.335971	-0.440187	0.282801
C22	C	0.371274	-0.388524	0.326031
C23	C	0.335885	-0.336870	0.369269
C24	C	0.265198	-0.336880	0.369270
C25	C	0.620959	-0.336827	0.369264
C26	C	0.691651	-0.336819	0.369257
C27	C	0.691731	-0.440134	0.282794
C28	C	0.621044	-0.440144	0.282795
C29	C	0.585661	-0.388493	0.326035
C30	C	0.509013	-0.388501	0.326034
C31	C	0.447921	-0.388512	0.326030
C32	C	0.978168	-0.598807	0.325971
C33	C	0.978187	-0.688428	0.325949
C34	C	0.978218	-1.016604	0.325873
C35	C	0.978207	-0.925296	0.325897
C36	C	0.978202	-0.852519	0.325912
C37	C	0.978191	-0.761205	0.325934
C38	C	1.154666	-0.388528	0.326029
C39	C	1.229898	-0.388541	0.326032
C40	C	0.978048	-0.388459	0.501877
C41	C	0.978077	-0.388470	0.577109
C42	C	0.978119	-0.179007	0.326023
C43	C	0.978231	-0.089387	0.325853
C44	C	0.978219	-0.388555	0.149478
C45	C	0.978259	-0.388579	0.074246
C46	C	1.021399	-0.336960	0.612445
C47	C	1.021427	-0.336978	0.683134
C48	C	0.978131	-0.388502	0.718485
C49	C	0.934807	-0.440016	0.683144
C50	C	0.934782	-0.440002	0.612457
C51	C	0.934907	-0.440076	0.968217
C52	C	0.934934	-0.440085	1.038909
C53	C	1.021552	-0.337052	1.038894
C54	C	1.021527	-0.337038	0.968207
C55	C	0.978206	-0.388555	0.932872
C56	C	0.978177	-0.388537	0.856224
C57	C	0.978156	-0.388517	0.795132
H58	H	0.720393	-0.294748	0.404464
O59	O	0.586698	-0.286573	0.411280
C60	C	0.633019	-0.240984	0.449443
H61	H	0.683417	-0.238251	0.421712
H62	H	0.612567	-0.177441	0.456593
H63	H	0.640526	-0.270395	0.500881
H64	H	1.056653	-0.295001	0.583667
O65	O	0.231022	-0.490494	0.240877
C66	C	0.248336	-0.570820	0.255746
H67	H	0.267744	-0.574768	0.309822
H68	H	0.201870	-0.610675	0.249960
H69	H	0.289394	-0.591969	0.219480
H70	H	1.056781	-0.295080	0.939426
H71	H	0.364635	-0.294809	0.404471
O72	O	0.230750	-0.286665	0.411172
C73	C	0.189868	-0.234662	0.372584
H74	H	0.179314	-0.263210	0.321320
H75	H	0.140143	-0.223807	0.400146
H76	H	0.217087	-0.174920	0.365085
H77	H	0.720548	-0.482193	0.247588
H78	H	1.056704	-0.295034	0.711901
O79	O	0.892728	-0.490144	0.717377
C80	C	0.854474	-0.535592	0.671028
H81	H	0.882180	-0.538405	0.620615
H82	H	0.847233	-0.599116	0.691420
H83	H	0.803079	-0.506007	0.663571
H84	H	1.056828	-0.295107	1.067672
H85	H	0.899677	-0.482047	1.067690
O86	O	0.892850	-0.490221	0.933977
C87	C	0.907614	-0.570606	0.951179
H88	H	0.933658	-0.572316	1.002476
H89	H	0.858745	-0.606696	0.953627
H90	H	0.942376	-0.597805	0.911346
O91	O	0.370370	-0.490447	0.240898
C92	C	0.411273	-0.542429	0.279483
H93	H	0.389949	-0.547300	0.332797
H94	H	0.412107	-0.604532	0.255064
H95	H	0.464835	-0.517492	0.281786
O96	O	0.586856	-0.490406	0.240780
C97	C	0.633245	-0.535982	0.202609
H98	H	0.683623	-0.538706	0.230333
H99	H	0.612852	-0.599529	0.195459
H100	H	0.640773	-0.506568	0.151171
H101	H	0.899506	-0.481947	0.583687
