data_functionalizedCrystal
_audit_creation_method	'MofGen! by Chris Wilmer'
_symmetry_space_group_name_H-M	'P1'
_symmetry_Int_Tables_number	1
_symmetry_cell_setting	triclinic
loop_
_symmetry_equiv_pos_as_xyz
  x,y,z
_cell_length_a	6.817900
_cell_length_b	14.125286
_cell_length_c	11.102244
_cell_angle_alpha	94.649566
_cell_angle_beta	71.395130
_cell_angle_gamma	79.603312
loop_
_atom_site_label
_atom_site_type_symbol
_atom_site_fract_x
_atom_site_fract_y
_atom_site_fract_z
V1	V	4.017300	-0.299988	-0.174857
O2	O	3.978132	-0.294280	0.009412
O3	O	3.994716	-0.297934	-0.347683
O4	O	3.952986	-0.430824	-0.171724
O5	O	4.020150	-0.160470	-0.167765
V6	V	4.499645	-0.283301	-0.152869
O7	O	4.281143	-0.336593	-0.223090
O8	O	4.685999	-0.246696	-0.104635
O9	O	4.299022	-0.285355	0.019958
O10	O	4.656209	-0.289009	-0.337138
O11	O	4.614191	-0.422819	-0.159961
O12	O	4.340752	-0.152465	-0.156001
C13	C	3.846512	-0.293201	-0.389829
C14	C	3.909227	-0.292393	-0.531114
C15	C	3.906194	-0.203908	-0.579638
C16	C	3.965133	-0.203160	-0.712392
C17	C	4.030130	-0.379392	-0.748088
C18	C	3.971205	-0.380139	-0.615336
C19	C	3.844216	-0.116162	-0.495415
C20	C	3.841177	-0.027670	-0.543938
C21	C	3.900117	-0.026922	-0.676693
C22	C	3.962095	-0.114668	-0.760924
C23	C	3.793280	-0.462714	-0.165374
C24	C	3.822151	-0.569674	-0.163956
C25	C	4.061305	-0.817796	-0.166532
C26	C	3.875020	-0.765481	-0.161192
C27	C	3.845604	-0.656524	-0.162730
C28	C	4.090728	-0.926763	-0.164994
C29	C	4.110569	-0.290085	0.062096
C30	C	4.027091	-0.290899	0.203380
C31	C	4.163801	-0.120569	-0.162356
C32	C	4.114168	-0.013609	-0.163768
H33	H	3.790728	0.043769	-0.475349
C34	C	3.909730	-0.459525	-0.427681
C35	C	3.974526	-0.477402	-0.561986
H36	H	3.911799	-0.519574	-0.394748
H37	H	3.769981	-0.420378	-0.394471
H38	H	4.003493	-0.426511	-0.402740
H39	H	3.880753	-0.510409	-0.586927
H40	H	4.114297	-0.516564	-0.595208
C41	C	4.149294	-0.456493	-0.967439
C42	C	4.098227	-0.475836	-0.840672
H43	H	4.191315	-0.516035	-1.024592
H44	H	4.262351	-0.423246	-0.985990
H45	H	4.028828	-0.417091	-0.977711
H46	H	4.218698	-0.515232	-0.830397
H47	H	3.985160	-0.509098	-0.822115
H48	H	3.737626	-0.802523	-0.155463
H49	H	4.198686	-0.780756	-0.172259
H50	H	3.796209	-0.116761	-0.387317
H51	H	3.897659	0.045132	-0.716196
H52	H	4.010099	-0.114052	-0.869021
