data_functionalizedCrystal
_audit_creation_method	'MofGen! by Chris Wilmer'
_symmetry_space_group_name_H-M	'P1'
_symmetry_Int_Tables_number	1
_symmetry_cell_setting	triclinic
loop_
_symmetry_equiv_pos_as_xyz
  x,y,z
_cell_length_a	27.732046
_cell_length_b	14.421503
_cell_length_c	15.944545
_cell_angle_alpha	90.002190
_cell_angle_beta	96.930925
_cell_angle_gamma	90.001483
loop_
_atom_site_label
_atom_site_type_symbol
_atom_site_fract_x
_atom_site_fract_y
_atom_site_fract_z
O1	O	-0.641362	-0.076984	0.099927
O2	O	-0.500634	-0.077015	0.115125
O3	O	-0.574843	-0.076988	-0.014800
O4	O	-0.567154	-0.077012	0.229851
O5	O	-0.574830	0.077236	-0.014780
O6	O	-0.500622	0.077208	0.115144
O7	O	-0.641350	0.077239	0.099946
Cu8	Cu	-0.570985	0.091305	0.107547
Cu9	Cu	-0.570999	-0.091082	0.107524
O10	O	-0.567141	0.077212	0.229871
C11	C	-0.482620	0.000092	0.114816
C12	C	-0.428961	0.000081	0.113856
C13	C	-0.574518	0.000125	-0.046080
C14	C	-0.573563	0.000127	-0.139314
N15	N	-0.570978	0.219587	0.107562
C16	C	-0.090451	0.000108	0.184588
C17	C	0.111224	0.000112	0.181026
O18	O	0.142201	0.000146	0.245704
N19	N	0.130681	0.000118	0.103987
C20	C	0.099715	0.000128	0.027833
O21	O	0.120891	0.000142	-0.037775
C22	C	-0.101959	0.000130	0.031396
C23	C	-0.121413	0.000115	0.108440
C24	C	-0.109905	0.000094	0.261626
C25	C	-0.160320	0.000088	0.262516
C26	C	-0.191282	0.000095	0.186368
C27	C	-0.171828	0.000109	0.109330
C28	C	-0.132924	0.000147	-0.044758
C29	C	-0.183345	0.000150	-0.043860
C30	C	-0.202799	0.000135	0.033184
C31	C	-0.253206	0.000110	0.034071
N32	N	-0.272663	0.000105	0.111110
C33	C	-0.241701	0.000097	0.187259
C34	C	0.205597	0.000125	0.025968
C35	C	0.256016	0.000123	0.025077
C36	C	0.267522	0.000109	0.178271
C37	C	0.217102	0.000105	0.179161
C38	C	0.186141	0.000120	0.103007
C39	C	-0.347578	0.000083	0.189121
C40	C	-0.397999	0.000073	0.190004
C41	C	-0.409500	0.000092	0.036811
C42	C	-0.359084	0.000097	0.035927
C43	C	-0.328124	0.000096	0.112089
O44	O	-0.284211	0.000087	-0.030572
O45	O	-0.262887	0.000104	0.252857
C46	C	-0.040035	0.000114	0.183699
C47	C	-0.020581	0.000128	0.106661
C48	C	-0.051543	0.000135	0.030512
C49	C	0.029837	0.000125	0.105770
C50	C	0.060799	0.000118	0.181918
C51	C	0.041343	0.000112	0.258957
C52	C	-0.009073	0.000106	0.259847
C53	C	-0.032086	0.000141	-0.046527
C54	C	0.018330	0.000146	-0.047410
C55	C	0.049292	0.000138	0.028738
C56	C	0.340636	0.000125	0.100258
C57	C	0.286977	0.000116	0.101225
N58	N	-0.571010	-0.219363	0.107502
C59	C	-0.536658	0.469228	0.167613
C60	C	-0.580335	0.531038	0.183348
C61	C	-0.570990	0.408748	0.107542
C62	C	-0.527324	0.531031	0.091826
C63	C	-0.570997	0.591470	0.107525
C64	C	-0.614689	0.469198	0.123315
C65	C	-0.561649	0.469186	0.031760
C66	C	-0.605358	0.530968	0.047463
C67	C	-0.570985	0.303487	0.107554
C68	C	-0.571007	0.696728	0.107512
C69	C	-0.524710	0.000097	-0.409307
C70	C	-0.548269	-0.075938	-0.359039
C71	C	-0.570155	0.000100	-0.474913
C72	C	-0.548269	0.076114	-0.359048
C73	C	-0.571827	0.000115	-0.310021
C74	C	-0.593702	-0.075998	-0.425873
C75	C	-0.593696	0.076122	-0.425885
C76	C	-0.617288	0.000068	-0.375651
C77	C	-0.569191	0.000091	-0.569903
C78	C	-0.572795	0.000117	-0.215035
C79	C	-0.567466	0.000097	0.261151
C80	C	-0.568421	0.000089	0.354385
H81	H	-0.413835	0.000061	0.252745
C82	C	-0.619599	0.162960	-0.465356
C83	C	-0.623817	0.178358	-0.561534
C84	C	-0.649717	0.265197	-0.601016
C85	C	-0.671400	0.336639	-0.544321
C86	C	-0.667182	0.321243	-0.448138
C87	C	-0.641281	0.234404	-0.408655
H88	H	-0.607766	0.125470	-0.603508
H89	H	-0.652839	0.276594	-0.672218
H90	H	-0.690573	0.400923	-0.573549
H91	H	-0.683233	0.374131	-0.406163
H92	H	-0.638159	0.223008	-0.337453
H93	H	-0.057291	0.000149	-0.108538
C94	C	-0.471839	-0.000011	-0.429772
C95	C	-0.453490	-0.079721	-0.481836
C96	C	-0.400621	-0.079834	-0.502303
C97	C	-0.366102	-0.000239	-0.470706
C98	C	-0.384450	0.079476	-0.418638
C99	C	-0.437319	0.079590	-0.398171
H100	H	-0.479044	-0.138647	-0.505229
H101	H	-0.387039	-0.138845	-0.540847
H102	H	-0.326965	-0.000323	-0.485856
H103	H	-0.358896	0.138403	-0.395245
H104	H	-0.450901	0.138601	-0.359628
C105	C	-0.591012	0.567750	0.269914
C106	C	-0.553773	0.630224	0.322467
C107	C	-0.564443	0.666932	0.409036
C108	C	-0.612353	0.641167	0.443053
C109	C	-0.649595	0.578690	0.390500
C110	C	-0.638924	0.541982	0.303931
H111	H	-0.518305	0.649300	0.297286
H112	H	-0.536874	0.713182	0.447939
H113	H	-0.620251	0.668340	0.507137
H114	H	-0.685063	0.559614	0.415681
H115	H	-0.666494	0.495732	0.265028
C116	C	-0.522328	0.162957	-0.319637
C117	C	-0.477863	0.152557	-0.252466
C118	C	-0.451918	0.239394	-0.213057
C119	C	-0.470438	0.336630	-0.240820
C120	C	-0.514905	0.347034	-0.307994
C121	C	-0.540850	0.260197	-0.347403
H122	H	-0.464151	0.080573	-0.231911
H123	H	-0.419000	0.231692	-0.163330
H124	H	-0.451232	0.400912	-0.211647
H125	H	-0.528617	0.419018	-0.328549
H126	H	-0.573768	0.267900	-0.397130
H127	H	-0.084700	0.000091	0.323639
H128	H	-0.656456	0.000034	-0.360672
C129	C	-0.181718	0.000095	0.347264
C130	C	-0.214800	-0.079979	0.368955
C131	C	-0.236194	-0.079961	0.453707
C132	C	-0.224508	0.000131	0.516766
C133	C	-0.191424	0.080212	0.495077
C134	C	-0.170030	0.080194	0.410325
H135	H	-0.223452	-0.139274	0.322273
H136	H	-0.260685	-0.139243	0.469762
H137	H	-0.240345	0.000145	0.579504
H138	H	-0.182772	0.139507	0.541759
H139	H	-0.145539	0.139475	0.394269
C140	C	0.301585	0.000108	0.262037
C141	C	0.337831	-0.079972	0.282483
C142	C	0.371897	-0.079965	0.366244
C143	C	0.369716	0.000122	0.429558
C144	C	0.333469	0.080207	0.409113
C145	C	0.299403	0.080200	0.325352
H146	H	0.339447	-0.139263	0.235613
H147	H	0.398729	-0.139250	0.381378
H148	H	0.394933	0.000127	0.491563
H149	H	0.331853	0.139498	0.455984
H150	H	0.272570	0.139486	0.310218
H151	H	-0.651627	0.442151	0.136677
H152	H	-0.322375	0.000085	0.251140
C153	C	0.277410	0.000129	-0.059673
C154	C	0.310490	0.080215	-0.081347
C155	C	0.331882	0.080227	-0.166101
C156	C	0.320195	0.000152	-0.229181
C157	C	0.287114	-0.079940	-0.207508
C158	C	0.265722	-0.079952	-0.122754
H159	H	0.319142	0.139496	-0.034651
H160	H	0.356370	0.139517	-0.182144
H161	H	0.336031	0.000161	-0.291920
H162	H	0.278461	-0.139221	-0.254205
H163	H	0.241233	-0.139241	-0.106711
H164	H	-0.490394	0.558195	0.078541
C165	C	-0.522349	-0.162788	-0.319614
C166	C	-0.499883	-0.233310	-0.376176
C167	C	-0.473960	-0.320155	-0.336754
C168	C	-0.470501	-0.336479	-0.240771
C169	C	-0.492967	-0.265955	-0.184203
C170	C	-0.518891	-0.179110	-0.223625
H171	H	-0.502443	-0.221228	-0.447234
H172	H	-0.457329	-0.372362	-0.378630
H173	H	-0.451310	-0.400767	-0.211588
H174	H	-0.490407	-0.278037	-0.113145
H175	H	-0.535522	-0.126903	-0.181750
H176	H	0.201267	0.000098	0.241897
C177	C	0.171544	0.000131	-0.057809
C178	C	0.173738	0.080214	-0.121118
C179	C	0.139689	0.080214	-0.204896
C180	C	0.103444	0.000131	-0.225366
C181	C	0.101249	-0.079959	-0.162056
C182	C	0.135299	-0.079958	-0.078278
H183	H	0.200570	0.139502	-0.105966
H184	H	0.141314	0.139502	-0.251762
H185	H	0.078239	0.000130	-0.287383
H186	H	0.074417	-0.139247	-0.177207
H187	H	0.133673	-0.139246	-0.031412
C188	C	-0.644625	0.567373	-0.021176
C189	C	-0.651661	0.672506	-0.034392
C190	C	-0.690929	0.708913	-0.103026
C191	C	-0.723161	0.640187	-0.158444
C192	C	-0.716126	0.535048	-0.145231
C193	C	-0.676858	0.498640	-0.076597
H194	H	-0.627800	0.723387	0.006634
H195	H	-0.696136	0.786745	-0.112807
H196	H	-0.752230	0.667138	-0.209251
H197	H	-0.739987	0.484167	-0.186256
H198	H	-0.671650	0.420809	-0.066815
H199	H	-0.434718	0.000095	-0.025187
H200	H	-0.208552	0.000163	-0.105875
C201	C	-0.111536	0.000167	-0.129511
C202	C	-0.123224	0.080266	-0.192557
C203	C	-0.101839	0.080286	-0.277317
C204	C	-0.068766	0.000209	-0.299031
C205	C	-0.057077	-0.079896	-0.235984
C206	C	-0.078462	-0.079917	-0.151223
H207	H	-0.147708	0.139549	-0.176485
H208	H	-0.110492	0.139586	-0.323989
H209	H	-0.052935	0.000224	-0.361776
H210	H	-0.032593	-0.139179	-0.252056
H211	H	-0.069809	-0.139216	-0.104551
H212	H	-0.343244	0.000096	-0.026808
C213	C	-0.030466	0.000099	0.344599
C214	C	-0.018779	0.080180	0.407671
C215	C	-0.040167	0.080175	0.492428
C216	C	-0.073243	0.000089	0.514113
C217	C	-0.084933	-0.079998	0.451040
C218	C	-0.063544	-0.079993	0.366283
H219	H	0.005708	0.139470	0.391619
H220	H	-0.031513	0.139461	0.539119
H221	H	-0.089076	0.000086	0.576855
H222	H	-0.109419	-0.139288	0.467091
H223	H	-0.072198	-0.139279	0.319592
H224	H	-0.553728	0.441996	-0.032298
C225	C	0.075407	0.000107	0.342722
C226	C	0.111655	-0.079973	0.363159
C227	C	0.145722	-0.079972	0.446919
C228	C	0.143541	0.000107	0.510240
C229	C	0.107293	0.080193	0.489804
C230	C	0.073226	0.080192	0.406045
H231	H	0.113270	-0.139258	0.316284
H232	H	0.172555	-0.139257	0.462046
H233	H	0.168760	0.000108	0.572244
H234	H	0.105677	0.139478	0.536680
H235	H	0.046392	0.139477	0.390917
C236	C	-0.497477	0.432593	0.236288
C237	C	-0.499886	0.457031	0.329708
C238	C	-0.460708	0.420395	0.398384
C239	C	-0.419121	0.359320	0.373640
C240	C	-0.416710	0.334879	0.280216
C241	C	-0.455888	0.371515	0.211540
H242	H	-0.530673	0.502246	0.348029
H243	H	-0.462493	0.438489	0.467543
H244	H	-0.390119	0.332200	0.424478
H245	H	-0.385923	0.289665	0.261895
H246	H	-0.454103	0.353421	0.142381
H247	H	-0.612886	-0.140351	-0.454939
H248	H	0.034164	0.000150	-0.110154
