data_functionalizedCrystal
_audit_creation_method	'MofGen! by Chris Wilmer'
_symmetry_space_group_name_H-M	'P1'
_symmetry_Int_Tables_number	1
_symmetry_cell_setting	triclinic
loop_
_symmetry_equiv_pos_as_xyz
  x,y,z
_cell_length_a	11.026660
_cell_length_b	17.699083
_cell_length_c	16.776229
_cell_angle_alpha	89.994959
_cell_angle_beta	89.999849
_cell_angle_gamma	84.066242
loop_
_atom_site_label
_atom_site_type_symbol
_atom_site_fract_x
_atom_site_fract_y
_atom_site_fract_z
O1	O	0.153388	-1.025151	0.066270
O2	O	0.653388	-0.525151	0.566270
O3	O	0.173346	-0.807515	0.066274
O4	O	0.673346	-0.307515	0.566274
O5	O	-0.013232	-0.898297	0.066272
O6	O	0.486768	-0.398297	0.566272
O7	O	0.339966	-0.934370	0.066273
O8	O	0.839966	-0.434370	0.566273
O9	O	-0.013232	-0.898284	-0.066304
O10	O	0.486768	-0.398284	0.433696
O11	O	0.173346	-0.807502	-0.066302
O12	O	0.673346	-0.307502	0.433698
O13	O	0.153387	-1.025138	-0.066306
O14	O	0.653387	-0.525138	0.433694
Zn15	Zn	0.163366	-0.916318	-0.087354
Zn16	Zn	0.663366	-0.416318	0.412646
Zn17	Zn	0.163367	-0.916335	0.087322
Zn18	Zn	0.663367	-0.416335	0.587322
O19	O	0.339965	-0.934356	-0.066304
O20	O	0.839965	-0.434356	0.433696
C21	C	0.172631	-0.779213	-0.000013
C22	C	0.672631	-0.279213	0.499987
C23	C	0.170486	-0.694900	-0.000012
C24	C	0.670486	-0.194900	0.499988
C25	C	-0.058423	-0.891635	-0.000015
C26	C	0.441577	-0.391635	0.499985
C27	C	-0.193078	-0.871797	-0.000010
C28	C	0.306922	-0.371797	0.499990
C29	C	0.169475	-0.655287	-0.072280
C30	C	0.669475	-0.155287	0.427720
C31	C	0.167440	-0.576065	-0.072280
C32	C	0.667440	-0.076065	0.427720
C33	C	0.166425	-0.536458	-0.000012
C34	C	0.666425	-0.036458	0.499988
C35	C	0.167433	-0.576077	0.072262
C36	C	0.667433	-0.076077	0.572262
C37	C	0.169459	-0.655297	0.072262
C38	C	0.669459	-0.155297	0.572262
C39	C	0.159260	-0.256592	0.072264
C40	C	0.659260	0.243408	0.572264
C41	C	0.157237	-0.177367	0.072259
C42	C	0.657237	0.322633	0.572259
C43	C	0.157242	-0.177360	-0.072278
C44	C	0.657242	0.322640	0.427722
C45	C	0.159268	-0.256580	-0.072278
C46	C	0.659268	0.243420	0.427722
C47	C	0.160269	-0.296191	-0.000005
C48	C	0.660269	0.203809	0.499995
C49	C	0.162473	-0.382092	-0.000005
C50	C	0.662473	0.117908	0.499995
C51	C	0.164230	-0.450559	-0.000011
C52	C	0.664230	0.049441	0.499989
C53	C	-0.406219	-0.906078	-0.000013
C54	C	0.093781	-0.406078	0.499987
C55	C	-0.267046	-0.926583	-0.000012
C56	C	0.232954	-0.426583	0.499988
C57	C	0.385156	-0.941018	-0.000015
C58	C	0.885156	-0.441018	0.499985
C59	C	0.519811	-0.960856	-0.000015
C60	C	1.019811	-0.460856	0.499985
C61	C	0.154095	-0.053440	-0.000016
C62	C	0.654095	0.446560	0.499984
C63	C	0.156218	-0.137751	-0.000010
C64	C	0.656218	0.362249	0.499990
N65	N	0.163365	-0.916311	-0.206565
N66	N	0.663365	-0.416311	0.293435
C67	C	0.236846	-0.972222	-0.248279
C68	C	0.736846	-0.472222	0.251721
C69	C	0.236841	-0.972230	-0.331731
C70	C	0.736841	-0.472230	0.168269
C71	C	0.163362	-0.916323	-0.373468
C72	C	0.663362	-0.416323	0.126532
C73	C	0.089872	-0.860410	-0.331747
C74	C	0.589872	-0.360410	0.168253
C75	C	0.089871	-0.860406	-0.248297
C76	C	0.589871	-0.360406	0.251703
C77	C	0.089874	-0.860425	-0.668295
C78	C	0.589874	-0.360425	-0.168295
C79	C	0.089883	-0.860432	-0.751751
C80	C	0.589883	-0.360432	-0.251751
C81	C	0.236844	-0.972249	-0.751729
C82	C	0.736844	-0.472249	-0.251729
C83	C	0.236843	-0.972245	-0.668278
C84	C	0.736843	-0.472245	-0.168278
C85	C	0.163349	-0.916334	-0.626566
C86	C	0.663349	-0.416334	-0.126566
C87	C	0.163354	-0.916327	-0.536077
C88	C	0.663354	-0.416327	-0.036077
C89	C	0.163363	-0.916326	-0.463954
C90	C	0.663363	-0.416326	0.036046
N91	N	0.163359	-0.916346	0.206533
N92	N	0.663359	-0.416346	0.706533
H93	H	0.170312	-0.687530	-0.131129
H94	H	0.670312	-0.187530	0.368871
H95	H	-0.445923	-0.843999	-0.000008
H96	H	0.054077	-0.343999	0.499992
N97	N	-0.245635	-0.789557	-0.000020
N98	N	0.254365	-0.289557	0.499980
H99	H	-0.217262	-0.763507	0.049125
H100	H	0.282738	-0.263507	0.549125
H101	H	-0.337595	-0.786622	-0.000053
H102	H	0.162405	-0.286622	0.499947
N103	N	-0.427613	-1.043090	-0.000016
N104	N	0.072387	-0.543090	0.499984
H105	H	-0.335645	-1.046082	-0.000016
H106	H	0.164355	-0.546082	0.499984
H107	H	-0.456074	-1.069085	-0.049167
H108	H	0.043926	-0.569085	0.450833
N109	N	0.316113	-1.032557	-0.796719
N110	N	0.816113	-0.532557	-0.296719
H111	H	0.304965	-1.024081	-0.855918
H112	H	0.804965	-0.524081	-0.355918
H113	H	0.292041	-1.084320	-0.782122
H114	H	0.792041	-0.584320	-0.282122
H115	H	0.030043	-0.814904	-0.785731
H116	H	0.530043	-0.314904	-0.285731
H117	H	0.296689	-1.017744	-0.214303
H118	H	0.796689	-0.517744	0.285697
N119	N	0.010610	-0.800125	-0.623310
N120	N	0.510610	-0.300125	-0.123310
H121	H	-0.035933	-0.764709	-0.662415
H122	H	0.464067	-0.264709	-0.162415
H123	H	0.063567	-0.770338	-0.588688
H124	H	0.563567	-0.270338	-0.088688
H125	H	0.170284	-0.687549	0.131110
H126	H	0.670284	-0.187549	0.631110
H127	H	-0.227348	-0.988666	0.000017
H128	H	0.272652	-0.488666	0.500017
N129	N	0.010612	-0.800106	-0.203301
N130	N	0.510612	-0.300106	0.296699
H131	H	-0.035937	-0.764689	-0.242402
H132	H	0.464063	-0.264689	0.257598
H133	H	0.063570	-0.770319	-0.168678
H134	H	0.563570	-0.270319	0.331322
H135	H	0.296675	-1.017759	-0.365691
H136	H	0.796675	-0.517759	0.134309
H137	H	0.156421	-0.145098	-0.131126
H138	H	0.656421	0.354902	0.368874
N139	N	0.166345	-0.533336	-0.150225
N140	N	0.666345	-0.033336	0.349775
H141	H	0.166442	-0.570396	-0.196007
H142	H	0.666442	-0.070396	0.303993
H143	H	0.241108	-0.504991	-0.153614
H144	H	0.741108	-0.004991	0.346386
N145	N	0.160375	-0.299299	-0.150224
N146	N	0.660375	0.200701	0.349776
H147	H	0.159425	-0.262182	-0.196007
H148	H	0.659425	0.237818	0.303993
H149	H	0.086049	-0.328067	-0.153373
H150	H	0.586049	0.171933	0.346627
N151	N	0.156139	-0.134645	0.150209
N152	N	0.656139	0.365355	0.650209
H153	H	0.157076	-0.171758	0.195994
H154	H	0.657076	0.328242	0.695994
H155	H	0.080131	-0.097673	0.153347
H156	H	0.580131	0.402327	0.653347
N157	N	0.160330	-0.299309	0.150212
N158	N	0.660330	0.200691	0.650212
H159	H	0.159381	-0.262196	0.195991
H160	H	0.659381	0.237804	0.695991
H161	H	0.236333	-0.336285	0.153368
H162	H	0.736333	0.163715	0.653368
H163	H	0.166597	-0.543823	0.131104
H164	H	0.666597	-0.043823	0.631104
N165	N	0.010608	-0.800114	-0.376758
N166	N	0.510608	-0.300114	0.123242
H167	H	0.021760	-0.808598	-0.435954
H168	H	0.521760	-0.308598	0.064046
H169	H	0.034682	-0.748349	-0.362178
H170	H	0.534682	-0.248349	0.137822
N171	N	0.316095	-1.032544	-0.623263
N172	N	0.816095	-0.532544	-0.123263
H173	H	0.362642	-1.067967	-0.662352
H174	H	0.862642	-0.567967	-0.162352
H175	H	0.263122	-1.062322	-0.588636
H176	H	0.763122	-0.562322	-0.088636
