data_functionalizedCrystal
_audit_creation_method	'MofGen! by Chris Wilmer'
_symmetry_space_group_name_H-M	'P1'
_symmetry_Int_Tables_number	1
_symmetry_cell_setting	triclinic
loop_
_symmetry_equiv_pos_as_xyz
  x,y,z
_cell_length_a	11.792241
_cell_length_b	15.500227
_cell_length_c	11.792241
_cell_angle_alpha	87.152554
_cell_angle_beta	84.193416
_cell_angle_gamma	92.859701
loop_
_atom_site_label
_atom_site_type_symbol
_atom_site_fract_x
_atom_site_fract_y
_atom_site_fract_z
O1	O	1.512150	0.071860	0.150337
O2	O	1.181810	0.071880	0.166369
O3	O	1.354996	0.071864	-0.006817
O4	O	1.338964	0.071877	0.323523
O5	O	1.344486	-0.072024	0.003651
O6	O	1.171301	-0.072007	0.176837
O7	O	1.501640	-0.072028	0.160805
Cu8	Cu	1.335511	-0.085156	0.169777
Cu9	Cu	1.347940	0.085008	0.157397
O10	O	1.328455	-0.072011	0.333991
C11	C	1.134265	-0.000061	0.170595
C12	C	1.008252	-0.000053	0.167580
N13	N	1.326777	-0.204840	0.178483
C14	C	0.777538	-0.000078	0.162039
C15	C	0.905924	-0.000065	0.165118
C16	C	1.400188	-0.250123	0.105125
C17	C	1.393594	-0.340696	0.111721
C18	C	1.313593	-0.385982	0.191679
C19	C	1.240175	-0.340692	0.265040
C20	C	1.246764	-0.250122	0.258439
C21	C	1.289854	-0.659447	0.215441
C22	C	1.283271	-0.750024	0.222039
C23	C	1.436690	-0.750021	0.068718
C24	C	1.443277	-0.659449	0.062128
C25	C	1.369855	-0.614166	0.135485
C26	C	1.306853	-0.478562	0.198425
C27	C	1.376590	-0.521589	0.128733
C28	C	1.549186	-0.000084	0.156578
C29	C	1.675200	-0.000086	0.159593
C30	C	1.348734	-0.000080	-0.043874
C31	C	1.345720	-0.000079	-0.169888
N32	N	1.356682	0.204692	0.148682
C33	C	1.340178	-0.000064	-0.400601
C34	C	1.343257	-0.000072	-0.272215
C35	C	1.334717	-0.000065	0.371048
C36	C	1.337731	-0.000061	0.497061
H37	H	1.465338	-0.213257	0.040019
O38	O	1.464948	-0.384784	0.040631
C39	C	1.531535	-0.437143	0.105717
H40	H	1.485877	-0.450701	0.195214
H41	H	1.618005	-0.402231	0.111456
C42	C	1.605219	-0.506532	-0.061760
C43	C	1.549136	-0.523190	0.048160
H44	H	1.616081	-0.559609	-0.097265
H45	H	1.560362	-0.471255	-0.105610
H46	H	1.677271	-0.477437	-0.056962
H47	H	1.477080	-0.552275	0.043359
H48	H	1.593982	-0.558475	0.092009
O49	O	1.507953	-0.793916	-0.002709
C50	C	1.490395	-0.771814	-0.116799
H51	H	1.451436	-0.706057	-0.121739
H52	H	1.429969	-0.822796	-0.148559
C53	C	1.653321	-0.848393	-0.185783
C54	C	1.605479	-0.767626	-0.191852
H55	H	1.724308	-0.845813	-0.232081
H56	H	1.665148	-0.863287	-0.108919
H57	H	1.602954	-0.890870	-0.212247
H58	H	1.655839	-0.725153	-0.165374
H59	H	1.593663	-0.752725	-0.268714
H60	H	1.508420	-0.622578	-0.002981
H61	H	1.186984	-0.213253	0.318173
H62	H	1.441723	-0.484714	0.063626
H63	H	1.241717	-0.515442	0.263531
O64	O	1.205443	-0.793883	0.299736
C65	C	1.142064	-0.734496	0.363082
H66	H	1.145201	-0.669937	0.311838
H67	H	1.180111	-0.724852	0.446957
C68	C	1.013343	-0.849151	0.451137
C69	C	1.017189	-0.769861	0.388194
H70	H	0.936316	-0.870967	0.466632
H71	H	1.056045	-0.889162	0.408463
H72	H	1.045056	-0.841104	0.521025
H73	H	0.985490	-0.777911	0.318302
H74	H	0.974479	-0.729852	0.430857
O75	O	1.218708	-0.615377	0.286756
C76	C	1.283733	-0.562992	0.353391
H77	H	1.373250	-0.549409	0.307784
H78	H	1.289434	-0.597895	0.439864
C79	C	1.116196	-0.493654	0.426993
C80	C	1.226139	-0.476964	0.370973
H81	H	1.080667	-0.440589	0.437844
H82	H	1.072385	-0.528949	0.382103
H83	H	1.120961	-0.522742	0.499048
H84	H	1.221371	-0.447887	0.298914
H85	H	1.269947	-0.441662	0.415851
H86	H	1.175031	-0.377570	0.330141
