data_functionalizedCrystal
_audit_creation_method	'MofGen! by Chris Wilmer'
_symmetry_space_group_name_H-M	'P1'
_symmetry_Int_Tables_number	1
_symmetry_cell_setting	triclinic
loop_
_symmetry_equiv_pos_as_xyz
  x,y,z
_cell_length_a	12.759401
_cell_length_b	19.805405
_cell_length_c	12.759393
_cell_angle_alpha	89.963284
_cell_angle_beta	89.982824
_cell_angle_gamma	90.026572
loop_
_atom_site_label
_atom_site_type_symbol
_atom_site_fract_x
_atom_site_fract_y
_atom_site_fract_z
Zn1	Zn	1.606156	-0.269426	-0.593937
Zn2	Zn	1.606019	-0.382629	-0.418239
Zn3	Zn	1.430462	-0.269460	-0.418276
Zn4	Zn	1.430411	-0.382579	-0.593880
O5	O	1.518262	-0.326024	-0.506083
O6	O	1.753159	-0.284450	-0.570638
O7	O	1.582695	-0.367652	-0.271222
O8	O	1.453847	-0.174739	-0.441618
O9	O	1.753058	-0.367620	-0.441553
O10	O	1.582929	-0.174714	-0.570675
O11	O	1.453714	-0.284507	-0.271250
O12	O	1.283434	-0.284459	-0.441563
O13	O	1.453760	-0.367534	-0.740909
O14	O	1.283397	-0.367567	-0.570578
O15	O	1.582879	-0.284401	-0.740951
O16	O	1.582645	-0.477339	-0.441498
O17	O	1.453627	-0.477302	-0.570541
C18	C	1.245295	-0.326011	-0.506069
C19	C	1.128518	-0.326022	-0.506088
C20	C	1.073664	-0.369366	-0.573155
C21	C	0.963940	-0.369375	-0.573166
C22	C	0.963934	-0.282694	-0.439034
C23	C	1.073656	-0.282682	-0.439029
C24	C	1.073666	-0.419413	-0.650591
C25	C	0.963942	-0.419421	-0.650603
C26	C	1.518144	-0.501880	-0.506032
C27	C	1.518189	-0.577112	-0.506046
C28	C	1.585434	-0.612453	-0.438923
C29	C	1.585479	-0.683141	-0.438946
C30	C	1.518272	-0.718487	-0.506088
C31	C	1.451024	-0.683142	-0.573217
C32	C	1.450986	-0.612454	-0.573199
C33	C	1.451179	-0.968215	-0.573295
C34	C	1.451221	-1.038907	-0.573306
C35	C	1.585672	-1.038902	-0.439043
C36	C	1.585634	-0.968214	-0.439024
C37	C	1.518390	-0.932875	-0.506157
C38	C	1.518344	-0.856226	-0.506133
C39	C	1.518313	-0.795135	-0.506108
C40	C	1.792295	-0.326037	-0.506098
C41	C	1.909072	-0.326042	-0.506104
C42	C	1.518329	-0.325958	-0.780117
C43	C	1.518358	-0.325930	-0.896893
C44	C	1.518409	-0.149481	-0.506157
C45	C	1.518472	-0.074249	-0.506189
C46	C	1.451148	-0.369197	-0.951735
C47	C	1.451186	-0.369173	-1.061459
C48	C	1.585648	-0.282609	-1.061490
C49	C	1.585614	-0.282637	-0.951768
C50	C	1.373514	-0.419172	-0.951718
C51	C	1.373553	-0.419148	-1.061443
C52	C	1.518255	-0.326040	-0.233116
C53	C	1.518430	-0.325877	-0.116340
H54	H	0.919252	-0.247408	-0.384438
H55	H	1.640157	-0.583679	-0.384245
H56	H	0.929949	-0.400711	-0.727958
H57	H	1.103477	-0.405434	-0.732001
H58	H	1.640430	-1.067684	-0.384384
Br59	Br	1.130345	-0.502387	-0.601877
Br60	Br	1.676922	-0.223858	-1.135969
H61	H	1.640356	-0.939438	-0.384348
H62	H	0.934131	-0.471829	-0.628662
H63	H	1.640236	-0.711913	-0.384288
H64	H	1.296227	-0.400399	-0.917694
Br65	Br	1.409738	-0.506558	-0.902047
H66	H	1.640353	-0.247412	-0.907120
Br67	Br	1.359728	-0.564491	-0.664304
Br68	Br	1.422070	-0.502134	-1.118141
Br69	Br	1.360005	-1.086877	-0.664432
Br70	Br	1.237982	-0.395704	-1.111098
H71	H	1.396425	-0.939447	-0.627955
H72	H	1.118314	-0.247383	-0.384423
H73	H	1.396308	-0.711926	-0.627889
