data_functionalizedCrystal
_audit_creation_method	'MofGen! by Chris Wilmer'
_symmetry_space_group_name_H-M	'P1'
_symmetry_Int_Tables_number	1
_symmetry_cell_setting	triclinic
loop_
_symmetry_equiv_pos_as_xyz
  x,y,z
_cell_length_a	8.559649
_cell_length_b	15.021413
_cell_length_c	8.559649
_cell_angle_alpha	90.005164
_cell_angle_beta	110.221336
_cell_angle_gamma	90.006487
loop_
_atom_site_label
_atom_site_type_symbol
_atom_site_fract_x
_atom_site_fract_y
_atom_site_fract_z
O1	O	2.126893	0.074029	0.055058
O2	O	1.651408	0.074030	-0.028723
O3	O	1.931041	0.074028	0.250910
O4	O	1.847260	0.074030	-0.224575
O5	O	1.930997	-0.074036	0.250869
O6	O	1.651364	-0.074034	-0.028764
O7	O	2.126849	-0.074035	0.055017
Zn8	Zn	1.889100	-0.097543	0.013120
Zn9	Zn	1.889158	0.097538	0.013174
O10	O	1.847216	-0.074034	-0.224616
C11	C	1.591077	-0.000002	-0.035093
C12	C	1.411378	-0.000001	-0.053992
N13	N	1.889072	-0.230681	0.013086
C14	C	1.759759	-0.470363	-0.116164
C15	C	1.902485	-0.529698	-0.129662
C16	C	1.889119	-0.412288	0.013132
C17	C	1.746428	-0.529695	0.026599
C18	C	1.889150	-0.587712	0.013171
C19	C	2.031909	-0.470316	-0.000430
C20	C	1.875764	-0.470307	0.155883
C21	C	2.018604	-0.529615	0.142460
C22	C	1.889098	-0.311230	0.013105
C23	C	1.889188	-0.688767	0.013201
C24	C	2.187180	-0.000001	0.061387
C25	C	2.366879	0.000004	0.080286
C26	C	1.937369	-0.000002	0.311198
C27	C	1.956268	0.000003	0.490898
N28	N	1.889200	0.230675	0.013222
C29	C	1.840889	-0.000001	-0.284904
C30	C	1.821990	-0.000000	-0.464604
H31	H	1.650452	-0.444347	-0.225572
O32	O	2.163654	-0.563880	0.287335
H33	H	2.281869	-0.539971	0.275751
H34	H	1.913809	-0.555785	-0.250364
O35	O	1.279756	-0.000002	-0.225435
H36	H	1.154534	-0.000001	-0.213876
O37	O	2.191783	-0.435925	-0.015701
H38	H	2.190485	-0.362038	-0.015665
H39	H	1.466268	0.000004	0.209714
O40	O	2.127713	-0.000008	0.622540
H41	H	2.223095	-0.000013	0.561680
O42	O	1.860715	-0.435723	0.315715
H43	H	1.862071	-0.361840	0.314713
O44	O	1.586581	-0.564246	0.041692
H45	H	1.479394	-0.540506	-0.065790
O46	O	1.650547	0.000004	0.403774
H47	H	1.662106	0.000016	0.278552
