data_functionalizedCrystal
_audit_creation_method	'MofGen! by Chris Wilmer'
_symmetry_space_group_name_H-M	'P1'
_symmetry_Int_Tables_number	1
_symmetry_cell_setting	triclinic
loop_
_symmetry_equiv_pos_as_xyz
  x,y,z
_cell_length_a	12.759394
_cell_length_b	18.215407
_cell_length_c	18.215399
_cell_angle_alpha	90.019350
_cell_angle_beta	89.974305
_cell_angle_gamma	89.984715
loop_
_atom_site_label
_atom_site_type_symbol
_atom_site_fract_x
_atom_site_fract_y
_atom_site_fract_z
Zn1	Zn	-0.418260	-1.125120	-0.416130
Zn2	Zn	-0.593959	-1.125051	-0.293069
Zn3	Zn	-0.418296	-1.002053	-0.293077
Zn4	Zn	-0.593899	-1.002040	-0.416094
O5	O	-0.506104	-1.063566	-0.354592
O6	O	-0.441577	-1.228095	-0.399817
O7	O	-0.570697	-1.108712	-0.190086
O8	O	-0.271270	-1.018413	-0.309418
O9	O	-0.570662	-1.228044	-0.309405
O10	O	-0.271244	-1.108829	-0.399825
O11	O	-0.441638	-1.018346	-0.190092
O12	O	-0.441580	-0.899067	-0.309384
O13	O	-0.570560	-1.018390	-0.519083
O14	O	-0.570595	-0.899057	-0.399764
O15	O	-0.441519	-1.108816	-0.519109
O16	O	-0.740972	-1.108699	-0.309370
O17	O	-0.740928	-1.018323	-0.399756
C18	C	-0.779071	-1.063522	-0.354575
C19	C	-0.895848	-1.063570	-0.354592
C20	C	-0.506086	-0.872360	-0.354571
C21	C	-0.506103	-0.790561	-0.354580
C22	C	-0.506029	-1.063609	-0.546545
C23	C	-0.505998	-1.063628	-0.628344
C24	C	-0.895840	-1.157749	-0.260543
C25	C	-0.950697	-1.204858	-0.213528
C26	C	-1.060419	-1.204901	-0.213548
C27	C	-1.115286	-1.157832	-0.260590
C28	C	-1.060429	-1.110723	-0.307605
C29	C	-0.950705	-1.110684	-0.307579
C30	C	-1.060437	-1.016549	-0.401656
C31	C	-0.950715	-1.016501	-0.401634
C32	C	-1.115304	-0.969480	-0.448698
C33	C	-1.060447	-0.922367	-0.495711
C34	C	-0.950718	-0.922325	-0.495689
C35	C	-0.895858	-0.969393	-0.448649
C36	C	-0.232070	-1.063630	-0.354626
C37	C	-0.115294	-1.063658	-0.354641
C38	C	-0.506122	-1.255519	-0.354614
C39	C	-0.506131	-1.337318	-0.354623
C40	C	-0.573387	-0.602381	-0.401582
C41	C	-0.573390	-0.525522	-0.401591
C42	C	-0.438839	-0.525503	-0.307619
C43	C	-0.438832	-0.602360	-0.307614
C44	C	-0.506111	-0.640797	-0.354594
C45	C	-0.506122	-0.487081	-0.354608
C46	C	-0.506126	-0.403748	-0.354618
C47	C	-0.506107	-0.724136	-0.354586
C48	C	-0.438715	-1.110740	-0.893417
C49	C	-0.438744	-1.110731	-0.816558
C50	C	-0.573128	-1.016575	-0.816520
C51	C	-0.573104	-1.016588	-0.893378
C52	C	-0.505892	-1.063669	-0.931824
C53	C	-0.505944	-1.063648	-0.778108
C54	C	-0.505975	-1.063638	-0.694774
C55	C	-0.505861	-1.063680	-1.015163
C56	C	-0.506102	-1.063565	-0.163386
C57	C	-0.505838	-1.063689	-0.081588
H58	H	-0.806499	-1.157709	-0.260513
C59	C	-0.647388	-0.644663	-0.453257
H60	H	-0.637759	-0.695939	-0.446520
H61	H	-0.632106	-0.632091	-0.502723
H62	H	-0.717962	-0.632050	-0.442395
C63	C	-0.364798	-1.162532	-0.935709
H64	H	-0.374396	-1.155796	-0.986984
H65	H	-0.380181	-1.211973	-0.923118
H66	H	-0.294206	-1.151771	-0.923122
H67	H	-0.628171	-0.494247	-0.439853
C68	C	-0.364849	-0.483220	-0.255938
H69	H	-0.374497	-0.431944	-0.262663
H70	H	-0.294275	-0.495827	-0.266786
H71	H	-0.380149	-0.495797	-0.206471
H72	H	-0.627848	-0.978242	-0.785208
C73	C	-0.890347	-1.256630	-0.161783
H74	H	-0.938734	-1.284696	-0.133791
H75	H	-0.847610	-1.228479	-0.129686
H76	H	-0.847480	-1.288669	-0.189957
C77	C	-0.364826	-0.644621	-0.255925
H78	H	-0.324769	-0.610723	-0.227939
H79	H	-0.319099	-0.674621	-0.284130
H80	H	-0.404964	-0.674584	-0.223808
C81	C	-0.364849	-1.162505	-0.774310
H82	H	-0.374494	-1.155762	-0.723030
H83	H	-0.294254	-1.151749	-0.786914
H84	H	-0.380225	-1.211953	-0.786914
C85	C	-0.646999	-0.964807	-0.935629
H86	H	-0.687021	-0.936757	-0.901725
H87	H	-0.692765	-0.992955	-0.965609
H88	H	-0.606791	-0.932752	-0.965611
H89	H	-1.105083	-1.243264	-0.175267
C90	C	-1.120800	-0.870598	-0.547450
H91	H	-1.194002	-0.877371	-0.540728
H92	H	-1.102751	-0.881332	-0.596902
H93	H	-1.102894	-0.821146	-0.536627
C94	C	-1.235976	-1.157886	-0.260623
H95	H	-1.260796	-1.123112	-0.295374
H96	H	-1.260875	-1.145198	-0.213128
H97	H	-1.260717	-1.205384	-0.273403
C98	C	-1.235994	-0.969528	-0.448728
H99	H	-1.260811	-0.934755	-0.483481
H100	H	-1.260886	-0.956834	-0.401233
H101	H	-1.260743	-1.017026	-0.461503
C102	C	-0.890384	-0.870507	-0.547409
H103	H	-0.938778	-0.842481	-0.575422
H104	H	-0.847513	-0.898626	-0.579487
H105	H	-0.847651	-0.838432	-0.519220
H106	H	-0.806517	-0.969358	-0.448621
