data_functionalizedCrystal
_audit_creation_method	'MofGen! by Chris Wilmer'
_symmetry_space_group_name_H-M	'P1'
_symmetry_Int_Tables_number	1
_symmetry_cell_setting	triclinic
loop_
_symmetry_equiv_pos_as_xyz
  x,y,z
_cell_length_a	14.395555
_cell_length_b	19.377369
_cell_length_c	19.376995
_cell_angle_alpha	62.446887
_cell_angle_beta	75.506474
_cell_angle_gamma	48.635948
loop_
_atom_site_label
_atom_site_type_symbol
_atom_site_fract_x
_atom_site_fract_y
_atom_site_fract_z
Zr1	Zr	0.692979	0.779840	0.049366
O2	O	0.538501	0.928486	-0.037225
O3	O	0.771189	0.631198	0.057027
O4	O	0.776796	0.779840	-0.064450
O5	O	0.493375	0.779843	0.201557
O6	O	0.929669	0.779834	-0.064445
O7	O	0.532894	0.779844	0.084252
O8	O	0.919640	0.513942	0.152855
O9	O	0.503403	1.045735	-0.015744
O10	O	0.881356	0.692331	0.083113
O11	O	0.737775	0.692334	0.170652
O12	O	0.744375	0.867340	0.027629
O13	O	0.600794	0.867343	0.115168
Zr14	Zr	0.873765	0.779829	0.236461
Zr15	Zr	0.936795	0.779831	0.049375
Zr16	Zr	0.629950	0.779837	0.236453
Zr17	Zr	0.637003	0.966839	0.083626
Zr18	Zr	0.929742	0.592829	0.202202
O19	O	0.795555	0.928470	0.228801
O20	O	0.885175	0.928474	-0.037213
O21	O	0.448881	0.928482	0.228789
O22	O	1.028244	0.631182	0.323052
O23	O	1.117864	0.631186	0.057039
O24	O	0.681569	0.631194	0.323040
O25	O	1.073370	0.779826	0.084271
O26	O	0.789949	0.779829	0.350278
O27	O	0.637075	0.779834	0.350272
O28	O	1.033850	0.779824	0.201575
O29	O	0.697204	1.045729	-0.015737
O30	O	0.869540	0.513940	0.301564
O31	O	1.063341	0.513933	0.301571
O32	O	1.113441	0.513935	0.152862
O33	O	0.453303	1.045733	0.132966
O34	O	0.647104	1.045726	0.132972
O35	O	0.822369	0.692328	0.258199
O36	O	0.965950	0.692326	0.170660
O37	O	0.828970	0.867335	0.115175
O38	O	0.685389	0.867337	0.202714
C39	C	0.853390	0.545927	0.100060
C40	C	0.877154	0.466540	0.085516
C41	C	0.580970	0.205148	0.266401
C42	C	0.603434	0.130461	0.252797
C43	C	0.753322	0.130468	0.161413
C44	C	0.730875	0.205152	0.175012
C45	C	0.644696	0.242487	0.227507
C46	C	0.794601	0.242492	0.136118
C47	C	0.772150	0.317173	0.149714
C48	C	0.685974	0.354515	0.202203
C49	C	0.622246	0.317168	0.241102
C50	C	0.880773	0.205161	0.083620
C51	C	0.944499	0.242500	0.044725
C52	C	0.922055	0.317178	0.058325
C53	C	0.835878	0.354520	0.110815
C54	C	0.985783	0.354524	0.019426
C55	C	0.963332	0.429206	0.033021
C56	C	0.813428	0.429201	0.124410
C57	C	0.478396	0.779845	0.142903
C58	C	0.374890	0.779848	0.142900
C59	C	0.239611	0.875271	0.112655
C60	C	0.234707	0.827570	0.069327
C61	C	0.195373	0.827546	0.186220
C62	C	0.371366	0.732147	0.099524
C63	C	0.332010	0.732136	0.216465
C64	C	0.327193	0.684365	0.173145
C65	C	1.088349	0.779824	0.142924
C66	C	1.191855	0.779820	0.142928
C67	C	0.862213	0.779837	-0.091103
C68	C	0.888971	0.779839	-0.170526
C69	C	0.713354	1.013742	0.185768
C70	C	0.689591	1.093128	0.200312
C71	C	1.010900	0.779836	-0.282468
C72	C	0.985747	0.779835	-0.207838
C73	C	0.817313	0.779837	-0.207835
C74	C	0.842456	0.779833	-0.282465
C75	C	0.939250	0.779833	-0.319776
C76	C	0.770806	0.779830	-0.319773
C77	C	0.795943	0.779831	-0.394398
C78	C	0.892730	0.779835	-0.431715
C79	C	0.964387	0.779834	-0.394401
C80	C	0.674007	0.779837	-0.282463
C81	C	0.602357	0.779834	-0.319771
C82	C	0.627500	0.779828	-0.394396
C83	C	0.724286	0.779831	-0.431713
C84	C	0.555843	0.779828	-0.431710
C85	C	0.580980	0.779829	-0.506335
C86	C	0.749424	0.779832	-0.506338
C87	C	0.704532	0.779831	0.376931
C88	C	0.677774	0.779830	0.456354
C89	C	1.158367	0.545916	0.100070
C90	C	1.285636	0.466526	0.085530
C91	C	0.774550	0.545923	0.334077
C92	C	0.771555	0.466536	0.398956
C93	C	1.079526	0.545913	0.334087
C94	C	1.180038	0.466522	0.398970
C95	C	0.487219	1.013756	-0.048260
C96	C	0.386707	1.093146	-0.113142
C97	C	0.408378	1.013752	0.185757
C98	C	0.281108	1.093142	0.200298
C99	C	0.792195	1.013745	-0.048249
C100	C	0.795189	1.093132	-0.113128
C101	C	1.301249	0.429247	0.032995
C102	C	1.420826	0.354662	0.019317
C103	C	1.524788	0.317353	0.058179
C104	C	1.509171	0.354640	0.110716
C105	C	1.389596	0.429229	0.124389
C106	C	0.814304	0.429252	0.475130
C107	C	0.811481	0.354670	0.536100
C108	C	0.765916	0.317368	0.520893
C109	C	0.723161	0.354659	0.444711
C110	C	0.725977	0.429245	0.383744
C111	C	1.302197	0.429238	0.383745
C112	C	1.396648	0.354652	0.444704
C113	C	1.368937	0.317347	0.520886
C114	C	1.246765	0.354638	0.536111
C115	C	1.152315	0.429228	0.475153
C116	C	0.264544	1.130440	-0.097916
C117	C	0.170087	1.205049	-0.158870
C118	C	0.197797	1.242358	-0.235052
C119	C	0.319971	1.205061	-0.250277
C120	C	0.414424	1.130459	-0.189322
C121	C	0.265496	1.130429	0.252826
C122	C	0.145920	1.205035	0.266487
C123	C	0.041958	1.242346	0.227624
C124	C	0.057575	1.205056	0.175089
C125	C	0.177149	1.130457	0.161424
C126	C	0.840763	1.130411	-0.097898
C127	C	0.843599	1.204994	-0.158853
C128	C	0.800853	1.242302	-0.235038
C129	C	0.755279	1.205016	-0.250268
C130	C	0.752452	1.130429	-0.189314
H131	H	0.743253	0.459601	0.167157
C132	C	0.673051	0.313610	0.427995
N133	N	0.635316	0.282684	0.415406
C134	C	0.191021	0.984273	0.078015
N135	N	0.154429	1.066371	0.051922
H136	H	1.216611	0.459623	0.001338
C137	C	1.437976	0.313651	-0.038470
N138	N	1.450890	0.282762	-0.081993
C139	C	1.472851	0.235288	0.587932
N140	N	1.551125	0.173478	0.638427
H141	H	1.622147	0.256618	0.047039
C142	C	1.623545	0.313582	0.153464
N143	N	1.709695	0.282649	0.185666
C144	C	0.502164	0.779822	-0.547375
N145	N	0.442796	0.779820	-0.578287
H146	H	1.052851	0.459575	0.487560
C147	C	0.864422	0.470276	0.491878
N148	N	0.902165	0.501176	0.504500
C149	C	0.533291	0.089416	0.295568
N150	N	0.480447	0.058511	0.327774
C151	C	0.661279	0.436666	0.217160
N152	N	0.642681	0.498541	0.228426
C153	C	0.495890	0.779829	-0.278720
N154	N	0.415701	0.779821	-0.247799
C155	C	1.216305	0.313583	0.619916
N156	N	1.193368	0.282652	0.683039
C157	C	0.035705	1.246059	-0.142106
N158	N	-0.065509	1.276946	-0.129476
C159	C	1.332707	0.470265	0.299950
N160	N	1.355696	0.501168	0.236837
C161	C	0.887800	1.089381	-0.014100
N162	N	0.923239	1.058476	0.049015
C163	C	0.093883	1.324415	-0.302098
N164	N	0.015612	1.386216	-0.352594
C165	C	-0.056800	1.246095	0.132356
N166	N	-0.142951	1.277001	0.100176
H167	H	0.899042	0.144355	0.072548
H168	H	0.880707	1.235344	-0.146437
C169	C	0.449368	0.779833	-0.390660
N170	N	0.369171	0.779836	-0.359741
H171	H	1.496119	0.324297	0.432294
H172	H	0.446664	0.691847	0.062827
C173	C	0.855897	0.779840	-0.547386
N174	N	0.936084	0.779853	-0.578306
C175	C	0.803969	1.324351	-0.302080
N176	N	0.806317	1.386153	-0.352574
C177	C	0.702293	1.089444	-0.206079
N178	N	0.664507	1.058581	-0.218711
H179	H	0.691171	0.459592	0.321720
H180	H	0.241961	1.100067	-0.035891
C181	C	0.350434	1.246103	-0.334085
N182	N	0.373378	1.277012	-0.397212
C183	C	0.128769	1.246032	0.324285
N184	N	0.115854	1.276907	0.367820
H185	H	1.376900	0.459572	0.167172
H186	H	0.513894	1.100095	-0.201730
C187	C	1.070861	0.779842	-0.435449
N188	N	1.151047	0.779855	-0.466369
C189	C	0.858533	0.313654	0.619892
N190	N	0.893978	0.282760	0.683002
H191	H	0.552071	0.347568	0.283849
C192	C	0.486160	0.246227	0.324142
N193	N	0.414744	0.277175	0.367625
H194	H	0.350134	1.100056	0.284481
C195	C	0.762842	0.235311	0.587966
N196	N	0.760537	0.173501	0.638488
H197	H	1.089728	0.779826	-0.312844
H198	H	0.363424	0.603611	0.198717
H199	H	1.055940	0.324124	-0.023321
H200	H	-0.055401	1.303089	0.238757
C201	C	0.708320	1.246030	-0.334084
N202	N	0.672967	1.276914	-0.397218
H203	H	0.189845	1.100100	0.118653
C204	C	0.388948	0.677722	0.300482
N205	N	0.431832	0.636751	0.363763
C206	C	1.033438	0.470278	-0.009762
N207	N	1.086243	0.501216	-0.041989
C208	C	0.177724	0.882065	-0.014695
N209	N	0.134786	0.923121	-0.077977
C210	C	1.039295	0.201421	-0.013015
N211	N	1.110701	0.170478	-0.056503
H212	H	0.823485	0.100064	0.118670
C213	C	1.064579	0.779834	-0.166800
N214	N	1.123953	0.779834	-0.135891
C215	C	0.710846	0.779833	-0.166783
N216	N	0.630657	0.779824	-0.135863
C217	C	0.093476	0.882049	0.235704
N218	N	0.016727	0.923108	0.272971
H219	H	0.913191	0.779840	-0.492481
H220	H	0.653541	0.779841	-0.221700
