data_functionalizedCrystal
_audit_creation_method	'MofGen! by Chris Wilmer'
_symmetry_space_group_name_H-M	'P1'
_symmetry_Int_Tables_number	1
_symmetry_cell_setting	triclinic
loop_
_symmetry_equiv_pos_as_xyz
  x,y,z
_cell_length_a	14.908571
_cell_length_b	17.640280
_cell_length_c	14.908308
_cell_angle_alpha	97.330278
_cell_angle_beta	89.824947
_cell_angle_gamma	74.921313
loop_
_atom_site_label
_atom_site_type_symbol
_atom_site_fract_x
_atom_site_fract_y
_atom_site_fract_z
Zn1	Zn	1.445833	-0.413045	0.498174
Zn2	Zn	1.945833	0.086955	0.998174
Zn3	Zn	1.484886	-0.538235	0.320716
Zn4	Zn	1.984886	-0.038235	0.820716
Zn5	Zn	1.300448	-0.397842	0.342463
Zn6	Zn	1.800448	0.102158	0.842463
Zn7	Zn	1.325685	-0.537295	0.462571
Zn8	Zn	1.825685	-0.037295	0.962571
O9	O	1.389213	-0.471604	0.405981
O10	O	1.889213	0.028396	0.905981
O11	O	1.578484	-0.436407	0.480433
O12	O	2.078484	0.063593	0.980433
O13	O	1.466202	-0.513643	0.199068
O14	O	1.966202	-0.013643	0.699068
O15	O	1.292829	-0.289105	0.387120
O16	O	1.792829	0.210895	0.887120
O17	O	1.607176	-0.528384	0.350055
O18	O	2.107176	-0.028384	0.850055
O19	O	1.399643	-0.300274	0.501520
O20	O	1.899643	0.199726	1.001520
O21	O	1.330696	-0.410497	0.215045
O22	O	1.830696	0.089503	0.715045
O23	O	1.176326	-0.409585	0.352597
O24	O	1.676326	0.090415	0.852597
O25	O	1.335841	-0.526782	0.591827
O26	O	1.835841	-0.026782	1.091827
O27	O	1.194867	-0.512041	0.440840
O28	O	1.694867	-0.012041	0.940840
O29	O	1.424113	-0.435496	0.617984
O30	O	1.924113	0.064504	1.117984
O31	O	1.490673	-0.648865	0.315532
O32	O	1.990673	-0.148865	0.815532
O33	O	1.373708	-0.648174	0.419752
O34	O	1.873708	-0.148174	0.919752
C35	C	1.152545	-0.459062	0.395215
C36	C	1.652545	0.040938	0.895215
C37	C	1.051300	-0.453716	0.390626
C38	C	1.551300	0.046284	0.890626
C39	C	0.880453	-0.550508	0.473704
C40	C	1.380453	-0.050508	0.973704
C41	C	0.785325	-0.545487	0.469395
C42	C	1.285325	-0.045487	0.969395
C43	C	0.765915	-0.438653	0.377705
C44	C	1.265915	0.061347	0.877705
C45	C	0.861043	-0.443673	0.382014
C46	C	1.361043	0.056327	0.882014
C47	C	0.918309	-0.499603	0.430014
C48	C	1.418309	0.000397	0.930014
C49	C	1.013439	-0.504626	0.434317
C50	C	1.513439	-0.004626	0.934317
C51	C	0.994026	-0.397788	0.342633
C52	C	1.494026	0.102212	0.842633
C53	C	0.898899	-0.392768	0.338324
C54	C	1.398899	0.107232	0.838324
C55	C	1.439191	-0.677239	0.361439
C56	C	1.939191	-0.177239	0.861439
C57	C	1.460653	-0.765216	0.342418
C58	C	1.960653	-0.265216	0.842418
C59	C	1.226523	-1.052872	0.550826
C60	C	1.726523	-0.552872	1.050826
C61	C	1.246694	-1.135539	0.532924
C62	C	1.746694	-0.635539	1.032924
C63	C	1.368555	-1.136202	0.424518
C64	C	1.868555	-0.636202	0.924518
C65	C	1.348398	-1.053534	0.442414
C66	C	1.848398	-0.553534	0.942414
C67	C	1.277380	-1.011876	0.505568
C68	C	1.777380	-0.511876	1.005568
C69	C	1.399256	-1.012538	0.397156
C70	C	1.899256	-0.512538	0.897156
C71	C	1.379096	-0.929876	0.415047
C72	C	1.879096	-0.429876	0.915047
C73	C	1.308080	-0.888212	0.478197
C74	C	1.808080	-0.388212	0.978197
C75	C	1.257221	-0.929214	0.523460
C76	C	1.757221	-0.429214	1.023460
C77	C	1.470269	-1.054197	0.333997
C78	C	1.970269	-0.554197	0.833997
C79	C	1.521126	-1.013201	0.288739
C80	C	2.021126	-0.513201	0.788739
C81	C	1.500972	-0.930538	0.306635
C82	C	2.000972	-0.430538	0.806635
C83	C	1.429955	-0.888874	0.369784
C84	C	1.929955	-0.388874	0.869784
C85	C	1.551830	-0.889536	0.261372
C86	C	2.051830	-0.389536	0.761372
C87	C	1.531671	-0.806875	0.279264
C88	C	2.031671	-0.306875	0.779264
C89	C	1.409796	-0.806213	0.387676
C90	C	1.909796	-0.306213	0.887676
C91	C	1.626806	-0.484197	0.416790
C92	C	2.126806	0.015803	0.916790
C93	C	1.728054	-0.489563	0.421396
C94	C	2.228054	0.010437	0.921396
C95	C	1.378436	-0.482730	0.638098
C96	C	1.878436	0.017270	1.138098
C97	C	1.373843	-0.487470	0.737013
C98	C	1.873843	0.012530	1.237013
C99	C	1.339064	-0.265169	0.450717
C100	C	1.839064	0.234831	0.950717
C101	C	1.317694	-0.177199	0.469781
C102	C	1.817694	0.322801	0.969781
C103	C	1.399987	-0.460468	0.174782
C104	C	1.899987	0.039532	0.674782
C105	C	1.404702	-0.455514	0.075924
C106	C	1.904702	0.044486	0.575924
C107	C	1.457124	-0.401304	0.950127
C108	C	1.957124	0.098696	1.450127
C109	C	1.452812	-0.405756	1.043067
C110	C	1.952812	0.094244	1.543067
C111	C	1.360899	-0.500821	1.015834
C112	C	1.860899	-0.000821	1.515834
C113	C	1.365212	-0.496369	0.922895
C114	C	1.865212	0.003631	1.422895
C115	C	1.413328	-0.446610	0.890045
C116	C	1.913328	0.053390	1.390045
C117	C	1.417646	-0.442163	0.797102
C118	C	1.917646	0.057837	1.297102
C119	C	1.325728	-0.537224	0.769872
C120	C	1.825728	-0.037224	1.269872
C121	C	1.321415	-0.541675	0.862812
C122	C	1.821415	-0.041675	1.362812
H123	H	0.927081	-0.596052	0.512781
H124	H	1.427081	-0.096052	1.012781
O125	O	1.188304	-0.888832	0.584924
O126	O	1.688304	-0.388832	1.084924
C127	C	1.208961	-0.914288	0.670177
C128	C	1.708961	-0.414288	1.170177
H129	H	1.258510	-0.976229	0.660655
H130	H	1.758510	-0.476229	1.160655
H131	H	1.142039	-0.915570	0.706430
H132	H	1.642039	-0.415570	1.206430
H133	H	1.243036	-0.871650	0.712382
H134	H	1.743036	-0.371650	1.212382
O135	O	1.495444	-0.361721	1.101303
O136	O	1.995444	0.138279	1.601303
C137	C	1.538812	-0.316834	1.052376
C138	C	2.038812	0.183166	1.552376
H139	H	1.552918	-0.346245	0.979245
H140	H	2.052918	0.153755	1.479245
H141	H	1.607284	-0.313476	1.084322
H142	H	2.107284	0.186524	1.584322
H143	H	1.491307	-0.254485	1.053999
H144	H	1.991307	0.245515	1.553999
H145	H	1.321726	-0.541333	1.042598
H146	H	1.821726	-0.041333	1.542598
O147	O	0.748394	-0.594855	0.511813
O148	O	1.248394	-0.094855	1.011813
C149	C	0.652157	-0.578447	0.497700
C150	C	1.152157	-0.078447	0.997700
H151	H	0.625639	-0.515251	0.481311
H152	H	1.125639	-0.015251	0.981311
H153	H	0.614253	-0.585192	0.561530
H154	H	1.114253	-0.085192	1.061530
H155	H	0.638757	-0.621631	0.438848
H156	H	1.138757	-0.121631	0.938848
O157	O	1.503993	-0.353092	0.918151
O158	O	2.003993	0.146908	1.418151
C159	C	1.576252	-0.398696	0.857285
C160	C	2.076252	0.101304	1.357285
H161	H	1.595718	-0.462670	0.872044
H162	H	2.095718	0.037330	1.372044
H163	H	1.639451	-0.373738	0.865619
H164	H	2.139451	0.126262	1.365619
H165	H	1.552018	-0.396555	0.784977
H166	H	2.052018	0.103445	1.284977
H167	H	1.060064	-0.550169	0.473399
H168	H	1.560064	-0.050169	0.973399
H169	H	1.291662	-0.820903	0.492756
H170	H	1.791662	-0.320903	0.992756
H171	H	0.719272	-0.393112	0.338632
H172	H	1.219272	0.106888	0.838632
O173	O	1.030783	-0.348409	0.300043
O174	O	1.530783	0.151591	0.800043
C175	C	1.015786	-0.360094	0.206547
C176	C	1.515786	0.139906	0.706547
H177	H	1.005225	-0.421716	0.187065
H178	H	1.505225	0.078284	0.687065
H179	H	1.078701	-0.354412	0.166912
H180	H	1.578701	0.145588	0.666912
H181	H	0.951310	-0.313604	0.190059
H182	H	1.451310	0.186396	0.690059
H183	H	0.852260	-0.347230	0.299247
H184	H	1.352260	0.152770	0.799247
O185	O	1.274829	-0.590102	0.894755
O186	O	1.774829	-0.090102	1.394755
C187	C	1.336612	-0.646526	0.939821
C188	C	1.836612	-0.146526	1.439821
H189	H	1.410842	-0.653870	0.914018
H190	H	1.910842	-0.153870	1.414018
H191	H	1.318421	-0.705743	0.926183
H192	H	1.818421	-0.205743	1.426183
H193	H	1.330532	-0.625593	1.015703
H194	H	1.830532	-0.125593	1.515703
H195	H	1.456825	-0.401647	0.770358
H196	H	1.956825	0.098353	1.270358
O197	O	1.340879	-0.765831	0.449141
O198	O	1.840879	-0.265831	0.949141
C199	C	1.361536	-0.791286	0.534393
C200	C	1.861536	-0.291286	1.034393
H201	H	1.411085	-0.853228	0.524872
H202	H	1.911085	-0.353228	1.024872
H203	H	1.294614	-0.792568	0.570647
H204	H	1.794614	-0.292568	1.070647
H205	H	1.395611	-0.748648	0.576598
H206	H	1.895611	-0.248648	1.076598
H207	H	1.290069	-0.574117	0.720942
H208	H	1.790069	-0.074117	1.220942
H209	H	1.168699	-1.018953	0.602260
H210	H	1.668699	-0.518953	1.102260
O211	O	1.197228	-1.175244	0.577006
O212	O	1.697228	-0.675244	1.077006
C213	C	1.130211	-1.120744	0.636565
C214	C	1.630211	-0.620744	1.136565
H215	H	1.152996	-1.063918	0.654130
H216	H	1.652996	-0.563918	1.154130
H217	H	1.123005	-1.147463	0.701061
H218	H	1.623005	-0.647463	1.201061
H219	H	1.060441	-1.106782	0.602666
H220	H	1.560441	-0.606782	1.102666
H221	H	1.426376	-1.170132	0.373095
H222	H	1.926376	-0.670132	0.873095
H223	H	1.578946	-1.047130	0.237316
H224	H	2.078946	-0.547130	0.737316
O225	O	1.490025	-1.134504	0.316626
O226	O	1.990025	-0.634504	0.816626
C227	C	1.582959	-1.167772	0.337573
C228	C	2.082959	-0.667772	0.837573
H229	H	1.624511	-1.122150	0.335115
H230	H	2.124511	-0.622150	0.835115
H231	H	1.614534	-1.222002	0.286213
H232	H	2.114534	-0.722002	0.786213
H233	H	1.584980	-1.186066	0.408327
H234	H	2.084980	-0.686066	0.908327
O235	O	1.620903	-0.930057	0.200143
O236	O	2.120903	-0.430057	0.700143
C237	C	1.688977	-0.983392	0.243175
C238	C	2.188977	-0.483392	0.743175
H239	H	1.685228	-0.962125	0.318918
H240	H	2.185228	-0.462125	0.818918
H241	H	1.760813	-0.986470	0.214030
H242	H	2.260813	-0.486470	0.714030
H243	H	1.675936	-1.044707	0.231373
H244	H	2.175936	-0.544707	0.731373
O245	O	1.581187	-0.767171	0.235249
O246	O	2.081187	-0.267171	0.735249
C247	C	1.648175	-0.821663	0.175655
C248	C	2.148175	-0.321663	0.675655
H249	H	1.663983	-0.882491	0.199499
H250	H	2.163983	-0.382491	0.699499
H251	H	1.714550	-0.801074	0.174663
H252	H	2.214550	-0.301074	0.674663
H253	H	1.620164	-0.825486	0.104617
H254	H	2.120164	-0.325486	0.604617
