data_functionalizedCrystal
_audit_creation_method	'MofGen! by Chris Wilmer'
_symmetry_space_group_name_H-M	'P1'
_symmetry_Int_Tables_number	1
_symmetry_cell_setting	triclinic
loop_
_symmetry_equiv_pos_as_xyz
  x,y,z
_cell_length_a	6.817900
_cell_length_b	11.102269
_cell_length_c	12.908943
_cell_angle_alpha	94.413588
_cell_angle_beta	100.860631
_cell_angle_gamma	108.605385
loop_
_atom_site_label
_atom_site_type_symbol
_atom_site_fract_x
_atom_site_fract_y
_atom_site_fract_z
V1	V	-4.022089	-0.174253	-0.328685
O2	O	-3.982824	0.010006	-0.322425
O3	O	-3.999477	-0.347085	-0.326440
O4	O	-3.959861	-0.170857	-0.472034
O5	O	-4.022714	-0.167442	-0.175823
V6	V	-4.504167	-0.152298	-0.310401
O7	O	-4.286517	-0.222413	-0.368792
O8	O	-4.689936	-0.104138	-0.270294
O9	O	-4.303572	0.020533	-0.312646
O10	O	-4.660828	-0.336558	-0.316661
O11	O	-4.620938	-0.159109	-0.463263
O12	O	-4.343188	-0.155695	-0.167052
C13	C	-3.851199	-0.389240	-0.321256
C14	C	-3.913906	-0.530527	-0.320376
C15	C	-4.036172	-0.747347	-0.415669
C16	C	-3.977270	-0.614594	-0.416501
C17	C	-3.909465	-0.579220	-0.223414
C18	C	-3.968381	-0.711972	-0.222584
C19	C	-4.054837	-0.458563	-0.537000
C20	C	-4.059250	-0.409874	-0.633959
C21	C	-3.990933	-0.464430	-0.715545
C22	C	-3.918155	-0.567673	-0.700175
C23	C	-3.913720	-0.616355	-0.603214
C24	C	-3.982086	-0.561803	-0.521633
C25	C	-3.890801	-0.868006	-0.102091
C26	C	-3.886352	-0.916689	-0.005128
C27	C	-3.954655	-0.862134	0.076468
C28	C	-4.027397	-0.758884	0.061109
C29	C	-4.031846	-0.710200	-0.035853
C30	C	-3.963551	-0.764765	-0.117450
C31	C	-3.800664	-0.164442	-0.506974
C32	C	-3.831240	-0.162808	-0.624163
C33	C	-4.253829	-0.172351	-0.855110
C34	C	-4.282568	-0.170816	-0.965220
C35	C	-3.917455	-0.158196	-0.954494
C36	C	-3.888716	-0.159730	-0.844384
C37	C	-4.056912	-0.166810	-0.794696
C38	C	-4.028175	-0.168353	-0.684586
C39	C	-3.663060	-0.155724	-0.673860
C40	C	-3.691799	-0.154190	-0.783970
C41	C	-4.115193	0.062682	-0.317827
C42	C	-4.031724	0.203968	-0.318714
C43	C	-4.165728	-0.162114	-0.132106
C44	C	-4.114390	-0.163741	-0.014916
H45	H	-4.118523	-0.325815	-0.646468
C46	C	-3.789020	-0.360013	-0.138950
C47	C	-3.839809	-0.486816	-0.117750
H48	H	-3.746001	-0.302970	-0.073714
H49	H	-3.910092	-0.349650	-0.182107
H50	H	-3.676493	-0.341417	-0.175391
H51	H	-3.952348	-0.505415	-0.081315
H52	H	-3.718723	-0.497184	-0.074575
H53	H	-3.554864	-0.148421	-0.824440
C54	C	-3.799414	-0.150236	-1.118527
C55	C	-3.732593	-0.150415	-1.009123
H56	H	-3.685288	-0.145440	-1.152252
H57	H	-3.843237	-0.078168	-1.129129
H58	H	-3.915017	-0.226991	-1.148399
H59	H	-3.617000	-0.073655	-0.979250
H60	H	-3.688740	-0.222489	-0.998514
C61	C	-3.456968	-0.152668	-0.500335
C62	C	-3.446653	-0.149764	-0.607467
H63	H	-3.323387	-0.149025	-0.459353
H64	H	-3.563260	-0.229881	-0.494175
H65	H	-3.491218	-0.081051	-0.474816
H66	H	-3.412418	-0.221387	-0.632989
H67	H	-3.340327	-0.072543	-0.613633
H68	H	-4.390788	-0.178128	-0.814656
H69	H	-3.854454	-0.700408	-0.590698
C70	C	-4.155644	-0.959274	0.200718
C71	C	-3.949762	-0.915639	0.183057
H72	H	-4.152622	-0.992294	0.266524
H73	H	-4.245185	-1.025140	0.144392
H74	H	-4.208734	-0.889970	0.203234
H75	H	-3.896678	-0.984945	0.180534
H76	H	-3.860189	-0.849766	0.239398
H77	H	-4.110499	-0.414144	-0.470577
H78	H	-4.087748	-0.815786	-0.493945
H79	H	-3.827086	-1.000750	0.007378
H80	H	-3.862500	-0.612075	-0.766610
H81	H	-3.994525	-0.424778	-0.794491
H82	H	-4.091143	-0.626152	-0.048366
C83	C	-4.315227	-0.709721	0.114723
C84	C	-4.102491	-0.698903	0.150793
H85	H	-4.361573	-0.672683	0.170092
H86	H	-4.400120	-0.797847	0.094846
H87	H	-4.328252	-0.665948	0.054778
H88	H	-4.089468	-0.742684	0.210734
H89	H	-4.017574	-0.610760	0.170684
H90	H	-4.442914	-0.175329	-1.014405
C91	C	-3.602973	-0.917132	-0.155735
C92	C	-3.815722	-0.927971	-0.191791
H93	H	-3.556620	-0.954144	-0.211115
H94	H	-3.589917	-0.960905	-0.095804
H95	H	-3.518093	-0.828990	-0.135851
H96	H	-3.900604	-1.016114	-0.211669
H97	H	-3.828795	-0.884201	-0.251742
H98	H	-4.165133	-0.174123	-0.644133
