data_functionalizedCrystal
_audit_creation_method	'MofGen! by Chris Wilmer'
_symmetry_space_group_name_H-M	'P1'
_symmetry_Int_Tables_number	1
_symmetry_cell_setting	triclinic
loop_
_symmetry_equiv_pos_as_xyz
  x,y,z
_cell_length_a	17.699083
_cell_length_b	10.723024
_cell_length_c	16.776229
_cell_angle_alpha	89.994545
_cell_angle_beta	89.998886
_cell_angle_gamma	83.875442
loop_
_atom_site_label
_atom_site_type_symbol
_atom_site_fract_x
_atom_site_fract_y
_atom_site_fract_z
O1	O	1.005074	0.157797	-0.066174
O2	O	0.784825	0.178327	-0.066200
O3	O	0.900030	-0.013601	-0.066184
O4	O	0.889869	0.349725	-0.066191
O5	O	0.900014	-0.013613	0.066393
O6	O	0.784809	0.178315	0.066376
O7	O	1.005058	0.157785	0.066402
Zn8	Zn	0.894931	0.168048	0.087439
Zn9	Zn	0.894952	0.168064	-0.087237
O10	O	0.889854	0.349713	0.066386
C11	C	0.756616	0.177585	0.000085
C12	C	0.672584	0.175378	0.000075
C13	C	0.624673	0.288036	0.000073
C14	C	0.545717	0.285955	0.000083
C15	C	0.514672	0.171215	0.000090
C16	C	0.562589	0.058549	0.000094
C17	C	0.641544	0.060631	0.000090
C18	C	0.244173	0.050148	0.000114
C19	C	0.165212	0.048075	0.000116
C20	C	0.148346	0.275473	0.000108
C21	C	0.227301	0.277555	0.000103
C22	C	0.275210	0.164889	0.000112
C23	C	0.360824	0.167147	0.000102
C24	C	0.429060	0.168956	0.000094
C25	C	0.899283	-0.060094	0.000103
C26	C	0.897070	-0.198610	0.000100
C27	C	0.961533	-0.274698	0.000107
C28	C	0.959248	-0.417863	0.000104
C29	C	1.033268	0.158527	0.000115
C30	C	1.117300	0.160734	0.000120
C31	C	0.890601	0.396206	0.000097
C32	C	0.892813	0.534723	0.000095
N33	N	0.894923	0.168037	0.206650
N34	N	0.894966	0.168065	-0.206448
C35	C	0.945952	0.083086	0.248374
C36	C	0.945956	0.083085	0.331826
C37	C	0.894934	0.168042	0.373553
C38	C	0.843900	0.252997	0.331822
C39	C	0.843893	0.252991	0.248372
C40	C	0.843928	0.253021	0.668370
C41	C	0.843941	0.253023	0.751826
C42	C	0.945991	0.083115	0.751824
C43	C	0.945983	0.083109	0.668374
C44	C	0.894947	0.168059	0.626651
C45	C	0.894942	0.168058	0.536162
C46	C	0.894942	0.168050	0.464040
H47	H	0.680552	-0.031107	0.000091
H48	H	0.987507	0.013911	0.365798
H49	H	0.802340	0.322165	0.214401
O50	O	0.096667	0.396993	0.000107
H51	H	0.131520	0.477126	0.000092
H52	H	1.014433	-0.483241	0.000113
O53	O	0.658156	0.411792	0.000074
H54	H	0.611573	0.489780	0.000084
H55	H	0.506711	0.377693	0.000081
H56	H	0.840190	-0.239457	0.000089
H57	H	1.018413	-0.233851	0.000118
O58	O	0.788873	0.344633	0.376828
H59	H	0.799017	0.441884	0.360791
H60	H	0.139939	-0.045366	0.000123
O61	O	0.260787	0.401308	0.000108
H62	H	0.214206	0.479300	0.000119
O63	O	0.295839	-0.071367	0.000125
H64	H	0.284733	-0.126282	-0.053911
H65	H	0.537306	-0.034875	0.000111
O66	O	0.819703	-0.378700	0.000092
H67	H	0.817401	-0.318680	-0.053945
O68	O	1.000979	-0.008551	0.203370
H69	H	1.036457	-0.067632	0.246407
H70	H	0.987532	0.013934	0.634403
H71	H	0.987545	0.013940	0.785804
H72	H	0.802390	0.322208	0.785798
H73	H	0.802374	0.322193	0.634405
