data_functionalizedCrystal
_audit_creation_method	'MofGen! by Chris Wilmer'
_symmetry_space_group_name_H-M	'P1'
_symmetry_Int_Tables_number	1
_symmetry_cell_setting	triclinic
loop_
_symmetry_equiv_pos_as_xyz
  x,y,z
_cell_length_a	16.992694
_cell_length_b	15.944551
_cell_length_c	15.455313
_cell_angle_alpha	92.664316
_cell_angle_beta	87.142206
_cell_angle_gamma	87.083481
loop_
_atom_site_label
_atom_site_type_symbol
_atom_site_fract_x
_atom_site_fract_y
_atom_site_fract_z
O1	O	1.043832	0.174669	-0.072025
O2	O	0.815548	0.172714	-0.072051
O3	O	0.935924	0.051836	-0.072029
O4	O	0.923457	0.295548	-0.072046
O5	O	0.929040	0.058718	0.072232
O6	O	0.808664	0.179596	0.072210
O7	O	1.036949	0.181551	0.072236
Cu8	Cu	0.922178	0.181202	0.085395
Cu9	Cu	0.930319	0.173063	-0.085210
O10	O	0.916573	0.302430	0.072215
C11	C	0.782894	0.173641	0.000077
C12	C	0.695850	0.166141	0.000067
C13	C	0.645613	0.238506	0.000063
C14	C	0.563826	0.231454	0.000075
C15	C	0.532276	0.152037	0.000086
C16	C	0.582519	0.079667	0.000093
C17	C	0.664305	0.086719	0.000087
C18	C	0.288676	0.122807	0.000111
C19	C	0.206884	0.115760	0.000115
C20	C	0.188196	0.267548	0.000099
C21	C	0.269984	0.274593	0.000087
C22	C	0.320220	0.202223	0.000099
N23	N	0.448677	0.144827	0.000096
N24	N	0.403817	0.209434	0.000095
C25	C	0.931964	0.023948	0.000101
C26	C	0.930413	-0.069402	0.000102
C27	C	0.852089	-0.289513	0.000081
C28	C	0.885066	-0.344697	0.071214
C29	C	0.927606	-0.240317	0.000095
C30	C	0.891871	-0.351465	-0.071016
C31	C	0.924889	-0.405412	0.000084
C32	C	0.960600	-0.294269	0.071287
C33	C	0.967397	-0.301034	-0.071007
C34	C	1.000428	-0.356196	0.000144
C35	C	0.929168	-0.145209	0.000101
C36	C	0.923332	-0.500518	0.000084
C37	C	1.069603	0.180624	0.000107
C38	C	1.156647	0.188124	0.000110
C39	C	0.920532	0.330318	0.000082
C40	C	0.922084	0.423668	0.000076
N41	N	0.916458	0.186926	0.205390
N42	N	0.936045	0.167333	-0.205204
C43	C	0.967616	0.135594	0.250793
C44	C	0.963297	0.139932	0.341600
C45	C	0.907824	0.195606	0.387002
C46	C	0.856661	0.246940	0.341593
C47	C	0.860976	0.242598	0.250787
C48	C	0.889197	0.214325	0.658581
C49	C	0.884887	0.218665	0.749392
C50	C	0.991523	0.111655	0.749393
C51	C	0.995836	0.107321	0.658586
C52	C	0.944671	0.158653	0.613185
N53	N	0.903410	0.200042	0.479822
N54	N	0.949081	0.154211	0.520367
H55	H	0.789404	-0.260406	0.000145
C56	C	0.823859	0.279909	0.799333
C57	C	0.735167	0.271846	0.786868
C58	C	0.674144	0.333089	0.836807
C59	C	0.701812	0.402394	0.899212
C60	C	0.790508	0.410460	0.911680
C61	C	0.851531	0.349217	0.861740
H62	H	0.714682	0.220540	0.740670
H63	H	0.608485	0.327118	0.827577
H64	H	0.656639	0.447730	0.936180
H65	H	0.810993	0.461767	0.957878
H66	H	0.917190	0.355189	0.870970
H67	H	1.012791	0.090262	0.213832
C68	C	1.085177	-0.395310	0.000201
C69	C	1.137764	-0.373531	0.075506
C70	C	1.222512	-0.412645	0.075566
C71	C	1.254673	-0.473538	0.000322
C72	C	1.202085	-0.495320	-0.074989
C73	C	1.117337	-0.456206	-0.075050
H74	H	1.113958	-0.328452	0.131212
H75	H	1.261441	-0.396520	0.131317
H76	H	1.317408	-0.502492	0.000366
H77	H	1.225891	-0.540399	-0.130695
H78	H	1.078409	-0.472331	-0.130800
H79	H	0.705207	0.027792	0.000090
C80	C	0.795639	0.308184	0.391531
C81	C	0.790925	0.313009	0.491413
C82	C	0.729903	0.374257	0.541348
C83	C	0.673595	0.430680	0.491400
C84	C	0.678307	0.425856	0.391512
C85	C	0.739329	0.364608	0.341577
H86	H	0.832609	0.271240	0.528392
H87	H	0.726415	0.377828	0.615292
H88	H	0.628423	0.476019	0.528365
H89	H	0.636623	0.467625	0.354533
H90	H	0.742817	0.361038	0.267633
H91	H	0.989641	-0.269266	0.131491
C92	C	1.014387	-0.274813	-0.152241
C93	C	0.987025	-0.298853	-0.243172
C94	C	1.034007	-0.272629	-0.324414
C95	C	1.108351	-0.222365	-0.314725
C96	C	1.135717	-0.198323	-0.223790
C97	C	1.088734	-0.224546	-0.142548
H98	H	0.931988	-0.336063	-0.250348
H99	H	1.013749	-0.290427	-0.391730
H100	H	1.143130	-0.202953	-0.374865
H101	H	1.190754	-0.161112	-0.216613
H102	H	1.108993	-0.206748	-0.075231
C103	C	0.838044	-0.370886	0.152446
C104	C	0.864534	-0.345493	0.243401
C105	C	0.817506	-0.371677	0.324629
C106	C	0.743987	-0.423255	0.314902
C107	C	0.717493	-0.448651	0.223943
C108	C	0.764521	-0.422467	0.142715
H109	H	0.918960	-0.307310	0.250605
H110	H	0.837119	-0.352877	0.391963
H111	H	0.709174	-0.442638	0.375031
H112	H	0.663066	-0.486834	0.216739
H113	H	0.744908	-0.441267	0.075381
H114	H	0.671294	0.303176	0.000054
C115	C	0.852586	-0.385373	-0.152257
C116	C	0.766510	-0.357729	-0.167872
C117	C	0.727218	-0.391634	-0.249108
C118	C	0.774003	-0.453182	-0.314730
C119	C	0.860084	-0.480830	-0.299117
C120	C	0.899376	-0.446925	-0.217881
H121	H	0.731872	-0.312164	-0.119293
H122	H	0.663495	-0.371167	-0.260665
H123	H	0.744917	-0.478280	-0.374866
H124	H	0.894721	-0.526395	-0.347696
H125	H	0.963099	-0.467392	-0.206324
C126	C	0.132937	0.347152	0.000095
C127	C	0.132912	0.414306	0.075000
C128	C	0.077654	0.493914	0.074999
C129	C	0.022420	0.506369	0.000093
C130	C	0.022442	0.439213	-0.074818
C131	C	0.077700	0.359604	-0.074817
H132	H	0.173802	0.405088	0.130455
H133	H	0.077638	0.543627	0.130454
H134	H	-0.018486	0.565300	0.000092
H135	H	-0.018448	0.448430	-0.130273
H136	H	0.077717	0.309891	-0.130272
H137	H	1.004953	0.098132	0.378567
C138	C	1.047797	0.055187	0.799335
C139	C	1.014193	-0.008146	0.861775
C140	C	1.070468	-0.064621	0.911716
C141	C	1.160347	-0.057762	0.899216
C142	C	1.193955	0.005573	0.836774
C143	C	1.137680	0.062048	0.786833
H144	H	0.947656	-0.013226	0.871030
H145	H	1.045589	-0.111506	0.957940
H146	H	1.202005	-0.099568	0.936185
H147	H	1.260492	0.010653	0.827519
H148	H	1.162559	0.108933	0.740609
C149	C	1.056853	0.046077	0.608641
C150	C	1.113129	-0.010395	0.658574
C151	C	1.174148	-0.071636	0.608626
C152	C	1.178890	-0.076406	0.508743
C153	C	1.122612	-0.019932	0.458804
C154	C	1.061593	0.041309	0.508752
H155	H	1.109621	-0.006866	0.732518
H156	H	1.215808	-0.113442	0.645595
H157	H	1.224059	-0.121741	0.471768
H158	H	1.126120	-0.023462	0.384860
H159	H	1.019932	0.083115	0.471783
H160	H	0.522926	0.290381	0.000071
H161	H	0.295665	0.339262	0.000069
H162	H	0.181200	0.051085	0.000123
H163	H	0.329568	0.063878	0.000121
H164	H	0.556825	0.015004	0.000114
H165	H	0.847537	0.256123	0.621622
H166	H	0.819318	0.284397	0.213821
