data_functionalizedCrystal
_audit_creation_method	'MofGen! by Chris Wilmer'
_symmetry_space_group_name_H-M	'P1'
_symmetry_Int_Tables_number	1
_symmetry_cell_setting	triclinic
loop_
_symmetry_equiv_pos_as_xyz
  x,y,z
_cell_length_a	13.897448
_cell_length_b	13.897449
_cell_length_c	11.169409
_cell_angle_alpha	89.975859
_cell_angle_beta	90.035576
_cell_angle_gamma	89.982475
loop_
_atom_site_label
_atom_site_type_symbol
_atom_site_fract_x
_atom_site_fract_y
_atom_site_fract_z
Zn1	Zn	-0.383941	-1.474715	0.678654
Zn2	Zn	-0.545277	-1.474605	0.477959
Zn3	Zn	-0.383997	-1.313400	0.477973
Zn4	Zn	-0.545195	-1.313386	0.678589
O5	O	-0.464602	-1.394027	0.578294
O6	O	-0.405353	-1.609682	0.652053
O7	O	-0.523940	-1.453181	0.310011
O8	O	-0.249008	-1.334851	0.504627
O9	O	-0.523886	-1.609601	0.504603
O10	O	-0.248967	-1.453368	0.652066
O11	O	-0.405448	-1.334745	0.310022
O12	O	-0.405369	-1.178417	0.504564
O13	O	-0.523747	-1.334826	0.846548
O14	O	-0.523801	-1.178406	0.651956
O15	O	-0.405274	-1.453354	0.846595
O16	O	-0.680248	-1.453167	0.504541
O17	O	-0.680188	-1.334720	0.651942
C18	C	-0.715217	-1.393956	0.578259
C19	C	-0.822431	-1.394014	0.578285
C20	C	-0.464583	-1.143412	0.578255
C21	C	-0.464598	-1.036198	0.578267
C22	C	-1.018726	-1.394116	0.578360
C23	C	-0.909493	-1.394057	0.578322
C24	C	-0.464597	-0.839903	0.578289
C25	C	-0.464595	-0.949136	0.578273
C26	C	-0.213009	-1.394123	0.578355
C27	C	-0.105796	-1.394165	0.578381
C28	C	-0.464495	-1.394101	0.891337
C29	C	-0.464450	-1.394132	1.024737
C30	C	-0.464616	-0.645619	0.578322
C31	C	-0.464606	-0.752833	0.578305
C32	C	-0.464640	-1.394008	0.266469
C33	C	-0.464413	-1.394164	0.133070
