data_functionalizedCrystal
_audit_creation_method	'MofGen! by Chris Wilmer'
_symmetry_space_group_name_H-M	'P1'
_symmetry_Int_Tables_number	1
_symmetry_cell_setting	triclinic
loop_
_symmetry_equiv_pos_as_xyz
  x,y,z
_cell_length_a	10.489741
_cell_length_b	10.489711
_cell_length_c	10.268362
_cell_angle_alpha	89.998425
_cell_angle_beta	89.998119
_cell_angle_gamma	84.533091
loop_
_atom_site_label
_atom_site_type_symbol
_atom_site_fract_x
_atom_site_fract_y
_atom_site_fract_z
O1	O	1.694035	0.179971	-0.108208
O2	O	1.322837	0.196864	-0.108227
O3	O	1.516902	0.002818	-0.108221
O4	O	1.499970	0.374018	-0.108214
O5	O	1.516885	0.002809	0.108380
O6	O	1.322820	0.196856	0.108374
O7	O	1.694017	0.179963	0.108393
Cu8	Cu	1.508417	0.188409	0.128160
Cu9	Cu	1.508437	0.188419	-0.127995
O10	O	1.499953	0.374010	0.108386
C11	C	1.275297	0.195584	0.000071
C12	C	1.133668	0.191767	0.000063
C13	C	1.065541	0.068301	0.000073
C14	C	0.973416	0.126629	-0.106719
C15	C	0.973434	0.126650	0.106833
C16	C	1.043409	0.250146	-0.106817
C17	C	1.043435	0.250150	0.106830
C18	C	0.951338	0.308568	0.000012
C19	C	1.515623	-0.044719	0.000076
C20	C	1.511821	-0.186350	0.000065
C21	C	1.628525	-0.368737	0.000084
C22	C	1.570221	-0.276597	0.106875
C23	C	1.570207	-0.276613	-0.106676
C24	C	1.446679	-0.346548	0.106969
C25	C	1.446681	-0.346573	-0.106678
C26	C	1.388288	-0.254461	0.000139
C27	C	1.741558	0.181243	0.000092
C28	C	1.883187	0.185060	0.000091
C29	C	1.501232	0.421546	0.000087
C30	C	1.505034	0.563178	0.000089
N31	N	1.508412	0.188401	0.308326
N32	N	1.508452	0.188416	-0.308161
C33	C	1.508431	0.188416	0.573997
C34	C	1.508416	0.188412	0.426159
H35	H	0.901903	0.410173	-0.000044
H36	H	1.115242	-0.033196	-0.000062
H37	H	1.394479	-0.377590	-0.196972
H38	H	1.622467	-0.245613	0.197165
H39	H	1.074469	0.302346	0.197122
H40	H	0.942454	0.074383	0.197117
H41	H	1.730027	-0.418427	0.000195
H42	H	1.394462	-0.377360	0.197354
H43	H	0.942415	0.074391	-0.197007
H44	H	1.286696	-0.204995	0.000193
H45	H	1.622488	-0.245650	-0.196958
H46	H	1.074238	0.302350	-0.197203
