data_functionalizedCrystal
_audit_creation_method	'MofGen! by Chris Wilmer'
_symmetry_space_group_name_H-M	'P1'
_symmetry_Int_Tables_number	1
_symmetry_cell_setting	triclinic
loop_
_symmetry_equiv_pos_as_xyz
  x,y,z
_cell_length_a	12.645331
_cell_length_b	19.121063
_cell_length_c	12.645323
_cell_angle_alpha	87.591876
_cell_angle_beta	90.022676
_cell_angle_gamma	92.467980
loop_
_atom_site_label
_atom_site_type_symbol
_atom_site_fract_x
_atom_site_fract_y
_atom_site_fract_z
Zn1	Zn	1.602654	-0.279627	0.617388
Zn2	Zn	2.102654	0.220373	1.117388
Zn3	Zn	1.594942	-0.397086	0.447665
Zn4	Zn	2.094942	0.102914	0.947665
Zn5	Zn	1.425367	-0.279651	0.440134
Zn6	Zn	1.925367	0.220349	0.940134
Zn7	Zn	1.417760	-0.397040	0.624877
Zn8	Zn	1.917760	0.102960	1.124877
O9	O	1.510181	-0.338351	0.532516
O10	O	2.010181	0.161649	1.032516
O11	O	1.749978	-0.295217	0.594892
O12	O	2.249978	0.204783	1.094892
O13	O	1.572404	-0.381537	0.298321
O14	O	2.072404	0.118463	0.798321
O15	O	1.455295	-0.181363	0.457361
O16	O	1.955295	0.318637	0.957361
O17	O	1.744312	-0.381514	0.470197
O18	O	2.244312	0.118486	0.970197
O19	O	1.585547	-0.181346	0.587589
O20	O	2.085547	0.318654	1.087589
O21	O	1.447818	-0.295258	0.292788
O22	O	1.947818	0.204742	0.792788
O23	O	1.276011	-0.295213	0.464623
O24	O	1.776011	0.204787	0.964623
O25	O	1.442330	-0.381436	0.772230
O26	O	1.942330	0.118564	1.272230
O27	O	1.270422	-0.381459	0.600353
O28	O	1.770422	0.118541	1.100353
O29	O	1.578171	-0.295173	0.766727
O30	O	2.078171	0.204827	1.266727
O31	O	1.565027	-0.495364	0.477459
O32	O	2.065027	0.004636	0.977459
O33	O	1.434852	-0.495330	0.607656
O34	O	1.934852	0.004670	1.107656
C35	C	1.234752	-0.338334	0.532485
C36	C	1.734752	0.161666	1.032485
C37	C	1.116921	-0.338344	0.532497
C38	C	1.616921	0.161656	1.032497
C39	C	0.952854	-0.283838	0.447545
C40	C	1.452854	0.216162	0.947545
C41	C	1.075405	-0.283979	0.447195
C42	C	1.575405	0.216021	0.947195
C43	C	1.067618	-0.412331	0.506730
C44	C	1.567618	0.087669	1.006730
C45	C	0.945039	-0.412033	0.506155
C46	C	1.445039	0.087967	1.006155
C47	C	0.950986	-0.319567	0.643576
C48	C	1.450986	0.180433	1.143576
C49	C	1.073698	-0.317914	0.642847
C50	C	1.573698	0.182086	1.142847
C51	C	1.498306	-0.520831	0.544210
C52	C	1.998306	-0.020831	1.044210
C53	C	1.493323	-0.598897	0.549248
C54	C	1.993323	-0.098897	1.049248
C55	C	1.558810	-0.635567	0.483885
C56	C	2.058810	-0.135567	0.983885
C57	C	1.554130	-0.708918	0.488629
C58	C	2.054130	-0.208918	0.988629
C59	C	1.483957	-0.745598	0.558733
C60	C	1.983957	-0.245598	1.058733
C61	C	1.418467	-0.708923	0.624104
C62	C	1.918467	-0.208923	1.124104
C63	C	1.423154	-0.635573	0.619364
C64	C	1.923154	-0.135573	1.119364
C65	C	1.466419	-0.967067	0.576438
C66	C	1.966419	-0.467067	1.076438
C67	C	1.461736	-1.040422	0.581171
C68	C	1.961736	-0.540422	1.081171
C69	C	1.597400	-1.040412	0.445697
C70	C	2.097400	-0.540412	0.945697
C71	C	1.602076	-0.967061	0.440959
C72	C	2.102076	-0.467061	0.940959
C73	C	1.536590	-0.930392	0.506334
C74	C	2.036590	-0.430392	1.006334
C75	C	1.479169	-0.820575	0.563582
C76	C	1.979169	-0.320575	1.063582
C77	C	1.541384	-0.855417	0.501489
C78	C	2.041384	-0.355417	1.001489
C79	C	1.786685	-0.338368	0.532549
C80	C	2.286685	0.161632	1.032549
C81	C	1.904514	-0.338375	0.532563
C82	C	2.404514	0.161625	1.032563
C83	C	1.510262	-0.338296	0.809018
C84	C	2.010262	0.161704	1.309018
C85	C	1.510297	-0.338273	0.926847
C86	C	2.010297	0.161727	1.426847
C87	C	1.522130	-0.155158	0.520800
C88	C	2.022130	0.344842	1.020800
C89	C	1.527222	-0.077092	0.515807
C90	C	2.027222	0.422908	1.015807
C91	C	1.510164	-0.338354	0.257087
C92	C	2.010164	0.161646	0.757087
C93	C	1.510347	-0.338179	0.139246
C94	C	2.010347	0.161821	0.639246
C95	C	1.424603	-0.392285	1.097856
C96	C	1.924603	0.107715	1.597856
C97	C	1.424801	-0.392553	0.975313
C98	C	1.924801	0.107447	1.475313
C99	C	1.620698	-0.358362	0.972656
C100	C	2.120698	0.141638	1.472656
C101	C	1.620225	-0.358700	1.095276
C102	C	2.120225	0.141300	1.595276
C103	C	1.486666	-0.263871	1.089271
C104	C	1.986666	0.236129	1.589271
C105	C	1.484145	-0.264317	0.966693
C106	C	1.984145	0.235683	1.466693
H107	H	1.094090	-0.454052	0.566917
H108	H	1.594090	0.045948	1.066917
H109	H	1.402923	-0.249167	0.936622
H110	H	1.902923	0.250833	1.436622
O111	O	1.316174	-0.375880	0.934356
O112	O	1.816174	0.124120	1.434356
H113	H	1.263025	-0.367558	1.002099
H114	H	1.763025	0.132442	1.502099
O115	O	1.561334	-0.208090	0.922542
O116	O	2.061334	0.291910	1.422542
H117	H	1.619808	-0.232087	0.871286
H118	H	2.119808	0.267913	1.371286
H119	H	1.342333	-0.379835	1.126531
H120	H	1.842333	0.120165	1.626531
O121	O	1.444534	-0.464797	1.143371
O122	O	1.944534	0.035203	1.643371
H123	H	1.515250	-0.462470	1.195335
H124	H	2.015250	0.037530	1.695335
H125	H	0.912678	-0.454044	0.565636
H126	H	1.412678	0.045956	1.065636
O127	O	0.909189	-0.372178	0.727411
O128	O	1.409189	0.127822	1.227411
H129	H	0.942358	-0.358547	0.805546
H130	H	1.442358	0.141453	1.305546
H131	H	1.641782	-0.412113	0.945416
H132	H	2.141782	0.087887	1.445416
H133	H	1.097224	-0.428555	0.426612
H134	H	1.597224	0.071445	0.926612
H135	H	1.686088	-0.320200	0.941072
H136	H	2.186088	0.179800	1.441072
H137	H	1.440044	-0.447641	0.949534
H138	H	1.940044	0.052359	1.449534
H139	H	0.923516	-0.266557	0.667927
H140	H	1.423516	0.233443	1.167927
O141	O	1.116910	-0.245796	0.668714
O142	O	1.616910	0.254204	1.168714
H143	H	1.168960	-0.224586	0.603261
H144	H	1.668960	0.275414	1.103261
O145	O	1.403476	-0.860134	0.639190
O146	O	1.903476	-0.360134	1.139190
H147	H	1.321183	-0.846105	0.620023
H148	H	1.821183	-0.346105	1.120023
H149	H	1.607456	-0.738771	0.435402
H150	H	2.107456	-0.238771	0.935402
O151	O	1.352523	-0.596017	0.689862
O152	O	1.852523	-0.096017	1.189862
H153	H	1.300753	-0.562644	0.640207
H154	H	1.800753	-0.062644	1.140207
H155	H	1.659216	-0.937197	0.383875
H156	H	2.159216	-0.437197	0.883875
H157	H	0.915362	-0.427984	0.425139
H158	H	1.415362	0.072016	0.925139
O159	O	1.668060	-1.079959	0.375218
O160	O	2.168060	-0.579959	0.875218
H161	H	1.653031	-1.137126	0.390303
H162	H	2.153031	-0.637126	0.890303
O163	O	1.617083	-0.815855	0.425895
O164	O	2.117083	-0.315855	0.925895
H165	H	1.571799	-0.782486	0.369761
H166	H	2.071799	-0.282486	0.869761
H167	H	1.640858	-0.413021	1.127372
H168	H	2.140858	0.086979	1.627372
H169	H	1.404605	-1.070285	0.638276
H170	H	1.904605	-0.570285	1.138276
O171	O	1.395759	-0.927521	0.646913
O172	O	1.895759	-0.427521	1.146913
H173	H	1.346161	-0.965352	0.696435
H174	H	1.846161	-0.465352	1.196435
H175	H	1.101976	-0.354739	0.709195
H176	H	1.601976	0.145261	1.209195
O177	O	1.707389	-0.308782	1.131400
O178	O	2.207389	0.191218	1.631400
H179	H	1.749697	-0.284511	1.061291
H180	H	2.249697	0.215489	1.561291
H181	H	1.549176	-0.223560	1.115698
H182	H	2.049176	0.276440	1.615698
H183	H	1.615948	-0.605707	0.426794
H184	H	2.115948	-0.105707	0.926794
O185	O	1.342766	-0.748480	0.699706
O186	O	1.842766	-0.248480	1.199706
H187	H	1.350495	-0.805646	0.692010
H188	H	1.850495	-0.305646	1.192010
O189	O	1.382209	-0.239623	1.128629
O190	O	1.882209	0.260377	1.628629
H191	H	1.384964	-0.236550	1.216050
H192	H	1.884964	0.263450	1.716050
O193	O	1.119989	-0.211301	0.467831
O194	O	1.619989	0.288699	0.967831
H195	H	1.054010	-0.175737	0.478149
H196	H	1.554010	0.324263	0.978149
H197	H	0.926948	-0.228808	0.462935
H198	H	1.426948	0.271192	0.962935
H199	H	0.921211	-0.296131	0.365663
H200	H	1.421211	0.203869	0.865663
H201	H	1.103879	-0.296410	0.364833
H202	H	1.603879	0.203590	0.864833
