data_functionalizedCrystal
_audit_creation_method	'MofGen! by Chris Wilmer'
_symmetry_space_group_name_H-M	'P1'
_symmetry_Int_Tables_number	1
_symmetry_cell_setting	triclinic
loop_
_symmetry_equiv_pos_as_xyz
  x,y,z
_cell_length_a	12.759395
_cell_length_b	19.121063
_cell_length_c	19.122683
_cell_angle_alpha	94.691379
_cell_angle_beta	92.362080
_cell_angle_gamma	92.470426
loop_
_atom_site_label
_atom_site_type_symbol
_atom_site_fract_x
_atom_site_fract_y
_atom_site_fract_z
Zn1	Zn	1.561707	-0.296698	-0.409637
Zn2	Zn	1.561384	-0.409451	-0.297012
Zn3	Zn	1.393648	-0.291812	-0.292020
Zn4	Zn	1.378142	-0.414324	-0.414612
O5	O	1.473720	-0.353071	-0.353320
O6	O	1.708684	-0.311660	-0.394704
O7	O	1.545487	-0.389761	-0.197911
O8	O	1.422567	-0.194001	-0.303451
O9	O	1.708447	-0.394499	-0.311959
O10	O	1.546038	-0.197591	-0.389863
O11	O	1.422253	-0.303333	-0.194243
O12	O	1.244571	-0.308059	-0.308275
O13	O	1.396138	-0.402806	-0.512391
O14	O	1.233178	-0.398068	-0.398343
O15	O	1.531002	-0.316386	-0.508736
O16	O	1.530451	-0.508556	-0.316783
O17	O	1.395824	-0.512137	-0.403184
C18	C	1.200754	-0.353062	-0.353308
C19	C	1.083976	-0.353076	-0.353320
C20	C	1.072151	-0.446942	-0.446968
C21	C	1.011377	-0.493881	-0.493795
C22	C	0.901654	-0.493890	-0.493804
C23	C	0.852703	-0.446953	-0.446982
C24	C	0.913477	-0.400015	-0.400156
C25	C	1.023202	-0.400012	-0.400151
C26	C	0.925302	-0.306147	-0.306512
C27	C	1.035025	-0.306140	-0.306499
C28	C	0.876351	-0.259210	-0.259691
C29	C	0.937125	-0.212274	-0.212860
C30	C	1.046854	-0.212268	-0.212853
C31	C	1.095799	-0.259201	-0.259672
C32	C	1.461448	-0.535876	-0.361080
C33	C	1.456292	-0.614082	-0.364424
C34	C	1.524013	-0.648937	-0.321048
C35	C	1.519170	-0.722420	-0.324196
C36	C	1.446600	-0.761046	-0.370718
C37	C	1.378876	-0.726186	-0.414098
C38	C	1.383725	-0.652705	-0.410953
C39	C	1.428455	-0.983007	-0.382467
C40	C	1.423610	-1.056494	-0.385608
C41	C	1.563905	-1.052722	-0.295706
C42	C	1.568743	-0.979240	-0.292562
C43	C	1.501023	-0.944386	-0.335945
C44	C	1.441646	-0.836158	-0.373936
C45	C	1.505983	-0.869276	-0.332730
C46	C	1.747752	-0.353081	-0.353333
C47	C	1.864528	-0.353085	-0.353339
C48	C	1.461876	-0.360685	-0.536801
C49	C	1.456829	-0.363929	-0.614990
C50	C	1.486068	-0.169553	-0.345545
C51	C	1.491330	-0.091349	-0.342232
C52	C	1.485582	-0.345437	-0.170551
C53	C	1.490846	-0.341994	-0.092354
C54	C	1.423584	-0.385687	-0.057342
C55	C	1.428524	-0.382446	0.016132
C56	C	1.500731	-0.335516	0.054593
C57	C	1.567996	-0.291818	0.019577
C58	C	1.563050	-0.295056	-0.053896
C59	C	1.519148	-0.323469	0.276521
C60	C	1.524091	-0.320236	0.349999
C61	C	1.384617	-0.410864	0.346548
C62	C	1.379682	-0.414101	0.273074
C63	C	1.446943	-0.370401	0.238064
C64	C	1.505784	-0.332203	0.129696
C65	C	1.441884	-0.373710	0.162963
H66	H	1.583102	-0.617492	-0.283162
H67	H	0.852172	-0.532108	-0.531937
Cl68	Cl	1.287651	-0.774745	-0.472587
Cl69	Cl	1.332360	-1.105051	-0.444087
H70	H	1.617818	-0.259474	-0.082401
H71	H	1.328581	-0.624327	-0.446275
Cl72	Cl	1.343319	-0.939201	-0.437005
Cl73	Cl	1.597214	-0.820717	-0.274251
H74	H	1.382558	-0.867615	-0.411812
Cl75	Cl	1.233736	-0.259200	-0.259664
Cl76	Cl	1.332808	-0.444692	-0.105687
H77	H	0.763361	-0.446959	-0.447000
H78	H	1.373763	-0.418033	0.044634
Cl79	Cl	1.351109	-0.432704	0.114611
H80	H	1.320884	-0.452317	0.241763
H81	H	1.626784	-0.253603	0.050899
Cl82	Cl	1.596528	-0.273187	0.178055
Cl83	Cl	0.738413	-0.259218	-0.259706
Cl84	Cl	1.300061	-0.465794	0.390565
Cl85	Cl	0.875582	-0.153271	-0.154011
H86	H	1.627835	-0.947791	-0.254680
H87	H	1.574314	-0.750796	-0.288874
H88	H	1.582890	-0.282016	0.381312
H89	H	1.161492	-0.446945	-0.446961
H90	H	1.096330	-0.174039	-0.174725
Cl91	Cl	1.649039	-1.096543	-0.241175
H92	H	1.573922	-0.287889	0.248025
H93	H	1.051245	-0.532094	-0.531916
