data_functionalizedCrystal
_audit_creation_method	'MofGen! by Chris Wilmer'
_symmetry_space_group_name_H-M	'P1'
_symmetry_Int_Tables_number	1
_symmetry_cell_setting	triclinic
loop_
_symmetry_equiv_pos_as_xyz
  x,y,z
_cell_length_a	12.811457
_cell_length_b	19.188930
_cell_length_c	11.295483
_cell_angle_alpha	94.076039
_cell_angle_beta	91.289320
_cell_angle_gamma	83.596719
loop_
_atom_site_label
_atom_site_type_symbol
_atom_site_fract_x
_atom_site_fract_y
_atom_site_fract_z
O1	O	1.388580	0.096440	0.050917
O2	O	1.888580	0.596440	0.550917
O3	O	1.085298	0.105118	0.018161
O4	O	1.585298	0.605118	0.518161
O5	O	1.245690	-0.000787	0.035507
O6	O	1.745690	0.499213	0.535507
O7	O	1.228189	0.202345	0.033570
O8	O	1.728189	0.702345	0.533570
O9	O	1.231602	0.008500	0.232034
O10	O	1.731602	0.508500	0.732034
O11	O	1.071211	0.114406	0.214688
O12	O	1.571211	0.614406	0.714688
O13	O	1.374493	0.105727	0.247444
O14	O	1.874493	0.605727	0.747444
Cu15	Cu	1.221566	0.110915	0.249011
Cu16	Cu	1.721566	0.610915	0.749011
Cu17	Cu	1.238226	0.099931	0.016594
Cu18	Cu	1.738226	0.599931	0.516594
O19	O	1.214102	0.211633	0.230098
O20	O	1.714102	0.711633	0.730098
C21	C	1.039454	0.108991	0.112234
C22	C	1.539454	0.608991	0.612234
C23	C	0.923839	0.106686	0.099748
C24	C	1.423839	0.606686	0.599748
C25	C	0.691229	0.112467	0.290564
C26	C	1.191229	0.612467	0.790564
C27	C	0.582598	0.110300	0.278838
C28	C	1.082598	0.610300	0.778838
C29	C	0.597947	0.100182	0.064572
C30	C	1.097947	0.600182	0.564572
C31	C	0.706577	0.102348	0.076298
C32	C	1.206577	0.602348	0.576298
C33	C	0.753214	0.108492	0.189298
C34	C	1.253214	0.608492	0.689298
C35	C	0.861845	0.110663	0.201022
C36	C	1.361845	0.610663	0.701022
C37	C	0.877193	0.100540	-0.013243
C38	C	1.377193	0.600540	0.486757
C39	C	0.768563	0.098374	-0.024968
C40	C	1.268563	0.598374	0.475032
C41	C	1.238079	-0.022160	0.133713
C42	C	1.738079	0.477840	0.633713
C43	C	1.236377	-0.099681	0.133539
C44	C	1.736377	0.400319	0.633539
C45	C	1.330490	-0.143657	0.143710
C46	C	1.830490	0.356343	0.643710
C47	C	1.328892	-0.216498	0.143518
C48	C	1.828892	0.283502	0.643518
C49	C	1.233175	-0.245359	0.133179
C50	C	1.733175	0.254641	0.633179
C51	C	1.139050	-0.201374	0.123001
C52	C	1.639050	0.298626	0.623001
C53	C	1.140651	-0.128535	0.123181
C54	C	1.640651	0.371465	0.623181
N55	N	1.155216	-0.350940	0.192159
N56	N	1.655216	0.149060	0.692159
N57	N	1.153702	-0.420134	0.191991
N58	N	1.653702	0.079866	0.691991
C59	C	1.228346	-0.464817	0.132634
C60	C	1.728346	0.035183	0.632634
N61	N	1.304577	-0.437692	0.073467
N62	N	1.804577	0.062308	0.573467
N63	N	1.306095	-0.368492	0.073640
N64	N	1.806095	0.131508	0.573640
C65	C	1.231429	-0.324339	0.132982
C66	C	1.731429	0.175661	0.632982
C67	C	1.320734	-0.587775	0.142595
C68	C	1.820734	-0.087775	0.642595
C69	C	1.319133	-0.660618	0.142396
C70	C	1.819133	-0.160618	0.642396
C71	C	1.129288	-0.645491	0.121890
C72	C	1.629288	-0.145491	0.621890
C73	C	1.130892	-0.572651	0.122078
C74	C	1.630892	-0.072651	0.622078
C75	C	1.226618	-0.543798	0.132437
C76	C	1.726618	-0.043798	0.632437
C77	C	1.420338	0.101854	0.153368
C78	C	1.920338	0.601854	0.653368
C79	C	1.535953	0.104159	0.165846
C80	C	2.035953	0.604159	0.665846
C81	C	1.221713	0.233006	0.131889
C82	C	1.721713	0.733006	0.631889
C83	C	1.223415	0.310526	0.132055
C84	C	1.723415	0.810526	0.632055
N85	N	1.209856	0.118639	0.412480
N86	N	1.709856	0.618639	0.912480
N87	N	1.249944	0.092201	-0.146875
N88	N	1.749944	0.592201	0.353125
C89	C	1.334241	0.036554	0.675222
C90	C	1.834241	0.536554	1.175222
C91	C	1.325399	0.042397	0.798930
C92	C	1.825399	0.542397	1.298930
C93	C	1.183325	0.136164	0.783604
C94	C	1.683325	0.636164	1.283604
C95	C	1.192167	0.130321	0.659897
C96	C	1.692167	0.630321	1.159897
C97	C	1.267628	0.080515	0.605711
C98	C	1.767628	0.580515	1.105711
C99	C	1.276475	0.074677	0.482001
C100	C	1.776475	0.574677	0.982001
C101	C	1.134397	0.168439	0.466678
C102	C	1.634397	0.668439	0.966678
C103	C	1.125555	0.174282	0.590385
C104	C	1.625555	0.674282	1.090385
H105	H	0.899814	0.115669	0.293032
H106	H	1.399814	0.615669	0.793032
H107	H	0.559958	0.095169	-0.027426
H108	H	1.059958	0.595169	0.472574
H109	H	1.064010	-0.092729	0.114899
H110	H	1.564010	0.407271	0.614899
H111	H	1.408437	-0.120169	0.152140
H112	H	1.908437	0.379831	0.652140
F113	F	1.396295	-0.004394	0.872905
F114	F	1.896295	0.495606	1.372905
F115	F	0.516632	0.114529	0.386620
F116	F	1.016632	0.614529	0.886620
H117	H	0.729199	0.117478	0.382572
H118	H	1.229199	0.617478	0.882572
F119	F	1.429064	-0.263308	0.154341
F120	F	1.929064	0.236692	0.654341
F121	F	0.718921	0.091817	-0.145223
F122	F	1.218921	0.591817	0.354777
H123	H	1.080159	0.204237	0.410067
H124	H	1.580159	0.704237	0.910067
F125	F	0.943169	0.096319	-0.121025
F126	F	1.443169	0.596319	0.378975
H127	H	1.395691	-0.003995	0.631104
H128	H	1.895691	0.496005	1.131104
F129	F	1.037182	-0.232091	0.111990
F130	F	1.537182	0.267909	0.611990
F131	F	1.419308	-0.707421	0.153214
F132	F	1.919308	-0.207421	0.653214
F133	F	1.422612	-0.557064	0.153625
F134	F	1.922612	-0.057064	0.653625
H135	H	1.051353	-0.668989	0.113467
H136	H	1.551353	-0.168989	0.613467
H137	H	1.121879	0.176709	0.827739
H138	H	1.621879	0.676709	1.327739
F139	F	1.030722	-0.525847	0.111258
F140	F	1.530722	-0.025847	0.611258
F141	F	1.356789	0.021672	0.424335
F142	F	1.856789	0.521672	0.924335
H143	H	1.064112	0.214831	0.634518
H144	H	1.564112	0.714831	1.134518
