data_functionalizedCrystal
_audit_creation_method	'MofGen! by Chris Wilmer'
_symmetry_space_group_name_H-M	'P1'
_symmetry_Int_Tables_number	1
_symmetry_cell_setting	triclinic
loop_
_symmetry_equiv_pos_as_xyz
  x,y,z
_cell_length_a	29.839135
_cell_length_b	29.839131
_cell_length_c	11.169409
_cell_angle_alpha	89.952226
_cell_angle_beta	89.973595
_cell_angle_gamma	90.037758
loop_
_atom_site_label
_atom_site_type_symbol
_atom_site_fract_x
_atom_site_fract_y
_atom_site_fract_z
Zn1	Zn	0.686787	-0.178787	-0.678625
Zn2	Zn	0.686713	-0.253928	-0.477888
Zn3	Zn	0.611656	-0.178816	-0.477936
Zn4	Zn	0.611626	-0.253894	-0.678509
O5	O	0.649196	-0.216356	-0.578239
O6	O	0.749645	-0.188756	-0.652025
O7	O	0.676738	-0.243991	-0.309944
O8	O	0.621666	-0.115945	-0.504626
O9	O	0.749590	-0.243962	-0.504544
O10	O	0.676865	-0.115923	-0.652072
O11	O	0.621594	-0.188807	-0.309980
O12	O	0.548785	-0.188773	-0.504515
O13	O	0.621615	-0.243904	-0.846475
O14	O	0.548763	-0.243932	-0.651875
O15	O	0.676836	-0.188723	-0.846559
O16	O	0.676709	-0.316791	-0.504432
O17	O	0.621543	-0.316765	-0.651828
C18	C	0.532473	-0.216353	-0.578188
C19	C	0.482539	-0.216362	-0.578195
C20	C	0.172921	-0.187654	-0.655146
C21	C	-0.014752	-0.187657	-0.655180
O22	O	-0.038996	-0.163238	-0.720549
N23	N	-0.038246	-0.216357	-0.578283
C24	C	-0.014819	-0.245055	-0.501367
O25	O	-0.039109	-0.269463	-0.435954
C26	C	0.172853	-0.245050	-0.501328
C27	C	0.196345	-0.216351	-0.578238
C28	C	0.196412	-0.158957	-0.732049
C29	C	0.243328	-0.158959	-0.732044
C30	C	0.266752	-0.187656	-0.655136
C31	C	0.243260	-0.216353	-0.578234
C32	C	0.196279	-0.273746	-0.424407
C33	C	0.243200	-0.273741	-0.424402
C34	C	0.266692	-0.245043	-0.501312
C35	C	0.313599	-0.245051	-0.501321
N36	N	0.337093	-0.216352	-0.578218
C37	C	0.313669	-0.187654	-0.655125
C38	C	-0.113350	-0.245057	-0.501395
C39	C	-0.160268	-0.245059	-0.501406
C40	C	-0.160198	-0.187660	-0.655217
C41	C	-0.113279	-0.187660	-0.655211
C42	C	-0.089856	-0.216357	-0.578292
C43	C	0.412195	-0.187659	-0.655110
C44	C	0.459115	-0.187664	-0.655102
C45	C	0.459041	-0.245062	-0.501287
C46	C	0.412125	-0.245059	-0.501299
C47	C	0.388704	-0.216354	-0.578215
O48	O	0.337871	-0.269454	-0.435976
O49	O	0.337967	-0.163243	-0.720510
C50	C	0.126005	-0.187653	-0.655150
C51	C	0.102514	-0.216349	-0.578248
C52	C	0.125937	-0.245046	-0.501340
C53	C	0.055596	-0.216351	-0.578259
C54	C	0.032172	-0.187653	-0.655166
C55	C	0.055666	-0.158954	-0.732063
C56	C	0.102581	-0.158955	-0.732058
C57	C	0.102443	-0.273746	-0.424444
C58	C	0.055528	-0.273743	-0.424456
C59	C	0.032104	-0.245045	-0.501363
C60	C	0.649127	-0.333079	-0.578138
C61	C	0.649139	-0.383013	-0.578135
C62	C	0.677931	-0.692610	-0.655123
C63	C	0.677980	-0.880283	-0.655196
O64	O	0.702393	-0.904509	-0.720579
N65	N	0.649272	-0.903798	-0.578373
C66	C	0.620547	-0.880392	-0.501532
O67	O	0.596127	-0.904699	-0.436199
C68	C	0.620497	-0.692720	-0.501467
C69	C	0.649210	-0.669207	-0.578286
C70	C	0.706642	-0.669098	-0.731938
C71	C	0.706631	-0.622182	-0.731914
C72	C	0.677910	-0.598779	-0.655077
C73	C	0.649199	-0.622292	-0.578263
C74	C	0.591770	-0.669314	-0.424633
C75	C	0.591759	-0.622393	-0.424625
C76	C	0.620473	-0.598881	-0.501445
C77	C	0.620467	-0.551973	-0.501402
N78	N	0.649175	-0.528459	-0.578225
C79	C	0.677897	-0.551862	-0.655062
C80	C	0.620577	-0.978922	-0.501570
C81	C	0.620590	-1.025840	-0.501584
C82	C	0.678022	-1.025728	-0.655250
C83	C	0.678011	-0.978810	-0.655229
C84	C	0.649285	-0.955408	-0.578393
C85	C	0.677872	-0.453336	-0.655006
C86	C	0.677860	-0.406416	-0.654973
C87	C	0.620427	-0.406532	-0.501312
C88	C	0.620440	-0.453447	-0.501341
C89	C	0.649164	-0.476848	-0.578198
O90	O	0.596063	-0.527719	-0.436062
O91	O	0.702306	-0.527546	-0.720403
C92	C	0.677942	-0.739526	-0.655147
C93	C	0.649232	-0.763038	-0.578333
C94	C	0.620510	-0.739635	-0.501495
C95	C	0.649245	-0.809956	-0.578347
C96	C	0.677966	-0.833359	-0.655185
C97	C	0.706674	-0.809844	-0.732008
C98	C	0.706664	-0.762929	-0.731984
C99	C	0.591802	-0.763150	-0.424672
C100	C	0.591815	-0.810065	-0.424701
C101	C	0.620537	-0.833468	-0.501539
C102	C	0.766374	-0.216360	-0.578292
C103	C	0.816308	-0.216361	-0.578314
C104	C	0.649230	-0.216306	-0.891282
C105	C	0.649245	-0.216285	-1.024682
C106	C	0.649277	-0.099178	-0.578367
C107	C	0.649311	-0.049243	-0.578422
C108	C	0.649187	-0.216373	-0.266415
C109	C	0.649260	-0.216268	-0.133015
H110	H	0.177160	-0.297115	-0.361777
H111	H	0.701244	-0.387274	-0.717528
H112	H	0.730045	-0.743788	-0.794538
C113	C	0.544533	-1.040370	-0.442933
C114	C	0.589030	-1.051682	-0.417135
H115	H	0.525047	-1.056325	-0.390803
H116	H	0.540421	-1.009081	-0.431930
H117	H	0.537951	-1.048041	-0.523560
H118	H	0.595613	-1.044008	-0.336511
H119	H	0.593143	-1.082978	-0.428129
H120	H	0.730011	-0.603041	-0.794471
H121	H	-0.094283	-0.268427	-0.438755
H122	H	0.262269	-0.297110	-0.361761
H123	H	0.730030	-0.688148	-0.794515
C124	C	0.734640	-0.448500	-0.806899
C125	C	0.709445	-0.479053	-0.739490
H126	H	0.754134	-0.464377	-0.859047
H127	H	0.715051	-0.430201	-0.852735
H128	H	0.751828	-0.430205	-0.754625
H129	H	0.692255	-0.497346	-0.791764
H130	H	0.729037	-0.497360	-0.693650
H131	H	0.121704	-0.135586	-0.794685
C132	C	0.734778	-0.983423	-0.807125
C133	C	0.709568	-0.952967	-0.739684
H134	H	0.754257	-0.967470	-0.859274
H135	H	0.751978	-1.001721	-0.754881
H136	H	0.715194	-1.001728	-0.852974
H137	H	0.729152	-0.934665	-0.693828
H138	H	0.692367	-0.934661	-0.791935
C139	C	0.560124	-0.926231	-0.484689
C140	C	0.589000	-0.953204	-0.417096
H141	H	0.540629	-0.910358	-0.432533
H142	H	0.577216	-0.905510	-0.530420
H143	H	0.542937	-0.944536	-0.536942
H144	H	0.606189	-0.934898	-0.364849
H145	H	0.571906	-0.973928	-0.371344
H146	H	0.597043	-0.387470	-0.438748
C147	C	0.703533	-1.097605	-0.723505
C148	C	0.709590	-1.051459	-0.739722
H149	H	0.723017	-1.113490	-0.775663
H150	H	0.710131	-1.105312	-0.642898
H151	H	0.673343	-1.105307	-0.740979
H152	H	0.739779	-1.043756	-0.722239
H153	H	0.702995	-1.043748	-0.820348
C154	C	0.416771	-0.301797	-0.349269
C155	C	0.386300	-0.276607	-0.416769
H156	H	0.400829	-0.321270	-0.297074
H157	H	0.435066	-0.319003	-0.401472
H158	H	0.435078	-0.282200	-0.303467
H159	H	0.367995	-0.296204	-0.462578
H160	H	0.367998	-0.259399	-0.364558
H161	H	0.036586	-0.135589	-0.794687
C162	C	0.155167	-0.279931	-0.262952
C163	C	0.128187	-0.305295	-0.339906
H164	H	0.171056	-0.299412	-0.210759
H165	H	0.175875	-0.262846	-0.308742
H166	H	0.136865	-0.260339	-0.217149
H167	H	0.146489	-0.324886	-0.385715
H168	H	0.107477	-0.322388	-0.294110
C169	C	0.732184	-0.881720	-0.800262
C170	C	0.738244	-0.835575	-0.816474
H171	H	0.751670	-0.897606	-0.852415
H172	H	0.738779	-0.889429	-0.719653
H173	H	0.701995	-0.889422	-0.817744
H174	H	0.768433	-0.827873	-0.798984
H175	H	0.731652	-0.827863	-0.897102
C176	C	0.585601	-0.862894	-0.263253
C177	C	0.560250	-0.835908	-0.340257
H178	H	0.566111	-0.878844	-0.211126
H179	H	0.602703	-0.883548	-0.309012
H180	H	0.605178	-0.844588	-0.217382
H181	H	0.540675	-0.854214	-0.386134
H182	H	0.543140	-0.815252	-0.294493
H183	H	0.568413	-0.744099	-0.362103
C184	C	0.143696	-0.098528	-0.749088
C185	C	0.170670	-0.127411	-0.816601
H186	H	0.127809	-0.079052	-0.801299
H187	H	0.122987	-0.115616	-0.703310
H188	H	0.162002	-0.081322	-0.696883
H189	H	0.152364	-0.144620	-0.868800
H190	H	0.191382	-0.110321	-0.862399
H191	H	0.568389	-0.688450	-0.362077
H192	H	0.568366	-0.603341	-0.362057
C193	C	0.473607	-0.165861	-0.858451
C194	C	0.484935	-0.156115	-0.739645
H195	H	0.489545	-0.146383	-0.910639
H196	H	0.481283	-0.196049	-0.875851
H197	H	0.442311	-0.161754	-0.869439
H198	H	0.516231	-0.160226	-0.728655
H199	H	0.477263	-0.125920	-0.722240
H200	H	0.478121	-0.268428	-0.438674
C201	C	-0.117933	-0.130926	-0.807247
C202	C	-0.087459	-0.156112	-0.739745
H203	H	-0.101994	-0.111447	-0.859430
H204	H	-0.136233	-0.150522	-0.853052
H205	H	-0.136235	-0.113723	-0.755035
H206	H	-0.069160	-0.173318	-0.791957
H207	H	-0.069152	-0.136513	-0.693938
H208	H	0.036405	-0.297117	-0.361828
C209	C	0.563668	-0.448843	-0.349450
C210	C	0.588879	-0.479295	-0.416898
H211	H	0.544180	-0.464799	-0.297331
H212	H	0.583248	-0.430548	-0.303580
H213	H	0.546474	-0.430535	-0.401700
H214	H	0.606077	-0.497601	-0.364648
H215	H	0.569298	-0.497598	-0.462771
H216	H	0.262450	-0.135589	-0.794670
C217	C	0.359475	-0.181482	-0.816602
C218	C	0.386453	-0.156110	-0.739661
H219	H	0.343581	-0.162006	-0.868797
H220	H	0.377774	-0.201074	-0.862391
H221	H	0.338767	-0.198568	-0.770792
H222	H	0.407164	-0.139027	-0.785470
H223	H	0.368152	-0.136510	-0.693868
H224	H	-0.179277	-0.164293	-0.717839
C225	C	-0.155613	-0.301792	-0.349367
C226	C	-0.186086	-0.276608	-0.416872
H227	H	-0.171552	-0.321266	-0.297169
H228	H	-0.137315	-0.318997	-0.401566
H229	H	-0.137309	-0.282192	-0.303566
H230	H	-0.204388	-0.296209	-0.462679
H231	H	-0.204392	-0.259402	-0.364666
