data_functionalizedCrystal
_audit_creation_method	'MofGen! by Chris Wilmer'
_symmetry_space_group_name_H-M	'P1'
_symmetry_Int_Tables_number	1
_symmetry_cell_setting	triclinic
loop_
_symmetry_equiv_pos_as_xyz
  x,y,z
_cell_length_a	10.654559
_cell_length_b	10.654551
_cell_length_c	9.130313
_cell_angle_alpha	90.001552
_cell_angle_beta	89.999532
_cell_angle_gamma	84.487023
loop_
_atom_site_label
_atom_site_type_symbol
_atom_site_fract_x
_atom_site_fract_y
_atom_site_fract_z
O1	O	1.667828	0.176448	-0.121797
O2	O	1.302351	0.193242	-0.121798
O3	O	1.493492	0.002106	-0.121798
O4	O	1.476687	0.367584	-0.121797
O5	O	1.493489	0.002112	0.121801
O6	O	1.302349	0.193247	0.121801
O7	O	1.667826	0.176453	0.121801
Cu8	Cu	1.485087	0.184851	0.144044
Cu9	Cu	1.485090	0.184845	-0.144040
O10	O	1.476685	0.367589	0.121802
C11	C	1.255552	0.192009	0.000002
C12	C	1.116109	0.188313	0.000001
C13	C	1.492256	-0.044689	-0.000002
C14	C	1.488564	-0.184132	-0.000012
C15	C	1.064569	0.072301	0.000005
C16	C	0.933547	0.068835	-0.000006
C17	C	0.905616	0.297404	-0.000018
C18	C	1.036636	0.300868	-0.000017
C19	C	1.080694	-0.059662	0.000018
C20	C	0.949672	-0.063128	0.000007
C21	C	1.486833	-0.249647	-0.132795
C22	C	1.483353	-0.380668	-0.132788
C23	C	1.483340	-0.380648	0.132796
C24	C	1.486811	-0.249628	0.132788
C25	C	1.488586	-0.184151	-0.265595
C26	C	1.486857	-0.249666	-0.398389
C27	C	1.483376	-0.380687	-0.398383
C28	C	1.481626	-0.446192	-0.265582
C29	C	1.714625	0.177686	-0.000001
C30	C	1.854067	0.181383	-0.000010
C31	C	1.477920	0.414385	0.000003
C32	C	1.481613	0.553828	0.000003
N33	N	1.485094	0.184854	0.346667
N34	N	1.485092	0.184831	-0.346663
C35	C	1.569753	0.100248	0.423318
C36	C	1.569750	0.100233	0.576655
C37	C	1.400424	0.269441	0.576675
C38	C	1.400423	0.269449	0.423341
C39	C	1.667516	0.002561	0.423308
C40	C	1.667512	0.002546	0.576645
H41	H	0.840893	0.389042	-0.000033
H42	H	0.920301	-0.114727	0.101953
H43	H	1.481915	-0.433993	0.240916
H44	H	1.331476	0.338331	0.360932
H45	H	1.122443	-0.109394	-0.101922
C46	C	1.142367	-0.113519	0.142096
H47	H	1.230930	-0.109277	0.137256
H48	H	1.125255	-0.198858	0.153337
H49	H	1.108975	-0.065622	0.223353
H50	H	1.481955	-0.434024	-0.506509
H51	H	1.646073	-0.093972	0.381687
H52	H	1.478773	-0.552876	-0.265587
C53	C	0.901524	-0.119906	-0.142074
H54	H	0.812497	-0.120355	-0.137239
H55	H	0.939312	-0.203796	-0.153307
H56	H	0.923039	-0.070567	-0.223332
C57	C	1.492587	-0.040055	-0.265608
H58	H	1.493428	-0.010434	-0.363713
H59	H	1.566526	-0.019490	-0.216557
H60	H	1.420307	-0.001348	-0.216579
H61	H	1.636999	-0.088677	0.624191
H62	H	1.488194	-0.196282	0.240912
C63	C	1.797881	0.031623	0.632877
H64	H	1.851495	0.043604	0.551950
H65	H	1.833620	-0.036856	0.690667
H66	H	1.788951	0.106081	0.690689
C67	C	1.790696	0.043873	0.359049
H68	H	1.845554	0.062259	0.436539
H69	H	1.772185	0.117005	0.300492
H70	H	1.830356	-0.022176	0.300488
H71	H	1.488270	-0.196322	-0.506510
C72	C	1.307271	0.362471	0.661014
H73	H	1.256838	0.412848	0.593398
H74	H	1.352870	0.415180	0.720857
H75	H	1.254608	0.316763	0.720803
C76	C	1.093326	0.428481	-0.000030
H77	H	1.027227	0.495014	-0.000027
H78	H	1.143861	0.434577	-0.084976
H79	H	1.143851	0.434591	0.084931
