data_functionalizedCrystal
_audit_creation_method	'MofGen! by Chris Wilmer'
_symmetry_space_group_name_H-M	'P1'
_symmetry_Int_Tables_number	1
_symmetry_cell_setting	triclinic
loop_
_symmetry_equiv_pos_as_xyz
  x,y,z
_cell_length_a	16.109301
_cell_length_b	27.732048
_cell_length_c	14.586319
_cell_angle_alpha	89.991275
_cell_angle_beta	89.999213
_cell_angle_gamma	83.052068
loop_
_atom_site_label
_atom_site_type_symbol
_atom_site_fract_x
_atom_site_fract_y
_atom_site_fract_z
O1	O	1.102362	0.062130	-0.076193
O2	O	0.860204	0.069862	-0.076208
O3	O	0.988804	-0.004369	-0.076183
O4	O	0.973762	0.136361	-0.076218
O5	O	0.988795	-0.004370	0.076298
O6	O	0.860195	0.069861	0.076272
O7	O	1.102353	0.062129	0.076288
Cu8	Cu	0.981273	0.065995	0.090203
Cu9	Cu	0.981283	0.065996	-0.090123
O10	O	0.973753	0.136360	0.076262
C11	C	0.829228	0.069548	0.000030
C12	C	0.736945	0.068609	0.000025
C13	C	0.988483	-0.022378	0.000060
C14	C	0.987533	-0.076037	0.000068
C15	C	0.514154	0.110473	0.000025
C16	C	0.427445	0.109587	0.000031
C17	C	0.448409	0.021514	0.000050
C18	C	0.535117	0.022401	0.000050
C19	C	0.567987	0.066882	0.000033
C20	C	0.394570	0.065109	0.000039
C21	C	0.300556	0.064148	0.000045
C22	C	0.662007	0.067843	0.000028
C23	C	1.057541	-0.414559	0.000025
C24	C	1.054013	-0.616233	0.000012
O25	O	1.118031	-0.647221	-0.000024
N26	N	0.977759	-0.635676	0.000008
C27	C	0.902381	-0.604697	0.000001
O28	O	0.837441	-0.625862	-0.000012
C29	C	0.905910	-0.403024	0.000008
C30	C	0.982169	-0.383584	0.000021
C31	C	1.133794	-0.395119	0.000038
C32	C	1.134675	-0.344703	0.000046
C33	C	1.059303	-0.313728	0.000042
C34	C	0.983050	-0.333168	0.000029
C35	C	0.830533	-0.372045	-0.000006
C36	C	0.831422	-0.321624	-0.000006
C37	C	0.907681	-0.302184	0.000007
C38	C	0.908559	-0.251777	0.000034
N39	N	0.984814	-0.232334	0.000038
C40	C	1.060186	-0.263310	0.000042
C41	C	0.900534	-0.710579	-0.000000
C42	C	0.899652	-0.760997	-0.000000
C43	C	1.051284	-0.772530	0.000009
C44	C	1.052166	-0.722111	0.000016
C45	C	0.976789	-0.691136	0.000004
C46	C	1.062030	-0.157433	0.000060
C47	C	1.062905	-0.107012	0.000072
C48	C	0.911273	-0.095484	0.000058
C49	C	0.910398	-0.145900	0.000051
C50	C	0.985783	-0.176874	0.000049
O51	O	0.844576	-0.220761	0.000059
O52	O	1.125116	-0.242135	0.000035
C53	C	1.056660	-0.464975	0.000017
C54	C	0.980407	-0.484415	0.000005
C55	C	0.905035	-0.453440	0.000001
C56	C	0.979525	-0.534833	0.000005
C57	C	1.054897	-0.565808	0.000009
C58	C	1.131151	-0.546365	0.000013
C59	C	1.132032	-0.495950	0.000021
C60	C	0.828781	-0.472883	-0.000004
C61	C	0.827906	-0.523299	-0.000011
C62	C	0.903278	-0.554274	-0.000007
C63	C	1.133328	0.062443	0.000048
C64	C	1.225612	0.063382	0.000047
C65	C	0.974073	0.154369	0.000017
C66	C	0.975024	0.208028	0.000004
N67	N	0.981272	0.065994	0.217035
N68	N	0.981291	0.065994	-0.216955
C69	C	1.038234	0.033135	0.452053
C70	C	1.038237	0.033134	0.548034
C71	C	0.924323	0.098854	0.548020
C72	C	0.924317	0.098852	0.452041
C73	C	0.981278	0.065993	0.404060
C74	C	0.981286	0.065994	0.596020
C75	C	0.981288	0.065993	0.700087
C76	C	0.981275	0.065994	0.299986
H77	H	0.540913	0.146692	0.000018
H78	H	1.084615	0.006377	0.587107
C79	C	0.317772	0.159683	-0.078366
C80	C	0.368270	0.157504	0.000016
H81	H	0.281238	0.189265	-0.078370
H82	H	0.352033	0.158199	-0.131530
H83	H	0.285788	0.133065	-0.078346
H84	H	0.400259	0.184120	-0.000007
H85	H	0.334005	0.158992	0.053194
H86	H	0.877932	0.125610	0.412962
C87	C	1.131599	-0.034849	0.000094
C88	C	1.146734	-0.085644	0.000084
H89	H	1.183351	-0.021660	0.000105
H90	H	1.100602	-0.024212	-0.053077
H91	H	1.100590	-0.024227	0.053270
H92	H	1.177737	-0.096267	-0.053097
H93	H	1.177744	-0.096285	0.053260
C94	C	0.363067	-0.030574	-0.078332
C95	C	0.412276	-0.027378	0.000056
H96	H	0.340766	-0.060760	-0.078331
H97	H	0.318600	-0.004742	-0.078330
H98	H	0.396469	-0.028395	-0.131497
H99	H	0.378873	-0.029553	0.053222
H100	H	0.456750	-0.053216	0.000063
C101	C	0.547138	-0.064748	0.000058
C102	C	0.594298	-0.025519	0.000055
H103	H	0.583676	-0.094329	0.000058
H104	H	0.512885	-0.063265	0.053227
H105	H	0.512882	-0.063258	-0.053120
H106	H	0.628550	-0.027007	0.053237
H107	H	0.628566	-0.027002	-0.053120
H108	H	1.123416	-0.182646	0.000055
H109	H	1.114263	-0.706287	0.000026
H110	H	1.196773	-0.328880	0.000053
H111	H	0.877948	0.125607	0.587097
C112	C	1.283758	-0.401440	0.000064
C113	C	1.216653	-0.429162	0.000050
H114	H	1.334915	-0.422456	0.000083
H115	H	1.280950	-0.381535	-0.053110
H116	H	1.280925	-0.381535	0.053238
H117	H	1.219483	-0.449064	-0.053127
H118	H	1.219463	-0.449075	0.053229
H119	H	0.849907	-0.070255	0.000058
H120	H	1.194130	-0.480127	0.000032
H121	H	0.837554	-0.776820	0.000005
C122	C	1.117247	-0.854941	-0.000008
C123	C	1.134136	-0.806584	0.000000
H124	H	1.168394	-0.875965	-0.000026
H125	H	1.085963	-0.860836	0.053166
H126	H	1.085941	-0.860819	-0.053181
H127	H	1.165436	-0.800706	0.053177
H128	H	1.165433	-0.800687	-0.053179
C129	C	0.750564	-0.704254	0.000004
C130	C	0.817671	-0.676535	0.000000
H131	H	0.699409	-0.683238	0.000014
H132	H	0.753377	-0.724152	-0.053168
H133	H	0.753388	-0.724167	0.053179
H134	H	0.814850	-0.656625	-0.053179
H135	H	0.814857	-0.656629	0.053178
C136	C	1.281129	-0.552715	0.000025
C137	C	1.214002	-0.580420	0.000016
H138	H	1.332274	-0.573741	0.000029
H139	H	1.278326	-0.532805	-0.053142
H140	H	1.278319	-0.532815	0.053206
H141	H	1.216809	-0.600317	-0.053168
H142	H	1.216807	-0.600338	0.053189
H143	H	0.768435	-0.387864	-0.000022
H144	H	0.770039	-0.296407	-0.000017
C145	C	0.760604	-0.129433	0.000033
C146	C	0.826574	-0.167271	0.000035
H147	H	0.708855	-0.142625	0.000009
H148	H	0.764094	-0.110020	0.053212
H149	H	0.764118	-0.109998	-0.053135
H150	H	0.823063	-0.186705	0.053206
H151	H	0.823082	-0.186693	-0.053150
H152	H	0.765802	-0.539121	-0.000014
H153	H	0.767402	-0.447667	-0.000009
C154	C	1.150825	-0.031830	0.461710
C155	C	1.100836	-0.002987	0.399311
H156	H	1.189469	-0.054133	0.429149
H157	H	1.180474	-0.011705	0.499132
H158	H	1.116434	-0.049219	0.499157
H159	H	1.135228	0.014405	0.361868
H160	H	1.071186	-0.023115	0.361872
