data_functionalizedCrystal
_audit_creation_method	'MofGen! by Chris Wilmer'
_symmetry_space_group_name_H-M	'P1'
_symmetry_Int_Tables_number	1
_symmetry_cell_setting	triclinic
loop_
_symmetry_equiv_pos_as_xyz
  x,y,z
_cell_length_a	12.827893
_cell_length_b	13.031981
_cell_length_c	12.827885
_cell_angle_alpha	82.783254
_cell_angle_beta	89.980728
_cell_angle_gamma	97.191799
loop_
_atom_site_label
_atom_site_type_symbol
_atom_site_fract_x
_atom_site_fract_y
_atom_site_fract_z
Zn1	Zn	1.544847	-0.416067	-0.537948
Zn2	Zn	2.044847	0.083933	-0.037948
Zn3	Zn	1.522547	-0.590879	-0.340982
Zn4	Zn	2.022547	-0.090879	0.159018
Zn5	Zn	1.370082	-0.416117	-0.363215
Zn6	Zn	1.870082	0.083883	0.136785
Zn7	Zn	1.347890	-0.590801	-0.515692
Zn8	Zn	1.847890	-0.090801	-0.015692
O9	O	1.446341	-0.503466	-0.439459
O10	O	1.946341	-0.003466	0.060541
O11	O	1.688123	-0.439267	-0.511830
O12	O	2.188123	0.060733	-0.011830
O13	O	1.502277	-0.567750	-0.197688
O14	O	2.002277	-0.067750	0.302312
O15	O	1.411885	-0.269845	-0.405013
O16	O	1.911885	0.230155	0.094987
O17	O	1.671740	-0.567701	-0.367119
O18	O	2.171740	-0.067701	0.132881
O19	O	1.540284	-0.269808	-0.533388
O20	O	2.040284	0.230192	-0.033388
O21	O	1.390262	-0.439354	-0.214023
O22	O	1.890262	0.060646	0.285977
O23	O	1.220903	-0.439278	-0.383432
O24	O	1.720903	0.060722	0.116568
O25	O	1.374061	-0.567568	-0.664887
O26	O	1.874061	-0.067568	-0.164887
O27	O	1.204599	-0.567618	-0.495456
O28	O	1.704599	-0.067618	0.004544
O29	O	1.518765	-0.439192	-0.681239
O30	O	2.018765	0.060808	-0.181239
O31	O	1.480758	-0.737134	-0.345538
O32	O	1.980758	-0.237134	0.154462
O33	O	1.352438	-0.737077	-0.473897
O34	O	1.852438	-0.237077	0.026103
C35	C	1.174834	-0.503446	-0.439442
C36	C	1.674834	-0.003446	0.060558
C37	C	1.058679	-0.503462	-0.439456
C38	C	1.558679	-0.003462	0.060544
C39	C	0.998841	-0.567068	-0.494778
C40	C	1.498841	-0.067068	0.005222
C41	C	0.878788	-0.567087	-0.494794
C42	C	1.378788	-0.067087	0.005206
C43	C	1.411799	-0.775030	-0.404913
C44	C	1.911799	-0.275030	0.095087
C45	C	1.397117	-0.891207	-0.390168
C46	C	1.897117	-0.391207	0.109832
C47	C	1.454059	-0.942900	-0.447175
C48	C	1.954059	-0.442900	0.052825
C49	C	1.438886	-1.062974	-0.431938
C50	C	1.938886	-0.562974	0.068062
C51	C	1.718909	-0.503487	-0.439477
C52	C	2.218909	-0.003487	0.060523
C53	C	1.835061	-0.503496	-0.439485
C54	C	2.335061	-0.003496	0.060515
C55	C	1.446425	-0.503366	-0.712042
C56	C	1.946425	-0.003366	-0.212042
C57	C	1.446461	-0.503323	-0.828201
C58	C	1.946461	-0.003323	-0.328201
C59	C	1.481047	-0.230841	-0.474163
C60	C	1.981047	0.269159	0.025837
C61	C	1.495837	-0.114665	-0.488952
C62	C	1.995837	0.385335	0.011048
C63	C	1.518073	-0.439786	-0.888078
C64	C	2.018073	0.060214	-0.388078
C65	C	1.518112	-0.439740	-1.008135
C66	C	2.018112	0.060260	-0.508135
C67	C	1.446327	-0.503491	-0.167946
C68	C	1.946327	-0.003491	0.332054
C69	C	1.446532	-0.503239	-0.051825
C70	C	1.946532	-0.003239	0.448175
H71	H	1.036491	-0.621506	-0.542134
H72	H	1.536491	-0.121506	-0.042134
Br73	Br	1.297127	-0.965595	-0.290025
Br74	Br	1.797127	-0.465595	0.209975
Br75	Br	1.595820	-1.040283	-0.589112
Br76	Br	2.095820	-0.540283	-0.089112
Br77	Br	1.620314	-0.349078	-1.093901
Br78	Br	2.120314	0.150922	-0.593901
Br79	Br	1.620192	-0.349140	-0.825396
Br80	Br	2.120192	0.150860	-0.325396
H81	H	1.378894	-1.107608	-0.371852
H82	H	1.878894	-0.607608	0.128148
H83	H	1.385222	-0.557642	-1.000369
H84	H	1.885222	-0.057642	-0.500369
H85	H	0.886482	-0.449042	-0.392114
H86	H	1.386482	0.050958	0.107886
H87	H	1.021030	-0.449017	-0.392109
H88	H	1.521030	0.050983	0.107891
H89	H	1.514040	-0.898264	-0.507266
H90	H	2.014040	-0.398264	-0.007266
H91	H	1.385174	-0.557679	-0.865819
H92	H	1.885174	-0.057679	-0.365819
H93	H	0.827360	-0.621545	-0.542154
H94	H	1.327360	-0.121545	-0.042154
