data_functionalizedCrystal
_audit_creation_method	'MofGen! by Chris Wilmer'
_symmetry_space_group_name_H-M	'P1'
_symmetry_Int_Tables_number	1
_symmetry_cell_setting	triclinic
loop_
_symmetry_equiv_pos_as_xyz
  x,y,z
_cell_length_a	12.759401
_cell_length_b	12.827892
_cell_length_c	12.759393
_cell_angle_alpha	89.970194
_cell_angle_beta	89.981287
_cell_angle_gamma	90.016917
loop_
_atom_site_label
_atom_site_type_symbol
_atom_site_fract_x
_atom_site_fract_y
_atom_site_fract_z
Zn1	Zn	1.606238	-0.415940	-0.594025
Zn2	Zn	1.606134	-0.590717	-0.418348
Zn3	Zn	1.430544	-0.415995	-0.418361
Zn4	Zn	1.430527	-0.590644	-0.593985
O5	O	1.518361	-0.503324	-0.506180
O6	O	1.753245	-0.439132	-0.570733
O7	O	1.582805	-0.567594	-0.271328
O8	O	1.453901	-0.269752	-0.441685
O9	O	1.753169	-0.567540	-0.441663
O10	O	1.582983	-0.269711	-0.570745
O11	O	1.453800	-0.439226	-0.271338
O12	O	1.283521	-0.439156	-0.441646
O13	O	1.453872	-0.567415	-0.741011
O14	O	1.283508	-0.567469	-0.570676
O15	O	1.582966	-0.439061	-0.741041
O16	O	1.582789	-0.736943	-0.441624
O17	O	1.453771	-0.736890	-0.570664
C18	C	1.245393	-0.503311	-0.506159
C19	C	1.128617	-0.503331	-0.506175
C20	C	1.073776	-0.570246	-0.573255
C21	C	0.964052	-0.570250	-0.573276
C22	C	0.964019	-0.436421	-0.439127
C23	C	1.073741	-0.436413	-0.439112
C24	C	0.814150	-0.607747	-0.697137
C25	C	0.759306	-0.674678	-0.764208
C26	C	0.794902	-0.776661	-0.780157
C27	C	0.885340	-0.811734	-0.729020
C28	C	0.940179	-0.744809	-0.661941
C29	C	0.904585	-0.642811	-0.646012
C30	C	1.223645	-0.398927	-0.315250
C31	C	1.278486	-0.332006	-0.248165
C32	C	1.242892	-0.230021	-0.232205
C33	C	1.152450	-0.194951	-0.283324
C34	C	1.097608	-0.261872	-0.350409
C35	C	1.133210	-0.363856	-0.366370
C36	C	1.518295	-0.774834	-0.506161
C37	C	1.518363	-0.890987	-0.506188
C38	C	1.582281	-0.942764	-0.442406
C39	C	1.582353	-1.062814	-0.442433
C40	C	1.792394	-0.503338	-0.506201
C41	C	1.909171	-0.503343	-0.506210
C42	C	1.518429	-0.503224	-0.780213
C43	C	1.518458	-0.503181	-0.896990
C44	C	1.518455	-0.230754	-0.506221
C45	C	1.518496	-0.114601	-0.506239
C46	C	1.451261	-0.569984	-0.951838
C47	C	1.451298	-0.569945	-1.061562
C48	C	1.585732	-0.436291	-1.061580
C49	C	1.585699	-0.436336	-0.951858
C50	C	1.413760	-0.693125	-1.211498
C51	C	1.346547	-0.759919	-1.266350
C52	C	1.244016	-0.775971	-1.230734
C53	C	1.208677	-0.725213	-1.140269
C54	C	1.275885	-0.658412	-1.085423
C55	C	1.378431	-0.642380	-1.121036
C56	C	1.623227	-0.313155	-0.801920
C57	C	1.690430	-0.246347	-0.747072
C58	C	1.792963	-0.230285	-0.782685
C59	C	1.828297	-0.281023	-0.873154
C60	C	1.761094	-0.347831	-0.928003
C61	C	1.658562	-0.363895	-0.892382
C62	C	1.518353	-0.503349	-0.233212
C63	C	1.518528	-0.503097	-0.116436
H64	H	0.750240	-0.831156	-0.834769
H65	H	1.636955	-0.898217	-0.387783
O66	O	1.445934	-0.949989	-0.578541
H67	H	1.492997	-0.999646	-0.631997
O68	O	1.652315	-0.191617	-0.649496
H69	H	1.716267	-0.142455	-0.617348
O70	O	1.098080	-0.742519	-1.101869
H71	H	1.084797	-0.695997	-1.029757
O72	O	1.171502	-0.847974	-1.289917
H73	H	1.213293	-0.880558	-1.358811
H74	H	0.685671	-0.646111	-0.805845
H75	H	1.463766	-1.070082	-0.560844
O76	O	0.923729	-0.921740	-0.746206
H77	H	0.941353	-0.933360	-0.830586
H78	H	1.287549	-0.175538	-0.177569
H79	H	1.539737	-0.326232	-0.772912
H80	H	1.396502	-0.624407	-0.907167
H81	H	1.247112	-0.617083	-1.011770
O82	O	1.654864	-1.121781	-0.370112
H83	H	1.643556	-1.206819	-0.381496
H84	H	1.497252	-0.680073	-1.240497
O85	O	1.132968	-0.642405	-0.645595
H86	H	1.076395	-0.688926	-0.692252
O87	O	1.037726	-0.782616	-0.606796
H88	H	1.053272	-0.864777	-0.629157
H89	H	0.919326	-0.381941	-0.384525
O90	O	0.775739	-0.497756	-0.679905
H91	H	0.703623	-0.484629	-0.726706
H92	H	1.023971	-0.233307	-0.392040
H93	H	1.375329	-0.801245	-1.340007
O94	O	1.658221	-0.364161	-1.120758
H95	H	1.646939	-0.375334	-1.206270
O96	O	1.799200	-0.402568	-1.025578
H97	H	1.881791	-0.380183	-1.041128
O98	O	1.114050	-0.084950	-0.266123
H99	H	1.167385	-0.044304	-0.210897
O100	O	1.938889	-0.263712	-0.911574
H101	H	1.979687	-0.208743	-0.858231
O102	O	1.376037	-0.369824	-0.193025
H103	H	1.391588	-0.451979	-0.215403
H104	H	1.847674	-0.175871	-0.738025
H105	H	1.252640	-0.481969	-0.328248
