data_functionalizedCrystal
_audit_creation_method	'MofGen! by Chris Wilmer'
_symmetry_space_group_name_H-M	'P1'
_symmetry_Int_Tables_number	1
_symmetry_cell_setting	triclinic
loop_
_symmetry_equiv_pos_as_xyz
  x,y,z
_cell_length_a	31.640172
_cell_length_b	31.640172
_cell_length_c	31.640172
_cell_angle_alpha	120.001100
_cell_angle_beta	89.994524
_cell_angle_gamma	60.000198
loop_
_atom_site_label
_atom_site_type_symbol
_atom_site_fract_x
_atom_site_fract_y
_atom_site_fract_z
Zr1	Zr	0.407226	0.462554	0.055480
O2	O	0.339731	0.550739	0.122967
O3	O	0.427908	0.374381	0.034792
O4	O	0.427896	0.462563	0.122972
O5	O	0.339761	0.462545	-0.034771
O6	O	0.497453	0.462556	0.122975
O7	O	0.339742	0.462557	0.034788
O8	O	0.497474	0.304815	-0.034763
O9	O	0.339740	0.620286	0.122967
O10	O	0.488648	0.410638	0.025970
O11	O	0.436753	0.410634	-0.025942
O12	O	0.436739	0.514457	0.077878
O13	O	0.384844	0.514454	0.025965
Zr14	Zr	0.518190	0.462524	-0.055453
Zr15	Zr	0.518160	0.462542	0.055485
Zr16	Zr	0.407256	0.462535	-0.055458
Zr17	Zr	0.407241	0.573474	0.055479
Zr18	Zr	0.518175	0.351603	-0.055452
O19	O	0.497507	0.550696	-0.034765
O20	O	0.497465	0.550723	0.122974
O21	O	0.339773	0.550712	-0.034772
O22	O	0.585685	0.374338	-0.122941
O23	O	0.585642	0.374365	0.034799
O24	O	0.427951	0.374355	-0.122947
O25	O	0.585654	0.462532	0.034798
O26	O	0.497519	0.462514	-0.122945
O27	O	0.427963	0.462521	-0.122948
O28	O	0.585673	0.462520	-0.034761
O29	O	0.427918	0.620277	0.122970
O30	O	0.497498	0.304800	-0.122943
O31	O	0.585675	0.304791	-0.122940
O32	O	0.585652	0.304806	-0.034759
O33	O	0.339764	0.620271	0.034786
O34	O	0.427942	0.620262	0.034789
O35	O	0.488676	0.410620	-0.077851
O36	O	0.540571	0.410624	-0.025938
O37	O	0.488662	0.514443	0.025969
O38	O	0.436767	0.514439	-0.025944
C39	C	0.462689	0.323794	0.000015
C40	C	0.462682	0.276706	0.000015
C41	C	0.489807	-0.015334	0.027107
C42	C	0.489817	-0.192330	0.027106
O43	O	0.512874	-0.215233	0.050133
N44	N	0.462728	-0.214461	0.000009
C45	C	0.435637	-0.192343	-0.027092
O46	O	0.412601	-0.215232	-0.050144
C47	C	0.435630	-0.015351	-0.027095
C48	C	0.462717	0.006782	0.000008
C49	C	0.516892	0.006798	0.054207
C50	C	0.516887	0.051047	0.054209
C51	C	0.489796	0.073163	0.027111
C52	C	0.462711	0.051030	0.000010
C53	C	0.408542	0.006763	-0.054199
C54	C	0.408544	0.051013	-0.054198
C55	C	0.435631	0.073146	-0.027095
C56	C	0.435616	0.117395	-0.027086
N57	N	0.462705	0.139526	0.000011
C58	C	0.489795	0.117410	0.027109
C59	C	0.435642	-0.285265	-0.027088
C60	C	0.435643	-0.329512	-0.027087
C61	C	0.489824	-0.329497	0.027111
C62	C	0.489820	-0.285246	0.027112
C63	C	0.462731	-0.263135	0.000009
C64	C	0.489782	0.210335	0.027112
C65	C	0.489773	0.254590	0.027114
C66	C	0.435594	0.254568	-0.027086
C67	C	0.435601	0.210320	-0.027086
C68	C	0.462699	0.188203	0.000015
O69	O	0.412576	0.140321	-0.050106
O70	O	0.512838	0.140297	0.050149
C71	C	0.489812	-0.059583	0.027104
C72	C	0.462727	-0.081715	0.000004
C73	C	0.435637	-0.059599	-0.027094
C74	C	0.462728	-0.125962	0.000005
C75	C	0.489818	-0.148079	0.027104
C76	C	0.516908	-0.125948	0.054201
C77	C	0.516902	-0.081699	0.054203
C78	C	0.408548	-0.081730	-0.054191
C79	C	0.408555	-0.125978	-0.054190
C80	C	0.435645	-0.148094	-0.027092
C81	C	0.323946	0.462553	0.000008
C82	C	0.276852	0.462558	0.000006
C83	C	-0.015164	0.462534	0.038333
C84	C	-0.192151	0.462527	0.038337
O85	O	-0.215032	0.462506	0.070914
N86	N	-0.214271	0.462522	0.000017
C87	C	-0.192140	0.462514	-0.038309
O88	O	-0.215013	0.462503	-0.070905
C89	C	-0.015152	0.462517	-0.038314
C90	C	0.006963	0.462529	0.000011
C91	C	0.006951	0.462545	0.076655
C92	C	0.051193	0.462550	0.076655
C93	C	0.073320	0.462545	0.038333
C94	C	0.051205	0.462534	0.000011
C95	C	0.006980	0.462506	-0.076641
C96	C	0.051231	0.462505	-0.076640
C97	C	0.073346	0.462517	-0.038315
C98	C	0.117575	0.462534	-0.038310
N99	N	0.139695	0.462539	0.000010
C100	C	0.117568	0.462544	0.038331
C101	C	-0.285062	0.462514	-0.038303
C102	C	-0.329309	0.462514	-0.038301
C103	C	-0.329316	0.462525	0.038344
C104	C	-0.285070	0.462529	0.038344
C105	C	-0.262941	0.462519	0.000017
C106	C	0.210480	0.462556	0.038329
C107	C	0.254725	0.462563	0.038328
C108	C	0.254729	0.462549	-0.038319
C109	C	0.210487	0.462544	-0.038315
C110	C	0.188364	0.462546	0.000011
O111	O	0.140487	0.462548	-0.070874
O112	O	0.140455	0.462542	0.070916
C113	C	-0.059407	0.462529	0.038332
C114	C	-0.081522	0.462519	0.000011
C115	C	-0.059395	0.462513	-0.038311
C116	C	-0.125769	0.462519	0.000012
C117	C	-0.147896	0.462524	0.038334
C118	C	-0.125776	0.462530	0.076654
C119	C	-0.081534	0.462535	0.076654
C120	C	-0.081515	0.462508	-0.076631
C121	C	-0.125758	0.462503	-0.076628
C122	C	-0.147885	0.462509	-0.038306
C123	C	0.601470	0.462524	0.000019
C124	C	0.648564	0.462520	0.000021
C125	C	0.462670	0.462562	0.138780
C126	C	0.462657	0.462570	0.185876
C127	C	0.462727	0.601283	0.000012
C128	C	0.462733	0.648371	0.000011
C129	C	0.424380	0.462544	0.522151
C130	C	0.424358	0.462557	0.345167
O131	O	0.391779	0.462539	0.322274
N132	N	0.462676	0.462555	0.323034
C133	C	0.501003	0.462546	0.345148
O134	O	0.533597	0.462538	0.322259
C135	C	0.501027	0.462528	0.522129
C136	C	0.462704	0.462536	0.544262
C137	C	0.386061	0.462551	0.544284
C138	C	0.386065	0.462551	0.588529
C139	C	0.424389	0.462543	0.610640
C140	C	0.462708	0.462536	0.588507
C141	C	0.539356	0.462514	0.544239
C142	C	0.539359	0.462508	0.588486
C143	C	0.501036	0.462516	0.610620
C144	C	0.501036	0.462528	0.654863
N145	N	0.462719	0.462530	0.676996
C146	C	0.424395	0.462538	0.654885
C147	C	0.500987	0.462557	0.252232
C148	C	0.500981	0.462562	0.207987
C149	C	0.424337	0.462573	0.208009
C150	C	0.424341	0.462571	0.252256
C151	C	0.462670	0.462559	0.274364
C152	C	0.424407	0.462538	0.747802
C153	C	0.424413	0.462540	0.792052
C154	C	0.501059	0.462526	0.792025
C155	C	0.501051	0.462527	0.747780
C156	C	0.462723	0.462531	0.725669
O157	O	0.533602	0.462540	0.677781
O158	O	0.391813	0.462532	0.677775
C159	C	0.424376	0.462544	0.477906
C160	C	0.462695	0.462536	0.455773
C161	C	0.501019	0.462529	0.477884
C162	C	0.462689	0.462542	0.411528
C163	C	0.424365	0.462550	0.389417
C164	C	0.386048	0.462552	0.411550
C165	C	0.386052	0.462551	0.455794
C166	C	0.539336	0.462527	0.455751
C167	C	0.539329	0.462528	0.411507
C168	C	0.501005	0.462535	0.389395
C169	C	0.462740	0.462521	0.861250
C170	C	0.462737	0.462532	0.814164
C171	C	0.601450	0.323780	0.000021
C172	C	0.648538	0.276687	0.000023
C173	C	0.462726	0.323771	-0.138751
C174	C	0.462733	0.276674	-0.185847
C175	C	0.601488	0.323757	-0.138746
C176	C	0.648589	0.276655	-0.185839
C177	C	0.323927	0.601321	0.138773
C178	C	0.276827	0.648422	0.185866
C179	C	0.323965	0.601297	0.000006
C180	C	0.276877	0.648391	0.000004
C181	C	0.462689	0.601306	0.138778
C182	C	0.462683	0.648403	0.185874
C183	C	0.643548	0.254579	0.027125
C184	C	0.687788	0.210335	0.027137
C185	C	0.737018	0.188198	0.000045
C186	C	0.742007	0.210311	-0.027057
C187	C	0.697768	0.254556	-0.027067
C188	C	0.489839	0.254550	-0.235064
C189	C	0.489843	0.210304	-0.279319
C190	C	0.462743	0.188180	-0.274357
C191	C	0.435634	0.210309	-0.225134
C192	C	0.435627	0.254557	-0.180880
C193	C	0.697801	0.254538	-0.180857
C194	C	0.742062	0.210287	-0.225102
C195	C	0.737109	0.188152	-0.274329
C196	C	0.687891	0.210274	-0.279311
C197	C	0.643632	0.254527	-0.235066
C198	C	0.227614	0.670545	0.180884
C199	C	0.183354	0.714809	0.225129
C200	C	0.188307	0.736947	0.274356
C201	C	0.237524	0.714822	0.279337
C202	C	0.281784	0.670561	0.235093
C203	C	0.281867	0.670503	-0.027093
C204	C	0.237628	0.714759	-0.027094
C205	C	0.188398	0.736897	0.000000
C206	C	0.183409	0.714783	0.027101
C207	C	0.227648	0.670531	0.027104
C208	C	0.489788	0.670513	0.180894
C209	C	0.489792	0.714759	0.225141
C210	C	0.462688	0.736898	0.274367
C211	C	0.435582	0.714783	0.279345
C212	C	0.435581	0.670535	0.235099
H213	H	0.511877	-0.267229	0.049182
F214	F	0.541834	0.462528	0.724230
F215	F	-0.057971	0.462502	-0.117420
F216	F	0.406726	0.647013	0.240406
H217	H	0.701838	0.272551	-0.049139
F218	F	0.591258	0.278058	-0.240376
F219	F	0.406765	0.186771	-0.055924
H220	H	0.701844	0.272554	-0.140778
H221	H	0.773152	0.152119	-0.310352
H222	H	0.143283	0.732815	0.221063
F223	F	0.222331	0.646991	0.128497
H224	H	0.462693	0.772928	0.310391
F225	F	0.406734	0.738355	0.331739
H226	H	0.413570	0.192289	-0.221101
F227	F	-0.352847	0.462513	-0.079086
F228	F	-0.058002	0.462546	0.117445
F229	F	0.518656	-0.353042	0.055951
F230	F	0.141197	0.784053	0.321441
H231	H	0.241551	0.732852	0.319423
F232	F	0.141318	0.783994	-0.000008
H233	H	0.321853	0.652549	0.239155
F234	F	0.379712	0.074543	-0.083047
H235	H	0.603467	0.272602	0.049193
H236	H	0.511829	0.272610	0.049186
H237	H	0.782096	0.192280	-0.049115
F238	F	0.518686	0.278086	-0.240357
H239	H	0.511848	0.192332	0.049179
H240	H	0.511921	0.192292	-0.319394
H241	H	0.538945	0.069063	0.076277
H242	H	0.683866	0.192245	-0.319397
H243	H	0.143320	0.732815	0.049160
F244	F	0.334257	0.646951	-0.055931
H245	H	0.511859	0.652494	0.140816
F246	F	0.406778	0.278096	-0.128501
H247	H	0.462753	0.152151	-0.310396
F248	F	0.222329	0.646998	0.055943
H249	H	-0.267048	0.462506	-0.069514
H250	H	0.511864	0.732759	0.221078
F251	F	0.794437	0.186750	-0.219790
H252	H	0.538954	-0.011206	0.076273
F253	F	0.406806	-0.353055	-0.055926
F254	F	0.242948	0.738285	-0.055940
F255	F	0.784097	0.141107	0.000059
F256	F	0.406809	-0.261738	-0.055938
F257	F	0.541843	0.462520	0.815565
H258	H	0.386486	-0.011251	-0.076270
H259	H	0.413536	0.272585	-0.049147
F260	F	0.545737	-0.149491	0.083043
F261	F	0.545732	-0.058149	0.083050
H262	H	0.386488	-0.063729	-0.076259
F263	F	0.379720	-0.149526	-0.083036
F264	F	0.278258	0.462577	0.079121
H265	H	0.192473	0.462556	0.069538
H266	H	0.683716	0.192337	0.049207
H267	H	0.393136	0.462578	0.270274
H268	H	0.069198	0.462557	0.107861
H269	H	-0.267067	0.462538	0.069552
F270	F	-0.352873	0.462531	0.079129
F271	F	-0.016592	0.462550	0.117445
H272	H	-0.143763	0.462499	-0.107836
F273	F	-0.016548	0.462493	-0.117433
H274	H	0.069247	0.462495	-0.107852
F275	F	0.186946	0.462542	-0.079102
H276	H	-0.143801	0.462537	0.107858
F277	F	0.383622	0.462550	0.815607
F278	F	0.383613	0.462541	0.724276
F279	F	0.345279	0.462555	0.612079
F280	F	0.278285	0.462545	-0.079101
H281	H	0.354853	0.462555	0.526284
H282	H	0.393131	0.462580	0.189999
H283	H	0.532182	0.462565	0.189974
F284	F	0.541783	0.462545	0.275757
H285	H	0.570573	0.462496	0.606484
F286	F	0.345264	0.462560	0.479345
F287	F	0.345260	0.462563	0.388011
F288	F	0.580145	0.462504	0.520690
H289	H	0.570535	0.462526	0.393491
F290	F	0.580127	0.462518	0.479279
