data_functionalizedCrystal
_audit_creation_method	'MofGen! by Chris Wilmer'
_symmetry_space_group_name_H-M	'P1'
_symmetry_Int_Tables_number	1
_symmetry_cell_setting	triclinic
loop_
_symmetry_equiv_pos_as_xyz
  x,y,z
_cell_length_a	12.759401
_cell_length_b	25.639239
_cell_length_c	12.759393
_cell_angle_alpha	89.962897
_cell_angle_beta	89.980163
_cell_angle_gamma	90.040211
loop_
_atom_site_label
_atom_site_type_symbol
_atom_site_fract_x
_atom_site_fract_y
_atom_site_fract_z
Zn1	Zn	1.606080	-0.208098	-0.593980
Zn2	Zn	2.106080	0.291902	-0.093980
Zn3	Zn	1.605901	-0.295545	-0.418283
Zn4	Zn	2.105901	0.204455	0.081717
Zn5	Zn	1.430382	-0.208128	-0.418315
Zn6	Zn	1.930382	0.291872	0.081685
Zn7	Zn	1.430297	-0.295507	-0.593921
Zn8	Zn	1.930297	0.204493	-0.093921
O9	O	1.518165	-0.251820	-0.506125
O10	O	2.018165	0.248180	-0.006125
O11	O	1.753077	-0.219702	-0.570685
O12	O	2.253077	0.280298	-0.070685
O13	O	1.582578	-0.283978	-0.271266
O14	O	2.082578	0.216022	0.228734
O15	O	1.453799	-0.134959	-0.441656
O16	O	1.953799	0.365041	0.058344
O17	O	1.752946	-0.283949	-0.441601
O18	O	2.252946	0.216051	0.058399
O19	O	1.582884	-0.134937	-0.570716
O20	O	2.082884	0.365063	-0.070716
O21	O	1.453626	-0.219752	-0.271290
O22	O	1.953626	0.280248	0.228710
O23	O	1.283350	-0.219715	-0.441598
O24	O	1.783350	0.280285	0.058402
O25	O	1.453654	-0.283884	-0.740950
O26	O	1.953654	0.216116	-0.240950
O27	O	1.283287	-0.283912	-0.570615
O28	O	1.783287	0.216088	-0.070615
O29	O	1.582801	-0.219665	-0.740993
O30	O	2.082801	0.280335	-0.240993
O31	O	1.582496	-0.368705	-0.441544
O32	O	2.082496	0.131295	0.058456
O33	O	1.453481	-0.368677	-0.570584
O34	O	1.953481	0.131323	-0.070584
C35	C	1.245198	-0.251813	-0.506104
C36	C	1.745198	0.248187	-0.006104
C37	C	1.128421	-0.251823	-0.506120
C38	C	1.628421	0.248177	-0.006120
C39	C	1.073554	-0.285301	-0.573193
C40	C	1.573554	0.214699	-0.073193
C41	C	0.963830	-0.285303	-0.573214
C42	C	1.463830	0.214697	-0.073214
C43	C	0.963849	-0.218347	-0.439079
C44	C	1.463849	0.281653	0.060921
C45	C	1.073572	-0.218343	-0.439065
C46	C	1.573572	0.281657	0.060935
C47	C	1.517988	-0.387662	-0.506077
C48	C	2.017988	0.112338	-0.006077
C49	C	1.518009	-0.445776	-0.506091
C50	C	2.018009	0.054224	-0.006091
C51	C	1.585519	-0.806141	-0.439048
C52	C	2.085519	-0.306141	0.060952
C53	C	1.585559	-0.860746	-0.439062
C54	C	2.085559	-0.360746	0.060938
O55	O	1.642775	-0.888984	-0.382007
O56	O	2.142775	-0.388984	0.117993
N57	N	1.518350	-0.888059	-0.506194
N58	N	2.018350	-0.388059	-0.006194
C59	C	1.451102	-0.860765	-0.573324
C60	C	1.951102	-0.360765	-0.073324
O61	O	1.393940	-0.889010	-0.630428
O62	O	1.893940	-0.389010	-0.130428
C63	C	1.451068	-0.806161	-0.573315
C64	C	1.951068	-0.306161	-0.073315
C65	C	1.518274	-0.778851	-0.506171
C66	C	2.018274	-0.278851	-0.006171
C67	C	1.652720	-0.778831	-0.371910
C68	C	2.152720	-0.278831	0.128090
C69	C	1.652678	-0.724231	-0.371895
C70	C	2.152678	-0.224231	0.128105
C71	C	1.585434	-0.696940	-0.439018
C72	C	2.085434	-0.196940	0.060982
C73	C	1.518232	-0.724251	-0.506156
C74	C	2.018232	-0.224251	-0.006156
C75	C	1.383827	-0.778868	-0.640449
C76	C	1.883827	-0.278868	-0.140449
C77	C	1.383798	-0.724261	-0.640435
C78	C	1.883798	-0.224261	-0.140435
C79	C	1.451005	-0.696951	-0.573291
C80	C	1.951005	-0.196951	-0.073291
C81	C	1.450945	-0.642360	-0.573263
C82	C	1.950945	-0.142360	-0.073263
N83	N	1.518155	-0.615047	-0.506131
N84	N	2.018155	-0.115047	-0.006131
C85	C	1.585399	-0.642337	-0.439008
C86	C	2.085399	-0.142337	0.060992
C87	C	1.451181	-0.975435	-0.573341
C88	C	1.951181	-0.475435	-0.073341
C89	C	1.451210	-1.030037	-0.573346
C90	C	1.951210	-0.530037	-0.073346
C91	C	1.585669	-1.030015	-0.439085
C92	C	2.085669	-0.530015	0.060915
C93	C	1.585634	-0.975411	-0.439075
C94	C	2.085634	-0.475411	0.060925
C95	C	1.518391	-0.948122	-0.506208
C96	C	2.018391	-0.448122	-0.006208
C97	C	1.585304	-0.527672	-0.438981
C98	C	2.085304	-0.027672	0.061019
C99	C	1.585253	-0.473067	-0.438969
C100	C	2.085253	0.026933	0.061031
C101	C	1.450799	-0.473094	-0.573233
C102	C	1.950799	0.026906	-0.073233
C103	C	1.450846	-0.527695	-0.573242
C104	C	1.950846	-0.027695	-0.073242
C105	C	1.518107	-0.554982	-0.506112
C106	C	2.018107	-0.054982	-0.006112
O107	O	1.393761	-0.614087	-0.630292
O108	O	1.893761	-0.114087	-0.130292
O109	O	1.642562	-0.614084	-0.381925
O110	O	2.142562	-0.114084	0.118075
C111	C	1.792198	-0.251826	-0.506146
C112	C	2.292198	0.248174	-0.006146
C113	C	1.908975	-0.251829	-0.506156
C114	C	2.408975	0.248171	-0.006156
C115	C	1.518238	-0.251767	-0.780158
C116	C	2.018238	0.248233	-0.280158
C117	C	1.518270	-0.251744	-0.896935
C118	C	2.018270	0.248256	-0.396935
C119	C	1.518371	-0.115447	-0.506196
C120	C	2.018371	0.384553	-0.006196
C121	C	1.518459	-0.057333	-0.506226
C122	C	2.018459	0.442667	-0.006226
C123	C	1.451148	-0.218296	-0.951809
C124	C	1.951148	0.281704	-0.451809
C125	C	1.451172	-0.218280	-1.061533
C126	C	1.951172	0.281720	-0.561533
C127	C	1.585449	-0.285162	-1.061500
C128	C	2.085449	0.214838	-0.561500
C129	C	1.585419	-0.285180	-0.951778
C130	C	2.085419	0.214820	-0.451778
C131	C	1.518152	-0.251835	-0.233157
C132	C	2.018152	0.248165	0.266843
C133	C	1.518325	-0.251710	-0.116381
C134	C	2.018325	0.248290	0.383619
H135	H	0.919178	-0.191090	-0.384484
H136	H	1.419178	0.308910	0.115516
N137	N	1.657886	-0.321219	-1.120645
N138	N	2.157886	0.178781	-0.620645
H139	H	1.641504	-0.358578	-1.101525
H140	H	2.141504	0.141422	-0.601525
H141	H	1.647696	-0.316089	-1.198463
H142	H	2.147696	0.183911	-0.698463
N143	N	1.132759	-0.182226	-0.366732
N144	N	1.632759	0.317774	0.133268
H145	H	1.081365	-0.161018	-0.324253
H146	H	1.581365	0.338982	0.175747
H147	H	1.178241	-0.203473	-0.318025
H148	H	1.678241	0.296527	0.181975
N149	N	1.657745	-0.443611	-0.366549
N150	N	2.157745	0.056389	0.133451
H151	H	1.700353	-0.469188	-0.324036
H152	H	2.200353	0.030812	0.175964
H153	H	1.706325	-0.420914	-0.409356
H154	H	2.206325	0.079086	0.090644
N155	N	1.378782	-0.182203	-1.120721
N156	N	1.878782	0.317797	-0.620721
H157	H	1.330070	-0.203442	-1.166222
H158	H	1.830070	0.296558	-0.666222
H159	H	1.336311	-0.161033	-1.069260
H160	H	1.836311	0.338967	-0.569260
H161	H	1.640080	-0.312419	-0.907098
H162	H	2.140080	0.187581	-0.407098
H163	H	1.640077	-0.549883	-0.384320
H164	H	2.140077	-0.049883	0.115680
H165	H	1.118209	-0.312562	-0.627796
H166	H	1.618209	0.187438	-0.127796
H167	H	1.707406	-0.701998	-0.317224
H168	H	2.207406	-0.201998	0.182776
N169	N	0.904651	-0.321414	-0.645552
N170	N	1.404651	0.178586	-0.145552
H171	H	0.956050	-0.342622	-0.688024
H172	H	1.456050	0.157378	-0.188024
H173	H	0.859076	-0.345584	-0.602696
H174	H	1.359076	0.154416	-0.102696
H175	H	1.707485	-0.801045	-0.317251
H176	H	2.207485	-0.301045	0.182749
N177	N	1.378352	-0.557151	-0.645654
N178	N	1.878352	-0.057151	-0.145654
H179	H	1.421040	-0.579762	-0.694389
H180	H	1.921040	-0.079762	-0.194389
H181	H	1.329720	-0.579821	-0.602849
H182	H	1.829720	-0.079821	-0.102849
H183	H	1.640360	-0.953179	-0.384401
H184	H	2.140360	-0.453179	0.115599
N185	N	1.658210	-1.059456	-0.366699
N186	N	2.158210	-0.559456	0.133301
H187	H	1.700786	-1.033873	-0.324163
H188	H	2.200786	-0.533873	0.175837
H189	H	1.615487	-1.082154	-0.318048
H190	H	2.115487	-0.582154	0.181952
H191	H	1.396474	-1.052269	-0.628011
H192	H	1.896474	-0.552269	-0.128011
N193	N	1.378642	-0.946003	-0.645745
N194	N	1.878642	-0.446003	-0.145745
H195	H	1.336074	-0.971595	-0.688267
H196	H	1.836074	-0.471595	-0.188267
H197	H	1.330028	-0.923390	-0.602930
H198	H	1.830028	-0.423390	-0.102930
H199	H	1.329095	-0.801095	-0.695120
H200	H	1.829095	-0.301095	-0.195120
H201	H	1.329042	-0.702045	-0.695106
H202	H	1.829042	-0.202045	-0.195106
H203	H	1.396046	-0.450866	-0.627881
H204	H	1.896046	0.049134	-0.127881
H205	H	1.396471	-0.191071	-0.907159
H206	H	1.896471	0.308929	-0.407159
