data_functionalizedCrystal
_audit_creation_method	'MofGen! by Chris Wilmer'
_symmetry_space_group_name_H-M	'P1'
_symmetry_Int_Tables_number	1
_symmetry_cell_setting	triclinic
loop_
_symmetry_equiv_pos_as_xyz
  x,y,z
_cell_length_a	18.101395
_cell_length_b	18.215407
_cell_length_c	18.215399
_cell_angle_alpha	90.019833
_cell_angle_beta	89.973573
_cell_angle_gamma	89.968448
loop_
_atom_site_label
_atom_site_type_symbol
_atom_site_fract_x
_atom_site_fract_y
_atom_site_fract_z
Zn1	Zn	-0.294828	-1.125040	-0.416124
Zn2	Zn	-0.044828	-0.875040	-0.166124
Zn3	Zn	0.205172	-0.625040	0.083876
Zn4	Zn	0.455172	-0.375040	0.333876
Zn5	Zn	-0.418675	-1.124935	-0.293061
Zn6	Zn	-0.168675	-0.874935	-0.043061
Zn7	Zn	0.081325	-0.624935	0.206939
Zn8	Zn	0.331325	-0.374935	0.456939
Zn9	Zn	-0.294853	-1.001973	-0.293071
Zn10	Zn	-0.044853	-0.751973	-0.043071
Zn11	Zn	0.205147	-0.501973	0.206929
Zn12	Zn	0.455147	-0.251973	0.456929
Zn13	Zn	-0.418634	-1.001925	-0.416086
Zn14	Zn	-0.168634	-0.751925	-0.166086
Zn15	Zn	0.081366	-0.501925	0.083914
Zn16	Zn	0.331366	-0.251925	0.333914
O17	O	-0.356747	-1.063468	-0.354585
O18	O	-0.106747	-0.813468	-0.104585
O19	O	0.143253	-0.563468	0.145415
O20	O	0.393253	-0.313468	0.395415
O21	O	-0.311264	-1.228010	-0.399811
O22	O	-0.061264	-0.978010	-0.149811
O23	O	0.188736	-0.728010	0.100189
O24	O	0.438736	-0.478010	0.350189
O25	O	-0.402277	-1.108600	-0.190078
O26	O	-0.152277	-0.858600	0.059922
O27	O	0.097723	-0.608600	0.309922
O28	O	0.347723	-0.358600	0.559922
O29	O	-0.191216	-1.018362	-0.309415
O30	O	0.058784	-0.768362	-0.059415
O31	O	0.308784	-0.518362	0.190585
O32	O	0.558784	-0.268362	0.440585
O33	O	-0.402253	-1.227933	-0.309397
O34	O	-0.152253	-0.977933	-0.059397
O35	O	0.097747	-0.727933	0.190603
O36	O	0.347747	-0.477933	0.440603
O37	O	-0.191199	-1.108779	-0.399821
O38	O	0.058801	-0.858779	-0.149821
O39	O	0.308801	-0.608779	0.100179
O40	O	0.558801	-0.358779	0.350179
O41	O	-0.311305	-1.018260	-0.190085
O42	O	-0.061305	-0.768260	0.059915
O43	O	0.188695	-0.518260	0.309915
O44	O	0.438695	-0.268260	0.559915
O45	O	-0.311265	-0.898982	-0.309378
O46	O	-0.061265	-0.648982	-0.059378
O47	O	0.188735	-0.398982	0.190622
O48	O	0.438735	-0.148982	0.440622
O49	O	-0.402183	-1.018281	-0.519075
O50	O	-0.152183	-0.768281	-0.269075
O51	O	0.097817	-0.518281	-0.019075
O52	O	0.347817	-0.268281	0.230925
O53	O	-0.402207	-0.898947	-0.399756
O54	O	-0.152207	-0.648947	-0.149756
O55	O	0.097793	-0.398947	0.100244
O56	O	0.347793	-0.148947	0.350244
O57	O	-0.311224	-1.108733	-0.519103
O58	O	-0.061224	-0.858733	-0.269103
O59	O	0.188776	-0.608733	-0.019103
O60	O	0.438776	-0.358733	0.230897
O61	O	-0.522302	-1.108554	-0.309360
O62	O	-0.272302	-0.858554	-0.059360
O63	O	-0.022302	-0.608554	0.190640
O64	O	0.227698	-0.358554	0.440640
O65	O	-0.522272	-1.018179	-0.399746
O66	O	-0.272272	-0.768179	-0.149746
O67	O	-0.022272	-0.518179	0.100254
O68	O	0.227728	-0.268179	0.350254
C69	C	-0.356735	-0.872262	-0.354564
C70	C	-0.106735	-0.622262	-0.104564
C71	C	0.143265	-0.372262	0.145436
C72	C	0.393265	-0.122262	0.395436
C73	C	-0.356747	-0.790463	-0.354572
C74	C	-0.106747	-0.540463	-0.104572
C75	C	0.143253	-0.290463	0.145428
C76	C	0.393253	-0.040463	0.395428
C77	C	-0.549158	-1.063370	-0.354564
C78	C	-0.299158	-0.813370	-0.104564
C79	C	-0.049158	-0.563370	0.145436
C80	C	0.200842	-0.313370	0.395436
C81	C	-0.631472	-1.063395	-0.354579
C82	C	-0.381472	-0.813395	-0.104579
C83	C	-0.131472	-0.563395	0.145421
C84	C	0.118528	-0.313395	0.395421
C85	C	-0.356696	-1.063513	-0.546538
C86	C	-0.106696	-0.813513	-0.296538
C87	C	0.143304	-0.563513	-0.046538
C88	C	0.393304	-0.313513	0.203462
C89	C	-0.356675	-1.063532	-0.628337
C90	C	-0.106675	-0.813532	-0.378337
C91	C	0.143325	-0.563532	-0.128337
C92	C	0.393325	-0.313532	0.121663
C93	C	-0.930563	-1.063557	-0.354619
C94	C	-0.680563	-0.813557	-0.104619
C95	C	-0.430563	-0.563557	0.145381
C96	C	-0.180563	-0.313557	0.395381
C97	C	-0.899249	-1.006827	-0.411628
C98	C	-0.649249	-0.756827	-0.161628
C99	C	-0.399249	-0.506827	0.088372
C100	C	-0.149249	-0.256827	0.338372
C101	C	-0.813632	-1.006557	-0.411450
C102	C	-0.563632	-0.756557	-0.161450
C103	C	-0.313632	-0.506557	0.088550
C104	C	-0.063632	-0.256557	0.338550
C105	C	-0.782180	-1.063476	-0.354600
C106	C	-0.532180	-0.813476	-0.104600
C107	C	-0.282180	-0.563476	0.145400
C108	C	-0.032180	-0.313476	0.395400
C109	C	-0.813331	-1.042479	-0.277038
C110	C	-0.563331	-0.792479	-0.027038
C111	C	-0.313331	-0.542479	0.222962
C112	C	-0.063331	-0.292479	0.472962
C113	C	-0.898976	-1.042113	-0.277380
C114	C	-0.648976	-0.792113	-0.027380
C115	C	-0.398976	-0.542113	0.222620
C116	C	-0.148976	-0.292113	0.472620
C117	C	-0.898906	-1.141408	-0.374487
C118	C	-0.648906	-0.891408	-0.124487
C119	C	-0.398906	-0.641408	0.125513
C120	C	-0.148906	-0.391408	0.375513
C121	C	-0.813255	-1.140950	-0.376188
C122	C	-0.563255	-0.890950	-0.126188
C123	C	-0.313255	-0.640950	0.123812
C124	C	-0.063255	-0.390950	0.373812
C125	C	-0.698321	-1.063432	-0.354584
C126	C	-0.448321	-0.813432	-0.104584
C127	C	-0.198321	-0.563432	0.145416
C128	C	0.051679	-0.313432	0.395416
C129	C	-1.014422	-1.063599	-0.354629
C130	C	-0.764422	-0.813599	-0.104629
C131	C	-0.514422	-0.563599	0.145371
C132	C	-0.264422	-0.313599	0.395371
C133	C	-0.163585	-1.063587	-0.354623
C134	C	0.086415	-0.813587	-0.104623
C135	C	0.336415	-0.563587	0.145377
C136	C	0.586415	-0.313587	0.395377
C137	C	-0.081271	-1.063638	-0.354639
C138	C	0.168729	-0.813638	-0.104639
C139	C	0.418729	-0.563638	0.145361
C140	C	0.668729	-0.313638	0.395361
C141	C	-0.356761	-1.255421	-0.354607
C142	C	-0.106761	-1.005421	-0.104607
C143	C	0.143239	-0.755421	0.145393
C144	C	0.393239	-0.505421	0.395393
C145	C	-0.356766	-1.337220	-0.354616
C146	C	-0.106766	-1.087220	-0.104616
C147	C	0.143234	-0.837220	0.145384
C148	C	0.393234	-0.587220	0.395384
C149	C	-0.404175	-0.602270	-0.401573
C150	C	-0.154175	-0.352270	-0.151573
C151	C	0.095825	-0.102270	0.098427
C152	C	0.345825	0.147730	0.348427
C153	C	-0.404177	-0.525412	-0.401583
C154	C	-0.154177	-0.275412	-0.151583
C155	C	0.095823	-0.025412	0.098417
C156	C	0.345823	0.224588	0.348417
C157	C	-0.309333	-0.525418	-0.307613
C158	C	-0.059333	-0.275418	-0.057613
C159	C	0.190667	-0.025418	0.192387
C160	C	0.440667	0.224582	0.442387
C161	C	-0.309328	-0.602276	-0.307608
C162	C	-0.059328	-0.352276	-0.057608
C163	C	0.190672	-0.102276	0.192392
C164	C	0.440672	0.147724	0.442392
C165	C	-0.356753	-0.640700	-0.354587
C166	C	-0.106753	-0.390700	-0.104587
C167	C	0.143247	-0.140700	0.145413
C168	C	0.393247	0.109300	0.395413
C169	C	-0.356761	-0.486984	-0.354601
C170	C	-0.106761	-0.236984	-0.104601
C171	C	0.143239	0.013016	0.145399
C172	C	0.393239	0.263016	0.395399
C173	C	-0.356763	-0.403650	-0.354611
C174	C	-0.106763	-0.153650	-0.104611
C175	C	0.143237	0.096350	0.145389
C176	C	0.393237	0.346350	0.395389
C177	C	-0.356750	-0.724039	-0.354579
C178	C	-0.106750	-0.474039	-0.104579
C179	C	0.143250	-0.224039	0.145421
C180	C	0.393250	0.025961	0.395421
C181	C	-0.309268	-1.110648	-0.816547
C182	C	-0.059268	-0.860648	-0.566547
C183	C	0.190732	-0.610648	-0.316547
C184	C	0.440732	-0.360648	-0.066547
C185	C	-0.309246	-1.110656	-0.893406
C186	C	-0.059246	-0.860656	-0.643406
C187	C	0.190754	-0.610656	-0.393406
C188	C	0.440754	-0.360656	-0.143406
C189	C	-0.403967	-1.016469	-0.893365
C190	C	-0.153967	-0.766469	-0.643365
C191	C	0.096033	-0.516469	-0.393365
C192	C	0.346033	-0.266469	-0.143365
C193	C	-0.403984	-1.016457	-0.816508
C194	C	-0.153984	-0.766457	-0.566508
C195	C	0.096016	-0.516457	-0.316508
C196	C	0.346016	-0.266457	-0.066508
C197	C	-0.356636	-1.063551	-0.778101
C198	C	-0.106636	-0.813551	-0.528101
C199	C	0.143364	-0.563551	-0.278101
C200	C	0.393364	-0.313551	-0.028101
C201	C	-0.356597	-1.063571	-0.931817
C202	C	-0.106597	-0.813571	-0.681817
C203	C	0.143403	-0.563571	-0.431817
C204	C	0.393403	-0.313571	-0.181817
C205	C	-0.356574	-1.063580	-1.015151
C206	C	-0.106574	-0.813580	-0.765151
C207	C	0.143426	-0.563580	-0.515151
C208	C	0.393426	-0.313580	-0.265151
C209	C	-0.356657	-1.063541	-0.694762
C210	C	-0.106657	-0.813541	-0.444762
C211	C	0.143343	-0.563541	-0.194762
C212	C	0.393343	-0.313541	0.055238
C213	C	-0.356745	-1.063466	-0.163379
C214	C	-0.106745	-0.813466	0.086621
C215	C	0.143255	-0.563466	0.336621
C216	C	0.393255	-0.313466	0.586621
C217	C	-0.356558	-1.063590	-0.081580
C218	C	-0.106558	-0.813590	0.168420
C219	C	0.143442	-0.563590	0.418420
C220	C	0.393442	-0.313590	0.668420
H221	H	-0.919798	-1.019834	-0.469325
H222	H	-0.669798	-0.769834	-0.219325
H223	H	-0.419798	-0.519834	0.030675
H224	H	-0.169798	-0.269834	0.280675
C225	C	-0.257151	-1.162470	-0.935697
C226	C	-0.007151	-0.912470	-0.685697
C227	C	0.242849	-0.662470	-0.435697
C228	C	0.492849	-0.412470	-0.185697
H229	H	-0.263917	-1.155731	-0.986972
H230	H	-0.013917	-0.905731	-0.736972
H231	H	0.236083	-0.655731	-0.486972
H232	H	0.486083	-0.405731	-0.236972
H233	H	-0.268001	-1.211906	-0.923106
H234	H	-0.018001	-0.961906	-0.673106
H235	H	0.231999	-0.711906	-0.423106
H236	H	0.481999	-0.461906	-0.173106
H237	H	-0.207391	-1.151729	-0.923111
H238	H	0.042609	-0.901729	-0.673111
H239	H	0.292609	-0.651729	-0.423111
H240	H	0.542609	-0.401729	-0.173111
H241	H	-0.442792	-0.494126	-0.439845
H242	H	-0.192792	-0.244126	-0.189845
H243	H	0.057208	0.005874	0.060155
H244	H	0.307208	0.255874	0.310155
C245	C	-0.456053	-0.964675	-0.935612
C246	C	-0.206053	-0.714675	-0.685612
C247	C	0.043947	-0.464675	-0.435612
C248	C	0.293947	-0.214675	-0.185612
H249	H	-0.484261	-0.936619	-0.901705
H250	H	-0.234261	-0.686619	-0.651705
H251	H	0.015739	-0.436619	-0.401705
H252	H	0.265739	-0.186619	-0.151705
H253	H	-0.488314	-0.992813	-0.965591
H254	H	-0.238314	-0.742813	-0.715591
H255	H	0.011686	-0.492813	-0.465591
H256	H	0.261686	-0.242813	-0.215591
H257	H	-0.427712	-0.932628	-0.965595
H258	H	-0.177712	-0.682628	-0.715595
H259	H	0.072288	-0.432628	-0.465595
H260	H	0.322288	-0.182628	-0.215595
H261	H	-0.920455	-1.160552	-0.430081
H262	H	-0.670455	-0.910552	-0.180081
H263	H	-0.420455	-0.660552	0.069919
H264	H	-0.170455	-0.410552	0.319919
H265	H	-0.270712	-1.148992	-0.785278
H266	H	-0.020712	-0.898992	-0.535278
H267	H	0.229288	-0.648992	-0.285278
H268	H	0.479288	-0.398992	-0.035278
C269	C	-0.784454	-0.966412	-0.253890
C270	C	-0.534454	-0.716412	-0.003890
C271	C	-0.284454	-0.466412	0.246110
C272	C	-0.034454	-0.216412	0.496110
H273	H	-0.803610	-0.954193	-0.206879
H274	H	-0.553610	-0.704193	0.043121
H275	H	-0.303610	-0.454193	0.293121
H276	H	-0.053610	-0.204193	0.543121
H277	H	-0.799910	-0.930715	-0.288657
H278	H	-0.549910	-0.680715	-0.038657
H279	H	-0.299910	-0.430715	0.211343
H280	H	-0.049910	-0.180715	0.461343
H281	H	-0.732022	-0.967404	-0.251843
H282	H	-0.482022	-0.717404	-0.001843
H283	H	-0.232022	-0.467404	0.248157
H284	H	0.017978	-0.217404	0.498157
C285	C	-0.785173	-1.024278	-0.489145
C286	C	-0.535173	-0.774278	-0.239145
C287	C	-0.285173	-0.524278	0.010855
C288	C	-0.035173	-0.274278	0.260855
H289	H	-0.825954	-1.031706	-0.521103
H290	H	-0.575954	-0.781706	-0.271103
H291	H	-0.325954	-0.531706	-0.021103
H292	H	-0.075954	-0.281706	0.228897
H293	H	-0.755868	-1.067529	-0.487650
H294	H	-0.505868	-0.817529	-0.237650
H295	H	-0.255868	-0.567529	0.012350
H296	H	-0.005868	-0.317529	0.262350
H297	H	-0.756149	-0.984513	-0.506626
H298	H	-0.506149	-0.734513	-0.256626
H299	H	-0.256149	-0.484513	-0.006626
H300	H	-0.006149	-0.234513	0.243374
C301	C	-0.928401	-0.929344	-0.394072
C302	C	-0.678401	-0.679344	-0.144072
C303	C	-0.428401	-0.429344	0.105928
C304	C	-0.178401	-0.179344	0.355928
H305	H	-0.959570	-0.931416	-0.352149
H306	H	-0.709570	-0.681416	-0.102149
H307	H	-0.459570	-0.431416	0.147851
H308	H	-0.209570	-0.181416	0.397851
H309	H	-0.955646	-0.911263	-0.434799
H310	H	-0.705646	-0.661263	-0.184799
H311	H	-0.455646	-0.411263	0.065201
H312	H	-0.205646	-0.161263	0.315201
H313	H	-0.887966	-0.897552	-0.384421
H314	H	-0.637966	-0.647552	-0.134421
H315	H	-0.387966	-0.397552	0.115579
H316	H	-0.137966	-0.147552	0.365579
H317	H	-0.270707	-0.633566	-0.269346
H318	H	-0.020707	-0.383566	-0.019346
H319	H	0.229293	-0.133566	0.230654
H320	H	0.479293	0.116434	0.480654
C321	C	-0.926186	-1.198490	-0.318347
C322	C	-0.676186	-0.948490	-0.068347
C323	C	-0.426186	-0.698490	0.181653
C324	C	-0.176186	-0.448490	0.431653
H325	H	-0.956729	-1.175035	-0.282975
H326	H	-0.706729	-0.925035	-0.032975
H327	H	-0.456729	-0.675035	0.217025
H328	H	-0.206729	-0.425035	0.467025
H329	H	-0.884954	-1.220183	-0.294476
H330	H	-0.634954	-0.970183	-0.044476
H331	H	-0.384954	-0.720183	0.205524
H332	H	-0.134954	-0.470183	0.455524
H333	H	-0.953701	-1.235456	-0.342941
H334	H	-0.703701	-0.985456	-0.092941
H335	H	-0.453701	-0.735456	0.157059
H336	H	-0.203701	-0.485456	0.407059
C337	C	-0.257179	-0.483150	-0.255932
C338	C	-0.007179	-0.233150	-0.005932
C339	C	0.242821	0.016850	0.244068
C340	C	0.492821	0.266850	0.494068
H341	H	-0.263979	-0.431872	-0.262658
H342	H	-0.013979	-0.181872	-0.012658
H343	H	0.236021	0.068128	0.237342
H344	H	0.486021	0.318128	0.487342
H345	H	-0.207432	-0.495771	-0.266782
H346	H	0.042568	-0.245771	-0.016782
H347	H	0.292568	0.004229	0.233218
H348	H	0.542568	0.254229	0.483218
H349	H	-0.267962	-0.495723	-0.206465
H350	H	-0.017962	-0.245723	0.043535
H351	H	0.232038	0.004277	0.293535
H352	H	0.482038	0.254277	0.543535
H353	H	-0.792893	-1.156785	-0.433269
H354	H	-0.542893	-0.906785	-0.183269
H355	H	-0.292893	-0.656785	0.066731
H356	H	-0.042893	-0.406785	0.316731
H357	H	-0.442556	-0.978100	-0.785204
H358	H	-0.192556	-0.728100	-0.535204
H359	H	0.057444	-0.478100	-0.285204
H360	H	0.307444	-0.228100	-0.035204
H361	H	-0.793209	-0.948852	-0.398289
H362	H	-0.543209	-0.698852	-0.148289
H363	H	-0.293209	-0.448852	0.101711
H364	H	-0.043209	-0.198852	0.351711
H365	H	-0.919019	-0.985204	-0.260549
H366	H	-0.669019	-0.735204	-0.010549
H367	H	-0.419019	-0.485204	0.239451
H368	H	-0.169019	-0.235204	0.489451
C369	C	-0.926966	-1.095495	-0.218033
C370	C	-0.676966	-0.845495	0.031967
C371	C	-0.426966	-0.595495	0.281967
C372	C	-0.176966	-0.345495	0.531967
H373	H	-0.885992	-1.117304	-0.193818
H374	H	-0.635992	-0.867304	0.056182
H375	H	-0.385992	-0.617304	0.306182
H376	H	-0.135992	-0.367304	0.556182
H377	H	-0.956078	-1.132712	-0.240312
H378	H	-0.706078	-0.882712	0.009688
H379	H	-0.456078	-0.632712	0.259688
H380	H	-0.206078	-0.382712	0.509688
H381	H	-0.956086	-1.069389	-0.183341
H382	H	-0.706086	-0.819389	0.066659
H383	H	-0.456086	-0.569389	0.316659
H384	H	-0.206086	-0.319389	0.566659
H385	H	-0.792959	-1.082498	-0.233404
H386	H	-0.542959	-0.832498	0.016596
H387	H	-0.292959	-0.582498	0.266596
H388	H	-0.042959	-0.332498	0.516596
H389	H	-0.791842	-1.185453	-0.337692
H390	H	-0.541842	-0.935453	-0.087692
H391	H	-0.291842	-0.685453	0.162308
H392	H	-0.041842	-0.435453	0.412308
H393	H	-0.442789	-0.633553	-0.439829
H394	H	-0.192789	-0.383553	-0.189829
H395	H	0.057211	-0.133553	0.060171
H396	H	0.307211	0.116447	0.310171
