data_functionalizedCrystal
_audit_creation_method	'MofGen! by Chris Wilmer'
_symmetry_space_group_name_H-M	'P1'
_symmetry_Int_Tables_number	1
_symmetry_cell_setting	triclinic
loop_
_symmetry_equiv_pos_as_xyz
  x,y,z
_cell_length_a	16.992694
_cell_length_b	14.519709
_cell_length_c	15.455313
_cell_angle_alpha	92.669068
_cell_angle_beta	87.142206
_cell_angle_gamma	87.174184
loop_
_atom_site_label
_atom_site_type_symbol
_atom_site_fract_x
_atom_site_fract_y
_atom_site_fract_z
O1	O	1.044092	0.191795	-0.072025
O2	O	0.815805	0.189648	-0.072051
O3	O	0.936001	0.056918	-0.072029
O4	O	0.923896	0.324525	-0.072046
O5	O	0.929127	0.064474	0.072232
O6	O	0.808932	0.197205	0.072210
O7	O	1.037219	0.199352	0.072236
Cu8	Cu	0.922447	0.198968	0.085395
Cu9	Cu	0.930576	0.190031	-0.085210
O10	O	0.917023	0.332082	0.072215
C11	C	0.783152	0.190666	0.000077
C12	C	0.696097	0.182430	0.000067
C13	C	0.932000	0.026296	0.000101
C14	C	0.930309	-0.076207	0.000102
C15	C	0.645968	0.261890	0.000063
C16	C	0.564170	0.254147	0.000075
C17	C	0.532502	0.166943	0.000086
C18	C	0.582638	0.087478	0.000093
C19	C	0.664434	0.095222	0.000087
C20	C	0.288859	0.134847	0.000111
C21	C	0.207056	0.127109	0.000115
C22	C	0.188594	0.293779	0.000099
C23	C	0.270393	0.301515	0.000087
C24	C	0.320520	0.222050	0.000099
N25	N	0.448892	0.159027	0.000096
N26	N	0.404129	0.229968	0.000095
C27	C	0.924087	-0.451550	0.000078
C28	C	0.925815	-0.347118	0.000085
C29	C	0.927198	-0.263882	0.000091
C30	C	0.928926	-0.159443	0.000096
C31	C	1.069872	0.198333	0.000107
C32	C	1.156927	0.206569	0.000111
C33	C	0.921024	0.362704	0.000082
C34	C	0.922715	0.465206	0.000076
N35	N	0.916736	0.205254	0.205390
N36	N	0.936294	0.183739	-0.205204
C37	C	0.967817	0.148889	0.250793
C38	C	0.963505	0.153651	0.341600
C39	C	0.908115	0.214784	0.387002
C40	C	0.857028	0.271151	0.341593
C41	C	0.861337	0.266383	0.250787
C42	C	0.889516	0.235339	0.658581
C43	C	0.885212	0.240104	0.749392
C44	C	0.991689	0.122602	0.749393
C45	C	0.995996	0.117844	0.658586
C46	C	0.944907	0.174208	0.613185
N47	N	0.903708	0.219655	0.479822
N48	N	0.949311	0.169331	0.520367
H49	H	0.671744	0.332900	0.000054
O50	O	0.301185	0.386203	-0.000096
C51	C	0.386372	0.487727	-0.074879
C52	C	0.351551	0.391789	-0.074769
H53	H	0.427113	0.492268	-0.135236
H54	H	0.336515	0.543213	-0.074946
H55	H	0.421312	0.498704	-0.014493
H56	H	0.316620	0.380723	-0.135145
H57	H	0.401444	0.336354	-0.074657
O58	O	0.515404	0.331263	-0.000053
C59	C	0.415929	0.415358	-0.074830
C60	C	0.471101	0.327965	-0.074781
H61	H	0.380108	0.412729	-0.135250
H62	H	0.374252	0.419083	-0.014496
H63	H	0.452632	0.478999	-0.074805
H64	H	0.434462	0.264276	-0.074837
H65	H	0.512781	0.324322	-0.135110
O66	O	1.013216	0.098873	0.385570
C67	C	1.119269	-0.018190	0.375988
C68	C	1.063025	0.043807	0.326085
H69	H	1.159542	-0.062740	0.327917
H70	H	1.156528	0.026744	0.418461
H71	H	1.083331	-0.064519	0.418541
H72	H	1.098902	0.090147	0.283485
H73	H	1.025765	-0.001181	0.283667
H74	H	1.041099	0.068065	0.621621
O75	O	0.713022	0.017939	0.000048
C76	C	0.722704	-0.148189	0.000112
C77	C	0.667591	-0.060741	0.000132
H78	H	0.685995	-0.211822	0.000198
H79	H	0.764315	-0.151959	-0.060278
H80	H	0.758609	-0.145515	0.060468
H81	H	0.631635	-0.063355	-0.060184
H82	H	0.626032	-0.057003	0.060561
O83	O	0.831326	0.299504	0.793363
C84	C	0.726183	0.415564	0.783785
C85	C	0.787158	0.348328	0.733881
H86	H	0.690468	0.455070	0.735715
H87	H	0.684896	0.375090	0.826286
H88	H	0.758090	0.466357	0.826311
H89	H	0.755317	0.297520	0.691308
H90	H	0.828442	0.388862	0.691435
O91	O	0.337628	0.057716	-0.000004
C92	C	0.444203	-0.034227	-0.074774
C93	C	0.389031	0.053173	-0.074738
H94	H	0.485765	-0.037938	-0.135199
H95	H	0.480149	-0.031627	-0.014445
H96	H	0.407494	-0.097862	-0.074729
H97	H	0.425680	0.116853	-0.074814
H98	H	0.353082	0.050492	-0.135062
O99	O	1.041276	0.067712	0.793404
C100	C	1.085637	-0.087794	0.821248
C101	C	1.029454	-0.025730	0.771336
H102	H	1.076087	-0.163354	0.803438
H103	H	1.149327	-0.072126	0.803370
H104	H	1.073053	-0.073840	0.893942
H105	H	1.041967	-0.039648	0.698630
H106	H	0.965782	-0.041410	0.789286
H107	H	0.847918	0.281234	0.621622
O108	O	0.803291	0.330514	0.385828
C109	C	0.749435	0.389900	0.525715
C110	C	0.810341	0.322643	0.475730
H111	H	0.755103	0.383546	0.598410
H112	H	0.760598	0.463620	0.507910
H113	H	0.687470	0.372279	0.507822
H114	H	0.872329	0.340179	0.493597
H115	H	0.799109	0.248942	0.493540
O116	O	0.139939	0.370986	-0.000059
C117	C	0.102711	0.507184	-0.074775
C118	C	0.157851	0.419765	-0.074718
H119	H	0.117185	0.546656	-0.135121
H120	H	0.038797	0.486724	-0.074824
H121	H	0.111368	0.552924	-0.014378
H122	H	0.149264	0.373985	-0.135105
H123	H	0.221745	0.440290	-0.074624
O124	O	0.176422	0.042326	0.000163
C125	C	0.203364	-0.122175	0.000123
C126	C	0.238161	-0.026221	0.000095
H127	H	0.253263	-0.177622	0.000050
H128	H	0.162685	-0.126861	0.060509
H129	H	0.168375	-0.133077	-0.060236
H130	H	0.273187	-0.015255	0.060414
H131	H	0.278796	-0.021581	-0.060331
O132	O	0.551847	0.002781	-0.000050
C133	C	0.473726	-0.106582	-0.074750
C134	C	0.508562	-0.010648	-0.074703
H135	H	0.438708	-0.117462	-0.135091
H136	H	0.523578	-0.162088	-0.074802
H137	H	0.433055	-0.111193	-0.014347
H138	H	0.549223	-0.005947	-0.135094
H139	H	0.458670	0.044813	-0.074605
O140	O	0.811683	0.321233	0.206814
C141	C	0.705588	0.438242	0.216391
C142	C	0.761790	0.376195	0.266297
H143	H	0.665224	0.482681	0.264461
H144	H	0.741480	0.484667	0.173888
H145	H	0.668415	0.393257	0.173868
H146	H	0.798975	0.421109	0.308866
H147	H	0.725852	0.329765	0.308745
H148	H	1.012925	0.099112	0.213832
