data_functionalizedCrystal
_audit_creation_method	'MofGen! by Chris Wilmer'
_symmetry_space_group_name_H-M	'P1'
_symmetry_Int_Tables_number	1
_symmetry_cell_setting	triclinic
loop_
_symmetry_equiv_pos_as_xyz
  x,y,z
_cell_length_a	19.120904
_cell_length_b	19.121102
_cell_length_c	19.121063
_cell_angle_alpha	90.126902
_cell_angle_beta	85.258387
_cell_angle_gamma	89.911827
loop_
_atom_site_label
_atom_site_type_symbol
_atom_site_fract_x
_atom_site_fract_y
_atom_site_fract_z
Zn1	Zn	-0.456040	-1.039579	0.343506
Zn2	Zn	-0.206040	-0.789579	0.593506
Zn3	Zn	0.043960	-0.539579	0.843506
Zn4	Zn	0.293960	-0.289579	1.093506
Zn5	Zn	-0.343386	-1.039493	0.456149
Zn6	Zn	-0.093386	-0.789493	0.706149
Zn7	Zn	0.156614	-0.539493	0.956149
Zn8	Zn	0.406614	-0.289493	1.206149
Zn9	Zn	-0.333417	-0.927792	0.333518
Zn10	Zn	-0.083417	-0.677792	0.583518
Zn11	Zn	0.166583	-0.427792	0.833518
Zn12	Zn	0.416583	-0.177792	1.083518
Zn13	Zn	-0.455570	-0.917325	0.455677
Zn14	Zn	-0.205570	-0.667325	0.705677
Zn15	Zn	0.044430	-0.417325	0.955677
Zn16	Zn	0.294430	-0.167325	1.205677
O17	O	-0.397103	-0.981047	0.397212
O18	O	-0.147103	-0.731047	0.647212
O19	O	0.102897	-0.481047	0.897212
O20	O	0.352897	-0.231047	1.147212
O21	O	-0.445465	-1.137479	0.362826
O22	O	-0.195465	-0.887479	0.612826
O23	O	0.054535	-0.637479	0.862826
O24	O	0.304535	-0.387479	1.112826
O25	O	-0.243797	-1.029020	0.435899
O26	O	0.006203	-0.779020	0.685899
O27	O	0.256203	-0.529020	0.935899
O28	O	0.506203	-0.279020	1.185899
O29	O	-0.345708	-0.947038	0.236577
O30	O	-0.095708	-0.697038	0.486577
O31	O	0.154292	-0.447038	0.736577
O32	O	0.404292	-0.197038	0.986577
O33	O	-0.362699	-1.137415	0.445584
O34	O	-0.112699	-0.887415	0.695584
O35	O	0.137301	-0.637415	0.945584
O36	O	0.387301	-0.387415	1.195584
O37	O	-0.435798	-1.029167	0.243915
O38	O	-0.185798	-0.779167	0.493915
O39	O	0.064202	-0.529167	0.743915
O40	O	0.314202	-0.279167	0.993915
O41	O	-0.236473	-0.946954	0.345802
O42	O	0.013527	-0.696954	0.595802
O43	O	0.263527	-0.446954	0.845802
O44	O	0.513527	-0.196954	1.095802
O45	O	-0.345252	-0.828493	0.345345
O46	O	-0.095252	-0.578493	0.595345
O47	O	0.154748	-0.328493	0.845345
O48	O	0.404748	-0.078493	1.095345
O49	O	-0.553899	-0.929198	0.444780
O50	O	-0.303899	-0.679198	0.694780
O51	O	-0.053899	-0.429198	0.944780
O52	O	0.196101	-0.179198	1.194780
O53	O	-0.434997	-0.820803	0.435094
O54	O	-0.184997	-0.570803	0.685094
O55	O	0.065003	-0.320803	0.935094
O56	O	0.315003	-0.070803	1.185094
O57	O	-0.554244	-1.019018	0.362368
O58	O	-0.304244	-0.769018	0.612368
O59	O	-0.054244	-0.519018	0.862368
O60	O	0.195756	-0.269018	1.112368
O61	O	-0.362243	-1.018870	0.554352
O62	O	-0.112243	-0.768870	0.804352
O63	O	0.137757	-0.518870	1.054352
O64	O	0.387757	-0.268870	1.304352
O65	O	-0.444664	-0.929114	0.554005
O66	O	-0.194664	-0.679114	0.804005
O67	O	0.055336	-0.429114	1.054005
O68	O	0.305336	-0.179114	1.304005
C69	C	-0.388992	-0.799261	0.389085
C70	C	-0.138992	-0.549261	0.639085
C71	C	0.111008	-0.299261	0.889085
C72	C	0.361008	-0.049261	1.139085
C73	C	-0.385539	-0.721490	0.385626
C74	C	-0.135539	-0.471490	0.635626
C75	C	0.114461	-0.221490	0.885626
C76	C	0.364461	0.028510	1.135626
C77	C	-0.404501	-0.972865	0.579659
C78	C	-0.154501	-0.722865	0.829659
C79	C	0.095499	-0.472865	1.079659
C80	C	0.345499	-0.222865	1.329659
C81	C	-0.407691	-0.969428	0.657714
C82	C	-0.157691	-0.719428	0.907714
C83	C	0.092309	-0.469428	1.157714
C84	C	0.342309	-0.219428	1.407714
C85	C	-0.580263	-0.972950	0.404635
C86	C	-0.330263	-0.722950	0.654635
C87	C	-0.080263	-0.472950	0.904635
C88	C	0.169737	-0.222950	1.154635
C89	C	-0.658315	-0.969500	0.407799
C90	C	-0.408315	-0.719500	0.657799
C91	C	-0.158315	-0.469500	0.907799
C92	C	0.091685	-0.219500	1.157799
C93	C	-0.695165	-1.014640	0.366379
C94	C	-0.445165	-0.764640	0.616379
C95	C	-0.195165	-0.514640	0.866379
C96	C	0.054835	-0.264640	1.116379
C97	C	-0.768503	-1.011390	0.369348
C98	C	-0.518503	-0.761390	0.619348
C99	C	-0.268503	-0.511390	0.869348
C100	C	-0.018503	-0.261390	1.119348
C101	C	-0.804990	-0.963001	0.413741
C102	C	-0.554990	-0.713001	0.663741
C103	C	-0.304990	-0.463001	0.913741
C104	C	-0.054990	-0.213001	1.163741
C105	C	-0.768135	-0.917856	0.455162
C106	C	-0.518135	-0.667856	0.705162
C107	C	-0.268135	-0.417856	0.955162
C108	C	-0.018135	-0.167856	1.205162
C109	C	-0.694798	-0.921103	0.452188
C110	C	-0.444798	-0.671103	0.702188
C111	C	-0.194798	-0.421103	0.952188
C112	C	0.055202	-0.171103	1.202188
C113	C	-1.026410	-0.950853	0.424862
C114	C	-0.776410	-0.700853	0.674862
C115	C	-0.526410	-0.450853	0.924862
C116	C	-0.276410	-0.200853	1.174862
C117	C	-1.099752	-0.947610	0.427833
C118	C	-0.849752	-0.697610	0.677833
C119	C	-0.599752	-0.447610	0.927833
C120	C	-0.349752	-0.197610	1.177833
C121	C	-1.100115	-1.041143	0.342019
C122	C	-0.850115	-0.791143	0.592019
C123	C	-0.600115	-0.541143	0.842019
C124	C	-0.350115	-0.291143	1.092019
C125	C	-1.026777	-1.044390	0.339052
C126	C	-0.776777	-0.794390	0.589052
C127	C	-0.526777	-0.544390	0.839052
C128	C	-0.276777	-0.294390	1.089052
C129	C	-0.989928	-0.999242	0.380470
C130	C	-0.739928	-0.749242	0.630470
C131	C	-0.489928	-0.499242	0.880470
C132	C	-0.239928	-0.249242	1.130470
C133	C	-0.879953	-0.959679	0.416779
C134	C	-0.629953	-0.709679	0.666779
C135	C	-0.379953	-0.459679	0.916779
C136	C	-0.129953	-0.209679	1.166779
C137	C	-0.914966	-1.002561	0.377429
C138	C	-0.664966	-0.752561	0.627429
C139	C	-0.414966	-0.502561	0.877429
C140	C	-0.164966	-0.252561	1.127429
C141	C	-0.214655	-0.989156	0.389769
C142	C	0.035345	-0.739156	0.639769
C143	C	0.285345	-0.489156	0.889769
C144	C	0.535345	-0.239156	1.139769
C145	C	-0.136602	-0.992751	0.386414
C146	C	0.113398	-0.742751	0.636414
C147	C	0.363398	-0.492751	0.886414
C148	C	0.613398	-0.242751	1.136414
C149	C	-0.405246	-1.163544	0.405372
C150	C	-0.155246	-0.913544	0.655372
C151	C	0.094754	-0.663544	0.905372
C152	C	0.344754	-0.413544	1.155372
C153	C	-0.408717	-1.241313	0.408849
C154	C	-0.158717	-0.991313	0.658849
C155	C	0.091283	-0.741313	0.908849
C156	C	0.341283	-0.491313	1.158849
C157	C	-0.430575	-0.680968	0.430793
C158	C	-0.180575	-0.430968	0.680793
C159	C	0.069425	-0.180968	0.930793
C160	C	0.319425	0.069032	1.180793
C161	C	-0.427334	-0.607894	0.427534
C162	C	-0.177334	-0.357894	0.677534
C163	C	0.072666	-0.107894	0.927534
C164	C	0.322666	0.142106	1.177534
C165	C	-0.379053	-0.575344	0.379110
C166	C	-0.129053	-0.325344	0.629110
C167	C	0.120947	-0.075344	0.879110
C168	C	0.370947	0.174656	1.129110
C169	C	-0.334016	-0.615872	0.333937
C170	C	-0.084016	-0.365872	0.583937
C171	C	0.165984	-0.115872	0.833937
C172	C	0.415984	0.134128	1.083937
C173	C	-0.337261	-0.688944	0.337194
C174	C	-0.087261	-0.438944	0.587194
C175	C	0.162739	-0.188944	0.837194
C176	C	0.412739	0.061056	1.087194
C177	C	-0.366924	-0.354913	0.366933
C178	C	-0.116924	-0.104913	0.616933
C179	C	0.133076	0.145087	0.866933
C180	C	0.383076	0.395087	1.116933
C181	C	-0.363681	-0.281835	0.363681
C182	C	-0.113681	-0.031835	0.613681
C183	C	0.136319	0.218165	0.863681
C184	C	0.386319	0.468165	1.113681
C185	C	-0.457000	-0.273863	0.457277
C186	C	-0.207000	-0.023863	0.707277
C187	C	0.043000	0.226137	0.957277
C188	C	0.293000	0.476137	1.207277
C189	C	-0.460238	-0.346937	0.460532
C190	C	-0.210238	-0.096937	0.710532
C191	C	0.039762	0.153063	0.960532
C192	C	0.289762	0.403063	1.210532
C193	C	-0.415203	-0.387458	0.415357
C194	C	-0.165203	-0.137458	0.665357
C195	C	0.084797	0.112542	0.915357
C196	C	0.334797	0.362542	1.165357
C197	C	-0.375738	-0.500651	0.375778
C198	C	-0.125738	-0.250651	0.625778
C199	C	0.124262	-0.000651	0.875778
C200	C	0.374262	0.249349	1.125778
C201	C	-0.418523	-0.462149	0.418686
C202	C	-0.168523	-0.212149	0.668686
C203	C	0.081477	0.037851	0.918686
C204	C	0.331477	0.287851	1.168686
C205	C	-0.389693	-0.989280	0.214054
C206	C	-0.139693	-0.739280	0.464054
C207	C	0.110307	-0.489280	0.714054
C208	C	0.360307	-0.239280	0.964054
C209	C	-0.386535	-0.992788	0.136003
C210	C	-0.136535	-0.742788	0.386003
C211	C	0.113465	-0.492788	0.636003
C212	C	0.363465	-0.242788	0.886003
C213	C	-0.366317	-1.014577	0.694545
C214	C	-0.116317	-0.764577	0.944545
C215	C	0.133683	-0.514577	1.194545
C216	C	0.383683	-0.264577	1.444545
C217	C	-0.369323	-1.011348	0.767887
C218	C	-0.119323	-0.761348	1.017887
C219	C	0.130677	-0.511348	1.267887
C220	C	0.380677	-0.261348	1.517887
C221	C	-0.413699	-0.962966	0.804396
C222	C	-0.163699	-0.712966	1.054396
C223	C	0.086301	-0.462966	1.304396
C224	C	0.336301	-0.212966	1.554396
C225	C	-0.455078	-0.917815	0.767560
C226	C	-0.205078	-0.667815	1.017560
C227	C	0.044922	-0.417815	1.267560
C228	C	0.294922	-0.167815	1.517560
C229	C	-0.452076	-0.921048	0.694220
C230	C	-0.202076	-0.671048	0.944220
C231	C	0.047924	-0.421048	1.194220
C232	C	0.297924	-0.171048	1.444220
C233	C	-0.424912	-0.950869	1.025828
C234	C	-0.174912	-0.700869	1.275828
C235	C	0.075088	-0.450869	1.525828
C236	C	0.325088	-0.200869	1.775828
C237	C	-0.427909	-0.947638	1.099173
C238	C	-0.177909	-0.697638	1.349173
C239	C	0.072091	-0.447638	1.599173
C240	C	0.322091	-0.197638	1.849173
C241	C	-0.342155	-1.041173	1.099494
C242	C	-0.092155	-0.791173	1.349494
C243	C	0.157845	-0.541173	1.599494
C244	C	0.407845	-0.291173	1.849494
C245	C	-0.339154	-1.044399	1.026153
C246	C	-0.089154	-0.794399	1.276153
C247	C	0.160846	-0.544399	1.526153
C248	C	0.410846	-0.294399	1.776153
C249	C	-0.380535	-0.999250	0.989323
C250	C	-0.130535	-0.749250	1.239323
C251	C	0.119465	-0.499250	1.489323
C252	C	0.369465	-0.249250	1.739323
C253	C	-0.416770	-0.959663	0.879363
C254	C	-0.166770	-0.709663	1.129363
C255	C	0.083230	-0.459663	1.379363
C256	C	0.333230	-0.209663	1.629363
C257	C	-0.377467	-1.002557	0.914358
C258	C	-0.127467	-0.752557	1.164358
C259	C	0.122533	-0.502557	1.414358
C260	C	0.372533	-0.252557	1.664358
H261	H	-0.665463	-1.054046	0.330232
H262	H	-0.415463	-0.804046	0.580232
H263	H	-0.165463	-0.554046	0.830232
H264	H	0.084537	-0.304046	1.080232
H265	H	-1.130125	-1.077899	0.308298
H266	H	-0.880125	-0.827899	0.558298
H267	H	-0.630125	-0.577899	0.808298
H268	H	-0.380125	-0.327899	1.058298
F269	F	-1.138582	-0.896103	0.475081
F270	F	-0.888582	-0.646103	0.725081
F271	F	-0.638582	-0.396103	0.975081
F272	F	-0.388582	-0.146103	1.225081
F273	F	-0.319081	-1.066069	0.655696
F274	F	-0.069081	-0.816069	0.905696
F275	F	0.180919	-0.566069	1.155696
F276	F	0.430919	-0.316069	1.405696
F277	F	-0.298121	-1.089223	1.138696
F278	F	-0.048121	-0.839223	1.388696
F279	F	0.201879	-0.589223	1.638696
F280	F	0.451879	-0.339223	1.888696
H281	H	-0.664795	-0.884338	0.485909
H282	H	-0.414795	-0.634338	0.735909
H283	H	-0.164795	-0.384338	0.985909
H284	H	0.085205	-0.134338	1.235909
H285	H	-0.499552	-0.373433	0.499966
H286	H	-0.249552	-0.123433	0.749966
H287	H	0.000448	0.126567	0.999966
H288	H	0.250448	0.376567	1.249966
F289	F	-0.876132	-1.054052	0.330178
F290	F	-0.626132	-0.804052	0.580178
F291	F	-0.376132	-0.554052	0.830178
F292	F	-0.126132	-0.304052	1.080178
F293	F	-0.289329	-0.732070	0.289119
F294	F	-0.039329	-0.482070	0.539119
F295	F	0.210671	-0.232070	0.789119
F296	F	0.460671	0.017930	1.039119
H297	H	-0.464059	-0.908248	1.128897
H298	H	-0.214059	-0.658248	1.378897
H299	H	0.035941	-0.408248	1.628897
H300	H	0.285941	-0.158248	1.878897
H301	H	-0.909669	-0.920284	0.452927
H302	H	-0.659669	-0.670284	0.702927
H303	H	-0.409669	-0.420284	0.952927
H304	H	-0.159669	-0.170284	1.202927
H305	H	-0.457836	-0.488655	0.458110
H306	H	-0.207836	-0.238655	0.708110
H307	H	0.042164	0.011345	0.958110
H308	H	0.292164	0.261345	1.208110
H309	H	-0.458605	-0.914106	0.995847
H310	H	-0.208605	-0.664106	1.245847
H311	H	0.041395	-0.414106	1.495847
H312	H	0.291395	-0.164106	1.745847
F313	F	-0.312288	-0.247195	0.312143
F314	F	-0.062288	0.002805	0.562143
F315	F	0.187712	0.252805	0.812143
F316	F	0.437712	0.502805	1.062143
F317	F	-0.481959	-0.715603	0.482337
F318	F	-0.231959	-0.465603	0.732337
F319	F	0.018041	-0.215603	0.982337
F320	F	0.268041	0.034397	1.232337
F321	F	-0.475267	-0.564770	0.475608
F322	F	-0.225267	-0.314770	0.725608
F323	F	0.024733	-0.064770	0.975608
F324	F	0.274733	0.185230	1.225608
H325	H	-0.335631	-1.048113	0.797871
H326	H	-0.085631	-0.798113	1.047871
H327	H	0.164369	-0.548113	1.297871
H328	H	0.414369	-0.298113	1.547871
H329	H	-0.997075	-1.083794	0.302905
H330	H	-0.747075	-0.833794	0.552905
H331	H	-0.497075	-0.583794	0.802905
H332	H	-0.247075	-0.333794	1.052905
F333	F	-0.291931	-1.095901	0.987303
F334	F	-0.041931	-0.845901	1.237303
F335	F	0.208069	-0.595901	1.487303
F336	F	0.458069	-0.345901	1.737303
H337	H	-0.452900	-0.920269	0.909097
H338	H	-0.202900	-0.670269	1.159097
H339	H	0.047100	-0.420269	1.409097
H340	H	0.297100	-0.170269	1.659097
F341	F	-0.502311	-0.866327	0.806418
F342	F	-0.252311	-0.616327	1.056418
F343	F	-0.002311	-0.366327	1.306418
F344	F	0.247689	-0.116327	1.556418
F345	F	-0.807720	-1.059458	0.325289
F346	F	-0.557720	-0.809458	0.575289
F347	F	-0.307720	-0.559458	0.825289
F348	F	-0.057720	-0.309458	1.075289
F349	F	-0.504925	-0.230732	0.505353
F350	F	-0.254925	0.019268	0.755353
F351	F	-0.004925	0.269268	1.005353
F352	F	0.245075	0.519268	1.255353
H353	H	-0.996417	-0.914100	0.458598
H354	H	-0.746417	-0.664100	0.708598
H355	H	-0.496417	-0.414100	0.958598
H356	H	-0.246417	-0.164100	1.208598
H357	H	-0.797848	-0.878454	0.491305
H358	H	-0.547848	-0.628454	0.741305
H359	H	-0.297848	-0.378454	0.991305
H360	H	-0.047848	-0.128454	1.241305
H361	H	-0.330248	-0.387897	0.330153
H362	H	-0.080248	-0.137897	0.580153
H363	H	0.169752	0.112103	0.830153
H364	H	0.419752	0.362103	1.080153
H365	H	-0.336426	-0.474141	0.336353
H366	H	-0.086426	-0.224141	0.586353
H367	H	0.163574	0.025859	0.836353
H368	H	0.413574	0.275859	1.086353
F369	F	-0.282636	-0.581228	0.282396
F370	F	-0.032636	-0.331228	0.532396
F371	F	0.217364	-0.081228	0.782396
F372	F	0.467364	0.168772	1.032396
F373	F	-0.496114	-0.872995	0.655022
F374	F	-0.246114	-0.622995	0.905022
F375	F	0.003886	-0.372995	1.155022
F376	F	0.253886	-0.122995	1.405022
F377	F	-0.330243	-1.054050	0.875502
F378	F	-0.080243	-0.804050	1.125502
F379	F	0.169757	-0.554050	1.375502
F380	F	0.419757	-0.304050	1.625502
