data_functionalizedCrystal
_audit_creation_method	'MofGen! by Chris Wilmer'
_symmetry_space_group_name_H-M	'P1'
_symmetry_Int_Tables_number	1
_symmetry_cell_setting	triclinic
loop_
_symmetry_equiv_pos_as_xyz
  x,y,z
_cell_length_a	14.908571
_cell_length_b	19.120786
_cell_length_c	14.908308
_cell_angle_alpha	89.316475
_cell_angle_beta	89.824947
_cell_angle_gamma	89.019960
loop_
_atom_site_label
_atom_site_type_symbol
_atom_site_fract_x
_atom_site_fract_y
_atom_site_fract_z
Zn1	Zn	1.326486	-0.364755	0.566477
Zn2	Zn	1.826486	0.135245	1.066477
Zn3	Zn	1.329365	-0.475309	0.409721
Zn4	Zn	1.829365	0.024691	0.909721
Zn5	Zn	1.185494	-0.351330	0.408252
Zn6	Zn	1.685494	0.148670	0.908252
Zn7	Zn	1.170436	-0.474479	0.551420
Zn8	Zn	1.670436	0.025521	1.051420
O9	O	1.252945	-0.416468	0.483967
O10	O	1.752945	0.083532	0.983967
O11	O	1.452386	-0.385386	0.552599
O12	O	1.952386	0.114614	1.052599
O13	O	1.317787	-0.453592	0.284006
O14	O	1.817787	0.046408	0.784006
O15	O	1.209293	-0.255305	0.434927
O16	O	1.709293	0.244695	0.934927
O17	O	1.454502	-0.466610	0.437431
O18	O	1.954502	0.033390	0.937431
O19	O	1.312880	-0.265169	0.551175
O20	O	1.812880	0.234831	1.051175
O21	O	1.212085	-0.362505	0.282927
O22	O	1.712085	0.137495	0.782927
O23	O	1.057978	-0.361700	0.420327
O24	O	1.557978	0.138300	0.920327
O25	O	1.183630	-0.465195	0.678937
O26	O	1.683630	0.034805	1.178937
O27	O	1.046915	-0.452177	0.525513
O28	O	1.546915	0.047823	1.025513
O29	O	1.298279	-0.384581	0.689999
O30	O	1.798279	0.115419	1.189999
O31	O	1.303186	-0.573005	0.422831
O32	O	1.803186	-0.073005	0.922831
O33	O	1.186422	-0.572395	0.526937
O34	O	1.686422	-0.072395	1.026937
C35	C	1.019901	-0.405392	0.471127
C36	C	1.519901	0.094608	0.971127
C37	C	0.920201	-0.400672	0.465654
C38	C	1.420201	0.099328	0.965654
C39	C	0.721386	-0.486147	0.564738
C40	C	1.221386	0.013853	1.064738
C41	C	0.627709	-0.481714	0.559598
C42	C	1.127709	0.018286	1.059598
C43	C	0.639169	-0.387369	0.450242
C44	C	1.139169	0.112631	0.950242
C45	C	0.732846	-0.391802	0.455381
C46	C	1.232846	0.108198	0.955381
C47	C	0.773951	-0.441194	0.512630
C48	C	1.273951	0.058806	1.012630
C49	C	0.867630	-0.445630	0.517764
C50	C	1.367630	0.054370	1.017764
C51	C	0.879087	-0.351282	0.408413
C52	C	1.379087	0.148718	0.908413
C53	C	0.785410	-0.346849	0.403274
C54	C	1.285410	0.153151	0.903274
C55	C	1.243506	-0.598062	0.473430
C56	C	1.743506	-0.098062	0.973430
C57	C	1.239548	-0.675754	0.468957
C58	C	1.739548	-0.175754	0.968957
C59	C	1.291575	-0.717328	0.527424
C60	C	1.791575	-0.217328	1.027424
C61	C	1.287852	-0.790327	0.523222
C62	C	1.787852	-0.290327	1.023222
C63	C	1.232106	-0.821751	0.460549
C64	C	1.732106	-0.321751	0.960549
C65	C	1.180074	-0.780171	0.402079
C66	C	1.680074	-0.280171	0.902079
C67	C	1.183792	-0.707173	0.406286
C68	C	1.683792	-0.207173	0.906286
C69	C	1.218179	-1.041904	0.444821
C70	C	1.718179	-0.541904	0.944821
C71	C	1.214466	-1.114908	0.440617
C72	C	1.714466	-0.614908	0.940617
C73	C	1.322244	-1.125059	0.561761
C74	C	1.822244	-0.625059	1.061761
C75	C	1.325961	-1.052059	0.565958
C76	C	1.825961	-0.552059	1.065958
C77	C	1.273925	-1.010486	0.507492
C78	C	1.773925	-0.510486	1.007492
C79	C	1.228302	-0.896368	0.456250
C80	C	1.728302	-0.396368	0.956250
C81	C	1.277725	-0.935870	0.511796
C82	C	1.777725	-0.435870	1.011796
C83	C	1.486900	-0.427588	0.496858
C84	C	1.986900	0.072412	0.996858
C85	C	1.586597	-0.432327	0.502352
C86	C	2.086597	0.067673	1.002352
C87	C	1.238954	-0.426293	0.717924
C88	C	1.738954	0.073707	1.217924
C89	C	1.232991	-0.430480	0.817623
C90	C	1.732991	0.069520	1.317623
C91	C	1.262445	-0.234168	0.494567
C92	C	1.762445	0.265832	0.994567
C93	C	1.266493	-0.156482	0.499083
C94	C	1.766493	0.343518	0.999083
C95	C	1.266937	-0.406634	0.250926
C96	C	1.766937	0.093366	0.750926
C97	C	1.273083	-0.402259	0.151249
C98	C	1.773083	0.097741	0.651249
C99	C	1.341170	-0.354387	1.016488
C100	C	1.841170	0.145613	1.516488
C101	C	1.335570	-0.358318	1.110164
C102	C	1.835570	0.141682	1.610164
C103	C	1.216189	-0.442270	1.098652
C104	C	1.716189	0.057730	1.598652
C105	C	1.221789	-0.438338	1.004976
C106	C	1.721789	0.061662	1.504976
C107	C	1.284282	-0.394396	0.963898
C108	C	1.784282	0.105604	1.463898
C109	C	1.289885	-0.390469	0.870220
C110	C	1.789885	0.109531	1.370220
C111	C	1.170500	-0.474416	0.858710
C112	C	1.670500	0.025584	1.358710
C113	C	1.164901	-0.478347	0.952386
C114	C	1.664901	0.021653	1.452386
H115	H	1.336973	-0.691748	0.578455
H116	H	1.836973	-0.191748	1.078455
H117	H	1.165310	-0.478045	1.132115
H118	H	1.665310	0.021955	1.632115
C119	C	1.108878	-0.517901	0.801505
C120	C	1.608878	-0.017901	1.301505
C121	C	1.160548	-0.562844	0.747907
C122	C	1.660548	-0.062844	1.247907
C123	C	1.103816	-0.602907	0.695192
C124	C	1.603816	-0.102907	1.195192
H125	H	1.070843	-0.544693	0.839285
H126	H	1.570843	-0.044693	1.339285
H127	H	1.073386	-0.487795	0.764309
H128	H	1.573386	0.012205	1.264309
H129	H	1.196024	-0.592946	0.785100
H130	H	1.696024	-0.092946	1.285100
H131	H	1.198580	-0.536071	0.710109
H132	H	1.698580	-0.036071	1.210109
H133	H	1.068325	-0.572802	0.657996
H134	H	1.568325	-0.072802	1.157996
H135	H	1.065784	-0.629694	0.732979
H136	H	1.565784	-0.129694	1.232979
H137	H	1.138866	-0.633401	0.658814
H138	H	1.638866	-0.133401	1.158814
H139	H	1.371354	-1.026476	0.616992
H140	H	1.871354	-0.526476	1.116992
C141	C	1.397373	-0.315001	1.167376
C142	C	1.897373	0.184999	1.667376
C143	C	1.449575	-0.359559	1.222040
C144	C	1.949575	0.140441	1.722040
C145	C	1.506509	-0.319676	1.274765
C146	C	2.006509	0.180324	1.774765
H147	H	1.435471	-0.288260	1.129601
H148	H	1.935471	0.211740	1.629601
H149	H	1.362480	-0.284467	1.203850
H150	H	1.862480	0.215533	1.703850
H151	H	1.484466	-0.390080	1.185570
H152	H	1.984466	0.109920	1.685570
H153	H	1.411501	-0.386300	1.259833
H154	H	1.911501	0.113700	1.759833
H155	H	1.471616	-0.289143	1.311239
H156	H	1.971616	0.210857	1.811239
H157	H	1.544601	-0.292937	1.236983
H158	H	2.044601	0.207063	1.736983
H159	H	1.541929	-0.349902	1.311866
H160	H	2.041929	0.150098	1.811866
C161	C	1.357622	-0.342639	0.825667
C162	C	1.857622	0.157361	1.325667
C163	C	1.340304	-0.273515	0.851380
C164	C	1.840304	0.226485	1.351380
C165	C	1.402677	-0.229430	0.810351
C166	C	1.902677	0.270570	1.310351
H167	H	1.416478	-0.356278	0.843715
H168	H	1.916478	0.143722	1.343715
H169	H	1.352809	-0.345978	0.762338
H170	H	1.852809	0.154022	1.262338
H171	H	1.345126	-0.270179	0.914696
H172	H	1.845126	0.229821	1.414696
H173	H	1.281460	-0.259855	0.833333
H174	H	1.781460	0.240145	1.333333
H175	H	1.397864	-0.232769	0.747022
H176	H	1.897864	0.267231	1.247022
H177	H	1.461529	-0.243076	0.828401
H178	H	1.961529	0.256924	1.328401
H179	H	1.390931	-0.182524	0.827785
H180	H	1.890931	0.317476	1.327785
C181	C	1.408911	-0.306565	0.971929
C182	C	1.908911	0.193435	1.471929
C183	C	1.391612	-0.237437	0.997636
C184	C	1.891612	0.262563	1.497636
C185	C	1.453990	-0.193364	0.956597
C186	C	1.953990	0.306636	1.456597
H187	H	1.467766	-0.320211	0.989972
H188	H	1.967766	0.179789	1.489972
H189	H	1.404092	-0.309907	0.908600
H190	H	1.904092	0.190093	1.408600
H191	H	1.396439	-0.234098	1.060950
H192	H	1.896439	0.265902	1.560950
H193	H	1.332768	-0.223770	0.979592
H194	H	1.832768	0.276230	1.479592
H195	H	1.449171	-0.196705	0.893269
H196	H	1.949171	0.303295	1.393269
H197	H	1.512842	-0.207016	0.974644
H198	H	2.012842	0.292984	1.474644
H199	H	1.442256	-0.146455	0.974027
H200	H	1.942256	0.353545	1.474027
H201	H	1.364608	-1.158916	0.609361
H202	H	1.864608	-0.658916	1.109361
H203	H	0.921896	-0.314679	0.365981
H204	H	1.421896	0.185321	0.865981
H205	H	0.584914	-0.518318	0.602032
H206	H	1.084914	-0.018318	1.102032
C207	C	0.912092	-0.499273	0.580008
C208	C	1.412092	0.000727	1.080008
C209	C	0.846002	-0.537677	0.624561
C210	C	1.346002	-0.037677	1.124561
C211	C	0.886924	-0.587093	0.681920
C212	C	1.386924	-0.087093	1.181920
H213	H	0.949102	-0.530041	0.545975
H214	H	1.449102	-0.030041	1.045975
H215	H	0.947664	-0.475969	0.622743
H216	H	1.447664	0.024031	1.122743
H217	H	0.810446	-0.560980	0.581832
H218	H	1.310446	-0.060980	1.081832
H219	H	0.808989	-0.506928	0.658611
H220	H	1.308989	-0.006928	1.158611
H221	H	0.922496	-0.563789	0.724655
H222	H	1.422496	-0.063789	1.224655
H223	H	0.923933	-0.617856	0.647880
H224	H	1.423933	-0.117856	1.147880
H225	H	0.842089	-0.613152	0.712162
H226	H	1.342089	-0.113152	1.212162
C227	C	0.594595	-0.333625	0.388218
C228	C	1.094595	0.166375	0.888218
C229	C	0.619794	-0.266407	0.413182
C230	C	1.119794	0.233593	0.913182
C231	C	0.578749	-0.216874	0.356075
C232	C	1.078749	0.283126	0.856075
H233	H	0.612978	-0.341877	0.328152
H234	H	1.112978	0.158123	0.828152
H235	H	0.531267	-0.337363	0.392626
H236	H	1.031267	0.162637	0.892626
H237	H	0.683108	-0.262671	0.408765
H238	H	1.183108	0.237329	0.908765
H239	H	0.601410	-0.258133	0.473239
H240	H	1.101410	0.241867	0.973239
H241	H	0.515422	-0.220613	0.360483
H242	H	1.015422	0.279387	0.860483
H243	H	0.597136	-0.225133	0.296012
H244	H	1.097136	0.274867	0.796012
H245	H	0.595834	-0.171261	0.373010
H246	H	1.095834	0.328739	0.873010
H247	H	0.751929	-0.306634	0.356666
H248	H	1.251929	0.193366	0.856666
C249	C	1.097198	-0.526150	0.997041
C250	C	1.597198	-0.026150	1.497041
C251	C	1.142443	-0.575624	1.051000
C252	C	1.642443	-0.075624	1.551000
C253	C	1.080106	-0.619679	1.092139
C254	C	1.580106	-0.119679	1.592139
H255	H	1.057295	-0.499175	1.033051
H256	H	1.557295	0.000825	1.533051
H257	H	1.064132	-0.549459	0.952329
H258	H	1.564132	-0.049459	1.452329
H259	H	1.175494	-0.552317	1.095706
H260	H	1.675494	-0.052317	1.595706
H261	H	1.182342	-0.602615	1.015011
H262	H	1.682342	-0.102615	1.515011
H263	H	1.047040	-0.642988	1.047426
H264	H	1.547040	-0.142988	1.547426
H265	H	1.040206	-0.592699	1.128144
H266	H	1.540206	-0.092699	1.628144
H267	H	1.110796	-0.653256	1.128748
H268	H	1.610796	-0.153256	1.628748
C269	C	1.344460	-0.835346	0.586731
C270	C	1.844460	-0.335346	1.086731
C271	C	1.394105	-0.792202	0.642491
C272	C	1.894105	-0.292202	1.142491
C273	C	1.446280	-0.833648	0.700996
C274	C	1.946280	-0.333648	1.200996
H275	H	1.306441	-0.863861	0.622346
H276	H	1.806441	-0.363861	1.122346
H277	H	1.384212	-0.864205	0.552973
H278	H	1.884212	-0.364205	1.052973
H279	H	1.354358	-0.763356	0.676246
H280	H	1.854358	-0.263356	1.176246
H281	H	1.432140	-0.763688	0.606901
H282	H	1.932140	-0.263688	1.106901
H283	H	1.486031	-0.862507	0.667238
H284	H	1.986031	-0.362507	1.167238
H285	H	1.408254	-0.862161	0.736604
H286	H	1.908254	-0.362161	1.236604
H287	H	1.479975	-0.804382	0.738830
H288	H	1.979975	-0.304382	1.238830
H289	H	1.169067	-1.140490	0.389580
H290	H	1.669067	-0.640490	0.889580
H291	H	1.175811	-1.008060	0.397214
H292	H	1.675811	-0.508060	0.897214
H293	H	1.134681	-0.805762	0.351053
H294	H	1.634681	-0.305762	0.851053
H295	H	1.141425	-0.673323	0.358678
H296	H	1.641425	-0.173323	0.858678
C297	C	1.167695	-0.930355	0.388169
C298	C	1.667695	-0.430355	0.888169
C299	C	1.122910	-0.878325	0.337871
C300	C	1.622910	-0.378325	0.837871
C301	C	1.067061	-0.909610	0.275157
C302	C	1.567061	-0.409610	0.775157
H303	H	1.202832	-0.958807	0.349288
H304	H	1.702832	-0.458807	0.849288
H305	H	1.125038	-0.958412	0.418633
H306	H	1.625038	-0.458412	0.918633
H307	H	1.165561	-0.850280	0.307409
H308	H	1.665561	-0.350280	0.807409
H309	H	1.087756	-0.849870	0.376728
H310	H	1.587756	-0.349870	0.876728
H311	H	1.024404	-0.937667	0.305621
H312	H	1.524404	-0.437667	0.805621
H313	H	1.102205	-0.938061	0.236282
H314	H	1.602205	-0.438061	0.736282
H315	H	1.036661	-0.874313	0.241028
H316	H	1.536661	-0.374313	0.741028
H317	H	0.754855	-0.526367	0.611347
H318	H	1.254855	-0.026367	1.111347
H319	H	1.323110	-0.910283	0.562827
H320	H	1.823110	-0.410283	1.062827
