data_functionalizedCrystal
_audit_creation_method	'MofGen! by Chris Wilmer'
_symmetry_space_group_name_H-M	'P1'
_symmetry_Int_Tables_number	1
_symmetry_cell_setting	triclinic
loop_
_symmetry_equiv_pos_as_xyz
  x,y,z
_cell_length_a	11.026607
_cell_length_b	14.044220
_cell_length_c	9.482900
_cell_angle_alpha	100.188801
_cell_angle_beta	78.636152
_cell_angle_gamma	100.887447
loop_
_atom_site_label
_atom_site_type_symbol
_atom_site_fract_x
_atom_site_fract_y
_atom_site_fract_z
O1	O	1.671574	0.392560	-0.120918
O2	O	1.313283	0.346512	-0.120917
O3	O	1.487049	0.230635	-0.120903
O4	O	1.497809	0.508437	-0.120932
O5	O	1.451766	0.254293	0.120886
O6	O	1.278001	0.370170	0.120872
O7	O	1.636292	0.416218	0.120871
Cu8	Cu	1.453925	0.395354	0.142949
Cu9	Cu	1.495650	0.367376	-0.142995
O10	O	1.462526	0.532095	0.120857
C11	C	1.249512	0.349846	-0.000022
C12	C	1.112056	0.324521	-0.000022
C13	C	1.045821	0.394445	-0.000030
C14	C	0.903753	0.368273	-0.000029
C15	C	1.464699	0.206346	-0.000008
C16	C	1.450655	0.098724	-0.000006
C17	C	1.424983	-0.098320	-0.000027
C18	C	1.524588	-0.138958	-0.000032
C19	C	1.510304	-0.248600	-0.000043
C20	C	1.439266	0.011332	-0.000015
C21	C	1.700064	0.412884	-0.000027
C22	C	1.837521	0.438207	-0.000037
C23	C	1.484876	0.556383	-0.000041
C24	C	1.498922	0.664004	-0.000053
N25	N	1.424586	0.415033	0.344067
N26	N	1.524998	0.347690	-0.344113
C27	C	1.486988	0.373174	0.416271
C28	C	1.462587	0.389556	0.583687
H29	H	0.855294	0.289024	-0.000058
O30	O	1.639021	-0.082087	0.000047
C31	C	1.757793	0.080621	-0.000007
C32	C	1.628130	0.016328	-0.000068
H33	H	1.749037	0.160199	-0.000130
H34	H	1.795422	0.074576	0.101209
H35	H	1.824938	0.054665	-0.101168
H36	H	1.560893	0.042240	0.101025
H37	H	1.590605	0.022378	-0.101350
O38	O	1.572136	0.315817	0.342203
C39	C	1.632712	0.155555	0.295312
C40	C	1.536165	0.220387	0.379273
H41	H	1.603679	0.078392	0.325274
H42	H	1.637166	0.152476	0.173485
H43	H	1.728827	0.187831	0.325094
H44	H	1.440001	0.188161	0.349612
H45	H	1.531820	0.223465	0.501079
O46	O	1.610295	0.290399	0.582019
C47	C	1.760307	0.189846	0.597727
C48	C	1.663726	0.254684	0.681562
H49	H	1.803552	0.160969	0.678171
H50	H	1.711917	0.125579	0.526524
H51	H	1.837021	0.235052	0.526404
H52	H	1.586986	0.209561	0.752964
H53	H	1.712206	0.318954	0.752673
H54	H	1.391089	0.437521	0.645805
H55	H	0.885983	0.517453	-0.000036
H56	H	1.328988	-0.145870	-0.000030
H57	H	1.353092	0.462995	0.406191
O58	O	1.103838	0.488925	-0.000097
C59	C	1.298308	0.601170	-0.000000
C60	C	1.232772	0.494127	0.000038
H61	H	1.402557	0.605414	0.000139
H62	H	1.285279	0.628805	-0.101215
H63	H	1.255573	0.648555	0.101162
H64	H	1.275464	0.446666	-0.101056
H65	H	1.245793	0.466571	0.101320
O66	O	1.054412	0.229932	-0.000208
C67	C	1.041782	0.064312	-0.125506
C68	C	1.107183	0.171395	-0.125458
H69	H	1.084402	0.016958	-0.226775
H70	H	1.054949	0.036640	-0.024384
H71	H	0.937499	0.060079	-0.125436
H72	H	1.211484	0.175712	-0.125580
H73	H	1.093913	0.199020	-0.226571
