data_functionalizedCrystal
_audit_creation_method	'MofGen! by Chris Wilmer'
_symmetry_space_group_name_H-M	'P1'
_symmetry_Int_Tables_number	1
_symmetry_cell_setting	triclinic
loop_
_symmetry_equiv_pos_as_xyz
  x,y,z
_cell_length_a	15.995350
_cell_length_b	15.995350
_cell_length_c	14.472310
_cell_angle_alpha	90.009379
_cell_angle_beta	90.001162
_cell_angle_gamma	96.507625
loop_
_atom_site_label
_atom_site_type_symbol
_atom_site_fract_x
_atom_site_fract_y
_atom_site_fract_z
O1	O	0.107921	-1.110997	-0.076758
O2	O	0.121248	-0.867221	-0.076776
O3	O	-0.007303	-0.995773	-0.076766
O4	O	0.236472	-0.982445	-0.076769
O5	O	-0.007296	-0.995740	0.076916
O6	O	0.121256	-0.867188	0.076906
O7	O	0.107928	-1.110963	0.076924
Cu8	Cu	0.114593	-0.989073	0.090947
Cu9	Cu	0.114584	-0.989112	-0.090800
O10	O	0.236480	-0.982412	0.076913
C11	C	0.120701	-0.836010	0.000062
C12	C	0.119049	-0.743060	0.000055
N13	N	0.114598	-0.989051	0.218778
C14	C	-0.038494	-0.995205	0.000073
C15	C	-0.131444	-0.993553	0.000068
C16	C	-0.469192	-0.987621	0.000071
C17	C	-0.421758	-0.896069	-0.000281
C18	C	-0.325068	-0.897721	0.000066
C19	C	-0.301631	-0.990564	0.000069
C20	C	-0.342705	-1.035701	0.087831
C21	C	-0.439340	-1.033401	0.087904
C22	C	-0.439707	-1.035330	-0.086861
C23	C	-0.342762	-1.035309	-0.088021
C24	C	-0.206934	-0.992231	0.000071
C25	C	-0.563890	-0.985956	0.000075
C26	C	0.267671	-0.982980	0.000072
C27	C	0.360621	-0.984631	0.000071
C28	C	0.108476	-1.142175	0.000083
C29	C	0.110127	-1.235125	0.000084
C30	C	0.113117	-0.405312	0.000074
C31	C	0.021565	-0.452746	0.000418
C32	C	0.023217	-0.549436	0.000065
C33	C	0.116060	-0.572873	0.000065
C34	C	0.161212	-0.531804	-0.087692
C35	C	0.158912	-0.435169	-0.087759
C36	C	0.160812	-0.434792	0.087007
C37	C	0.160790	-0.531737	0.088160
C38	C	0.117727	-0.667570	0.000057
C39	C	0.111452	-0.310614	0.000076
N40	N	0.114572	-0.989140	-0.218631
C41	C	0.114581	-0.989111	0.592869
C42	C	0.183135	-0.920095	0.553698
C43	C	0.183385	-0.920254	0.446610
C44	C	0.114590	-0.989081	0.407278
C45	C	0.133671	-1.076445	0.446122
C46	C	0.134159	-1.076057	0.553243
C47	C	0.026741	-0.971542	0.553398
C48	C	0.027327	-0.969538	0.446270
C49	C	0.114593	-0.989069	0.302390
C50	C	0.114579	-0.989128	0.697757
H51	H	-0.296649	-0.862239	-0.062846
C52	C	0.068018	-1.147491	0.411703
C53	C	0.096109	-1.220295	0.354096
C54	C	0.030455	-1.291339	0.319677
C55	C	-0.063289	-1.289579	0.342865
C56	C	-0.091384	-1.216772	0.400474
C57	C	-0.025730	-1.145727	0.434894
H58	H	0.165508	-1.221601	0.336929
H59	H	0.051253	-1.345236	0.277030
H60	H	-0.111889	-1.342171	0.317385
H61	H	-0.160782	-1.215466	0.417642
H62	H	-0.046528	-1.091831	0.477541
H63	H	-0.314320	-1.004324	0.153137
C64	C	-0.446783	-0.846650	-0.085309
C65	C	-0.510599	-0.888816	-0.155465
C66	C	-0.535624	-0.839398	-0.240501
C67	C	-0.496833	-0.747815	-0.255381
C68	C	-0.433014	-0.705644	-0.185223
C69	C	-0.407989	-0.755062	-0.100187
H70	H	-0.539317	-0.956616	-0.144452
H71	H	-0.582868	-0.870616	-0.292437
H72	H	-0.515358	-0.711233	-0.318330
H73	H	-0.404295	-0.637844	-0.196236
H74	H	-0.360745	-0.723843	-0.048251
C75	C	-0.448216	-0.846831	0.084259
C76	C	-0.512648	-0.889388	0.153516
C77	C	-0.539109	-0.840152	0.238057
C78	C	-0.501139	-0.748358	0.253341
C79	C	-0.436703	-0.705795	0.184082
C80	C	-0.410242	-0.755032	0.099541
H81	H	-0.540760	-0.957344	0.142204
H82	H	-0.586809	-0.871660	0.289326
H83	H	-0.520727	-0.711910	0.315923
H84	H	-0.408592	-0.637839	0.195395
H85	H	-0.362542	-0.723524	0.048272
H86	H	0.130885	-0.414242	0.153524
C87	C	0.219228	-1.097865	0.409877
C88	C	0.252173	-1.180904	0.438425
C89	C	0.337731	-1.202318	0.402181
C90	C	0.390346	-1.140695	0.337390
C91	C	0.357402	-1.057651	0.308839
C92	C	0.271843	-1.036237	0.345082
H93	H	0.213224	-1.226526	0.486390
H94	H	0.362118	-1.263793	0.423318
H95	H	0.453682	-1.156548	0.310561
H96	H	0.396351	-1.012029	0.260873
H97	H	0.247456	-0.974762	0.323946
H98	H	-0.297200	-0.861973	0.063079
C99	C	-0.322010	-1.126775	-0.095186
C100	C	-0.267110	-1.162599	-0.020839
C101	C	-0.246357	-1.254068	-0.027997
C102	C	-0.280504	-1.309715	-0.109503
C103	C	-0.335406	-1.273892	-0.183856
C104	C	-0.356159	-1.182423	-0.176697
H105	H	-0.241830	-1.121405	0.039501
H106	H	-0.205715	-1.280586	0.027044
H107	H	-0.265141	-1.377426	-0.114802
H108	H	-0.360686	-1.315086	-0.244196
H109	H	-0.396802	-1.155905	-0.231738
C110	C	-0.464065	-0.988890	0.176519
C111	C	-0.525392	-1.035958	0.245942
C112	C	-0.550111	-0.991444	0.334558
C113	C	-0.513503	-0.899861	0.353751
C114	C	-0.452173	-0.852788	0.284326
C115	C	-0.427454	-0.897302	0.195710
H116	H	-0.552495	-1.103758	0.231735
H117	H	-0.595512	-1.026291	0.385950
H118	H	-0.531802	-0.866909	0.419350
H119	H	-0.425070	-0.784988	0.298533
H120	H	-0.382053	-0.862455	0.144318
H121	H	0.228494	-0.547101	0.093461
H122	H	-0.460250	-1.005412	-0.153379
C123	C	-0.027658	-0.426296	-0.084126
C124	C	0.014912	-0.361871	-0.153378
C125	C	-0.034308	-0.335420	-0.237924
C126	C	-0.126098	-0.373394	-0.253218
C127	C	-0.168673	-0.437823	-0.183963
C128	C	-0.119453	-0.464274	-0.099417
H129	H	0.082865	-0.333757	-0.142059
H130	H	-0.002791	-0.287726	-0.289191
H131	H	-0.162534	-0.353814	-0.315803
H132	H	-0.236626	-0.465937	-0.195282
H133	H	-0.150971	-0.511969	-0.048151
H134	H	-0.026079	-1.016541	0.419500
H135	H	-0.471588	-1.100617	0.091888
H136	H	-0.012521	-0.577308	-0.062951
C137	C	0.168036	-0.832524	0.411125
C138	C	0.165262	-0.815484	0.306510
C139	C	0.149916	-0.727749	0.271031
C140	C	0.137344	-0.657055	0.340166
C141	C	0.140118	-0.674093	0.444788
C142	C	0.155464	-0.761828	0.480267
H143	H	0.174569	-0.867818	0.255326
H144	H	0.147862	-0.715136	0.193583
H145	H	0.125983	-0.592108	0.313902
H146	H	0.130811	-0.621759	0.495972
H147	H	0.157517	-0.774440	0.557715
H148	H	-0.328579	-1.103909	0.091097
C149	C	0.220700	-1.096967	0.586993
C150	C	0.239059	-1.100942	0.691256
C151	C	0.325602	-1.121851	0.725000
C152	C	0.393788	-1.138786	0.654481
C153	C	0.375431	-1.134812	0.550211
C154	C	0.288887	-1.113903	0.516467
H155	H	0.188582	-1.088405	0.743465
H156	H	0.339191	-1.124792	0.802188
H157	H	0.457853	-1.154264	0.679460
H158	H	0.425908	-1.147349	0.498003
H159	H	0.275299	-1.110961	0.439279
C160	C	0.001965	-0.887330	0.589922
C161	C	0.061186	-0.833438	0.656069
C162	C	0.036421	-0.749223	0.692594
C163	C	-0.047563	-0.718900	0.662973
C164	C	-0.106789	-0.772793	0.596823
C165	C	-0.082025	-0.857008	0.560297
H166	H	0.123361	-0.855884	0.677999
H167	H	0.080265	-0.709328	0.741563
H168	H	-0.065896	-0.656559	0.690011
H169	H	-0.168965	-0.750347	0.574892
H170	H	-0.125868	-0.896903	0.511328
C171	C	0.007740	-0.882728	0.411967
C172	C	-0.005252	-0.812861	0.481992
C173	C	-0.024845	-0.726055	0.447677
C174	C	-0.031445	-0.709116	0.343337
C175	C	-0.018452	-0.778984	0.273306
C176	C	0.001140	-0.865790	0.307620
H177	H	-0.000367	-0.825399	0.559236
H178	H	-0.034462	-0.674334	0.499520
H179	H	-0.045948	-0.644857	0.317935
H180	H	-0.023338	-0.766446	0.196061
H181	H	0.010758	-0.917511	0.255778
H182	H	0.228313	-0.403031	0.087600
C183	C	-0.042184	-1.039524	0.587624
C184	C	-0.018932	-1.110635	0.651069
C185	C	-0.087849	-1.178618	0.685303
C186	C	-0.180017	-1.175491	0.656092
C187	C	-0.203274	-1.104378	0.592643
C188	C	-0.134357	-1.036395	0.558409
H189	H	0.049300	-1.112952	0.672697
H190	H	-0.070633	-1.231261	0.732272
H191	H	-0.231034	-1.225817	0.681434
H192	H	-0.271506	-1.102061	0.571016
H193	H	-0.151573	-0.983752	0.511440
H194	H	-0.315516	-1.002307	-0.152945
C195	C	0.270698	-0.935086	0.590017
C196	C	0.288095	-0.933909	0.694691
C197	C	0.375654	-0.948926	0.730999
C198	C	0.445817	-0.965120	0.662633
C199	C	0.428423	-0.966297	0.557953
C200	C	0.340863	-0.951280	0.521645
H201	H	0.236154	-0.921921	0.745304
H202	H	0.388530	-0.948055	0.808490
H203	H	0.510634	-0.976236	0.689511
H204	H	0.480364	-0.978285	0.507339
H205	H	0.327987	-0.952151	0.444154
H206	H	-0.471468	-1.102831	-0.087449
H207	H	-0.012275	-0.577852	0.062973
C208	C	0.114416	-0.410447	-0.176374
C209	C	0.161497	-0.349123	-0.245788
C210	C	0.116998	-0.324406	-0.334404
C211	C	0.025418	-0.361013	-0.353606
C212	C	-0.021668	-0.422341	-0.284190
C213	C	0.022831	-0.447057	-0.195574
H214	H	0.229295	-0.322021	-0.231576
H215	H	0.151855	-0.279007	-0.385791
H216	H	-0.007523	-0.342716	-0.419205
H217	H	-0.089466	-0.449443	-0.298403
H218	H	-0.012026	-0.492456	-0.144188
C219	C	0.249709	-0.391592	-0.093163
C220	C	0.305701	-0.407873	-0.176327
C221	C	0.396494	-0.364298	-0.181744
C222	C	0.431294	-0.304441	-0.103996
C223	C	0.375301	-0.288157	-0.020825
C224	C	0.284508	-0.331732	-0.015409
H225	H	0.279941	-0.452185	-0.233886
H226	H	0.437944	-0.376353	-0.243313
H227	H	0.498504	-0.272184	-0.108006
H228	H	0.401061	-0.243845	0.036734
H229	H	0.243058	-0.319677	0.046160
C230	C	0.253357	-0.550887	-0.092109
C231	C	0.273590	-0.642647	-0.096887
C232	C	0.365736	-0.661730	-0.101301
C233	C	0.437648	-0.589054	-0.100938
C234	C	0.417416	-0.497288	-0.096160
C235	C	0.325271	-0.478204	-0.091745
H236	H	0.220355	-0.696451	-0.097157
H237	H	0.380712	-0.729662	-0.104839
H238	H	0.505859	-0.603181	-0.104205
H239	H	0.470652	-0.443483	-0.095890
H240	H	0.310295	-0.410273	-0.088208
C241	C	0.118830	-0.570136	-0.175927
C242	C	0.043314	-0.638647	-0.168533
C243	C	0.000923	-0.676973	-0.256765
C244	C	0.034048	-0.646788	-0.352391
C245	C	0.109568	-0.578273	-0.359789
C246	C	0.151959	-0.539947	-0.271557
H247	H	0.018789	-0.660995	-0.097741
H248	H	-0.054982	-0.727692	-0.251288
H249	H	0.002668	-0.675159	-0.417706
H250	H	0.134093	-0.555925	-0.430581
H251	H	0.207864	-0.489228	-0.277034
H252	H	-0.015027	-0.434210	0.063352
H253	H	0.127830	-0.559040	0.153082
H254	H	0.248569	-0.931473	0.420976
H255	H	0.171953	-0.854945	0.579481
H256	H	0.086196	-1.129018	0.579154
