data_functionalizedCrystal
_audit_creation_method	'MofGen! by Chris Wilmer'
_symmetry_space_group_name_H-M	'P1'
_symmetry_Int_Tables_number	1
_symmetry_cell_setting	triclinic
loop_
_symmetry_equiv_pos_as_xyz
  x,y,z
_cell_length_a	18.215407
_cell_length_b	18.101395
_cell_length_c	18.215399
_cell_angle_alpha	89.973573
_cell_angle_beta	89.980167
_cell_angle_gamma	90.031552
loop_
_atom_site_label
_atom_site_type_symbol
_atom_site_fract_x
_atom_site_fract_y
_atom_site_fract_z
Zn1	Zn	1.125040	-0.294828	-0.416124
Zn2	Zn	1.124935	-0.418675	-0.293061
Zn3	Zn	1.001973	-0.294853	-0.293071
Zn4	Zn	1.001925	-0.418634	-0.416086
O5	O	1.063468	-0.356747	-0.354585
O6	O	1.228010	-0.311264	-0.399811
O7	O	1.108600	-0.402277	-0.190078
O8	O	1.018362	-0.191216	-0.309415
O9	O	1.227933	-0.402253	-0.309397
O10	O	1.108779	-0.191199	-0.399821
O11	O	1.018260	-0.311305	-0.190085
O12	O	0.898982	-0.311265	-0.309378
O13	O	1.018281	-0.402183	-0.519075
O14	O	0.898947	-0.402207	-0.399756
O15	O	1.108733	-0.311224	-0.519103
O16	O	1.108554	-0.522302	-0.309360
O17	O	1.018179	-0.522272	-0.399746
C18	C	0.872262	-0.356735	-0.354564
C19	C	0.790463	-0.356747	-0.354572
C20	C	0.602270	-0.404175	-0.401573
C21	C	0.525412	-0.404177	-0.401583
C22	C	0.525418	-0.309333	-0.307613
C23	C	0.602276	-0.309328	-0.307608
C24	C	0.640700	-0.356753	-0.354587
C25	C	0.486984	-0.356761	-0.354601
C26	C	0.403650	-0.356763	-0.354611
C27	C	0.724039	-0.356750	-0.354579
C28	C	1.063370	-0.549158	-0.354564
C29	C	1.063395	-0.631472	-0.354579
C30	C	1.063557	-0.930563	-0.354619
C31	C	1.006827	-0.899249	-0.411628
C32	C	1.006557	-0.813632	-0.411450
C33	C	1.063476	-0.782180	-0.354600
C34	C	1.042479	-0.813331	-0.277038
C35	C	1.042113	-0.898976	-0.277380
C36	C	1.141408	-0.898906	-0.374487
C37	C	1.140950	-0.813255	-0.376188
C38	C	1.063432	-0.698321	-0.354584
C39	C	1.063599	-1.014422	-0.354629
C40	C	1.255421	-0.356761	-0.354607
C41	C	1.337220	-0.356766	-0.354616
C42	C	1.063513	-0.356696	-0.546538
C43	C	1.063532	-0.356675	-0.628337
C44	C	1.063587	-0.163585	-0.354623
C45	C	1.063638	-0.081271	-0.354639
C46	C	1.110648	-0.309268	-0.816547
C47	C	1.110656	-0.309246	-0.893406
C48	C	1.016469	-0.403967	-0.893365
C49	C	1.016457	-0.403984	-0.816508
C50	C	1.063551	-0.356636	-0.778101
C51	C	1.063571	-0.356597	-0.931817
C52	C	1.063580	-0.356574	-1.015151
C53	C	1.063541	-0.356657	-0.694762
C54	C	1.063466	-0.356745	-0.163379
C55	C	1.063590	-0.356558	-0.081580
H56	H	0.494124	-0.270723	-0.269363
H57	H	1.148992	-0.270712	-0.785278
H58	H	0.985204	-0.919019	-0.260549
C59	C	0.644550	-0.257158	-0.255917
N60	N	0.676392	-0.217863	-0.216985
C61	C	1.201073	-0.784330	-0.324180
N62	N	1.246355	-0.762545	-0.285000
H63	H	1.019834	-0.919798	-0.469325
C64	C	0.929340	-0.928402	-0.394067
N65	N	0.870977	-0.950358	-0.380835
C66	C	0.928587	-0.786038	-0.393724
N67	N	0.869852	-0.765255	-0.380390
C68	C	1.095503	-0.926965	-0.218033
N69	N	1.135711	-0.948043	-0.173329
C70	C	1.162469	-0.257139	-0.935693
N71	N	1.201496	-0.217890	-0.967543
H72	H	0.494126	-0.442792	-0.439845
H73	H	0.986172	-0.791946	-0.259906
C74	C	0.964668	-0.456046	-0.935620
N75	N	0.925649	-0.495272	-0.967446
H76	H	1.160552	-0.920455	-0.430081
C77	C	0.964642	-0.456093	-0.774215
N78	N	0.925614	-0.495337	-0.742359
C79	C	1.096537	-0.785805	-0.218087
N80	N	1.137254	-0.765070	-0.173685
H81	H	1.183674	-0.919155	-0.332965
H82	H	1.019695	-0.792568	-0.468960
C83	C	0.644534	-0.456338	-0.453257
N84	N	0.676365	-0.495626	-0.492189
H85	H	1.156785	-0.792893	-0.433269
