data_functionalizedCrystal
_audit_creation_method	'MofGen! by Chris Wilmer'
_symmetry_space_group_name_H-M	'P1'
_symmetry_Int_Tables_number	1
_symmetry_cell_setting	triclinic
loop_
_symmetry_equiv_pos_as_xyz
  x,y,z
_cell_length_a	19.288864
_cell_length_b	11.026607
_cell_length_c	17.766277
_cell_angle_alpha	89.996915
_cell_angle_beta	89.976791
_cell_angle_gamma	95.861131
loop_
_atom_site_label
_atom_site_type_symbol
_atom_site_fract_x
_atom_site_fract_y
_atom_site_fract_z
O1	O	0.940539	0.151279	-0.062839
O2	O	0.740867	0.171687	-0.062788
O3	O	0.824155	-0.015080	-0.062806
O4	O	0.857252	0.338046	-0.062820
O5	O	0.824135	-0.015089	0.062382
O6	O	0.740847	0.171677	0.062401
O7	O	0.940520	0.151270	0.062350
Cu8	Cu	0.840682	0.161473	0.073806
Cu9	Cu	0.840705	0.161484	-0.074244
O10	O	0.857232	0.338036	0.062368
C11	C	0.714897	0.171025	-0.000187
C12	C	0.637544	0.169054	-0.000167
C13	C	0.606746	0.278640	-0.000183
C14	C	0.534064	0.276788	-0.000191
C15	C	0.492182	0.165344	-0.000198
C16	C	0.522988	0.055744	-0.000178
C17	C	0.595669	0.057599	-0.000162
C18	C	0.372816	0.077740	-0.044079
C19	C	0.300137	0.075890	-0.044100
C20	C	0.268011	0.159618	-0.000244
C21	C	0.308573	0.245218	0.043623
C22	C	0.381254	0.247073	0.043639
C23	C	0.413372	0.163320	-0.000215
C24	C	0.158403	0.267204	-0.000268
C25	C	0.085720	0.265347	-0.000271
C26	C	0.074645	0.044300	-0.000266
C27	C	0.147327	0.046159	-0.000255
C28	C	0.189202	0.157615	-0.000259
C29	C	0.818039	-0.060262	-0.000211
C30	C	0.799837	-0.194876	-0.000209
C31	C	0.850095	-0.268957	-0.000223
C32	C	0.831284	-0.408088	-0.000221
C33	C	0.966489	0.151931	-0.000253
C34	C	1.043843	0.153902	-0.000277
C35	C	0.863348	0.383218	-0.000228
C36	C	0.881550	0.517833	-0.000235
N37	N	0.840670	0.161464	0.177936
N38	N	0.840721	0.161483	-0.178374
C39	C	0.877570	0.078804	0.217315
C40	C	0.877573	0.078799	0.296117
C41	C	0.840686	0.161474	0.335537
C42	C	0.803778	0.244140	0.296149
C43	C	0.803770	0.244135	0.217349
C44	C	0.845401	0.271967	0.460372
C45	C	0.845414	0.271973	0.539171
C46	C	0.840706	0.161488	0.578583
C47	C	0.836000	0.050992	0.539187
C48	C	0.835992	0.050987	0.460387
C49	C	0.840690	0.161488	0.420983
C50	C	0.877612	0.078816	0.703408
C51	C	0.877610	0.078808	0.782211
C52	C	0.803819	0.244160	0.782242
C53	C	0.803816	0.244157	0.703440
C54	C	0.840716	0.161486	0.664028
H55	H	0.508984	0.366029	-0.000202
C56	C	0.892152	-0.131307	0.806464
C57	C	0.918176	-0.012059	0.825497
H58	H	0.917201	-0.187402	0.833184
H59	H	0.844186	-0.144276	0.819409
H60	H	0.897431	-0.143119	0.753891
H61	H	0.912892	-0.000244	0.878070
H62	H	0.966154	0.000915	0.812557
H63	H	0.832166	-0.038976	0.571275
H64	H	0.907656	0.011496	0.671317
H65	H	0.172402	-0.043078	-0.000246
H66	H	0.774326	-0.447663	-0.000211
H67	H	0.773742	0.311453	0.328249
H68	H	0.414277	0.316767	0.079359
C69	C	0.950508	-0.084638	0.225207
C70	C	0.918121	-0.012079	0.173995
H71	H	0.975537	-0.140752	0.198459
H72	H	0.981791	-0.034266	0.255917
H73	H	0.916156	-0.128123	0.255967
H74	H	0.952474	0.031413	0.143238
H75	H	0.886836	-0.062458	0.143271
H76	H	0.640837	0.369396	-0.000188
H77	H	0.938508	-0.442594	-0.000306
H78	H	0.192500	0.357957	-0.000261
H79	H	0.282418	0.313397	0.079335
C80	C	0.103971	0.484026	-0.000294
C81	C	0.051864	0.385815	-0.000290
H82	H	0.083068	0.558397	-0.000310
H83	H	0.132065	0.480157	0.043364
H84	H	0.132112	0.480139	-0.043948
H85	H	0.023726	0.389697	0.043368
H86	H	0.023758	0.389686	-0.043952
H87	H	0.742883	-0.234456	-0.000200
C88	C	-0.041683	-0.056693	-0.000296
C89	C	0.028617	-0.078204	-0.000278
H90	H	-0.070100	-0.132325	-0.000307
H91	H	-0.051340	-0.011603	0.043355
H92	H	-0.051286	-0.011577	-0.043957
H93	H	0.038221	-0.123312	0.043387
H94	H	0.038278	-0.123313	-0.043933
H95	H	0.907623	0.011485	0.328185
C96	C	0.299098	-0.091319	-0.130792
C97	C	0.255555	-0.018203	-0.092314
H98	H	0.271574	-0.149414	-0.160553
H99	H	0.329915	-0.041638	-0.162409
H100	H	0.325328	-0.132508	-0.095506
H101	H	0.229329	0.022993	-0.127600
H102	H	0.224725	-0.067890	-0.060694
C103	C	0.519340	-0.162559	-0.000168
C104	C	0.476955	-0.066759	-0.000187
H105	H	0.490920	-0.238189	-0.000167
H106	H	0.547943	-0.157237	-0.043814
H107	H	0.547894	-0.157232	0.043498
H108	H	0.448404	-0.072081	-0.043857
H109	H	0.448340	-0.072084	0.043463
C110	C	0.789303	0.454277	0.679178
C111	C	0.763263	0.335035	0.660150
H112	H	0.764268	0.510381	0.652449
H113	H	0.784025	0.466101	0.731743
H114	H	0.837277	0.467222	0.666233
H115	H	0.715291	0.322087	0.673100
H116	H	0.768536	0.323207	0.607573
C117	C	0.671013	-0.068537	-0.064498
C118	C	0.629528	-0.062865	-0.000151
H119	H	0.691920	-0.142904	-0.064489
H120	H	0.642911	-0.064670	-0.108150
H121	H	0.706353	-0.001891	-0.064487
H122	H	0.594185	-0.129507	-0.000165
H123	H	0.657632	-0.066744	0.043512
C124	C	0.692554	0.315904	0.806555
C125	C	0.763268	0.335037	0.825563
H126	H	0.667518	0.372003	0.833307
H127	H	0.687275	0.327738	0.753995
H128	H	0.674908	0.234999	0.819486
H129	H	0.780915	0.415940	0.812627
H130	H	0.768551	0.323213	0.878135
C131	C	0.826676	-0.167446	0.468309
C132	C	0.830809	-0.070463	0.417082
H133	H	0.823470	-0.242424	0.441572
H134	H	0.867183	-0.160900	0.499017
H135	H	0.786566	-0.164797	0.499070
H136	H	0.870922	-0.073107	0.386325
H137	H	0.790298	-0.077012	0.386361
C138	C	0.854703	0.490402	0.531239
C139	C	0.850586	0.393428	0.582471
H140	H	0.857892	0.565383	0.557971
H141	H	0.894810	0.487772	0.500483
H142	H	0.814191	0.483827	0.500527
H143	H	0.891101	0.399998	0.613180
H144	H	0.810475	0.396060	0.613240
C145	C	0.910280	0.403034	0.371705
C146	C	0.850578	0.393418	0.417048
H147	H	0.913472	0.478006	0.344955
H148	H	0.950388	0.400408	0.402425
H149	H	0.907463	0.337218	0.336974
H150	H	0.853398	0.459230	0.451783
H151	H	0.810460	0.396056	0.386324
H152	H	0.773720	0.311447	0.185286
H153	H	0.398967	0.009556	-0.079797
H154	H	0.907050	-0.229377	-0.000233
