data_functionalizedCrystal
_audit_creation_method	'MofGen! by Chris Wilmer'
_symmetry_space_group_name_H-M	'P1'
_symmetry_Int_Tables_number	1
_symmetry_cell_setting	triclinic
loop_
_symmetry_equiv_pos_as_xyz
  x,y,z
_cell_length_a	18.101398
_cell_length_b	21.295417
_cell_length_c	18.101389
_cell_angle_alpha	90.022566
_cell_angle_beta	90.024327
_cell_angle_gamma	90.025773
loop_
_atom_site_label
_atom_site_type_symbol
_atom_site_fract_x
_atom_site_fract_y
_atom_site_fract_z
Zn1	Zn	1.132124	-0.250755	0.418817
Zn2	Zn	1.382124	-0.000755	0.668817
Zn3	Zn	1.632124	0.249245	0.918817
Zn4	Zn	1.882124	0.499245	1.168817
Zn5	Zn	1.132021	-0.356008	0.294967
Zn6	Zn	1.382021	-0.106008	0.544967
Zn7	Zn	1.632021	0.143992	0.794967
Zn8	Zn	1.882021	0.393992	1.044967
Zn9	Zn	1.008283	-0.250748	0.294979
Zn10	Zn	1.258283	-0.000748	0.544979
Zn11	Zn	1.508283	0.249252	0.794979
Zn12	Zn	1.758283	0.499252	1.044979
Zn13	Zn	1.008235	-0.355981	0.418755
Zn14	Zn	1.258235	-0.105981	0.668755
Zn15	Zn	1.508235	0.144019	0.918755
Zn16	Zn	1.758235	0.394019	1.168755
O17	O	1.070166	-0.303373	0.356880
O18	O	1.320166	-0.053373	0.606880
O19	O	1.570166	0.196627	0.856880
O20	O	1.820166	0.446627	1.106880
O21	O	1.235743	-0.264731	0.402409
O22	O	1.485743	-0.014731	0.652409
O23	O	1.735743	0.235269	0.902409
O24	O	1.985743	0.485269	1.152409
O25	O	1.115584	-0.342054	0.191335
O26	O	1.365584	-0.092054	0.441335
O27	O	1.615584	0.157946	0.691335
O28	O	1.865584	0.407946	0.941335
O29	O	1.024774	-0.162660	0.311437
O30	O	1.274774	0.087340	0.561437
O31	O	1.524774	0.337340	0.811437
O32	O	1.774774	0.587340	1.061437
O33	O	1.235668	-0.342060	0.311417
O34	O	1.485668	-0.092060	0.561417
O35	O	1.735668	0.157940	0.811417
O36	O	1.985668	0.407940	1.061417
O37	O	1.115759	-0.162664	0.402421
O38	O	1.365759	0.087336	0.652421
O39	O	1.615759	0.337336	0.902421
O40	O	1.865759	0.587336	1.152421
O41	O	1.024674	-0.264720	0.191344
O42	O	1.274674	-0.014720	0.441344
O43	O	1.524674	0.235280	0.691344
O44	O	1.774674	0.485280	0.941344
O45	O	0.904644	-0.264694	0.311377
O46	O	1.154644	-0.014694	0.561377
O47	O	1.404644	0.235306	0.811377
O48	O	1.654644	0.485306	1.061377
O49	O	1.024692	-0.342014	0.522397
O50	O	1.274692	-0.092014	0.772397
O51	O	1.524692	0.157986	1.022397
O52	O	1.774692	0.407986	1.272397
O53	O	0.904609	-0.342008	0.402315
O54	O	1.154609	-0.092008	0.652315
O55	O	1.404609	0.157992	0.902315
O56	O	1.654609	0.407992	1.152315
O57	O	1.115713	-0.264705	0.522442
O58	O	1.365713	-0.014705	0.772442
O59	O	1.615713	0.235295	1.022442
O60	O	1.865713	0.485295	1.272442
O61	O	1.115538	-0.444094	0.311357
O62	O	1.365538	-0.194094	0.561357
O63	O	1.615538	0.055906	0.811357
O64	O	1.865538	0.305906	1.061357
O65	O	1.024592	-0.444074	0.402304
O66	O	1.274592	-0.194074	0.652304
O67	O	1.524592	0.055926	0.902304
O68	O	1.774592	0.305926	1.152304
C69	C	0.877755	-0.303348	0.356841
C70	C	1.127755	-0.053348	0.606841
C71	C	1.377755	0.196652	0.856841
C72	C	1.627755	0.446652	1.106841
C73	C	0.795441	-0.303352	0.356842
C74	C	1.045441	-0.053352	0.606842
C75	C	1.295441	0.196648	0.856842
C76	C	1.545441	0.446648	1.106842
C77	C	0.496350	-0.303391	0.356904
C78	C	0.746350	-0.053391	0.606904
C79	C	0.996350	0.196609	0.856904
C80	C	1.246350	0.446609	1.106904
C81	C	0.527673	-0.254504	0.299967
C82	C	0.777673	-0.004504	0.549967
C83	C	1.027673	0.245496	0.799967
C84	C	1.277673	0.495496	1.049967
C85	C	0.613291	-0.254635	0.299724
C86	C	0.863291	-0.004635	0.549724
C87	C	1.113291	0.245365	0.799724
C88	C	1.363291	0.495365	1.049724
C89	C	0.644733	-0.303371	0.356873
C90	C	0.894733	-0.053371	0.606873
C91	C	1.144733	0.196629	0.856873
C92	C	1.394733	0.446629	1.106873
C93	C	0.613615	-0.369679	0.335543
C94	C	0.863615	-0.119679	0.585543
C95	C	1.113615	0.130321	0.835543
C96	C	1.363615	0.380321	1.085543
C97	C	0.527970	-0.369407	0.335147
C98	C	0.777970	-0.119407	0.585147
C99	C	1.027970	0.130593	0.835147
C100	C	1.277970	0.380593	1.085147
C101	C	0.527965	-0.286547	0.435305
C102	C	0.777965	-0.036547	0.685305
C103	C	1.027965	0.213453	0.935305
C104	C	1.277965	0.463453	1.185305
C105	C	0.613615	-0.285070	0.434877
C106	C	0.863615	-0.035070	0.684877
C107	C	1.113615	0.214930	0.934877
C108	C	1.363615	0.464930	1.184877
C109	C	0.728592	-0.303364	0.356857
C110	C	0.978592	-0.053364	0.606857
C111	C	1.228592	0.196636	0.856857
C112	C	1.478592	0.446636	1.106857
C113	C	0.412491	-0.303403	0.356919
C114	C	0.662491	-0.053403	0.606919
C115	C	0.912491	0.196597	0.856919
C116	C	1.162491	0.446597	1.106919
C117	C	1.070069	-0.466925	0.356839
C118	C	1.320069	-0.216925	0.606839
C119	C	1.570069	0.033075	0.856839
C120	C	1.820069	0.283075	1.106839
C121	C	1.070095	-0.536893	0.356846
C122	C	1.320095	-0.286893	0.606846
C123	C	1.570095	-0.036893	0.856846
C124	C	1.820095	0.213107	1.106846
C125	C	1.117492	-0.569749	0.309538
C126	C	1.367492	-0.319749	0.559538
C127	C	1.617492	-0.069749	0.809538
C128	C	1.867492	0.180251	1.059538
C129	C	1.117527	-0.635491	0.309555
C130	C	1.367527	-0.385491	0.559555
C131	C	1.617527	-0.135491	0.809555
C132	C	1.867527	0.114509	1.059555
C133	C	1.070151	-0.668375	0.356871
C134	C	1.320151	-0.418375	0.606871
C135	C	1.570151	-0.168375	0.856871
C136	C	1.820151	0.081625	1.106871
C137	C	1.022751	-0.635511	0.404188
C138	C	1.272751	-0.385511	0.654188
C139	C	1.522751	-0.135511	0.904188
C140	C	1.772751	0.114489	1.154188
C141	C	1.022722	-0.569770	0.404175
C142	C	1.272722	-0.319770	0.654175
C143	C	1.522722	-0.069770	0.904175
C144	C	1.772722	0.180230	1.154175
N145	N	1.005367	-0.771637	0.362504
N146	N	1.255367	-0.521637	0.612504
N147	N	1.505367	-0.271637	0.862504
N148	N	1.755367	-0.021637	1.112504
N149	N	1.005396	-0.834089	0.362512
N150	N	1.255396	-0.584089	0.612512
N151	N	1.505396	-0.334089	0.862512
N152	N	1.755396	-0.084089	1.112512
C153	C	1.070234	-0.866450	0.356914
C154	C	1.320234	-0.616450	0.606914
C155	C	1.570234	-0.366450	0.856914
C156	C	1.820234	-0.116450	1.106914
N157	N	1.135044	-0.834001	0.351293
N158	N	1.385044	-0.584001	0.601293
N159	N	1.635044	-0.334001	0.851293
N160	N	1.885044	-0.084001	1.101293
N161	N	1.135014	-0.771543	0.351282
N162	N	1.385014	-0.521543	0.601282
N163	N	1.635014	-0.271543	0.851282
N164	N	1.885014	-0.021543	1.101282
C165	C	1.070177	-0.739661	0.356891
C166	C	1.320177	-0.489661	0.606891
C167	C	1.570177	-0.239661	0.856891
C168	C	1.820177	0.010339	1.106891
C169	C	1.117673	-0.970592	0.309622
C170	C	1.367673	-0.720592	0.559622
C171	C	1.617673	-0.470592	0.809622
C172	C	1.867673	-0.220592	1.059622
C173	C	1.117709	-1.036335	0.309644
C174	C	1.367709	-0.786335	0.559644
C175	C	1.617709	-0.536335	0.809644
C176	C	1.867709	-0.286335	1.059644
C177	C	1.022926	-1.036354	0.404273
C178	C	1.272926	-0.786354	0.654273
C179	C	1.522926	-0.536354	0.904273
C180	C	1.772926	-0.286354	1.154273
C181	C	1.022897	-0.970612	0.404255
C182	C	1.272897	-0.720612	0.654255
C183	C	1.522897	-0.470612	0.904255
C184	C	1.772897	-0.220612	1.154255
C185	C	1.070269	-0.937734	0.356925
C186	C	1.320269	-0.687734	0.606925
C187	C	1.570269	-0.437734	0.856925
C188	C	1.820269	-0.187734	1.106925
C189	C	1.263328	-0.303399	0.356919
C190	C	1.513328	-0.053399	0.606919
C191	C	1.763328	0.196601	0.856919
C192	C	2.013328	0.446601	1.106919
C193	C	1.345642	-0.303410	0.356935
C194	C	1.595642	-0.053410	0.606935
C195	C	1.845642	0.196590	0.856935
C196	C	2.095642	0.446590	1.106935
C197	C	1.070209	-0.303357	0.550042
C198	C	1.320209	-0.053357	0.800042
C199	C	1.570209	0.196643	1.050042
C200	C	1.820209	0.446643	1.300042
C201	C	1.070227	-0.303350	0.632356
C202	C	1.320227	-0.053350	0.882356
C203	C	1.570227	0.196650	1.132356
C204	C	1.820227	0.446650	1.382356
C205	C	1.070283	-0.139183	0.356937
C206	C	1.320283	0.110817	0.606937
C207	C	1.570283	0.360817	0.856937
C208	C	1.820283	0.610817	1.106937
C209	C	1.070334	-0.069215	0.356961
C210	C	1.320334	0.180785	0.606961
C211	C	1.570334	0.430785	0.856961
C212	C	1.820334	0.680785	1.106961
C213	C	1.070166	-0.303344	0.164469
C214	C	1.320166	-0.053344	0.414469
C215	C	1.570166	0.196656	0.664469
C216	C	1.820166	0.446656	0.914469
C217	C	1.070291	-0.303173	0.082155
C218	C	1.320291	-0.053173	0.332155
C219	C	1.570291	0.196827	0.582155
C220	C	1.820291	0.446827	0.832155
C221	C	1.070270	-0.303232	0.931447
C222	C	1.320270	-0.053232	1.181447
C223	C	1.570270	0.196768	1.431447
C224	C	1.820270	0.446768	1.681447
C225	C	1.012805	-0.351719	0.900093
C226	C	1.262805	-0.101719	1.150093
C227	C	1.512805	0.148281	1.400093
C228	C	1.762805	0.398281	1.650093
C229	C	1.012960	-0.351944	0.814475
C230	C	1.262960	-0.101944	1.064475
C231	C	1.512960	0.148056	1.314475
C232	C	1.762960	0.398056	1.564475
C233	C	1.070248	-0.303291	0.783064
C234	C	1.320248	-0.053291	1.033064
C235	C	1.570248	0.196709	1.283064
C236	C	1.820248	0.446709	1.533064
C237	C	1.148274	-0.321303	0.814168
C238	C	1.398274	-0.071303	1.064168
C239	C	1.648274	0.178697	1.314168
C240	C	1.898274	0.428697	1.564168
C241	C	1.147953	-0.321621	0.899813
C242	C	1.397953	-0.071621	1.149813
C243	C	1.647953	0.178379	1.399813
C244	C	1.897953	0.428379	1.649813
C245	C	1.050388	-0.236626	0.899877
C246	C	1.300388	0.013374	1.149877
C247	C	1.550388	0.263374	1.399877
C248	C	1.800388	0.513374	1.649877
C249	C	1.048652	-0.237011	0.814226
C250	C	1.298652	0.012989	1.064226
C251	C	1.548652	0.262989	1.314226
C252	C	1.798652	0.512989	1.564226
C253	C	1.070240	-0.303323	0.699205
C254	C	1.320240	-0.053323	0.949205
C255	C	1.570240	0.196677	1.199205
C256	C	1.820240	0.446677	1.449205
C257	C	1.070283	-0.303202	1.015306
C258	C	1.320283	-0.053202	1.265306
C259	C	1.570283	0.196798	1.515306
C260	C	1.820283	0.446798	1.765306
H261	H	0.633745	-0.265769	0.241630
H262	H	0.883745	-0.015769	0.491630
H263	H	1.133745	0.234231	0.741630
H264	H	1.383745	0.484231	0.991630
H265	H	0.991232	-0.223428	0.793895
H266	H	1.241232	0.026572	1.043895
H267	H	1.491232	0.276572	1.293895
H268	H	1.741232	0.526572	1.543895
H269	H	1.025801	-0.400788	0.921614
H270	H	1.275801	-0.150788	1.171614
H271	H	1.525801	0.099212	1.421614
H272	H	1.775801	0.349212	1.671614
F273	F	0.972446	-0.935642	0.454604
F274	F	1.222446	-0.685642	0.704604
F275	F	1.472446	-0.435642	0.954604
F276	F	1.722446	-0.185642	1.204604
F277	F	1.099373	-0.187285	0.786288
F278	F	1.349373	0.062715	1.036288
F279	F	1.599373	0.312715	1.286288
F280	F	1.849373	0.562715	1.536288
H281	H	0.507249	-0.407065	0.374809
H282	H	0.757249	-0.157065	0.624809
H283	H	1.007249	0.092935	0.874809
H284	H	1.257249	0.342935	1.124809
H285	H	1.156310	-1.063086	0.271122
H286	H	1.406310	-0.813086	0.521122
H287	H	1.656310	-0.563086	0.771122
H288	H	1.906310	-0.313086	1.021122
F289	F	0.977312	-0.215178	0.928090
F290	F	1.227312	0.034822	1.178090
F291	F	1.477312	0.284822	1.428090
F292	F	1.727312	0.534822	1.678090
H293	H	0.635030	-0.384213	0.278847
H294	H	0.885030	-0.134213	0.528847
H295	H	1.135030	0.115787	0.778847
H296	H	1.385030	0.365787	1.028847
F297	F	1.030152	-0.416468	0.787694
F298	F	1.280152	-0.166468	1.037694
F299	F	1.530152	0.083532	1.287694
F300	F	1.780152	0.333532	1.537694
H301	H	1.092243	-0.200501	0.920156
H302	H	1.342243	0.049499	1.170156
H303	H	1.592243	0.299499	1.420156
H304	H	1.842243	0.549499	1.670156
H305	H	0.507959	-0.383693	0.277832
H306	H	0.757959	-0.133693	0.527832
H307	H	1.007959	0.116307	0.777832
H308	H	1.257959	0.366307	1.027832
F309	F	1.169983	-0.385263	0.925930
F310	F	1.419983	-0.135263	1.175930
F311	F	1.669983	0.114737	1.425930
F312	F	1.919983	0.364737	1.675930
F313	F	1.205782	-0.277438	0.926929
F314	F	1.455782	-0.027438	1.176929
F315	F	1.705782	0.222562	1.426929
F316	F	1.955782	0.472562	1.676929
H317	H	1.156249	-0.943822	0.271085
H318	H	1.406249	-0.693822	0.521085
H319	H	1.656249	-0.443822	0.771085
H320	H	1.906249	-0.193822	1.021085
H321	H	1.192239	-0.287098	0.793825
H322	H	1.442239	-0.037098	1.043825
H323	H	1.692239	0.212902	1.293825
H324	H	1.942239	0.462902	1.543825
H325	H	0.635021	-0.318083	0.479573
H326	H	0.885021	-0.068083	0.729573
H327	H	1.135021	0.181917	0.979573
H328	H	1.385021	0.431917	1.229573
H329	H	0.955101	-0.340671	0.793443
H330	H	1.205101	-0.090671	1.043443
H331	H	1.455101	0.159329	1.293443
H332	H	1.705101	0.409329	1.543443
F333	F	0.640794	-0.190366	0.317200
F334	F	0.890794	0.059634	0.567200
F335	F	1.140794	0.309634	0.817200
F336	F	1.390794	0.559634	1.067200
H337	H	0.507102	-0.205183	0.313191
H338	H	0.757102	0.044817	0.563191
H339	H	1.007102	0.294817	0.813191
H340	H	1.257102	0.544817	1.063191
F341	F	0.499494	-0.268882	0.224478
F342	F	0.749494	-0.018882	0.474478
F343	F	0.999494	0.231118	0.724478
F344	F	1.249494	0.481118	0.974478
F345	F	0.640225	-0.418564	0.388054
F346	F	0.890225	-0.168564	0.638054
F347	F	1.140225	0.081436	0.888054
F348	F	1.390225	0.331436	1.138054
F349	F	0.972509	-1.071347	0.454635
F350	F	1.222509	-0.821347	0.704635
F351	F	1.472509	-0.571347	0.954635
F352	F	1.722509	-0.321347	1.204635
H353	H	0.954772	-0.340562	0.920680
H354	H	1.204772	-0.090562	1.170680
H355	H	1.454772	0.159438	1.420680
H356	H	1.704772	0.409438	1.670680
H357	H	0.506392	-0.239037	0.454697
H358	H	0.756392	0.010963	0.704697
H359	H	1.006392	0.260963	0.954697
H360	H	1.256392	0.510963	1.204697
H361	H	0.633959	-0.236275	0.450961
H362	H	0.883959	0.013725	0.700961
H363	H	1.133959	0.263725	0.950961
H364	H	1.383959	0.513725	1.200961
F365	F	1.167919	-0.534762	0.259174
F366	F	1.417919	-0.284762	0.509174
F367	F	1.667919	-0.034762	0.759174
F368	F	1.917919	0.215238	1.009174
F369	F	0.501489	-0.333088	0.490756
F370	F	0.751489	-0.083088	0.740756
F371	F	1.001489	0.166912	0.990756
F372	F	1.251489	0.416912	1.240756
F373	F	1.167975	-0.670466	0.259201
F374	F	1.417975	-0.420466	0.509201
F375	F	1.667975	-0.170466	0.759201
F376	F	1.917975	0.079534	1.009201
H377	H	0.984178	-0.662290	0.442715
H378	H	1.234178	-0.412290	0.692715
H379	H	1.484178	-0.162290	0.942715
H380	H	1.734178	0.087710	1.192715
F381	F	0.972274	-0.534801	0.454529
F382	F	1.222274	-0.284801	0.704529
F383	F	1.472274	-0.034801	0.954529
F384	F	1.722274	0.215199	1.204529
F385	F	1.170687	-0.384268	0.786138
F386	F	1.420687	-0.134268	1.036138
F387	F	1.670687	0.115732	1.286138
F388	F	1.920687	0.365732	1.536138
