data_functionalizedCrystal
_audit_creation_method	'MofGen! by Chris Wilmer'
_symmetry_space_group_name_H-M	'P1'
_symmetry_Int_Tables_number	1
_symmetry_cell_setting	triclinic
loop_
_symmetry_equiv_pos_as_xyz
  x,y,z
_cell_length_a	19.076919
_cell_length_b	11.169417
_cell_length_c	19.076808
_cell_angle_alpha	92.324435
_cell_angle_beta	90.121640
_cell_angle_gamma	87.715726
loop_
_atom_site_label
_atom_site_type_symbol
_atom_site_fract_x
_atom_site_fract_y
_atom_site_fract_z
Zn1	Zn	-0.385996	-1.788059	0.295724
Zn2	Zn	-0.263765	-1.788565	0.408519
Zn3	Zn	-0.268510	-1.595738	0.291025
Zn4	Zn	-0.381239	-1.579578	0.413203
O5	O	-0.324877	-1.687985	0.352118
O6	O	-0.369786	-1.956075	0.310693
O7	O	-0.166063	-1.769961	0.389006
O8	O	-0.288071	-1.627801	0.193312
O9	O	-0.279984	-1.956447	0.393563
O10	O	-0.374387	-1.769099	0.196764
O11	O	-0.169549	-1.628291	0.302684
O12	O	-0.283459	-1.425645	0.307226
O13	O	-0.480201	-1.600259	0.401546
O14	O	-0.366280	-1.413773	0.396989
O15	O	-0.483696	-1.753429	0.315235
O16	O	-0.275372	-1.754291	0.507477
O17	O	-0.361679	-1.600749	0.510918
C18	C	-0.324869	-1.376162	0.352107
C19	C	-0.324881	-1.242760	0.352120
C20	C	-0.508158	-1.674985	0.359437
C21	C	-0.586261	-1.669445	0.362556
C22	C	-0.317510	-1.675853	0.534696
C23	C	-0.314381	-1.670771	0.612804
C24	C	-0.624774	-1.746586	0.319086
C25	C	-0.698161	-1.741366	0.322013
C26	C	-0.733032	-1.659011	0.368416
C27	C	-0.694513	-1.581862	0.411888
C28	C	-0.621128	-1.587076	0.408956
C29	C	-0.952314	-1.634858	0.382000
C30	C	-1.025704	-1.629651	0.384930
C31	C	-1.029346	-1.789155	0.295054
C32	C	-0.955960	-1.794368	0.292129
C33	C	-0.917448	-1.717214	0.335599
N34	N	-0.808044	-1.653676	0.371411
N35	N	-0.842437	-1.722544	0.332599
C36	C	-0.142312	-1.701007	0.344776
C37	C	-0.064217	-1.706792	0.341460
C38	C	-0.324886	-2.001026	0.352129
C39	C	-0.324890	-2.134425	0.352134
C40	C	-0.332289	-1.700196	0.168827
C41	C	-0.335448	-1.705400	0.090720
C42	C	-0.357888	-1.741889	0.651238
C43	C	-0.354950	-1.737109	0.724629
C44	C	-0.308501	-1.661216	0.759585
C45	C	-0.264992	-1.590089	0.721146
C46	C	-0.267934	-1.594864	0.647756
C47	C	-0.294881	-1.639048	0.978891
C48	C	-0.291941	-1.634282	1.052286
C49	C	-0.381900	-1.781300	1.055764
C50	C	-0.384835	-1.786073	0.982373
C51	C	-0.341329	-1.714942	0.943940
N52	N	-0.305495	-1.656331	0.834603
N53	N	-0.344339	-1.719822	0.868924
H54	H	-0.596388	-1.813653	0.281302
H55	H	-0.259456	-1.581133	0.947605
O56	O	-0.221006	-1.518157	0.606303
H57	H	-0.230860	-1.534217	0.549398
H58	H	-0.227175	-1.528290	0.749613
H59	H	-0.729515	-1.804185	0.286617
H60	H	-0.417321	-1.839209	1.087064
H61	H	-0.254116	-1.572475	1.080745
O62	O	-0.910785	-1.551648	0.428888
H63	H	-0.853897	-1.569092	0.419051
O64	O	-0.579583	-1.503874	0.455839
H65	H	-0.547426	-1.447284	0.423040
H66	H	-0.927573	-1.861434	0.254346
H67	H	-0.395709	-1.803695	0.622782
O68	O	-1.070883	-1.872335	0.248150
H69	H	-1.127771	-1.854861	0.257972
H70	H	-1.054094	-1.562584	0.422718
H71	H	-0.722911	-1.514802	0.449667
H72	H	-0.390372	-1.795031	0.755919
H73	H	-0.422657	-1.847871	0.953913
