data_functionalizedCrystal
_audit_creation_method	'MofGen! by Chris Wilmer'
_symmetry_space_group_name_H-M	'P1'
_symmetry_Int_Tables_number	1
_symmetry_cell_setting	triclinic
loop_
_symmetry_equiv_pos_as_xyz
  x,y,z
_cell_length_a	21.395362
_cell_length_b	18.050590
_cell_length_c	21.395355
_cell_angle_alpha	90.018036
_cell_angle_beta	90.043940
_cell_angle_gamma	90.034430
loop_
_atom_site_label
_atom_site_type_symbol
_atom_site_fract_x
_atom_site_fract_y
_atom_site_fract_z
Zn1	Zn	0.957912	-0.295431	0.354588
Zn2	Zn	1.457912	0.204569	0.854588
Zn3	Zn	0.957837	-0.419603	0.249811
Zn4	Zn	1.457837	0.080397	0.749811
Zn5	Zn	0.853127	-0.295465	0.249789
Zn6	Zn	1.353127	0.204535	0.749789
Zn7	Zn	0.853119	-0.419618	0.354516
Zn8	Zn	1.353119	0.080382	0.854516
O9	O	0.905499	-0.357529	0.302176
O10	O	1.405499	0.142471	0.802176
O11	O	1.045580	-0.311881	0.340728
O12	O	1.545580	0.188119	0.840728
O13	O	0.943919	-0.403143	0.162130
O14	O	1.443919	0.096857	0.662130
O15	O	0.867062	-0.191536	0.263712
O16	O	1.367062	0.308464	0.763712
O17	O	1.045525	-0.403110	0.263749
O18	O	1.545525	0.096890	0.763749
O19	O	0.944048	-0.191511	0.340707
O20	O	1.444048	0.308489	0.840707
O21	O	0.866989	-0.311940	0.162114
O22	O	1.366989	0.188060	0.662114
O23	O	0.765448	-0.311955	0.263642
O24	O	1.265448	0.188045	0.763642
O25	O	0.867048	-0.403136	0.442203
O26	O	1.367048	0.096864	0.942203
O27	O	0.765442	-0.403170	0.340584
O28	O	1.265442	0.096830	0.840584
O29	O	0.944039	-0.311896	0.442256
O30	O	1.444039	0.188104	0.942256
O31	O	0.943911	-0.523529	0.263680
O32	O	1.443911	-0.023529	0.763680
O33	O	0.866975	-0.523540	0.340606
O34	O	1.366975	-0.023540	0.840606
C35	C	0.742711	-0.357568	0.302103
C36	C	1.242711	0.142432	0.802103
C37	C	0.673070	-0.357603	0.302087
C38	C	1.173070	0.142397	0.802087
C39	C	0.640370	-0.405161	0.342091
C40	C	1.140370	0.094839	0.842091
C41	C	0.574935	-0.405143	0.342119
C42	C	1.074935	0.094857	0.842119
C43	C	0.542202	-0.357574	0.302132
C44	C	1.042202	0.142426	0.802132
C45	C	0.574910	-0.310007	0.262125
C46	C	1.074910	0.189993	0.762125
C47	C	0.640344	-0.310021	0.262103
C48	C	1.140344	0.189979	0.762103
C49	C	0.438476	-0.351592	0.245726
C50	C	0.938476	0.148408	0.745726
C51	C	0.373043	-0.351583	0.245748
C52	C	0.873043	0.148417	0.745748
C53	C	0.340381	-0.357526	0.302201
C54	C	0.840381	0.142474	0.802201
C55	C	0.373160	-0.363494	0.358634
C56	C	0.873160	0.136506	0.858634
C57	C	0.438594	-0.363508	0.358612
C58	C	0.938594	0.136492	0.858612
C59	C	0.471249	-0.357553	0.302152
C60	C	0.971249	0.142447	0.802152
C61	C	0.236728	-0.405067	0.342238
C62	C	0.736728	0.094933	0.842238
C63	C	0.171292	-0.405044	0.342267
C64	C	0.671292	0.094956	0.842267
C65	C	0.171268	-0.309911	0.262268
C66	C	0.671268	0.190089	0.762268
C67	C	0.236703	-0.309931	0.262245
C68	C	0.736703	0.190069	0.762245
C69	C	0.269430	-0.357513	0.302229
C70	C	0.769430	0.142487	0.802229
C71	C	0.905451	-0.550481	0.302151
C72	C	1.405451	-0.050481	0.802151
C73	C	0.905487	-0.633027	0.302161
C74	C	1.405487	-0.133027	0.802161
C75	C	0.947412	-0.832444	0.260387
C76	C	1.447412	-0.332444	0.760387
C77	C	0.962722	-0.881784	0.317576
C78	C	1.462722	-0.381784	0.817576
C79	C	0.905523	-0.784157	0.302186
C80	C	1.405523	-0.284157	0.802186
C81	C	0.890277	-0.881899	0.245023
C82	C	1.390277	-0.381899	0.745023
C83	C	0.905559	-0.930142	0.302205
C84	C	1.405559	-0.430142	0.802205
C85	C	0.920862	-0.832410	0.359405
C86	C	1.420862	-0.332410	0.859405
C87	C	0.848390	-0.832520	0.286813
C88	C	1.348390	-0.332520	0.786813
C89	C	0.863678	-0.881838	0.344042
C90	C	1.363678	-0.381838	0.844042
C91	C	0.905504	-0.700059	0.302174
C92	C	1.405504	-0.200059	0.802174
C93	C	0.905577	-1.014239	0.302224
C94	C	1.405577	-0.514239	0.802224
C95	C	1.068922	-0.357490	0.302249
C96	C	1.568922	0.142510	0.802249
C97	C	1.138563	-0.357474	0.302281
C98	C	1.638563	0.142526	0.802281
C99	C	0.905551	-0.357514	0.465599
C100	C	1.405551	0.142486	0.965599
C101	C	0.905573	-0.357508	0.535241
C102	C	1.405573	0.142492	1.035241
C103	C	0.905564	-0.163823	0.302215
C104	C	1.405564	0.336177	0.802215
C105	C	0.905592	-0.081278	0.302231
C106	C	1.405592	0.418722	0.802231
C107	C	0.905483	-0.357490	0.139388
C108	C	1.405483	0.142510	0.639388
C109	C	0.905582	-0.357288	0.069747
C110	C	1.405582	0.142712	0.569747
C111	C	0.945661	-0.309997	0.567982
C112	C	1.445661	0.190003	1.067982
C113	C	0.945660	-0.309965	0.633418
C114	C	1.445660	0.190035	1.133418
C115	C	0.905578	-0.357457	0.666109
C116	C	1.405578	0.142543	1.166109
C117	C	0.865482	-0.404971	0.633359
C118	C	1.365482	0.095029	1.133359
C119	C	0.865480	-0.404996	0.567925
C120	C	1.365480	0.095004	1.067925
C121	C	0.900614	-0.424328	0.769773
C122	C	1.400614	0.075672	1.269773
C123	C	0.900621	-0.424304	0.835206
C124	C	1.400621	0.075696	1.335206
C125	C	0.905582	-0.357379	0.867930
C126	C	1.405582	0.142621	1.367930
C127	C	0.910549	-0.290475	0.835212
C128	C	1.410549	0.209525	1.335212
C129	C	0.910547	-0.290501	0.769778
C130	C	1.410547	0.209499	1.269778
C131	C	0.905576	-0.357434	0.737061
C132	C	1.405576	0.142566	1.237061
C133	C	0.945671	-0.309829	0.971624
C134	C	1.445671	0.190171	1.471624
C135	C	0.945665	-0.309796	1.037061
C136	C	1.445665	0.190204	1.537061
C137	C	0.865491	-0.404808	1.037001
C138	C	1.365491	0.095192	1.537001
C139	C	0.865493	-0.404835	0.971566
C140	C	1.365493	0.095165	1.471566
C141	C	0.905586	-0.357346	0.938881
C142	C	1.405586	0.142654	1.438881
H143	H	0.346568	-0.368332	0.404604
H144	H	0.846568	0.131668	0.904604
H145	H	0.828269	-0.903388	0.379439
H146	H	1.328269	-0.403388	0.879439
F147	F	0.873402	-0.910313	0.181826
F148	F	1.373402	-0.410313	0.681826
H149	H	0.896580	-0.478780	0.861840
H150	H	1.396580	0.021220	1.361840
F151	F	0.271560	-0.455703	0.384795
F152	F	0.771560	0.044297	0.884795
F153	F	1.025896	-0.910059	0.334597
F154	F	1.525896	-0.410059	0.834597
H155	H	0.465280	-0.368366	0.404562
H156	H	0.965280	0.131634	0.904562
F157	F	0.785233	-0.804215	0.269782
F158	F	1.285233	-0.304215	0.769782
H159	H	0.263328	-0.271207	0.229666
H160	H	0.763328	0.228793	0.729666
F161	F	0.338163	-0.345231	0.185687
F162	F	0.838163	0.154769	0.685687
F163	F	0.915832	-0.219243	0.870034
F164	F	1.415832	0.280757	1.370034
F165	F	0.988318	-0.259384	0.668271
F166	F	1.488318	0.240616	1.168271
H167	H	0.548305	-0.443870	0.374697
H168	H	1.048305	0.056130	0.874697
F169	F	0.915830	-0.219300	0.734960
F170	F	1.415830	0.280700	1.234960
H171	H	0.978307	-0.271327	0.541374
H172	H	1.478307	0.228673	1.041374
F173	F	0.993728	-0.804095	0.214232
F174	F	1.493728	-0.304095	0.714232
F175	F	0.895348	-0.495565	0.734953
F176	F	1.395348	0.004435	1.234953
H177	H	0.144669	-0.443770	0.374847
H178	H	0.644669	0.056230	0.874847
H179	H	0.978313	-0.271157	0.945011
H180	H	1.478313	0.228843	1.445011
H181	H	0.144618	-0.271177	0.229712
H182	H	0.644618	0.228823	0.729712
F183	F	0.473231	-0.345267	0.185637
F184	F	0.973231	0.154733	0.685637
F185	F	0.675146	-0.259401	0.219523
F186	F	1.175146	0.240599	0.719523
H187	H	0.978309	-0.271103	1.063718
H188	H	1.478309	0.228897	1.563718
F189	F	0.822822	-0.455513	0.668153
F190	F	1.322822	0.044487	1.168153
H191	H	0.832849	-0.443470	1.063618
H192	H	1.332849	0.056530	1.563618
H193	H	0.933724	-0.810764	0.407797
H194	H	1.433724	-0.310764	0.907797
H195	H	0.832833	-0.443684	0.541267
H196	H	1.332833	0.056316	1.041267
F197	F	0.675196	-0.455800	0.384648
F198	F	1.175196	0.044200	0.884648
F199	F	0.540072	-0.259378	0.219570
F200	F	1.040072	0.240622	0.719570
F201	F	0.822828	-0.455406	0.936718
F202	F	1.322828	0.044594	1.436718
