data_functionalizedCrystal
_audit_creation_method	'MofGen! by Chris Wilmer'
_symmetry_space_group_name_H-M	'P1'
_symmetry_Int_Tables_number	1
_symmetry_cell_setting	triclinic
loop_
_symmetry_equiv_pos_as_xyz
  x,y,z
_cell_length_a	17.077404
_cell_length_b	16.625546
_cell_length_c	17.077396
_cell_angle_alpha	89.968950
_cell_angle_beta	89.982756
_cell_angle_gamma	90.022693
loop_
_atom_site_label
_atom_site_type_symbol
_atom_site_fract_x
_atom_site_fract_y
_atom_site_fract_z
Zn1	Zn	1.200039	-0.320990	-0.443833
Zn2	Zn	1.533373	0.012343	-0.110500
Zn3	Zn	1.866706	0.345677	0.222833
Zn4	Zn	1.199953	-0.455835	-0.312563
Zn5	Zn	1.533286	-0.122501	0.020770
Zn6	Zn	1.866619	0.210832	0.354103
Zn7	Zn	1.068776	-0.321020	-0.312581
Zn8	Zn	1.402110	0.012313	0.020752
Zn9	Zn	1.735443	0.345646	0.354085
Zn10	Zn	1.068740	-0.455785	-0.443787
Zn11	Zn	1.402074	-0.122452	-0.110454
Zn12	Zn	1.735407	0.210882	0.222880
O13	O	1.134377	-0.388408	-0.378191
O14	O	1.467710	-0.055074	-0.044858
O15	O	1.801044	0.278259	0.288476
O16	O	1.309875	-0.338886	-0.426432
O17	O	1.643208	-0.005552	-0.093099
O18	O	1.976541	0.327781	0.240235
O19	O	1.182531	-0.437985	-0.202719
O20	O	1.515864	-0.104652	0.130615
O21	O	1.849197	0.228682	0.463948
O22	O	1.086240	-0.208184	-0.330019
O23	O	1.419574	0.125149	0.003314
O24	O	1.752907	0.458483	0.336648
O25	O	1.309811	-0.437956	-0.329988
O26	O	1.643144	-0.104622	0.003345
O27	O	1.976478	0.228711	0.336678
O28	O	1.182679	-0.208162	-0.426449
O29	O	1.516012	0.125172	-0.093116
O30	O	1.849345	0.458505	0.240217
O31	O	1.086156	-0.338937	-0.202732
O32	O	1.419489	-0.005604	0.130601
O33	O	1.752823	0.327729	0.463935
O34	O	0.958925	-0.338889	-0.329974
O35	O	1.292258	-0.005556	0.003359
O36	O	1.625591	0.327778	0.336693
O37	O	1.086178	-0.437871	-0.553640
O38	O	1.419512	-0.104537	-0.220307
O39	O	1.752845	0.228796	0.113027
O40	O	0.958898	-0.437900	-0.426370
O41	O	1.292231	-0.104567	-0.093037
O42	O	1.625565	0.228767	0.240296
O43	O	1.182643	-0.338837	-0.553674
O44	O	1.515977	-0.005504	-0.220341
O45	O	1.849310	0.327829	0.112993
O46	O	1.182496	-0.568661	-0.329943
O47	O	1.515829	-0.235327	0.003390
O48	O	1.849162	0.098006	0.336723
O49	O	1.086094	-0.568624	-0.426353
O50	O	1.419428	-0.235291	-0.093020
O51	O	1.752761	0.098043	0.240314
C52	C	0.930429	-0.388393	-0.378169
C53	C	1.263763	-0.055060	-0.044836
C54	C	1.597096	0.278274	0.288497
C55	C	0.843180	-0.388406	-0.378179
C56	C	1.176513	-0.055073	-0.044845
C57	C	1.509846	0.278261	0.288488
C58	C	0.802196	-0.440039	-0.428292
C59	C	1.135529	-0.106706	-0.094959
C60	C	1.468863	0.226628	0.238375
C61	C	0.720216	-0.440041	-0.428304
C62	C	1.053549	-0.106707	-0.094971
C63	C	1.386882	0.226626	0.238362
C64	C	0.679220	-0.388413	-0.378199
C65	C	1.012553	-0.055080	-0.044866
C66	C	1.345887	0.278254	0.288467
C67	C	0.720209	-0.336775	-0.328084
C68	C	1.053543	-0.003441	0.005249
C69	C	1.386876	0.329892	0.338582
C70	C	0.802188	-0.336769	-0.328076
C71	C	1.135522	-0.003436	0.005257
C72	C	1.468855	0.329897	0.338590
C73	C	0.549339	-0.336790	-0.328103
C74	C	0.882673	-0.003457	0.005230
C75	C	1.216006	0.329876	0.338564
C76	C	0.467355	-0.336797	-0.328110
C77	C	0.800688	-0.003463	0.005224
C78	C	1.134021	0.329870	0.338557
C79	C	0.467367	-0.440062	-0.428331
C80	C	0.800700	-0.106728	-0.094998
C81	C	1.134033	0.226605	0.238335
C82	C	0.549346	-0.440057	-0.428323
C83	C	0.882679	-0.106723	-0.094990
C84	C	1.216012	0.226610	0.238343
C85	C	0.590329	-0.388419	-0.378207
C86	C	0.923662	-0.055086	-0.044873
C87	C	1.256996	0.278248	0.288460
C88	C	1.134303	-0.597898	-0.378158
C89	C	1.467636	-0.264565	-0.044825
C90	C	1.800970	0.068768	0.288508
C91	C	1.134343	-0.687520	-0.378170
C92	C	1.467676	-0.354186	-0.044837
C93	C	1.801010	-0.020853	0.288496
C94	C	1.134480	-1.015695	-0.378252
C95	C	1.467813	-0.682362	-0.044919
C96	C	1.801147	-0.349028	0.288414
C97	C	1.134439	-0.924387	-0.378232
C98	C	1.467773	-0.591053	-0.044898
C99	C	1.801106	-0.257720	0.288435
C100	C	1.134411	-0.851610	-0.378211
C101	C	1.467744	-0.518277	-0.044878
C102	C	1.801077	-0.184944	0.288456
C103	C	1.134371	-0.760296	-0.378191
C104	C	1.467705	-0.426963	-0.044858
C105	C	1.801038	-0.093629	0.288475
C106	C	1.339121	-0.388423	-0.378213
C107	C	1.672455	-0.055090	-0.044880
C108	C	2.005788	0.278244	0.288453
C109	C	1.426371	-0.388429	-0.378223
C110	C	1.759705	-0.055096	-0.044889
C111	C	2.093038	0.278237	0.288444
C112	C	1.134417	-0.388345	-0.582936
C113	C	1.467750	-0.055012	-0.249602
C114	C	1.801083	0.278322	0.083731
C115	C	1.134433	-0.388319	-0.670185
C116	C	1.467767	-0.054985	-0.336852
C117	C	1.801100	0.278348	-0.003519
C118	C	1.134473	-0.178099	-0.378241
C119	C	1.467806	0.155235	-0.044908
C120	C	1.801140	0.488568	0.288425
C121	C	1.134514	-0.088478	-0.378263
C122	C	1.467847	0.244856	-0.044929
C123	C	1.801181	0.578189	0.288404
C124	C	1.084266	-0.336738	-0.711182
C125	C	1.417600	-0.003405	-0.377848
C126	C	1.750933	0.329928	-0.044515
C127	C	1.084279	-0.336720	-0.793162
C128	C	1.417613	-0.003387	-0.459829
C129	C	1.750946	0.329947	-0.126496
C130	C	1.134464	-0.388278	-0.834145
C131	C	1.467797	-0.054945	-0.500812
C132	C	1.801130	0.278388	-0.167478
C133	C	1.184633	-0.439864	-0.793143
C134	C	1.517966	-0.106531	-0.459809
C135	C	1.851299	0.226802	-0.126476
C136	C	1.184615	-0.439886	-0.711164
C137	C	1.517949	-0.106553	-0.377830
C138	C	1.851282	0.226781	-0.044497
C139	C	1.184667	-0.439814	-0.964013
C140	C	1.518000	-0.106481	-0.630680
C141	C	1.851333	0.226853	-0.297346
C142	C	1.184685	-0.439791	-1.045998
C143	C	1.518019	-0.106458	-0.712664
C144	C	1.851352	0.226875	-0.379331
C145	C	1.084331	-0.336648	-1.046011
C146	C	1.417664	-0.003314	-0.712678
C147	C	1.750997	0.330019	-0.379345
C148	C	1.084313	-0.336670	-0.964032
C149	C	1.417647	-0.003336	-0.630699
C150	C	1.750980	0.329997	-0.297366
C151	C	1.134484	-0.388255	-0.923036
C152	C	1.467817	-0.054921	-0.589703
C153	C	1.801150	0.278412	-0.256369
C154	C	1.134383	-0.388412	-0.174243
C155	C	1.467716	-0.055078	0.159090
C156	C	1.801050	0.278255	0.492423
C157	C	1.134518	-0.388211	-0.086994
C158	C	1.467852	-0.054878	0.246339
C159	C	1.801185	0.278456	0.579673
H160	H	0.582706	-0.294734	-0.287300
H161	H	0.916039	0.038599	0.046033
H162	H	1.249372	0.371932	0.379367
H163	H	1.043405	-0.294749	-0.677820
H164	H	1.376738	0.038585	-0.344486
H165	H	1.710072	0.371918	-0.011153
H166	H	1.043425	-0.294721	-0.826538
H167	H	1.376759	0.038612	-0.493205
H168	H	1.710092	0.371945	-0.159871
H169	H	1.043481	-0.294644	-1.079395
H170	H	1.376814	0.038689	-0.746061
H171	H	1.710148	0.372022	-0.412728
H172	H	1.043452	-0.294682	-0.930667
H173	H	1.376786	0.038651	-0.597333
H174	H	1.710119	0.371984	-0.264000
H175	H	1.225550	-0.481775	-1.079363
H176	H	1.558883	-0.148441	-0.746030
H177	H	1.892216	0.184892	-0.412697
N178	N	1.235914	-0.492516	-0.922147
N179	N	1.569248	-0.159183	-0.588814
N180	N	1.902581	0.174150	-0.255480
N181	N	1.280720	-0.538546	-0.958745
N182	N	1.614053	-0.205213	-0.625412
N183	N	1.947386	0.128121	-0.292079
H184	H	1.316915	-0.575765	-0.929178
H185	H	1.650248	-0.242432	-0.595845
H186	H	1.983582	0.090902	-0.262511
N187	N	1.235896	-0.492515	-0.835021
N188	N	1.569229	-0.159182	-0.501687
N189	N	1.902562	0.174151	-0.168354
N190	N	1.285935	-0.464128	-0.880777
N191	N	1.619268	-0.130794	-0.547444
N192	N	1.952601	0.202539	-0.214110
H193	H	1.322142	-0.501310	-0.910355
H194	H	1.655476	-0.167976	-0.577022
H195	H	1.988809	0.165357	-0.243689
H196	H	0.835569	-0.482083	-0.469091
H197	H	1.168902	-0.148750	-0.135757
H198	H	1.502235	0.184584	0.197576
N199	N	0.591211	-0.492804	-0.479501
N200	N	0.924544	-0.159471	-0.146168
N201	N	1.257878	0.173863	0.187165
N202	N	0.554612	-0.538905	-0.524243
N203	N	0.887945	-0.205571	-0.190910
N204	N	1.221278	0.127762	0.142424
H205	H	0.584179	-0.576158	-0.560389
H206	H	0.917512	-0.242825	-0.227056
H207	H	1.250845	0.090508	0.106277
H208	H	0.835556	-0.294720	-0.287273
H209	H	1.168889	0.038613	0.046060
H210	H	1.502223	0.371946	0.379394
N211	N	0.678364	-0.492783	-0.479503
N212	N	1.011698	-0.159449	-0.146170
N213	N	1.345031	0.173884	0.187163
N214	N	0.714977	-0.538876	-0.524235
N215	N	1.048310	-0.205543	-0.190901
N216	N	1.381643	0.127791	0.142432
H217	H	0.685420	-0.576127	-0.560398
H218	H	1.018754	-0.242793	-0.227065
H219	H	1.352087	0.090540	0.106268
N220	N	0.425495	-0.492812	-0.479512
N221	N	0.758829	-0.159479	-0.146179
N222	N	1.092162	0.173854	0.187155
N223	N	0.352301	-0.492815	-0.479512
N224	N	0.685634	-0.159482	-0.146179
N225	N	1.018967	0.173852	0.187155
H226	H	0.322725	-0.530073	-0.515652
H227	H	0.656058	-0.196740	-0.182319
H228	H	0.989391	0.136593	0.151015
N229	N	0.425489	-0.284053	-0.276928
N230	N	0.758823	0.049280	0.056406
N231	N	1.092156	0.382613	0.389739
N232	N	0.462088	-0.237947	-0.232192
N233	N	0.795422	0.095387	0.101141
N234	N	1.128755	0.428720	0.434475
H235	H	0.432522	-0.200694	-0.196045
H236	H	0.765855	0.132639	0.137289
H237	H	1.099188	0.465973	0.470622
N238	N	0.678336	-0.284026	-0.276915
N239	N	1.011669	0.049308	0.056419
N240	N	1.345002	0.382641	0.389752
N241	N	0.632619	-0.232684	-0.304629
N242	N	0.965952	0.100649	0.028704
N243	N	1.299285	0.433982	0.362037
H244	H	0.603046	-0.195429	-0.268489
H245	H	0.936379	0.137904	0.064844
H246	H	1.269713	0.471237	0.398177
H247	H	1.225472	-0.481882	-0.677785
H248	H	1.558806	-0.148549	-0.344452
H249	H	1.892139	0.184785	-0.011119
