data_functionalizedCrystal
_audit_creation_method	'MofGen! by Chris Wilmer'
_symmetry_space_group_name_H-M	'P1'
_symmetry_Int_Tables_number	1
_symmetry_cell_setting	triclinic
loop_
_symmetry_equiv_pos_as_xyz
  x,y,z
_cell_length_a	17.699097
_cell_length_b	15.944493
_cell_length_c	16.776229
_cell_angle_alpha	89.999222
_cell_angle_beta	89.989262
_cell_angle_gamma	83.381738
loop_
_atom_site_label
_atom_site_type_symbol
_atom_site_fract_x
_atom_site_fract_y
_atom_site_fract_z
O1	O	1.004234	0.106278	-0.066344
O2	O	0.783878	0.120086	-0.066330
O3	O	0.900096	-0.009109	-0.066344
O4	O	0.888015	0.235473	-0.066330
O5	O	0.900081	-0.009116	0.066233
O6	O	0.783862	0.120078	0.066247
O7	O	1.004218	0.106270	0.066232
Zn8	Zn	0.894038	0.113173	0.087289
Zn9	Zn	0.894058	0.113183	-0.087386
O10	O	0.888000	0.235465	0.066247
C11	C	0.755672	0.119586	-0.000040
C12	C	0.671653	0.118096	-0.000035
C13	C	0.155929	0.108967	-0.072335
C14	C	0.234875	0.110361	-0.072331
C15	C	0.274334	0.111055	-0.000060
C16	C	0.234843	0.110346	0.072211
C17	C	0.155899	0.108946	0.072206
C18	C	0.553216	0.115993	0.072232
C19	C	0.632165	0.117395	0.072232
C20	C	0.632192	0.117407	-0.072305
C21	C	0.553248	0.116007	-0.072310
C22	C	0.513764	0.115294	-0.000039
C23	C	0.428162	0.113781	-0.000044
C24	C	0.359934	0.112575	-0.000054
C25	C	0.899595	-0.040406	-0.000059
C26	C	0.898114	-0.133652	-0.000069
C27	C	0.966523	-0.369552	-0.000058
C28	C	0.929640	-0.420040	-0.065423
C29	C	0.895371	-0.304367	-0.000059
C30	C	0.929609	-0.420024	0.065287
C31	C	0.892727	-0.469271	-0.000046
C32	C	0.858508	-0.353628	-0.065477
C33	C	0.858486	-0.353608	0.065291
C34	C	0.821552	-0.404064	-0.000089
C35	C	0.896897	-0.209370	-0.000067
C36	C	0.891196	-0.564265	-0.000044
C37	C	1.032424	0.106771	-0.000059
C38	C	1.116443	0.108261	-0.000069
C39	C	0.888501	0.266762	-0.000040
C40	C	0.889982	0.360008	-0.000035
N41	N	0.894029	0.113165	0.206500
N42	N	0.894073	0.113184	-0.206598
C43	C	0.945507	0.055981	0.248211
C44	C	0.945511	0.055981	0.331663
C45	C	0.894041	0.113168	0.373403
C46	C	0.842558	0.170355	0.331686
C47	C	0.842551	0.170351	0.248236
C48	C	0.842586	0.170372	0.668234
C49	C	0.842598	0.170373	0.751690
C50	C	0.945545	0.056001	0.751661
C51	C	0.945538	0.055997	0.668210
C52	C	0.894053	0.113180	0.626501
C53	C	0.894048	0.113179	0.536013
C54	C	0.894049	0.113174	0.463890
H55	H	0.123750	0.108380	0.131052
Cl56	Cl	0.284448	0.111218	0.163066
Cl57	Cl	1.061145	-0.345613	-0.000163
Cl58	Cl	0.503647	0.115138	-0.163168
Cl59	Cl	0.106331	0.108100	-0.163195
Cl60	Cl	1.010247	-0.015896	0.615741
Cl61	Cl	0.777887	0.242271	0.804162
Cl62	Cl	0.726856	-0.427753	-0.000135
Cl63	Cl	1.010268	-0.015892	0.804100
Cl64	Cl	0.681834	0.118298	-0.163162
H65	H	0.987427	0.009416	0.365624
H66	H	0.267021	0.110931	-0.131177
H67	H	0.800647	0.216916	0.365676
Cl68	Cl	0.777867	0.242260	0.615805
H69	H	0.800632	0.216915	0.214276
Cl70	Cl	0.681769	0.118267	0.163094
Cl71	Cl	0.812140	-0.308782	0.150621
Cl72	Cl	0.976041	-0.464824	-0.150747
Cl73	Cl	0.503587	0.115119	0.163088
H74	H	0.828483	-0.324743	-0.120797
Cl75	Cl	1.010219	-0.015913	0.195747
Cl76	Cl	0.976011	-0.464790	0.150601
