data_functionalizedCrystal
_audit_creation_method	'MofGen! by Chris Wilmer'
_symmetry_space_group_name_H-M	'P1'
_symmetry_Int_Tables_number	1
_symmetry_cell_setting	triclinic
loop_
_symmetry_equiv_pos_as_xyz
  x,y,z
_cell_length_a	23.096457
_cell_length_b	23.096457
_cell_length_c	12.970454
_cell_angle_alpha	89.998496
_cell_angle_beta	59.999995
_cell_angle_gamma	60.004020
loop_
_atom_site_label
_atom_site_type_symbol
_atom_site_fract_x
_atom_site_fract_y
_atom_site_fract_z
Zr1	Zr	0.633717	0.557828	-0.135296
O2	O	0.754498	0.465391	-0.299907
O3	O	0.512936	0.586156	-0.084840
O4	O	0.633718	0.586168	-0.299923
O5	O	0.633715	0.465380	0.084843
O6	O	0.633720	0.681448	-0.299929
O7	O	0.633716	0.465380	-0.084824
O8	O	0.417662	0.681428	0.084816
O9	O	0.849773	0.465401	-0.299901
O10	O	0.562617	0.669355	-0.063319
O11	O	0.562615	0.598249	0.063307
O12	O	0.704821	0.598262	-0.189926
O13	O	0.704819	0.527156	-0.063300
Zr14	Zr	0.633719	0.709790	0.135294
Zr15	Zr	0.633720	0.709789	-0.135306
Zr16	Zr	0.633717	0.557829	0.135303
Zr17	Zr	0.785670	0.557843	-0.135287
Zr18	Zr	0.481767	0.709775	0.135284
O19	O	0.754501	0.681461	0.084837
O20	O	0.754502	0.681460	-0.299921
O21	O	0.754497	0.465392	0.084851
O22	O	0.512939	0.802227	0.299905
O23	O	0.512940	0.802226	-0.084854
O24	O	0.512935	0.586157	0.299919
O25	O	0.633721	0.802238	-0.084846
O26	O	0.633718	0.681450	0.299920
O27	O	0.633717	0.586169	0.299926
O28	O	0.633721	0.802238	0.084821
O29	O	0.849775	0.586190	-0.299909
O30	O	0.417662	0.681428	0.299906
O31	O	0.417664	0.802217	0.299899
O32	O	0.417664	0.802216	0.084808
O33	O	0.849772	0.465401	-0.084811
O34	O	0.849774	0.586190	-0.084818
O35	O	0.562616	0.669356	0.189923
O36	O	0.562617	0.740462	0.063298
O37	O	0.704821	0.669369	-0.063310
O38	O	0.704820	0.598263	0.063316
C39	C	0.443649	0.633790	-0.000013
C40	C	0.379142	0.633783	-0.000017
C41	C	0.296357	0.686275	0.093442
C42	C	0.235735	0.686280	0.093454
C43	C	0.257903	0.633798	-0.000013
C44	C	0.340702	0.581298	-0.093481
C45	C	0.401321	0.581290	-0.093483
N46	N	0.201793	0.617919	-0.110854
N47	N	0.144204	0.617931	-0.110847
C48	C	0.075264	0.633817	-0.000011
N49	N	0.066081	0.649705	0.110824
N50	N	0.123673	0.649697	0.110817
C51	C	0.192178	0.633800	-0.000021
C52	C	-0.073257	0.686317	0.093469
C53	C	-0.133878	0.686317	0.093481
C54	C	-0.028908	0.581337	-0.093463
C55	C	0.031710	0.581335	-0.093466
C56	C	0.009530	0.633828	-0.000000
C57	C	0.633715	0.443729	0.000011
C58	C	0.633714	0.379217	0.000015
C59	C	0.559487	0.386021	0.066091
C60	C	0.559486	0.325406	0.066096
C61	C	0.633716	0.257986	0.000001
C62	C	0.707953	0.251185	-0.066077
C63	C	0.707952	0.311800	-0.066070
N64	N	0.688969	0.135196	-0.107569
N65	N	0.688965	0.077617	-0.107573
C66	C	0.633723	0.075354	-0.000021
N67	N	0.578473	0.132852	0.107534
N68	N	0.578475	0.190438	0.107535
C69	C	0.633725	0.192255	-0.000013
C70	C	0.559490	0.016434	0.066067
C71	C	0.559492	-0.044184	0.066076
C72	C	0.707961	-0.118405	-0.066110
C73	C	0.707957	-0.057787	-0.066107
C74	C	0.633719	0.009630	-0.000021
C75	C	0.823787	0.633828	0.000011
C76	C	0.888295	0.633834	0.000015
C77	C	0.633719	0.633808	-0.338481
C78	C	0.633720	0.633808	-0.453357
C79	C	0.633721	0.823889	-0.000014
C80	C	0.633723	0.888401	-0.000018
C81	C	0.633717	0.633810	0.338478
C82	C	0.633717	0.633810	0.453355
C83	C	0.443652	0.823870	-0.000026
C84	C	0.379146	0.888375	-0.000034
C85	C	0.443648	0.633791	0.338466
C86	C	0.379140	0.633784	0.453339
C87	C	0.443652	0.823871	0.338453
C88	C	0.379145	0.888376	0.453322
C89	C	0.823785	0.443747	-0.338456
C90	C	0.888292	0.379241	-0.453325
C91	C	0.823784	0.443748	0.000023
C92	C	0.888291	0.379243	0.000031
C93	C	0.823788	0.633827	-0.338469
C94	C	0.888296	0.633833	-0.453341
C95	C	0.348852	0.881550	-0.066142
C96	C	0.288250	0.942154	-0.066175
C97	C	0.257938	1.009582	-0.000092
C98	C	0.288237	1.016405	0.066018
C99	C	0.348843	0.955802	0.066042
C100	C	0.348847	0.670899	0.573388
C101	C	0.288244	0.670890	0.681333
C102	C	0.257930	0.633771	0.669227
C103	C	0.288229	0.596652	0.549165
C104	C	0.348836	0.596657	0.441222
C105	C	0.348852	0.955792	0.441168
C106	C	0.288250	1.016407	0.549089
C107	C	0.257936	1.009606	0.669162
C108	C	0.288235	0.942183	0.681314
C109	C	0.348840	0.881569	0.573394
C110	C	0.918592	0.311826	-0.441171
C111	C	0.979213	0.251210	-0.549092
C112	C	1.009530	0.258012	-0.669165
C113	C	0.979227	0.325435	-0.681316
C114	C	0.918611	0.386049	-0.573397
C115	C	0.918590	0.386067	0.066128
C116	C	0.979210	0.325464	0.066131
C117	C	1.009524	0.258036	0.000044
C118	C	0.979221	0.251213	-0.066060
C119	C	0.918608	0.311816	-0.066070
C120	C	0.918590	0.670959	-0.441194
C121	C	0.979195	0.670979	-0.549119
C122	C	1.009507	0.633868	-0.669190
C123	C	0.979207	0.596741	-0.681334
C124	C	0.918600	0.596726	-0.573411
H125	H	-0.091318	0.729057	0.169580
O126	O	-0.214273	0.737293	0.184437
C127	C	-0.231401	0.733955	0.304101
H128	H	-0.172468	0.707269	0.298461
H129	H	-0.277336	0.789906	0.375474
H130	H	-0.258251	0.701992	0.335132
O131	O	0.362147	0.530289	-0.184106
C132	C	0.330232	0.491880	-0.126881
H133	H	0.275573	0.525707	-0.024800
H134	H	0.309831	0.477584	-0.180567
H135	H	0.379483	0.441291	-0.129002
H136	H	0.263544	0.936655	0.779092
H137	H	1.003919	0.330964	-0.779093
O138	O	0.378141	0.816136	0.585435
C139	C	0.338396	0.823140	0.714560
H140	H	0.276971	0.877232	0.772095
H141	H	0.327931	0.779678	0.729631
H142	H	0.378146	0.818173	0.746366
O143	O	0.889272	0.305082	-0.324635
C144	C	0.929016	0.232576	-0.337076
H145	H	0.990447	0.200261	-0.433395
H146	H	0.939470	0.224133	-0.259671
H147	H	0.889271	0.214704	-0.328221
H148	H	0.278290	0.729018	0.169550
O149	O	0.198958	1.068426	0.000030
C150	C	0.128857	1.068284	0.052541
H151	H	0.128932	1.034013	0.115791
H152	H	0.071560	1.124820	0.110812
H153	H	0.129392	1.045905	-0.026514
H154	H	0.373532	0.826653	-0.119970
H155	H	0.263549	1.071313	0.119819
H156	H	1.058858	0.633886	-0.757058
O157	O	1.008764	0.185707	-0.537336
C158	C	1.093694	0.148421	-0.595802
H159	H	1.110291	0.187750	-0.600790
H160	H	1.111100	0.114919	-0.538535
H161	H	1.128367	0.112446	-0.695354
O162	O	0.378369	0.962311	0.130176
C163	C	0.438342	0.894369	0.116077
H164	H	0.464876	0.854181	0.026804
H165	H	0.489316	0.895056	0.108550
H166	H	0.409330	0.878930	0.201475
H167	H	1.003897	0.566526	-0.779110
O168	O	0.889298	0.560590	-0.585445
C169	C	0.929042	0.527854	-0.714568
H170	H	0.990468	0.520529	-0.772106
H171	H	0.939506	0.473930	-0.729632
H172	H	0.889293	0.562632	-0.746377
H173	H	0.373522	0.701126	0.583269
H174	H	0.263581	0.701119	0.779082
H175	H	0.893913	0.440965	0.119951
O176	O	1.008741	0.185727	-0.130443
C177	C	1.043787	0.177947	-0.259463
H178	H	1.061983	0.216328	-0.282891
H179	H	1.100386	0.121251	-0.319227
H180	H	0.997334	0.189969	-0.280601
H181	H	0.263588	0.936584	-0.120009
H182	H	1.003859	0.701212	-0.539206
O183	O	0.378123	0.560702	0.324636
C184	C	0.313421	0.587985	0.310849
H185	H	0.261913	0.644557	0.379193
H186	H	0.336523	0.587893	0.209890
H187	H	0.289506	0.553568	0.332315
H188	H	0.893939	0.306249	-0.119890
O189	O	0.378169	0.962535	0.324632
C190	C	0.338382	1.035042	0.337073
H191	H	0.313480	1.067365	0.433332
H192	H	0.383811	1.043497	0.259576
H193	H	0.285686	1.052894	0.328371
H194	H	0.208580	0.633773	0.757131
O195	O	0.889290	0.706963	-0.324633
C196	C	0.953965	0.679675	-0.310778
H197	H	1.014599	0.652499	-0.407935
H198	H	0.944818	0.724852	-0.254012
H199	H	0.954775	0.639608	-0.259184
O200	O	0.155345	0.737342	0.184305
C201	C	0.148769	0.783658	0.266820
H202	H	0.207368	0.781158	0.216465
H203	H	0.094553	0.840138	0.296981
H204	H	0.139069	0.767133	0.353737
O205	O	0.258650	0.560672	0.537640
C206	C	0.198669	0.568627	0.658665
H207	H	0.172192	0.618747	0.730190
H208	H	0.147656	0.572901	0.657504
H209	H	0.227653	0.520668	0.686165
H210	H	1.058879	0.208695	0.000063
H211	H	1.058887	0.208651	-0.757030
H212	H	0.263587	1.071300	0.539173
O213	O	0.199034	1.068563	0.773860
C214	C	0.178817	1.129521	0.737368
H215	H	0.195526	1.115596	0.637735
H216	H	0.110313	1.172327	0.805539
H217	H	0.214261	1.149932	0.739324
H218	H	0.468732	0.538542	-0.169588
O219	O	1.008517	0.332228	0.130468
C220	C	0.968764	0.404738	0.188779
H221	H	0.907333	0.437043	0.201846
H222	H	0.958310	0.413191	0.284798
H223	H	1.008503	0.422613	0.126849
H224	H	0.499037	0.440911	0.119895
H225	H	0.893942	0.440940	-0.583308
H226	H	-0.010857	0.538605	-0.169565
H227	H	0.099119	0.538594	-0.169577
H228	H	0.499040	0.330946	0.119904
H229	H	0.768391	0.196288	-0.119891
H230	H	0.499041	0.071328	0.119904
O231	O	0.779986	0.305318	-0.130153
C232	C	0.764067	0.373275	-0.116005
H233	H	0.700269	0.413446	-0.026744
H234	H	0.811471	0.372614	-0.108423
H235	H	0.767587	0.388718	-0.201405
O236	O	0.780121	-0.183850	-0.130497
C237	C	0.825274	-0.191620	-0.259517
H238	H	0.804165	-0.137057	-0.270333
H239	H	0.893182	-0.223493	-0.300000
H240	H	0.814987	-0.220591	-0.312547
O241	O	0.780041	-0.064358	-0.130102
C242	C	0.784474	-0.031506	-0.045248
H243	H	0.742347	-0.028715	0.054327
H244	H	0.850127	-0.063642	-0.073888
H245	H	0.764532	0.024404	-0.047568
H246	H	0.499045	-0.038638	0.119891
