data_functionalizedCrystal
_audit_creation_method	'MofGen! by Chris Wilmer'
_symmetry_space_group_name_H-M	'P1'
_symmetry_Int_Tables_number	1
_symmetry_cell_setting	triclinic
loop_
_symmetry_equiv_pos_as_xyz
  x,y,z
_cell_length_a	12.759401
_cell_length_b	13.031981
_cell_length_c	12.759393
_cell_angle_alpha	82.782247
_cell_angle_beta	89.980596
_cell_angle_gamma	97.191788
loop_
_atom_site_label
_atom_site_type_symbol
_atom_site_fract_x
_atom_site_fract_y
_atom_site_fract_z
Zn1	Zn	1.553145	-0.416058	-0.540829
Zn2	Zn	1.530723	-0.590874	-0.342805
Zn3	Zn	1.377440	-0.416112	-0.365158
Zn4	Zn	1.355130	-0.590793	-0.518454
O5	O	1.454109	-0.503459	-0.441811
O6	O	1.697190	-0.439259	-0.514569
O7	O	1.510343	-0.567748	-0.198742
O8	O	1.419467	-0.269839	-0.407180
O9	O	1.680717	-0.567696	-0.369082
O10	O	1.548557	-0.269799	-0.536245
O11	O	1.397726	-0.439351	-0.215165
O12	O	1.227461	-0.439272	-0.385484
O13	O	1.381444	-0.567557	-0.668450
O14	O	1.211070	-0.567610	-0.498110
O15	O	1.526924	-0.439180	-0.684889
O16	O	1.488710	-0.737129	-0.347386
O17	O	1.359703	-0.737069	-0.476435
C18	C	1.181145	-0.503439	-0.441795
C19	C	1.064366	-0.503455	-0.441810
C20	C	0.908292	-0.436562	-0.383306
C21	C	1.018018	-0.436542	-0.383297
C22	C	1.000982	-0.570386	-0.500346
C23	C	0.891258	-0.570400	-0.500361
C24	C	0.918128	-0.359291	-0.315725
C25	C	1.027855	-0.359271	-0.315716
C26	C	1.419381	-0.775024	-0.407080
C27	C	1.404620	-0.891201	-0.392256
C28	C	1.461869	-0.942893	-0.449569
C29	C	1.446614	-1.062968	-0.434250
C30	C	1.728140	-0.503480	-0.441828
C31	C	1.844915	-0.503489	-0.441835
C32	C	1.454196	-0.503354	-0.715858
C33	C	1.454234	-0.503309	-0.832641
C34	C	1.489002	-0.230834	-0.476702
C35	C	1.503871	-0.114657	-0.491570
C36	C	1.529995	-0.436456	-0.896065
C37	C	1.530025	-0.436419	-1.005794
C38	C	1.378527	-0.570094	-0.988664
C39	C	1.378494	-0.570126	-0.878938
C40	C	1.617464	-0.359283	-0.905956
C41	C	1.617494	-0.359245	-1.015684
C42	C	1.454093	-0.503489	-0.168840
C43	C	1.454297	-0.503239	-0.052096
H44	H	0.898703	-0.278367	-0.348001
H45	H	1.606029	-0.278337	-0.886545
H46	H	1.071721	-0.282400	-0.354814
H47	H	1.522172	-0.898256	-0.509982
H48	H	1.696097	-0.380926	-1.042693
H49	H	1.316861	-0.624493	-1.026373
H50	H	1.386299	-1.107603	-0.373842
N51	N	0.822903	-0.642586	-0.563488
H52	H	0.782822	-0.600172	-0.617677
H53	H	0.868984	-0.684955	-0.600486
N54	N	1.063599	-0.387869	-0.204228
H55	H	1.099247	-0.453173	-0.200432
H56	H	1.115052	-0.328884	-0.183141
H57	H	1.691032	-0.388302	-0.868212
N58	N	1.591941	-0.257372	-1.073818
H59	H	1.579576	-0.208174	-1.021202
H60	H	1.652955	-0.225258	-1.122515
H61	H	1.316798	-0.624560	-0.827301
N62	N	1.583755	-1.055547	-0.571603
H63	H	1.583329	-0.978149	-0.571206
H64	H	1.656405	-1.074522	-0.552914
H65	H	1.344309	-0.935840	-0.331853
N66	N	1.050965	-0.642553	-0.563464
H67	H	1.130092	-0.632390	-0.554576
H68	H	1.022243	-0.717185	-0.537444
H69	H	0.880363	-0.388204	-0.234693
