data_functionalizedCrystal
_audit_creation_method	'MofGen! by Chris Wilmer'
_symmetry_space_group_name_H-M	'P1'
_symmetry_Int_Tables_number	1
_symmetry_cell_setting	triclinic
loop_
_symmetry_equiv_pos_as_xyz
  x,y,z
_cell_length_a	6.394989
_cell_length_b	17.699077
_cell_length_c	16.176319
_cell_angle_alpha	89.993140
_cell_angle_beta	90.003737
_cell_angle_gamma	95.110856
loop_
_atom_site_label
_atom_site_type_symbol
_atom_site_fract_x
_atom_site_fract_y
_atom_site_fract_z
O1	O	-0.264072	1.006776	-0.068730
O2	O	-0.298449	0.786748	-0.068734
O3	O	0.022820	0.899885	-0.068733
O4	O	-0.585341	0.893639	-0.068731
O5	O	0.022840	0.899869	0.068761
O6	O	-0.298429	0.786732	0.068760
O7	O	-0.264052	1.006760	0.068763
Cu8	Cu	-0.281238	0.896745	0.081315
Cu9	Cu	-0.281262	0.896764	-0.081286
O10	O	-0.585321	0.893623	0.068762
C11	C	-0.297209	0.758531	0.000012
C12	C	-0.293520	0.674475	0.000011
C13	C	-0.291771	0.634981	0.074959
C14	C	-0.288271	0.556002	0.074960
C15	C	-0.286536	0.516519	0.000012
C16	C	-0.288279	0.556019	-0.074942
C17	C	-0.291764	0.634996	-0.074942
C18	C	-0.274224	0.237512	-0.074944
C19	C	-0.270745	0.158529	-0.074938
C20	C	-0.270731	0.158518	0.074959
C21	C	-0.274215	0.237496	0.074959
C22	C	-0.275947	0.276989	0.000005
C23	C	-0.279738	0.362626	0.000005
C24	C	-0.282760	0.430883	0.000011
C25	C	0.100645	0.898642	0.000011
C26	C	0.336860	0.894868	0.000010
C27	C	-0.265292	1.034978	0.000015
C28	C	-0.268981	1.119034	0.000011
N29	N	-0.281220	0.896737	0.195681
N30	N	-0.281264	0.896778	-0.195651
C31	C	-0.139020	0.946850	0.238945
C32	C	-0.139018	0.946854	0.325492
C33	C	-0.281227	0.896748	0.368773
C34	C	-0.423434	0.846629	0.325502
C35	C	-0.423424	0.846622	0.238957
C36	C	-0.423473	0.846655	0.674531
C37	C	-0.423476	0.846668	0.761082
C38	C	-0.139067	0.946887	0.761066
C39	C	-0.139057	0.946880	0.674521
C40	C	-0.281255	0.896759	0.631257
C41	C	-0.281253	0.896755	0.537413
C42	C	-0.281241	0.896755	0.462616
H43	H	-0.286812	0.523851	0.135991
H44	H	-0.539215	0.805814	0.203732
H45	H	-0.539259	0.805846	0.639313
H46	H	-0.269330	0.126384	-0.135974
O47	O	0.014313	1.000949	0.807728
H48	H	0.177110	0.989766	0.791119
O49	O	-0.276112	0.280098	-0.155786
H50	H	-0.278803	0.341650	-0.143202
H51	H	-0.286852	0.523866	-0.135967
H52	H	-0.023227	0.987659	0.360718
O53	O	0.014406	1.000888	0.192277
H54	H	0.115797	0.968050	0.152864
O55	O	-0.276134	0.280082	0.155795
H56	H	-0.274328	0.239350	0.207913
O57	O	-0.269824	0.115888	0.155806
H58	H	-0.267446	0.054324	0.143219
H59	H	-0.293192	0.667151	-0.135973
O60	O	0.014334	1.000918	0.627837
H61	H	0.113235	1.035761	0.672462
H62	H	-0.539284	0.805862	0.796320
H63	H	-0.539217	0.805828	0.360747
H64	H	-0.293201	0.667122	0.135991
