data_functionalizedCrystal
_audit_creation_method	'MofGen! by Chris Wilmer'
_symmetry_space_group_name_H-M	'P1'
_symmetry_Int_Tables_number	1
_symmetry_cell_setting	triclinic
loop_
_symmetry_equiv_pos_as_xyz
  x,y,z
_cell_length_a	10.540514
_cell_length_b	17.699083
_cell_length_c	16.176319
_cell_angle_alpha	90.001389
_cell_angle_beta	89.996385
_cell_angle_gamma	96.100913
loop_
_atom_site_label
_atom_site_type_symbol
_atom_site_fract_x
_atom_site_fract_y
_atom_site_fract_z
O1	O	0.160522	-1.005114	-0.068625
O2	O	0.660522	-0.505114	0.431375
O3	O	0.181407	-0.784870	-0.068651
O4	O	0.681407	-0.284870	0.431349
O5	O	-0.013836	-0.900027	-0.068639
O6	O	0.486164	-0.400027	0.431361
O7	O	0.355765	-0.889957	-0.068638
O8	O	0.855765	-0.389957	0.431362
O9	O	-0.013848	-0.900011	0.068855
O10	O	0.486152	-0.400011	0.568855
O11	O	0.181394	-0.784854	0.068842
O12	O	0.681394	-0.284854	0.568842
O13	O	0.160510	-1.005098	0.068868
O14	O	0.660510	-0.505098	0.568868
Cu15	Cu	0.170951	-0.894974	0.081409
Cu16	Cu	0.670951	-0.394974	0.581409
Cu17	Cu	0.170966	-0.894993	-0.081192
Cu18	Cu	0.670966	-0.394993	0.418808
O19	O	0.355753	-0.889941	0.068856
O20	O	0.855753	-0.389941	0.568856
C21	C	0.180652	-0.756660	0.000092
C22	C	0.680652	-0.256660	0.500092
C23	C	0.178407	-0.672628	0.000082
C24	C	0.678407	-0.172628	0.500082
C25	C	-0.061132	-0.899267	0.000106
C26	C	0.438868	-0.399267	0.500106
C27	C	-0.202040	-0.897020	0.000100
C28	C	0.297960	-0.397020	0.500100
C29	C	-0.274252	-0.979379	0.000112
C30	C	0.225748	-0.479379	0.500112
C31	C	-0.420823	-0.977069	0.000429
C32	C	0.079177	-0.477069	0.500429
C33	C	-0.393564	-0.852221	0.078463
C34	C	0.106436	-0.352221	0.578463
C35	C	-0.247077	-0.855114	0.078524
C36	C	0.252923	-0.355114	0.578524
C37	C	-0.246643	-0.853914	-0.077837
C38	C	0.253357	-0.353914	0.422163
C39	C	-0.393607	-0.853119	-0.078862
C40	C	0.106393	-0.353119	0.421138
C41	C	0.161265	-1.033308	0.000123
C42	C	0.661265	-0.533308	0.500123
C43	C	0.163510	-1.117340	0.000128
C44	C	0.663510	-0.617340	0.500128
C45	C	0.403049	-0.890700	0.000109
C46	C	0.903049	-0.390700	0.500109
C47	C	0.543957	-0.892947	0.000110
C48	C	1.043957	-0.392947	0.500110
N49	N	0.170940	-0.894967	0.195775
N50	N	0.670940	-0.394967	0.695775
C51	C	0.293011	-0.624746	0.000082
C52	C	0.793011	-0.124746	0.500082
C53	C	0.290894	-0.545789	0.000093
C54	C	0.790894	-0.045789	0.500093
C55	C	0.174172	-0.514715	0.000097
C56	C	0.674172	-0.014715	0.500097
C57	C	0.059560	-0.562603	0.000099
C58	C	0.559560	-0.062603	0.500099
C59	C	0.061678	-0.641559	0.000094
C60	C	0.561678	-0.141559	0.500094
C61	C	0.051014	-0.244185	0.000119
C62	C	0.551014	0.255815	0.500119
C63	C	0.048905	-0.165224	0.000122
C64	C	0.548905	0.334776	0.500122
C65	C	0.280230	-0.148415	0.000118
C66	C	0.780230	0.351585	0.500118
C67	C	0.282348	-0.227370	0.000113
C68	C	0.782348	0.272630	0.500113
C69	C	0.167737	-0.275252	0.000120
C70	C	0.667737	0.224748	0.500120
C71	C	0.170034	-0.360866	0.000110
C72	C	0.670034	0.139134	0.500110
C73	C	0.171874	-0.429103	0.000101
C74	C	0.671874	0.070897	0.500101
N75	N	0.170967	-0.895007	-0.195557
N76	N	0.670967	-0.395007	0.304443
C77	C	0.084522	-0.945974	0.239044
C78	C	0.584522	-0.445974	0.739044
C79	C	0.084520	-0.945977	0.325591
C80	C	0.584520	-0.445977	0.825591
C81	C	0.170944	-0.894977	0.368867
C82	C	0.670944	-0.394977	0.868867
C83	C	0.257367	-0.843965	0.325591
C84	C	0.757367	-0.343965	0.825591
C85	C	0.257361	-0.843958	0.239046
C86	C	0.757361	-0.343958	0.739046
C87	C	0.257391	-0.843991	0.674620
C88	C	0.757391	-0.343991	1.174620
C89	C	0.257392	-0.844003	0.761171
C90	C	0.757392	-0.344003	1.261171
C91	C	0.084550	-0.946010	0.761165
C92	C	0.584550	-0.446010	1.261165
C93	C	0.084544	-0.946003	0.674620
C94	C	0.584544	-0.446003	1.174620
C95	C	0.170961	-0.894989	0.631351
C96	C	0.670961	-0.394989	1.131351
C97	C	0.170960	-0.894984	0.537507
C98	C	0.670960	-0.394984	1.037507
C99	C	0.170953	-0.894985	0.462710
C100	C	0.670953	-0.394985	0.962710
H101	H	-0.464070	-1.009102	-0.055724
H102	H	0.035930	-0.509102	0.444276
H103	H	0.377395	-0.252666	0.000106
H104	H	0.877395	0.247334	0.500106
H105	H	0.384215	-0.506806	0.000092
H106	H	0.884215	-0.006806	0.500092
H107	H	-0.035477	-0.537297	0.000114
H108	H	0.464523	-0.037297	0.500114
H109	H	-0.046150	-0.139927	0.000126
H110	H	0.453850	0.360073	0.500126
H111	H	-0.031644	-0.680544	0.000093
H112	H	0.468356	-0.180544	0.500093
H113	H	0.388059	-0.650039	0.000078
H114	H	0.888059	-0.150039	0.500078
H115	H	-0.197965	-0.794616	0.081858
H116	H	0.302035	-0.294616	0.581858
H117	H	0.014151	-0.987507	0.203815
H118	H	0.514151	-0.487507	0.703815
H119	H	0.014174	-0.987535	0.639387
H120	H	0.514174	-0.487535	1.139387
H121	H	0.014180	-0.987547	0.796404
H122	H	0.514180	-0.487547	1.296404
H123	H	0.014151	-0.987511	0.360821
H124	H	0.514151	-0.487511	0.860821
H125	H	0.373552	-0.109420	0.000117
H126	H	0.873552	0.390580	0.500117
H127	H	-0.042310	-0.283161	0.000125
H128	H	0.457690	0.216839	0.500125
H129	H	0.327771	-0.802470	0.796405
H130	H	0.827771	-0.302470	1.296405
H131	H	0.327731	-0.802436	0.360831
H132	H	0.827731	-0.302436	0.860831
H133	H	0.327757	-0.802454	0.639397
H134	H	0.827757	-0.302454	1.139397
H135	H	0.327730	-0.802422	0.203816
H136	H	0.827730	-0.302422	0.703816
H137	H	-0.244542	-1.012316	0.056183
H138	H	0.255458	-0.512316	0.556183
H139	H	-0.463142	-1.008951	0.056934
H140	H	0.036858	-0.508951	0.556934
H141	H	-0.246338	-1.012791	-0.056076
H142	H	0.253662	-0.512791	0.443924
H143	H	-0.414748	-0.790435	0.081149
H144	H	0.085252	-0.290435	0.581149
H145	H	-0.436637	-0.880150	0.137004
H146	H	0.063363	-0.380150	0.637004
H147	H	-0.215643	-0.881335	-0.137246
H148	H	0.284357	-0.381335	0.362754
H149	H	-0.219401	-0.884845	0.137326
H150	H	0.280599	-0.384845	0.637326
H151	H	-0.435143	-0.882883	-0.136828
H152	H	0.064857	-0.382883	0.363172
H153	H	-0.198291	-0.793162	-0.078594
H154	H	0.301709	-0.293162	0.421406
H155	H	-0.416680	-0.791806	-0.083837
H156	H	0.083320	-0.291806	0.416163
