data_functionalizedCrystal
_audit_creation_method	'MofGen! by Chris Wilmer'
_symmetry_space_group_name_H-M	'P1'
_symmetry_Int_Tables_number	1
_symmetry_cell_setting	triclinic
loop_
_symmetry_equiv_pos_as_xyz
  x,y,z
_cell_length_a	10.654550
_cell_length_b	15.944551
_cell_length_c	9.730223
_cell_angle_alpha	89.994648
_cell_angle_beta	89.999957
_cell_angle_gamma	83.991834
loop_
_atom_site_label
_atom_site_type_symbol
_atom_site_fract_x
_atom_site_fract_y
_atom_site_fract_z
O1	O	1.666313	0.117976	-0.114191
O2	O	1.300689	0.129216	-0.114216
O3	O	1.493485	0.001379	-0.114190
O4	O	1.473516	0.245813	-0.114216
O5	O	1.493473	0.001376	0.114390
O6	O	1.300676	0.129213	0.114364
O7	O	1.666300	0.117973	0.114389
Zn8	Zn	1.483486	0.123592	0.150669
Zn9	Zn	1.483503	0.123597	-0.150495
O10	O	1.473504	0.245810	0.114363
C11	C	1.253895	0.128389	0.000071
C12	C	1.114484	0.125920	0.000061
C13	C	1.034024	0.201189	0.000057
C14	C	0.903034	0.198863	0.000081
C15	C	0.932975	0.045995	0.000108
C16	C	1.063963	0.048321	0.000094
C17	C	1.492650	-0.029921	0.000100
C18	C	1.490165	-0.123182	0.000100
C19	C	1.364720	-0.338764	0.000073
C20	C	1.422966	-0.399446	0.112781
C21	C	1.485668	-0.293933	0.000090
C22	C	1.423007	-0.399426	-0.112581
C23	C	1.481317	-0.458871	0.000073
C24	C	1.543948	-0.353387	0.112890
C25	C	1.543972	-0.353360	-0.112573
C26	C	1.602306	-0.414024	0.000163
C27	C	1.488172	-0.198917	0.000100
C28	C	1.478822	-0.553887	0.000072
C29	C	1.713094	0.118800	0.000099
C30	C	1.852505	0.121269	0.000100
C31	C	1.474339	0.277110	0.000070
C32	C	1.476824	0.370371	0.000061
N33	N	1.483484	0.123589	0.356205
N34	N	1.483514	0.123594	-0.356032
C35	C	1.568883	0.067007	0.428142
C36	C	1.568896	0.067007	0.572025
C37	C	1.398106	0.180179	0.572021
C38	C	1.398089	0.180174	0.428140
H39	H	0.837528	0.260155	0.000081
C40	C	1.304183	0.242427	0.651151
C41	C	1.304268	0.242489	0.809413
C42	C	1.210345	0.304741	0.888538
C43	C	1.116337	0.366932	0.809400
C44	C	1.116249	0.366873	0.651129
C45	C	1.210172	0.304621	0.572004
H46	H	1.373861	0.196449	0.868004
H47	H	1.210410	0.304785	1.005701
H48	H	1.046810	0.413015	0.867973
H49	H	1.046656	0.412913	0.592538
H50	H	1.210107	0.304577	0.454840
H51	H	0.891824	-0.017184	0.000143
H52	H	1.595056	-0.333102	0.208281
C53	C	1.152479	-0.034480	0.000096
C54	C	1.146830	-0.097857	0.118802
C55	C	1.235345	-0.180654	0.118810
C56	C	1.329508	-0.200074	0.000112
C57	C	1.335161	-0.136696	-0.118603
C58	C	1.246646	-0.053899	-0.118611
H59	H	1.077121	-0.083483	0.206677
H60	H	1.231160	-0.227571	0.206691
H61	H	1.395032	-0.261366	0.000118
H62	H	1.404869	-0.151070	-0.206479
H63	H	1.250831	-0.006982	-0.206493
C64	C	1.229102	-0.294545	0.000207
C65	C	1.139118	-0.309311	0.119600
C66	C	1.003505	-0.265091	0.119741
C67	C	0.957875	-0.206105	0.000490
C68	C	1.047860	-0.191336	-0.118912
C69	C	1.183473	-0.235556	-0.119054
H70	H	1.172895	-0.352979	0.207885
H71	H	0.936892	-0.276024	0.208131
H72	H	0.857485	-0.173370	0.000595
H73	H	1.014083	-0.147669	-0.207197
H74	H	1.250086	-0.224623	-0.207443
C75	C	1.662806	0.004758	0.349012
C76	C	1.662798	0.004748	0.190750
C77	C	1.756721	-0.057504	0.111625
C78	C	1.850652	-0.119747	0.190763
C79	C	1.850664	-0.119739	0.349035
C80	C	1.756741	-0.057487	0.428159
H81	H	1.593262	0.050826	0.132159
H82	H	1.756712	-0.057510	-0.005539
H83	H	1.920180	-0.165830	0.132190
H84	H	1.920201	-0.165817	0.407625
H85	H	1.756750	-0.057482	0.545323
H86	H	1.075154	0.264375	0.000041
H87	H	1.371805	-0.419852	0.208059
C88	C	1.738045	-0.458039	0.000247
C89	C	1.828017	-0.443102	0.119564
C90	C	1.963754	-0.487117	0.119654
C91	C	2.009519	-0.546069	0.000428
C92	C	1.919545	-0.561010	-0.118898
C93	C	1.783808	-0.516995	-0.118988
H94	H	1.794141	-0.399459	0.207831
H95	H	2.030359	-0.476057	0.207988
H96	H	2.110000	-0.578652	0.000495
H97	H	1.953421	-0.604652	-0.207164
H98	H	1.717203	-0.528055	-0.207321
H99	H	1.328541	0.226250	0.369565
H100	H	1.638434	0.020932	0.630593
C101	C	1.613029	-0.325754	-0.241290
C102	C	1.562265	-0.343622	-0.385367
C103	C	1.631310	-0.316012	-0.514097
C104	C	1.751119	-0.270534	-0.498749
C105	C	1.801890	-0.252664	-0.354665
C106	C	1.732845	-0.280274	-0.225936
H107	H	1.473569	-0.377289	-0.396734
H108	H	1.593725	-0.329240	-0.620758
H109	H	1.802231	-0.250095	-0.594043
H110	H	1.890586	-0.218997	-0.343299
H111	H	1.770429	-0.267045	-0.119275
C112	C	1.353886	-0.426962	-0.241305
C113	C	1.214834	-0.393555	-0.266040
C114	C	1.145703	-0.421087	-0.394756
C115	C	1.215624	-0.482027	-0.498736
C116	C	1.354684	-0.515437	-0.474003
C117	C	1.423815	-0.487905	-0.345288
H118	H	1.163067	-0.348441	-0.189065
H119	H	1.042761	-0.396354	-0.413063
H120	H	1.164449	-0.502408	-0.594018
H121	H	1.406451	-0.560552	-0.550978
H122	H	1.526757	-0.512638	-0.326980
