data_functionalizedCrystal
_audit_creation_method	'MofGen! by Chris Wilmer'
_symmetry_space_group_name_H-M	'P1'
_symmetry_Int_Tables_number	1
_symmetry_cell_setting	triclinic
loop_
_symmetry_equiv_pos_as_xyz
  x,y,z
_cell_length_a	10.540539
_cell_length_b	16.109301
_cell_length_c	15.186229
_cell_angle_alpha	90.005167
_cell_angle_beta	89.998698
_cell_angle_gamma	96.006514
loop_
_atom_site_label
_atom_site_type_symbol
_atom_site_fract_x
_atom_site_fract_y
_atom_site_fract_z
O1	O	1.684215	-0.117165	-0.073190
O2	O	1.314645	-0.128205	-0.073201
O3	O	1.509582	-0.001716	-0.073187
O4	O	1.489277	-0.243654	-0.073205
O5	O	1.509569	-0.001714	0.073271
O6	O	1.314632	-0.128203	0.073256
O7	O	1.684202	-0.117163	0.073267
Zn8	Zn	1.499415	-0.122683	0.096515
Zn9	Zn	1.499432	-0.122685	-0.096449
O10	O	1.489264	-0.243652	0.073252
C11	C	1.267347	-0.127376	0.000026
C12	C	1.126434	-0.124899	0.000022
N13	N	1.499412	-0.122681	0.228207
C14	C	1.508753	0.029265	0.000043
C15	C	1.506287	0.121575	0.000044
C16	C	0.944360	-0.029989	0.000371
C17	C	1.090943	-0.032500	0.000032
C18	C	1.064135	-0.169366	-0.083612
C19	C	0.917636	-0.166213	-0.083673
C20	C	0.917106	-0.168090	0.082876
C21	C	1.064075	-0.168941	0.083972
C22	C	1.731500	-0.117992	0.000038
C23	C	1.872413	-0.120469	0.000036
C24	C	1.490093	-0.274633	0.000021
C25	C	1.492559	-0.366943	0.000014
C26	C	1.616226	0.343175	0.000033
C27	C	1.613899	0.429910	0.000026
C28	C	1.382612	0.411450	0.000022
C29	C	1.384940	0.324717	0.000023
C30	C	1.501751	0.290582	0.000033
C31	C	1.497096	0.464050	0.000025
C32	C	1.494572	0.558091	0.000017
C33	C	1.504275	0.196535	0.000039
N34	N	1.499444	-0.122681	-0.228142
C35	C	1.585760	-0.066691	0.453937
C36	C	1.585764	-0.066689	0.546126
C37	C	1.413087	-0.178673	0.546122
C38	C	1.413078	-0.178671	0.453934
C39	C	1.499422	-0.122680	0.407844
C40	C	1.499435	-0.122681	0.592222
C41	C	1.499439	-0.122679	0.692178
C42	C	1.499417	-0.122681	0.307882
H43	H	1.134050	0.002489	0.059985
H44	H	0.916290	0.006515	0.060351
Cl45	Cl	0.898527	0.026136	-0.091702
H46	H	1.342765	-0.224265	0.416403
H47	H	0.885980	-0.138187	0.146270
H48	H	1.133196	0.002734	-0.060020
Cl49	Cl	0.874807	-0.115472	-0.180186
H50	H	1.087341	-0.236306	0.089017
Cl51	Cl	0.842107	-0.268806	-0.089544
H52	H	1.656064	-0.021099	0.416412
Cl53	Cl	1.235773	0.454369	0.000010
H54	H	1.711340	0.315386	0.000039
Cl55	Cl	1.127867	-0.118703	0.179499
H56	H	1.291715	0.281893	0.000021
H57	H	1.707116	0.472728	0.000024
Cl58	Cl	1.097190	-0.274122	-0.088448
Cl59	Cl	1.694305	0.003703	0.604069
H60	H	1.107169	-0.138478	-0.145850
Cl61	Cl	0.842724	-0.271130	0.083742
Cl62	Cl	1.304551	-0.249061	0.604069
