data_functionalizedCrystal
_audit_creation_method	'MofGen! by Chris Wilmer'
_symmetry_space_group_name_H-M	'P1'
_symmetry_Int_Tables_number	1
_symmetry_cell_setting	triclinic
loop_
_symmetry_equiv_pos_as_xyz
  x,y,z
_cell_length_a	10.967874
_cell_length_b	10.540539
_cell_length_c	10.065918
_cell_angle_alpha	99.753296
_cell_angle_beta	111.737476
_cell_angle_gamma	84.619620
loop_
_atom_site_label
_atom_site_type_symbol
_atom_site_fract_x
_atom_site_fract_y
_atom_site_fract_z
O1	O	1.732978	0.254945	0.521057
O2	O	1.356987	0.258938	0.432632
O3	O	1.553560	0.072528	0.478860
O4	O	1.536405	0.441355	0.474829
O5	O	1.519409	0.037841	0.243840
O6	O	1.322836	0.224250	0.197612
O7	O	1.698828	0.220258	0.286037
Zn8	Zn	1.505409	0.216747	0.204510
Zn9	Zn	1.550405	0.262449	0.514159
O10	O	1.502254	0.406667	0.239809
C11	C	1.291766	0.238683	0.303799
C12	C	1.148308	0.229993	0.270061
C13	C	1.535199	0.007838	0.361050
C14	C	1.531350	-0.133241	0.360152
C15	C	1.102041	0.244088	0.376767
C16	C	0.953770	0.235107	0.341899
C17	C	1.383929	-0.321636	0.325991
C18	C	1.387754	-0.174962	0.326380
C19	C	1.580953	-0.212342	0.242196
C20	C	1.576036	-0.359071	0.240931
C21	C	1.617793	-0.320044	0.508880
C22	C	1.619373	-0.172755	0.510965
C23	C	1.764049	0.240513	0.414873
C24	C	1.907508	0.249204	0.448621
C25	C	1.520616	0.471358	0.357622
C26	C	1.524465	0.612438	0.358529
N27	N	1.474711	0.185556	-0.006815
C28	C	1.516109	0.227589	-0.222022
C29	C	1.539725	0.251606	-0.059301
N30	N	1.581113	0.293630	0.725487
H31	H	1.172199	0.262810	0.493935
H32	H	0.883614	0.216397	0.224723
H33	H	1.078148	0.211284	0.152893
H34	H	1.583237	-0.118973	0.598357
O35	O	1.000419	0.273987	0.603841
H36	H	1.102299	0.277139	0.606875
O37	O	1.290676	-0.382898	0.181611
H38	H	1.284761	-0.487018	0.183849
O39	O	1.296703	-0.140959	0.181667
H40	H	1.249773	-0.229336	0.111129
O41	O	1.334219	-0.102170	0.436848
H42	H	1.305355	-0.171654	0.490471
H43	H	1.341190	-0.337972	0.408894
O44	O	1.489066	-0.418367	0.092142
H45	H	1.450904	-0.342177	0.021771
O46	O	1.711645	-0.419143	0.265000
H47	H	1.780441	-0.343362	0.277481
H48	H	1.685681	-0.187117	0.262007
O49	O	1.498156	-0.177625	0.094941
H50	H	1.421639	-0.104102	0.105428
H51	H	1.586099	-0.338173	0.599671
H52	H	1.725243	-0.143755	0.543691
H53	H	1.721643	-0.363588	0.534175
O54	O	1.419224	0.129142	-0.322048
H55	H	1.415871	0.125735	-0.434161
H56	H	1.654253	0.367946	-0.198985
H57	H	1.401571	0.111230	-0.082337
O58	O	1.636610	0.350060	0.040726
H59	H	1.605402	0.446181	0.006026
