data_functionalizedCrystal
_audit_creation_method	'MofGen! by Chris Wilmer'
_symmetry_space_group_name_H-M	'P1'
_symmetry_Int_Tables_number	1
_symmetry_cell_setting	triclinic
loop_
_symmetry_equiv_pos_as_xyz
  x,y,z
_cell_length_a	12.827893
_cell_length_b	16.120507
_cell_length_c	12.827885
_cell_angle_alpha	92.861764
_cell_angle_beta	90.019272
_cell_angle_gamma	87.066041
loop_
_atom_site_label
_atom_site_type_symbol
_atom_site_fract_x
_atom_site_fract_y
_atom_site_fract_z
Zn1	Zn	1.576443	0.331863	0.611879
Zn2	Zn	2.076443	0.831863	1.111879
Zn3	Zn	1.567419	0.471299	0.445976
Zn4	Zn	2.067419	0.971299	0.945976
Zn5	Zn	1.401682	0.331905	0.437156
Zn6	Zn	1.901682	0.831905	0.937156
Zn7	Zn	1.392755	0.471238	0.620672
Zn8	Zn	1.892755	0.971238	1.120672
O9	O	1.484575	0.401576	0.528921
O10	O	1.984575	0.901576	1.028921
O11	O	1.721482	0.350369	0.589884
O12	O	2.221482	0.850369	1.089884
O13	O	1.545393	0.452851	0.298572
O14	O	2.045393	0.952851	0.798572
O15	O	1.432377	0.215233	0.452962
O16	O	1.932377	0.715233	0.952962
O17	O	1.714851	0.452811	0.467995
O18	O	2.214851	0.952811	0.967995
O19	O	1.560773	0.215203	0.581331
O20	O	2.060773	0.715203	1.081331
O21	O	1.423626	0.350439	0.292092
O22	O	1.923626	0.850439	0.792092
O23	O	1.254262	0.350379	0.461488
O24	O	1.754262	0.850379	0.961488
O25	O	1.417163	0.452707	0.765739
O26	O	1.917163	0.952707	1.265739
O27	O	1.247704	0.452746	0.596317
O28	O	1.747704	0.952746	1.096317
O29	O	1.552118	0.350309	0.759279
O30	O	2.052118	0.850309	1.259279
O31	O	1.536737	0.587957	0.476521
O32	O	2.036737	1.087957	0.976521
O33	O	1.408412	0.587912	0.604869
O34	O	1.908412	1.087912	1.104869
C35	C	1.213066	0.401561	0.528900
C36	C	1.713066	0.901561	1.028900
C37	C	1.096912	0.401574	0.528917
C38	C	1.596912	0.901574	1.028917
C39	C	1.048402	0.350972	0.589336
C40	C	1.548402	0.850972	1.089336
C41	C	0.928351	0.350985	0.589355
C42	C	1.428351	0.850985	1.089355
C43	C	1.470655	0.618184	0.542629
C44	C	1.970655	1.118184	1.042629
C45	C	1.464796	0.710850	0.548529
C46	C	1.964796	1.210850	1.048529
C47	C	1.515066	0.921795	0.498478
C48	C	2.015066	1.421795	0.998478
C49	C	1.454117	0.880507	0.559310
C50	C	1.954117	1.380507	1.059310
C51	C	1.460060	0.786101	0.553310
C52	C	1.960060	1.286101	1.053310
C53	C	1.509124	1.016209	0.504478
C54	C	2.009124	1.516209	1.004478
C55	C	1.757144	0.401592	0.528942
C56	C	2.257144	0.901592	1.028942
C57	C	1.873297	0.401599	0.528952
C58	C	2.373297	0.901599	1.028952
C59	C	1.484651	0.401496	0.801486
C60	C	1.984651	0.901496	1.301486
C61	C	1.484684	0.401462	0.917637
C62	C	1.984684	0.901462	1.417637
C63	C	1.498537	1.184122	0.515166
C64	C	1.998537	1.684122	1.015166
C65	C	1.504384	1.091456	0.509263
C66	C	2.004384	1.591456	1.009263
C67	C	1.484563	0.401596	0.257412
C68	C	1.984563	0.901596	0.757412
C69	C	1.484748	0.401395	0.141247
C70	C	1.984748	0.901395	0.641247
C71	C	1.551471	0.350783	0.966225
C72	C	2.051471	0.850783	1.466225
C73	C	1.551506	0.350746	1.086273
C74	C	2.051506	0.850746	1.586273
H75	H	1.049566	0.444904	0.477202
H76	H	1.549566	0.944904	0.977202
H77	H	0.915019	0.444928	0.477228
H78	H	1.415019	0.944928	0.977228
Br79	Br	1.646706	0.278481	0.887435
Br80	Br	2.146706	0.778481	1.387435
Br81	Br	1.389445	0.473727	1.071598
Br82	Br	1.889445	0.973727	1.571598
H83	H	1.095749	0.307638	0.641045
H84	H	1.595749	0.807638	1.141045
H85	H	1.608689	0.307360	1.128069
H86	H	2.108689	0.807360	1.628069
Br87	Br	1.609471	0.862541	0.404168
Br88	Br	2.109471	1.362541	0.904168
Br89	Br	0.858806	0.278781	0.675585
Br90	Br	1.358806	0.778781	1.175585
Br91	Br	1.359703	0.939759	0.653624
Br92	Br	1.859703	1.439759	1.153624
H93	H	1.427524	0.444818	0.964914
H94	H	1.927524	0.944818	1.464914
