data_functionalizedCrystal
_audit_creation_method	'MofGen! by Chris Wilmer'
_symmetry_space_group_name_H-M	'P1'
_symmetry_Int_Tables_number	1
_symmetry_cell_setting	triclinic
loop_
_symmetry_equiv_pos_as_xyz
  x,y,z
_cell_length_a	12.759401
_cell_length_b	16.625546
_cell_length_c	12.759393
_cell_angle_alpha	89.964881
_cell_angle_beta	89.980324
_cell_angle_gamma	90.022895
loop_
_atom_site_label
_atom_site_type_symbol
_atom_site_fract_x
_atom_site_fract_y
_atom_site_fract_z
Zn1	Zn	1.606210	-0.320953	-0.593951
Zn2	Zn	1.606077	-0.455808	-0.418257
Zn3	Zn	1.430508	-0.320994	-0.418290
Zn4	Zn	1.430476	-0.455749	-0.593898
O5	O	1.518318	-0.388376	-0.506099
O6	O	1.753213	-0.338850	-0.570653
O7	O	1.582745	-0.437966	-0.271240
O8	O	1.453884	-0.208156	-0.441628
O9	O	1.753116	-0.437927	-0.441571
O10	O	1.582971	-0.208126	-0.570685
O11	O	1.453756	-0.338919	-0.271264
O12	O	1.283483	-0.338862	-0.441576
O13	O	1.453830	-0.437826	-0.740926
O14	O	1.283460	-0.437865	-0.570595
O15	O	1.582940	-0.338793	-0.740965
O16	O	1.582714	-0.568632	-0.441520
O17	O	1.453701	-0.568589	-0.570563
C18	C	1.245350	-0.388362	-0.506084
C19	C	1.128574	-0.388376	-0.506103
C20	C	1.073763	-0.336879	-0.573419
C21	C	0.964039	-0.336888	-0.573426
C22	C	0.963946	-0.439895	-0.438797
C23	C	1.073668	-0.439882	-0.438786
C24	C	1.518218	-0.597867	-0.506055
C25	C	1.518272	-0.687488	-0.506071
C26	C	1.518455	-1.015663	-0.506181
C27	C	1.518401	-0.924355	-0.506153
C28	C	1.518363	-0.851579	-0.506125
C29	C	1.518310	-0.760264	-0.506099
C30	C	1.792351	-0.388390	-0.506114
C31	C	1.909128	-0.388397	-0.506121
C32	C	1.518396	-0.388299	-0.780132
C33	C	1.518430	-0.388266	-0.896909
C34	C	1.518446	-0.178067	-0.506166
C35	C	1.518501	-0.088446	-0.506195
C36	C	1.585663	-0.336691	-0.951793
C37	C	1.585681	-0.336656	-1.061517
C38	C	1.451230	-0.439778	-1.061464
C39	C	1.451208	-0.439808	-0.951742
C40	C	1.518300	-0.388395	-0.233132
C41	C	1.518470	-0.388201	-0.116355
H42	H	1.118296	-0.481817	-0.383963
Br43	Br	0.889424	-0.509795	-0.347445
H44	H	1.640397	-0.294719	-0.907152
H45	H	1.396502	-0.481744	-1.106122
H46	H	1.396451	-0.481806	-0.907054
Br47	Br	1.676937	-0.266664	-1.135999
H48	H	1.118464	-0.294937	-0.628230
Br49	Br	0.889657	-0.266994	-0.664784
