data_functionalizedCrystal
_audit_creation_method	'MofGen! by Chris Wilmer'
_symmetry_space_group_name_H-M	'P1'
_symmetry_Int_Tables_number	1
_symmetry_cell_setting	triclinic
loop_
_symmetry_equiv_pos_as_xyz
  x,y,z
_cell_length_a	14.519710
_cell_length_b	12.837942
_cell_length_c	11.892095
_cell_angle_alpha	85.697431
_cell_angle_beta	86.094705
_cell_angle_gamma	90.745458
loop_
_atom_site_label
_atom_site_type_symbol
_atom_site_fract_x
_atom_site_fract_y
_atom_site_fract_z
O1	O	1.240925	-0.129293	-0.093978
O2	O	0.973832	-0.145298	-0.093985
O3	O	1.101456	0.013618	-0.093975
O4	O	1.113301	-0.288209	-0.093988
O5	O	1.090813	0.000388	0.094032
O6	O	0.963189	-0.158527	0.094021
O7	O	1.230282	-0.142523	0.094029
Zn8	Zn	1.095046	-0.152625	0.123875
Zn9	Zn	1.109068	-0.135195	-0.123832
O10	O	1.102659	-0.301438	0.094018
C11	C	1.092133	0.045631	0.000028
C12	C	1.080199	0.160731	0.000026
C13	C	0.934086	-0.151166	0.000017
C14	C	0.831512	-0.148931	0.000014
C15	C	1.270028	-0.136654	0.000024
C16	C	1.372603	-0.138888	0.000019
C17	C	1.748210	-0.147117	0.000018
C18	C	1.643704	-0.144832	0.000018
C19	C	1.560410	-0.143003	0.000018
C20	C	1.455898	-0.140718	0.000020
C21	C	1.111982	-0.333451	0.000013
C22	C	1.123916	-0.448550	0.000008
N23	N	1.085483	-0.164521	0.292928
C24	C	1.223670	0.401424	0.000006
C25	C	1.212462	0.509571	0.000004
C26	C	1.046574	0.485174	0.000011
C27	C	1.057783	0.377027	0.000013
C28	C	1.146334	0.335156	0.000012
C29	C	1.157541	0.227007	0.000023
C30	C	0.991654	0.202612	0.000022
C31	C	0.980446	0.310759	0.000019
N32	N	1.118638	-0.123291	-0.292885
C33	C	1.185178	-0.040459	0.529585
C34	C	1.178501	-0.048781	0.647926
C35	C	1.065447	-0.189482	0.647955
C36	C	1.072124	-0.181160	0.529613
C37	C	1.131993	-0.106647	0.470432
C38	C	1.138674	-0.098330	0.352089
C39	C	1.025616	-0.239025	0.352120
C40	C	1.018938	-0.247348	0.470461
H41	H	1.229644	0.192918	0.000026
F42	F	1.202394	-0.019030	0.289107
H43	H	1.233932	0.020206	0.481399
H44	H	0.928681	0.148644	0.000036
F45	F	1.294775	0.580096	-0.000006
H46	H	1.221809	0.005117	0.696084
F47	F	1.001725	-0.268770	0.710952
H48	H	0.970192	-0.308012	0.518660
H49	H	0.982311	-0.292923	0.303945
F50	F	1.317910	0.356859	0.000029
H51	H	0.908350	0.344865	0.000016
F52	F	0.952340	0.529756	-0.000016
