data_functionalizedCrystal
_audit_creation_method	'MofGen! by Chris Wilmer'
_symmetry_space_group_name_H-M	'P1'
_symmetry_Int_Tables_number	1
_symmetry_cell_setting	triclinic
loop_
_symmetry_equiv_pos_as_xyz
  x,y,z
_cell_length_a	15.995350
_cell_length_b	15.995350
_cell_length_c	15.072220
_cell_angle_alpha	89.998899
_cell_angle_beta	89.991149
_cell_angle_gamma	96.507625
loop_
_atom_site_label
_atom_site_type_symbol
_atom_site_fract_x
_atom_site_fract_y
_atom_site_fract_z
O1	O	1.110996	-0.107921	-0.073703
O2	O	1.444329	0.225412	0.259630
O3	O	1.777663	0.558746	0.592964
O4	O	0.867221	-0.121249	-0.073721
O5	O	1.200554	0.212085	0.259613
O6	O	1.533887	0.545418	0.592946
O7	O	0.995772	0.007303	-0.073710
O8	O	1.329105	0.340636	0.259623
O9	O	1.662439	0.673970	0.592956
O10	O	0.982444	-0.236472	-0.073713
O11	O	1.315778	0.096861	0.259620
O12	O	1.649111	0.430194	0.592954
O13	O	0.995740	0.007296	0.073855
O14	O	1.329074	0.340629	0.407188
O15	O	1.662407	0.673962	0.740521
O16	O	0.867189	-0.121256	0.073844
O17	O	1.200522	0.212078	0.407178
O18	O	1.533855	0.545411	0.740511
O19	O	1.110964	-0.107928	0.073862
O20	O	1.444297	0.225405	0.407196
O21	O	1.777631	0.558738	0.740529
Zn22	Zn	0.989071	-0.114593	0.097283
Zn23	Zn	1.322405	0.218740	0.430616
Zn24	Zn	1.655738	0.552074	0.763949
Zn25	Zn	0.989113	-0.114584	-0.097141
Zn26	Zn	1.322447	0.218750	0.236192
Zn27	Zn	1.655780	0.552083	0.569526
O28	O	0.982413	-0.236480	0.073852
O29	O	1.315746	0.096854	0.407185
O30	O	1.649079	0.430187	0.740519
C31	C	0.836010	-0.120701	0.000060
C32	C	1.169343	0.212632	0.333393
C33	C	1.502677	0.545966	0.666726
C34	C	0.743060	-0.119049	0.000053
C35	C	1.076393	0.214284	0.333386
C36	C	1.409726	0.547617	0.666719
C37	C	0.405312	-0.113117	0.000071
C38	C	0.738645	0.220216	0.333405
C39	C	1.071979	0.553550	0.666738
C40	C	0.452746	-0.021565	0.000401
C41	C	0.786079	0.311768	0.333735
C42	C	1.119413	0.645101	0.667068
C43	C	0.549436	-0.023217	0.000063
C44	C	0.882770	0.310116	0.333396
C45	C	1.216103	0.643449	0.666729
C46	C	0.572873	-0.116060	0.000063
C47	C	0.906206	0.217274	0.333396
C48	C	1.239539	0.550607	0.666729
C49	C	0.531804	-0.161212	-0.084201
C50	C	0.865137	0.172121	0.249132
C51	C	1.198470	0.505455	0.582465
C52	C	0.435168	-0.158912	-0.084266
C53	C	0.768501	0.174421	0.249068
C54	C	1.101835	0.507755	0.582401
C55	C	0.434793	-0.160812	0.083543
C56	C	0.768126	0.172521	0.416877
C57	C	1.101460	0.505855	0.750210
C58	C	0.531738	-0.160790	0.084651
C59	C	0.865071	0.172543	0.417984
C60	C	1.198405	0.505876	0.751318
C61	C	0.667570	-0.117727	0.000055
C62	C	1.000903	0.215606	0.333388
C63	C	1.334237	0.548939	0.666721
C64	C	0.310614	-0.111452	0.000073
C65	C	0.643948	0.221881	0.333407
C66	C	0.977281	0.555215	0.666740
C67	C	0.995205	0.038494	0.000070
C68	C	1.328538	0.371827	0.333404
C69	C	1.661872	0.705161	0.666737
C70	C	0.993553	0.131444	0.000065
C71	C	1.326887	0.464778	0.333399
C72	C	1.660220	0.798111	0.666732
C73	C	1.142175	-0.108476	0.000080
C74	C	1.475508	0.224858	0.333413
C75	C	1.808841	0.558191	0.666747
C76	C	1.235125	-0.110127	0.000081
C77	C	1.568458	0.223206	0.333414
C78	C	1.901792	0.556539	0.666748
C79	C	0.982980	-0.267671	0.000069
C80	C	1.316313	0.065663	0.333403
C81	C	1.649646	0.398996	0.666736
C82	C	0.984631	-0.360621	0.000069
C83	C	1.317965	-0.027288	0.333402
C84	C	1.651298	0.306046	0.666735
N85	N	0.989049	-0.114599	0.229971
N86	N	1.322382	0.218734	0.563305
N87	N	1.655716	0.552068	0.896638
C88	C	0.987621	0.469192	0.000068
C89	C	1.320954	0.802525	0.333401
C90	C	1.654288	1.135859	0.666734
C91	C	0.896069	0.421758	-0.000270
C92	C	1.229403	0.755091	0.333064
C93	C	1.562736	1.088425	0.666397
C94	C	0.897721	0.325068	0.000063
C95	C	1.231055	0.658401	0.333396
C96	C	1.564388	0.991734	0.666730
C97	C	0.990564	0.301631	0.000066
C98	C	1.323897	0.634965	0.333399
C99	C	1.657230	0.968298	0.666733
C100	C	1.035702	0.342705	0.084335
C101	C	1.369035	0.676038	0.417668
C102	C	1.702369	1.009371	0.751001
C103	C	1.033402	0.439341	0.084405
C104	C	1.366736	0.772674	0.417738
C105	C	1.700069	1.106007	0.751072
C106	C	1.035330	0.439707	-0.083404
C107	C	1.368663	0.773040	0.249929
C108	C	1.701996	1.106373	0.583263
C109	C	1.035308	0.342761	-0.084518
C110	C	1.368641	0.676095	0.248816
C111	C	1.701975	1.009428	0.582149
C112	C	0.992231	0.206934	0.000068
C113	C	1.325565	0.540267	0.333401
C114	C	1.658898	0.873601	0.666735
C115	C	0.985956	0.563890	0.000072
C116	C	1.319289	0.897223	0.333405
C117	C	1.652623	1.230556	0.666738
N118	N	0.989142	-0.114571	-0.229830
N119	N	1.322476	0.218762	0.103504
N120	N	1.655809	0.552096	0.436837
C121	C	0.989112	-0.114580	0.589173
C122	C	1.322445	0.218753	0.922506
C123	C	1.655778	0.552086	1.255840
C124	C	0.920095	-0.183135	0.551560
C125	C	1.253429	0.150198	0.884894
C126	C	1.586762	0.483532	1.218227
C127	C	0.920254	-0.183385	0.448735
C128	C	1.253587	0.149948	0.782068
C129	C	1.586920	0.483281	1.115401
C130	C	0.989080	-0.114590	0.410969
C131	C	1.322413	0.218744	0.744302
C132	C	1.655746	0.552077	1.077635
C133	C	1.076445	-0.133671	0.448266
C134	C	1.409778	0.199662	0.781600
C135	C	1.743111	0.532995	1.114933
C136	C	1.076058	-0.134159	0.551124
C137	C	1.409391	0.199175	0.884457
C138	C	1.742725	0.532508	1.217791
C139	C	0.971542	-0.026741	0.551272
C140	C	1.304875	0.306592	0.884606
C141	C	1.638209	0.639926	1.217939
C142	C	0.969537	-0.027327	0.448409
C143	C	1.302871	0.306007	0.781742
C144	C	1.636204	0.639340	1.115076
C145	C	0.989067	-0.114593	0.310255
C146	C	1.322401	0.218740	0.643589
C147	C	1.655734	0.552073	0.976922
C148	C	0.989130	-0.114579	0.689886
C149	C	1.322463	0.218755	1.023220
C150	C	1.655796	0.552088	1.356553
H151	H	0.433165	0.014865	-0.059694
H152	H	0.766499	0.348198	0.273640
H153	H	1.099832	0.681531	0.606973
F154	F	1.096294	-0.217890	0.582473
F155	F	1.429627	0.115443	0.915807
F156	F	1.762960	0.448776	1.249140
F157	F	1.121255	0.481493	0.089415
F158	F	1.454588	0.814827	0.422748
F159	F	1.787922	1.148160	0.756081
F160	F	1.030979	0.042479	0.414821
F161	F	1.364312	0.375813	0.748154
F162	F	1.697646	0.709146	1.081488
F163	F	0.585844	0.023306	-0.079152
F164	F	0.919178	0.356639	0.254182
F165	F	1.252511	0.689972	0.587515
H166	H	0.909219	-0.008392	0.577258
H167	H	1.242553	0.324941	0.910592
H168	H	1.575886	0.658274	1.243925
H169	H	0.547102	-0.228494	0.089741
H170	H	0.880435	0.104839	0.423074
H171	H	1.213769	0.438173	0.756407
H172	H	1.103014	0.327400	-0.089603
H173	H	1.436347	0.660733	0.243730
H174	H	1.769680	0.994066	0.577063
H175	H	0.931160	-0.247952	0.577399
H176	H	1.264493	0.085381	0.910733
H177	H	1.597827	0.418714	1.244066
F178	F	0.393280	-0.249040	0.084289
F179	F	0.726613	0.084294	0.417622
F180	F	1.059946	0.417627	0.750956
F181	F	0.851342	0.287919	-0.078893
F182	F	1.184676	0.621253	0.254440
F183	F	1.518009	0.954586	0.587773
F184	F	1.037326	0.039941	0.583063
F185	F	1.370659	0.373275	0.916397
F186	F	1.703993	0.706608	1.249730
H187	H	1.129029	-0.085068	0.423801
H188	H	1.462362	0.248265	0.757135
H189	H	1.795695	0.581599	1.090468
H190	H	0.855314	-0.172016	0.423519
H191	H	1.188647	0.161317	0.756852
H192	H	1.521980	0.494650	1.090186
H193	H	0.854945	-0.171953	0.576317
H194	H	1.188279	0.161380	0.909651
H195	H	1.521612	0.494714	1.242984
H196	H	0.861974	0.297200	0.060568
H197	H	1.195307	0.630533	0.393901
H198	H	1.528640	0.963867	0.727235
H199	H	0.434211	0.015027	0.060830
H200	H	0.767544	0.348361	0.394164
H201	H	1.100878	0.681694	0.727497
H202	H	0.931473	-0.248570	0.424121
H203	H	1.264806	0.084764	0.757455
H204	H	1.598139	0.418097	1.090788
H205	H	0.545929	-0.229421	-0.087335
H206	H	0.879263	0.103913	0.245999
H207	H	1.212596	0.437246	0.579332
F208	F	0.568906	-0.120215	-0.166171
F209	F	0.902239	0.213119	0.167163
F210	F	1.235572	0.546452	0.500496
F211	F	1.145141	-0.071311	0.583646
F212	F	1.478474	0.262022	0.916979
F213	F	1.811808	0.595355	1.250313
F214	F	0.411253	-0.115866	-0.166596
F215	F	0.744586	0.217468	0.166737
F216	F	1.077919	0.550801	0.500070
F217	F	0.393015	-0.246766	-0.089265
F218	F	0.726349	0.086567	0.244069
F219	F	1.059682	0.419901	0.577402
H220	H	1.092297	-0.197002	0.422498
H221	H	1.425630	0.136331	0.755831
H222	H	1.758963	0.469665	1.089164
F223	F	1.123557	0.481221	-0.084143
F224	F	1.456891	0.814554	0.249190
F225	F	1.790224	1.147888	0.582523
H226	H	0.859490	0.440293	-0.060701
H227	H	1.192823	0.773626	0.272633
H228	H	1.526156	1.106959	0.605966
H229	H	0.577852	0.012275	0.060467
H230	H	0.911186	0.345608	0.393800
H231	H	1.244519	0.678942	0.727133
F232	F	0.567342	-0.117640	0.166131
F233	F	0.900675	0.215693	0.499464
F234	F	1.234009	0.549026	0.832798
F235	F	0.407938	-0.121693	0.167027
F236	F	0.741271	0.211641	0.500360
F237	F	1.074605	0.544974	0.833694
F238	F	0.848312	0.447646	0.078055
F239	F	1.181646	0.780979	0.411389
F240	F	1.514979	1.114313	0.744722
F241	F	0.992504	0.306761	-0.166012
F242	F	1.325838	0.640094	0.167321
F243	F	1.659171	0.973427	0.500654
H244	H	0.905271	-0.012846	0.424032
H245	H	1.238604	0.320488	0.757365
H246	H	1.571938	0.653821	1.090699
H247	H	1.000460	0.457639	0.147395
H248	H	1.333794	0.790972	0.480728
H249	H	1.667127	1.124306	0.814061
H250	H	1.103910	0.328579	0.087471
H251	H	1.437244	0.661912	0.420804
H252	H	1.770577	0.995246	0.754137
F253	F	0.994691	0.305607	0.166300
F254	F	1.328024	0.638940	0.499633
F255	F	1.661358	0.972274	0.832966
H256	H	1.005411	0.460250	-0.147274
H257	H	1.338744	0.793583	0.186059
H258	H	1.672077	1.126916	0.519392
