data_functionalizedCrystal
_audit_creation_method	'MofGen! by Chris Wilmer'
_symmetry_space_group_name_H-M	'P1'
_symmetry_Int_Tables_number	1
_symmetry_cell_setting	triclinic
loop_
_symmetry_equiv_pos_as_xyz
  x,y,z
_cell_length_a	12.594517
_cell_length_b	19.805405
_cell_length_c	12.594509
_cell_angle_alpha	89.965297
_cell_angle_beta	90.021327
_cell_angle_gamma	89.973790
loop_
_atom_site_label
_atom_site_type_symbol
_atom_site_fract_x
_atom_site_fract_y
_atom_site_fract_z
Zn1	Zn	1.627190	0.269446	0.601812
Zn2	Zn	1.627049	0.382645	0.423814
Zn3	Zn	1.449194	0.269475	0.423841
Zn4	Zn	1.449144	0.382598	0.601744
O5	O	1.538144	0.326041	0.512803
O6	O	1.776117	0.284470	0.578217
O7	O	1.603418	0.367665	0.274871
O8	O	1.472886	0.174755	0.447489
O9	O	1.776014	0.367637	0.447443
O10	O	1.603659	0.174734	0.578244
O11	O	1.472749	0.284519	0.274891
O12	O	1.300242	0.284474	0.447423
O13	O	1.472801	0.367557	0.750699
O14	O	1.300205	0.367585	0.578127
O15	O	1.603610	0.284424	0.750749
O16	O	1.603369	0.477356	0.447376
O17	O	1.472664	0.477321	0.578100
C18	C	1.261603	0.326028	0.512771
C19	C	1.143298	0.326038	0.512783
C20	C	1.538025	0.501897	0.512751
C21	C	1.538071	0.577129	0.512765
C22	C	1.538216	0.325982	0.790424
C23	C	1.538246	0.325957	0.908729
C24	C	1.074034	0.280773	0.441829
C25	C	1.003205	0.342513	0.415638
C26	C	1.003328	0.264329	0.538992
C27	C	1.074028	0.387811	0.486541
C28	C	1.074156	0.309585	0.609941
C29	C	1.003359	0.371368	0.583787
C30	C	1.815765	0.326056	0.512835
C31	C	1.934071	0.326062	0.512848
C32	C	1.538294	0.149499	0.512878
C33	C	1.538357	0.074267	0.512909
C34	C	1.606195	0.612469	0.444768
C35	C	1.606241	0.683158	0.444791
C36	C	1.538155	0.718505	0.512807
C37	C	1.470027	0.683160	0.580812
C38	C	1.469988	0.612473	0.580793
C39	C	1.470184	0.968234	0.580890
C40	C	1.470226	1.038926	0.580902
C41	C	1.606437	1.038918	0.444889
C42	C	1.606398	0.968231	0.444870
C43	C	1.538274	0.932892	0.512878
C44	C	1.538228	0.856244	0.512853
C45	C	1.538196	0.795152	0.512827
C46	C	1.538135	0.326052	0.236262
C47	C	1.538311	0.325886	0.117957
C48	C	1.467121	0.371147	0.977955
C49	C	1.564237	0.387685	1.048742
C50	C	1.441206	0.309378	1.048741
C51	C	1.635413	0.342527	0.977958
C52	C	1.512316	0.264192	0.977951
C53	C	1.609499	0.280706	1.048706
H54	H	1.105066	0.242530	0.381751
H55	H	0.972523	0.409702	0.643819
C56	C	1.115793	0.458345	0.456498
H57	H	1.057540	0.487794	0.444018
H58	H	1.157739	0.455172	0.394029
H59	H	1.157855	0.475587	0.512926
H60	H	1.414714	0.939467	0.636263
H61	H	1.586204	0.439888	1.079838
H62	H	1.717529	0.356579	0.946997
H63	H	1.407020	0.409422	0.946891
C64	C	1.116209	0.290773	0.720910
H65	H	1.157675	0.326921	0.748044
H66	H	1.158796	0.251300	0.716021
H67	H	1.058065	0.282507	0.767149
H68	H	1.414596	0.711946	0.636196
H69	H	0.972216	0.212139	0.561096
C70	C	1.681092	0.573593	0.369951
H71	H	1.721678	0.604767	0.329466
H72	H	1.640392	0.546061	0.323528
H73	H	1.727434	0.545976	0.410711
H74	H	1.414516	0.583700	0.636164
H75	H	1.669744	0.242460	1.079575
C76	C	0.961082	0.361329	0.304689
H77	H	0.919572	0.401277	0.309420
H78	H	0.918516	0.325530	0.278145
H79	H	1.019179	0.368795	0.258057
C80	C	1.681173	0.722028	0.369989
H81	H	1.721705	0.690853	0.329469
H82	H	1.727546	0.749559	0.410750
H83	H	1.640488	0.749647	0.323582
H84	H	1.661835	0.939453	0.389482
H85	H	1.490321	0.212004	0.946831
H86	H	1.359114	0.295385	1.079833
H87	H	1.661910	1.067699	0.389518
H88	H	1.414784	1.067704	0.636297
