data_functionalizedCrystal
_audit_creation_method	'MofGen! by Chris Wilmer'
_symmetry_space_group_name_H-M	'P1'
_symmetry_Int_Tables_number	1
_symmetry_cell_setting	triclinic
loop_
_symmetry_equiv_pos_as_xyz
  x,y,z
_cell_length_a	10.540539
_cell_length_b	10.654550
_cell_length_c	9.130313
_cell_angle_alpha	90.003780
_cell_angle_beta	90.000859
_cell_angle_gamma	95.494803
loop_
_atom_site_label
_atom_site_type_symbol
_atom_site_fract_x
_atom_site_fract_y
_atom_site_fract_z
O1	O	0.178295	-1.667897	-0.121912
O2	O	0.195282	-1.302424	-0.121888
O3	O	0.002079	-1.493499	-0.121899
O4	O	0.371498	-1.476823	-0.121902
O5	O	0.002084	-1.493496	0.121700
O6	O	0.195287	-1.302422	0.121711
O7	O	0.178300	-1.667894	0.121686
Cu8	Cu	0.186794	-1.485158	0.143941
Cu9	Cu	0.186788	-1.485161	-0.144143
O10	O	0.371503	-1.476820	0.121697
C11	C	-0.045221	-1.492247	-0.000102
C12	C	-0.186168	-1.488505	-0.000110
C13	C	0.194038	-1.255625	-0.000086
C14	C	0.190306	-1.116180	-0.000077
C15	C	0.179545	-1.714694	-0.000119
C16	C	0.183276	-1.854139	-0.000138
C17	C	-0.369543	-1.345134	-0.000647
C18	C	-0.222926	-1.348927	-0.000099
C19	C	-0.247846	-1.555675	0.138993
C20	C	-0.394389	-1.550912	0.139110
C21	C	-0.394914	-1.553753	-0.137907
C22	C	-0.247933	-1.555039	-0.139747
C23	C	0.418803	-1.478072	-0.000103
C24	C	0.559750	-1.481813	-0.000105
N25	N	0.186798	-1.485165	0.346564
C26	C	0.304061	-1.036734	-0.000099
C27	C	0.300547	-0.905712	-0.000124
C28	C	0.069513	-0.933595	-0.000111
C29	C	0.073028	-1.064614	-0.000075
C30	C	0.421338	-1.088301	-0.000100
C31	C	0.535103	-1.008854	-0.000124
C32	C	0.531589	-0.877832	-0.000149
C33	C	0.414310	-0.826256	-0.000151
N34	N	0.186774	-1.485163	-0.346765
C35	C	0.101277	-1.569795	0.423211
C36	C	0.101262	-1.569791	0.576548
C37	C	0.272300	-1.400525	0.576577
C38	C	0.272308	-1.400523	0.423243
C39	C	0.015767	-1.654437	0.346532
C40	C	-0.069760	-1.739074	0.423179
C41	C	-0.069775	-1.739071	0.576516
C42	C	0.015736	-1.654430	0.653206
H43	H	-0.180306	-1.296074	-0.099813
H44	H	-0.399728	-1.290221	0.098554
Br45	Br	0.388368	-1.285658	0.319217
Br46	Br	0.015696	-1.654417	0.861308
H47	H	-0.422569	-1.501268	0.243099
H48	H	0.624221	-0.813149	-0.000154
H49	H	0.411458	-0.719568	-0.000148
Br50	Br	-0.185857	-1.853919	0.680538
H51	H	0.630586	-1.050855	-0.000110
H52	H	0.341921	-1.331615	0.639027
H53	H	-0.398125	-1.289998	-0.100399
Br54	Br	-0.153281	-1.260206	0.166381
H55	H	-0.442394	-1.651295	0.145414
Br56	Br	-0.176819	-1.477907	0.311542
Br57	Br	-0.210658	-1.726522	0.147611
Br58	Br	-0.447462	-1.478450	-0.313635
Br59	Br	-0.178983	-1.473823	-0.311291
H60	H	-0.223748	-1.656802	-0.148154
H61	H	-0.139388	-1.807980	0.360731
H62	H	-0.442177	-1.654570	-0.138850
H63	H	-0.025970	-0.891591	-0.000137
Br64	Br	-0.081356	-1.172442	-0.000037
H65	H	0.015774	-1.654450	0.221677
Br66	Br	0.426114	-1.266115	-0.000080
