data_functionalizedCrystal
_audit_creation_method	'MofGen! by Chris Wilmer'
_symmetry_space_group_name_H-M	'P1'
_symmetry_Int_Tables_number	1
_symmetry_cell_setting	triclinic
loop_
_symmetry_equiv_pos_as_xyz
  x,y,z
_cell_length_a	18.366186
_cell_length_b	19.288899
_cell_length_c	19.288865
_cell_angle_alpha	96.856754
_cell_angle_beta	89.987206
_cell_angle_gamma	89.992143
loop_
_atom_site_label
_atom_site_type_symbol
_atom_site_fract_x
_atom_site_fract_y
_atom_site_fract_z
O1	O	0.060440	0.921327	-0.086765
O2	O	0.060469	0.719070	-0.098428
O3	O	0.060439	0.826043	0.008533
O4	O	0.060470	0.814354	-0.193726
O5	O	-0.060660	0.826045	0.008543
O6	O	-0.060631	0.719072	-0.098418
O7	O	-0.060659	0.921330	-0.086754
Zn8	Zn	-0.079872	0.820201	-0.092584
Zn9	Zn	0.079682	0.820198	-0.092598
O10	O	-0.060630	0.814357	-0.193716
C11	C	-0.000077	0.693195	-0.098044
C12	C	-0.000067	0.616093	-0.096905
N13	N	0.188573	0.820196	-0.092602
C14	C	-0.000112	0.825668	0.034415
C15	C	-0.000119	0.824539	0.111519
N16	N	-0.188763	0.820209	-0.092575
C17	C	0.226660	0.867648	-0.045332
C18	C	0.302888	0.867654	-0.045330
C19	C	0.341026	0.820197	-0.092593
C20	C	0.302929	0.772741	-0.139872
C21	C	0.226703	0.772741	-0.139877
C22	C	0.461802	0.756910	-0.101730
C23	C	0.538027	0.756909	-0.101720
C24	C	0.576133	0.820197	-0.092582
C25	C	0.538005	0.883488	-0.083439
C26	C	0.461778	0.883488	-0.083444
C27	C	0.423680	0.820192	-0.092593
C28	C	0.696875	0.867659	-0.045308
C29	C	0.773105	0.867666	-0.045311
C30	C	0.773144	0.772747	-0.139849
C31	C	0.696916	0.772746	-0.139849
C32	C	0.658787	0.820201	-0.092575
C33	C	-0.000111	0.947204	-0.087139
C34	C	-0.000116	1.024307	-0.088277
C35	C	0.065896	1.060510	-0.088816
C36	C	0.065904	1.132959	-0.089868
C37	C	-0.000105	1.169199	-0.090394
C38	C	-0.066126	1.132987	-0.089850
C39	C	-0.066132	1.060541	-0.088792
C40	C	-0.050661	1.278544	-0.132750
C41	C	-0.050653	1.350988	-0.133812
C42	C	-0.000089	1.392647	-0.093655
C43	C	0.050478	1.361852	-0.052444
C44	C	0.050472	1.289406	-0.051386
C45	C	-0.000105	1.247754	-0.091541
C46	C	0.065937	1.507407	-0.095334
C47	C	0.065942	1.579858	-0.096381
C48	C	-0.066090	1.579884	-0.096370
C49	C	-0.066093	1.507436	-0.095316
C50	C	-0.000078	1.471201	-0.094801
C51	C	-0.000076	0.814732	-0.219597
C52	C	-0.000065	0.815861	-0.296701
C53	C	-0.000131	0.887306	0.156207
C54	C	-0.000119	0.886245	0.228654
C55	C	-0.000110	0.822414	0.256410
C56	C	-0.000093	0.759639	0.211711
C57	C	-0.000098	0.760701	0.139266
C58	C	-0.042521	0.772236	0.364707
C59	C	-0.042522	0.771176	0.437152
C60	C	-0.000093	0.819135	0.479856
C61	C	0.042326	0.868164	0.450108
C62	C	0.042321	0.869227	0.377662
C63	C	-0.000105	0.821255	0.334964
C64	C	-0.000092	0.880756	0.603100
C65	C	-0.000076	0.879692	0.675549
C66	C	-0.000057	0.753084	0.658604
C67	C	-0.000066	0.754149	0.586157
C68	C	-0.000087	0.817987	0.558410
H69	H	0.195617	0.906290	-0.006840
C70	C	0.088986	0.923148	0.344941
H71	H	0.114262	0.951556	0.380744
H72	H	0.058396	0.951607	0.320438
H73	H	0.123104	0.899538	0.313459
H74	H	-0.119889	1.031064	-0.088356
C75	C	-0.138698	1.619739	-0.096948
H76	H	-0.129241	1.668070	-0.097659
H77	H	-0.165830	1.613287	-0.056278
H78	H	-0.165814	1.602455	-0.137274
C79	C	-0.000138	0.955289	0.277823
H80	H	-0.000129	0.945512	0.324943
H81	H	-0.042375	0.981470	0.269442
H82	H	0.042090	0.981477	0.269424
H83	H	0.333905	0.906297	-0.006836
C84	C	-0.089196	0.719482	0.317736
H85	H	-0.083120	0.727132	0.270329
H86	H	-0.138981	0.725415	0.330440
H87	H	-0.074269	0.673350	0.323454
H88	H	-0.119870	1.162499	-0.090278
C89	C	-0.000057	0.685107	0.536995
H90	H	-0.000055	0.694881	0.489874
H91	H	-0.042281	0.658920	0.545396
H92	H	0.042185	0.658927	0.545377
C93	C	0.419893	0.687292	-0.111893
H94	H	0.453517	0.649601	-0.117361
H95	H	0.390213	0.685753	-0.152373
H96	H	0.390104	0.683572	-0.072238
H97	H	-0.000106	0.932736	0.580508
H98	H	0.091654	1.395769	-0.019747
H99	H	0.076875	0.907216	0.484877
C100	C	-0.000091	0.948740	0.724707
H101	H	-0.000111	0.986908	0.697803
H102	H	0.042141	0.950962	0.753309
H103	H	-0.042325	0.950951	0.753331
C104	C	-0.138708	1.467608	-0.094734
H105	H	-0.178020	1.499565	-0.095204
H106	H	-0.141463	1.444762	-0.053828
H107	H	-0.141445	1.433933	-0.134823
C108	C	0.655015	0.720544	-0.191840
H109	H	0.604156	0.727344	-0.185078
H110	H	0.667511	0.674239	-0.184320
H111	H	0.667520	0.727855	-0.238206
C112	C	0.419839	0.953102	-0.073397
H113	H	0.453446	0.990797	-0.067959
H114	H	0.390088	0.954714	-0.032946
H115	H	0.390118	0.956746	-0.113103
C116	C	0.344877	0.720539	-0.191859
H117	H	0.395730	0.727330	-0.185082
H118	H	0.332399	0.727845	-0.238224
H119	H	0.332387	0.674232	-0.184336
H120	H	0.119690	1.477904	-0.094912
H121	H	-0.091812	1.376053	-0.167386
H122	H	0.119699	1.609334	-0.096815
C123	C	-0.000091	0.691655	0.090106
H124	H	-0.000087	0.653486	0.117009
H125	H	0.042135	0.689437	0.061478
H126	H	-0.042331	0.689441	0.061509
H127	H	-0.000046	0.701112	0.681201
H128	H	0.804195	0.734109	-0.178334
H129	H	0.569029	0.935023	-0.076003
H130	H	-0.000146	0.939287	0.133620
C131	C	0.184805	0.720533	-0.191867
H132	H	0.218433	0.692264	-0.220013
H133	H	0.155067	0.745357	-0.220777
H134	H	0.155073	0.691753	-0.166880
C135	C	0.138510	1.020659	-0.088232
H136	H	0.177826	1.052602	-0.088695
H137	H	0.141266	0.986975	-0.128310
H138	H	0.141239	0.997822	-0.047314
H139	H	-0.077057	0.731251	0.461366
H140	H	0.569066	0.705374	-0.109157
C141	C	-0.000086	0.689427	0.242239
H142	H	-0.000093	0.697783	0.291786
H143	H	0.042147	0.663590	0.226877
H144	H	-0.042318	0.663594	0.226895
H145	H	-0.091844	1.244631	-0.165447
C146	C	0.654926	0.919861	0.006684
H147	H	0.604073	0.913059	-0.000082
H148	H	0.667412	0.966166	-0.000836
H149	H	0.667408	0.912552	0.053051
C150	C	0.815001	0.919865	0.006690
H151	H	0.781372	0.948121	0.034846
H152	H	0.844740	0.948648	-0.018281
H153	H	0.844732	0.895025	0.035598
C154	C	0.138518	1.172794	-0.090464
H155	H	0.129066	1.221130	-0.091164
H156	H	0.165645	1.155499	-0.130790
H157	H	0.165638	1.166335	-0.049794
C158	C	0.106084	1.255534	-0.006051
H159	H	0.136198	1.290716	0.017720
H160	H	0.135333	1.223340	-0.034968
H161	H	0.081025	1.231657	0.027079
