data_functionalizedCrystal
_audit_creation_method	'MofGen! by Chris Wilmer'
_symmetry_space_group_name_H-M	'P1'
_symmetry_Int_Tables_number	1
_symmetry_cell_setting	triclinic
loop_
_symmetry_equiv_pos_as_xyz
  x,y,z
_cell_length_a	15.944499
_cell_length_b	14.421503
_cell_length_c	9.065218
_cell_angle_alpha	89.993800
_cell_angle_beta	84.246747
_cell_angle_gamma	90.010221
loop_
_atom_site_label
_atom_site_type_symbol
_atom_site_fract_x
_atom_site_fract_y
_atom_site_fract_z
O1	O	1.115995	0.077164	0.189888
O2	O	0.871618	0.077153	0.213426
O3	O	0.998858	0.077157	-0.013105
O4	O	0.988755	0.077160	0.416419
O5	O	0.998836	-0.077067	-0.013072
O6	O	0.871597	-0.077071	0.213460
O7	O	1.115974	-0.077060	0.189921
Cu8	Cu	0.993783	-0.091147	0.201694
Cu9	Cu	0.993808	0.091240	0.201654
O10	O	0.988734	-0.077064	0.416453
C11	C	0.840305	0.000040	0.212479
C12	C	0.747035	0.000036	0.209590
N13	N	0.993772	-0.219428	0.201721
C14	C	0.456496	0.000051	0.341199
C15	C	0.517017	0.076092	0.272768
C16	C	0.411319	0.000057	0.199093
C17	C	0.516982	-0.075960	0.272763
C18	C	0.576267	0.000045	0.204258
C19	C	0.470612	0.076161	0.130624
C20	C	0.470570	-0.075959	0.130639
C21	C	0.531073	0.000101	0.062105
C22	C	0.316296	0.000065	0.196122
C23	C	0.671288	0.000044	0.207219
C24	C	0.934925	-0.469084	0.306422
C25	C	1.011044	-0.530883	0.335039
C26	C	0.993792	-0.408590	0.201685
C27	C	0.917693	-0.530885	0.173103
C28	C	0.993805	-0.591311	0.201655
C29	C	1.069949	-0.469028	0.230369
C30	C	0.976548	-0.469024	0.068375
C31	C	1.052721	-0.530796	0.096935
C32	C	0.993783	-0.303329	0.201707
C33	C	0.993822	-0.696570	0.201632
C34	C	1.147286	0.000055	0.190868
C35	C	1.240557	0.000065	0.193757
C36	C	0.997876	0.000046	-0.068052
C37	C	0.994973	0.000051	-0.231826
N38	N	0.993826	0.219521	0.201615
C39	C	0.989715	0.000049	0.471399
C40	C	0.992618	0.000050	0.635173
H41	H	0.537580	0.140376	0.332864
C42	C	1.119305	-0.566659	-0.021007
C43	C	1.198803	-0.535164	0.009605
C44	C	1.260162	-0.568195	-0.098992
H45	H	1.107625	-0.544562	-0.115523
H46	H	1.118690	-0.632533	-0.020903
H47	H	1.199416	-0.469304	0.009486
H48	H	1.210510	-0.557258	0.104100
H49	H	1.259547	-0.634070	-0.098888
H50	H	1.248474	-0.546097	-0.193501
H51	H	1.314109	-0.546839	-0.078230
H52	H	0.537504	-0.140245	0.332906
C53	C	0.956883	-0.432807	-0.081812
C54	C	0.877089	-0.464075	-0.111142
C55	C	0.858930	-0.430718	-0.249469
H56	H	0.998073	-0.454834	-0.156560
H57	H	0.957487	-0.366935	-0.080990
H58	H	0.876491	-0.529933	-0.111976
H59	H	0.835882	-0.442051	-0.036430
H60	H	0.859534	-0.364846	-0.248647
H61	H	0.900125	-0.452747	-0.324206
H62	H	0.804786	-0.451921	-0.269382
C63	C	1.030343	-0.567070	0.485460
C64	C	0.968508	-0.535829	0.594708
C65	C	0.986246	-0.569153	0.733293
H66	H	1.083970	-0.545002	0.506679
H67	H	1.030679	-0.632942	0.484147
H68	H	0.968181	-0.469971	0.596025
H69	H	0.914875	-0.557895	0.573538
H70	H	0.986582	-0.635024	0.731980
H71	H	1.039874	-0.547083	0.754497
H72	H	0.944290	-0.547968	0.807433
C73	C	0.413078	0.000097	0.498329
C74	C	0.325584	-0.000741	0.493539
C75	C	0.285559	-0.000706	0.638252
H76	H	0.428777	0.054167	0.548718
H77	H	0.429571	-0.053397	0.549350
H78	H	0.309098	0.052748	0.442540
H79	H	0.309861	-0.054808	0.443178
H80	H	0.302051	-0.054201	0.689273
H81	H	0.301264	0.053365	0.688629
H82	H	0.226190	-0.001284	0.635021
C83	C	0.868633	-0.432759	0.424477
C84	C	0.868966	-0.335684	0.422068
C85	C	0.807907	-0.302188	0.530787
H86	H	0.880954	-0.453840	0.519209
H87	H	0.814660	-0.454793	0.405108
H88	H	0.922927	-0.313658	0.441448
H89	H	0.856635	-0.314578	0.327362
H90	H	0.753934	-0.324223	0.511418
H91	H	0.820234	-0.323276	0.625511
H92	H	0.808120	-0.236320	0.529158
C93	C	1.155698	-0.432779	0.262939
C94	C	1.154664	-0.335700	0.262727
C95	C	1.233625	-0.302274	0.292802
H96	H	1.197649	-0.454284	0.189073
H97	H	1.168005	-0.454441	0.357375
H98	H	1.142367	-0.314047	0.168305
H99	H	1.112731	-0.314170	0.336594
H100	H	1.245932	-0.323936	0.387237
H101	H	1.275569	-0.323785	0.218931
H102	H	1.232931	-0.236403	0.292675
H103	H	0.450187	0.140520	0.070561
C104	C	0.831797	-0.566982	0.141079
C105	C	0.770414	-0.535692	0.251071
C106	C	0.691274	-0.568912	0.221621
H107	H	0.832447	-0.632843	0.140435
H108	H	0.819095	-0.544863	0.047133
H109	H	0.783112	-0.557816	0.344992
H110	H	0.769736	-0.469835	0.251732
H111	H	0.678571	-0.546792	0.127675
H112	H	0.691933	-0.634772	0.220976
H113	H	0.649615	-0.547679	0.296237
C114	C	0.574088	0.000343	-0.095307
C115	C	0.550568	0.080100	-0.169018
C116	C	0.590186	0.080365	-0.314019
H117	H	0.557512	-0.053099	-0.146327
H118	H	0.633501	-0.000120	-0.092644
H119	H	0.491168	0.080554	-0.171690
H120	H	0.567146	0.133555	-0.118043
H121	H	0.649599	0.079902	-0.311355
H122	H	0.573607	0.026919	-0.365025
H123	H	0.574240	0.134482	-0.364046
H124	H	0.449990	-0.140249	0.070597
