data_functionalizedCrystal
_audit_creation_method	'MofGen! by Chris Wilmer'
_symmetry_space_group_name_H-M	'P1'
_symmetry_Int_Tables_number	1
_symmetry_cell_setting	triclinic
loop_
_symmetry_equiv_pos_as_xyz
  x,y,z
_cell_length_a	10.686220
_cell_length_b	13.897448
_cell_length_c	10.686551
_cell_angle_alpha	94.404661
_cell_angle_beta	90.308082
_cell_angle_gamma	85.598866
loop_
_atom_site_label
_atom_site_type_symbol
_atom_site_fract_x
_atom_site_fract_y
_atom_site_fract_z
Zn1	Zn	1.972263	0.235164	-0.562391
Zn2	Zn	2.472263	0.735164	-0.062391
Zn3	Zn	1.956016	0.409753	-0.352637
Zn4	Zn	2.456016	0.909753	0.147363
Zn5	Zn	1.746379	0.259840	-0.368710
Zn6	Zn	2.246379	0.759840	0.131290
Zn7	Zn	1.762446	0.407798	-0.578415
Zn8	Zn	2.262446	0.907798	-0.078415
O9	O	1.859276	0.328139	-0.465538
O10	O	2.359276	0.828139	0.034462
O11	O	2.145651	0.248815	-0.521135
O12	O	2.645651	0.748815	-0.021135
O13	O	1.914683	0.401012	-0.179224
O14	O	2.414683	0.901012	0.320776
O15	O	1.776419	0.121579	-0.394423
O16	O	2.276419	0.621579	0.105577
O17	O	2.133714	0.377085	-0.367029
O18	O	2.633714	0.877085	0.132971
O19	O	1.942375	0.103450	-0.536720
O20	O	2.442375	0.603450	-0.036720
O21	O	1.760664	0.290871	-0.191032
O22	O	2.260664	0.790871	0.308968
O23	O	1.572968	0.288975	-0.409960
O24	O	2.072968	0.788975	0.090040
O25	O	1.803803	0.373753	-0.751834
O26	O	2.303803	0.873753	-0.251834
O27	O	1.584772	0.397680	-0.564029
O28	O	2.084772	0.897680	-0.064029
O29	O	1.957954	0.246920	-0.740062
O30	O	2.457954	0.746920	-0.240062
O31	O	1.930263	0.544481	-0.382566
O32	O	2.430263	1.044481	0.117434
O33	O	1.788048	0.543045	-0.548444
O34	O	2.288048	1.043045	-0.048444
C35	C	1.533354	0.345794	-0.490478
C36	C	2.033354	0.845794	0.009522
C37	C	1.393925	0.353368	-0.501177
C38	C	1.893925	0.853368	-0.001177
C39	C	1.859172	0.578760	-0.465524
C40	C	2.359172	1.078760	0.034476
C41	C	1.859246	0.685968	-0.465552
C42	C	2.359246	1.185968	0.034448
C43	C	1.859376	0.882251	-0.465632
C44	C	2.359376	1.382251	0.034368
C45	C	1.859300	0.773025	-0.465592
C46	C	2.359300	1.273025	0.034408
C47	C	2.186471	0.310416	-0.440502
C48	C	2.686471	0.810416	0.059498
C49	C	2.325903	0.302863	-0.429833
C50	C	2.825903	0.802863	0.070167
C51	C	1.884483	0.307366	-0.792738
C52	C	2.384483	0.807366	-0.292738
C53	C	1.895225	0.298514	-0.932171
C54	C	2.395225	0.798514	-0.432171
C55	C	1.859407	1.076535	-0.465592
C56	C	2.359407	1.576535	0.034408
C57	C	1.859439	0.969316	-0.465655
C58	C	2.359439	1.469316	0.034345
C59	C	1.834240	0.348757	-0.139606
C60	C	2.334240	0.848757	0.360394
C61	C	1.823741	0.357324	-0.000155
C62	C	2.323741	0.857324	0.499845
H63	H	1.374333	0.253830	-0.360566
H64	H	1.874333	0.753830	0.139434
H65	H	1.964653	0.241392	-0.980643
H66	H	2.464653	0.741392	-0.480643
O67	O	1.336302	0.411805	-0.583981
O68	O	1.836302	0.911805	-0.083981
C69	C	1.377869	0.381197	-0.706634
C70	C	1.877869	0.881197	-0.206634
H71	H	1.473250	0.338838	-0.702099
H72	H	1.973250	0.838838	-0.202099
H73	H	1.386537	0.447081	-0.762406
H74	H	1.886537	0.947081	-0.262406
H75	H	1.307434	0.332923	-0.754579
H76	H	1.807434	0.832923	-0.254579
O77	O	1.741088	0.425520	-0.942189
O78	O	2.241088	0.925520	-0.442189
C79	C	1.806711	0.488722	-0.860945
C80	C	2.306711	0.988722	-0.360945
H81	H	1.900312	0.450773	-0.834179
H82	H	2.400312	0.950773	-0.334179
H83	H	1.748594	0.510200	-0.772655
H84	H	2.248594	1.010200	-0.272655
H85	H	1.824291	0.556298	-0.910301
H86	H	2.324291	1.056298	-0.410301
