data_functionalizedCrystal
_audit_creation_method	'MofGen! by Chris Wilmer'
_symmetry_space_group_name_H-M	'P1'
_symmetry_Int_Tables_number	1
_symmetry_cell_setting	triclinic
loop_
_symmetry_equiv_pos_as_xyz
  x,y,z
_cell_length_a	7.681215
_cell_length_b	10.654550
_cell_length_c	10.654550
_cell_angle_alpha	84.484931
_cell_angle_beta	83.622652
_cell_angle_gamma	83.624266
loop_
_atom_site_label
_atom_site_type_symbol
_atom_site_fract_x
_atom_site_fract_y
_atom_site_fract_z
O1	O	0.146303	-1.678525	-0.187080
O2	O	0.479636	-1.345192	0.146254
O3	O	0.812969	-1.011859	0.479587
O4	O	0.146335	-1.313049	-0.203888
O5	O	0.479668	-0.979716	0.129445
O6	O	0.813002	-0.646382	0.462779
O7	O	0.146307	-1.504189	-0.012744
O8	O	0.479640	-1.170856	0.320590
O9	O	0.812974	-0.837523	0.653923
O10	O	0.146331	-1.487385	-0.378224
O11	O	0.479664	-1.154052	-0.044891
O12	O	0.812997	-0.820718	0.288443
O13	O	-0.146562	-1.482785	0.008643
O14	O	0.186771	-1.149452	0.341976
O15	O	0.520104	-0.816119	0.675309
O16	O	-0.146534	-1.291645	-0.182502
O17	O	0.186799	-0.958312	0.150832
O18	O	0.520132	-0.624978	0.484165
O19	O	-0.146567	-1.657121	-0.165693
O20	O	0.186767	-1.323788	0.167640
O21	O	0.520100	-0.990455	0.500974
Zn22	Zn	-0.193050	-1.470985	-0.170702
Zn23	Zn	0.140283	-1.137652	0.162632
Zn24	Zn	0.473617	-0.804318	0.495965
Zn25	Zn	0.192818	-1.499185	-0.198879
Zn26	Zn	0.526151	-1.165852	0.134454
Zn27	Zn	0.859485	-0.832519	0.467787
O28	O	-0.146539	-1.465981	-0.356837
O29	O	0.186795	-1.132648	-0.023504
O30	O	0.520128	-0.799314	0.309829
C31	C	-0.000096	-1.255549	-0.191961
C32	C	0.333238	-0.922216	0.141372
C33	C	0.666571	-0.588883	0.474706
C34	C	-0.000084	-1.116107	-0.188270
C35	C	0.333250	-0.782774	0.145063
C36	C	0.666583	-0.449440	0.478397
C37	C	-0.000127	-1.492253	0.044747
C38	C	0.333207	-1.158920	0.378081
C39	C	0.666540	-0.825587	0.711414
C40	C	-0.000124	-1.488562	0.184190
C41	C	0.333210	-1.155228	0.517524
C42	C	0.666543	-0.821895	0.850857
N43	N	-0.456395	-1.451748	-0.151471
N44	N	-0.123061	-1.118415	0.181863
N45	N	0.210272	-0.785081	0.515196
N46	N	0.456163	-1.518432	-0.218101
N47	N	0.789496	-1.185099	0.115233
N48	N	1.122830	-0.851766	0.448566
C49	C	-0.000132	-1.714621	-0.177620
C50	C	0.333201	-1.381288	0.155713
C51	C	0.666534	-1.047954	0.489046
C52	C	-0.000133	-1.854064	-0.181312
C53	C	0.333201	-1.520731	0.152021
C54	C	0.666534	-1.187398	0.485354
C55	C	-0.000081	-1.036622	-0.300812
C56	C	0.333252	-0.703288	0.032522
C57	C	0.666585	-0.369955	0.365855
C58	C	-0.000112	-0.905599	-0.297333
C59	C	0.333221	-0.572265	0.036000
C60	C	0.666554	-0.238932	0.369334
C61	C	-0.000140	-0.933560	-0.068762
C62	C	0.333193	-0.600226	0.264572
C63	C	0.666526	-0.266893	0.597905
C64	C	-0.000122	-1.064579	-0.072241
C65	C	0.333211	-0.731246	0.261093
C66	C	0.666545	-0.397913	0.594426
C67	C	-0.000101	-1.477917	-0.414329
C68	C	0.333232	-1.144584	-0.080996
C69	C	0.666565	-0.811250	0.252338
C70	C	-0.000093	-1.481610	-0.553773
C71	C	0.333241	-1.148276	-0.220439
C72	C	0.666574	-0.814943	0.112894
C73	C	-0.000133	-1.601103	0.263677
C74	C	0.333200	-1.267769	0.597010
C75	C	0.666534	-0.934436	0.930343
C76	C	-0.000111	-1.597628	0.394696
C77	C	0.333222	-1.264294	0.728029
C78	C	0.666556	-0.930961	1.061363
C79	C	-0.000078	-1.369061	0.366730
C80	C	0.333255	-1.035727	0.700064
C81	C	0.666589	-0.702394	1.033397
C82	C	-0.000087	-1.372538	0.235713
C83	C	0.333246	-1.039204	0.569046
C84	C	0.666579	-0.705871	0.902379
H85	H	-0.531630	-1.383713	-0.083463
H86	H	-0.198297	-1.050380	0.249871
H87	H	0.135036	-0.717047	0.583204
Cl88	Cl	-0.427678	-1.623494	-0.323096
Cl89	Cl	-0.094344	-1.290160	0.010237
Cl90	Cl	0.238989	-0.956827	0.343571
Cl91	Cl	-0.000044	-1.101394	-0.446676
Cl92	Cl	0.333289	-0.768061	-0.113342
Cl93	Cl	0.666623	-0.434728	0.219991
H94	H	-0.000114	-0.840886	-0.388976
H95	H	0.333219	-0.507552	-0.055643
H96	H	0.666553	-0.174219	0.277691
Cl97	Cl	-0.000060	-1.231047	0.135778
Cl98	Cl	0.333273	-0.897714	0.469111
Cl99	Cl	0.666607	-0.564380	0.802445
H100	H	-0.000129	-1.129300	0.019411
H101	H	0.333205	-0.795966	0.352744
H102	H	0.666538	-0.462633	0.686077
Cl103	Cl	-0.000177	-0.868773	0.077095
Cl104	Cl	0.333156	-0.535440	0.410429
Cl105	Cl	0.666490	-0.202106	0.743762
Cl106	Cl	-0.000174	-1.746961	0.198910
Cl107	Cl	0.333159	-1.413628	0.532243
Cl108	Cl	0.666493	-1.080294	0.865577
Cl109	Cl	-0.000119	-1.739115	0.494617
Cl110	Cl	0.333214	-1.405782	0.827950
Cl111	Cl	0.666547	-1.072448	1.161283
Cl112	Cl	-0.000033	-1.223210	0.431511
Cl113	Cl	0.333300	-0.889877	0.764845
Cl114	Cl	0.666633	-0.556543	1.098178
