data_functionalizedCrystal
_audit_creation_method	'MofGen! by Chris Wilmer'
_symmetry_space_group_name_H-M	'P1'
_symmetry_Int_Tables_number	1
_symmetry_cell_setting	triclinic
loop_
_symmetry_equiv_pos_as_xyz
  x,y,z
_cell_length_a	23.532407
_cell_length_b	14.044220
_cell_length_c	13.101018
_cell_angle_alpha	93.664400
_cell_angle_beta	86.664201
_cell_angle_gamma	88.018778
loop_
_atom_site_label
_atom_site_type_symbol
_atom_site_fract_x
_atom_site_fract_y
_atom_site_fract_z
O1	O	-0.764358	-0.109763	0.085088
O2	O	-0.264358	0.390237	0.585088
O3	O	-0.599398	-0.126402	0.085119
O4	O	-0.099398	0.373598	0.585119
O5	O	-0.679402	0.019879	0.085094
O6	O	-0.179402	0.519879	0.585094
O7	O	-0.684355	-0.256043	0.085113
O8	O	-0.184355	0.243957	0.585113
O9	O	-0.673655	0.009374	-0.085335
O10	O	-0.173655	0.509374	0.414665
O11	O	-0.593651	-0.136906	-0.085310
O12	O	-0.093651	0.363094	0.414690
O13	O	-0.758612	-0.120267	-0.085340
O14	O	-0.258612	0.379733	0.414660
Zn15	Zn	-0.675219	-0.130255	-0.112384
Zn16	Zn	-0.175219	0.369745	0.387616
Zn17	Zn	-0.682791	-0.116414	0.112163
Zn18	Zn	-0.182791	0.383586	0.612163
O19	O	-0.678608	-0.266547	-0.085315
O20	O	-0.178608	0.233453	0.414685
C21	C	-0.575286	-0.131230	-0.000092
C22	C	-0.075286	0.368770	0.499908
C23	C	-0.512000	-0.129955	-0.000081
C24	C	-0.012000	0.370045	0.499919
C25	C	-0.674361	0.049920	-0.000121
C26	C	-0.174361	0.549920	0.499879
C27	C	-0.667895	0.155085	-0.000121
C28	C	-0.167895	0.655085	0.499879
C29	C	-0.782724	-0.115439	-0.000128
C30	C	-0.282724	0.384561	0.499872
C31	C	-0.846010	-0.116713	-0.000132
C32	C	-0.346010	0.383287	0.499868
C33	C	-0.117154	-0.208533	-0.000121
C34	C	0.382846	0.291467	0.499879
C35	C	-0.057690	-0.207350	-0.000128
C36	C	0.442310	0.292650	0.499872
O37	O	-0.024892	-0.280192	-0.000160
O38	O	0.475108	0.219808	0.499840
N39	N	-0.030350	-0.120386	-0.000132
N40	N	0.469650	0.379614	0.499868
C41	C	-0.062478	-0.034600	-0.000141
C42	C	0.437522	0.465400	0.499859
O43	O	-0.033763	0.039479	-0.000146
O44	O	0.466237	0.539479	0.499854
C45	C	-0.121941	-0.035784	-0.000142
C46	C	0.378059	0.464216	0.499858
C47	C	-0.149278	-0.122754	-0.000127
C48	C	0.350722	0.377246	0.499873
C49	C	-0.144492	-0.295495	-0.000108
C50	C	0.355508	0.204505	0.499892
C51	C	-0.203952	-0.296678	-0.000100
C52	C	0.296048	0.203322	0.499900
C53	C	-0.236076	-0.210898	-0.000105
C54	C	0.263924	0.289102	0.499895
C55	C	-0.208738	-0.123936	-0.000119
C56	C	0.291262	0.376064	0.499881
C57	C	-0.154067	0.050000	-0.000157
C58	C	0.345933	0.550000	0.499843
C59	C	-0.213534	0.048808	-0.000159
C60	C	0.286466	0.548808	0.499841
C61	C	-0.240871	-0.038161	-0.000144
C62	C	0.259129	0.461839	0.499856
C63	C	-0.300322	-0.039339	-0.000116
C64	C	0.199678	0.460661	0.499884
N65	N	-0.327662	-0.126303	-0.000111
N66	N	0.172338	0.373697	0.499889
C67	C	-0.295539	-0.212083	-0.000106
C68	C	0.204461	0.287917	0.499894
C69	C	0.062399	-0.032119	-0.000140
C70	C	0.562399	0.467881	0.499860
C71	C	0.121861	-0.030933	-0.000132
C72	C	0.621861	0.469067	0.499868
C73	C	0.126645	-0.203683	-0.000121
C74	C	0.626645	0.296317	0.499879
C75	C	0.067182	-0.204868	-0.000122
C76	C	0.567182	0.295132	0.499878
C77	C	0.035060	-0.119083	-0.000136
C78	C	0.535060	0.380917	0.499864
C79	C	-0.420411	-0.214560	-0.000088
C80	C	0.079589	0.285440	0.499912
C81	C	-0.479877	-0.215735	-0.000075
C82	C	0.020123	0.284265	0.499925
C83	C	-0.484655	-0.042985	-0.000092
C84	C	0.015345	0.457015	0.499908
C85	C	-0.425194	-0.041809	-0.000099
C86	C	0.074806	0.458191	0.499901
C87	C	-0.393073	-0.127605	-0.000100
C88	C	0.106927	0.372395	0.499900
O89	O	-0.333156	0.033464	-0.000088
O90	O	0.166844	0.533464	0.499912
O91	O	-0.324261	-0.286150	-0.000114
O92	O	0.175739	0.213850	0.499886
C93	C	-0.683649	-0.296589	-0.000099
C94	C	-0.183649	0.203411	0.499901
C95	C	-0.690115	-0.401754	-0.000092
C96	C	-0.190115	0.098246	0.499908
N97	N	-0.670055	-0.139700	-0.265632
N98	N	-0.170055	0.360300	0.234368
C99	C	-0.656074	0.347636	-0.000104
C100	C	-0.156074	0.847636	0.499896
C101	C	-0.701933	0.405701	-0.000109
C102	C	-0.201933	0.905701	0.499891
C103	C	-0.695356	0.512843	-0.000100
C104	C	-0.195356	1.012843	0.499900
C105	C	-0.662650	0.240484	-0.000113
C106	C	-0.162650	0.740484	0.499887
C107	C	-0.694980	-0.094108	-0.525549
C108	C	-0.194980	0.405892	-0.025549
C109	C	-0.663035	-0.152551	-0.474666
C110	C	-0.163035	0.347449	0.025334
C111	C	-0.666942	-0.145398	-0.358349
C112	C	-0.166942	0.354602	0.141651
C113	C	-0.691074	-0.101259	-0.641877
C114	C	-0.191074	0.398741	-0.141877
N115	N	-0.687958	-0.106962	0.265410
N116	N	-0.187958	0.393038	0.765410
H117	H	-0.502131	-0.286558	-0.000063
H118	H	-0.002131	0.213442	0.499937
O119	O	-0.389245	-0.297914	0.000100
O120	O	0.110755	0.202086	0.500100
C121	C	-0.369971	-0.439781	0.088389
C122	C	0.130029	0.060219	0.588389
C123	C	-0.405295	-0.345403	0.088307
C124	C	0.094705	0.154597	0.588307
H125	H	-0.382943	-0.478214	0.159686
H126	H	0.117057	0.021786	0.659686
H127	H	-0.322767	-0.424065	0.088449
H128	H	0.177233	0.075935	0.588449
H129	H	-0.378080	-0.486969	0.017041
H130	H	0.121920	0.013031	0.517041
H131	H	-0.397234	-0.298170	0.159642
H132	H	0.102766	0.201830	0.659642
H133	H	-0.452487	-0.361190	0.088193
H134	H	0.047513	0.138810	0.588193
H135	H	-0.725262	-0.038706	-0.481758
H136	H	-0.225262	0.461294	0.018242
O137	O	-0.754709	0.369178	-0.000088
O138	O	-0.254709	0.869178	0.499912
C139	C	-0.855822	0.402709	-0.000196
C140	C	-0.355822	0.902709	0.499804
C141	C	-0.796093	0.444205	-0.000189
C142	C	-0.296093	0.944205	0.499811
H143	H	-0.889297	0.463346	-0.000299
H144	H	-0.389297	0.963346	0.499701
H145	H	-0.863637	0.361440	0.071136
H146	H	-0.363637	0.861440	0.571136
H147	H	-0.858747	0.352603	-0.071512
H148	H	-0.358747	0.852603	0.428488
H149	H	-0.793126	0.494350	0.071079
H150	H	-0.293126	0.994350	0.571079
H151	H	-0.788303	0.485416	-0.071568
H152	H	-0.288303	0.985416	0.428432
H153	H	-0.226205	-0.367497	-0.000087
H154	H	0.273795	0.132503	0.499913
O155	O	-0.603340	0.384285	0.000085
O156	O	-0.103340	0.884285	0.500085
C157	C	-0.516793	0.400016	0.088351
C158	C	-0.016793	0.900016	0.588351
C159	C	-0.576505	0.358459	0.088281
C160	C	-0.076505	0.858459	0.588281
H161	H	-0.495075	0.379135	0.159638
H162	H	0.004925	0.879135	0.659638
H163	H	-0.520786	0.481151	0.088420
H164	H	-0.020786	0.981151	0.588420
H165	H	-0.490294	0.370471	0.016994
H166	H	0.009706	0.870471	0.516994
H167	H	-0.603036	0.387931	0.159626
H168	H	-0.103036	0.887931	0.659626
H169	H	-0.572469	0.277325	0.088158
H170	H	-0.072469	0.777325	0.588158
H171	H	-0.632752	-0.207957	-0.518462
H172	H	-0.132752	0.292043	-0.018462
H173	H	-0.118343	-0.365352	-0.000107
H174	H	0.381657	0.134648	0.499893
H175	H	0.044928	-0.275686	-0.000116
H176	H	0.544928	0.224314	0.499884
H177	H	0.152811	-0.273530	-0.000122
H178	H	0.652811	0.226470	0.499878
H179	H	0.144113	0.039887	-0.000128
H180	H	0.644113	0.539887	0.499872
H181	H	-0.131820	0.120819	-0.000170
H182	H	0.368180	0.620819	0.499830
O183	O	0.031282	0.051310	-0.000092
O184	O	0.531282	0.551310	0.499908
C185	C	0.032827	0.222775	-0.000153
C186	C	0.532827	0.722775	0.499847
C187	C	0.068131	0.128366	-0.000183
C188	C	0.568131	0.628366	0.499817
H189	H	0.062605	0.285098	-0.000249
H190	H	0.562605	0.785098	0.499751
H191	H	0.002482	0.231005	0.071189
H192	H	0.502482	0.731005	0.571189
H193	H	0.007253	0.222104	-0.071459
H194	H	0.507253	0.722104	0.428541
H195	H	0.093739	0.128972	0.071074
H196	H	0.593739	0.628972	0.571074
H197	H	0.098441	0.120173	-0.071573
H198	H	0.598441	0.620173	0.428427
H199	H	-0.239685	0.118666	-0.000171
H200	H	0.260315	0.618666	0.499829
H201	H	-0.510821	0.026855	-0.000092
H202	H	-0.010821	0.526855	0.499908
O203	O	-0.398725	0.042752	-0.000145
O204	O	0.101275	0.542752	0.499855
C205	C	-0.409755	0.213975	-0.000086
C206	C	0.090245	0.713975	0.499914
C207	C	-0.439798	0.118276	-0.000048
C208	C	0.060202	0.618276	0.499952
H209	H	-0.442950	0.275063	0.000013
H210	H	0.057050	0.775063	0.500013
H211	H	-0.379656	0.214520	-0.071434
H212	H	0.120344	0.714520	0.428566
H213	H	-0.384414	0.223189	0.071215
H214	H	0.115586	0.723189	0.571215
H215	H	-0.465170	0.109000	-0.071301
H216	H	0.034830	0.609000	0.428699
H217	H	-0.469863	0.117774	0.071346
H218	H	0.030137	0.617774	0.571346
