data_functionalizedCrystal
_audit_creation_method	'MofGen! by Chris Wilmer'
_symmetry_space_group_name_H-M	'P1'
_symmetry_Int_Tables_number	1
_symmetry_cell_setting	triclinic
loop_
_symmetry_equiv_pos_as_xyz
  x,y,z
_cell_length_a	11.792241
_cell_length_b	14.971486
_cell_length_c	13.448316
_cell_angle_alpha	89.993189
_cell_angle_beta	89.997457
_cell_angle_gamma	83.903772
loop_
_atom_site_label
_atom_site_type_symbol
_atom_site_fract_x
_atom_site_fract_y
_atom_site_fract_z
O1	O	1.506121	0.122599	-0.082596
O2	O	2.006121	0.622599	0.417404
O3	O	1.175699	0.135234	-0.082619
O4	O	1.675699	0.635234	0.417381
O5	O	1.349766	-0.001248	-0.082600
O6	O	1.849766	0.498752	0.417400
O7	O	1.332054	0.259081	-0.082615
O8	O	1.832054	0.759081	0.417385
O9	O	1.349744	-0.001256	0.082784
O10	O	1.849744	0.498744	0.582784
O11	O	1.175677	0.135226	0.082765
O12	O	1.675677	0.635226	0.582765
O13	O	1.506099	0.122591	0.082788
O14	O	2.006099	0.622591	0.582788
Cu15	Cu	1.340886	0.128907	0.097877
Cu16	Cu	1.840886	0.628907	0.597877
Cu17	Cu	1.340912	0.128917	-0.097708
Cu18	Cu	1.840912	0.628917	0.402292
O19	O	1.332032	0.259073	0.082769
O20	O	1.832032	0.759073	0.582769
C21	C	1.133402	0.134436	0.000070
C22	C	1.633402	0.634436	0.500070
C23	C	1.007404	0.132061	0.000061
C24	C	1.507404	0.632061	0.500061
C25	C	1.348963	-0.034580	0.000092
C26	C	1.848963	0.465420	0.500092
C27	C	1.346589	-0.133887	0.000091
C28	C	1.846589	0.366113	0.500091
C29	C	1.448849	-0.190702	0.000099
C30	C	1.948849	0.309298	0.500099
C31	C	1.446612	-0.284011	0.000088
C32	C	1.946612	0.215989	0.500088
C33	C	1.342114	-0.320502	0.000078
C34	C	1.842114	0.179498	0.500078
C35	C	1.239846	-0.263679	0.000067
C36	C	1.739846	0.236321	0.500067
C37	C	1.242084	-0.170372	0.000070
C38	C	1.742084	0.329628	0.500070
C39	C	1.235188	-0.458160	0.000063
C40	C	1.735188	0.041840	0.500063
C41	C	1.232949	-0.551473	0.000062
C42	C	1.732949	-0.051473	0.500062
C43	C	1.439715	-0.571798	0.000081
C44	C	1.939715	-0.071798	0.500081
C45	C	1.441954	-0.478492	0.000085
C46	C	1.941954	0.021508	0.500085
C47	C	1.339685	-0.421675	0.000076
C48	C	1.839685	0.078325	0.500076
C49	C	0.776720	0.127692	0.000090
C50	C	1.276720	0.627692	0.500090
C51	C	0.905089	0.130120	0.000074
C52	C	1.405089	0.630120	0.500074
C53	C	1.548396	0.123389	0.000097
C54	C	2.048396	0.623389	0.500097
C55	C	1.674395	0.125764	0.000099
C56	C	2.174395	0.625764	0.500099
C57	C	1.332835	0.292405	0.000075
C58	C	1.832835	0.792405	0.500075
C59	C	1.335209	0.391711	0.000069
C60	C	1.835209	0.891711	0.500069
N61	N	1.340876	0.128900	0.235442
N62	N	1.840876	0.628900	0.735442
N63	N	1.340931	0.128918	-0.235273
N64	N	1.840931	0.628918	0.264727
C65	C	1.417977	0.068491	0.287490
C66	C	1.917977	0.568491	0.787490
C67	C	1.417984	0.068490	0.391594
C68	C	1.917984	0.568490	0.891594
C69	C	1.340895	0.128903	0.443646
C70	C	1.840895	0.628903	0.943646
C71	C	1.263786	0.189315	0.391590
C72	C	1.763786	0.689315	0.891590
C73	C	1.263774	0.189311	0.287489
C74	C	1.763774	0.689311	0.787489
C75	C	1.263817	0.189321	0.608570
C76	C	1.763817	0.689321	1.108570
C77	C	1.263830	0.189327	0.712678
C78	C	1.763830	0.689327	1.212678
C79	C	1.418027	0.068500	0.712675
C80	C	1.918027	0.568500	1.212675
C81	C	1.418016	0.068496	0.608574
C82	C	1.918016	0.568496	1.108574
C83	C	1.340908	0.128909	0.556525
C84	C	1.840908	0.628909	1.056525
H85	H	1.533944	-0.160999	0.000114
H86	H	2.033944	0.339001	0.500114
H87	H	1.201012	0.238502	0.433977
H88	H	1.701012	0.738502	0.933977
Br89	Br	1.522646	-0.013485	0.537928
Br90	Br	2.022646	0.486515	1.037928
Br91	Br	1.159125	0.271293	0.216851
Br92	Br	1.659125	0.771293	0.716851
Br93	Br	1.096394	-0.381052	0.000047
Br94	Br	1.596394	0.118948	0.500047
Br95	Br	1.159204	0.271320	0.783314
Br96	Br	1.659204	0.771320	1.283314
Br97	Br	1.585400	-0.361115	0.000099
Br98	Br	2.085400	0.138885	0.500099
Br99	Br	1.091128	-0.600997	0.000051
Br100	Br	1.591128	-0.100997	0.500051
H101	H	1.480757	0.019299	0.245116
H102	H	1.980757	0.519299	0.745116
Br103	Br	1.583774	-0.428968	0.000097
Br104	Br	2.083774	0.071032	0.500097
H105	H	1.522986	-0.618063	0.000086
H106	H	2.022986	-0.118063	0.500086
Br107	Br	1.159163	0.271309	0.537935
Br108	Br	1.659163	0.771309	1.037935
Br109	Br	1.522677	-0.013484	0.783316
Br110	Br	2.022677	0.486516	1.283316
Br111	Br	1.103298	-0.093263	0.000051
Br112	Br	1.603298	0.406737	0.500051
H113	H	1.154761	-0.293397	0.000051
H114	H	1.654761	0.206603	0.500051
H115	H	1.480765	0.019300	0.433971
H116	H	1.980765	0.519300	0.933971
