data_functionalizedCrystal
_audit_creation_method	'MofGen! by Chris Wilmer'
_symmetry_space_group_name_H-M	'P1'
_symmetry_Int_Tables_number	1
_symmetry_cell_setting	triclinic
loop_
_symmetry_equiv_pos_as_xyz
  x,y,z
_cell_length_a	9.065218
_cell_length_b	14.853567
_cell_length_c	8.140239
_cell_angle_alpha	90.000276
_cell_angle_beta	89.997198
_cell_angle_gamma	84.325408
loop_
_atom_site_label
_atom_site_type_symbol
_atom_site_fract_x
_atom_site_fract_y
_atom_site_fract_z
O1	O	1.957778	0.132191	-0.136602
O2	O	2.457778	0.632191	0.363398
O3	O	1.528278	0.143034	-0.136603
O4	O	2.028278	0.643034	0.363397
O5	O	1.754501	0.006468	-0.136607
O6	O	2.254501	0.506468	0.363393
O7	O	1.731555	0.268757	-0.136598
O8	O	2.231555	0.768757	0.363402
O9	O	1.754488	0.006466	0.136620
O10	O	2.254488	0.506466	0.636620
O11	O	1.528266	0.143032	0.136624
O12	O	2.028266	0.643032	0.636624
O13	O	1.957765	0.132189	0.136625
O14	O	2.457765	0.632189	0.636625
Zn15	Zn	1.743014	0.137611	0.180005
Zn16	Zn	2.243014	0.637611	0.680005
Zn17	Zn	1.743030	0.137613	-0.179983
Zn18	Zn	2.243030	0.637613	0.320017
O19	O	1.731543	0.268756	0.136630
O20	O	2.231543	0.768756	0.636630
C21	C	1.473306	0.141991	0.000010
C22	C	1.973306	0.641991	0.500010
C23	C	1.309525	0.138875	0.000009
C24	C	1.809525	0.638875	0.500009
C25	C	1.753455	-0.027130	0.000001
C26	C	2.253455	0.472870	0.500001
C27	C	1.750339	-0.127236	-0.000013
C28	C	2.250339	0.372764	0.499987
C29	C	1.602788	-0.540862	0.000018
C30	C	2.102788	-0.040862	0.500018
C31	C	1.871546	-0.560154	0.000019
C32	C	2.371546	-0.060154	0.500019
C33	C	1.874475	-0.466099	0.000009
C34	C	2.374475	0.033901	0.500009
C35	C	1.741559	-0.409421	0.000006
C36	C	2.241559	0.090579	0.500006
C37	C	1.605714	-0.446798	0.000013
C38	C	2.105714	0.053202	0.500013
C39	C	2.010318	-0.428714	0.000018
C40	C	2.510318	0.071286	0.500018
C41	C	2.013253	-0.334654	0.000011
C42	C	2.513253	0.165346	0.500011
C43	C	1.880335	-0.277974	-0.000004
C44	C	2.380335	0.222026	0.499996
C45	C	1.744484	-0.315356	0.000002
C46	C	2.244484	0.184644	0.500002
C47	C	1.611568	-0.258678	-0.000001
C48	C	2.111568	0.241322	0.499999
C49	C	1.475716	-0.296059	-0.000008
C50	C	1.975716	0.203941	0.499992
C51	C	1.472796	-0.390118	-0.000001
C52	C	1.972796	0.109882	0.499999
C53	C	1.883255	-0.183915	-0.000010
C54	C	2.383255	0.316085	0.499990
C55	C	1.614494	-0.164614	-0.000006
C56	C	2.114494	0.335386	0.499994
C57	C	2.012738	0.133232	0.000008
C58	C	2.512738	0.633232	0.500008
C59	C	2.176519	0.136348	-0.000001
C60	C	2.676519	0.636348	0.499999
C61	C	1.732589	0.302353	0.000017
C62	C	2.232589	0.802353	0.500017
C63	C	1.735704	0.402460	0.000021
C64	C	2.235704	0.902460	0.500021
N65	N	1.743013	0.137609	0.425688
N66	N	2.243013	0.637609	0.925688
N67	N	1.743042	0.137608	-0.425666
N68	N	2.243042	0.637608	0.074334
H69	H	1.506255	-0.118471	-0.000015
H70	H	2.006255	0.381529	0.499985
H71	H	2.123872	-0.304227	0.000014
H72	H	2.623872	0.195773	0.500014
H73	H	1.993864	-0.153483	0.000006
H74	H	2.493864	0.346517	0.500006
H75	H	1.367496	-0.249899	0.000002
H76	H	1.867496	0.250101	0.500002
H77	H	1.362192	-0.420562	-0.000005
H78	H	1.862192	0.079438	0.499995
H79	H	1.492180	-0.571302	0.000006
H80	H	1.992180	-0.071302	0.500006
O81	O	2.014902	-0.621278	0.000038
O82	O	2.514902	-0.121278	0.500038
H83	H	1.990046	-0.692963	0.000040
H84	H	2.490046	-0.192963	0.500040
H85	H	2.118531	-0.474868	0.000036
H86	H	2.618531	0.025132	0.500036
