data_functionalizedCrystal
_audit_creation_method	'MofGen! by Chris Wilmer'
_symmetry_space_group_name_H-M	'P1'
_symmetry_Int_Tables_number	1
_symmetry_cell_setting	triclinic
loop_
_symmetry_equiv_pos_as_xyz
  x,y,z
_cell_length_a	10.967926
_cell_length_b	11.804610
_cell_length_c	11.026607
_cell_angle_alpha	100.368578
_cell_angle_beta	83.619246
_cell_angle_gamma	64.989803
loop_
_atom_site_label
_atom_site_type_symbol
_atom_site_fract_x
_atom_site_fract_y
_atom_site_fract_z
O1	O	1.767006	-0.263582	-0.229379
O2	O	1.385699	-0.185333	-0.228226
O3	O	1.544751	-0.217977	-0.050454
O4	O	1.607954	-0.230938	-0.407151
O5	O	1.602931	-0.427961	-0.097350
O6	O	1.443878	-0.395317	-0.275122
O7	O	1.825186	-0.473566	-0.276275
Cu8	Cu	1.639844	-0.453615	-0.279980
Cu9	Cu	1.571040	-0.205284	-0.224521
O10	O	1.666133	-0.440922	-0.454047
C11	C	1.365214	-0.280152	-0.248215
C12	C	1.217494	-0.249838	-0.237891
N13	N	1.688247	-0.628280	-0.318988
C14	C	1.181775	-0.345101	-0.257582
C15	C	1.029100	-0.313773	-0.246913
C16	C	1.804526	-0.714466	-0.412642
C17	C	1.841177	-0.846642	-0.442132
C18	C	1.761547	-0.892644	-0.377978
C19	C	1.645260	-0.806455	-0.284328
C20	C	1.608611	-0.674267	-0.254828
C21	C	1.565633	-0.852445	-0.220164
C22	C	1.449346	-0.766257	-0.126514
C23	C	1.412703	-0.634082	-0.097019
C24	C	1.492333	-0.588081	-0.161174
C25	C	1.602281	-0.984633	-0.249664
C26	C	1.406367	-0.944434	-0.091850
C27	C	1.369716	-0.812258	-0.062360
C28	C	1.845670	-0.378744	-0.256286
C29	C	1.993387	-0.409050	-0.266607
C30	C	1.562181	-0.320575	-0.028065
C31	C	1.527420	-0.313437	0.108516
N32	N	1.522646	-0.030621	-0.185504
C33	C	1.648703	-0.338322	-0.476435
C34	C	1.683462	-0.345451	-0.613014
C35	C	1.623396	-0.333131	0.177170
C36	C	1.587472	-0.325754	0.318334
H37	H	1.264223	-0.449853	-0.282332
H38	H	1.462495	-0.480453	-0.137169
H39	H	1.075831	-0.513809	-0.291362
H40	H	1.318025	-0.563912	-0.020753
H41	H	1.791396	-1.000269	-0.401994
H42	H	1.869354	-0.676999	-0.464859
F43	F	1.245958	-0.720516	0.037308
H44	H	1.732162	-0.355458	0.131438
H45	H	1.135045	-0.145086	-0.213131
H46	H	1.696962	-1.054795	-0.325914
F47	F	0.921340	-0.176844	-0.214543
F48	F	1.964931	-0.938360	-0.541798
H49	H	1.418654	-0.291109	0.154247
F50	F	1.321618	-0.993386	-0.023561
H51	H	1.478698	-0.303425	0.364060
F52	F	1.825634	-0.374621	0.327229
