data_functionalizedCrystal
_audit_creation_method	'MofGen! by Chris Wilmer'
_symmetry_space_group_name_H-M	'P1'
_symmetry_Int_Tables_number	1
_symmetry_cell_setting	triclinic
loop_
_symmetry_equiv_pos_as_xyz
  x,y,z
_cell_length_a	12.594517
_cell_length_b	29.839131
_cell_length_c	12.594509
_cell_angle_alpha	90.034966
_cell_angle_beta	90.021327
_cell_angle_gamma	90.041220
loop_
_atom_site_label
_atom_site_type_symbol
_atom_site_fract_x
_atom_site_fract_y
_atom_site_fract_z
Zn1	Zn	1.627079	-0.178842	0.601810
Zn2	Zn	1.626891	-0.253977	0.423811
Zn3	Zn	1.449083	-0.178861	0.423839
Zn4	Zn	1.448987	-0.253946	0.601741
O5	O	1.538010	-0.216407	0.512800
O6	O	1.776000	-0.188814	0.578215
O7	O	1.603266	-0.244034	0.274869
O8	O	1.472814	-0.115992	0.447488
O9	O	1.775862	-0.244015	0.447440
O10	O	1.603587	-0.115978	0.578243
O11	O	1.472632	-0.188847	0.274889
O12	O	1.300125	-0.188816	0.447421
O13	O	1.472649	-0.243962	0.750696
O14	O	1.300054	-0.243981	0.578124
O15	O	1.603493	-0.188784	0.750747
O16	O	1.603173	-0.316840	0.447373
O17	O	1.472467	-0.316817	0.578097
C18	C	1.261469	-0.216398	0.512769
C19	C	1.143164	-0.216404	0.512781
C20	C	1.073918	-0.186360	0.441827
C21	C	1.003064	-0.227339	0.415635
C22	C	1.003219	-0.175445	0.538990
C23	C	1.073868	-0.257405	0.486538
C24	C	1.074029	-0.205484	0.609939
C25	C	1.003207	-0.246491	0.583784
C26	C	1.537818	-0.333129	0.512747
C27	C	1.537833	-0.383064	0.512760
C28	C	1.606192	-0.692706	0.444831
C29	C	1.606324	-0.880379	0.444873
O30	O	1.664293	-0.904643	0.387076
N31	N	1.538231	-0.903849	0.512880
C32	C	1.470105	-0.880397	0.580888
O33	O	1.412199	-0.904665	0.638741
C34	C	1.469980	-0.692725	0.580851
C35	C	1.538070	-0.669258	0.512831
C36	C	1.674278	-0.669239	0.376818
C37	C	1.674240	-0.622324	0.376804
C38	C	1.606117	-0.598875	0.444804
C39	C	1.538032	-0.622342	0.512817
C40	C	1.401860	-0.669274	0.648863
C41	C	1.401837	-0.622353	0.648849
C42	C	1.469927	-0.598886	0.580829
C43	C	1.469872	-0.551978	0.580803
N44	N	1.537965	-0.528509	0.512796
C45	C	1.606087	-0.551957	0.444796
C46	C	1.470174	-0.978927	0.580901
C47	C	1.470204	-1.025845	0.580909
C48	C	1.606424	-1.025824	0.444895
C49	C	1.606388	-0.978906	0.444882
C50	C	1.538267	-0.955458	0.512893
C51	C	1.606003	-0.453432	0.444772
C52	C	1.605956	-0.406512	0.444761
C53	C	1.469740	-0.406537	0.580778
C54	C	1.469782	-0.453452	0.580785
C55	C	1.537922	-0.476899	0.512779
O56	O	1.411941	-0.527685	0.638578
O57	O	1.664002	-0.527681	0.386968
C58	C	1.606230	-0.739622	0.444845
C59	C	1.538145	-0.763089	0.512859
C60	C	1.470022	-0.739640	0.580858
C61	C	1.538175	-0.810006	0.512867
C62	C	1.606297	-0.833455	0.444867
C63	C	1.674390	-0.809986	0.376859
C64	C	1.674353	-0.763070	0.376846
C65	C	1.401929	-0.763109	0.648866
C66	C	1.401972	-0.810025	0.648873
C67	C	1.470094	-0.833473	0.580874
C68	C	1.815631	-0.216416	0.512832
C69	C	1.933936	-0.216420	0.512846
C70	C	1.538081	-0.216367	0.790421
C71	C	1.538112	-0.216350	0.908727
C72	C	1.538232	-0.099228	0.512876
C73	C	1.538327	-0.049294	0.512909
C74	C	1.538000	-0.216413	0.236259
C75	C	1.538176	-0.216304	0.117954
C76	C	1.466968	-0.246345	0.977952
C77	C	1.564077	-0.257322	1.048740
C78	C	1.441079	-0.205346	1.048739
C79	C	1.635272	-0.227349	0.977956
C80	C	1.512208	-0.175355	0.977949
C81	C	1.609384	-0.186316	1.048704
H82	H	1.661403	-0.387407	0.389367
N83	N	1.114785	-0.303311	0.457077
H84	H	1.159511	-0.315495	0.517038
H85	H	1.159340	-0.301054	0.390636
N86	N	0.962327	-0.280194	0.663295
H87	H	0.882139	-0.279832	0.663325
H88	H	0.989359	-0.272198	0.736404
H89	H	1.104966	-0.160977	0.381749
N90	N	1.396335	-0.478764	0.654142
H91	H	1.439579	-0.498194	0.703516
H92	H	1.347065	-0.498241	0.610774
N93	N	1.679495	-0.478716	0.371424
H94	H	1.722614	-0.456725	0.328340
H95	H	1.636213	-0.498216	0.322129
N96	N	1.115348	-0.193224	0.718709
H97	H	1.089697	-0.162257	0.738421
H98	H	1.195529	-0.193626	0.717965
H99	H	1.729757	-0.688326	0.321444
H100	H	1.729687	-0.603220	0.321420
H101	H	0.972128	-0.140805	0.561094
N102	N	1.332344	-0.193042	1.089911
H103	H	1.312201	-0.162315	1.063050
H104	H	1.333408	-0.192855	1.170094
H105	H	1.414699	-0.959839	0.636284
N106	N	1.679830	-0.953597	0.371523
H107	H	1.722986	-0.975575	0.328450
H108	H	1.729055	-0.934099	0.414891
N109	N	1.679898	-1.051119	0.371548
H110	H	1.669578	-1.084402	0.381880
H111	H	1.755900	-1.042884	0.388189
H112	H	0.971896	-0.236586	0.333498
N113	N	1.483104	-0.129473	0.936710
H114	H	1.409728	-0.121206	0.962408
H115	H	1.484046	-0.129801	0.856529
H116	H	1.414748	-1.044948	0.636287
H117	H	1.669644	-0.160931	1.079573
H118	H	1.717382	-0.236676	0.946994
H119	H	1.346409	-0.688372	0.704247
H120	H	1.346366	-0.603264	0.704235
H121	H	1.414272	-0.387438	0.636139
N122	N	1.747799	-0.737763	0.303488
H123	H	1.790957	-0.759742	0.260421
H124	H	1.797021	-0.718264	0.346857
N125	N	1.328447	-0.737822	0.722209
H126	H	1.285321	-0.759813	0.765287
H127	H	1.279198	-0.718393	0.678828
N128	N	1.747858	-0.835281	0.303506
H129	H	1.737539	-0.868563	0.313842
H130	H	1.823862	-0.827045	0.320137
N131	N	1.328517	-0.835333	0.722232
H132	H	1.285360	-0.813355	0.765304
H133	H	1.371829	-0.854764	0.771538
H134	H	1.406851	-0.271749	0.946888
H135	H	1.586022	-0.291971	1.079835
