data_functionalizedCrystal
_audit_creation_method	'MofGen! by Chris Wilmer'
_symmetry_space_group_name_H-M	'P1'
_symmetry_Int_Tables_number	1
_symmetry_cell_setting	triclinic
loop_
_symmetry_equiv_pos_as_xyz
  x,y,z
_cell_length_a	14.971491
_cell_length_b	14.044190
_cell_length_c	13.448316
_cell_angle_alpha	89.988796
_cell_angle_beta	89.991393
_cell_angle_gamma	88.404006
loop_
_atom_site_label
_atom_site_type_symbol
_atom_site_fract_x
_atom_site_fract_y
_atom_site_fract_z
O1	O	1.196681	0.123562	-0.082746
O2	O	0.937447	0.138350	-0.082740
O3	O	1.063170	-0.007033	-0.082724
O4	O	1.070959	0.268945	-0.082763
O5	O	1.063152	-0.007042	0.082660
O6	O	0.937429	0.138341	0.082643
O7	O	1.196663	0.123553	0.082637
Cu8	Cu	1.067045	0.130946	0.097741
Cu9	Cu	1.067066	0.130957	-0.097844
O10	O	1.070941	0.268936	0.082621
C11	C	0.904061	0.137684	-0.000047
C12	C	0.804608	0.135699	-0.000044
C13	C	0.376238	0.127140	-0.090217
C14	C	0.469685	0.129002	-0.090213
C15	C	0.516394	0.129934	-0.000059
C16	C	0.469653	0.128995	0.090097
C17	C	0.376208	0.127127	0.090093
C18	C	0.664422	0.132892	0.090100
C19	C	0.757873	0.134763	0.090105
C20	C	0.757898	0.134768	-0.090206
C21	C	0.664453	0.132899	-0.090210
C22	C	0.617718	0.131962	-0.000053
C23	C	1.059754	-0.042356	-0.000029
C24	C	1.049590	-0.147594	-0.000020
C25	C	1.103092	-0.397819	-0.000060
C26	C	1.031023	-0.340273	-0.000052
C27	C	1.041356	-0.233056	-0.000034
C28	C	1.092760	-0.505045	-0.000078
C29	C	1.230049	0.124219	-0.000058
C30	C	1.329502	0.126204	-0.000067
C31	C	1.074357	0.304259	-0.000076
C32	C	1.084521	0.409497	-0.000092
N33	N	1.067036	0.130938	0.235306
N34	N	1.067081	0.130957	-0.235409
C35	C	1.122727	0.066589	0.287353
C36	C	1.122733	0.066588	0.391457
C37	C	1.067051	0.130942	0.443510
C38	C	1.011354	0.195294	0.391455
C39	C	1.011345	0.195290	0.287354
C40	C	1.011379	0.195301	0.608435
C41	C	1.011390	0.195307	0.712544
C42	C	1.122768	0.066599	0.712538
C43	C	1.122758	0.066594	0.608437
C44	C	1.067062	0.130948	0.556389
H45	H	0.507733	0.129759	-0.163622
C46	C	1.196923	-0.355595	-0.000037
N47	N	1.267597	-0.323782	-0.000013
C48	C	0.937185	-0.382495	-0.000051
N49	N	0.866508	-0.414302	-0.000045
H50	H	1.168073	0.014188	0.244978
H51	H	1.168080	0.014189	0.433833
C52	C	1.184011	-0.004198	0.551180
N53	N	1.230144	-0.057523	0.508054
H54	H	1.168117	0.014200	0.754921
C55	C	0.950132	0.266094	0.769801
N56	N	0.903990	0.319410	0.812927
C57	C	0.809309	0.135794	-0.189379
N58	N	0.848036	0.136570	-0.264074
C59	C	0.950088	0.266087	0.230102
N60	N	0.903948	0.319414	0.186981
H61	H	0.966022	0.247702	0.566061
H62	H	0.338213	0.126388	-0.163631
C63	C	0.613075	0.131870	-0.189384
N64	N	0.574376	0.131089	-0.264084
C65	C	0.950095	0.266076	0.448718
N66	N	0.903952	0.319389	0.491847
H67	H	0.626372	0.132140	0.163516
C68	C	0.809253	0.135778	0.189279
N69	N	0.847952	0.136540	0.263979
H70	H	0.338157	0.126374	0.163502
C71	C	0.521035	0.130060	0.189268
N72	N	0.559735	0.130882	0.263965
