data_functionalizedCrystal
_audit_creation_method	'MofGen! by Chris Wilmer'
_symmetry_space_group_name_H-M	'P1'
_symmetry_Int_Tables_number	1
_symmetry_cell_setting	triclinic
loop_
_symmetry_equiv_pos_as_xyz
  x,y,z
_cell_length_a	14.519709
_cell_length_b	14.519709
_cell_length_c	12.996460
_cell_angle_alpha	89.999966
_cell_angle_beta	89.992910
_cell_angle_gamma	96.319855
loop_
_atom_site_label
_atom_site_type_symbol
_atom_site_fract_x
_atom_site_fract_y
_atom_site_fract_z
O1	O	0.120893	-1.223869	-0.085435
O2	O	0.454226	-0.890535	0.247898
O3	O	0.787560	-0.557202	0.581232
O4	O	0.135129	-0.955392	-0.085467
O5	O	0.468463	-0.622059	0.247866
O6	O	0.801796	-0.288725	0.581200
O7	O	-0.006227	-1.096749	-0.085441
O8	O	0.327106	-0.763415	0.247892
O9	O	0.660439	-0.430082	0.581226
O10	O	0.262250	-1.082512	-0.085461
O11	O	0.595583	-0.749179	0.247872
O12	O	0.928916	-0.415845	0.581206
O13	O	-0.006235	-1.096734	0.085693
O14	O	0.327098	-0.763400	0.419026
O15	O	0.660432	-0.430067	0.752360
O16	O	0.135122	-0.955377	0.085667
O17	O	0.468455	-0.622044	0.419000
O18	O	0.801788	-0.288710	0.752334
O19	O	0.120885	-1.223854	0.085699
O20	O	0.454218	-0.890521	0.419032
O21	O	0.787552	-0.557187	0.752365
Cu22	Cu	0.128003	-1.089614	0.101309
Cu23	Cu	0.461336	-0.756281	0.434642
Cu24	Cu	0.794669	-0.422948	0.767975
Cu25	Cu	0.128012	-1.089632	-0.101077
Cu26	Cu	0.461345	-0.756298	0.232256
Cu27	Cu	0.794679	-0.422965	0.565590
O28	O	0.262242	-1.082497	0.085673
O29	O	0.595575	-0.749164	0.419006
O30	O	0.928908	-0.415831	0.752339
C31	C	-0.040591	-1.096078	0.000126
C32	C	0.292742	-0.762744	0.333459
C33	C	0.626076	-0.429411	0.666793
C34	C	-0.142972	-1.094090	0.000126
C35	C	0.190361	-0.760756	0.333460
C36	C	0.523694	-0.427423	0.666793
C37	C	0.134462	-0.921025	0.000096
C38	C	0.467795	-0.587691	0.333429
C39	C	0.801129	-0.254358	0.666763
C40	C	0.132474	-0.818643	0.000084
C41	C	0.465807	-0.485310	0.333418
C42	C	0.799141	-0.151977	0.666751
C43	C	0.121553	-1.258221	0.000134
C44	C	0.454886	-0.924888	0.333467
C45	C	0.788219	-0.591554	0.666800
C46	C	0.123541	-1.360602	0.000139
C47	C	0.456874	-1.027269	0.333472
C48	C	0.790207	-0.693936	0.666805
C49	C	-0.517868	-1.086770	0.000099
C50	C	-0.184535	-0.753437	0.333432
C51	C	0.148799	-0.420103	0.666766
C52	C	-0.413560	-1.088803	0.000107
C53	C	-0.080227	-0.755469	0.333440
C54	C	0.253107	-0.422136	0.666774
C55	C	-0.330423	-1.090430	0.000114
C56	C	0.002910	-0.757096	0.333447
C57	C	0.336243	-0.423763	0.666780
C58	C	-0.226109	-1.092463	0.000120
C59	C	0.107224	-0.759129	0.333453
C60	C	0.440558	-0.425796	0.666786
C61	C	0.296605	-1.083168	0.000103
C62	C	0.629939	-0.749835	0.333437
C63	C	0.963272	-0.416501	0.666770
C64	C	0.398987	-1.085156	0.000096
C65	C	0.732320	-0.751823	0.333430
C66	C	1.065653	-0.418490	0.666763
N67	N	0.127996	-1.089609	0.243656
N68	N	0.461329	-0.756275	0.576989
N69	N	0.794662	-0.422942	0.910322
C70	C	0.125154	-0.443748	0.000132
C71	C	0.458488	-0.110414	0.333465
C72	C	0.791821	0.222919	0.666798
C73	C	0.127187	-0.548056	0.000118
C74	C	0.460520	-0.214722	0.333451
C75	C	0.793854	0.118611	0.666785
C76	C	0.128814	-0.631192	0.000107
C77	C	0.462147	-0.297859	0.333440
C78	C	0.795481	0.035474	0.666774
C79	C	0.130847	-0.735507	0.000095
C80	C	0.464180	-0.402173	0.333429
C81	C	0.797514	-0.068840	0.666762
N82	N	0.128012	-1.089644	-0.243424
N83	N	0.461345	-0.756311	0.089909
N84	N	0.794678	-0.422978	0.423243
C85	C	0.128013	-1.089630	0.663470
C86	C	0.461346	-0.756297	0.996803
C87	C	0.794680	-0.422964	1.330137
C88	C	0.128011	-1.089622	0.546665
C89	C	0.461344	-0.756288	0.879998
C90	C	0.794678	-0.422955	1.213332
C91	C	0.128005	-1.089620	0.453567
C92	C	0.461338	-0.756287	0.786900
C93	C	0.794672	-0.422953	1.120233
C94	C	0.128002	-1.089610	0.336754
C95	C	0.461335	-0.756277	0.670087
C96	C	0.794668	-0.422944	1.003421
