data_functionalizedCrystal
_audit_creation_method	'MofGen! by Chris Wilmer'
_symmetry_space_group_name_H-M	'P1'
_symmetry_Int_Tables_number	1
_symmetry_cell_setting	triclinic
loop_
_symmetry_equiv_pos_as_xyz
  x,y,z
_cell_length_a	11.792254
_cell_length_b	10.868271
_cell_length_c	9.065218
_cell_angle_alpha	90.003285
_cell_angle_beta	95.392759
_cell_angle_gamma	89.994489
loop_
_atom_site_label
_atom_site_type_symbol
_atom_site_fract_x
_atom_site_fract_y
_atom_site_fract_z
O1	O	-1.508022	0.102352	0.202314
O2	O	-1.008022	0.602352	0.702314
O3	O	-1.177798	0.102346	0.223136
O4	O	-0.677798	0.602346	0.723136
O5	O	-1.349736	0.102346	-0.001981
O6	O	-0.849736	0.602346	0.498019
O7	O	-1.336084	0.102351	0.427431
O8	O	-0.836084	0.602351	0.927431
O9	O	-1.349721	-0.102298	-0.001990
O10	O	-0.849721	0.397702	0.498010
O11	O	-1.177784	-0.102299	0.223127
O12	O	-0.677784	0.397701	0.723127
O13	O	-1.508007	-0.102293	0.202305
O14	O	-1.008007	0.397707	0.702305
Zn15	Zn	-1.342893	-0.134788	0.212714
Zn16	Zn	-0.842893	0.365212	0.712714
Zn17	Zn	-1.342912	0.134841	0.212726
Zn18	Zn	-0.842912	0.634841	0.712726
O19	O	-1.336070	-0.102293	0.427422
O20	O	-0.836070	0.397707	0.927422
C21	C	-1.135493	0.000023	0.221819
C22	C	-0.635493	0.500023	0.721819
C23	C	-1.009458	0.000021	0.217894
C24	C	-0.509458	0.500021	0.717894
C25	C	-0.907104	0.000024	0.214704
C26	C	-0.407104	0.500024	0.714704
C27	C	-0.778695	0.000021	0.210715
C28	C	-0.278695	0.500021	0.710715
N29	N	-1.342889	-0.318802	0.212706
N30	N	-0.842889	0.181198	0.712706
C31	C	-1.342906	-0.569808	0.212723
C32	C	-0.842906	-0.069808	0.712723
C33	C	-1.342893	-0.430130	0.212718
C34	C	-0.842893	0.069870	0.712718
C35	C	-0.550313	0.000027	0.203621
C36	C	-0.050313	0.500027	0.703621
C37	C	-0.676347	0.000019	0.207547
C38	C	-0.176347	0.500019	0.707547
C39	C	-1.348416	0.000026	-0.056960
C40	C	-0.848416	0.500026	0.443040
C41	C	-1.344494	0.000032	-0.220767
C42	C	-0.844494	0.500032	0.279233
N43	N	-1.342926	0.318855	0.212723
N44	N	-0.842926	0.818855	0.712723
C45	C	-1.337389	0.000030	0.482401
C46	C	-0.837389	0.500030	0.982401
C47	C	-1.341312	0.000032	0.646207
C48	C	-0.841312	0.500032	1.146207
