data_functionalizedCrystal
_audit_creation_method	'MofGen! by Chris Wilmer'
_symmetry_space_group_name_H-M	'P1'
_symmetry_Int_Tables_number	1
_symmetry_cell_setting	triclinic
loop_
_symmetry_equiv_pos_as_xyz
  x,y,z
_cell_length_a	13.635800
_cell_length_b	18.591511
_cell_length_c	12.908943
_cell_angle_alpha	105.340673
_cell_angle_beta	100.860631
_cell_angle_gamma	123.621742
loop_
_atom_site_label
_atom_site_type_symbol
_atom_site_fract_x
_atom_site_fract_y
_atom_site_fract_z
V1	V	2.073964	0.131253	0.379685
O2	O	1.987799	-0.007537	0.319496
O3	O	2.125066	0.261435	0.428023
O4	O	2.041624	0.128695	0.522040
O5	O	2.071818	0.126123	0.224829
V6	V	2.307076	0.114716	0.354975
O7	O	2.223568	0.167529	0.433887
O8	O	2.382571	0.078440	0.300773
O9	O	2.144372	-0.015466	0.306636
O10	O	2.451940	0.253506	0.415163
O11	O	2.367921	0.119846	0.509831
O12	O	2.227813	0.117274	0.212620
V13	V	2.573964	0.131253	0.379685
O14	O	2.487799	-0.007537	0.319496
O15	O	2.625066	0.261435	0.428023
O16	O	2.541624	0.128695	0.522040
O17	O	2.571818	0.126123	0.224829
V18	V	2.807076	0.114716	0.354975
O19	O	2.723568	0.167529	0.433887
O20	O	2.882571	0.078440	0.300773
O21	O	2.644372	-0.015466	0.306636
O22	O	2.951940	0.253506	0.415163
O23	O	2.867921	0.119846	0.509831
O24	O	2.727813	0.117274	0.212620
C25	C	2.066148	0.293188	0.435177
C26	C	2.148518	0.399610	0.475648
C27	C	2.534963	-0.047214	0.299482
C28	C	2.442212	-0.153635	0.259018
C29	C	2.302787	0.683061	0.100240
C30	C	2.380192	0.783065	0.138304
C31	C	2.426841	0.809677	0.341715
C32	C	2.349433	0.709673	0.303667
C33	C	2.287413	0.646372	0.182928
C34	C	2.334059	0.672984	0.386355
C35	C	2.256663	0.572989	0.348311
C36	C	2.194643	0.509682	0.227577
C37	C	2.210018	0.546377	0.144883
C38	C	2.396087	0.736287	0.507094
C39	C	2.380713	0.699598	0.589783
C40	C	2.303309	0.599601	0.551738
C41	C	2.241288	0.536294	0.431005
C42	C	2.287934	0.562906	0.634432
C43	C	2.210539	0.462911	0.596387
C44	C	2.163893	0.436299	0.392960
C45	C	1.959709	0.123863	0.555103
C46	C	1.974407	0.122632	0.671813
C47	C	2.034963	-0.047214	0.299482
C48	C	1.942212	-0.153635	0.259018
C49	C	2.141401	0.122110	0.179553
C50	C	2.116319	0.123335	0.062839
C51	C	2.566148	0.293188	0.435177
C52	C	2.648518	0.399610	0.475648
C53	C	2.189148	0.129820	0.905553
C54	C	2.202963	0.128664	1.015214
C55	C	2.015850	0.119158	1.000794
C56	C	2.002034	0.120314	0.891133
C57	C	2.088688	0.125646	0.843518
C58	C	2.074877	0.126809	0.733859
C59	C	1.887760	0.117296	0.719437
C60	C	1.901575	0.116141	0.829098
C61	C	2.459709	0.123863	0.555103
C62	C	2.474407	0.122632	0.671813
C63	C	2.641401	0.122110	0.179553
C64	C	2.616319	0.123335	0.062839
C65	C	1.982393	-0.208473	0.232859
C66	C	1.895251	-0.308471	0.194820
C67	C	1.767931	-0.353626	0.182948
C68	C	1.727749	-0.298781	0.209107
C69	C	1.814888	-0.198787	0.247138
C70	C	2.780832	0.454449	0.501810
C71	C	2.858246	0.554447	0.539855
C72	C	2.803342	0.599603	0.551729
C73	C	2.671017	0.544757	0.525567
C74	C	2.593607	0.444762	0.487531
C75	C	2.551358	0.209673	0.775733
C76	C	2.565195	0.208532	0.885404
C77	C	2.502072	0.120348	0.891153
C78	C	2.425119	0.033301	0.787222
C79	C	2.411290	0.034443	0.677554
C80	C	2.684302	0.211530	0.057126
C81	C	2.660736	0.212697	-0.052530
C82	C	2.569193	0.125668	-0.156471
C83	C	2.501203	0.037466	-0.150754
C84	C	2.524763	0.036300	-0.041099
H85	H	2.113374	0.384754	0.294641
H86	H	2.259713	0.134172	0.866790
N87	N	2.119712	-0.159782	0.245660
H88	H	2.131923	-0.209708	0.223307
H89	H	2.137029	-0.127564	0.191952
N90	N	2.479574	0.844140	0.548132
H91	H	2.443720	0.870154	0.592379
H92	H	2.571017	0.876667	0.602036
H93	H	1.927992	-0.353112	0.173527
H94	H	2.198037	0.433040	0.663722
H95	H	2.426669	-0.033390	-0.235398
N96	N	2.451430	-0.058829	-0.034945
H97	H	2.389868	-0.113778	-0.117435
H98	H	2.514716	-0.066369	0.003499
H99	H	2.825558	0.417696	0.492142
N100	N	2.111159	0.401826	0.186519
H101	H	2.165332	0.386259	0.222144
H102	H	2.038012	0.379727	0.212423
H103	H	1.831025	0.111796	0.867880
H104	H	2.602761	0.281486	0.771074
N105	N	2.886831	0.707452	0.592733
H106	H	2.884601	0.738704	0.668260
H107	H	2.978940	0.735255	0.607428
N108	N	2.311323	0.133171	1.082117
H109	H	2.368861	0.192484	1.161329
H110	H	2.273497	0.073280	1.094458
N111	N	2.734094	0.307834	-0.058674
H112	H	2.784857	0.308982	-0.106893
H113	H	2.670825	0.315419	-0.097030
N114	N	2.168336	0.132564	0.682499
H115	H	2.234070	0.135030	0.738441
H116	H	2.119044	0.073668	0.603921
H117	H	2.626329	0.581538	0.535240
H118	H	1.696990	-0.435049	0.151980
N119	N	2.354828	0.631187	0.764650
H120	H	2.333342	0.592771	0.811262
H121	H	2.451625	0.676555	0.789727
H122	H	2.159499	0.494832	0.046564
N123	N	2.783029	0.305407	0.169222
H124	H	2.787652	0.291300	0.239566
H125	H	2.870734	0.340642	0.166591
N126	N	2.235883	0.614778	-0.029988
H127	H	2.302821	0.629665	-0.062974
H128	H	2.184522	0.545894	-0.041437
N129	N	2.396780	0.822638	0.049113
H130	H	2.345747	0.767361	-0.033144
H131	H	2.364207	0.860244	0.055601
N132	N	1.590428	-0.347497	0.196312
H133	H	1.591470	-0.318920	0.275229
H134	H	1.546549	-0.337035	0.136839
H135	H	2.627855	0.279419	0.970016
N136	N	2.493760	0.877954	0.471937
H137	H	2.545132	0.946870	0.483494
H138	H	2.426762	0.862993	0.504856
H139	H	2.550020	0.126631	-0.245752
H140	H	2.485868	0.400118	0.466226
H141	H	2.513338	0.119431	0.980459
N142	N	1.922385	0.113393	1.052152
H143	H	1.946382	0.113290	1.131032
H144	H	1.926745	0.171102	1.063237
H145	H	2.431224	0.751151	0.688089
H146	H	2.348622	-0.036439	0.592944
N147	N	2.357039	-0.061807	0.793432
H148	H	2.377478	-0.049312	0.878679
H149	H	2.260412	-0.103098	0.747926
H150	H	1.805960	0.113902	0.668918
H151	H	1.782157	-0.154143	0.268444
H152	H	2.965987	0.599089	0.561149
