data_functionalizedCrystal
_audit_creation_method	'MofGen! by Chris Wilmer'
_symmetry_space_group_name_H-M	'P1'
_symmetry_Int_Tables_number	1
_symmetry_cell_setting	triclinic
loop_
_symmetry_equiv_pos_as_xyz
  x,y,z
_cell_length_a	19.188930
_cell_length_b	13.330367
_cell_length_c	14.853567
_cell_angle_alpha	90.002150
_cell_angle_beta	96.610144
_cell_angle_gamma	90.018898
loop_
_atom_site_label
_atom_site_type_symbol
_atom_site_fract_x
_atom_site_fract_y
_atom_site_fract_z
O1	O	0.926521	0.083738	-0.112548
O2	O	1.426521	0.583738	0.387452
O3	O	0.723260	0.083668	-0.127700
O4	O	1.223260	0.583668	0.372300
O5	O	0.830320	0.083708	0.011136
O6	O	1.330320	0.583708	0.511136
O7	O	0.819461	0.083698	-0.251384
O8	O	1.319461	0.583698	0.248616
O9	O	0.830309	-0.083139	0.011132
O10	O	1.330309	0.416861	0.511132
O11	O	0.723249	-0.083179	-0.127704
O12	O	1.223249	0.416821	0.372296
O13	O	0.926510	-0.083109	-0.112553
O14	O	1.426510	0.416891	0.387447
Cu15	Cu	0.824879	-0.098379	-0.120129
Cu16	Cu	1.324879	0.401621	0.379871
Cu17	Cu	0.824892	0.098937	-0.120124
Cu18	Cu	1.324892	0.598937	0.379876
O19	O	0.819450	-0.083149	-0.251388
O20	O	1.319450	0.416851	0.248612
C21	C	0.697242	0.000236	-0.127211
C22	C	1.197242	0.500236	0.372789
C23	C	0.619733	0.000209	-0.125739
C24	C	1.119733	0.500209	0.374261
N25	N	0.824875	-0.237160	-0.120132
N26	N	1.324875	0.262840	0.379868
C27	C	0.829823	0.000287	0.044720
C28	C	1.329823	0.500287	0.544720
C29	C	0.828348	0.000295	0.144795
C30	C	1.328348	0.500295	0.644795
C31	C	0.575080	0.000222	-0.207203
C32	C	1.075080	0.500222	0.292797
C33	C	0.502252	0.000233	-0.205819
C34	C	1.002252	0.500233	0.294181
C35	C	0.474079	0.000252	-0.122966
C36	C	0.974079	0.500252	0.377034
C37	C	0.518741	0.000233	-0.041491
C38	C	1.018741	0.500233	0.458509
C39	C	0.591568	0.000212	-0.042877
C40	C	1.091568	0.500212	0.457123
N41	N	0.365892	0.057080	-0.059634
N42	N	0.865892	0.557080	0.440366
N43	N	0.296709	0.057102	-0.058323
N44	N	0.796709	0.557102	0.441677
C45	C	0.254657	0.000313	-0.118785
C46	C	0.754657	0.500313	0.381215
N47	N	0.284400	-0.056486	-0.180622
N48	N	0.784400	0.443514	0.319378
N49	N	0.353589	-0.056504	-0.181935
N50	N	0.853589	0.443496	0.318065
C51	C	0.395112	0.000274	-0.121454
C52	C	0.895112	0.500274	0.378546
C53	C	0.131035	0.000336	-0.198755
C54	C	0.631035	0.500336	0.301245
C55	C	0.058205	0.000341	-0.197367
C56	C	0.558205	0.500341	0.302633
C57	C	0.074696	0.000352	-0.033038
C58	C	0.574696	0.500352	0.466962
C59	C	0.147524	0.000337	-0.034427
C60	C	0.647524	0.500337	0.465573
C61	C	0.175689	0.000334	-0.117288
C62	C	0.675689	0.500334	0.382712
C63	C	0.952528	0.000325	-0.113041
C64	C	1.452528	0.500325	0.386959
C65	C	1.030038	0.000358	-0.114514
C66	C	1.530038	0.500358	0.385486
C67	C	0.777462	-0.289703	-0.181589
C68	C	1.277462	0.210297	0.318411
C69	C	0.872291	-0.289645	-0.058670
C70	C	1.372291	0.210355	0.441330
C71	C	0.872298	-0.394664	-0.058667
C72	C	1.372298	0.105336	0.441333
C73	C	0.824886	-0.447207	-0.120124
C74	C	1.324886	0.052793	0.379876
C75	C	0.777466	-0.394731	-0.181586
C76	C	1.277466	0.105269	0.318414
C77	C	0.919713	-0.447147	0.002800
C78	C	1.419713	0.052853	0.502800
C79	C	0.919721	-0.552172	0.002806
C80	C	1.419721	-0.052172	0.502806
C81	C	0.872311	-0.604717	-0.058656
C82	C	1.372311	-0.104717	0.441344
C83	C	0.824890	-0.552235	-0.120121
C84	C	1.324890	-0.052235	0.379879
C85	C	0.777477	-0.604778	-0.181579
C86	C	1.277477	-0.104778	0.318421
C87	C	0.730059	-0.552298	-0.243048
C88	C	1.230059	-0.052298	0.256952
C89	C	0.730056	-0.447276	-0.243049
C90	C	1.230056	0.052724	0.256951
C91	C	0.872314	-0.709738	-0.058656
C92	C	1.372314	-0.209738	0.441344
C93	C	0.777482	-0.709806	-0.181575
C94	C	1.277482	-0.209806	0.318425
N95	N	0.824901	0.237719	-0.120114
N96	N	1.324901	0.737719	0.379886
C97	C	0.819948	0.000274	-0.284972
C98	C	1.319948	0.500274	0.215028
C99	C	0.821422	0.000272	-0.385048
C100	C	1.321422	0.500272	0.114952
C101	C	0.758520	0.000252	0.556941
C102	C	1.258520	0.500252	1.056941
C103	C	0.885709	0.000296	0.578929
C104	C	1.385709	0.500296	1.078929
C105	C	0.887095	0.000302	0.484903
C106	C	1.387095	0.500302	0.984903
C107	C	0.824193	0.000282	0.426891
C108	C	1.324193	0.500282	0.926891
C109	C	0.759904	0.000255	0.462906
C110	C	1.259904	0.500255	0.962906
C111	C	0.951383	0.000319	0.448881
C112	C	1.451383	0.500319	0.948881
C113	C	0.952772	0.000324	0.354850
C114	C	1.452772	0.500324	0.854850
C115	C	0.889869	0.000311	0.296836
C116	C	1.389869	0.500311	0.796836
C117	C	0.825577	0.000285	0.332856
C118	C	1.325577	0.500285	0.832856
C119	C	0.762675	0.000265	0.274845
C120	C	1.262675	0.500265	0.774845
C121	C	0.698383	0.000247	0.310862
C122	C	1.198383	0.500247	0.810862
C123	C	0.697001	0.000242	0.404892
C124	C	1.197001	0.500242	0.904892
C125	C	0.891251	0.000315	0.202807
C126	C	1.391251	0.500315	0.702807
C127	C	0.764059	0.000269	0.180809
C128	C	1.264059	0.500269	0.680809
H129	H	0.598007	0.000222	-0.274675
H130	H	1.098007	0.500222	0.225325
Br131	Br	1.040023	0.000364	0.305976
Br132	Br	1.540023	0.500364	0.805976
Br133	Br	0.978497	0.000316	0.153927
Br134	Br	1.478497	0.500316	0.653927
Br135	Br	0.971073	0.000302	0.657658
Br136	Br	1.471073	0.500302	1.157658
Br137	Br	0.441641	0.000244	-0.316385
Br138	Br	0.941641	0.500244	0.183615
Br139	Br	0.671270	0.000241	0.605818
Br140	Br	1.171270	0.500241	1.105818
H141	H	0.021850	0.000346	-0.263708
H142	H	0.521850	0.500346	0.236292
H143	H	0.495798	0.000262	0.025968
H144	H	0.995798	0.500262	0.525968
Br145	Br	0.609755	0.000224	0.453780
Br146	Br	1.109755	0.500224	0.953780
Br147	Br	0.936629	-0.218341	0.024743
Br148	Br	1.436629	0.281659	0.524743
H149	H	1.002595	0.000326	0.496121
H150	H	1.502595	0.500326	0.996121
H151	H	0.627925	0.000202	0.023463
H152	H	1.127925	0.500202	0.523463
Br153	Br	0.678687	0.000253	0.102086
Br154	Br	1.178687	0.500253	0.602086
H155	H	0.153968	0.000319	-0.266225
H156	H	0.653968	0.500319	0.233775
H157	H	0.183881	0.000332	0.031910
H158	H	0.683881	0.500332	0.531910
H159	H	0.910918	-0.752463	-0.008604
H160	H	1.410918	-0.252463	0.491396
H161	H	0.647168	0.000223	0.263617
H162	H	1.147168	0.500223	0.763617
H163	H	0.738856	-0.246971	-0.231640
H164	H	1.238856	0.253029	0.268360
H165	H	0.051759	0.000429	0.034423
H166	H	0.551759	0.500429	0.534423
Br167	Br	0.665709	-0.623617	-0.326444
Br168	Br	1.165709	-0.123617	0.173556
Br169	Br	0.713138	-0.781106	-0.264994
Br170	Br	1.213138	-0.281106	0.235006
H171	H	0.691449	-0.404540	-0.293094
H172	H	1.191449	0.095460	0.206906
H173	H	0.958311	-0.404363	0.052841
H174	H	1.458311	0.095637	0.552841
H175	H	0.958332	-0.594894	0.052857
H176	H	1.458332	-0.094894	0.552857
