data_functionalizedCrystal
_audit_creation_method	'MofGen! by Chris Wilmer'
_symmetry_space_group_name_H-M	'P1'
_symmetry_Int_Tables_number	1
_symmetry_cell_setting	triclinic
loop_
_symmetry_equiv_pos_as_xyz
  x,y,z
_cell_length_a	10.686220
_cell_length_b	18.050590
_cell_length_c	10.686551
_cell_angle_alpha	85.590282
_cell_angle_beta	90.307919
_cell_angle_gamma	94.400680
loop_
_atom_site_label
_atom_site_type_symbol
_atom_site_fract_x
_atom_site_fract_y
_atom_site_fract_z
Zn1	Zn	1.972267	-0.181054	-0.562371
Zn2	Zn	2.305600	0.152279	-0.229037
Zn3	Zn	2.638934	0.485613	0.104296
Zn4	Zn	1.956022	-0.315474	-0.352596
Zn5	Zn	2.289356	0.017860	-0.019263
Zn6	Zn	2.622689	0.351193	0.314071
Zn7	Zn	1.746383	-0.200053	-0.368685
Zn8	Zn	2.079717	0.133281	-0.035352
Zn9	Zn	2.413050	0.466614	0.297982
Zn10	Zn	1.762453	-0.313969	-0.578373
Zn11	Zn	2.095786	0.019364	-0.245040
Zn12	Zn	2.429119	0.352698	0.088294
O13	O	1.859281	-0.252637	-0.465506
O14	O	2.192615	0.080696	-0.132173
O15	O	2.525948	0.414029	0.201161
O16	O	2.145655	-0.191564	-0.521113
O17	O	2.478988	0.141769	-0.187780
O18	O	2.812322	0.475103	0.145554
O19	O	1.914690	-0.308743	-0.179184
O20	O	2.248023	0.024590	0.154150
O21	O	2.581356	0.357923	0.487483
O22	O	1.776421	-0.093603	-0.394414
O23	O	2.109754	0.239731	-0.061081
O24	O	2.443087	0.573064	0.272253
O25	O	2.133720	-0.290321	-0.366992
O26	O	2.467053	0.043012	-0.033659
O27	O	2.800387	0.376345	0.299674
O28	O	1.942377	-0.079645	-0.536714
O29	O	2.275710	0.253689	-0.203381
O30	O	2.609043	0.587022	0.129953
O31	O	1.760669	-0.223944	-0.191004
O32	O	2.094002	0.109389	0.142329
O33	O	2.427336	0.442723	0.475662
O34	O	1.572972	-0.222485	-0.409931
O35	O	1.906306	0.110848	-0.076598
O36	O	2.239639	0.444182	0.256736
O37	O	1.803808	-0.287757	-0.751797
O38	O	2.137142	0.045576	-0.418464
O39	O	2.470475	0.378910	-0.085130
O40	O	1.584778	-0.306179	-0.563988
O41	O	1.918112	0.027154	-0.230655
O42	O	2.251445	0.360488	0.102679
O43	O	1.957958	-0.190105	-0.740040
O44	O	2.291292	0.143228	-0.406707
O45	O	2.624625	0.476562	-0.073373
O46	O	1.930271	-0.419204	-0.382509
O47	O	2.263605	-0.085870	-0.049176
O48	O	2.596938	0.247463	0.284157
O49	O	1.788057	-0.418098	-0.548387
O50	O	2.121390	-0.084765	-0.215054
O51	O	2.454723	0.248568	0.118280
C52	C	1.533359	-0.266231	-0.490443
C53	C	1.866692	0.067102	-0.157109
C54	C	2.200026	0.400436	0.176224
C55	C	1.393930	-0.272063	-0.501140
C56	C	1.727264	0.061271	-0.167807
C57	C	2.060597	0.394604	0.165526
C58	C	1.859181	-0.445596	-0.465464
C59	C	2.192514	-0.112263	-0.132130
C60	C	2.525848	0.221071	0.201203
C61	C	1.859256	-0.528138	-0.465478
C62	C	2.192589	-0.194804	-0.132145
C63	C	2.525923	0.138529	0.201188
C64	C	1.936776	-0.728149	-0.375378
C65	C	2.270109	-0.394816	-0.042044
C66	C	2.603442	-0.061483	0.291289
C67	C	1.976212	-0.770625	-0.487524
C68	C	2.309545	-0.437292	-0.154191
C69	C	2.642878	-0.103959	0.179142
C70	C	1.859331	-0.679263	-0.465523
C71	C	2.192665	-0.345929	-0.132190
C72	C	2.525998	-0.012596	0.201144
C73	C	1.820027	-0.783861	-0.353418
C74	C	2.153360	-0.450527	-0.020085
C75	C	2.486694	-0.117194	0.313249
C76	C	1.859405	-0.825243	-0.465556
C77	C	2.192739	-0.491910	-0.132222
C78	C	2.526072	-0.158576	0.201111
C79	C	1.898831	-0.720646	-0.577725
C80	C	2.232164	-0.387312	-0.244392
C81	C	2.565497	-0.053979	0.088941
C82	C	1.742586	-0.733883	-0.443546
C83	C	2.075920	-0.400549	-0.110213
C84	C	2.409253	-0.067216	0.223121
C85	C	1.781985	-0.776334	-0.555775
C86	C	2.115318	-0.443001	-0.222441
C87	C	2.448652	-0.109668	0.110892
C88	C	1.859292	-0.595167	-0.465502
C89	C	2.192625	-0.261834	-0.132169
C90	C	2.525958	0.071500	0.201164
C91	C	1.859446	-0.909336	-0.465590
C92	C	2.192779	-0.576003	-0.132256
C93	C	2.526112	-0.242669	0.201077
C94	C	2.186476	-0.238991	-0.440473
C95	C	2.519810	0.094342	-0.107140
C96	C	2.853143	0.427675	0.226194
C97	C	2.325907	-0.233176	-0.429805
C98	C	2.659241	0.100157	-0.096472
C99	C	2.992574	0.433490	0.236861
C100	C	1.884488	-0.236644	-0.792708
C101	C	2.217821	0.096689	-0.459375
C102	C	2.551155	0.430023	-0.126042
C103	C	1.895229	-0.229829	-0.932142
C104	C	2.228563	0.103505	-0.598809
C105	C	2.561896	0.436838	-0.265476
C106	C	1.859418	-0.058923	-0.465574
C107	C	2.192752	0.274411	-0.132240
C108	C	2.526085	0.607744	0.201093
C109	C	1.859477	0.023627	-0.465603
C110	C	2.192810	0.356961	-0.132269
C111	C	2.526143	0.690294	0.201064
C112	C	1.834245	-0.268512	-0.139571
C113	C	2.167578	0.064821	0.193762
C114	C	2.500912	0.398155	0.527095
C115	C	1.823747	-0.275108	-0.000119
C116	C	2.157080	0.058225	0.333214
C117	C	2.490413	0.391559	0.666547
H118	H	2.002298	-0.706964	-0.299216
H119	H	2.335631	-0.373631	0.034117
H120	H	2.668964	-0.040298	0.367450
H121	H	1.716531	-0.797371	-0.632103
H122	H	2.049864	-0.464038	-0.298770
H123	H	2.383197	-0.130705	0.034563
H124	H	1.643850	-0.717520	-0.424898
H125	H	1.977184	-0.384186	-0.091564
H126	H	2.310517	-0.050853	0.241769
H127	H	1.345500	-0.309818	-0.570396
H128	H	1.678834	0.023516	-0.237063
H129	H	2.012167	0.356849	0.096271
H130	H	1.374343	-0.195424	-0.360537
H131	H	1.707676	0.137909	-0.027204
H132	H	2.041010	0.471243	0.306130
H133	H	2.074973	-0.786973	-0.506136
H134	H	2.408306	-0.453640	-0.172803
H135	H	2.741640	-0.120306	0.160530
H136	H	1.786754	-0.811399	-0.258599
H137	H	2.120087	-0.478066	0.074734
H138	H	2.453420	-0.144732	0.408067
H139	H	1.754333	-0.319090	-0.951646
H140	H	2.087666	0.014244	-0.618313
H141	H	2.420999	0.347577	-0.284979
H142	H	1.964657	-0.185849	-0.980621
H143	H	2.297990	0.147485	-0.647288
H144	H	2.631323	0.480818	-0.313955
H145	H	1.932014	-0.693199	-0.672635
H146	H	2.265348	-0.359866	-0.339302
H147	H	2.598681	-0.026533	-0.005968
