data_functionalizedCrystal
_audit_creation_method	'MofGen! by Chris Wilmer'
_symmetry_space_group_name_H-M	'P1'
_symmetry_Int_Tables_number	1
_symmetry_cell_setting	triclinic
loop_
_symmetry_equiv_pos_as_xyz
  x,y,z
_cell_length_a	19.288864
_cell_length_b	15.995350
_cell_length_c	18.366186
_cell_angle_alpha	89.995992
_cell_angle_beta	89.977106
_cell_angle_gamma	83.314311
loop_
_atom_site_label
_atom_site_type_symbol
_atom_site_fract_x
_atom_site_fract_y
_atom_site_fract_z
O1	O	0.921624	0.104451	-0.060780
O2	O	1.421624	0.604451	0.439220
O3	O	0.719400	0.118542	-0.060729
O4	O	1.219400	0.618542	0.439271
O5	O	0.826040	-0.010412	-0.060755
O6	O	1.326040	0.489588	0.439245
O7	O	0.814984	0.233405	-0.060754
O8	O	1.314984	0.733405	0.439246
O9	O	0.826022	-0.010418	0.060344
O10	O	1.326022	0.489582	0.560344
O11	O	0.719382	0.118535	0.060370
O12	O	1.219382	0.618535	0.560370
O13	O	0.921606	0.104445	0.060320
O14	O	1.421606	0.604445	0.560320
Zn15	Zn	0.820491	0.111489	0.079572
Zn16	Zn	1.320491	0.611489	0.579572
Zn17	Zn	0.820515	0.111498	-0.079982
Zn18	Zn	1.320515	0.611498	0.420018
O19	O	0.814966	0.233399	0.060346
O20	O	1.314966	0.733399	0.560346
C21	C	0.693513	0.118085	-0.000173
C22	C	1.193513	0.618085	0.499827
C23	C	0.616406	0.116724	-0.000154
C24	C	1.116406	0.616724	0.499846
C25	C	0.825574	-0.041608	-0.000207
C26	C	1.325574	0.458392	0.499793
C27	C	0.824203	-0.134553	-0.000211
C28	C	1.324203	0.365447	0.499789
C29	C	0.571906	0.192388	-0.000165
C30	C	1.071906	0.692388	0.499835
C31	C	0.499456	0.191110	-0.000173
C32	C	0.999456	0.691110	0.499827
C33	C	0.471508	0.114163	-0.000185
C34	C	0.971508	0.614163	0.499815
C35	C	0.516018	0.038489	-0.000170
C36	C	1.016018	0.538489	0.499830
C37	C	0.588467	0.039769	-0.000155
C38	C	1.088467	0.539769	0.499845
C39	C	0.363096	0.053676	-0.042636
C40	C	0.863096	0.553676	0.457364
C41	C	0.290648	0.052398	-0.042656
C42	C	0.790648	0.552398	0.457344
C43	C	0.248053	0.110209	-0.000229
C44	C	0.748053	0.610209	0.499771
C45	C	0.277912	0.169312	0.042208
C46	C	0.777912	0.669312	0.542208
C47	C	0.350361	0.170593	0.042224
C48	C	0.850361	0.670593	0.542224
C49	C	0.392951	0.112765	-0.000201
C50	C	0.892951	0.612765	0.499799
C51	C	0.124993	0.184492	-0.000248
C52	C	0.624993	0.684492	0.499752
C53	C	0.052542	0.183210	-0.000251
C54	C	0.552542	0.683210	0.499749
C55	C	0.069106	0.030587	-0.000255
C56	C	0.569106	0.530587	0.499745
C57	C	0.141556	0.031871	-0.000244
C58	C	0.641556	0.531871	0.499756
C59	C	0.169495	0.108826	-0.000244
C60	C	0.669495	0.608826	0.499756
C61	C	0.819282	-0.472282	-0.000207
C62	C	1.319282	0.027718	0.499793
C63	C	0.743335	-0.424562	-0.000460
C64	C	1.243335	0.075438	0.499540
C65	C	0.744706	-0.327877	-0.000187
C66	C	1.244706	0.172123	0.499813
C67	C	0.821723	-0.304731	-0.000209
C68	C	1.321723	0.195269	0.499791
C69	C	0.859173	-0.345953	0.068934
C70	C	1.359173	0.154047	0.568934
C71	C	0.857265	-0.442582	0.068992
C72	C	1.357265	0.057418	0.568992
C73	C	0.858854	-0.442939	-0.068721
C74	C	1.358854	0.057061	0.431279
C75	C	0.858836	-0.345993	-0.069635
C76	C	1.358836	0.154007	0.430365
C77	C	0.823107	-0.210039	-0.000208
C78	C	1.323107	0.289961	0.499792
C79	C	0.817901	-0.566975	-0.000203
C80	C	1.317901	-0.066975	0.499797
C81	C	0.947492	0.104902	-0.000238
C82	C	1.447492	0.604902	0.499762
C83	C	1.024600	0.106263	-0.000262
C84	C	1.524600	0.606263	0.499738
C85	C	0.815432	0.264595	-0.000204
C86	C	1.315432	0.764595	0.499796
C87	C	0.816802	0.357540	-0.000206
C88	C	1.316802	0.857540	0.499794
N89	N	0.820480	0.111483	0.188463
N90	N	1.320480	0.611483	0.688463
N91	N	0.820531	0.111497	-0.188873
N92	N	1.320531	0.611497	0.311127
C93	C	0.867715	0.054410	0.226552
C94	C	1.367715	0.554410	0.726552
C95	C	0.867720	0.054407	0.302780
C96	C	1.367720	0.554407	0.802780
C97	C	0.820495	0.111490	0.340916
C98	C	1.320495	0.611490	0.840916
C99	C	0.773250	0.168567	0.302818
C100	C	1.273250	0.668567	0.802818
C101	C	0.773243	0.168564	0.226591
C102	C	1.273243	0.668564	0.726591
C103	C	0.811395	0.187781	0.461678
C104	C	1.311395	0.687781	0.961678
C105	C	0.811407	0.187785	0.537903
C106	C	1.311407	0.687785	1.037903
C107	C	0.820515	0.111500	0.576023
C108	C	1.320515	0.611500	1.076023
C109	C	0.829624	0.035208	0.537909
C110	C	1.329624	0.535208	1.037909
C111	C	0.829617	0.035204	0.461683
C112	C	1.329617	0.535204	0.961683
C113	C	0.820498	0.111500	0.423571
C114	C	1.320498	0.611500	0.923571
C115	C	0.867758	0.054419	0.696767
C116	C	1.367758	0.554419	1.196767
C117	C	0.867757	0.054414	0.772996
C118	C	1.367757	0.554414	1.272996
C119	C	0.773292	0.168582	0.773033
C120	C	1.273292	0.668582	1.273033
C121	C	0.773289	0.168579	0.696805
C122	C	1.273289	0.668579	1.196805
C123	C	0.820525	0.111499	0.658677
C124	C	1.320525	0.611499	1.158677
H125	H	0.594649	0.255051	-0.000166
H126	H	1.094649	0.755051	0.499834
F127	F	0.839322	-0.045987	0.578474
F128	F	1.339322	0.454013	1.078474
F129	F	0.917997	-0.006341	0.343324
F130	F	1.417997	0.493659	0.843324
F131	F	0.703723	-0.450308	0.063830
F132	F	1.203723	0.049692	0.563830
H133	H	0.829941	-0.460783	0.120694
H134	H	1.329941	0.039217	0.620694
F135	F	0.408423	-0.007859	-0.087796
F136	F	0.908423	0.492141	0.412204
H137	H	0.803994	0.249907	0.568929
H138	H	1.303994	0.749907	1.068929
F139	F	0.932248	-0.326187	-0.075118
F140	F	1.432248	0.173813	0.424882
F141	F	0.918030	-0.006338	0.813535
F142	F	1.418030	0.493662	1.313535
H143	H	0.913024	-0.475040	0.072114
H144	H	1.413024	0.024960	0.572114
H145	H	0.734828	0.215057	0.665791
H146	H	1.234828	0.715057	1.165791
H147	H	0.734838	0.215057	0.804083
H148	H	1.234838	0.715057	1.304083
F149	F	0.932044	-0.484729	-0.069351
F150	F	1.432044	0.015271	0.430649
H151	H	0.906219	0.007938	0.665722
H152	H	1.406219	0.507938	1.165722
H153	H	0.016310	0.244828	-0.000256
H154	H	0.516310	0.744828	0.499744
F155	F	0.917986	-0.006342	0.185975
F156	F	1.417986	0.493658	0.685975
H157	H	0.803966	0.249905	0.430647
H158	H	1.303966	0.749905	0.930647
H159	H	0.837032	-0.026916	0.430654
H160	H	1.337032	0.473084	0.930654
F161	F	0.258875	-0.010496	-0.087828
F162	F	0.758875	0.489504	0.412172
F163	F	0.232585	0.230844	0.087366
F164	F	0.732585	0.730844	0.587366
H165	H	0.624700	-0.021848	-0.000146
H166	H	1.124700	0.478152	0.499854
F167	F	0.039367	-0.051306	-0.000261
F168	F	0.539367	0.448694	0.499739
F169	F	0.382138	0.233490	0.087390
F170	F	0.882138	0.733490	0.587390
H171	H	0.177789	-0.029743	-0.000239
H172	H	0.677789	0.470257	0.499761
H173	H	0.493259	-0.024162	-0.000189
H174	H	0.993259	0.475838	0.499811
F175	F	0.823324	-0.309851	-0.136502
F176	F	1.323324	0.190149	0.363498
H177	H	0.734798	0.215044	0.333872
H178	H	1.234798	0.715044	0.833872
F179	F	0.722966	0.229311	0.186053
F180	F	1.222966	0.729311	0.686053
H181	H	0.463217	0.252727	-0.000180
H182	H	0.963217	0.752727	0.499820
H183	H	0.715267	-0.299341	-0.049751
H184	H	1.215267	0.200659	0.450249
F185	F	0.703666	-0.448629	-0.065269
F186	F	1.203666	0.051371	0.434731
F187	F	0.154731	0.266393	-0.000242
F188	F	0.654731	0.766393	0.499758
F189	F	0.705947	-0.291308	0.064725
F190	F	1.205947	0.208692	0.564725
H191	H	0.915755	-0.332041	0.071489
H192	H	1.415755	0.167959	0.571489
F193	F	0.826404	-0.469650	-0.137222
F194	F	1.326404	0.030350	0.362778
F195	F	0.825157	-0.308735	0.136210
F196	F	1.325157	0.191265	0.636210
