data_functionalizedCrystal
_audit_creation_method	'MofGen! by Chris Wilmer'
_symmetry_space_group_name_H-M	'P1'
_symmetry_Int_Tables_number	1
_symmetry_cell_setting	triclinic
loop_
_symmetry_equiv_pos_as_xyz
  x,y,z
_cell_length_a	14.044191
_cell_length_b	14.044190
_cell_length_c	7.681481
_cell_angle_alpha	83.728840
_cell_angle_beta	96.250963
_cell_angle_gamma	93.191777
loop_
_atom_site_label
_atom_site_type_symbol
_atom_site_fract_x
_atom_site_fract_y
_atom_site_fract_z
O1	O	1.268918	0.238473	-0.146383
O2	O	1.602252	0.571807	0.186950
O3	O	1.935585	0.905140	0.520284
O4	O	0.992245	0.230162	-0.146404
O5	O	1.325578	0.563495	0.186929
O6	O	1.658911	0.896829	0.520263
O7	O	1.126427	0.095979	-0.146359
O8	O	1.459760	0.429313	0.186974
O9	O	1.793094	0.762646	0.520308
O10	O	1.134736	0.372656	-0.146428
O11	O	1.468069	0.705989	0.186906
O12	O	1.801403	1.039323	0.520239
O13	O	1.142939	0.079423	0.146504
O14	O	1.476273	0.412756	0.479837
O15	O	1.809606	0.746090	0.813171
O16	O	1.008757	0.213605	0.146459
O17	O	1.342090	0.546939	0.479793
O18	O	1.675423	0.880272	0.813126
O19	O	1.285431	0.221917	0.146480
O20	O	1.618764	0.555250	0.479814
O21	O	1.952097	0.888584	0.813147
Zn22	Zn	1.149715	0.215132	0.192968
Zn23	Zn	1.483049	0.548466	0.526302
Zn24	Zn	1.816382	0.881799	0.859635
Zn25	Zn	1.127960	0.236946	-0.192892
Zn26	Zn	1.461293	0.570280	0.140442
Zn27	Zn	1.794627	0.903613	0.473775
O28	O	1.151248	0.356099	0.146435
O29	O	1.484581	0.689433	0.479769
O30	O	1.817915	1.022766	0.813102
C31	C	1.131047	0.052079	0.000077
C32	C	1.464380	0.385412	0.333411
C33	C	1.797714	0.718745	0.666744
C34	C	1.120200	-0.054065	0.000092
C35	C	1.453534	0.279268	0.333425
C36	C	1.786867	0.612601	0.666759
C37	C	0.964879	0.218247	0.000026
C38	C	1.298212	0.551580	0.333359
C39	C	1.631545	0.884914	0.666692
C40	C	0.858735	0.207400	0.000019
C41	C	1.192068	0.540734	0.333352
C42	C	1.525401	0.874067	0.666686
C43	C	1.177297	-0.299519	0.000027
C44	C	1.510631	0.033815	0.333361
C45	C	1.843964	0.367148	0.666694
C46	C	1.100381	-0.248396	0.000034
C47	C	1.433715	0.084938	0.333367
C48	C	1.767048	0.418271	0.666700
C49	C	1.111411	-0.140260	0.000066
C50	C	1.444745	0.193073	0.333399
C51	C	1.778078	0.526406	0.666733
C52	C	1.166269	-0.407664	-0.000005
C53	C	1.499602	-0.074331	0.333328
C54	C	1.832935	0.259003	0.666662
C55	C	0.613278	0.264501	0.000022
C56	C	0.946611	0.597834	0.333356
C57	C	1.279945	0.931167	0.666689
C58	C	0.664402	0.187583	0.000039
C59	C	0.997736	0.520917	0.333372
C60	C	1.331069	0.854250	0.666705
C61	C	0.772539	0.198612	0.000028
C62	C	1.105872	0.531945	0.333361
C63	C	1.439206	0.865279	0.666694
C64	C	0.505132	0.253473	0.000033
C65	C	0.838465	0.586807	0.333367
C66	C	1.171798	0.920140	0.666700
C67	C	1.312796	0.233832	0.000047
C68	C	1.646130	0.567165	0.333380
C69	C	1.979463	0.900498	0.666714
C70	C	1.418940	0.244679	0.000042
C71	C	1.752273	0.578013	0.333375
C72	C	2.085606	0.911346	0.666709
C73	C	1.146628	0.400000	-0.000005
C74	C	1.479961	0.733334	0.333328
C75	C	1.813295	1.066667	0.666662
C76	C	1.157474	0.506145	-0.000031
C77	C	1.490807	0.839478	0.333302
C78	C	1.824141	1.172812	0.666636
N79	N	1.164570	0.200245	0.456307
N80	N	1.497903	0.533578	0.789641
N81	N	1.831237	0.866912	1.122974
N82	N	1.113112	0.251827	-0.456231
N83	N	1.446446	0.585160	-0.122898
N84	N	1.779779	0.918493	0.210436
H85	H	1.026248	-0.285840	0.000018
H86	H	1.359581	0.047493	0.333351
H87	H	1.692914	0.380827	0.666685
H88	H	1.251426	-0.262077	0.000051
H89	H	1.584759	0.071256	0.333384
H90	H	1.918092	0.404590	0.666718
F91	F	0.615463	0.090684	0.000064
F92	F	0.948796	0.424017	0.333397
F93	F	1.282129	0.757351	0.666730
F94	F	0.662216	0.361394	-0.000017
F95	F	0.995550	0.694727	0.333316
F96	F	1.328883	1.028060	0.666650
F97	F	1.233243	0.131434	0.554624
F98	F	1.566576	0.464767	0.887958
F99	F	1.899910	0.798101	1.221291
H100	H	1.060584	0.304476	0.468555
H101	H	1.393917	0.637809	0.801888
H102	H	1.727251	0.971142	1.135221
