data_functionalizedCrystal
_audit_creation_method	'MofGen! by Chris Wilmer'
_symmetry_space_group_name_H-M	'P1'
_symmetry_Int_Tables_number	1
_symmetry_cell_setting	triclinic
loop_
_symmetry_equiv_pos_as_xyz
  x,y,z
_cell_length_a	16.992694
_cell_length_b	10.654551
_cell_length_c	15.455313
_cell_angle_alpha	92.692775
_cell_angle_beta	87.142206
_cell_angle_gamma	87.576826
loop_
_atom_site_label
_atom_site_type_symbol
_atom_site_fract_x
_atom_site_fract_y
_atom_site_fract_z
O1	O	1.045244	0.261289	-0.072016
O2	O	1.545244	0.761289	0.427984
O3	O	0.816944	0.258364	-0.072042
O4	O	1.316944	0.758364	0.427958
O5	O	0.936343	0.077541	-0.072027
O6	O	1.436343	0.577541	0.427973
O7	O	0.925846	0.442112	-0.072032
O8	O	1.425846	0.942112	0.427968
O9	O	0.929515	0.087836	0.072235
O10	O	1.429515	0.587836	0.572235
O11	O	0.810116	0.268659	0.072219
O12	O	1.310116	0.768659	0.572219
O13	O	1.038416	0.271584	0.072245
O14	O	1.538416	0.771584	0.572245
Cu15	Cu	0.923643	0.271061	0.085404
Cu16	Cu	1.423643	0.771061	0.585404
Cu17	Cu	0.931718	0.258886	-0.085201
Cu18	Cu	1.431718	0.758886	0.414799
O19	O	0.919018	0.452407	0.072230
O20	O	1.419018	0.952407	0.572230
C21	C	0.784297	0.259751	0.000085
C22	C	1.284297	0.759751	0.500085
C23	C	0.697193	0.248531	0.000075
C24	C	1.197193	0.748531	0.500075
C25	C	0.932158	0.035824	0.000102
C26	C	1.432158	0.535824	0.500102
C27	C	0.929851	-0.103819	0.000098
C28	C	1.429851	0.396181	0.500098
C29	C	0.647541	0.356782	0.000075
C30	C	1.147541	0.856782	0.500075
C31	C	0.565697	0.346233	0.000087
C32	C	1.065697	0.846233	0.500087
C33	C	0.533505	0.227433	0.000093
C34	C	1.033505	0.727433	0.500093
C35	C	0.583163	0.119174	0.000097
C36	C	1.083163	0.619174	0.500097
C37	C	0.665006	0.129724	0.000091
C38	C	1.165006	0.629724	0.500091
C39	C	0.289669	0.183707	0.000117
C40	C	0.789669	0.683707	0.500117
C41	C	0.207820	0.173165	0.000121
C42	C	0.707820	0.673165	0.500121
C43	C	0.190359	0.400226	0.000112
C44	C	0.690359	0.900226	0.500112
C45	C	0.272204	0.410765	0.000101
C46	C	0.772204	0.910765	0.500101
C47	C	0.321854	0.302507	0.000109
C48	C	0.821854	0.802507	0.500109
N49	N	0.449847	0.216648	0.000103
N50	N	0.949847	0.716648	0.500103
N51	N	0.405510	0.313293	0.000105
N52	N	0.905510	0.813293	0.500105
C53	C	0.932491	-0.175028	-0.078540
C54	C	1.432491	0.324972	0.421460
C55	C	0.930317	-0.306237	-0.078541
C56	C	1.430317	0.193763	0.421459
C57	C	0.922868	-0.295015	0.078741
C58	C	1.422868	0.204985	0.578741
C59	C	0.925036	-0.163808	0.078741
C60	C	1.425036	0.336192	0.578741
C61	C	0.885946	-0.487272	-0.173024
C62	C	1.385946	0.012728	0.326976
C63	C	0.888599	-0.558488	-0.251666
C64	C	1.388599	-0.058488	0.248334
C65	C	0.938480	-0.525875	-0.321090
C66	C	1.438480	-0.025875	0.178910
C67	C	0.985728	-0.422051	-0.311876
C68	C	1.485728	0.077949	0.188124
C69	C	0.983082	-0.350843	-0.233233
C70	C	1.483082	0.149157	0.266767
C71	C	0.933182	-0.383452	-0.163811
C72	C	1.433182	0.116548	0.336189
C73	C	0.969414	0.017228	0.173218
C74	C	1.469414	0.517228	0.673218
C75	C	0.966773	0.088438	0.251863
C76	C	1.466773	0.588438	0.751863
C77	C	0.916896	0.055828	0.321295
C78	C	1.416896	0.555828	0.821295
C79	C	0.869660	-0.048000	0.312089
C80	C	1.369660	0.452000	0.812089
C81	C	0.872301	-0.119210	0.233445
C82	C	1.372301	0.380790	0.733445
C83	C	0.922176	-0.086591	0.164013
C84	C	1.422176	0.413409	0.664013
C85	C	1.071063	0.270196	0.000116
C86	C	1.571063	0.770196	0.500116
C87	C	1.158168	0.281416	0.000120
C88	C	1.658168	0.781416	0.500120
C89	C	0.923203	0.494124	0.000098
C90	C	1.423203	0.994124	0.500098
C91	C	0.925509	0.633766	0.000097
C92	C	1.425509	1.133766	0.500097
N93	N	0.917969	0.279624	0.205399
N94	N	1.417969	0.779624	0.705399
N95	N	0.937398	0.250314	-0.205196
N96	N	1.437398	0.750314	0.294804
C97	C	0.968712	0.202836	0.250800
C98	C	1.468712	0.702836	0.750800
C99	C	0.964428	0.209324	0.341607
C100	C	1.464428	0.709324	0.841607
C101	C	0.909405	0.292607	0.387012
C102	C	1.409405	0.792607	0.887012
C103	C	0.858657	0.369399	0.341605
C104	C	1.358657	0.869399	0.841605
C105	C	0.862938	0.362903	0.250799
C106	C	1.362938	0.862903	0.750799
C107	C	0.890930	0.320610	0.658591
C108	C	1.390930	0.820610	1.158591
C109	C	0.886655	0.327102	0.749403
C110	C	1.386655	0.827102	1.249403
C111	C	0.992425	0.167025	0.749399
C112	C	1.492425	0.667025	1.249399
C113	C	0.996704	0.160543	0.658591
C114	C	1.496704	0.660543	1.158591
C115	C	0.945953	0.237329	0.613192
C116	C	1.445953	0.737329	1.113192
N117	N	0.905027	0.299244	0.479832
N118	N	1.405027	0.799244	0.979832
N119	N	0.950328	0.230685	0.520374
N120	N	1.450328	0.730685	1.020374
H121	H	0.673745	0.453522	0.000069
H122	H	1.173745	0.953522	0.500069
Br123	Br	0.811978	0.440146	0.811019
Br124	Br	1.311978	0.940146	1.311019
H125	H	1.026351	-0.395516	-0.368408
H126	H	1.526351	0.104484	0.131592
Br127	Br	0.822058	0.424819	0.596983
Br128	Br	1.322058	0.924819	1.096983
Br129	Br	0.783976	0.482419	0.403223
Br130	Br	1.283976	0.982419	0.903223
Br131	Br	0.916330	-0.376437	0.185465
Br132	Br	1.416330	0.123563	0.685465
H133	H	0.845317	-0.513826	-0.116501
H134	H	1.345317	-0.013826	0.383499
H135	H	0.525273	0.434383	0.000085
H136	H	1.025273	0.934383	0.500085
H137	H	0.705432	0.041574	0.000091
H138	H	1.205432	0.541574	0.500091
H139	H	0.833833	-0.203751	0.225953
H140	H	1.333833	0.296249	0.725953
Br141	Br	0.315887	0.571999	0.000082
Br142	Br	0.815887	1.071999	0.500082
H143	H	0.149925	0.488363	0.000107
H144	H	0.649925	0.988363	0.500107
H145	H	0.181613	0.076419	0.000125
H146	H	0.681613	0.576419	0.500125
Br147	Br	0.794064	0.467112	0.189184
Br148	Br	1.294064	0.967112	0.689184
H149	H	0.556946	0.022445	0.000115
H150	H	1.056946	0.522445	0.500115
Br151	Br	0.357041	0.036784	0.000130
Br152	Br	0.857041	0.536784	0.500130
H153	H	0.940639	-0.583868	-0.385122
H154	H	1.440639	-0.083868	0.114878
Br155	Br	1.033291	0.105106	0.403225
Br156	Br	1.533291	0.605106	0.903225
H157	H	0.829029	-0.074531	0.368618
H158	H	1.329029	0.425469	0.868618
Br159	Br	0.939024	-0.093617	-0.185268
Br160	Br	1.439024	0.406383	0.314732
H161	H	1.033743	0.104508	0.786371
H162	H	1.533743	0.604508	1.286371
Br163	Br	1.047198	-0.209951	-0.220721
Br164	Br	1.547198	0.290049	0.279279
H165	H	0.914757	0.113812	0.385333
H166	H	1.414757	0.613812	0.885333
H167	H	1.010024	0.043800	0.116680
H168	H	1.510024	0.543800	0.616680
H169	H	1.013520	0.135024	0.213837
H170	H	1.513520	0.635024	0.713837
Br171	Br	1.030892	0.229337	0.264362
Br172	Br	1.530892	0.729337	0.764362
Br173	Br	0.824479	-0.699386	-0.264170
Br174	Br	1.324479	-0.199386	0.235830
H175	H	1.041508	0.092727	0.621624
H176	H	1.541508	0.592727	1.121624
