data_functionalizedCrystal
_audit_creation_method	'MofGen! by Chris Wilmer'
_symmetry_space_group_name_H-M	'P1'
_symmetry_Int_Tables_number	1
_symmetry_cell_setting	triclinic
loop_
_symmetry_equiv_pos_as_xyz
  x,y,z
_cell_length_a	14.519731
_cell_length_b	19.288865
_cell_length_c	17.766277
_cell_angle_alpha	90.011603
_cell_angle_beta	89.990550
_cell_angle_gamma	96.587450
loop_
_atom_site_label
_atom_site_type_symbol
_atom_site_fract_x
_atom_site_fract_y
_atom_site_fract_z
O1	O	1.223284	-0.091121	-0.062605
O2	O	1.723284	0.408879	0.437395
O3	O	0.954742	-0.101828	-0.062607
O4	O	1.454742	0.398172	0.437393
O5	O	1.096772	0.004627	-0.062591
O6	O	1.596772	0.504627	0.437409
O7	O	1.081253	-0.197577	-0.062621
O8	O	1.581253	0.302423	0.437379
O9	O	1.096747	0.004633	0.062598
O10	O	1.596747	0.504633	0.562598
O11	O	0.954717	-0.101823	0.062581
O12	O	1.454717	0.398177	0.562581
O13	O	1.223259	-0.091116	0.062584
O14	O	1.723259	0.408884	0.562584
Cu15	Cu	1.088985	-0.096469	0.074013
Cu16	Cu	1.588985	0.403531	0.574013
Cu17	Cu	1.089015	-0.096475	-0.074037
Cu18	Cu	1.589015	0.403525	0.425963
O19	O	1.081228	-0.197571	0.062568
O20	O	1.581228	0.302429	0.562568
C21	C	0.920373	-0.101324	-0.000013
C22	C	1.420373	0.398676	0.499987
C23	C	0.818002	-0.099820	-0.000013
C24	C	1.318002	0.400180	0.499987
C25	C	0.734866	-0.098599	-0.000016
C26	C	1.234866	0.401401	0.499984
C27	C	0.630567	-0.097073	-0.000016
C28	C	1.130567	0.402927	0.499984
C29	C	0.547435	-0.095861	-0.000016
C30	C	1.047435	0.404139	0.499984
C31	C	0.443130	-0.094335	-0.000017
C32	C	0.943130	0.405665	0.499983
C33	C	1.096260	0.030508	0.000006
C34	C	1.596260	0.530508	0.500006
C35	C	1.094761	0.107617	0.000012
C36	C	1.594761	0.607617	0.500012
C37	C	1.257627	-0.091620	-0.000012
C38	C	1.757627	0.408380	0.499988
C39	C	1.359998	-0.093124	-0.000017
C40	C	1.859998	0.406876	0.499983
C41	C	1.081740	-0.223452	-0.000031
C42	C	1.581740	0.276548	0.499969
C43	C	1.083239	-0.300561	-0.000042
C44	C	1.583239	0.199439	0.499958
N45	N	1.088971	-0.096464	0.178144
N46	N	1.588971	0.403536	0.678144
C47	C	1.178099	0.152009	0.000017
C48	C	1.678099	0.652009	0.500017
C49	C	1.176690	0.224461	0.000005
C50	C	1.676690	0.724461	0.500005
C51	C	1.091940	0.252518	0.000003
C52	C	1.591940	0.752518	0.500003
C53	C	1.008592	0.208117	-0.000005
C54	C	1.508592	0.708117	0.499995
C55	C	1.010003	0.135666	-0.000001
C56	C	1.510003	0.635666	0.499999
C57	C	1.025308	0.361051	0.043854
C58	C	1.525308	0.861051	0.543854
C59	C	1.023901	0.433501	0.043854
C60	C	1.523901	0.933501	0.543854
C61	C	1.087586	0.475980	-0.000013
C62	C	1.587586	0.975980	0.499987
C63	C	1.152694	0.446002	-0.043871
C64	C	1.652694	0.946002	0.456129
C65	C	1.154104	0.373551	-0.043867
C66	C	1.654104	0.873551	0.456133
C67	C	1.090401	0.331078	-0.000002
C68	C	1.590401	0.831078	0.499998
C69	C	1.169402	0.598933	-0.000023
C70	C	1.669402	1.098933	0.499977
C71	C	1.167990	0.671386	-0.000040
C72	C	1.667990	1.171386	0.499960
C73	C	0.999889	0.655041	-0.000042
C74	C	1.499889	1.155041	0.499958
C75	C	1.001303	0.582589	-0.000033
C76	C	1.501303	1.082589	0.499967
C77	C	1.086062	0.554540	-0.000020
C78	C	1.586062	1.054540	0.499980
N79	N	1.089036	-0.096475	-0.178167
N80	N	1.589036	0.403525	0.321833
C81	C	1.151883	-0.049349	0.217538
C82	C	1.651883	0.450651	0.717538
C83	C	1.151888	-0.049345	0.296339
C84	C	1.651888	0.450655	0.796339
C85	C	1.088991	-0.096469	0.335744
C86	C	1.588991	0.403531	0.835744
C87	C	1.026068	-0.143588	0.296341
C88	C	1.526068	0.356412	0.796341
C89	C	1.026058	-0.143585	0.217540
C90	C	1.526058	0.356415	0.717540
C91	C	1.076645	-0.159712	0.460573
C92	C	1.576645	0.340288	0.960573
C93	C	1.076661	-0.159716	0.539372
C94	C	1.576661	0.340284	1.039372
C95	C	1.089016	-0.096478	0.578791
C96	C	1.589016	0.403522	1.078791
C97	C	1.101374	-0.033234	0.539401
C98	C	1.601374	0.466766	1.039401
C99	C	1.101364	-0.033231	0.460601
C100	C	1.601364	0.466769	0.960601
C101	C	1.088994	-0.096477	0.421190
C102	C	1.588994	0.403523	0.921190
C103	C	1.151936	-0.049355	0.703630
C104	C	1.651936	0.450645	1.203630
C105	C	1.151935	-0.049351	0.782434
C106	C	1.651935	0.450649	1.282434
C107	C	1.026119	-0.143600	0.782433
C108	C	1.526119	0.356400	1.282433
C109	C	1.026116	-0.143598	0.703632
C110	C	1.526116	0.356402	1.203632
C111	C	1.089029	-0.096476	0.664235
C112	C	1.589029	0.403524	1.164235
H113	H	1.247116	0.129176	0.000024
H114	H	1.747116	0.629176	0.500024
Br115	Br	0.893573	0.246193	-0.000016
Br116	Br	1.393573	0.746193	0.499984
H117	H	0.933441	0.546444	-0.000032
H118	H	1.433441	1.046444	0.499968
H119	H	0.974827	-0.181953	0.185465
H120	H	1.474827	0.318047	0.685465
Br121	Br	0.940748	-0.207547	0.835905
Br122	Br	1.440748	0.292453	1.335905
H123	H	1.203162	-0.010984	0.671552
H124	H	1.703162	0.489016	1.171552
Br125	Br	0.938870	0.303408	0.103394
Br126	Br	1.438870	0.803408	0.603394
H127	H	0.942137	0.099522	-0.000004
H128	H	1.442137	0.599522	0.499996
Br129	Br	1.237274	0.014603	0.349812
Br130	Br	1.737274	0.514603	0.849812
H131	H	1.204552	0.480587	-0.079593
H132	H	1.704552	0.980587	0.420407
Br133	Br	1.289799	0.284719	0.000007
Br134	Br	1.789799	0.784719	0.500007
Br135	Br	1.237260	0.014602	0.164070
Br136	Br	1.737260	0.514602	0.664070
Br137	Br	1.118126	0.052596	0.407145
Br138	Br	1.618126	0.552596	0.907145
H139	H	1.207115	0.349146	-0.079579
H140	H	1.707115	0.849146	0.420421
H141	H	1.111433	0.018261	0.571494
H142	H	1.611433	0.518261	1.071494
H143	H	1.203162	-0.010980	0.814509
H144	H	1.703162	0.489020	1.314509
Br145	Br	0.884869	0.693110	-0.000051
Br146	Br	1.384869	1.193110	0.499949
H147	H	0.974891	-0.181967	0.671555
H148	H	1.474891	0.318033	1.171555
Br149	Br	1.059900	-0.245546	0.592821
Br150	Br	1.559900	0.254454	1.092821
Br151	Br	1.284428	0.560862	0.000002
Br152	Br	1.784428	1.060862	0.500002
H153	H	1.066568	-0.211211	0.428484
H154	H	1.566568	0.288789	0.928484
Br155	Br	0.940699	-0.207538	0.349815
Br156	Br	1.440699	0.292462	0.849815
H157	H	1.235856	0.707530	-0.000040
H158	H	1.735856	1.207530	0.499960
H159	H	0.970882	0.457903	0.079561
H160	H	1.470882	0.957903	0.579561
