data_functionalizedCrystal
_audit_creation_method	'MofGen! by Chris Wilmer'
_symmetry_space_group_name_H-M	'P1'
_symmetry_Int_Tables_number	1
_symmetry_cell_setting	triclinic
loop_
_symmetry_equiv_pos_as_xyz
  x,y,z
_cell_length_a	14.044220
_cell_length_b	16.974800
_cell_length_c	13.101032
_cell_angle_alpha	90.290548
_cell_angle_beta	93.665102
_cell_angle_gamma	88.279480
loop_
_atom_site_label
_atom_site_type_symbol
_atom_site_fract_x
_atom_site_fract_y
_atom_site_fract_z
O1	O	0.120886	1.057546	0.002518
O2	O	0.135124	0.829311	-0.016419
O3	O	-0.009991	0.940002	-0.007225
O4	O	0.266002	0.946855	-0.006677
O5	O	0.000432	0.932051	0.162545
O6	O	0.145547	0.821359	0.153351
O7	O	0.131309	1.049594	0.172288
Zn8	Zn	0.140083	0.934214	0.189774
Zn9	Zn	0.126350	0.944691	-0.033905
O10	O	0.276425	0.938903	0.163093
C11	C	0.139603	0.795950	0.066028
C12	C	0.137407	0.708389	0.058763
C13	C	0.142055	0.662923	0.147894
C14	C	0.139977	0.580651	0.141071
C15	C	0.133257	0.543847	0.045116
C16	C	0.128607	0.589319	-0.044022
C17	C	0.130678	0.671590	-0.037198
C18	C	0.126447	0.298259	0.014783
C19	C	0.124378	0.215983	0.007966
C20	C	0.135747	0.207320	0.193059
C21	C	0.137823	0.289593	0.199875
C22	C	0.133167	0.335058	0.110737
N23	N	0.131136	0.459752	0.038139
N24	N	0.135282	0.419152	0.117715
C25	C	-0.040105	0.933027	0.077412
C26	C	-0.145364	0.924081	0.076671
C27	C	-0.338088	0.907727	0.075299
C28	C	-0.395485	0.971176	0.080560
C29	C	-0.502723	0.962076	0.079797
C30	C	-0.230840	0.916825	0.076062
C31	C	0.306539	0.945878	0.078454
C32	C	0.411798	0.954825	0.079189
C33	C	0.126831	1.082956	0.089839
C34	C	0.129026	1.170517	0.097097
N35	N	0.149455	0.927070	0.342429
C36	C	0.104229	0.961554	0.605203
C37	C	0.162206	0.917356	0.550659
C38	C	0.155109	0.922762	0.434789
C39	C	0.111324	0.956149	0.721083
N40	N	0.116983	0.951838	0.813439
H41	H	0.143745	0.543637	0.213651
H42	H	0.126895	0.708608	-0.109778
F43	F	-0.379126	0.827798	0.068662
F44	F	-0.354447	1.051110	0.087200
F45	F	0.117229	0.176815	-0.094168
F46	F	0.144980	0.328756	0.302003
H47	H	0.122652	0.335268	-0.057799
F48	F	0.234052	0.862592	0.603365
H49	H	0.139536	0.170294	0.265630
F50	F	0.149212	0.702086	0.250023
F51	F	0.121426	0.550148	-0.146145
H52	H	0.049267	1.003451	0.564883
