data_functionalizedCrystal
_audit_creation_method	'MofGen! by Chris Wilmer'
_symmetry_space_group_name_H-M	'P1'
_symmetry_Int_Tables_number	1
_symmetry_cell_setting	triclinic
loop_
_symmetry_equiv_pos_as_xyz
  x,y,z
_cell_length_a	14.971482
_cell_length_b	14.971487
_cell_length_c	14.048226
_cell_angle_alpha	89.998057
_cell_angle_beta	90.004139
_cell_angle_gamma	96.386495
loop_
_atom_site_label
_atom_site_type_symbol
_atom_site_fract_x
_atom_site_fract_y
_atom_site_fract_z
O1	O	1.186948	-0.116544	0.079147
O2	O	1.686948	0.383456	0.579147
O3	O	0.926547	-0.130506	0.079151
O4	O	1.426547	0.369494	0.579151
O5	O	1.063726	0.006675	0.079144
O6	O	1.563726	0.506675	0.579144
O7	O	1.049768	-0.253725	0.079154
O8	O	1.549768	0.246275	0.579154
O9	O	1.063713	0.006674	-0.079177
O10	O	1.563713	0.506674	0.420823
O11	O	0.926534	-0.130508	-0.079170
O12	O	1.426534	0.369492	0.420830
O13	O	1.186935	-0.116545	-0.079175
O14	O	1.686935	0.383455	0.420825
Zn15	Zn	1.056732	-0.123527	-0.104309
Zn16	Zn	1.556732	0.376473	0.395691
Zn17	Zn	1.056749	-0.123525	0.104286
Zn18	Zn	1.556749	0.376475	0.604286
O19	O	1.049755	-0.253727	-0.079168
O20	O	1.549755	0.246273	0.420832
C21	C	0.893216	-0.129883	-0.000009
C22	C	1.393216	0.370117	0.499991
C23	C	0.793918	-0.128014	-0.000007
C24	C	1.293918	0.371986	0.499993
C25	C	0.747267	-0.127134	-0.086309
C26	C	1.247267	0.372866	0.413691
C27	C	0.653968	-0.125363	-0.086310
C28	C	1.153968	0.374637	0.413690
C29	C	0.607322	-0.124479	-0.000008
C30	C	1.107322	0.375521	0.499992
C31	C	0.653981	-0.125356	0.086300
C32	C	1.153981	0.374644	0.586300
C33	C	0.747279	-0.127120	0.086300
C34	C	1.247279	0.372880	0.586300
C35	C	0.459519	-0.121680	0.086294
C36	C	0.959519	0.378320	0.586294
C37	C	0.366215	-0.119918	0.086294
C38	C	0.866215	0.380082	0.586294
C39	C	0.366209	-0.119923	-0.086317
C40	C	0.866209	0.380077	0.413683
C41	C	0.459506	-0.121688	-0.086317
C42	C	0.959506	0.378312	0.413683
C43	C	0.506158	-0.122567	-0.000008
C44	C	1.006158	0.377433	0.499992
C45	C	1.063096	0.039999	-0.000015
C46	C	1.563096	0.539999	0.499985
C47	C	1.061225	0.139296	-0.000013
C48	C	1.561225	0.639296	0.499987
C49	C	1.141814	0.196522	-0.000014
C50	C	1.641814	0.696522	0.499986
C51	C	1.140050	0.289822	-0.000003
C52	C	1.640050	0.789822	0.499997
C53	C	1.057697	0.325893	0.000003
C54	C	1.557697	0.825893	0.500003
C55	C	0.977102	0.268659	0.000007
C56	C	1.477102	0.768659	0.500007
C57	C	0.978866	0.175362	0.000002
C58	C	1.478866	0.675362	0.500002
C59	C	0.973430	0.463122	0.000014
C60	C	1.473430	0.963122	0.500014
C61	C	0.971665	0.556426	0.000016
C62	C	1.471665	1.056426	0.500016
C63	C	1.134615	0.577582	0.000009
C64	C	1.634615	1.077582	0.500009
C65	C	1.136379	0.484284	0.000004
C66	C	1.636379	0.984284	0.500004
C67	C	1.055783	0.427057	0.000006
C68	C	1.555783	0.927057	0.500006
C69	C	1.220266	-0.117168	-0.000012
C70	C	1.720266	0.382832	0.499988
C71	C	1.319563	-0.119038	-0.000008
C72	C	1.819563	0.380962	0.499992
N73	N	1.056727	-0.123527	-0.246670
N74	N	1.556727	0.376473	0.253330
C75	C	1.050385	0.712949	-0.000001
C76	C	1.550385	1.212949	0.499999
C77	C	1.052255	0.613652	0.000015
C78	C	1.552255	1.113652	0.500015
C79	C	1.002459	-0.069178	-0.703538
C80	C	1.502459	0.430822	-0.203538
C81	C	1.002456	-0.069175	-0.603881
C82	C	1.502456	0.430825	-0.103881
C83	C	1.056751	-0.123517	-0.554040
C84	C	1.556751	0.376483	-0.054040
C85	C	1.111059	-0.177859	-0.603862
C86	C	1.611059	0.322141	-0.103862
C87	C	1.111067	-0.177857	-0.703518
C88	C	1.611067	0.322143	-0.203518
C89	C	1.111038	-0.177863	-0.396148
C90	C	1.611038	0.322137	0.103852
C91	C	1.111030	-0.177867	-0.296485
C92	C	1.611030	0.322133	0.203515
C93	C	1.002427	-0.069181	-0.296511
C94	C	1.502427	0.430819	0.203489
C95	C	1.002434	-0.069178	-0.396167
C96	C	1.502434	0.430822	0.103833
C97	C	1.056742	-0.123522	-0.445982
C98	C	1.556742	0.376478	0.054018
N99	N	1.056762	-0.123517	0.246647
N100	N	1.556762	0.376483	0.746647
H101	H	0.785238	-0.127862	-0.156587
H102	H	1.285238	0.372138	0.343413
H103	H	0.328238	-0.119198	0.156569
H104	H	0.828238	0.380802	0.656569
H105	H	1.203438	0.454918	-0.000007
H106	H	1.703438	0.954918	0.499993
H107	H	0.958218	-0.024932	-0.436744
H108	H	1.458218	0.475068	0.063256
H109	H	0.904606	0.585791	0.000006
H110	H	1.404606	1.085791	0.500006
H111	H	0.615991	-0.124632	-0.156586
H112	H	1.115991	0.375368	0.343414
O113	O	0.886504	0.401393	0.000007
O114	O	1.386504	0.901393	0.500007
H115	H	0.828941	0.442147	-0.000002
H116	H	1.328941	0.942147	0.499998
H117	H	0.958206	-0.024935	-0.255946
H118	H	1.458206	0.475065	0.244054
O119	O	0.509820	-0.122671	-0.179396
O120	O	1.009820	0.377329	0.320604
H121	H	0.461707	-0.121765	-0.239412
H122	H	0.961707	0.378235	0.260588
H123	H	0.615995	-0.124629	0.156569
H124	H	1.115995	0.375371	0.656569
H125	H	1.155264	-0.222113	-0.436704
H126	H	1.655264	0.277887	0.063296
O127	O	0.315896	-0.119009	-0.179412
O128	O	0.815896	0.380991	0.320588
H129	H	0.243183	-0.117636	-0.164917
H130	H	0.743183	0.382364	0.335083
H131	H	0.910048	0.298036	0.000017
H132	H	1.410048	0.798036	0.500017
O133	O	0.891946	0.113632	-0.000007
O134	O	1.391946	0.613632	0.499993
H135	H	0.834383	0.154387	-0.000013
H136	H	1.334383	0.654387	0.499987
O137	O	1.169601	-0.236465	-0.242722
O138	O	1.669601	0.263535	0.257278
H139	H	1.207379	-0.274240	-0.294101
H140	H	1.707379	0.225760	0.205899
O141	O	0.943915	-0.010547	-0.757295
O142	O	1.443915	0.489453	-0.257295
H143	H	0.906168	0.027251	-0.705908
H144	H	1.406168	0.527251	-0.205908
H145	H	1.155272	-0.222101	-0.563274
H146	H	1.655272	0.277899	-0.063274
H147	H	0.958239	-0.024924	-0.563326
H148	H	1.458239	0.475076	-0.063326
H149	H	1.200239	0.624181	0.000010
H150	H	1.700239	1.124181	0.500010
O151	O	1.169632	-0.236469	-0.757255
O152	O	1.669632	0.263531	-0.257255
H153	H	1.207379	-0.274265	-0.705857
H154	H	1.707379	0.225735	-0.205857
H155	H	0.497500	-0.122396	0.156576
H156	H	0.997500	0.377604	0.656576
O157	O	0.797602	-0.128075	0.179382
O158	O	1.297602	0.371925	0.679382
H159	H	0.749493	-0.127172	0.239394
H160	H	1.249493	0.372828	0.739394
O161	O	1.230638	0.157618	-0.000011
O162	O	1.730638	0.657618	0.499989
H163	H	1.286380	0.213089	0.000003
H164	H	1.786380	0.713089	0.500003
H165	H	1.205675	0.336412	-0.000006
H166	H	1.705675	0.836412	0.499994
