data_functionalizedCrystal
_audit_creation_method	'MofGen! by Chris Wilmer'
_symmetry_space_group_name_H-M	'P1'
_symmetry_Int_Tables_number	1
_symmetry_cell_setting	triclinic
loop_
_symmetry_equiv_pos_as_xyz
  x,y,z
_cell_length_a	16.109301
_cell_length_b	16.109301
_cell_length_c	7.540329
_cell_angle_alpha	89.996399
_cell_angle_beta	89.999760
_cell_angle_gamma	83.461532
loop_
_atom_site_label
_atom_site_type_symbol
_atom_site_fract_x
_atom_site_fract_y
_atom_site_fract_z
O1	O	1.103130	0.106866	-0.147370
O2	O	1.603130	0.606866	0.352630
O3	O	0.861068	0.120165	-0.147399
O4	O	1.361068	0.620165	0.352601
O5	O	0.988749	-0.007515	-0.147372
O6	O	1.488749	0.492485	0.352628
O7	O	0.975450	0.234547	-0.147397
O8	O	1.475450	0.734547	0.352603
O9	O	0.988741	-0.007517	0.147593
O10	O	1.488741	0.492483	0.647593
O11	O	0.861061	0.120164	0.147567
O12	O	1.361061	0.620164	0.647567
O13	O	1.103123	0.106864	0.147595
O14	O	1.603123	0.606864	0.647595
Cu15	Cu	0.982091	0.113514	0.174513
Cu16	Cu	1.482091	0.613514	0.674513
Cu17	Cu	0.982100	0.113516	-0.174317
Cu18	Cu	1.482100	0.613516	0.325683
O19	O	0.975442	0.234545	0.147568
O20	O	1.475442	0.734545	0.647568
C21	C	0.830090	0.119626	0.000080
C22	C	1.330090	0.619626	0.500080
C23	C	0.737794	0.118011	0.000070
C24	C	1.237794	0.618011	0.500070
C25	C	0.515522	0.190018	0.000083
C26	C	1.015522	0.690018	0.500083
C27	C	0.428802	0.188494	0.000095
C28	C	0.928802	0.688494	0.500095
C29	C	0.448676	0.037006	0.000103
C30	C	0.948676	0.537006	0.500103
C31	C	0.535395	0.038530	0.000104
C32	C	1.035395	0.538530	0.500104
C33	C	0.568815	0.115039	0.000085
C34	C	1.068815	0.615039	0.500085
C35	C	0.395376	0.111990	0.000096
C36	C	0.895376	0.611990	0.500096
C37	C	0.301350	0.110337	0.000108
C38	C	0.801350	0.610337	0.500108
C39	C	0.662847	0.116693	0.000076
C40	C	1.162847	0.616693	0.500076
C41	C	0.988206	-0.038491	0.000110
C42	C	1.488206	0.461509	0.500110
C43	C	0.986591	-0.130786	0.000107
C44	C	1.486591	0.369214	0.500107
C45	C	1.057074	-0.439785	0.000085
C46	C	1.557074	0.060215	0.500085
C47	C	1.058600	-0.353064	0.000095
C48	C	1.558600	0.146936	0.500095
C49	C	0.907111	-0.333191	0.000101
C50	C	1.407111	0.166809	0.500101
C51	C	0.905586	-0.419910	0.000103
C52	C	1.405586	0.080090	0.500103
C53	C	0.980571	-0.473205	0.000086
C54	C	1.480571	0.026795	0.500086
C55	C	0.983620	-0.299766	0.000094
C56	C	1.483620	0.200234	0.500094
C57	C	0.985274	-0.205740	0.000106
C58	C	1.485274	0.294260	0.500106
C59	C	0.978917	-0.567237	0.000078
C60	C	1.478917	-0.067237	0.500078
C61	C	1.134101	0.107404	0.000112
C62	C	1.634101	0.607404	0.500112
C63	C	1.226397	0.109019	0.000111
C64	C	1.726397	0.609019	0.500111
C65	C	0.975985	0.265521	0.000083
C66	C	1.475985	0.765521	0.500083
C67	C	0.977600	0.357816	0.000073
C68	C	1.477600	0.857816	0.500073
N69	N	0.982091	0.113512	0.419862
N70	N	1.482091	0.613512	0.919862
N71	N	0.982107	0.113511	-0.419666
N72	N	1.482107	0.613511	0.080334
H73	H	0.421454	-0.025285	0.000129
H74	H	0.921454	0.474715	0.500129
F75	F	0.592117	-0.041277	0.000118
F76	F	1.092117	0.458723	0.500118
F77	F	0.827312	-0.276464	0.000109
F78	F	1.327312	0.223536	0.500109
F79	F	0.372086	0.268297	0.000095
F80	F	0.872086	0.768297	0.500095
H81	H	1.118131	-0.483175	0.000071
H82	H	1.618131	0.016825	0.500071
H83	H	1.120896	-0.325859	0.000097
H84	H	1.620896	0.174141	0.500097
H85	H	0.542730	0.252317	0.000081
H86	H	1.042730	0.752317	0.500081
F87	F	0.824156	-0.455480	0.000114
F88	F	1.324156	0.044520	0.500114
