data_functionalizedCrystal
_audit_creation_method	'MofGen! by Chris Wilmer'
_symmetry_space_group_name_H-M	'P1'
_symmetry_Int_Tables_number	1
_symmetry_cell_setting	triclinic
loop_
_symmetry_equiv_pos_as_xyz
  x,y,z
_cell_length_a	16.109301
_cell_length_b	22.610064
_cell_length_c	16.109301
_cell_angle_alpha	90.005867
_cell_angle_beta	83.461481
_cell_angle_gamma	90.012563
loop_
_atom_site_label
_atom_site_type_symbol
_atom_site_fract_x
_atom_site_fract_y
_atom_site_fract_z
O1	O	1.103145	0.049149	0.106865
O2	O	0.861083	0.049159	0.120165
O3	O	0.988764	0.049148	-0.007516
O4	O	0.975464	0.049160	0.234546
O5	O	0.988726	-0.049222	-0.007516
O6	O	0.861046	-0.049211	0.120164
O7	O	1.103108	-0.049220	0.106865
Zn8	Zn	0.982071	-0.064834	0.113515
Zn9	Zn	0.982120	0.064772	0.113515
O10	O	0.975427	-0.049209	0.234546
C11	C	0.830090	-0.000025	0.119626
C12	C	0.737794	-0.000021	0.118011
C13	C	0.515522	-0.000024	0.190018
C14	C	0.428801	-0.000028	0.188494
C15	C	0.448676	-0.000034	0.037006
C16	C	0.535394	-0.000034	0.038530
C17	C	0.568815	-0.000026	0.115039
C18	C	0.395376	-0.000030	0.111990
C19	C	0.301350	-0.000034	0.110337
C20	C	0.662847	-0.000023	0.116693
N21	N	0.982043	-0.153286	0.113514
C22	C	1.032529	-0.561927	0.163947
C23	C	1.032540	-0.623847	0.163945
O24	O	1.075432	-0.655865	0.206820
N25	N	0.982136	-0.654823	0.113505
C26	C	0.931725	-0.623876	0.063058
O27	O	0.888854	-0.655910	0.020155
C28	C	0.931719	-0.561958	0.063056
C29	C	0.982120	-0.530984	0.113506
C30	C	1.082927	-0.530954	0.214392
C31	C	1.082915	-0.469038	0.214395
C32	C	1.032506	-0.438096	0.163953
C33	C	0.982108	-0.469069	0.113509
C34	C	0.881313	-0.531012	0.012605
C35	C	0.881313	-0.469089	0.012607
C36	C	0.931713	-0.438116	0.063057
C37	C	0.931687	-0.376211	0.063070
N38	N	0.982091	-0.345234	0.113510
C39	C	1.032500	-0.376177	0.163951
C40	C	0.931741	-0.753910	0.063065
C41	C	0.931741	-0.815828	0.063070
C42	C	1.032558	-0.815794	0.163956
C43	C	1.032552	-0.753875	0.163955
C44	C	0.982145	-0.722934	0.113504
C45	C	1.032471	-0.246149	0.163954
C46	C	1.032452	-0.184228	0.163955
C47	C	0.931640	-0.184268	0.063067
C48	C	0.931655	-0.246183	0.063068
C49	C	0.982077	-0.277123	0.113515
O50	O	0.888820	-0.344153	0.020215
O51	O	1.075372	-0.344136	0.206840
C52	C	1.134101	-0.000035	0.107404
C53	C	1.226397	-0.000035	0.109019
C54	C	0.988206	-0.000037	-0.038491
C55	C	0.986591	-0.000038	-0.130786
N56	N	0.982154	0.153225	0.113509
C57	C	1.058599	-0.000032	-0.353059
C58	C	1.057075	-0.000027	-0.439779
C59	C	0.905586	-0.000023	-0.419905
C60	C	0.907111	-0.000024	-0.333186
C61	C	0.983620	-0.000031	-0.299766
C62	C	0.980571	-0.000025	-0.473205
C63	C	0.978918	-0.000020	-0.567231
C64	C	0.985273	-0.000035	-0.205734
C65	C	0.975984	-0.000023	0.265521
C66	C	0.977600	-0.000018	0.357816
H67	H	1.073530	-0.271333	0.205032
O68	O	1.129833	-0.000002	-0.491666
C69	C	1.112086	-0.000011	-0.575374
H70	H	1.046789	0.018614	-0.578676
H71	H	1.115228	-0.047203	-0.600464
C72	C	1.256859	0.015691	-0.624404
C73	C	1.176663	0.038571	-0.628460
H74	H	1.296695	0.039488	-0.657152
H75	H	1.268816	0.015695	-0.568009
H76	H	1.259465	-0.023635	-0.645311
H77	H	1.174055	0.077893	-0.607544
H78	H	1.164707	0.038574	-0.684854
O79	O	1.081368	-0.154208	0.213082
C80	C	1.058294	-0.169331	0.297465
H81	H	1.026053	-0.214295	0.301018
H82	H	1.013681	-0.134491	0.328079
C83	C	1.176504	-0.116952	0.339125
C84	C	1.136912	-0.172179	0.343489
H85	H	1.224998	-0.118706	0.367516
H86	H	1.192049	-0.106761	0.282275
H87	H	1.139318	-0.087924	0.364635
H88	H	1.174094	-0.201204	0.317970
H89	H	1.121375	-0.182375	0.400336
H90	H	0.542730	-0.000023	0.252317
H91	H	0.578788	-0.000037	-0.022530
H92	H	1.123960	-0.443825	0.255472
O93	O	0.831249	0.000085	-0.452333
C94	C	0.785551	0.051025	-0.425077
H95	H	0.830299	0.086632	-0.407048
H96	H	0.739203	0.039507	-0.368547
C97	C	0.682832	0.030392	-0.518166
C98	C	0.737794	0.074128	-0.496029
H99	H	0.653370	0.044642	-0.561930
H100	H	0.713618	-0.003929	-0.536527
H101	H	0.644217	0.020798	-0.471051
H102	H	0.776415	0.083715	-0.543140
H103	H	0.707014	0.108450	-0.477677
O104	O	0.416071	-0.000010	-0.037239
C105	C	0.328102	-0.000023	-0.022509
H106	H	0.307724	0.018603	0.042379
H107	H	0.303948	-0.047215	-0.026535
C108	C	0.317195	0.015678	-0.168329
C109	C	0.292166	0.038559	-0.088635
H110	H	0.295026	0.039474	-0.209120
H111	H	0.376461	0.015684	-0.178254
H112	H	0.297064	-0.023648	-0.171672
H113	H	0.312305	0.077881	-0.085290
H114	H	0.232902	0.038560	-0.078711
H115	H	0.846050	-0.000021	-0.289792
H116	H	1.123980	-0.556140	0.255467
O117	O	1.081592	-0.723882	0.212979
C118	C	1.126063	-0.764478	0.257515
H119	H	1.130924	-0.808617	0.223096
H120	H	1.091791	-0.771064	0.322765
C121	C	1.208400	-0.686089	0.306788
C122	C	1.214376	-0.740300	0.264511
H123	H	1.262875	-0.671174	0.311108
H124	H	1.178438	-0.658738	0.276786
H125	H	1.179837	-0.691585	0.361159
H126	H	1.242930	-0.734802	0.210138
H127	H	1.244346	-0.767649	0.294504
O128	O	0.882753	-0.845821	0.013995
C129	C	0.838244	-0.805227	-0.030506
H130	H	0.872657	-0.761082	-0.035341
H131	H	0.772976	-0.798654	0.003726
C132	C	0.789039	-0.883614	-0.112887
C133	C	0.831309	-0.829396	-0.118832
H134	H	0.784757	-0.898523	-0.167369
H135	H	0.819022	-0.910963	-0.082904
H136	H	0.734652	-0.878129	-0.084356
H137	H	0.885697	-0.834883	-0.147352
H138	H	0.801334	-0.802047	-0.148821
H139	H	0.385413	-0.000028	0.249550
H140	H	1.073603	-0.840998	0.205030
H141	H	0.890685	-0.728721	0.021985
O142	O	0.832264	-0.561118	-0.036282
C143	C	0.775527	-0.596957	0.014376
H144	H	0.766565	-0.578302	0.080536
H145	H	0.801218	-0.643880	0.015781
C146	C	0.701959	-0.620833	-0.102817
C147	C	0.690947	-0.597918	-0.021560
H148	H	0.649787	-0.621429	-0.124985
H149	H	0.740186	-0.596690	-0.136948
H150	H	0.723371	-0.659934	-0.101635
H151	H	0.669546	-0.558816	-0.022744
H152	H	0.652715	-0.622055	0.012570
H153	H	0.840264	-0.443900	-0.028477
H154	H	0.890604	-0.271403	0.021999
H155	H	1.120897	-0.000036	-0.325851
O156	O	0.882757	-0.154112	0.014087
C157	C	0.893551	-0.092821	0.024924
H158	H	0.956505	-0.084356	0.048660
H159	H	0.841385	-0.075254	0.072265
C160	C	0.813446	-0.071432	-0.088406
C161	C	0.890771	-0.061034	-0.059260
H162	H	0.811728	-0.051823	-0.140333
H163	H	0.806171	-0.112725	-0.095706
H164	H	0.769983	-0.056792	-0.048948
H165	H	0.934232	-0.075680	-0.098713
H166	H	0.898053	-0.019743	-0.051969
