data_functionalizedCrystal
_audit_creation_method	'MofGen! by Chris Wilmer'
_symmetry_space_group_name_H-M	'P1'
_symmetry_Int_Tables_number	1
_symmetry_cell_setting	triclinic
loop_
_symmetry_equiv_pos_as_xyz
  x,y,z
_cell_length_a	17.699104
_cell_length_b	22.010155
_cell_length_c	17.699083
_cell_angle_alpha	90.003354
_cell_angle_beta	96.712734
_cell_angle_gamma	90.009332
loop_
_atom_site_label
_atom_site_type_symbol
_atom_site_fract_x
_atom_site_fract_y
_atom_site_fract_z
O1	O	1.004071	0.050539	-0.095776
O2	O	1.504071	0.550539	0.404224
O3	O	0.783695	0.050537	-0.108212
O4	O	1.283695	0.550537	0.391788
O5	O	0.900109	0.050533	0.008195
O6	O	1.400109	0.550533	0.508195
O7	O	0.887657	0.050543	-0.212182
O8	O	1.387657	0.550543	0.287818
O9	O	0.900088	-0.050518	0.008178
O10	O	1.400088	0.449482	0.508178
O11	O	0.783674	-0.050513	-0.108229
O12	O	1.283674	0.449487	0.391771
O13	O	1.004050	-0.050512	-0.095793
O14	O	1.504050	0.449488	0.404207
Cu15	Cu	0.893860	-0.059739	-0.102013
Cu16	Cu	1.393860	0.440261	0.397987
Cu17	Cu	0.893885	0.059765	-0.101992
Cu18	Cu	1.393885	0.559765	0.398008
O19	O	0.887636	-0.050507	-0.212200
O20	O	1.387636	0.449493	0.287800
C21	C	0.755488	0.000012	-0.107772
C22	C	1.255488	0.500012	0.392228
C23	C	0.671471	0.000011	-0.106427
C24	C	1.171471	0.500011	0.393573
C25	C	0.146600	0.000021	-0.167171
C26	C	0.646600	0.500021	0.332829
C27	C	0.225543	0.000022	-0.168430
C28	C	0.725543	0.500022	0.331570
C29	C	0.274161	0.000019	-0.100095
C30	C	0.774161	0.500019	0.399905
C31	C	0.243831	0.000020	-0.030496
C32	C	0.743831	0.500020	0.469504
C33	C	0.164889	0.000022	-0.029238
C34	C	0.664889	0.500022	0.470762
C35	C	0.562197	0.000010	-0.035569
C36	C	1.062197	0.500010	0.464431
C37	C	0.641144	0.000006	-0.036833
C38	C	1.141144	0.500006	0.463167
C39	C	0.622852	0.000010	-0.174762
C40	C	1.122852	0.500010	0.325238
C41	C	0.543909	0.000013	-0.173503
C42	C	1.043909	0.500013	0.326497
C43	C	0.513587	0.000017	-0.103905
C44	C	1.013587	0.500017	0.396095
C45	C	0.427987	0.000016	-0.102541
C46	C	0.927987	0.500016	0.397459
C47	C	0.359759	0.000015	-0.101459
C48	C	0.859759	0.500015	0.398541
N49	N	0.893848	-0.143792	-0.102027
N50	N	1.393848	0.356208	0.397973
C51	C	0.945436	-0.563573	-0.050455
C52	C	1.445436	-0.063573	0.449545
C53	C	0.945440	-0.627181	-0.050449
C54	C	1.445440	-0.127181	0.449551
O55	O	0.989272	-0.660074	-0.006610
O56	O	1.489272	-0.160074	0.493390
N57	N	0.893885	-0.658999	-0.101976
N58	N	1.393885	-0.158999	0.398024
C59	C	0.842318	-0.627206	-0.153507
C60	C	1.342318	-0.127206	0.346493
O61	O	0.798466	-0.660110	-0.197333
O62	O	1.298466	-0.160110	0.302667
C63	C	0.842311	-0.563599	-0.153508
C64	C	1.342311	-0.063599	0.346492
C65	C	0.893875	-0.531785	-0.101982
C66	C	1.393875	-0.031785	0.398018
C67	C	0.996995	-0.531758	0.001067
C68	C	1.496995	-0.031758	0.501067
C69	C	0.996993	-0.468155	0.001061
C70	C	1.496993	0.031845	0.501061
C71	C	0.945431	-0.436367	-0.050467
C72	C	1.445431	0.063633	0.449533
C73	C	0.893872	-0.468181	-0.101989
C74	C	1.393872	0.031819	0.398011
C75	C	0.790741	-0.531808	-0.205034
C76	C	1.290741	-0.031808	0.294966
C77	C	0.790738	-0.468197	-0.205030
C78	C	1.290738	0.031803	0.294970
C79	C	0.842302	-0.436382	-0.153505
C80	C	1.342302	0.063618	0.346495
C81	C	0.842308	-0.372790	-0.153523
C82	C	1.342308	0.127210	0.346477
N83	N	0.893863	-0.340972	-0.101996
N84	N	1.393863	0.159028	0.398004
C85	C	0.945424	-0.372760	-0.050468
C86	C	1.445424	0.127240	0.449532
C87	C	0.842334	-0.760784	-0.153500
C88	C	1.342334	-0.260784	0.346500
C89	C	0.842344	-0.824389	-0.153503
C90	C	1.342344	-0.324389	0.346497
C91	C	0.945466	-0.824359	-0.050445
C92	C	1.445466	-0.324359	0.449555
C93	C	0.945459	-0.760753	-0.050446
C94	C	1.445459	-0.260753	0.449554
C95	C	0.893890	-0.728966	-0.101973
C96	C	1.393890	-0.228966	0.398027
C97	C	0.945415	-0.239189	-0.050486
C98	C	1.445415	0.260811	0.449514
C99	C	0.945410	-0.175580	-0.050499
C100	C	1.445410	0.324420	0.449501
C101	C	0.842286	-0.175615	-0.153554
C102	C	1.342286	0.324385	0.346446
C103	C	0.842294	-0.239218	-0.153544
C104	C	1.342294	0.260782	0.346456
C105	C	0.893861	-0.271004	-0.102004
C106	C	1.393861	0.228996	0.397996
O107	O	0.798496	-0.339856	-0.197337
O108	O	1.298496	0.160144	0.302663
O109	O	0.989262	-0.339848	-0.006642
O110	O	1.489262	0.160152	0.493358
C111	C	1.032258	0.000015	-0.096233
C112	C	1.532258	0.500015	0.403767
C113	C	1.116275	0.000020	-0.097578
C114	C	1.616275	0.500020	0.402422
C115	C	0.899653	0.000007	0.036383
C116	C	1.399653	0.500007	0.536383
C117	C	0.898314	0.000007	0.120402
C118	C	1.398314	0.500007	0.620402
N119	N	0.893903	0.143817	-0.101972
N120	N	1.393903	0.643817	0.398028
C121	C	0.888093	0.000020	-0.240388
C122	C	1.388093	0.500020	0.259612
C123	C	0.889431	0.000024	-0.324406
C124	C	1.389431	0.500024	0.175594
C125	C	0.966647	0.000007	0.169017
C126	C	1.466647	0.500007	0.669017
C127	C	0.965385	0.000012	0.247961
C128	C	1.465385	0.500012	0.747961
C129	C	0.895789	0.000014	0.278287
C130	C	1.395789	0.500014	0.778287
C131	C	0.827451	0.000016	0.229665
C132	C	1.327451	0.500016	0.729665
C133	C	0.828714	0.000015	0.150723
C134	C	1.328714	0.500015	0.650723
C135	C	0.822356	0.000021	0.548028
C136	C	1.322356	0.500021	1.048028
C137	C	0.821098	0.000020	0.626976
C138	C	1.321098	0.500020	1.126976
C139	C	0.959026	0.000018	0.645266
C140	C	1.459026	0.500018	1.145266
C141	C	0.960289	0.000017	0.566324
C142	C	1.460289	0.500017	1.066324
C143	C	0.891952	0.000022	0.517709
C144	C	1.391952	0.500022	1.017709
C145	C	0.893321	0.000018	0.432110
C146	C	1.393321	0.500018	0.932110
C147	C	0.894419	0.000014	0.363885
C148	C	1.394419	0.500014	0.863885
H149	H	0.283422	0.000021	0.025143
H150	H	0.783422	0.500021	0.525143
H151	H	0.748753	-0.557702	-0.246990
H152	H	1.248753	-0.057702	0.253010
H153	H	1.014670	0.000017	0.684858
H154	H	1.514670	0.500017	1.184858
H155	H	1.023320	0.000002	0.144333
H156	H	1.523320	0.500002	0.644333
H157	H	0.987446	-0.734853	-0.008489
H158	H	1.487446	-0.234853	0.491511
Cl159	Cl	0.777504	-0.720828	-0.218290
Cl160	Cl	1.277504	-0.220828	0.281710
Cl161	Cl	0.660977	0.000010	-0.262258
Cl162	Cl	1.160977	0.500010	0.237742
H163	H	0.773070	0.000015	0.111140
H164	H	1.273070	0.500015	0.611140
H165	H	0.800307	-0.149723	-0.195510
H166	H	1.300307	0.350277	0.304490
H167	H	1.038983	-0.557635	0.043031
H168	H	1.538983	-0.057635	0.543031
H169	H	0.680728	0.000005	0.018817
H170	H	1.180728	0.500005	0.518817
Cl171	Cl	0.725902	-0.428240	-0.269811
Cl172	Cl	1.225902	0.071760	0.230189
H173	H	0.504328	0.000013	-0.229149
H174	H	1.004328	0.500013	0.270851
Cl175	Cl	0.524087	0.000030	0.051926
Cl176	Cl	1.024087	0.500030	0.551926
Cl177	Cl	0.126766	0.000021	0.058255
Cl178	Cl	0.626766	0.500021	0.558255
Cl179	Cl	1.010239	-0.135588	0.014279
Cl180	Cl	1.510239	0.364412	0.514279
H181	H	0.107020	0.000019	-0.222818
H182	H	0.607020	0.500019	0.277182
Cl183	Cl	1.010245	-0.279137	0.014308
Cl184	Cl	1.510245	0.220863	0.514308
H185	H	0.250230	0.000029	-0.225100
H186	H	0.750230	0.500029	0.274900
H187	H	0.800313	-0.265122	-0.195508
H188	H	1.300313	0.234878	0.304492
Cl189	Cl	0.733599	0.000023	0.665099
Cl190	Cl	1.233599	0.500023	1.165099
Cl191	Cl	1.051293	0.000010	0.309075
Cl192	Cl	1.551293	0.500010	0.809075
H193	H	1.038978	-0.442255	0.043019
H194	H	1.538978	0.057745	0.543019
H195	H	1.016961	0.000013	0.541638
H196	H	1.516961	0.500013	1.041638
Cl197	Cl	0.736445	0.000029	0.486922
Cl198	Cl	1.236445	0.500029	0.986922
Cl199	Cl	1.010284	-0.864335	0.014335
Cl200	Cl	1.510284	-0.364335	0.514335
H201	H	0.800364	-0.850288	-0.195467
H202	H	1.300364	-0.350288	0.304533
Cl203	Cl	0.739958	0.000025	0.267789
Cl204	Cl	1.239958	0.500025	0.767789
