data_functionalizedCrystal
_audit_creation_method	'MofGen! by Chris Wilmer'
_symmetry_space_group_name_H-M	'P1'
_symmetry_Int_Tables_number	1
_symmetry_cell_setting	triclinic
loop_
_symmetry_equiv_pos_as_xyz
  x,y,z
_cell_length_a	10.540539
_cell_length_b	10.540535
_cell_length_c	9.798715
_cell_angle_alpha	90.001310
_cell_angle_beta	89.998989
_cell_angle_gamma	95.475433
loop_
_atom_site_label
_atom_site_type_symbol
_atom_site_fract_x
_atom_site_fract_y
_atom_site_fract_z
O1	O	0.178870	-1.685889	-0.113409
O2	O	0.195732	-1.316476	-0.113428
O3	O	0.002595	-1.509610	-0.113416
O4	O	0.372008	-1.492755	-0.113421
O5	O	0.002594	-1.509596	0.113566
O6	O	0.195732	-1.316461	0.113554
O7	O	0.178870	-1.685875	0.113573
Zn8	Zn	0.187301	-1.501166	0.149602
Zn9	Zn	0.187301	-1.501185	-0.149457
O10	O	0.372007	-1.492740	0.113561
C11	C	-0.044709	-1.508339	0.000072
C12	C	-0.185657	-1.504557	0.000065
C13	C	0.194469	-1.269165	0.000061
C14	C	0.190689	-1.128217	0.000054
C15	C	0.180133	-1.733185	0.000081
C16	C	0.183913	-1.874134	0.000079
C17	C	-0.369081	-1.359640	-0.000452
C18	C	-0.222463	-1.363474	0.000059
C19	C	-0.247316	-1.572445	0.129686
C20	C	-0.393860	-1.567630	0.129795
C21	C	-0.394378	-1.570516	-0.128326
C22	C	-0.247396	-1.571815	-0.130040
C23	C	0.419311	-1.494011	0.000070
C24	C	0.560259	-1.497793	0.000069
N25	N	0.187299	-1.501162	0.353702
C26	C	0.049675	-1.091546	0.000061
C27	C	0.045698	-0.944946	0.000589
C28	C	0.255059	-0.918873	0.129435
C29	C	0.258060	-1.065638	0.129530
C30	C	0.260112	-1.065539	-0.128600
C31	C	0.253590	-0.919192	-0.130287
N32	N	0.187293	-1.501199	-0.353557
C33	C	0.105849	-1.582254	0.421483
C34	C	0.105844	-1.582274	0.578646
H35	H	-0.179859	-1.310056	-0.092859
H36	H	0.361434	-1.088669	0.135056
H37	H	-0.009943	-0.915614	-0.092119
H38	H	0.036113	-1.651661	0.363165
H39	H	-0.224963	-1.676052	0.134510
F40	F	0.014701	-1.673028	0.654831
H41	H	0.257034	-1.431773	0.588163
H42	H	-0.441830	-1.669095	0.135680
F43	F	0.278438	-1.410428	0.429925
H44	H	-0.003569	-1.134998	0.092689
F45	F	-0.408991	-1.286893	0.120026
F46	F	-0.406458	-1.286798	-0.121951
F47	F	-0.191639	-1.510791	0.255763
F48	F	0.202597	-1.121041	-0.256801
F49	F	0.395735	-1.094490	-0.130209
F50	F	-0.167878	-1.293144	0.121702
H51	H	-0.004475	-1.133521	-0.092689
H52	H	0.354464	-0.870144	-0.138501
F53	F	-0.435604	-1.510832	-0.256740
F54	F	-0.430721	-1.502031	0.256433
H55	H	0.210011	-1.105803	0.226597
F56	F	-0.193395	-1.507399	-0.255394
H57	H	-0.223176	-1.674676	-0.137862
F58	F	0.185896	-0.881850	-0.255375
F59	F	-0.456108	-1.703710	-0.129462
F60	F	-0.026652	-0.907740	0.122523
H61	H	0.356825	-0.871516	0.133879
H62	H	0.206247	-0.887965	0.226074
