data_functionalizedCrystal
_audit_creation_method	'MofGen! by Chris Wilmer'
_symmetry_space_group_name_H-M	'P1'
_symmetry_Int_Tables_number	1
_symmetry_cell_setting	triclinic
loop_
_symmetry_equiv_pos_as_xyz
  x,y,z
_cell_length_a	12.645330
_cell_length_b	12.759401
_cell_length_c	12.645323
_cell_angle_alpha	89.980706
_cell_angle_beta	89.975130
_cell_angle_gamma	90.017853
loop_
_atom_site_label
_atom_site_type_symbol
_atom_site_fract_x
_atom_site_fract_y
_atom_site_fract_z
Zn1	Zn	-0.422026	1.606242	-0.599351
Zn2	Zn	-0.599314	1.606125	-0.422091
Zn3	Zn	-0.422066	1.430541	-0.422105
Zn4	Zn	-0.599249	1.430523	-0.599317
O5	O	-0.510664	1.518358	-0.510716
O6	O	-0.445555	1.753247	-0.575845
O7	O	-0.575846	1.582792	-0.273745
O8	O	-0.273713	1.453905	-0.445638
O9	O	-0.575808	1.753161	-0.445613
O10	O	-0.273684	1.582991	-0.575859
O11	O	-0.445622	1.453791	-0.273756
O12	O	-0.445559	1.283518	-0.445605
O13	O	-0.575696	1.453874	-0.747668
O14	O	-0.575734	1.283505	-0.575801
O15	O	-0.445491	1.582974	-0.747693
O16	O	-0.747653	1.582774	-0.445580
O17	O	-0.747605	1.453760	-0.575787
C18	C	-0.510644	1.245390	-0.510701
C19	C	-0.510662	1.128614	-0.510720
C20	C	-0.578552	1.073772	-0.578401
C21	C	-0.578566	0.964048	-0.578413
C22	C	-0.442795	0.964017	-0.443053
C23	C	-0.442777	1.073739	-0.443048
C24	C	-0.646437	1.128647	-0.646074
C25	C	-0.714335	1.073806	-0.713760
C26	C	-0.714348	0.964082	-0.713771
C27	C	-0.646464	0.909199	-0.646097
C28	C	-0.786094	1.518281	-0.510701
C29	C	-0.903924	1.518344	-0.510730
C30	C	-1.071501	1.437517	-0.592896
C31	C	-0.948942	1.437103	-0.592632
C32	C	-0.948518	1.488369	-0.399010
C33	C	-1.071116	1.487876	-0.399509
C34	C	-1.071013	1.629641	-0.539378
C35	C	-0.948406	1.628960	-0.541821
C36	C	-0.234159	1.518463	-0.510754
C37	C	-0.116329	1.518508	-0.510770
C38	C	-0.510582	1.518435	-0.787221
C39	C	-0.510547	1.518468	-0.905051
C40	C	-0.510684	1.792391	-0.510731
C41	C	-0.510693	1.909168	-0.510737
C42	C	-0.592073	1.437001	-1.072600
C43	C	-0.592476	1.437214	-0.950040
C44	C	-0.540865	1.629169	-0.949565
C45	C	-0.541376	1.628722	-1.072163
C46	C	-0.398247	1.490281	-1.072251
C47	C	-0.398920	1.487811	-0.949645
C48	C	-0.510669	1.518341	-0.235286
C49	C	-0.510405	1.518512	-0.117457
H50	H	-0.769596	1.118498	-0.768864
H51	H	-0.484476	1.691513	-1.101838
H52	H	-0.769626	0.919433	-0.768892
C53	C	-0.368134	0.903642	-0.368611
N54	N	-0.311902	0.858167	-0.312536
H55	H	-0.919359	1.545490	-0.336148
C56	C	-0.463055	1.713419	-0.910194
N57	N	-0.404448	1.776875	-0.880537
C58	C	-0.907003	1.714775	-0.466894
N59	N	-0.875820	1.779409	-0.410448
H60	H	-1.100913	1.456099	-0.676008
H61	H	-0.376056	1.406345	-0.920550
H62	H	-0.623366	1.652651	-1.100772
H63	H	-0.573283	1.354669	-1.102078
H64	H	-1.100001	1.689982	-0.479563
C65	C	-0.566842	1.326316	-0.909377
N66	N	-0.547539	1.242783	-0.878756
C67	C	-1.111185	1.564099	-0.314016
N68	N	-1.141359	1.621502	-0.249618
H69	H	-0.917907	1.407977	-0.374336
H70	H	-0.646472	0.819854	-0.646121
H71	H	-1.101856	1.656985	-0.619460
C72	C	-0.703704	1.461941	-1.114217
N73	N	-0.787786	1.480734	-1.145558
H74	H	-0.334857	1.542842	-0.919020
H75	H	-0.675624	1.455851	-0.920725
H76	H	-0.337402	1.549649	-1.101261
H77	H	-0.621996	1.653508	-0.918874
C78	C	-0.908980	1.659525	-0.652875
N79	N	-0.879264	1.682552	-0.736514
H80	H	-0.370611	1.410963	-1.103160
H81	H	-0.387486	1.118392	-0.387944
H82	H	-0.918788	1.455858	-0.675472
H83	H	-0.646436	1.217990	-0.646070
C84	C	-0.909443	1.325781	-0.567105
N85	N	-0.879693	1.241922	-0.547904
C86	C	-1.109880	1.378124	-0.366774
N87	N	-1.139071	1.295454	-0.342122
C88	C	-1.113232	1.326904	-0.567612
N89	N	-1.144662	1.243590	-0.548561
