data_functionalizedCrystal
_audit_creation_method	'MofGen! by Chris Wilmer'
_symmetry_space_group_name_H-M	'P1'
_symmetry_Int_Tables_number	1
_symmetry_cell_setting	triclinic
loop_
_symmetry_equiv_pos_as_xyz
  x,y,z
_cell_length_a	12.759401
_cell_length_b	19.121063
_cell_length_c	12.759393
_cell_angle_alpha	87.595965
_cell_angle_beta	90.019676
_cell_angle_gamma	92.469288
loop_
_atom_site_label
_atom_site_type_symbol
_atom_site_fract_x
_atom_site_fract_y
_atom_site_fract_z
Zn1	Zn	1.588332	-0.279571	0.611775
Zn2	Zn	1.580688	-0.397038	0.443570
Zn3	Zn	1.412629	-0.279606	0.436116
Zn4	Zn	1.405091	-0.396986	0.619208
O5	O	1.496685	-0.338300	0.527667
O6	O	1.734339	-0.295160	0.589471
O7	O	1.558350	-0.381496	0.295562
O8	O	1.442290	-0.181317	0.453188
O9	O	1.728723	-0.381462	0.465891
O10	O	1.571379	-0.181291	0.582243
O11	O	1.434878	-0.295220	0.290086
O12	O	1.264608	-0.295170	0.460395
O13	O	1.429443	-0.381375	0.765241
O14	O	1.259070	-0.381409	0.594911
O15	O	1.564070	-0.295110	0.759780
O16	O	1.551041	-0.495315	0.473099
O17	O	1.422031	-0.495277	0.602139
C18	C	1.223719	-0.338288	0.527652
C19	C	1.106941	-0.338300	0.527671
C20	C	1.054999	-0.293444	0.592128
C21	C	0.945274	-0.293451	0.592135
C22	C	0.939444	-0.383177	0.463227
C23	C	1.049166	-0.383165	0.463214
C24	C	1.484917	-0.520780	0.539257
C25	C	1.479979	-0.598846	0.544251
C26	C	1.544880	-0.635518	0.479468
C27	C	1.540241	-0.708869	0.484170
C28	C	1.470696	-0.745547	0.553651
C29	C	1.405792	-0.708870	0.618441
C30	C	1.410437	-0.635520	0.613743
C31	C	1.453315	-0.967015	0.571199
C32	C	1.448673	-1.040370	0.575889
C33	C	1.583125	-1.040364	0.441620
C34	C	1.587758	-0.967013	0.436923
C35	C	1.522858	-0.930343	0.501717
C36	C	1.465951	-0.820523	0.558457
C37	C	1.527610	-0.855367	0.496916
C38	C	1.770718	-0.338313	0.527684
C39	C	1.887494	-0.338318	0.527690
C40	C	1.496768	-0.338233	0.801696
C41	C	1.496803	-0.338204	0.918471
C42	C	1.508528	-0.155108	0.516055
C43	C	1.513575	-0.077042	0.511107
C44	C	1.496666	-0.338317	0.254701
C45	C	1.496847	-0.338148	0.137914
C46	C	1.566909	-0.293279	0.970491
C47	C	1.566929	-0.293249	1.080213
C48	C	1.426734	-0.383075	1.085887
C49	C	1.426710	-0.383101	0.976166
H50	H	1.091459	-0.419694	0.410720
H51	H	1.369614	-0.419684	0.933811
H52	H	1.584237	-0.825502	0.440348
C53	C	1.118548	-0.244084	0.663022
N54	N	1.166410	-0.206903	0.716418
C55	C	1.621383	-0.595179	0.403030
N56	N	1.679011	-0.564797	0.345458
H57	H	0.902988	-0.256923	0.644620
C58	C	0.875881	-0.432531	0.392335
N59	N	0.828007	-0.469707	0.338941
H60	H	1.593090	-0.738724	0.431416
C61	C	1.654513	-1.080708	0.370355
N62	N	1.708287	-1.111094	0.316677
H63	H	1.644387	-0.937151	0.380347
C64	C	1.372172	-1.080714	0.652334
N65	N	1.314554	-1.111102	0.709909
C66	C	1.381976	-0.926687	0.642528
N67	N	1.328260	-0.896310	0.696277
H68	H	1.349172	-0.738739	0.675018
C69	C	1.339041	-0.595182	0.685010
N70	N	1.285266	-0.564799	0.738693
H71	H	1.409325	-0.850394	0.615026
C72	C	1.349634	-0.432457	1.149361
N73	N	1.291559	-0.469653	1.197169
H74	H	1.623981	-0.256719	0.923519
C75	C	1.644053	-0.243829	1.137430
N76	N	1.702146	-0.206604	1.180525
