data_functionalizedCrystal
_audit_creation_method	'MofGen! by Chris Wilmer'
_symmetry_space_group_name_H-M	'P1'
_symmetry_Int_Tables_number	1
_symmetry_cell_setting	triclinic
loop_
_symmetry_equiv_pos_as_xyz
  x,y,z
_cell_length_a	18.101397
_cell_length_b	18.101398
_cell_length_c	18.101389
_cell_angle_alpha	89.991407
_cell_angle_beta	90.018351
_cell_angle_gamma	89.985428
loop_
_atom_site_label
_atom_site_type_symbol
_atom_site_fract_x
_atom_site_fract_y
_atom_site_fract_z
Zn1	Zn	-0.295010	-1.132179	0.418528
Zn2	Zn	-0.045010	-0.882179	0.668528
Zn3	Zn	0.204990	-0.632179	0.918528
Zn4	Zn	0.454990	-0.382179	1.168528
Zn5	Zn	-0.418836	-1.132100	0.294687
Zn6	Zn	-0.168836	-0.882100	0.544687
Zn7	Zn	0.081164	-0.632100	0.794687
Zn8	Zn	0.331164	-0.382100	1.044687
Zn9	Zn	-0.295001	-1.008338	0.294723
Zn10	Zn	-0.045001	-0.758338	0.544723
Zn11	Zn	0.204999	-0.508338	0.794723
Zn12	Zn	0.454999	-0.258338	1.044723
Zn13	Zn	-0.418803	-1.008313	0.418509
Zn14	Zn	-0.168803	-0.758313	0.668509
Zn15	Zn	0.081197	-0.508313	0.918509
Zn16	Zn	0.331197	-0.258313	1.168509
O17	O	-0.356912	-1.070233	0.356612
O18	O	-0.106912	-0.820233	0.606612
O19	O	0.143088	-0.570233	0.856612
O20	O	0.393088	-0.320233	1.106612
O21	O	-0.311453	-1.235802	0.402093
O22	O	-0.061453	-0.985802	0.652093
O23	O	0.188547	-0.735802	0.902093
O24	O	0.438547	-0.485802	1.152093
O25	O	-0.402419	-1.115659	0.191059
O26	O	-0.152419	-0.865659	0.441059
O27	O	0.097581	-0.615659	0.691059
O28	O	0.347581	-0.365659	0.941059
O29	O	-0.191369	-1.024810	0.311169
O30	O	0.058631	-0.774810	0.561169
O31	O	0.308631	-0.524810	0.811169
O32	O	0.558631	-0.274810	1.061169
O33	O	-0.402427	-1.235743	0.311107
O34	O	-0.152427	-0.985743	0.561107
O35	O	0.097573	-0.735743	0.811107
O36	O	0.347573	-0.485743	1.061107
O37	O	-0.191376	-1.115795	0.402128
O38	O	0.058624	-0.865795	0.652128
O39	O	0.308624	-0.615795	0.902128
O40	O	0.558624	-0.365795	1.152128
O41	O	-0.311438	-1.024732	0.191086
O42	O	-0.061438	-0.774732	0.441086
O43	O	0.188562	-0.524732	0.691086
O44	O	0.438562	-0.274732	0.941086
O45	O	-0.311406	-0.904702	0.311151
O46	O	-0.061406	-0.654702	0.561151
O47	O	0.188594	-0.404702	0.811151
O48	O	0.438594	-0.154702	1.061151
O49	O	-0.402371	-1.024767	0.522145
O50	O	-0.152371	-0.774767	0.772145
O51	O	0.097629	-0.524767	1.022145
O52	O	0.347629	-0.274767	1.272145
O53	O	-0.402363	-0.904684	0.402096
O54	O	-0.152363	-0.654684	0.652096
O55	O	0.097637	-0.404684	0.902096
O56	O	0.347637	-0.154684	1.152096
O57	O	-0.311421	-1.115771	0.522159
O58	O	-0.061421	-0.865771	0.772159
O59	O	0.188579	-0.615771	1.022159
O60	O	0.438579	-0.365771	1.272159
O61	O	-0.522464	-1.115635	0.311089
O62	O	-0.272464	-0.865635	0.561089
O63	O	-0.022464	-0.615635	0.811089
O64	O	0.227536	-0.365635	1.061089
O65	O	-0.522440	-1.024690	0.402061
O66	O	-0.272440	-0.774690	0.652061
O67	O	-0.022440	-0.524690	0.902061
O68	O	0.227560	-0.274690	1.152061
C69	C	-0.356881	-0.877822	0.356626
C70	C	-0.106881	-0.627822	0.606626
C71	C	0.143119	-0.377822	0.856626
C72	C	0.393119	-0.127822	1.106626
C73	C	-0.356885	-0.795508	0.356650
C74	C	-0.106885	-0.545508	0.606650
C75	C	0.143115	-0.295508	0.856650
C76	C	0.393115	-0.045508	1.106650
C77	C	-0.356925	-0.496417	0.356625
C78	C	-0.106925	-0.246417	0.606625
C79	C	0.143075	0.003583	0.856625
C80	C	0.393075	0.253583	1.106625
C81	C	-0.414429	-0.527756	0.413562
C82	C	-0.164429	-0.277756	0.663562
C83	C	0.085571	-0.027756	0.913562
C84	C	0.335571	0.222244	1.163562
C85	C	-0.414250	-0.613374	0.413794
C86	C	-0.164250	-0.363374	0.663794
C87	C	0.085750	-0.113374	0.913794
C88	C	0.335750	0.136626	1.163794
C89	C	-0.356906	-0.644800	0.356637
C90	C	-0.106906	-0.394800	0.606637
C91	C	0.143094	-0.144800	0.856637
C92	C	0.393094	0.105200	1.106637
C93	C	-0.278907	-0.613730	0.377966
C94	C	-0.028907	-0.363730	0.627966
C95	C	0.221093	-0.113730	0.877966
C96	C	0.471093	0.136270	1.127966
C97	C	-0.279251	-0.528085	0.378372
C98	C	-0.029251	-0.278085	0.628372
C99	C	0.220749	-0.028085	0.878372
C100	C	0.470749	0.221915	1.128372
C101	C	-0.376732	-0.527968	0.278222
C102	C	-0.126732	-0.277968	0.528222
C103	C	0.123268	-0.027968	0.778222
C104	C	0.373268	0.222032	1.028222
C105	C	-0.378445	-0.613619	0.278639
C106	C	-0.128445	-0.363619	0.528639
C107	C	0.121555	-0.113619	0.778639
C108	C	0.371555	0.136381	1.028639
C109	C	-0.356890	-0.728659	0.356643
C110	C	-0.106890	-0.478659	0.606643
C111	C	0.143110	-0.228659	0.856643
C112	C	0.393110	0.021341	1.106643
C113	C	-0.356935	-0.412558	0.356621
C114	C	-0.106935	-0.162558	0.606621
C115	C	0.143065	0.087442	0.856621
C116	C	0.393065	0.337442	1.106621
C117	C	-0.549323	-1.070172	0.356585
C118	C	-0.299323	-0.820172	0.606585
C119	C	-0.049323	-0.570172	0.856585
C120	C	0.200677	-0.320172	1.106585
C121	C	-0.631637	-1.070213	0.356598
C122	C	-0.381637	-0.820213	0.606598
C123	C	-0.131637	-0.570213	0.856598
C124	C	0.118363	-0.320213	1.106598
C125	C	-0.782345	-1.070258	0.356624
C126	C	-0.532345	-0.820258	0.606624
C127	C	-0.282345	-0.570258	0.856624
C128	C	-0.032345	-0.320258	1.106624
C129	C	-0.813683	-1.127535	0.299442
C130	C	-0.563683	-0.877535	0.549442
C131	C	-0.313683	-0.627535	0.799442
C132	C	-0.063683	-0.377535	1.049442
C133	C	-0.899302	-1.127392	0.299232
C134	C	-0.649302	-0.877392	0.549232
C135	C	-0.399302	-0.627392	0.799232
C136	C	-0.149302	-0.377392	1.049232
C137	C	-0.930728	-1.070304	0.356648
C138	C	-0.680728	-0.820304	0.606648
C139	C	-0.430728	-0.570304	0.856648
C140	C	-0.180728	-0.320304	1.106648
C141	C	-0.899701	-0.992202	0.335655
C142	C	-0.649701	-0.742202	0.585655
C143	C	-0.399701	-0.492202	0.835655
C144	C	-0.149701	-0.242202	1.085655
C145	C	-0.814056	-0.992507	0.335226
C146	C	-0.564056	-0.742507	0.585226
C147	C	-0.314056	-0.492507	0.835226
C148	C	-0.064056	-0.242507	1.085226
C149	C	-0.813855	-1.090411	0.434947
C150	C	-0.563855	-0.840411	0.684947
C151	C	-0.313855	-0.590411	0.934947
C152	C	-0.063855	-0.340411	1.184947
C153	C	-0.899505	-1.092159	0.434544
C154	C	-0.649505	-0.842159	0.684544
C155	C	-0.399505	-0.592159	0.934544
C156	C	-0.149505	-0.342159	1.184544
C157	C	-1.014587	-1.070325	0.356664
C158	C	-0.764587	-0.820325	0.606664
C159	C	-0.514587	-0.570325	0.856664
C160	C	-0.264587	-0.320325	1.106664
C161	C	-0.698486	-1.070232	0.356606
C162	C	-0.448486	-0.820232	0.606606
C163	C	-0.198486	-0.570232	0.856606
C164	C	0.051514	-0.320232	1.106606
C165	C	-0.163751	-1.070314	0.356655
C166	C	0.086249	-0.820314	0.606655
C167	C	0.336249	-0.570314	0.856655
C168	C	0.586249	-0.320314	1.106655
C169	C	-0.081436	-1.070349	0.356673
C170	C	0.168564	-0.820349	0.606673
C171	C	0.418564	-0.570349	0.856673
C172	C	0.668564	-0.320349	1.106673
C173	C	-0.356894	-1.070275	0.549774
C174	C	-0.106894	-0.820275	0.799774
C175	C	0.143106	-0.570275	1.049774
C176	C	0.393106	-0.320275	1.299774
C177	C	-0.356886	-1.070294	0.632088
C178	C	-0.106886	-0.820294	0.882088
C179	C	0.143114	-0.570294	1.132088
C180	C	0.393114	-0.320294	1.382088
C181	C	-0.356941	-0.263394	0.356603
C182	C	-0.106941	-0.013394	0.606603
C183	C	0.143059	0.236606	0.856603
C184	C	0.393059	0.486606	1.106603
C185	C	-0.356945	-0.345709	0.356612
C186	C	-0.106945	-0.095709	0.606612
C187	C	0.143055	0.154291	0.856612
C188	C	0.393055	0.404291	1.106612
C189	C	-0.356878	-1.070233	0.164201
C190	C	-0.106878	-0.820233	0.414201
C191	C	0.143122	-0.570233	0.664201
C192	C	0.393122	-0.320233	0.914201
C193	C	-0.356677	-1.070358	0.081888
C194	C	-0.106677	-0.820358	0.331888
C195	C	0.143323	-0.570358	0.581888
C196	C	0.393323	-0.320358	0.831888
C197	C	-0.356747	-1.070337	0.931179
C198	C	-0.106747	-0.820337	1.181179
C199	C	0.143253	-0.570337	1.431179
C200	C	0.393253	-0.320337	1.681179
C201	C	-0.413788	-1.012883	0.899845
C202	C	-0.163788	-0.762883	1.149845
C203	C	0.086212	-0.512883	1.399845
C204	C	0.336212	-0.262883	1.649845
C205	C	-0.414053	-1.013038	0.814227
C206	C	-0.164053	-0.763038	1.064227
C207	C	0.085947	-0.513038	1.314227
C208	C	0.335947	-0.263038	1.564227
C209	C	-0.356816	-1.070315	0.782797
C210	C	-0.106816	-0.820315	1.032797
C211	C	0.143184	-0.570315	1.282797
C212	C	0.393184	-0.320315	1.532797
C213	C	-0.378007	-1.148344	0.813881
C214	C	-0.128007	-0.898344	1.063881
C215	C	0.121993	-0.648344	1.313881
C216	C	0.371993	-0.398344	1.563881
C217	C	-0.378381	-1.148024	0.899526
C218	C	-0.128381	-0.898024	1.149526
C219	C	0.121619	-0.648024	1.399526
C220	C	0.371619	-0.398024	1.649526
C221	C	-0.278388	-1.050440	0.899609
C222	C	-0.028388	-0.800440	1.149609
C223	C	0.221612	-0.550440	1.399609
C224	C	0.471612	-0.300440	1.649609
C225	C	-0.278840	-1.048704	0.813958
C226	C	-0.028840	-0.798704	1.063958
C227	C	0.221160	-0.548704	1.313958
C228	C	0.471160	-0.298704	1.563958
C229	C	-0.356853	-1.070307	0.698937
C230	C	-0.106853	-0.820307	0.948937
C231	C	0.143147	-0.570307	1.198937
C232	C	0.393147	-0.320307	1.448937
C233	C	-0.356711	-1.070350	1.015039
C234	C	-0.106711	-0.820350	1.265039
C235	C	0.143289	-0.570350	1.515039
C236	C	0.393289	-0.320350	1.765039
H237	H	-0.261802	-0.635191	0.434658
H238	H	-0.011802	-0.385191	0.684658
H239	H	0.238198	-0.135191	0.934658
H240	H	0.488198	0.114809	1.184658
H241	H	-0.432635	-0.506366	0.258840
H242	H	-0.182635	-0.256366	0.508840
H243	H	0.067365	-0.006366	0.758840
H244	H	0.317365	0.243634	1.008840
H245	H	-0.472458	-0.507152	0.400345
H246	H	-0.222458	-0.257152	0.650345
H247	H	0.027542	-0.007152	0.900345
H248	H	0.277542	0.242848	1.150345
H249	H	-0.792198	-1.114345	0.241738
H250	H	-0.542198	-0.864345	0.491738
H251	H	-0.292198	-0.614345	0.741738
H252	H	-0.042198	-0.364345	0.991738
H253	H	-0.259082	-0.994529	0.921210
H254	H	-0.009082	-0.744529	1.171210
H255	H	0.240918	-0.494529	1.421210
H256	H	0.490918	-0.244529	1.671210
H257	H	-0.262449	-0.508120	0.435688
H258	H	-0.012449	-0.258120	0.685688
H259	H	0.237551	-0.008120	0.935688
H260	H	0.487551	0.241880	1.185688
H261	H	-0.337766	-1.192302	0.793523
H262	H	-0.087766	-0.942302	1.043523
H263	H	0.162234	-0.692302	1.293523
H264	H	0.412234	-0.442302	1.543523
H265	H	-0.920058	-0.948376	0.376031
H266	H	-0.670058	-0.698376	0.626031
H267	H	-0.420058	-0.448376	0.876031
H268	H	-0.170058	-0.198376	1.126031
Br269	Br	-0.933527	-1.105155	0.202515
Br270	Br	-0.683527	-0.855155	0.452515
Br271	Br	-0.433527	-0.605155	0.702515
Br272	Br	-0.183527	-0.355155	0.952515
H273	H	-0.401146	-0.633874	0.471885
H274	H	-0.151146	-0.383874	0.721885
H275	H	0.098854	-0.133874	0.971885
H276	H	0.348854	0.116126	1.221885
Br277	Br	-0.474116	-0.647463	0.251831
Br278	Br	-0.224116	-0.397463	0.501831
Br279	Br	0.025884	-0.147463	0.751831
Br280	Br	0.275884	0.102537	1.001831
H281	H	-0.234901	-0.634085	0.337788
H282	H	0.015099	-0.384085	0.587788
H283	H	0.265099	-0.134085	0.837788
H284	H	0.515099	0.115915	1.087788
Br285	Br	-0.312095	-1.221747	0.934079
Br286	Br	-0.062095	-0.971747	1.184079
Br287	Br	0.187905	-0.721747	1.434079
Br288	Br	0.437905	-0.471747	1.684079
H289	H	-0.234871	-0.507354	0.338803
H290	H	0.015129	-0.257354	0.588803
H291	H	0.265129	-0.007354	0.838803
H292	H	0.515129	0.242646	1.088803
H293	H	-0.339602	-0.635011	0.233937
H294	H	-0.089602	-0.385011	0.483937
H295	H	0.160398	-0.135011	0.733937
H296	H	0.410398	0.114989	0.983937
Br297	Br	-0.780828	-0.964079	0.239813
Br298	Br	-0.530828	-0.714079	0.489813
Br299	Br	-0.280828	-0.464079	0.739813
Br300	Br	-0.030828	-0.214079	0.989813
Br301	Br	-0.306922	-0.494189	0.207512
Br302	Br	-0.056922	-0.244189	0.457512
Br303	Br	0.193078	0.005811	0.707512
Br304	Br	0.443078	0.255811	0.957512
Br305	Br	-0.779293	-1.224337	0.321034
Br306	Br	-0.529293	-0.974337	0.571034
Br307	Br	-0.279293	-0.724337	0.821034
Br308	Br	-0.029293	-0.474337	1.071034
Br309	Br	-0.934267	-1.223906	0.321100
Br310	Br	-0.684267	-0.973906	0.571100
Br311	Br	-0.434267	-0.723906	0.821100
Br312	Br	-0.184267	-0.473906	1.071100
Br313	Br	-0.935519	-0.963306	0.241299
Br314	Br	-0.685519	-0.713306	0.491299
Br315	Br	-0.435519	-0.463306	0.741299
Br316	Br	-0.185519	-0.213306	0.991299
Br317	Br	-0.207553	-1.120187	0.933381
Br318	Br	0.042447	-0.870187	1.183381
Br319	Br	0.292447	-0.620187	1.433381
Br320	Br	0.542447	-0.370187	1.683381
Br321	Br	-0.779503	-0.918938	0.401638
Br322	Br	-0.529503	-0.668938	0.651638
Br323	Br	-0.279503	-0.418938	0.901638
Br324	Br	-0.029503	-0.168938	1.151638
Br325	Br	-0.252207	-0.952989	0.780110
Br326	Br	-0.002207	-0.702989	1.030110
Br327	Br	0.247793	-0.452989	1.280110
Br328	Br	0.497793	-0.202989	1.530110
Br329	Br	-0.777794	-1.183704	0.466835
Br330	Br	-0.527794	-0.933704	0.716835
Br331	Br	-0.277794	-0.683704	0.966835
Br332	Br	-0.027794	-0.433704	1.216835
Br333	Br	-0.509995	-1.034510	0.935777
Br334	Br	-0.259995	-0.784510	1.185777
Br335	Br	-0.009995	-0.534510	1.435777
Br336	Br	0.240005	-0.284510	1.685777
H337	H	-0.919779	-1.149635	0.450377
H338	H	-0.669779	-0.899635	0.700377
H339	H	-0.419779	-0.649635	0.950377
H340	H	-0.169779	-0.399635	1.200377
Br341	Br	-0.935157	-1.027751	0.509348
Br342	Br	-0.685157	-0.777751	0.759348
Br343	Br	-0.435157	-0.527751	1.009348
Br344	Br	-0.185157	-0.277751	1.259348
Br345	Br	-0.472465	-1.176945	0.778137
Br346	Br	-0.222465	-0.926945	1.028137
Br347	Br	0.027535	-0.676945	1.278137
Br348	Br	0.277535	-0.426945	1.528137
H349	H	-0.793585	-1.048698	0.477550
H350	H	-0.543585	-0.798698	0.727550
H351	H	-0.293585	-0.548698	0.977550
H352	H	-0.043585	-0.298698	1.227550
H353	H	-0.400791	-0.955176	0.793210
H354	H	-0.150791	-0.705176	1.043210
H355	H	0.099209	-0.455176	1.293210
H356	H	0.349209	-0.205176	1.543210
Br357	Br	-0.391909	-0.916146	0.934173
Br358	Br	-0.141909	-0.666146	1.184173
Br359	Br	0.108091	-0.416146	1.434173
Br360	Br	0.358091	-0.166146	1.684173
Br361	Br	-0.204242	-1.113368	0.778311
Br362	Br	0.045758	-0.863368	1.028311
Br363	Br	0.295758	-0.613368	1.278311
Br364	Br	0.545758	-0.363368	1.528311
H365	H	-0.472135	-1.026175	0.793741
H366	H	-0.222135	-0.776175	1.043741
H367	H	0.027865	-0.526175	1.293741
H368	H	0.277865	-0.276175	1.543741
H369	H	-0.472091	-0.634380	0.400427
H370	H	-0.222091	-0.384380	0.650427
H371	H	0.027909	-0.134380	0.900427
H372	H	0.277909	0.115620	1.150427
Br373	Br	-0.392886	-0.491881	0.509824
Br374	Br	-0.142886	-0.241881	0.759824
Br375	Br	0.107114	0.008119	1.009824
Br376	Br	0.357114	0.258119	1.259824
Br377	Br	-0.473854	-1.176134	0.932830
Br378	Br	-0.223854	-0.926134	1.182830
Br379	Br	0.026146	-0.676134	1.432830
Br380	Br	0.276146	-0.426134	1.682830
