data_functionalizedCrystal
_audit_creation_method	'MofGen! by Chris Wilmer'
_symmetry_space_group_name_H-M	'P1'
_symmetry_Int_Tables_number	1
_symmetry_cell_setting	triclinic
loop_
_symmetry_equiv_pos_as_xyz
  x,y,z
_cell_length_a	8.597340
_cell_length_b	12.837942
_cell_length_c	7.681481
_cell_angle_alpha	83.650030
_cell_angle_beta	103.474906
_cell_angle_gamma	90.035652
loop_
_atom_site_label
_atom_site_type_symbol
_atom_site_fract_x
_atom_site_fract_y
_atom_site_fract_z
O1	O	2.121620	0.143357	0.175460
O2	O	1.660068	0.159873	0.105430
O3	O	1.880611	0.000712	0.138903
O4	O	1.901077	0.302518	0.141987
O5	O	1.907749	-0.018923	0.435880
O6	O	1.687206	0.140239	0.402407
O7	O	2.148759	0.123722	0.472436
Zn8	Zn	1.922291	0.128863	0.484573
Zn9	Zn	1.886535	0.154732	0.093294
O10	O	1.928216	0.282884	0.438963
C11	C	1.614150	0.149376	0.244893
C12	C	1.436896	0.147338	0.217999
C13	C	1.887265	-0.047726	0.286341
C14	C	1.866642	-0.162802	0.283209
C15	C	2.114563	-0.403767	0.320789
C16	C	2.095193	-0.511892	0.317847
C17	C	1.808533	-0.487178	0.274371
C18	C	1.827902	-0.379053	0.277313
C19	C	1.980923	-0.337352	0.300525
C20	C	2.000292	-0.229226	0.303480
C21	C	1.713632	-0.204513	0.259992
C22	C	1.694262	-0.312638	0.257050
C23	C	2.194676	0.134220	0.332970
C24	C	2.371929	0.136259	0.359852
C25	C	1.921561	0.331321	0.291521
C26	C	1.942183	0.446398	0.294642
N27	N	1.946705	0.111207	0.751613
N28	N	1.862132	0.172380	-0.173744
H29	H	1.356904	0.155264	0.075963
H30	H	2.124890	-0.195275	0.322387
C31	C	2.017938	-0.072075	0.819511
C32	C	2.063267	0.026912	0.870813
H33	H	2.089903	-0.124113	0.893095
H34	H	1.912615	-0.085266	0.833691
H35	H	2.020582	-0.073982	0.696958
H36	H	2.060611	0.028821	0.993363
H37	H	2.168617	0.040106	0.856649
C38	C	2.395970	-0.439051	0.363465
C39	C	2.282756	-0.357921	0.346297
H40	H	2.499804	-0.410745	0.379199
H41	H	2.391925	-0.487555	0.464974
H42	H	2.372973	-0.473863	0.257845
H43	H	2.305746	-0.323113	0.451924
H44	H	2.286806	-0.309399	0.244778
C45	C	1.384781	0.114902	0.677431
C46	C	1.479892	0.125551	0.551593
H47	H	1.451444	0.108285	0.795805
H48	H	1.316240	0.175006	0.660478
H49	H	1.322176	0.054182	0.661368
H50	H	1.542489	0.186276	0.567648
H51	H	1.548461	0.065441	0.568554
H52	H	1.775800	0.234819	0.737956
H53	H	2.204017	-0.565963	0.334342
C54	C	1.489223	-0.160257	0.376518
C55	C	1.566725	-0.131503	0.237721
H56	H	1.398539	-0.115178	0.362779
H57	H	1.455787	-0.230610	0.371424
H58	H	1.560778	-0.154466	0.489485
H59	H	1.495173	-0.137302	0.124755
H60	H	1.600157	-0.061133	0.242799
C61	C	1.651574	-0.641959	0.250554
C62	C	1.640343	-0.533029	0.248859
H63	H	1.547740	-0.670264	0.234816
H64	H	1.697813	-0.657892	0.155442
H65	H	1.716768	-0.671597	0.362572
H66	H	1.575159	-0.503391	0.136836
H67	H	1.594082	-0.517088	0.343978
H68	H	1.569676	-0.346606	0.238144
