data_functionalizedCrystal
_audit_creation_method	'MofGen! by Chris Wilmer'
_symmetry_space_group_name_H-M	'P1'
_symmetry_Int_Tables_number	1
_symmetry_cell_setting	triclinic
loop_
_symmetry_equiv_pos_as_xyz
  x,y,z
_cell_length_a	18.101398
_cell_length_b	19.120786
_cell_length_c	18.101389
_cell_angle_alpha	87.539356
_cell_angle_beta	89.975673
_cell_angle_gamma	92.460164
loop_
_atom_site_label
_atom_site_type_symbol
_atom_site_fract_x
_atom_site_fract_y
_atom_site_fract_z
Zn1	Zn	1.119565	-0.279790	-0.406239
Zn2	Zn	1.114191	-0.397230	-0.277109
Zn3	Zn	0.995724	-0.279782	-0.282401
Zn4	Zn	0.990406	-0.397200	-0.400899
O5	O	1.054972	-0.338501	-0.341662
O6	O	1.222484	-0.295384	-0.389130
O7	O	1.098453	-0.381660	-0.174178
O8	O	1.016627	-0.181494	-0.303278
O9	O	1.218536	-0.381667	-0.294259
O10	O	1.107612	-0.181499	-0.394261
O11	O	1.011416	-0.295372	-0.178066
O12	O	0.891387	-0.295342	-0.298100
O13	O	1.007563	-0.381616	-0.505241
O14	O	0.887479	-0.381609	-0.385160
O15	O	1.102455	-0.295355	-0.509164
O16	O	1.093295	-0.495516	-0.289081
O17	O	1.002351	-0.495494	-0.380029
C18	C	0.862562	-0.338472	-0.341625
C19	C	0.780248	-0.338477	-0.341626
C20	C	0.481155	-0.338521	-0.341686
C21	C	0.514926	-0.283973	-0.287201
C22	C	0.600538	-0.284119	-0.286952
C23	C	0.629539	-0.338498	-0.341656
C24	C	0.595100	-0.412484	-0.317000
C25	C	0.509469	-0.412181	-0.316618
C26	C	0.513613	-0.319726	-0.420932
C27	C	0.599338	-0.318078	-0.420578
C28	C	0.713398	-0.338490	-0.341640
C29	C	0.397295	-0.338534	-0.341700
C30	C	1.046683	-0.520990	-0.333418
C31	C	1.043205	-0.599060	-0.329915
C32	C	1.088907	-0.635679	-0.375679
C33	C	1.085636	-0.709034	-0.372389
C34	C	1.036666	-0.745768	-0.323332
C35	C	0.990959	-0.709143	-0.277567
C36	C	0.994227	-0.635790	-0.280860
C37	C	1.024428	-0.967251	-0.311018
C38	C	1.021165	-1.040609	-0.307726
C39	C	1.115841	-1.040495	-0.402550
C40	C	1.119108	-0.967141	-0.405836
C41	C	1.073398	-0.930522	-0.360074
C42	C	1.033323	-0.820748	-0.319966
C43	C	1.076738	-0.855543	-0.363443
C44	C	1.248132	-0.338530	-0.341700
C45	C	1.330446	-0.338542	-0.341716
C46	C	1.055015	-0.338483	-0.534825
C47	C	1.055034	-0.338475	-0.617140
C48	C	1.063313	-0.155299	-0.349956
C49	C	1.066867	-0.077229	-0.353490
C50	C	1.055083	-0.338344	-0.916237
C51	C	0.995189	-0.392444	-0.882451
C52	C	0.995333	-0.392695	-0.796821
C53	C	1.055058	-0.338409	-0.767851
C54	C	1.132181	-0.358507	-0.798052
C55	C	1.131845	-0.358862	-0.883681
C56	C	1.038537	-0.264025	-0.888008
C57	C	1.036781	-0.264454	-0.802337
C58	C	1.055049	-0.338445	-0.683990
C59	C	1.055097	-0.338310	-1.000098
C60	C	1.054973	-0.338468	-0.149253
C61	C	1.055107	-0.338277	-0.066948
H62	H	0.488742	-0.428121	-0.258586
C63	C	0.627427	-0.300908	-0.207719
C64	C	0.673078	-0.365876	-0.191256
C65	C	0.699967	-0.382668	-0.112021
C66	C	0.681206	-0.334491	-0.049249
C67	C	0.635552	-0.269519	-0.065710
C68	C	0.608662	-0.252727	-0.144946
H69	H	0.686969	-0.401543	-0.237725
H70	H	0.733763	-0.430765	-0.099835
H71	H	0.701111	-0.346922	0.009406
H72	H	0.621661	-0.233852	-0.019241
H73	H	0.574866	-0.204630	-0.157131
C74	C	0.626021	-0.367844	-0.478721
C75	C	0.569360	-0.411446	-0.522909
C76	C	0.596045	-0.461220	-0.581046
C77	C	0.679393	-0.467391	-0.594995
C78	C	0.736060	-0.423787	-0.550806
C79	C	0.709374	-0.374014	-0.492669
H80	H	0.507656	-0.406879	-0.512584
H81	H	0.554096	-0.493499	-0.613758
H82	H	0.699147	-0.504237	-0.638032
H83	H	0.797763	-0.428355	-0.561131
H84	H	0.751323	-0.341735	-0.459957
H85	H	0.491574	-0.359457	-0.461569
C86	C	0.632285	-0.209994	-0.308320
C87	C	0.682799	-0.170632	-0.254086
C88	C	0.714538	-0.096499	-0.275443
C89	C	0.695763	-0.061729	-0.351033
C90	C	0.645247	-0.101091	-0.405271
C91	C	0.613508	-0.175224	-0.383915
H92	H	0.696699	-0.196371	-0.198126
H93	H	0.751933	-0.067361	-0.235292
H94	H	0.719258	-0.006851	-0.366842
H95	H	0.631346	-0.075352	-0.461232
H96	H	0.576113	-0.204362	-0.424066
H97	H	1.146915	-0.412258	-0.774189
C98	C	1.166114	-1.080776	-0.452893
C99	C	1.160469	-1.070654	-0.537529
C100	C	1.210742	-1.110933	-0.587877
C101	C	1.266659	-1.161334	-0.553589
C102	C	1.272306	-1.171458	-0.468948
C103	C	1.222034	-1.131179	-0.418600
H104	H	1.119073	-1.033342	-0.562915
H105	H	1.206561	-1.103438	-0.650533
H106	H	1.303874	-1.191151	-0.590859
H107	H	1.313702	-1.208769	-0.443562
H108	H	1.226214	-1.138673	-0.355943
H109	H	1.128786	-0.605776	-0.415623
C110	C	1.135915	-0.749311	-0.422728
C111	C	1.220558	-0.739163	-0.417215
C112	C	1.270840	-0.779438	-0.467558
C113	C	1.236479	-0.829861	-0.523413
C114	C	1.151832	-0.840012	-0.528928
C115	C	1.101549	-0.799737	-0.478585
H116	H	1.245998	-0.701835	-0.375866
H117	H	1.333502	-0.771924	-0.463475
H118	H	1.273701	-0.859675	-0.560679
H119	H	1.126392	-0.877340	-0.570277
H120	H	1.038888	-0.807251	-0.482668
C121	C	0.937094	-0.749550	-0.223601
C122	C	0.943637	-0.739492	-0.139871
C123	C	0.889775	-0.779897	-0.085901
C124	C	0.829369	-0.830361	-0.115662
C125	C	0.822823	-0.840421	-0.199396
C126	C	0.876686	-0.800015	-0.253366
H127	H	0.988356	-0.702134	-0.117836
H128	H	0.894620	-0.772450	-0.023915
H129	H	0.789496	-0.860271	-0.075710
H130	H	0.778105	-0.877779	-0.221431
H131	H	0.871840	-0.807463	-0.315352
H132	H	1.005728	-0.447195	-0.901511
C133	C	0.967299	-1.081022	-0.253759
C134	C	0.973839	-1.070969	-0.170028
C135	C	0.919980	-1.111384	-0.116061
C136	C	0.859582	-1.161853	-0.145826
C137	C	0.853040	-1.171909	-0.229562
C138	C	0.906898	-1.131494	-0.283528
H139	H	1.018551	-1.033606	-0.147991
H140	H	0.924824	-1.103939	-0.054075
H141	H	0.819713	-1.191771	-0.105877
H142	H	0.808327	-1.209272	-0.251599
H143	H	0.902055	-1.138938	-0.345515
C144	C	0.487690	-0.248112	-0.450354
C145	C	0.442591	-0.242865	-0.522345
C146	C	0.416669	-0.171248	-0.551758
C147	C	0.435845	-0.104878	-0.509179
C148	C	0.480946	-0.110123	-0.437183
C149	C	0.506869	-0.181740	-0.407771
H150	H	0.428394	-0.291998	-0.553868
H151	H	0.383282	-0.167366	-0.605054
H152	H	0.416655	-0.051863	-0.530952
H153	H	0.495143	-0.060990	-0.405660
H154	H	0.540256	-0.185622	-0.354475
C155	C	0.979467	-0.861161	-0.265997
C156	C	0.986017	-0.851113	-0.182265
C157	C	0.932162	-0.891529	-0.128295
C158	C	0.871757	-0.941993	-0.158058
C159	C	0.865204	-0.952042	-0.241793
C160	C	0.919059	-0.911626	-0.295763
H161	H	1.030735	-0.813755	-0.160229
H162	H	0.937013	-0.884089	-0.066308
H163	H	0.831890	-0.971911	-0.118106
H164	H	0.820487	-0.989400	-0.263829
H165	H	0.914208	-0.919066	-0.357750
H166	H	0.613592	-0.454215	-0.355296
H167	H	0.938039	-0.380118	-0.776355
C168	C	0.630122	-0.244528	-0.445620
C169	C	0.608597	-0.212324	-0.521611
C170	C	0.639388	-0.138775	-0.546652
C171	C	0.691703	-0.097429	-0.495702
C172	C	0.713230	-0.129633	-0.419707
C173	C	0.682440	-0.203182	-0.394666
H174	H	0.569868	-0.242931	-0.559331
H175	H	0.623451	-0.114936	-0.602909
H176	H	0.714496	-0.042984	-0.514239
H177	H	0.751959	-0.099026	-0.381986
H178	H	0.698376	-0.227021	-0.338409
C179	C	0.960135	-0.243969	-0.775787
C180	C	0.929289	-0.173318	-0.801975
C181	C	0.852643	-0.152834	-0.775418
C182	C	0.806844	-0.203001	-0.722673
C183	C	0.837689	-0.273656	-0.696483
C184	C	0.914335	-0.294141	-0.723040
H185	H	0.963193	-0.136178	-0.841022
H186	H	0.829810	-0.100530	-0.794806
H187	H	0.750106	-0.187838	-0.703014
H188	H	0.803785	-0.310797	-0.657435
H189	H	0.937168	-0.346445	-0.703652
C190	C	0.943956	-0.595505	-0.230518
C191	C	0.890091	-0.635907	-0.176554
C192	C	0.839816	-0.595623	-0.126213
C193	C	0.843405	-0.514937	-0.129836
C194	C	0.897272	-0.474531	-0.183803
C195	C	0.947548	-0.514815	-0.234144
H196	H	0.887432	-0.695640	-0.173870
H197	H	0.799940	-0.625536	-0.086263
H198	H	0.806189	-0.485117	-0.092571
H199	H	0.899931	-0.414798	-0.186487
H200	H	0.987423	-0.484902	-0.274093
C201	C	1.009762	-0.467105	-0.765792
C202	C	1.021194	-0.526484	-0.818945
C203	C	1.035627	-0.600897	-0.787917
C204	C	1.038627	-0.615932	-0.703735
C205	C	1.027195	-0.556552	-0.650576
C206	C	1.012763	-0.482139	-0.681605
H207	H	1.018974	-0.515355	-0.881267
H208	H	1.044090	-0.644854	-0.827269
H209	H	1.049311	-0.671017	-0.680766
H210	H	1.029416	-0.567680	-0.588255
H211	H	1.004300	-0.438182	-0.642253
H212	H	1.146262	-0.413190	-0.901218
C213	C	1.193947	-0.307961	-0.913998
C214	C	1.243688	-0.267121	-0.860285
C215	C	1.305796	-0.216230	-0.890599
C216	C	1.318162	-0.206178	-0.974625
C217	C	1.268419	-0.247019	-1.028343
C218	C	1.206312	-0.297910	-0.998030
H219	H	1.234535	-0.274561	-0.798079
H220	H	1.342619	-0.185997	-0.850833
H221	H	1.364138	-0.168505	-0.997065
H222	H	1.277572	-0.239579	-1.090549
H223	H	1.169489	-0.328143	-1.037796
C224	C	0.623037	-0.434395	-0.239420
C225	C	0.607665	-0.389114	-0.173244
C226	C	0.635601	-0.411020	-0.095663
C227	C	0.678909	-0.478207	-0.084256
C228	C	0.694283	-0.523493	-0.150433
C229	C	0.666348	-0.501586	-0.228015
H230	H	0.575604	-0.339374	-0.181686
H231	H	0.624219	-0.377497	-0.046674
H232	H	0.699588	-0.494424	-0.026825
H233	H	0.726344	-0.573232	-0.141992
H234	H	0.677729	-0.535110	-0.277004
H235	H	0.937715	-0.379996	-0.903597
C236	C	1.091776	-0.207108	-0.776038
C237	C	1.098884	-0.193616	-0.693030
C238	C	1.153887	-0.136274	-0.666732
C239	C	1.201784	-0.092423	-0.723442
C240	C	1.194678	-0.105913	-0.806455
C241	C	1.139674	-0.163256	-0.832753
H242	H	1.063426	-0.226079	-0.651045
H243	H	1.159147	-0.126287	-0.605280
H244	H	1.242501	-0.049974	-0.703974
H245	H	1.230135	-0.073451	-0.848439
H246	H	1.134414	-0.173242	-0.894205
C247	C	0.478920	-0.468952	-0.367631
C248	C	0.532452	-0.514420	-0.408585
C249	C	0.501907	-0.571195	-0.459591
C250	C	0.417831	-0.582501	-0.469644
C251	C	0.364294	-0.537032	-0.428689
C252	C	0.394839	-0.480257	-0.377683
H253	H	0.594695	-0.506052	-0.401144
H254	H	0.541539	-0.604855	-0.489908
H255	H	0.395220	-0.624530	-0.507401
H256	H	0.302051	-0.545400	-0.436130
H257	H	0.355207	-0.446597	-0.347366
H258	H	1.177860	-0.320341	-0.779425
H259	H	1.158983	-0.937233	-0.445783
H260	H	0.496825	-0.228942	-0.302899
H261	H	0.987211	-0.937442	-0.273755
H262	H	1.116606	-0.825632	-0.403389
H263	H	0.983451	-0.245715	-0.910418
H264	H	0.492826	-0.296256	-0.228893
H265	H	1.082201	-0.223717	-0.910099
