data_functionalizedCrystal
_audit_creation_method	'MofGen! by Chris Wilmer'
_symmetry_space_group_name_H-M	'P1'
_symmetry_Int_Tables_number	1
_symmetry_cell_setting	triclinic
loop_
_symmetry_equiv_pos_as_xyz
  x,y,z
_cell_length_a	15.944545
_cell_length_b	14.421503
_cell_length_c	15.944551
_cell_angle_alpha	90.000609
_cell_angle_beta	96.502545
_cell_angle_gamma	89.990135
loop_
_atom_site_label
_atom_site_type_symbol
_atom_site_fract_x
_atom_site_fract_y
_atom_site_fract_z
O1	O	1.114514	0.077054	-0.108301
O2	O	1.364514	0.327054	0.141699
O3	O	1.614514	0.577054	0.391699
O4	O	1.864514	0.827054	0.641699
O5	O	0.869964	0.077069	-0.121663
O6	O	1.119964	0.327069	0.128337
O7	O	1.369964	0.577069	0.378337
O8	O	1.619964	0.827069	0.628337
O9	O	0.998917	0.077053	0.007293
O10	O	1.248917	0.327053	0.257293
O11	O	1.498917	0.577053	0.507293
O12	O	1.748917	0.827053	0.757293
O13	O	0.985561	0.077070	-0.237257
O14	O	1.235561	0.327070	0.012743
O15	O	1.485561	0.577070	0.262743
O16	O	1.735561	0.827070	0.512743
O17	O	0.998933	-0.077171	0.007285
O18	O	1.248933	0.172829	0.257285
O19	O	1.498933	0.422829	0.507285
O20	O	1.748933	0.672829	0.757285
O21	O	0.869979	-0.077154	-0.121671
O22	O	1.119979	0.172846	0.128329
O23	O	1.369979	0.422846	0.378329
O24	O	1.619979	0.672846	0.628329
O25	O	1.114530	-0.077170	-0.108309
O26	O	1.364530	0.172830	0.141691
O27	O	1.614530	0.422830	0.391691
O28	O	1.864530	0.672830	0.641691
Cu29	Cu	0.992256	-0.091244	-0.114991
Cu30	Cu	1.242256	0.158756	0.135009
Cu31	Cu	1.492256	0.408756	0.385009
Cu32	Cu	1.742256	0.658756	0.635009
Cu33	Cu	0.992237	0.091143	-0.114981
Cu34	Cu	1.242237	0.341143	0.135019
Cu35	Cu	1.492237	0.591143	0.385019
Cu36	Cu	1.742237	0.841143	0.635019
O37	O	0.985576	-0.077153	-0.237265
O38	O	1.235576	0.172847	0.012735
O39	O	1.485576	0.422847	0.262735
O40	O	1.735576	0.672847	0.512735
C41	C	0.838677	-0.000041	-0.121113
C42	C	1.088677	0.249959	0.128887
C43	C	1.338677	0.499959	0.378887
C44	C	1.588677	0.749959	0.628887
C45	C	0.745431	-0.000035	-0.119453
C46	C	0.995431	0.249965	0.130547
C47	C	1.245431	0.499965	0.380547
C48	C	1.495431	0.749965	0.630547
C49	C	0.474798	-0.000051	-0.034559
C50	C	0.724798	0.249949	0.215441
C51	C	0.974798	0.499949	0.465441
C52	C	1.224798	0.749949	0.715441
C53	C	0.525388	-0.076091	-0.075492
C54	C	0.775388	0.173909	0.174508
C55	C	1.025388	0.423909	0.424508
C56	C	1.275388	0.673909	0.674508
C57	C	0.409787	-0.000052	-0.113532
C58	C	0.659787	0.249948	0.136468
C59	C	0.909787	0.499948	0.386468
C60	C	1.159787	0.749948	0.636468
C61	C	0.525353	0.075961	-0.075505
C62	C	0.775353	0.325961	0.174495
C63	C	1.025353	0.575961	0.424495
C64	C	1.275353	0.825961	0.674495
C65	C	0.574701	-0.000042	-0.116437
C66	C	0.824701	0.249958	0.133563
C67	C	1.074701	0.499958	0.383563
C68	C	1.324701	0.749958	0.633563
C69	C	0.459148	-0.076154	-0.154444
C70	C	0.709148	0.173846	0.095556
C71	C	0.959148	0.423846	0.345556
C72	C	1.209148	0.673846	0.595556
C73	C	0.459110	0.075967	-0.154445
C74	C	0.709110	0.325967	0.095555
C75	C	0.959110	0.575967	0.345555
C76	C	1.209110	0.825967	0.595555
C77	C	0.509667	-0.000092	-0.195436
C78	C	0.759667	0.249908	0.054564
C79	C	1.009667	0.499908	0.304564
C80	C	1.259667	0.749908	0.554564
C81	C	0.314785	-0.000058	-0.111856
C82	C	0.564785	0.249942	0.138144
C83	C	0.814785	0.499942	0.388144
C84	C	1.064785	0.749942	0.638144
C85	C	0.669700	-0.000042	-0.118119
C86	C	0.919700	0.249958	0.131881
C87	C	1.169700	0.499958	0.381881
C88	C	1.419700	0.749958	0.631881
N89	N	0.992275	-0.219525	-0.114997
N90	N	1.242275	0.030475	0.135003
N91	N	1.492275	0.280475	0.385003
N92	N	1.742275	0.530475	0.635003
C93	C	1.051916	-0.469162	-0.055355
C94	C	1.301916	-0.219162	0.194645
C95	C	1.551916	0.030838	0.444645
C96	C	1.801916	0.280838	0.694645
C97	C	0.976016	-0.530955	-0.039039
C98	C	1.226016	-0.280955	0.210961
C99	C	1.476016	-0.030955	0.460961
C100	C	1.726016	0.219045	0.710961
C101	C	0.992256	-0.408687	-0.114987
C102	C	1.242256	-0.158687	0.135013
C103	C	1.492256	0.091313	0.385013
C104	C	1.742256	0.341313	0.635013
C105	C	1.068138	-0.530987	-0.131253
C106	C	1.318138	-0.280987	0.118747
C107	C	1.568138	-0.030987	0.368747
C108	C	1.818138	0.219013	0.618747
C109	C	0.992245	-0.591408	-0.114975
C110	C	1.242245	-0.341408	0.135025
C111	C	1.492245	-0.091408	0.385025
C112	C	1.742245	0.158592	0.635025
C113	C	0.916318	-0.469119	-0.098634
C114	C	1.166318	-0.219119	0.151366
C115	C	1.416318	0.030881	0.401366
C116	C	1.666318	0.280881	0.651366
C117	C	1.008490	-0.469146	-0.190881
C118	C	1.258490	-0.219146	0.059119
C119	C	1.508490	0.030854	0.309119
C120	C	1.758490	0.280854	0.559119
C121	C	0.932536	-0.530911	-0.174598
C122	C	1.182536	-0.280911	0.075402
C123	C	1.432536	-0.030911	0.325402
C124	C	1.682536	0.219089	0.575402
C125	C	0.992264	-0.303426	-0.114992
C126	C	1.242264	-0.053426	0.135008
C127	C	1.492264	0.196574	0.385008
C128	C	1.742264	0.446574	0.635008
C129	C	0.992229	-0.696667	-0.114971
C130	C	1.242229	-0.446667	0.135029
C131	C	1.492229	-0.196667	0.385029
C132	C	1.742229	0.053333	0.635029
C133	C	1.145816	-0.000058	-0.108859
C134	C	1.395816	0.249942	0.141141
C135	C	1.645816	0.499942	0.391141
C136	C	1.895816	0.749942	0.641141
C137	C	1.239062	-0.000057	-0.110519
C138	C	1.489062	0.249943	0.139481
C139	C	1.739062	0.499943	0.389481
C140	C	1.989062	0.749943	0.639481
C141	C	0.998370	-0.000059	0.038583
C142	C	1.248370	0.249941	0.288583
C143	C	1.498370	0.499941	0.538583
C144	C	1.748370	0.749941	0.788583
C145	C	0.996708	-0.000060	0.131829
C146	C	1.246708	0.249940	0.381829
C147	C	1.496708	0.499940	0.631829
C148	C	1.746708	0.749940	0.881829
N149	N	0.992225	0.219424	-0.114968
N150	N	1.242225	0.469424	0.135032
N151	N	1.492225	0.719424	0.385032
N152	N	1.742225	0.969424	0.635032
C153	C	0.986123	-0.000039	-0.268555
C154	C	1.236123	0.249961	-0.018555
C155	C	1.486123	0.499961	0.231445
C156	C	1.736123	0.749961	0.481445
C157	C	0.987785	-0.000033	-0.361801
C158	C	1.237785	0.249967	-0.111801
C159	C	1.487785	0.499967	0.138199
C160	C	1.737785	0.749967	0.388199
C161	C	0.912803	-0.000042	0.346684
C162	C	1.162803	0.249958	0.596684
C163	C	1.412803	0.499958	0.846684
C164	C	1.662803	0.749958	1.096684
C165	C	0.951774	-0.076086	0.407698
C166	C	1.201774	0.173914	0.657698
C167	C	1.451774	0.423914	0.907698
C168	C	1.701774	0.673914	1.157698
C169	C	0.993701	-0.000052	0.302555
C170	C	1.243701	0.249948	0.552555
C171	C	1.493701	0.499948	0.802555
C172	C	1.743701	0.749948	1.052555
C173	C	0.951777	0.075967	0.407690
C174	C	1.201777	0.325967	0.657690
C175	C	1.451777	0.575967	0.907690
C176	C	1.701777	0.825967	1.157690
C177	C	0.990790	-0.000041	0.467468
C178	C	1.240790	0.249959	0.717468
C179	C	1.490790	0.499959	0.967468
C180	C	1.740790	0.749959	1.217468
C181	C	1.032693	-0.076159	0.362341
C182	C	1.282693	0.173841	0.612341
C183	C	1.532693	0.423841	0.862341
C184	C	1.782693	0.673841	1.112341
C185	C	1.032686	0.075961	0.362326
C186	C	1.282686	0.325961	0.612326
C187	C	1.532686	0.575961	0.862326
C188	C	1.782686	0.825961	1.112326
C189	C	1.071715	-0.000101	0.423322
C190	C	1.321715	0.249899	0.673322
C191	C	1.571715	0.499899	0.923322
C192	C	1.821715	0.749899	1.173322
C193	C	0.995375	-0.000060	0.207553
C194	C	1.245375	0.249940	0.457553
C195	C	1.495375	0.499940	0.707553
C196	C	1.745375	0.749940	0.957553
C197	C	0.989122	-0.000041	0.562469
C198	C	1.239122	0.249959	0.812469
C199	C	1.489122	0.499959	1.062469
C200	C	1.739122	0.749959	1.312469
H201	H	0.554325	-0.140381	-0.042143
H202	H	0.804325	0.109619	0.207857
H203	H	1.054325	0.359619	0.457857
H204	H	1.304325	0.609619	0.707857
H205	H	1.102315	-0.442048	-0.004898
H206	H	1.352315	-0.192048	0.245102
H207	H	1.602315	0.057952	0.495102
H208	H	1.852315	0.307952	0.745102
O209	O	0.421010	-0.161414	-0.198578
O210	O	0.671010	0.088586	0.051422
O211	O	0.921010	0.338586	0.301422
O212	O	1.171010	0.588586	0.551422
H213	H	0.351600	-0.160770	-0.196969
H214	H	0.601600	0.089230	0.053031
H215	H	0.851600	0.339230	0.303031
H216	H	1.101600	0.589230	0.553031
H217	H	1.138922	-0.000148	0.456483
H218	H	1.388922	0.249852	0.706483
H219	H	1.638922	0.499852	0.956483
H220	H	1.888922	0.749852	1.206483
H221	H	0.525159	-0.000131	-0.263501
H222	H	0.775159	0.249869	-0.013501
H223	H	1.025159	0.499869	0.236499
H224	H	1.275159	0.749869	0.486499
O225	O	1.153147	-0.566981	-0.149490
O226	O	1.403147	-0.316981	0.100510
O227	O	1.653147	-0.066981	0.350510
O228	O	1.903147	0.183019	0.600510
H229	H	1.145301	-0.609321	-0.207985
H230	H	1.395301	-0.359321	0.042015
H231	H	1.645301	-0.109321	0.292015
H232	H	1.895301	0.140679	0.542015
H233	H	0.962274	-0.558106	0.025147
H234	H	1.212274	-0.308106	0.275147
H235	H	1.462274	-0.058106	0.525147
H236	H	1.712274	0.191894	0.775147
O237	O	1.026723	-0.433152	-0.275877
O238	O	1.276723	-0.183152	-0.025877
O239	O	1.526723	0.066848	0.224123
O240	O	1.776723	0.316848	0.474123
H241	H	0.972582	-0.390817	-0.304072
H242	H	1.222582	-0.140817	-0.054072
H243	H	1.472582	0.109183	0.195928
H244	H	1.722582	0.359183	0.445928
H245	H	0.917564	-0.140370	0.427802
H246	H	1.167564	0.109630	0.677802
H247	H	1.417564	0.359630	0.927802
H248	H	1.667564	0.609630	1.177802
H249	H	0.554264	0.140243	-0.042136
H250	H	0.804264	0.390243	0.207864
H251	H	1.054264	0.640243	0.457864
H252	H	1.304264	0.890243	0.707864
H253	H	1.066866	0.140250	0.342200
H254	H	1.316866	0.390250	0.592200
H255	H	1.566866	0.640250	0.842200
H256	H	1.816866	0.890250	1.092200
O257	O	0.831295	-0.433287	-0.080276
O258	O	1.081295	-0.183287	0.169724
O259	O	1.331295	0.066713	0.419724
O260	O	1.581295	0.316713	0.669724
H261	H	0.831981	-0.356327	-0.080383
H262	H	1.081981	-0.106327	0.169617
H263	H	1.331981	0.143673	0.419617
H264	H	1.581981	0.393673	0.669617
O265	O	0.420742	0.161129	-0.198571
O266	O	0.670742	0.411129	0.051429
O267	O	0.920742	0.661129	0.301429
O268	O	1.170742	0.911129	0.551429
H269	H	0.471453	0.203930	-0.221254
H270	H	0.721453	0.453930	0.028746
H271	H	0.971453	0.703930	0.278746
H272	H	1.221453	0.953930	0.528746
O273	O	0.454048	-0.000150	0.055525
O274	O	0.704048	0.249850	0.305525
O275	O	0.954048	0.499850	0.555525
O276	O	1.204048	0.749850	0.805525
H277	H	0.480719	-0.063372	0.088114
H278	H	0.730719	0.186628	0.338114
H279	H	0.980719	0.436628	0.588114
H280	H	1.230719	0.686628	0.838114
O281	O	0.865634	-0.566626	-0.241387
O282	O	1.115634	-0.316626	0.008613
O283	O	1.365634	-0.066626	0.258613
O284	O	1.615634	0.183374	0.508613
H285	H	0.802742	-0.541718	-0.227673
H286	H	1.052742	-0.291718	0.022327
H287	H	1.302742	-0.041718	0.272327
H288	H	1.552742	0.208282	0.522327
O289	O	0.823864	-0.000130	0.302549
O290	O	1.073864	0.249870	0.552549
O291	O	1.323864	0.499870	0.802549
O292	O	1.573864	0.749870	1.052549
H293	H	0.790490	-0.063348	0.320594
H294	H	1.040490	0.186652	0.570594
H295	H	1.290490	0.436652	0.820594
H296	H	1.540490	0.686652	1.070594
O297	O	1.077984	-0.161418	0.335869
O298	O	1.327984	0.088582	0.585869
O299	O	1.577984	0.338582	0.835869
O300	O	1.827984	0.588582	1.085869
H301	H	1.078828	-0.160772	0.266360
H302	H	1.328828	0.089228	0.516360
H303	H	1.578828	0.339228	0.766360
H304	H	1.828828	0.589228	1.016360
O305	O	0.906437	0.161127	0.434303
O306	O	1.156437	0.411127	0.684303
O307	O	1.406437	0.661127	0.934303
O308	O	1.656437	0.911127	1.184303
H309	H	0.840500	0.160964	0.403299
H310	H	1.090500	0.410964	0.653299
H311	H	1.340500	0.660964	0.903299
H312	H	1.590500	0.910964	1.153299
