data_functionalizedCrystal
_audit_creation_method	'MofGen! by Chris Wilmer'
_symmetry_space_group_name_H-M	'P1'
_symmetry_Int_Tables_number	1
_symmetry_cell_setting	triclinic
loop_
_symmetry_equiv_pos_as_xyz
  x,y,z
_cell_length_a	23.196402
_cell_length_b	14.560438
_cell_length_c	14.560438
_cell_angle_alpha	59.996693
_cell_angle_beta	89.999423
_cell_angle_gamma	60.001047
loop_
_atom_site_label
_atom_site_type_symbol
_atom_site_fract_x
_atom_site_fract_y
_atom_site_fract_z
Zr1	Zr	0.555365	1.005330	-0.120621
O2	O	0.463313	1.196938	-0.267277
O3	O	0.583583	0.813721	-0.075655
O4	O	0.583581	1.005333	-0.267272
O5	O	0.463317	1.005324	0.075480
O6	O	0.678450	1.005335	-0.267277
O7	O	0.463315	1.005326	-0.075661
O8	O	0.678454	0.662577	0.075490
O9	O	0.463314	1.348082	-0.267287
O10	O	0.666419	0.892534	-0.056492
O11	O	0.595620	0.892531	0.056307
O12	O	0.595617	1.118128	-0.169297
O13	O	0.524819	1.118125	-0.056498
Zr14	Zr	0.706675	1.005329	0.120422
Zr15	Zr	0.706671	1.005333	-0.120630
Zr16	Zr	0.555368	1.005325	0.120431
Zr17	Zr	0.555366	1.246386	-0.120637
Zr18	Zr	0.706674	0.764272	0.120438
O19	O	0.678457	1.196937	0.075456
O20	O	0.678451	1.196943	-0.267289
O21	O	0.463318	1.196932	0.075468
O22	O	0.798727	0.813721	0.267078
O23	O	0.798721	0.813727	-0.075667
O24	O	0.583588	0.813716	0.267090
O25	O	0.798722	1.005335	-0.075679
O26	O	0.678459	1.005326	0.267072
O27	O	0.583589	1.005324	0.267078
O28	O	0.798724	1.005332	0.075461
O29	O	0.583582	1.348085	-0.267294
O30	O	0.678457	0.662574	0.267094
O31	O	0.798726	0.662577	0.267088
O32	O	0.798723	0.662580	0.075484
O33	O	0.463317	1.348078	-0.075683
O34	O	0.583585	1.348081	-0.075689
O35	O	0.666422	0.892530	0.169098
O36	O	0.737221	0.892534	0.056299
O37	O	0.666420	1.118128	-0.056506
O38	O	0.595621	1.118124	0.056292
C39	C	0.631018	0.703804	-0.000080
C40	C	0.631018	0.601469	-0.000074
C41	C	0.578751	0.636683	-0.083353
C42	C	0.578754	0.540543	-0.083382
C43	C	0.683294	0.373976	0.083158
C44	C	0.683293	0.470115	0.083182
C45	C	0.441758	1.005325	-0.000089
C46	C	0.377525	1.005323	-0.000086
C47	C	0.384307	0.887569	0.058787
C48	C	0.323953	0.887567	0.058791
C49	C	0.256816	1.005326	-0.000098
C50	C	0.250037	1.123096	-0.058973
C51	C	0.310391	1.123094	-0.058967
C52	C	0.132886	1.095547	-0.098735
C53	C	0.072535	1.095544	-0.098745
C54	C	0.070662	1.005336	-0.000116
C55	C	0.129156	0.915110	0.098522
C56	C	0.189510	0.915109	0.098528
C57	C	0.191368	1.005341	-0.000111
C58	C	0.012004	0.887572	0.058767
C59	C	-0.048353	0.887575	0.058775
C60	C	-0.122269	1.123108	-0.059001
C61	C	-0.061912	1.123101	-0.058997
C62	C	0.005222	1.005330	-0.000116
C63	C	0.820281	1.005334	-0.000110
C64	C	0.884515	1.005336	-0.000114
C65	C	0.631015	1.005334	-0.301619
C66	C	0.631013	1.005336	-0.403952
C67	C	0.631021	1.306855	-0.000119
C68	C	0.631022	1.409190	-0.000126
C69	C	0.594057	1.123092	-0.510911
C70	C	0.594065	1.123086	-0.607060
C71	C	0.667988	0.887558	-0.489277
C72	C	0.667983	0.887565	-0.393130
C73	C	0.631025	1.005324	0.301420
C74	C	0.631026	1.005323	0.403753
C75	C	0.820280	0.703809	-0.000091
C76	C	0.884513	0.601475	-0.000088
C77	C	0.631023	0.703799	0.301439
C78	C	0.631024	0.601462	0.403779
C79	C	0.820285	0.703803	0.301429
C80	C	0.884519	0.601468	0.403765
C81	C	0.441755	1.306855	-0.301628
C82	C	0.377520	1.409190	-0.403964
C83	C	0.441760	1.306850	-0.000109
C84	C	0.377527	1.409184	-0.000112
C85	C	0.631016	1.306860	-0.301638
C86	C	0.631015	1.409197	-0.403978
C87	C	0.877720	0.553418	-0.058972
C88	C	0.938068	0.457278	-0.058992
C89	C	1.005208	0.409191	-0.000120
C90	C	1.012000	0.457257	0.058766
C91	C	0.951653	0.553402	0.058779
C92	C	0.951647	0.553413	0.392943
C93	C	1.012008	0.457271	0.489089
C94	C	1.005240	0.409181	0.596056
C95	C	0.938105	0.457246	0.606876
C96	C	0.877746	0.553392	0.510730
C97	C	0.310392	1.457258	-0.393142
C98	C	0.250031	1.553429	-0.489289
C99	C	0.256799	1.601524	-0.596255
C100	C	0.323934	1.553453	-0.607075
C101	C	0.384294	1.457290	-0.510930
C102	C	0.384320	1.457250	0.058763
C103	C	0.323972	1.553417	0.058756
C104	C	0.256831	1.601508	-0.000119
C105	C	0.250039	1.553437	-0.059001
C106	C	0.310386	1.457279	-0.059000
C107	C	0.667982	0.553382	0.510734
C108	C	0.667975	0.457235	0.606889
C109	C	0.594052	0.457252	0.489120
C110	C	0.594055	0.553404	0.392968
H111	H	0.725854	0.267019	0.150943
H112	H	0.698086	0.791673	-0.480479
O113	O	0.930732	0.405448	-0.122507
H114	H	0.956468	0.299376	-0.063069
O115	O	0.707845	0.405376	0.722244
H116	H	0.670535	0.423843	0.768867
O117	O	0.739668	0.432142	0.173010
H118	H	0.776012	0.324653	0.230909
H119	H	0.563953	0.418110	0.480331
O120	O	0.191695	1.705258	-0.699953
H121	H	0.143882	1.730592	-0.674446
O122	O	0.331231	1.605323	-0.722449
H123	H	0.277977	1.680252	-0.787476
O124	O	0.958989	0.605204	0.122317
H125	H	0.933270	0.711272	0.062894
H126	H	1.066675	0.418090	0.106697
H127	H	0.932605	0.418077	0.693981
H128	H	1.054341	0.330902	-0.000138
H129	H	1.066667	0.418146	0.480260
O130	O	0.456715	0.760551	0.122297
H131	H	0.451288	0.678668	0.163242
H132	H	0.563954	1.218988	-0.519729
O133	O	1.070345	0.305465	0.699754
H134	H	1.118158	0.280124	0.674247
O135	O	0.522380	0.778357	-0.173158
H136	H	0.486041	0.786687	-0.231080
H137	H	0.304868	1.418104	-0.306053
O138	O	0.707861	0.760560	-0.277748
H139	H	0.670559	0.754919	-0.231102
O140	O	0.134891	1.192860	-0.205127
H141	H	0.143261	1.253782	-0.190452
O142	O	0.456730	1.405401	0.122268
H143	H	0.497560	1.330451	0.112395
H144	H	0.329475	0.791675	0.106733
H145	H	0.698082	0.592512	0.519543
H146	H	0.957171	0.592554	0.305854
H147	H	0.563956	0.592555	0.305874
H148	H	0.536193	0.569227	-0.151198
H149	H	0.823056	0.592570	-0.106926
H150	H	0.823089	0.592507	0.519557
O151	O	0.177626	1.605244	-0.477608
H152	H	0.183067	1.555616	-0.387072
O153	O	0.456697	1.405431	-0.522607
H154	H	0.451255	1.455026	-0.613143
H155	H	0.195370	1.218976	-0.106921
O156	O	0.331305	1.605238	0.122282
H157	H	0.388132	1.555617	0.163238
H158	H	0.207698	1.679806	-0.000111
H159	H	0.304845	1.418146	-0.106939
H160	H	0.195365	1.592608	-0.106935
H161	H	0.127642	0.841634	0.178828
O162	O	0.252597	0.817811	0.204907
H163	H	0.241161	0.755084	0.273495
H164	H	-0.042824	0.791682	0.106724
O165	O	0.084418	0.760559	0.122277
H166	H	0.090560	0.704095	0.212776
O167	O	-0.194672	1.250126	-0.122525
H168	H	-0.235502	1.230347	-0.112646
H169	H	-0.067438	1.218989	-0.106946
O170	O	0.009447	1.192855	-0.205123
H171	H	0.020881	1.255600	-0.273699
H172	H	0.563972	1.218974	-0.694148
O173	O	0.303080	1.250105	-0.122479
H174	H	0.246258	1.331994	-0.163435
