data_functionalizedCrystal
_audit_creation_method	'MofGen! by Chris Wilmer'
_symmetry_space_group_name_H-M	'P1'
_symmetry_Int_Tables_number	1
_symmetry_cell_setting	triclinic
loop_
_symmetry_equiv_pos_as_xyz
  x,y,z
_cell_length_a	21.295418
_cell_length_b	21.295411
_cell_length_c	19.121063
_cell_angle_alpha	92.420548
_cell_angle_beta	92.485609
_cell_angle_gamma	89.956262
loop_
_atom_site_label
_atom_site_type_symbol
_atom_site_fract_x
_atom_site_fract_y
_atom_site_fract_z
Zn1	Zn	0.951686	-0.366916	-0.279403
Zn2	Zn	0.947104	-0.266131	-0.396839
Zn3	Zn	0.846408	-0.261627	-0.279436
Zn4	Zn	0.841894	-0.371328	-0.396853
O5	O	0.896773	-0.316500	-0.338133
O6	O	1.039169	-0.353585	-0.294962
O7	O	0.933718	-0.177444	-0.381273
O8	O	0.864180	-0.271862	-0.181145
O9	O	1.035802	-0.279538	-0.381241
O10	O	0.941528	-0.349217	-0.181121
O11	O	0.859737	-0.174135	-0.295018
O12	O	0.757719	-0.276140	-0.295031
O13	O	0.856486	-0.458831	-0.381265
O14	O	0.754403	-0.356737	-0.381297
O15	O	0.937150	-0.455590	-0.294975
O16	O	0.929341	-0.283817	-0.495127
O17	O	0.852043	-0.361104	-0.495138
C18	C	0.733220	-0.316429	-0.338170
C19	C	0.663251	-0.316414	-0.338202
C20	C	0.628671	-0.358323	-0.383180
C21	C	0.562929	-0.358351	-0.383163
C22	C	0.531769	-0.316458	-0.338175
C23	C	0.566357	-0.274546	-0.293188
C24	C	0.632098	-0.274524	-0.293202
N25	N	0.428703	-0.261191	-0.332678
N26	N	0.366252	-0.261214	-0.332669
C27	C	0.333696	-0.316523	-0.338130
N28	N	0.365950	-0.371811	-0.343615
N29	N	0.428407	-0.371788	-0.343627
C30	C	0.460485	-0.316478	-0.338155
C31	C	0.227832	-0.358466	-0.383092
C32	C	0.162089	-0.358494	-0.383070
C33	C	0.165518	-0.274685	-0.293099
C34	C	0.231260	-0.274662	-0.293117
C35	C	0.262413	-0.316551	-0.338118
C36	C	0.889722	-0.323442	-0.520617
C37	C	0.886763	-0.326433	-0.598685
C38	C	0.896826	-0.480690	-0.338118
C39	C	0.896849	-0.550658	-0.338112
C40	C	1.060965	-0.316572	-0.338096
C41	C	1.130934	-0.316602	-0.338081
C42	C	0.938849	-0.581837	-0.293178
C43	C	0.938849	-0.647579	-0.293148
C44	C	0.896855	-0.682138	-0.338063
C45	C	0.854847	-0.650951	-0.382999
C46	C	0.854844	-0.585211	-0.383024
N47	N	0.889652	-0.787701	-0.399507
N48	N	0.889659	-0.850152	-0.399482
C49	C	0.896862	-0.880211	-0.337992
N50	N	0.904070	-0.845460	-0.276526
N51	N	0.904066	-0.783003	-0.276552
C52	C	0.896854	-0.753423	-0.338042
C53	C	0.938865	-0.982674	-0.293022
C54	C	0.938861	-1.048417	-0.292990
C55	C	0.854862	-1.051788	-0.382848
C56	C	0.854863	-0.986047	-0.382874
C57	C	0.896868	-0.951494	-0.337961
C58	C	0.896759	-0.152947	-0.338097
C59	C	0.896866	-0.082972	-0.337905
C60	C	0.925649	-0.287631	-0.635332
C61	C	0.922870	-0.290448	-0.708685
C62	C	0.881202	-0.332063	-0.745389
C63	C	0.842314	-0.370868	-0.708736
C64	C	0.845097	-0.368054	-0.635385
C65	C	0.870788	-0.342573	-0.966864
C66	C	0.868007	-0.345382	-1.040221
C67	C	0.948564	-0.264963	-1.040165
C68	C	0.951340	-0.262150	-0.966812
C69	C	0.912455	-0.300958	-0.930165
C70	C	0.878359	-0.334941	-0.820367
C71	C	0.915302	-0.298082	-0.855188
C72	C	0.903869	-0.309545	-0.154936
C73	C	0.906893	-0.306581	-0.076868
H74	H	0.660252	-0.240397	-0.256573
O75	O	0.832985	-0.380173	-0.931191
C76	C	0.793943	-0.342655	-0.888844
H77	H	0.816588	-0.294558	-0.877857
H78	H	0.787451	-0.366306	-0.837259
H79	H	0.746222	-0.336764	-0.917174
H80	H	0.820665	-0.960660	-0.419467
O81	O	0.135156	-0.233998	-0.249480
C82	C	0.069716	-0.243007	-0.259106
H83	H	0.058645	-0.265631	-0.313333
H84	H	0.044875	-0.195682	-0.254289
H85	H	0.052712	-0.274993	-0.217482
H86	H	0.973049	-0.672970	-0.256554
O87	O	0.264757	-0.233886	-0.249408
C88	C	0.223160	-0.196927	-0.209682
H89	H	0.175171	-0.195814	-0.238437
H90	H	0.242396	-0.147046	-0.202112
H91	H	0.218278	-0.218032	-0.156376
O92	O	0.128568	-0.399293	-0.426731
C93	C	0.145289	-0.461471	-0.411486
H94	H	0.194078	-0.461774	-0.384498
H95	H	0.145588	-0.491546	-0.462227
H96	H	0.109724	-0.481373	-0.375406
O97	O	0.960666	-0.252691	-0.744176
C98	C	0.998048	-0.215365	-0.696051
H99	H	0.974246	-0.211150	-0.643797
H100	H	1.003980	-0.166590	-0.717265
H101	H	1.046146	-0.238172	-0.688176
O102	O	0.979635	-1.078631	-0.249239
C103	C	0.968582	-1.059889	-0.179246
H104	H	0.944437	-1.012084	-0.177817
H105	H	1.015235	-1.056467	-0.147747
H106	H	0.937138	-1.095960	-0.155576
H107	H	0.949231	-0.264201	-0.825302
O108	O	0.814143	-0.684550	-0.426707
C109	C	0.848228	-0.724343	-0.472040
H110	H	0.897638	-0.704732	-0.476373
H111	H	0.823367	-0.727136	-0.526097
H112	H	0.851242	-0.773340	-0.450307
O113	O	0.979576	-0.949033	-0.249361
C114	C	0.945494	-0.909254	-0.204010
H115	H	0.896828	-0.900318	-0.228795
H116	H	0.971499	-0.862684	-0.194616
H117	H	0.940597	-0.932591	-0.151949
H118	H	0.844431	-0.368823	-0.850259
O119	O	0.986363	-0.227208	-1.075655
C120	C	1.023750	-0.189888	-1.027529
H121	H	0.999948	-0.185671	-0.975276
H122	H	1.029688	-0.141113	-1.048742
H123	H	1.071844	-0.212701	-1.019655
O124	O	0.814025	-0.555020	-0.426745
C125	C	0.776946	-0.599616	-0.466370
H126	H	0.802634	-0.646591	-0.468775
H127	H	0.768090	-0.582731	-0.521718
H128	H	0.730132	-0.605585	-0.440659
O129	O	0.966037	-0.247137	-0.599649
C130	C	0.931827	-0.204818	-0.557274
H131	H	0.881409	-0.201718	-0.579442
H132	H	0.954651	-0.156371	-0.556443
H133	H	0.931758	-0.222145	-0.501674
H134	H	0.808389	-0.404755	-0.738626
H135	H	0.985270	-0.228264	-0.936929
O136	O	0.827516	-0.385869	-1.075767
C137	C	0.793781	-0.419510	-1.027694
H138	H	0.821547	-0.419715	-0.975373
H139	H	0.786246	-0.469910	-1.048872
H140	H	0.746274	-0.396108	-1.019965
O141	O	0.814133	-1.085448	-0.426462
C142	C	0.823132	-1.150159	-0.416796
H143	H	0.872601	-1.158293	-0.393771
H144	H	0.816833	-1.177148	-0.469399
H145	H	0.787238	-1.167362	-0.379402
H146	H	0.813433	-0.399651	-0.605547
H147	H	0.654032	-0.392434	-0.419822
H148	H	0.534769	-0.392480	-0.419789
H149	H	0.253198	-0.392578	-0.419730
O150	O	0.536060	-0.233785	-0.249591
C151	C	0.496421	-0.194609	-0.289506
H152	H	0.514068	-0.192741	-0.344821
H153	H	0.496620	-0.145232	-0.264026
H154	H	0.446521	-0.214175	-0.291947
H155	H	0.973051	-0.553708	-0.256607
