data_functionalizedCrystal
_audit_creation_method	'MofGen! by Chris Wilmer'
_symmetry_space_group_name_H-M	'P1'
_symmetry_Int_Tables_number	1
_symmetry_cell_setting	triclinic
loop_
_symmetry_equiv_pos_as_xyz
  x,y,z
_cell_length_a	6.817900
_cell_length_b	10.943632
_cell_length_c	19.453030
_cell_angle_alpha	94.440722
_cell_angle_beta	101.707737
_cell_angle_gamma	108.838880
loop_
_atom_site_label
_atom_site_type_symbol
_atom_site_fract_x
_atom_site_fract_y
_atom_site_fract_z
V1	V	-4.034365	-0.179974	-0.218982
O2	O	-3.993612	0.007265	-0.214830
O3	O	-4.012876	-0.355528	-0.217467
O4	O	-3.976941	-0.177812	-0.314495
O5	O	-4.029796	-0.171680	-0.117131
V6	V	-4.515675	-0.157506	-0.206802
O7	O	-4.300477	-0.229258	-0.245700
O8	O	-4.699760	-0.108221	-0.180084
O9	O	-4.313957	0.018048	-0.208316
O10	O	-4.673825	-0.344745	-0.210953
O11	O	-4.637641	-0.165800	-0.308652
O12	O	-4.349892	-0.159668	-0.111289
C13	C	-3.864716	-0.398305	-0.214009
C14	C	-3.928373	-0.541826	-0.213407
C15	C	-3.774701	-0.618954	-0.209407
C16	C	-3.874544	-0.691253	-0.152705
C17	C	-3.941980	-0.725260	-0.269044
C18	C	-4.027350	-0.612221	-0.156665
C19	C	-4.094786	-0.646234	-0.273056
C20	C	-4.194743	-0.718495	-0.216343
C21	C	-3.818876	-0.171610	-0.337776
C22	C	-3.853387	-0.171004	-0.415858
C23	C	-3.926970	-0.289015	-0.462552
C24	C	-3.959423	-0.288460	-0.535920
C25	C	-3.918248	-0.169885	-0.562590
C26	C	-3.844665	-0.051858	-0.515886
C27	C	-3.812235	-0.052418	-0.442520
N28	N	-3.812320	-0.076918	-0.668093
N29	N	-3.843127	-0.076394	-0.737788
C30	C	-4.015959	-0.168192	-0.783638
N31	N	-4.156805	-0.260552	-0.757160
N32	N	-4.125988	-0.261080	-0.687458
C33	C	-3.953408	-0.169265	-0.642142
C34	C	-4.124738	-0.285609	-0.909887
C35	C	-4.157201	-0.285050	-0.983256
C36	C	-4.042421	-0.048444	-0.963220
C37	C	-4.009980	-0.049008	-0.889853
C38	C	-4.051133	-0.167594	-0.863190
C39	C	-4.125461	0.060818	-0.211773
C40	C	-4.041042	0.204338	-0.212379
C41	C	-4.171301	-0.165874	-0.088004
C42	C	-4.116027	-0.166474	-0.009921
H43	H	-3.596499	-0.575452	-0.206408
H44	H	-4.372920	-0.761737	-0.219255
O45	O	-3.740486	0.062148	-0.397080
C46	C	-3.544605	0.075065	-0.350658
H47	H	-3.531663	-0.025680	-0.347235
H48	H	-3.536574	0.123349	-0.295590
H49	H	-3.407185	0.137971	-0.371608
H50	H	-4.062798	-0.563161	-0.109125
H51	H	-3.906471	-0.774471	-0.316521
O52	O	-3.967459	-0.404336	-0.436780
C53	C	-4.039482	-0.508382	-0.493735
H54	H	-4.108940	-0.475452	-0.544352
H55	H	-4.167883	-0.594611	-0.481486
H56	H	-3.899869	-0.539217	-0.501423
O57	O	-4.205320	-0.621960	-0.333751
C58	C	-4.426080	-0.674910	-0.337897
H59	H	-4.457721	-0.756559	-0.304155
H60	H	-4.516112	-0.715880	-0.395523
H61	H	-4.482922	-0.595111	-0.317367
O62	O	-3.764173	-0.715832	-0.092071
C63	C	-3.645032	-0.792566	-0.109485
H64	H	-3.720506	-0.847549	-0.165893
H65	H	-3.644171	-0.865557	-0.070772
H66	H	-3.474082	-0.726645	-0.105871
O67	O	-4.002402	0.066854	-0.989001
C68	C	-3.930430	0.170901	-0.932048
H69	H	-3.987614	0.133576	-0.883929
H70	H	-3.997012	0.250358	-0.948144
H71	H	-3.748471	0.212904	-0.918020
O72	O	-4.031250	-0.403078	-0.581326
C73	C	-4.227073	-0.415969	-0.627777
H74	H	-4.306138	-0.353316	-0.602358
H75	H	-4.336470	-0.522657	-0.638616
H76	H	-4.196963	-0.382359	-0.679916
H77	H	-4.158250	-0.382169	-0.888178
H78	H	-3.950051	0.047090	-0.851832
H79	H	-3.811147	0.044686	-0.537606
H80	H	-4.217135	-0.381153	-1.021275
