data_functionalizedCrystal
_audit_creation_method	'MofGen! by Chris Wilmer'
_symmetry_space_group_name_H-M	'P1'
_symmetry_Int_Tables_number	1
_symmetry_cell_setting	triclinic
loop_
_symmetry_equiv_pos_as_xyz
  x,y,z
_cell_length_a	15.500361
_cell_length_b	10.654550
_cell_length_c	10.654550
_cell_angle_alpha	95.515069
_cell_angle_beta	92.864502
_cell_angle_gamma	92.859014
loop_
_atom_site_label
_atom_site_type_symbol
_atom_site_fract_x
_atom_site_fract_y
_atom_site_fract_z
O1	O	0.071878	-1.662068	0.182171
O2	O	0.071894	-1.296589	0.198979
O3	O	0.071881	-1.487732	0.007835
O4	O	0.071892	-1.470925	0.373315
O5	O	-0.072006	-1.499271	-0.003726
O6	O	-0.071992	-1.308128	0.187418
O7	O	-0.072008	-1.673608	0.170610
Cu8	Cu	-0.085138	-1.491921	0.177958
Cu9	Cu	0.085024	-1.478275	0.191631
O10	O	-0.071994	-1.482464	0.361754
C11	C	-0.000047	-1.255560	0.191964
C12	C	-0.000041	-1.116116	0.188273
N13	N	-0.204821	-1.501529	0.168341
C14	C	-0.250113	-1.420520	0.249304
C15	C	-0.340685	-1.427821	0.242026
C16	C	-0.385963	-1.516127	0.153779
C17	C	-0.340664	-1.597145	0.072813
C18	C	-0.250094	-1.589848	0.080097
C19	C	-0.659424	-1.542399	0.127556
C20	C	-0.750001	-1.549687	0.120275
C21	C	-0.750015	-1.380364	0.289491
C22	C	-0.659443	-1.373070	0.296763
C23	C	-0.614153	-1.454092	0.215801
C24	C	-0.478541	-1.523590	0.146335
C25	C	-0.521576	-1.446634	0.223252
C26	C	-0.000062	-1.492268	-0.044743
C27	C	-0.000061	-1.488576	-0.184186
N28	N	0.204707	-1.468677	0.201238
C29	C	-0.000065	-1.714636	0.177625
C30	C	-0.000065	-1.854079	0.181317
C31	C	-0.000040	-1.036631	0.300814
C32	C	-0.000055	-0.905611	0.297337
C33	C	-0.000069	-0.933575	0.068766
C34	C	-0.000060	-1.064593	0.072245
C35	C	-0.000065	-1.601118	-0.263672
C36	C	-0.000055	-1.597640	-0.394692
C37	C	-0.000038	-1.369069	-0.366728
C38	C	-0.000043	-1.372548	-0.235710
C39	C	-0.000050	-1.477929	0.414332
C40	C	-0.000046	-1.481620	0.553776
H41	H	-0.213254	-1.348607	0.321159
H42	H	-0.000063	-1.129314	-0.019406
H43	H	-0.786862	-1.621599	0.048408
N44	N	-0.000062	-0.880941	-0.049746
N45	N	0.060590	-0.900060	-0.121002
H46	H	0.060598	-0.862889	-0.204705
N47	N	-0.000053	-1.712611	-0.475866
N48	N	-0.000064	-1.816191	-0.429840
H49	H	-0.000060	-1.897396	-0.487168
H50	H	-0.484708	-1.374740	0.295108
H51	H	-0.622556	-1.608368	0.061632
H52	H	-0.515414	-1.595488	0.074480
H53	H	-0.377534	-1.669052	0.000964
H54	H	-0.377561	-1.361858	0.307953
H55	H	-0.000037	-1.280896	-0.170988
H56	H	-0.000056	-0.840898	0.388980
N57	N	-0.000086	-1.719643	-0.211062
N58	N	-0.000091	-1.820117	-0.282052
H59	H	-0.000105	-1.903831	-0.244901
N60	N	-0.000040	-1.089243	0.419339
N61	N	-0.060693	-1.070120	0.490592
H62	H	-0.060696	-1.107273	0.574304
N63	N	-0.613210	-1.282850	0.386904
N64	N	-0.653660	-1.210521	0.459182
H65	H	-0.621008	-1.146796	0.522841
N66	N	-0.796292	-1.297615	0.372175
N67	N	-0.877157	-1.304135	0.365662
H68	H	-0.909841	-1.245692	0.424063
H69	H	-0.213218	-1.655816	0.014171
H70	H	-0.000026	-1.274603	-0.408695
