data_functionalizedCrystal
_audit_creation_method	'MofGen! by Chris Wilmer'
_symmetry_space_group_name_H-M	'P1'
_symmetry_Int_Tables_number	1
_symmetry_cell_setting	triclinic
loop_
_symmetry_equiv_pos_as_xyz
  x,y,z
_cell_length_a	12.759401
_cell_length_b	16.959453
_cell_length_c	12.759393
_cell_angle_alpha	89.964958
_cell_angle_beta	89.981504
_cell_angle_gamma	90.020149
loop_
_atom_site_label
_atom_site_type_symbol
_atom_site_fract_x
_atom_site_fract_y
_atom_site_fract_z
Zn1	Zn	1.606217	-0.314632	-0.593956
Zn2	Zn	1.606095	-0.446833	-0.418265
Zn3	Zn	1.430519	-0.314673	-0.418295
Zn4	Zn	1.430491	-0.446772	-0.593907
O5	O	1.518330	-0.380727	-0.506106
O6	O	1.753222	-0.332177	-0.570658
O7	O	1.582765	-0.429345	-0.271248
O8	O	1.453888	-0.204057	-0.441630
O9	O	1.753132	-0.429304	-0.441579
O10	O	1.582973	-0.204026	-0.570687
O11	O	1.453770	-0.332247	-0.271270
O12	O	1.283494	-0.332188	-0.441583
O13	O	1.453841	-0.429201	-0.740935
O14	O	1.283474	-0.429241	-0.570604
O15	O	1.582946	-0.332118	-0.740971
O16	O	1.582738	-0.557436	-0.441532
O17	O	1.453723	-0.557391	-0.570575
C18	C	1.245363	-0.380713	-0.506092
C19	C	1.128586	-0.380726	-0.506110
C20	C	1.518243	-0.586094	-0.506067
C21	C	1.518301	-0.673950	-0.506086
C22	C	1.073741	-0.431342	-0.573181
C23	C	0.964017	-0.431352	-0.573192
C24	C	0.963993	-0.330127	-0.439054
C25	C	1.073715	-0.330114	-0.439049
C26	C	1.073754	-0.489786	-0.650621
C27	C	0.964030	-0.489796	-0.650632
C28	C	1.585631	-1.045352	-0.573433
C29	C	1.451323	-1.045500	-0.438935
C30	C	1.451284	-0.962954	-0.438911
C31	C	1.518419	-0.921603	-0.506150
C32	C	1.585592	-0.962798	-0.573413
C33	C	1.384105	-0.921753	-0.371657
C34	C	1.384063	-0.839202	-0.371631
C35	C	1.451203	-0.797850	-0.438865
C36	C	1.518379	-0.839050	-0.506130
C37	C	1.585514	-0.797699	-0.573369
C38	C	1.652696	-0.838897	-0.640629
C39	C	1.652732	-0.921445	-0.640647
C40	C	1.451167	-0.715301	-0.438847
C41	C	1.585475	-0.715145	-0.573349
C42	C	1.792364	-0.380743	-0.506121
C43	C	1.909140	-0.380749	-0.506127
C44	C	1.518404	-0.380648	-0.780139
C45	C	1.518435	-0.380614	-0.896916
C46	C	1.518447	-0.174559	-0.506168
C47	C	1.518497	-0.086703	-0.506194
C48	C	1.585669	-0.330058	-0.951799
C49	C	1.585694	-0.330029	-1.061523
C50	C	1.451248	-0.431120	-1.061472
C51	C	1.451219	-0.431144	-0.951750
C52	C	1.663294	-0.271696	-0.951829
C53	C	1.663319	-0.271668	-1.061553
C54	C	1.518318	-0.380750	-0.233139
C55	C	1.518490	-0.380561	-0.116362
H56	H	0.919303	-0.288920	-0.384456
H57	H	1.707353	-0.805219	-0.695381
C58	C	1.659531	-1.090661	-0.647413
H59	H	1.699511	-1.054208	-0.687447
H60	H	1.619340	-1.122862	-0.693163
H61	H	1.705351	-1.122857	-0.607259
H62	H	1.396662	-1.079173	-0.384197
C63	C	1.134046	-0.274429	-0.365285
H64	H	1.207252	-0.281663	-0.374892
H65	H	1.116038	-0.285926	-0.294665
H66	H	1.116081	-0.221336	-0.380808
H67	H	1.329360	-0.805664	-0.316863
H68	H	1.396463	-0.681762	-0.384090
H69	H	0.934227	-0.550999	-0.628695
H70	H	1.740563	-0.293641	-0.917791
H71	H	1.396521	-0.472257	-1.106131
C72	C	1.773231	-0.293820	-1.101793
H73	H	1.773245	-0.293792	-1.176250
H74	H	1.791369	-0.344838	-1.076967
H75	H	1.822884	-0.256484	-1.076997
C76	C	1.633883	-0.189009	-0.911629
H77	H	1.621797	-0.154987	-0.969555
H78	H	1.689569	-0.168679	-0.870279
H79	H	1.572118	-0.192350	-0.870266
H80	H	1.707428	-0.954996	-0.695408
H81	H	1.640148	-0.681482	-0.628100
C82	C	1.310257	-0.967235	-0.297706
H83	H	1.270233	-0.930878	-0.257655
H84	H	1.350483	-0.999444	-0.251969
H85	H	1.264476	-0.999437	-0.337876
H86	H	1.634213	-0.213504	-1.095605
C87	C	1.377242	-0.486740	-0.891382
H88	H	1.337220	-0.516830	-0.939757
H89	H	1.331480	-0.456498	-0.848596
H90	H	1.417389	-0.521202	-0.848563
C91	C	1.114039	-0.467733	-0.760588
H92	H	1.188497	-0.467734	-0.760581
H93	H	1.089251	-0.416744	-0.778894
H94	H	1.089234	-0.505131	-0.810131
C95	C	1.119709	-0.568299	-0.611067
H96	H	1.194070	-0.565611	-0.612407
H97	H	1.096724	-0.610045	-0.655031
H98	H	1.096694	-0.577670	-0.541346
C99	C	0.918097	-0.460279	-0.755124
H100	H	0.973568	-0.447132	-0.801653
H101	H	0.876201	-0.414937	-0.742753
H102	H	0.876195	-0.500566	-0.785439
