data_functionalizedCrystal
_audit_creation_method	'MofGen! by Chris Wilmer'
_symmetry_space_group_name_H-M	'P1'
_symmetry_Int_Tables_number	1
_symmetry_cell_setting	triclinic
loop_
_symmetry_equiv_pos_as_xyz
  x,y,z
_cell_length_a	13.635800
_cell_length_b	19.452420
_cell_length_c	11.102315
_cell_angle_alpha	85.479188
_cell_angle_beta	71.393725
_cell_angle_gamma	101.696715
loop_
_atom_site_label
_atom_site_type_symbol
_atom_site_fract_x
_atom_site_fract_y
_atom_site_fract_z
V1	V	-2.038358	-0.097187	0.396880
O2	O	-2.036122	0.004666	0.388685
O3	O	-2.009635	-0.192701	0.394781
O4	O	-2.027019	-0.095693	0.569692
O5	O	-2.018618	-0.093013	0.212563
V6	V	-2.279092	-0.085004	0.374759
O7	O	-2.171242	-0.123911	0.445403
O8	O	-2.371307	-0.058279	0.326236
O9	O	-2.196212	0.010511	0.376858
O10	O	-2.340027	-0.186857	0.382954
O11	O	-2.357531	-0.089177	0.559076
O12	O	-2.178829	-0.086497	0.201947
V13	V	-1.538358	-0.097187	0.396880
O14	O	-1.536122	0.004666	0.388685
O15	O	-1.509635	-0.192701	0.394781
O16	O	-1.527019	-0.095693	0.569692
O17	O	-1.518618	-0.093013	0.212563
V18	V	-1.779092	-0.085004	0.374759
O19	O	-1.671242	-0.123911	0.445403
O20	O	-1.871307	-0.058279	0.326236
O21	O	-1.696212	0.010511	0.376858
O22	O	-1.840027	-0.186857	0.382954
O23	O	-1.857531	-0.089177	0.559076
O24	O	-1.678829	-0.086497	0.201947
C25	C	-1.930619	-0.215985	0.388678
C26	C	-1.947864	-0.294070	0.388114
C27	C	-1.927676	-0.320698	0.271383
C28	C	-1.943912	-0.394064	0.270814
C29	C	-1.980316	-0.440800	0.386981
C30	C	-2.000511	-0.414165	0.503728
C31	C	-1.984285	-0.340800	0.504295
N32	N	-1.969803	-0.561249	0.468795
N33	N	-1.985214	-0.630942	0.468249
C34	C	-2.029209	-0.661846	0.385281
N35	N	-2.057194	-0.620421	0.302860
N36	N	-2.041777	-0.550721	0.303402
C37	C	-1.997915	-0.520353	0.386380
C38	C	-2.026626	-0.768026	0.267925
C39	C	-2.042869	-0.841394	0.267361
C40	C	-2.099458	-0.861493	0.500278
C41	C	-2.083224	-0.788126	0.500839
C42	C	-2.046803	-0.741396	0.384659
C43	C	-1.952793	-0.092241	0.611793
C44	C	-1.984133	-0.091653	0.753072
C45	C	-2.106899	0.033791	0.382957
C46	C	-2.079274	0.111875	0.383529
C47	C	-2.084725	-0.089951	0.159839
C48	C	-2.043004	-0.090536	0.018558
C49	C	-1.430619	-0.215985	0.388678
C50	C	-1.447864	-0.294070	0.388114
C51	C	-1.452793	-0.092241	0.611793
C52	C	-1.484133	-0.091653	0.753072
C53	C	-2.166902	-0.098672	0.766087
C54	C	-2.273007	-0.101907	0.838966
C55	C	-2.302447	-0.101353	0.971709
C56	C	-2.225773	-0.097561	1.031574
C57	C	-2.119669	-0.094326	0.958695
C58	C	-2.090238	-0.094883	0.825950
C59	C	-1.936900	-0.087301	0.945679
C60	C	-1.907459	-0.087861	0.812938
C61	C	-1.860226	-0.083509	1.005544
C62	C	-1.754120	-0.080279	0.932666
C63	C	-1.724682	-0.080834	0.799916
C64	C	-1.801354	-0.084625	0.740058
C65	C	-1.606899	0.033791	0.382957
C66	C	-1.579274	0.111875	0.383529
C67	C	-1.584725	-0.089951	0.159839
C68	C	-1.543004	-0.090536	0.018558
C69	C	-1.547338	-0.334321	0.394222
C70	C	-1.563560	-0.407691	0.393711
C71	C	-1.480304	-0.440809	0.387084
C72	C	-1.380823	-0.400553	0.380979
C73	C	-1.364604	-0.327184	0.381499
C74	C	-1.652294	0.152125	0.377425
C75	C	-1.626344	0.225496	0.377942
C76	C	-1.527377	0.258613	0.384573
C77	C	-1.454351	0.218358	0.390674
C78	C	-1.480298	0.144990	0.390147
C79	C	-1.521250	-0.220305	0.790223
C80	C	-1.554528	-0.284351	0.875168
C81	C	-1.583975	-0.283794	1.007911
C82	C	-1.580146	-0.219183	1.055709
C83	C	-1.546868	-0.155137	0.970763
C84	C	-1.517419	-0.155701	0.838019
C85	C	-1.509758	-0.026486	0.933614
C86	C	-1.480303	-0.027042	0.800870
C87	C	-1.505928	0.038124	0.981412
C88	C	-1.472642	0.102172	0.896465
C89	C	-1.443193	0.101612	0.763715
C90	C	-1.447025	0.037004	0.715924
H91	H	-1.927471	-0.415749	0.175754
C92	C	-2.040553	-0.465570	0.631514
C93	C	-2.058396	-0.546269	0.630897
C94	C	-2.098444	-0.597675	0.758688
C95	C	-2.120650	-0.568381	0.887097
C96	C	-2.102807	-0.487678	0.887719
C97	C	-2.062759	-0.436273	0.759928
H98	H	-2.041958	-0.567958	0.535837
H99	H	-2.111652	-0.657417	0.758227
H100	H	-2.150296	-0.606434	0.981696
H101	H	-2.119245	-0.465989	0.982779
H102	H	-2.049550	-0.376531	0.760389
C103	C	-1.706688	0.269764	0.371246
C104	C	-1.817407	0.253058	0.476873
C105	C	-1.897753	0.297324	0.470179
C106	C	-1.867378	0.358295	0.357858
C107	C	-1.756653	0.375004	0.252223
C108	C	-1.676308	0.330739	0.258916
H109	H	-1.839897	0.207921	0.560027
H110	H	-1.979718	0.284954	0.548378
H111	H	-1.926854	0.391063	0.352903
H112	H	-1.734163	0.420141	0.169068
H113	H	-1.594342	0.343108	0.180717
H114	H	-2.026435	-0.863072	0.172301
C115	C	-1.558736	-0.355420	0.822589
C116	C	-1.526341	-0.356041	0.676579
C117	C	-1.530550	-0.427110	0.624006
C118	C	-1.567155	-0.497558	0.717443
C119	C	-1.599553	-0.496940	0.863462
C120	C	-1.595343	-0.425871	0.916035
H121	H	-1.499241	-0.303888	0.607403
H122	H	-1.506567	-0.427567	0.515912
H123	H	-1.570272	-0.550168	0.678525
H124	H	-1.626652	-0.549093	0.932638
H125	H	-1.619326	-0.425414	1.024129
H126	H	-1.691701	-0.077187	0.981418
H127	H	-1.373770	0.245334	0.396071
C128	C	-1.620573	-0.354241	1.101364
C129	C	-1.732966	-0.374892	1.203928
C130	C	-1.769559	-0.445338	1.297384
C131	C	-1.693760	-0.495132	1.288276
C132	C	-1.581361	-0.474481	1.185708
C133	C	-1.544768	-0.404036	1.092252
H134	H	-1.789083	-0.338031	1.210673
H135	H	-1.852764	-0.460624	1.373311
H136	H	-1.720849	-0.547279	1.357458
H137	H	-1.525244	-0.511343	1.178963
H138	H	-1.461562	-0.388750	1.016325
H139	H	-1.420834	0.112222	0.395130
H140	H	-1.313041	-0.427529	0.375583
H141	H	-2.249751	-0.097101	1.139659
H142	H	-1.283599	-0.294417	0.376519
H143	H	-1.884203	-0.083054	1.113630
C144	C	-1.612547	-0.218571	1.201727
C145	C	-1.551907	-0.250299	1.278774
C146	C	-1.584310	-0.249686	1.424793
C147	C	-1.677352	-0.217345	1.493766
C148	C	-1.737998	-0.185615	1.416718
C149	C	-1.705596	-0.186228	1.270699
H150	H	-1.483026	-0.274241	1.227716
H151	H	-1.539415	-0.273174	1.481828
H152	H	-1.701339	-0.216891	1.601858
H153	H	-1.806879	-0.161672	1.467776
H154	H	-1.750490	-0.162739	1.213664
H155	H	-2.142942	-0.099133	0.658004
H156	H	-1.493524	-0.500551	0.386661
C157	C	-2.139522	-0.912888	0.628074
C158	C	-2.073622	-0.907707	0.718186
C159	C	-2.113702	-0.959104	0.845991
C160	C	-2.219682	-1.015682	0.883684
C161	C	-2.285588	-1.020866	0.793570
C162	C	-2.245508	-0.969469	0.665765
H163	H	-1.995164	-0.865822	0.690285
H164	H	-2.064913	-0.955266	0.912699
H165	H	-2.249351	-1.053729	0.978292
H166	H	-2.364047	-1.062751	0.821470
H167	H	-2.294297	-0.973306	0.599057
H168	H	-1.423042	0.036543	0.607840
H169	H	-1.644568	-0.440457	0.398679
C170	C	-1.468435	0.173237	0.949043
C171	C	-1.500837	0.173851	1.095056
C172	C	-1.496629	0.244917	1.147639
C173	C	-1.460020	0.315369	1.054210
C174	C	-1.427616	0.314757	0.908189
C175	C	-1.431823	0.243691	0.855605
H176	H	-1.527939	0.121696	1.164225
H177	H	-1.520617	0.245370	1.255734
H178	H	-1.456905	0.367976	1.093136
H179	H	-1.400513	0.366912	0.839019
H180	H	-1.407835	0.243239	0.747510
H181	H	-1.732884	0.125171	0.372027
C182	C	-1.406586	0.172065	0.670275
C183	C	-1.294187	0.192720	0.567727
C184	C	-1.257579	0.263174	0.474292
C185	C	-1.333371	0.312973	0.483404
C186	C	-1.445777	0.292320	0.585957
C187	C	-1.482385	0.221866	0.679392
H188	H	-1.238075	0.155855	0.560978
H189	H	-1.174368	0.278463	0.398376
H190	H	-1.306272	0.365127	0.414238
H191	H	-1.501889	0.329185	0.592706
H192	H	-1.565595	0.206577	0.755308
H193	H	-1.898028	-0.282654	0.176780
H194	H	-2.000728	-0.319121	0.599354
H195	H	-1.529915	0.038573	1.089499
H196	H	-2.335429	-0.104992	0.790209
C197	C	-1.986577	-0.716618	0.140134
C198	C	-1.964388	-0.745912	0.011726
C199	C	-1.924341	-0.694507	-0.116065
C200	C	-1.906482	-0.613807	-0.115449
C201	C	-1.928671	-0.584509	0.012963
C202	C	-1.968719	-0.635914	0.140754
H203	H	-1.977608	-0.805655	0.011266
H204	H	-1.907915	-0.716196	-0.211125
H205	H	-1.876837	-0.575754	-0.210048
H206	H	-1.915452	-0.524767	0.013423
H207	H	-1.985144	-0.614225	0.235814
H208	H	-1.638277	-0.078183	0.740580
H209	H	-2.099656	-0.766446	0.595894
H210	H	-2.388845	-0.103986	1.031048
H211	H	-1.777395	-0.085082	0.631974
H212	H	-1.615139	-0.307366	0.399611
H213	H	-1.497259	-0.220764	0.682137
H214	H	-1.506263	0.318355	0.384999
