data_functionalizedCrystal
_audit_creation_method	'MofGen! by Chris Wilmer'
_symmetry_space_group_name_H-M	'P1'
_symmetry_Int_Tables_number	1
_symmetry_cell_setting	triclinic
loop_
_symmetry_equiv_pos_as_xyz
  x,y,z
_cell_length_a	21.295417
_cell_length_b	19.805407
_cell_length_c	19.805399
_cell_angle_alpha	89.978275
_cell_angle_beta	90.030843
_cell_angle_gamma	89.968266
loop_
_atom_site_label
_atom_site_type_symbol
_atom_site_fract_x
_atom_site_fract_y
_atom_site_fract_z
Zn1	Zn	-0.250603	-1.034716	0.382743
Zn2	Zn	-0.355872	-1.034623	0.269548
Zn3	Zn	-0.250623	-0.921531	0.269563
Zn4	Zn	-0.355841	-0.921486	0.382691
O5	O	-0.303235	-0.978089	0.326137
O6	O	-0.264572	-1.129421	0.367743
O7	O	-0.341932	-1.019601	0.174834
O8	O	-0.162531	-0.936603	0.284605
O9	O	-0.341913	-1.129352	0.284580
O10	O	-0.162516	-1.019760	0.367758
O11	O	-0.264606	-0.936513	0.174845
O12	O	-0.264575	-0.826809	0.284555
O13	O	-0.341859	-0.936527	0.477414
O14	O	-0.341878	-0.826776	0.367669
O15	O	-0.264542	-1.019717	0.477453
O16	O	-0.443957	-1.019558	0.284529
O17	O	-0.443934	-0.936437	0.367654
C18	C	-0.303226	-0.802233	0.326108
C19	C	-0.303238	-0.727001	0.326112
C20	C	-0.263031	-0.265249	0.369516
C21	C	-0.263032	-0.335938	0.369513
C22	C	-0.303237	-0.371240	0.326144
C23	C	-0.343447	-0.335849	0.282781
C24	C	-0.343448	-0.265162	0.282789
C25	C	-0.343446	-0.620922	0.282752
C26	C	-0.343440	-0.691615	0.282747
C27	C	-0.263030	-0.691698	0.369476
C28	C	-0.263031	-0.621011	0.369483
C29	C	-0.303243	-0.585627	0.326123
C30	C	-0.303241	-0.508979	0.326128
C31	C	-0.303236	-0.447887	0.326136
C32	C	-0.466786	-0.978001	0.326099
C33	C	-0.536754	-0.978025	0.326106
C34	C	-0.569612	-1.021344	0.282867
C35	C	-0.635355	-1.021376	0.282882
C36	C	-0.668237	-0.978076	0.326129
C37	C	-0.635371	-0.934753	0.369376
C38	C	-0.569630	-0.934728	0.369365
N39	N	-0.771504	-0.918865	0.331279
N40	N	-0.833955	-0.918892	0.331286
C41	C	-0.866312	-0.978152	0.326168
N42	N	-0.833857	-1.037386	0.321028
N43	N	-0.771400	-1.037358	0.321018
C44	C	-0.739522	-0.978099	0.326147
C45	C	-0.970455	-1.021509	0.282943
C46	C	-1.036198	-1.021542	0.282963
C47	C	-1.036214	-0.934914	0.369454
C48	C	-0.970471	-0.934887	0.369438
C49	C	-0.937596	-0.978184	0.326178
C50	C	-0.139044	-0.978197	0.326189
C51	C	-0.069076	-0.978243	0.326211
C52	C	-0.303195	-0.978127	0.502679
C53	C	-0.303178	-0.978143	0.577911
C54	C	-0.303241	-0.154632	0.326160
C55	C	-0.303236	-0.229864	0.326155
C56	C	-0.303229	-0.978090	0.150281
C57	C	-0.303068	-0.978205	0.075049
C58	C	-0.262917	-1.021461	0.613277
C59	C	-0.262899	-1.021468	0.683965
C60	C	-0.303145	-0.978160	0.719287
C61	C	-0.343408	-0.934838	0.683917
C62	C	-0.343423	-0.934828	0.613230
C63	C	-0.343350	-0.934876	0.968990
C64	C	-0.343333	-0.934891	1.039682
C65	C	-0.262825	-1.021516	1.039726
C66	C	-0.262840	-1.021506	0.969039
C67	C	-0.303100	-0.978182	0.933675
C68	C	-0.303119	-0.978174	0.857026
C69	C	-0.303130	-0.978171	0.795934
H70	H	-0.230295	-0.364746	0.404824
N71	N	-0.384505	-0.727687	0.238448
N72	N	-0.362304	-0.767123	0.195357
H73	H	-0.391303	-0.792600	0.164072
H74	H	-0.230115	-1.056743	0.712756
N75	N	-0.668966	-0.890532	0.413552
N76	N	-0.727663	-0.890559	0.413557
H77	H	-0.751390	-0.859329	0.444759
N78	N	-0.384511	-0.890598	0.720005
N79	N	-0.384493	-0.890612	0.783118
H80	H	-0.413523	-0.859367	0.808606
H81	H	-0.376188	-0.236352	0.247481
H82	H	-0.662112	-1.056654	0.247672
N83	N	-0.536041	-1.065574	0.238676
N84	N	-0.565392	-1.104251	0.200073
H85	H	-0.541682	-1.135489	0.168863
H86	H	-0.230069	-1.056774	0.940283
N87	N	-0.221683	-1.065765	1.075840
N88	N	-0.185752	-1.104428	1.044293
H89	H	-0.156696	-1.135679	1.069796
N90	N	-0.221804	-1.065690	0.577189
N91	N	-0.221819	-1.065676	0.514076
H92	H	-0.192780	-1.096911	0.488589
H93	H	-0.376201	-0.899547	0.584436
N94	N	-0.384448	-0.890643	1.075754
N95	N	-0.420389	-0.851962	1.044172
H96	H	-0.449425	-0.820712	1.069647
H97	H	-0.542877	-0.899451	0.404576
H98	H	-0.230290	-0.592272	0.404796
N99	N	-0.384525	-0.584795	0.238461
N100	N	-0.420418	-0.616325	0.199744
H101	H	-0.449433	-0.590808	0.168460
H102	H	-0.943717	-0.899609	0.404644
N103	N	-0.384477	-0.890619	0.932883
N104	N	-0.420409	-0.851957	0.964431
H105	H	-0.449458	-0.820698	0.938929
H106	H	-0.376185	-0.364597	0.247473
N107	N	-0.221969	-0.229200	0.413830
N108	N	-0.226229	-0.237126	0.476275
H109	H	-0.197231	-0.211666	0.507577
N110	N	-0.221957	-0.727854	0.413765
N111	N	-0.221959	-0.790967	0.413756
H112	H	-0.192950	-0.816502	0.445031
N113	N	-0.936878	-1.065738	0.238754
N114	N	-0.966227	-1.104419	0.200153
H115	H	-0.942516	-1.135656	0.168943
N116	N	-1.069754	-1.065807	0.238797
N117	N	-1.040390	-1.104462	0.200182
H118	H	-1.064089	-1.135726	0.168989
N119	N	-1.069804	-0.890691	0.413630
N120	N	-1.128501	-0.890721	0.413638
H121	H	-1.152227	-0.859489	0.444840
