data_functionalizedCrystal
_audit_creation_method	'MofGen! by Chris Wilmer'
_symmetry_space_group_name_H-M	'P1'
_symmetry_Int_Tables_number	1
_symmetry_cell_setting	triclinic
loop_
_symmetry_equiv_pos_as_xyz
  x,y,z
_cell_length_a	18.101398
_cell_length_b	18.215405
_cell_length_c	18.215399
_cell_angle_alpha	89.969449
_cell_angle_beta	89.974986
_cell_angle_gamma	90.020151
loop_
_atom_site_label
_atom_site_type_symbol
_atom_site_fract_x
_atom_site_fract_y
_atom_site_fract_z
Zn1	Zn	1.132158	-0.293085	-0.416204
Zn2	Zn	1.382158	-0.043085	-0.166204
Zn3	Zn	1.632158	0.206915	0.083796
Zn4	Zn	1.882158	0.456915	0.333796
Zn5	Zn	1.132066	-0.416156	-0.293132
Zn6	Zn	1.382066	-0.166156	-0.043132
Zn7	Zn	1.632066	0.083844	0.206868
Zn8	Zn	1.882066	0.333844	0.456868
Zn9	Zn	1.008315	-0.293098	-0.293140
Zn10	Zn	1.258315	-0.043098	-0.043140
Zn11	Zn	1.508315	0.206902	0.206860
Zn12	Zn	1.758315	0.456902	0.456860
Zn13	Zn	1.008281	-0.416104	-0.416146
Zn14	Zn	1.258281	-0.166104	-0.166146
Zn15	Zn	1.508281	0.083896	0.083854
Zn16	Zn	1.758281	0.333896	0.333854
O17	O	1.070205	-0.354611	-0.354656
O18	O	1.320205	-0.104611	-0.104656
O19	O	1.570205	0.145389	0.145344
O20	O	1.820205	0.395389	0.395344
O21	O	1.235779	-0.309427	-0.399899
O22	O	1.485779	-0.059427	-0.149899
O23	O	1.735779	0.190573	0.100101
O24	O	1.985779	0.440573	0.350101
O25	O	1.115626	-0.399859	-0.190149
O26	O	1.365626	-0.149859	0.059851
O27	O	1.615626	0.100141	0.309851
O28	O	1.865626	0.350141	0.559851
O29	O	1.024796	-0.190112	-0.309493
O30	O	1.274796	0.059888	-0.059493
O31	O	1.524796	0.309888	0.190507
O32	O	1.774796	0.559888	0.440507
O33	O	1.235711	-0.399847	-0.309479
O34	O	1.485711	-0.149847	-0.059479
O35	O	1.735711	0.100153	0.190521
O36	O	1.985711	0.350153	0.440521
O37	O	1.115783	-0.190102	-0.399907
O38	O	1.365783	0.059898	-0.149907
O39	O	1.615783	0.309898	0.100093
O40	O	1.865783	0.559898	0.350093
O41	O	1.024707	-0.309449	-0.190155
O42	O	1.274707	-0.059449	0.059845
O43	O	1.524707	0.190551	0.309845
O44	O	1.774707	0.440551	0.559845
O45	O	0.904678	-0.309398	-0.309437
O46	O	1.154678	-0.059398	-0.059437
O47	O	1.404678	0.190602	0.190563
O48	O	1.654678	0.440602	0.440563
O49	O	1.024738	-0.399758	-0.519138
O50	O	1.274738	-0.149758	-0.269138
O51	O	1.524738	0.100242	-0.019138
O52	O	1.774738	0.350242	0.230862
O53	O	0.904653	-0.399770	-0.399808
O54	O	1.154653	-0.149770	-0.149808
O55	O	1.404653	0.100230	0.100192
O56	O	1.654653	0.350230	0.350192
O57	O	1.115750	-0.309376	-0.519181
O58	O	1.365750	-0.059376	-0.269181
O59	O	1.615750	0.190624	-0.019181
O60	O	1.865750	0.440624	0.230819
O61	O	1.115593	-0.519133	-0.309423
O62	O	1.365593	-0.269133	-0.059423
O63	O	1.615593	-0.019133	0.190577
O64	O	1.865593	0.230867	0.440577
O65	O	1.024649	-0.519095	-0.399800
O66	O	1.274649	-0.269095	-0.149800
O67	O	1.524649	-0.019095	0.100200
O68	O	1.774649	0.230905	0.350200
C69	C	1.070127	-0.545817	-0.354620
C70	C	1.320127	-0.295817	-0.104620
C71	C	1.570127	-0.045817	0.145380
C72	C	1.820127	0.204183	0.395380
C73	C	1.070161	-0.627616	-0.354630
C74	C	1.320161	-0.377616	-0.104630
C75	C	1.570161	-0.127616	0.145370
C76	C	1.820161	0.122384	0.395370
C77	C	0.877795	-0.354581	-0.354617
C78	C	1.127795	-0.104581	-0.104617
C79	C	1.377795	0.145419	0.145383
C80	C	1.627795	0.395419	0.395383
C81	C	0.795481	-0.354586	-0.354618
C82	C	1.045481	-0.104586	-0.104618
C83	C	1.295481	0.145414	0.145382
C84	C	1.545481	0.395414	0.395382
C85	C	1.117627	-0.815805	-0.307657
C86	C	1.367627	-0.565805	-0.057657
C87	C	1.617627	-0.315805	0.192343
C88	C	1.867627	-0.065805	0.442343
C89	C	1.117660	-0.892664	-0.307675
C90	C	1.367660	-0.642664	-0.057675
C91	C	1.617660	-0.392664	0.192325
C92	C	1.867660	-0.142664	0.442325
C93	C	1.022878	-0.892664	-0.401708
C94	C	1.272878	-0.642664	-0.151708
C95	C	1.522878	-0.392664	0.098292
C96	C	1.772878	-0.142664	0.348292
C97	C	1.022849	-0.815807	-0.401693
C98	C	1.272849	-0.565807	-0.151693
C99	C	1.522849	-0.315807	0.098307
C100	C	1.772849	-0.065807	0.348307
C101	C	1.070223	-0.777379	-0.354663
C102	C	1.320223	-0.527379	-0.104663
C103	C	1.570223	-0.277379	0.145337
C104	C	1.820223	-0.027379	0.395337
C105	C	1.070285	-0.931095	-0.354696
C106	C	1.320285	-0.681095	-0.104696
C107	C	1.570285	-0.431095	0.145304
C108	C	1.820285	-0.181095	0.395304
C109	C	1.070320	-1.014429	-0.354716
C110	C	1.320320	-0.764429	-0.104716
C111	C	1.570320	-0.514429	0.145284
C112	C	1.820320	-0.264429	0.395284
C113	C	1.070188	-0.694040	-0.354645
C114	C	1.320188	-0.444040	-0.104645
C115	C	1.570188	-0.194040	0.145355
C116	C	1.820188	0.055960	0.395355
C117	C	0.496390	-0.354632	-0.354680
C118	C	0.746390	-0.104632	-0.104680
C119	C	0.996390	0.145368	0.145320
C120	C	1.246390	0.395368	0.395320
C121	C	0.527706	-0.297488	-0.298098
C122	C	0.777706	-0.047488	-0.048098
C123	C	1.027706	0.202512	0.201902
C124	C	1.277706	0.452512	0.451902
C125	C	0.613324	-0.297641	-0.297857
C126	C	0.863324	-0.047641	-0.047857
C127	C	1.113324	0.202359	0.202143
C128	C	1.363324	0.452359	0.452143
C129	C	0.644772	-0.354608	-0.354650
C130	C	0.894772	-0.104608	-0.104650
C131	C	1.144772	0.145392	0.145350
C132	C	1.394772	0.395392	0.395350
C133	C	0.613662	-0.432131	-0.333455
C134	C	0.863662	-0.182131	-0.083455
C135	C	1.113662	0.067869	0.166545
C136	C	1.363662	0.317869	0.416545
C137	C	0.528017	-0.431814	-0.333062
C138	C	0.778017	-0.181814	-0.083062
C139	C	1.028017	0.068186	0.166938
C140	C	1.278017	0.318186	0.416938
C141	C	0.528003	-0.334926	-0.432590
C142	C	0.778003	-0.084926	-0.182590
C143	C	1.028003	0.165074	0.067410
C144	C	1.278003	0.415074	0.317410
C145	C	0.613654	-0.333200	-0.432165
C146	C	0.863654	-0.083200	-0.182165
C147	C	1.113654	0.166800	0.067835
C148	C	1.363654	0.416800	0.317835
C149	C	0.728632	-0.354600	-0.354633
C150	C	0.978632	-0.104600	-0.104633
C151	C	1.228632	0.145400	0.145367
C152	C	1.478632	0.395400	0.395367
C153	C	0.412530	-0.354645	-0.354695
C154	C	0.662530	-0.104645	-0.104695
C155	C	0.912530	0.145355	0.145305
C156	C	1.162530	0.395355	0.395305
C157	C	1.263367	-0.354641	-0.354695
C158	C	1.513367	-0.104641	-0.104695
C159	C	1.763367	0.145359	0.145305
C160	C	2.013367	0.395359	0.395305
C161	C	1.345681	-0.354654	-0.354711
C162	C	1.595681	-0.104654	-0.104711
C163	C	1.845681	0.145346	0.145289
C164	C	2.095681	0.395346	0.395289
C165	C	1.070250	-0.354560	-0.546609
C166	C	1.320250	-0.104560	-0.296609
C167	C	1.570250	0.145440	-0.046609
C168	C	1.820250	0.395440	0.203391
C169	C	1.070269	-0.354538	-0.628408
C170	C	1.320269	-0.104538	-0.378408
C171	C	1.570269	0.145462	-0.128408
C172	C	1.820269	0.395462	0.121592
C173	C	1.070304	-0.162658	-0.354707
C174	C	1.320304	0.087342	-0.104707
C175	C	1.570304	0.337342	0.145293
C176	C	1.820304	0.587342	0.395293
C177	C	1.070346	-0.080859	-0.354729
C178	C	1.320346	0.169141	-0.104729
C179	C	1.570346	0.419141	0.145271
C180	C	1.820346	0.669141	0.395271
C181	C	1.117676	-0.307432	-0.816625
C182	C	1.367676	-0.057432	-0.566625
C183	C	1.617676	0.192568	-0.316625
C184	C	1.867676	0.442568	-0.066625
C185	C	1.117685	-0.307411	-0.893484
C186	C	1.367685	-0.057411	-0.643484
C187	C	1.617685	0.192589	-0.393484
C188	C	1.867685	0.442589	-0.143484
C189	C	1.022915	-0.401530	-0.893428
C190	C	1.272915	-0.151530	-0.643428
C191	C	1.522915	0.098470	-0.393428
C192	C	1.772915	0.348470	-0.143428
C193	C	1.022903	-0.401547	-0.816571
C194	C	1.272903	-0.151547	-0.566571
C195	C	1.522903	0.098453	-0.316571
C196	C	1.772903	0.348453	-0.066571
C197	C	1.070288	-0.354500	-0.778171
C198	C	1.320288	-0.104500	-0.528171
C199	C	1.570288	0.145500	-0.278171
C200	C	1.820288	0.395500	-0.028171
C201	C	1.070309	-0.354461	-0.931888
C202	C	1.320309	-0.104461	-0.681888
C203	C	1.570309	0.145539	-0.431888
C204	C	1.820309	0.395539	-0.181888
C205	C	1.070318	-0.354438	-1.015221
C206	C	1.320318	-0.104438	-0.765221
C207	C	1.570318	0.145562	-0.515221
C208	C	1.820318	0.395562	-0.265221
C209	C	1.070278	-0.354521	-0.694832
C210	C	1.320278	-0.104521	-0.444832
C211	C	1.570278	0.145479	-0.194832
C212	C	1.820278	0.395479	0.055168
C213	C	1.070203	-0.354608	-0.163450
C214	C	1.320203	-0.104608	0.086550
C215	C	1.570203	0.145392	0.336550
C216	C	1.820203	0.395392	0.586550
C217	C	1.070327	-0.354422	-0.081651
C218	C	1.320327	-0.104422	0.168349
C219	C	1.570327	0.145578	0.418349
C220	C	1.820327	0.395578	0.668349
H221	H	1.156202	-0.784519	-0.269364
H222	H	1.406202	-0.534519	-0.019364
H223	H	1.656202	-0.284519	0.230636
H224	H	1.906202	-0.034519	0.480636
H225	H	0.633778	-0.310668	-0.240127
H226	H	0.883778	-0.060668	0.009873
H227	H	1.133778	0.189332	0.259873
H228	H	1.383778	0.439332	0.509873
H229	H	0.984338	-0.439836	-0.924703
H230	H	1.234338	-0.189836	-0.674703
H231	H	1.484338	0.060164	-0.424703
H232	H	1.734338	0.310164	-0.174703
Br233	Br	0.958516	-0.763652	-0.465499
Br234	Br	1.208516	-0.513652	-0.215499
Br235	Br	1.458516	-0.263652	0.034501
Br236	Br	1.708516	-0.013652	0.284501
H237	H	0.635078	-0.449132	-0.277114
H238	H	0.885078	-0.199132	-0.027114
H239	H	1.135078	0.050868	0.222886
H240	H	1.385078	0.300868	0.472886
Br241	Br	0.648387	-0.201826	-0.320000
Br242	Br	0.898387	0.048174	-0.070000
Br243	Br	1.148387	0.298174	0.180000
Br244	Br	1.398387	0.548174	0.430000
Br245	Br	0.492042	-0.242344	-0.464707
Br246	Br	0.742042	0.007656	-0.214707
Br247	Br	0.992042	0.257656	0.035293
Br248	Br	1.242042	0.507656	0.285293
Br249	Br	0.491774	-0.318936	-0.202439
Br250	Br	0.741774	-0.068936	0.047561
Br251	Br	0.991774	0.181064	0.297561
Br252	Br	1.241774	0.431064	0.547561
H253	H	0.507300	-0.475832	-0.372476
H254	H	0.757300	-0.225832	-0.122476
H255	H	1.007300	0.024168	0.127524
H256	H	1.257300	0.274168	0.377524
H257	H	1.156273	-0.269083	-0.924790
H258	H	1.406273	-0.019083	-0.674790
H259	H	1.656273	0.230917	-0.424790
H260	H	1.906273	0.480917	-0.174790
Br261	Br	0.647564	-0.238122	-0.458813
Br262	Br	0.897564	0.011878	-0.208813
Br263	Br	1.147564	0.261878	0.041187
Br264	Br	1.397564	0.511878	0.291187
Br265	Br	1.182002	-0.944811	-0.243881
Br266	Br	1.432002	-0.694811	0.006119
Br267	Br	1.682002	-0.444811	0.256119
Br268	Br	1.932002	-0.194811	0.506119
H269	H	1.156258	-0.269121	-0.785363
H270	H	1.406258	-0.019121	-0.535363
H271	H	1.656258	0.230879	-0.285363
H272	H	1.906258	0.480879	-0.035363
H273	H	0.984308	-0.439874	-0.785261
H274	H	1.234308	-0.189874	-0.535261
H275	H	1.484308	0.060126	-0.285261
H276	H	1.734308	0.310126	-0.035261
Br277	Br	0.958588	-0.944820	-0.465530
Br278	Br	1.208588	-0.694820	-0.215530
Br279	Br	1.458588	-0.444820	0.034470
Br280	Br	1.708588	-0.194820	0.284470
H281	H	0.507129	-0.239825	-0.311238
H282	H	0.757129	0.010175	-0.061238
H283	H	1.007129	0.260175	0.188762
H284	H	1.257129	0.510175	0.438762
Br285	Br	0.494251	-0.404297	-0.502858
Br286	Br	0.744251	-0.154297	-0.252858
Br287	Br	0.994251	0.095703	-0.002858
Br288	Br	1.244251	0.345703	0.247142
Br289	Br	0.494660	-0.459666	-0.238132
Br290	Br	0.744660	-0.209666	0.011868
Br291	Br	0.994660	0.040334	0.261868
Br292	Br	1.244660	0.290334	0.511868
Br293	Br	0.649332	-0.397518	-0.506200
Br294	Br	0.899332	-0.147518	-0.256200
Br295	Br	1.149332	0.102482	-0.006200
Br296	Br	1.399332	0.352482	0.243800
Br297	Br	0.647599	-0.504999	-0.399999
Br298	Br	0.897599	-0.254999	-0.149999
Br299	Br	1.147599	-0.004999	0.100001
Br300	Br	1.397599	0.245001	0.350001
