data_functionalizedCrystal
_audit_creation_method	'MofGen! by Chris Wilmer'
_symmetry_space_group_name_H-M	'P1'
_symmetry_Int_Tables_number	1
_symmetry_cell_setting	triclinic
loop_
_symmetry_equiv_pos_as_xyz
  x,y,z
_cell_length_a	14.908558
_cell_length_b	13.897448
_cell_length_c	14.908308
_cell_angle_alpha	86.732812
_cell_angle_beta	89.824401
_cell_angle_gamma	86.712937
loop_
_atom_site_label
_atom_site_type_symbol
_atom_site_fract_x
_atom_site_fract_y
_atom_site_fract_z
Zn1	Zn	1.345320	-0.503405	0.587571
Zn2	Zn	1.353908	-0.655976	0.437211
Zn3	Zn	1.203635	-0.484875	0.428570
Zn4	Zn	1.194935	-0.654827	0.578864
O5	O	1.274449	-0.574770	0.508054
O6	O	1.472286	-0.531879	0.574885
O7	O	1.341208	-0.626005	0.310240
O8	O	1.222477	-0.352356	0.449689
O9	O	1.478595	-0.643972	0.464417
O10	O	1.326573	-0.365970	0.566506
O11	O	1.230803	-0.500298	0.303891
O12	O	1.076654	-0.499184	0.441246
O13	O	1.207649	-0.642014	0.705844
O14	O	1.070262	-0.624047	0.551667
O15	O	1.318137	-0.530765	0.712240
O16	O	1.332773	-0.790800	0.455974
O17	O	1.215976	-0.789956	0.560046
C18	C	1.274385	-0.825379	0.508024
C19	C	1.274438	-0.932598	0.508046
C20	C	1.040833	-0.559481	0.494575
C21	C	0.940889	-0.552964	0.488830
C22	C	0.803320	-0.478685	0.423337
C23	C	0.897226	-0.484803	0.428731
C24	C	0.890640	-0.615010	0.543540
C25	C	0.796734	-0.608892	0.538145
C26	C	0.753077	-0.540729	0.478041
C27	C	0.659170	-0.534616	0.472642
C28	C	0.652586	-0.664818	0.587455
C29	C	0.746492	-0.670936	0.592850
C30	C	1.274530	-1.128902	0.508108
C31	C	1.274476	-1.019664	0.508076
C32	C	1.508978	-0.590121	0.521586
C33	C	1.608921	-0.596662	0.527353
C34	C	1.260965	-0.588329	0.742579
C35	C	1.255219	-0.594106	0.842520
C36	C	1.274537	-0.323186	0.508105
C37	C	1.274575	-0.215976	0.508127
C38	C	1.287933	-0.561199	0.274444
C39	C	1.293854	-0.555161	0.174514
C40	C	1.359469	-0.489096	1.036982
C41	C	1.354072	-0.494522	1.130885
C42	C	1.239026	-0.610377	1.124232
C43	C	1.244422	-0.604951	1.030328
C44	C	1.304646	-0.544310	0.986707
C45	C	1.310047	-0.538890	0.892802
C46	C	1.194996	-0.654740	0.886150
C47	C	1.189600	-0.660165	0.980053
H48	H	0.767774	-0.423185	0.374395
O49	O	1.130976	-0.718957	1.022382
C50	C	1.042685	-0.690714	0.994252
H51	H	1.039647	-0.611869	0.968190
H52	H	1.022304	-0.737743	0.938380
C53	C	0.981609	-0.799678	1.106215
C54	C	0.977876	-0.702837	1.074212
H55	H	0.941630	-0.807160	1.155536
H56	H	1.041092	-0.818710	1.125165
H57	H	0.964627	-0.838858	1.059648
H58	H	0.994869	-0.663661	1.120775
H59	H	0.918394	-0.683799	1.055271
H60	H	1.359086	-0.489515	0.857287
H61	H	0.623626	-0.479113	0.423703
O62	O	1.180592	-0.669246	1.166757
C63	C	1.187562	-0.662160	1.260417
H64	H	1.256232	-0.635864	1.277250
H65	H	1.132722	-0.608826	1.283983
C66	C	1.092153	-0.794284	1.287479
C67	C	1.176498	-0.761995	1.308154
H68	H	1.085324	-0.855865	1.316927
H69	H	1.087454	-0.799056	1.224379
H70	H	1.046463	-0.749831	1.307119
H71	H	1.222187	-0.806442	1.288505
H72	H	1.181205	-0.757233	1.371253
H73	H	0.938129	-0.434278	0.384188
O74	O	1.417991	-0.430117	0.994743
C75	C	1.465244	-0.382569	1.059256
H76	H	1.424571	-0.380684	1.124071
H77	H	1.532947	-0.422940	1.073174
C78	C	1.530304	-0.280960	0.943763
C79	C	1.480345	-0.278637	1.023368
H80	H	1.539624	-0.216851	0.921625
H81	H	1.498472	-0.312995	0.900299
H82	H	1.586718	-0.314606	0.955373
H83	H	1.423929	-0.245001	1.011755
H84	H	1.512168	-0.246593	1.066830
H85	H	0.926202	-0.670501	0.592478
O86	O	0.789001	-0.737023	0.651280
C87	C	0.839978	-0.689106	0.712582
H88	H	0.855860	-0.615042	0.681802
H89	H	0.799972	-0.680122	0.777156
C90	C	0.908740	-0.839919	0.771702
C91	C	0.928254	-0.748954	0.733894
H92	H	0.963191	-0.876837	0.784852
H93	H	0.874394	-0.872202	0.730404
H94	H	0.875401	-0.832418	0.825509
H95	H	0.961583	-0.756455	0.680083
H96	H	0.962608	-0.716674	0.775184
O97	O	1.141865	-0.708428	0.837224
C98	C	1.196159	-0.770958	0.785869
H99	H	1.265119	-0.740583	0.775732
H100	H	1.203938	-0.845173	0.822622
C101	C	1.067107	-0.817352	0.706267
C102	C	1.151803	-0.780039	0.693810
H103	H	1.039745	-0.822958	0.649482
H104	H	1.030527	-0.775227	0.740868
H105	H	1.073602	-0.879193	0.736898
H106	H	1.145306	-0.718195	0.663190
H107	H	1.188381	-0.822154	0.659202
H108	H	1.398712	-0.449558	1.171816
O109	O	0.603642	-0.724990	0.640564
C110	C	0.511397	-0.704996	0.622898
H111	H	0.500256	-0.627976	0.592835
H112	H	0.487493	-0.757621	0.573389
C113	C	0.471658	-0.810708	0.748013
C114	C	0.457973	-0.716107	0.711096
H115	H	0.438702	-0.817565	0.802416
H116	H	0.533805	-0.824181	0.759913
H117	H	0.451738	-0.854551	0.706747
H118	H	0.477903	-0.672267	0.752357
H119	H	0.395828	-0.702627	0.699205
