data_functionalizedCrystal
_audit_creation_method	'MofGen! by Chris Wilmer'
_symmetry_space_group_name_H-M	'P1'
_symmetry_Int_Tables_number	1
_symmetry_cell_setting	triclinic
loop_
_symmetry_equiv_pos_as_xyz
  x,y,z
_cell_length_a	6.817900
_cell_length_b	12.200875
_cell_length_c	13.563541
_cell_angle_alpha	108.300657
_cell_angle_beta	104.704624
_cell_angle_gamma	107.143593
loop_
_atom_site_label
_atom_site_type_symbol
_atom_site_fract_x
_atom_site_fract_y
_atom_site_fract_z
V1	V	-4.106376	-0.406374	-0.153902
O2	O	-4.053275	-0.348594	0.007136
O3	O	-4.094953	-0.451726	-0.304912
O4	O	-4.075542	-0.561649	-0.151648
O5	O	-4.072820	-0.237910	-0.147188
V6	V	-4.582937	-0.380378	-0.134626
O7	O	-4.382908	-0.463400	-0.196184
O8	O	-4.756603	-0.323352	-0.092344
O9	O	-4.371153	-0.335026	0.016384
O10	O	-4.753435	-0.438158	-0.295664
O11	O	-4.733890	-0.548842	-0.141340
O12	O	-4.390564	-0.225103	-0.136880
C13	C	-3.948381	-0.457735	-0.341721
C14	C	-4.020446	-0.495851	-0.465174
C15	C	-3.997989	-0.162903	-0.749431
C16	C	-3.930266	-0.127089	-0.633440
C17	C	-3.952808	-0.219276	-0.591367
C18	C	-4.043078	-0.347284	-0.665298
C19	C	-4.110792	-0.383101	-0.781300
C20	C	-4.065611	-0.439474	-0.623237
C21	C	-4.155881	-0.567482	-0.697168
C22	C	-4.223588	-0.603293	-0.813158
C23	C	-4.201046	-0.511106	-0.855230
C24	C	-3.997897	-0.403657	-0.507235
C25	C	-4.110700	-0.623855	-0.539104
C26	C	-4.178423	-0.659669	-0.655096
C27	C	-3.923619	-0.597951	-0.146217
C28	C	-3.979937	-0.725205	-0.145374
C29	C	-4.083007	-0.958191	-0.143831
C30	C	-4.025643	-0.828541	-0.144689
C31	C	-4.181068	-0.329016	0.053187
C32	C	-4.088244	-0.290908	0.176639
C33	C	-4.205830	-0.188796	-0.142315
C34	C	-4.128749	-0.061539	-0.143152
H35	H	-3.979634	-0.087858	-0.783698
H36	H	-3.897653	-0.190108	-0.496921
H37	H	-3.924398	-0.299432	-0.447051
C38	C	-3.830967	0.013715	-0.552124
N39	N	-3.756170	0.119776	-0.490876
H40	H	-4.256200	-0.540260	-0.949679
H41	H	-4.297068	-0.707525	-0.873350
C42	C	-4.277695	-0.800475	-0.736432
N43	N	-4.352457	-0.906528	-0.797696
C44	C	-4.135507	-0.725269	-0.492831
N45	N	-4.154182	-0.801647	-0.457970
