data_functionalizedCrystal
_audit_creation_method	'MofGen! by Chris Wilmer'
_symmetry_space_group_name_H-M	'P1'
_symmetry_Int_Tables_number	1
_symmetry_cell_setting	triclinic
loop_
_symmetry_equiv_pos_as_xyz
  x,y,z
_cell_length_a	18.215407
_cell_length_b	18.215405
_cell_length_c	12.759393
_cell_angle_alpha	89.962431
_cell_angle_beta	89.980188
_cell_angle_gamma	90.019398
loop_
_atom_site_label
_atom_site_type_symbol
_atom_site_fract_x
_atom_site_fract_y
_atom_site_fract_z
Zn1	Zn	1.125086	-0.293049	-0.593974
Zn2	Zn	1.458420	0.040285	-0.260641
Zn3	Zn	1.791753	0.373618	0.072692
Zn4	Zn	1.124991	-0.416135	-0.418276
Zn5	Zn	1.458324	-0.082802	-0.084943
Zn6	Zn	1.791657	0.250532	0.248391
Zn7	Zn	1.002015	-0.293075	-0.418310
Zn8	Zn	1.335348	0.040258	-0.084976
Zn9	Zn	1.668681	0.373592	0.248357
Zn10	Zn	1.001985	-0.416066	-0.593913
Zn11	Zn	1.335318	-0.082733	-0.260580
Zn12	Zn	1.668652	0.250600	0.072753
O13	O	1.063519	-0.354581	-0.506118
O14	O	1.396852	-0.021248	-0.172785
O15	O	1.730186	0.312085	0.160548
O16	O	1.228058	-0.309394	-0.570679
O17	O	1.561391	0.023939	-0.237346
O18	O	1.894725	0.357273	0.095988
O19	O	1.108650	-0.399851	-0.271259
O20	O	1.441983	-0.066517	0.062074
O21	O	1.775317	0.266816	0.395407
O22	O	1.018393	-0.190087	-0.441652
O23	O	1.351726	0.143246	-0.108318
O24	O	1.685060	0.476579	0.225015
O25	O	1.227988	-0.399825	-0.441594
O26	O	1.561321	-0.066492	-0.108261
O27	O	1.894654	0.266842	0.225073
O28	O	1.108813	-0.190068	-0.570712
O29	O	1.442147	0.143265	-0.237378
O30	O	1.775480	0.476599	0.095955
O31	O	1.018300	-0.309439	-0.271284
O32	O	1.351633	0.023894	0.062049
O33	O	1.684967	0.357228	0.395383
O34	O	0.899027	-0.309372	-0.441593
O35	O	1.232360	0.023961	-0.108259
O36	O	1.565693	0.357294	0.225074
O37	O	1.018342	-0.399708	-0.740943
O38	O	1.351676	-0.066374	-0.407609
O39	O	1.685009	0.266959	-0.074276
O40	O	0.899005	-0.399733	-0.570608
O41	O	1.232338	-0.066400	-0.237275
O42	O	1.565671	0.266933	0.096059
O43	O	1.108784	-0.309327	-0.740987
O44	O	1.442118	0.024006	-0.407654
O45	O	1.775451	0.357339	-0.074321
O46	O	1.108621	-0.519110	-0.441535
O47	O	1.441954	-0.185777	-0.108202
O48	O	1.775288	0.147557	0.225132
O49	O	1.018249	-0.519060	-0.570575
O50	O	1.351583	-0.185726	-0.237242
O51	O	1.684916	0.147607	0.096091
C52	C	0.872313	-0.354549	-0.506098
C53	C	1.205646	-0.021215	-0.172765
C54	C	1.538980	0.312118	0.160569
C55	C	0.790514	-0.354553	-0.506114
C56	C	1.123847	-0.021219	-0.172781
C57	C	1.457181	0.312114	0.160553
C58	C	0.525487	-0.307584	-0.573440
C59	C	0.858821	0.025749	-0.240107
C60	C	1.192154	0.359082	0.093227
C61	C	0.602346	-0.307573	-0.573437
C62	C	0.935680	0.025761	-0.240103
C63	C	1.269013	0.359094	0.093230
C64	C	0.602292	-0.401602	-0.438820
C65	C	0.935625	-0.068268	-0.105486
C66	C	1.268959	0.265065	0.227847
C67	C	0.525435	-0.401617	-0.438829
C68	C	0.858768	-0.068284	-0.105496
C69	C	1.192101	0.265050	0.227838
C70	C	0.487034	-0.354604	-0.506138
C71	C	0.820368	-0.021271	-0.172804
C72	C	1.153701	0.312063	0.160529
C73	C	0.640750	-0.354577	-0.506125
C74	C	0.974084	-0.021244	-0.172792
C75	C	1.307417	0.312090	0.160542
C76	C	0.724084	-0.354564	-0.506121
C77	C	1.057417	-0.021231	-0.172788
C78	C	1.390751	0.312102	0.160546
C79	C	0.403695	-0.354617	-0.506143
C80	C	0.737029	-0.021284	-0.172810
C81	C	1.070362	0.312049	0.160523
C82	C	1.063441	-0.545788	-0.506068
C83	C	1.396775	-0.212454	-0.172734
C84	C	1.730108	0.120879	0.160599
C85	C	1.063476	-0.627586	-0.506081
C86	C	1.396809	-0.294253	-0.172748
C87	C	1.730142	0.039080	0.160585
C88	C	1.110643	-0.815782	-0.439014
C89	C	1.443976	-0.482449	-0.105680
C90	C	1.777309	-0.149115	0.227653
C91	C	1.110675	-0.892641	-0.439039
C92	C	1.444009	-0.559308	-0.105706
C93	C	1.777342	-0.225974	0.227627
C94	C	1.016490	-0.892628	-0.573298
C95	C	1.349823	-0.559295	-0.239965
C96	C	1.683157	-0.225962	0.093368
C97	C	1.016461	-0.815771	-0.573277
C98	C	1.349795	-0.482438	-0.239944
C99	C	1.683128	-0.149104	0.093389
C100	C	1.063536	-0.777350	-0.506129
C101	C	1.396870	-0.444017	-0.172796
C102	C	1.730203	-0.110683	0.160537
C103	C	1.063598	-0.931066	-0.506176
C104	C	1.396931	-0.597733	-0.172842
C105	C	1.730265	-0.264399	0.160491
C106	C	1.063633	-1.014400	-0.506204
C107	C	1.396967	-0.681066	-0.172870
C108	C	1.730300	-0.347733	0.160463
C109	C	1.063502	-0.694011	-0.506102
C110	C	1.396836	-0.360678	-0.172769
C111	C	1.730169	-0.027344	0.160564
C112	C	1.255472	-0.354614	-0.506140
C113	C	1.588805	-0.021281	-0.172806
C114	C	1.922139	0.312052	0.160527
C115	C	1.337271	-0.354628	-0.506149
C116	C	1.670604	-0.021295	-0.172815
C117	C	2.003938	0.312038	0.160518
C118	C	1.063571	-0.354507	-0.780152
C119	C	1.396904	-0.021174	-0.446818
C120	C	1.730237	0.312160	-0.113485
C121	C	1.063593	-0.354475	-0.896929
C122	C	1.396926	-0.021142	-0.563595
C123	C	1.730259	0.312191	-0.230262
C124	C	1.063617	-0.162628	-0.506192
C125	C	1.396951	0.170705	-0.172859
C126	C	1.730284	0.504038	0.160475
C127	C	1.063659	-0.080829	-0.506223
C128	C	1.396992	0.252504	-0.172890
C129	C	1.730326	0.585837	0.160443
C130	C	1.110692	-0.307410	-0.951816
C131	C	1.444026	0.025924	-0.618482
C132	C	1.777359	0.359257	-0.285149
C133	C	1.110710	-0.307383	-1.061540
C134	C	1.444043	0.025950	-0.728206
C135	C	1.777377	0.359284	-0.394873
C136	C	1.016526	-0.401494	-1.061480
C137	C	1.349859	-0.068161	-0.728147
C138	C	1.683193	0.265173	-0.394814
C139	C	1.016505	-0.401516	-0.951758
C140	C	1.349839	-0.068183	-0.618425
C141	C	1.683172	0.265150	-0.285091
C142	C	1.165071	-0.253078	-0.951851
C143	C	1.498404	0.080256	-0.618518
C144	C	1.831738	0.413589	-0.285184
C145	C	1.165089	-0.253051	-1.061575
C146	C	1.498422	0.080282	-0.728242
C147	C	1.831755	0.413616	-0.394908
C148	C	1.063510	-0.354602	-0.233151
C149	C	1.396843	-0.021269	0.100182
C150	C	1.730177	0.312065	0.433516
C151	C	1.063631	-0.354426	-0.116375
C152	C	1.396964	-0.021093	0.216958
C153	C	1.730297	0.312240	0.550292
H154	H	0.494224	-0.269303	-0.628247
H155	H	0.827558	0.064030	-0.294913
H156	H	1.160891	0.397363	0.038420
Cl157	Cl	0.957280	-0.460675	-0.882760
Cl158	Cl	1.290613	-0.127342	-0.549427
Cl159	Cl	1.623946	0.205992	-0.216094
H160	H	0.978162	-0.923920	-0.627967
H161	H	1.311495	-0.590587	-0.294633
H162	H	1.644828	-0.257253	0.038700
Cl163	Cl	0.957334	-0.460628	-1.130416
Cl164	Cl	1.290667	-0.127295	-0.797083
Cl165	Cl	1.624001	0.206038	-0.463749
H166	H	0.633567	-0.439877	-0.384018
H167	H	0.966900	-0.106543	-0.050684
H168	H	1.300234	0.226790	0.282649
H169	H	0.633651	-0.269285	-0.628242
H170	H	0.966985	0.064048	-0.294908
H171	H	1.300318	0.397381	0.038425
Cl172	Cl	0.477090	-0.460732	-0.354213
Cl173	Cl	0.810423	-0.127399	-0.020880
Cl174	Cl	1.143757	0.205935	0.312454
H175	H	1.222084	-0.268322	-1.091353
H176	H	1.555417	0.065012	-0.758020
H177	H	1.888750	0.398345	-0.424686
Cl178	Cl	1.169825	-0.767484	-0.354602
Cl179	Cl	1.503158	-0.434151	-0.021269
Cl180	Cl	1.836491	-0.100817	0.312065
Cl181	Cl	0.957241	-0.767452	-0.657664
Cl182	Cl	1.290574	-0.434119	-0.324331
Cl183	Cl	1.623908	-0.100786	0.009003
Cl184	Cl	1.169899	-0.940953	-0.354664
Cl185	Cl	1.503233	-0.607619	-0.021331
Cl186	Cl	1.836566	-0.274286	0.312002
Cl187	Cl	1.141544	-0.165085	-0.905914
Cl188	Cl	1.474877	0.168248	-0.572581
Cl189	Cl	1.808211	0.501581	-0.239247
H190	H	1.144705	-0.198896	-1.095630
H191	H	1.478038	0.134437	-0.762297
H192	H	1.811372	0.467770	-0.428964
Cl193	Cl	1.248632	-0.284627	-0.899291
Cl194	Cl	1.581966	0.048707	-0.565958
Cl195	Cl	1.915299	0.382040	-0.232625
