data_functionalizedCrystal
_audit_creation_method	'MofGen! by Chris Wilmer'
_symmetry_space_group_name_H-M	'P1'
_symmetry_Int_Tables_number	1
_symmetry_cell_setting	triclinic
loop_
_symmetry_equiv_pos_as_xyz
  x,y,z
_cell_length_a	14.908792
_cell_length_b	14.908326
_cell_length_c	14.908858
_cell_angle_alpha	83.191103
_cell_angle_beta	90.165374
_cell_angle_gamma	96.408582
loop_
_atom_site_label
_atom_site_type_symbol
_atom_site_fract_x
_atom_site_fract_y
_atom_site_fract_z
Zn1	Zn	-1.331795	0.249410	0.572688
Zn2	Zn	-1.331674	0.409548	0.412570
Zn3	Zn	-1.189152	0.266903	0.412586
Zn4	Zn	-1.172656	0.410476	0.554134
O5	O	-1.256319	0.334084	0.487995
O6	O	-1.458025	0.262943	0.559206
O7	O	-1.319622	0.397558	0.286323
O8	O	-1.215028	0.137479	0.441596
O9	O	-1.457937	0.380596	0.441568
O10	O	-1.319827	0.124627	0.559222
O11	O	-1.214911	0.292757	0.286335
O12	O	-1.060717	0.293658	0.423605
O13	O	-1.186913	0.382178	0.682844
O14	O	-1.048598	0.399140	0.527600
O15	O	-1.303831	0.263844	0.696476
O16	O	-1.303626	0.536775	0.423577
O17	O	-1.186796	0.537457	0.527584
C18	C	-1.021923	0.348398	0.473591
C19	C	-0.921645	0.354543	0.467449
C20	C	-0.780274	0.424366	0.397462
C21	C	-0.874494	0.418597	0.403232
C22	C	-0.874571	0.296252	0.525899
C23	C	-0.780351	0.302022	0.520129
C24	C	-0.733206	0.366082	0.455909
C25	C	-0.638983	0.371855	0.450144
C26	C	-0.639063	0.249506	0.572806
C27	C	-0.733283	0.243737	0.578576
C28	C	-1.243432	0.570070	0.473587
C29	C	-1.237999	0.671019	0.467458
C30	C	-0.491631	0.319708	0.502449
C31	C	-0.591909	0.313564	0.508593
C32	C	-1.336824	0.847179	0.578544
C33	C	-1.331723	0.942029	0.572789
C34	C	-1.222691	0.955571	0.450198
C35	C	-1.227792	0.860721	0.455953
C36	C	-1.284862	0.806528	0.520127
C37	C	-1.289967	0.711676	0.525878
C38	C	-1.180931	0.725220	0.403291
C39	C	-1.175830	0.820070	0.397536
C40	C	-1.243545	0.321163	0.723310
C41	C	-1.238102	0.315657	0.823587
C42	C	-1.269244	1.097177	0.502471
C43	C	-1.274659	0.996228	0.508617
C44	C	-1.269099	0.346886	0.253602
C45	C	-1.274731	0.352126	0.153351
C46	C	-1.175919	0.253334	0.964929
C47	C	-1.181030	0.258506	0.870710
C48	C	-1.290069	0.367637	0.870691
C49	C	-1.284957	0.362465	0.964911
C50	C	-1.227880	0.305312	1.012027
C51	C	-1.222764	0.300146	1.106247
C52	C	-1.331807	0.409271	1.106228
C53	C	-1.336918	0.414444	1.012008
H54	H	-0.600730	0.202048	0.620399
C55	C	-1.113129	0.190471	1.016758
N56	N	-1.065835	0.143121	1.055794
H57	H	-0.741887	0.476533	0.345178
C58	C	-1.123866	0.201328	0.818906
N59	N	-1.080808	0.158259	0.779887
H60	H	-1.138623	0.692112	0.355721
C61	C	-1.159981	0.237274	1.158074
N62	N	-1.112695	0.189914	1.197107
H63	H	-1.176224	0.999711	0.397954
C64	C	-1.388891	0.986741	0.637048
N65	N	-1.431953	1.020418	0.685450
C66	C	-1.389069	0.466349	1.158054
N67	N	-1.432233	0.509303	1.197094
H68	H	-1.383392	0.460973	0.973634
H69	H	-0.771681	0.191579	0.630860
H70	H	-1.336545	0.414162	0.832314
C71	C	-0.926265	0.482716	0.338937
N72	N	-0.965259	0.531014	0.290508
C73	C	-0.587125	0.442318	0.379498
N74	N	-0.548069	0.495391	0.326282
H75	H	-1.336439	0.667552	0.578130
H76	H	-1.129364	0.864207	0.345289
H77	H	-1.383299	0.803054	0.630792
C78	C	-0.926448	0.225782	0.596525
N79	N	-0.965523	0.172701	0.649720
