data_functionalizedCrystal
_audit_creation_method	'MofGen! by Chris Wilmer'
_symmetry_space_group_name_H-M	'P1'
_symmetry_Int_Tables_number	1
_symmetry_cell_setting	triclinic
loop_
_symmetry_equiv_pos_as_xyz
  x,y,z
_cell_length_a	15.944551
_cell_length_b	16.109301
_cell_length_c	14.586319
_cell_angle_alpha	90.003802
_cell_angle_beta	89.999016
_cell_angle_gamma	83.480161
loop_
_atom_site_label
_atom_site_type_symbol
_atom_site_fract_x
_atom_site_fract_y
_atom_site_fract_z
O1	O	-1.114488	-0.107227	-0.076145
O2	O	-0.869934	-0.120447	-0.076168
O3	O	-0.998929	0.007192	-0.076149
O4	O	-0.985493	-0.234866	-0.076163
O5	O	-0.998920	0.007194	0.076331
O6	O	-0.869925	-0.120445	0.076313
O7	O	-1.114479	-0.107225	0.076336
Cu8	Cu	-0.992201	-0.113835	0.090247
Cu9	Cu	-0.992212	-0.113837	-0.090079
O10	O	-0.985484	-0.234864	0.076318
C11	C	-0.838635	-0.119897	0.000070
C12	C	-0.745390	-0.118252	0.000061
C13	C	-0.998380	0.038168	0.000090
C14	C	-0.996748	0.130463	0.000089
C15	C	-1.145777	-0.107775	0.000096
C16	C	-1.239023	-0.109420	0.000099
C17	C	-0.530561	-0.035203	0.000084
C18	C	-0.469532	-0.073769	-0.075099
C19	C	-0.574665	-0.115275	0.000072
C20	C	-0.469546	-0.073786	0.075235
C21	C	-0.409753	-0.112394	0.000087
C22	C	-0.514865	-0.153864	-0.075173
C23	C	-0.514885	-0.153870	0.075229
C24	C	-0.453874	-0.192494	0.000027
C25	C	-0.669667	-0.116933	0.000063
C26	C	-0.314753	-0.110743	0.000090
C27	C	-0.986032	-0.265840	0.000076
C28	C	-0.987664	-0.358136	0.000071
C29	C	-1.067957	0.439439	0.000080
C30	C	-1.069498	0.352718	0.000085
C31	C	-0.916450	0.332894	0.000083
C32	C	-0.914909	0.419614	0.000084
C33	C	-0.990666	0.472884	0.000078
C34	C	-0.993747	0.299444	0.000082
C35	C	-0.995417	0.205417	0.000088
C36	C	-0.988995	0.566916	0.000074
N37	N	-0.992200	-0.113833	0.217079
N38	N	-0.992220	-0.113833	-0.216911
C39	C	-1.049337	-0.057333	0.452094
C40	C	-1.049340	-0.057331	0.548075
C41	C	-0.935076	-0.170335	0.548068
C42	C	-0.935070	-0.170332	0.452089
C43	C	-0.992205	-0.113833	0.404104
C44	C	-0.992214	-0.113833	0.596065
C45	C	-0.992216	-0.113831	0.700132
C46	C	-0.992202	-0.113833	0.300030
H47	H	-0.563915	0.031251	-0.000006
H48	H	-0.888542	-0.216341	0.413013
H49	H	-0.535001	-0.187708	0.138790
O50	O	-0.445607	-0.033236	-0.150855
C51	C	-0.485054	0.049654	-0.150598
H52	H	-0.503307	0.068950	-0.077436
H53	H	-0.439619	0.093030	-0.178992
H54	H	-0.544133	0.054010	-0.195156
O55	O	-1.104863	-0.002367	0.405622
C56	C	-1.155302	0.047488	0.468566
H57	H	-1.120869	0.048443	0.536985
H58	H	-1.168132	0.113879	0.440843
H59	H	-1.217691	0.020456	0.478768
H60	H	-0.534845	-0.187707	-0.138804
H61	H	-0.420693	-0.259016	-0.000019
O62	O	-0.842786	0.281265	0.000117
C63	C	-0.774236	0.329384	0.000092
H64	H	-0.795570	0.394105	0.028968
H65	H	-0.721158	0.297395	0.044353
H66	H	-0.750549	0.335560	-0.073063
H67	H	-0.449467	-0.039903	0.138794
H68	H	-1.129643	0.482809	0.000075
O69	O	-1.144600	0.320270	-0.000079
C70	C	-1.190781	0.347502	-0.079041
H71	H	-1.145581	0.365534	-0.134237
H72	H	-1.226506	0.294967	-0.105547
H73	H	-1.237601	0.404022	-0.061189
O74	O	-0.839876	0.452205	-0.000042
C75	C	-0.834399	0.501754	-0.079024
H76	H	-0.900608	0.523347	-0.105350
H77	H	-0.800932	0.558543	-0.061262
H78	H	-0.797228	0.463441	-0.134324
H79	H	-1.095861	-0.011324	0.587145
O80	O	-0.879663	-0.225190	0.594825
C81	C	-0.891906	-0.213067	0.689830
H82	H	-0.958692	-0.182032	0.702938
H83	H	-0.882547	-0.276026	0.726299
H84	H	-0.844378	-0.171341	0.717077
