data_functionalizedCrystal
_audit_creation_method	'MofGen! by Chris Wilmer'
_symmetry_space_group_name_H-M	'P1'
_symmetry_Int_Tables_number	1
_symmetry_cell_setting	triclinic
loop_
_symmetry_equiv_pos_as_xyz
  x,y,z
_cell_length_a	6.817900
_cell_length_b	16.305681
_cell_length_c	16.306216
_cell_angle_alpha	95.357586
_cell_angle_beta	103.467292
_cell_angle_gamma	103.457389
loop_
_atom_site_label
_atom_site_type_symbol
_atom_site_fract_x
_atom_site_fract_y
_atom_site_fract_z
V1	V	-4.026294	-0.117377	-0.263316
O2	O	-4.013944	0.004961	-0.258007
O3	O	-3.977691	-0.232086	-0.261801
O4	O	-3.977745	-0.115869	-0.378027
O5	O	-4.013889	-0.112059	-0.140976
V6	V	-4.509967	-0.102709	-0.248649
O7	O	-4.287222	-0.149553	-0.295491
O8	O	-4.699236	-0.070533	-0.216474
O9	O	-4.335364	0.012000	-0.250164
O10	O	-4.639714	-0.225047	-0.253958
O11	O	-4.639769	-0.108026	-0.370989
O12	O	-4.335309	-0.104216	-0.133938
C13	C	-3.822647	-0.260040	-0.257721
C14	C	-3.864194	-0.353817	-0.257247
C15	C	-3.822715	-0.111793	-0.405978
C16	C	-3.864304	-0.111320	-0.499756
C17	C	-3.940336	-0.525519	-0.256401
C18	C	-3.736115	-0.556036	-0.251121
C19	C	-3.779429	-0.653629	-0.250959
C20	C	-4.015299	-0.694571	-0.255567
C21	C	-4.151472	-0.674542	-0.339094
C22	C	-4.106804	-0.576944	-0.339611
C23	C	-4.026276	-0.551391	-0.178450
C24	C	-4.064880	-0.648707	-0.176811
C25	C	-4.057678	-0.790113	-0.255099
C26	C	-3.897966	-0.429979	-0.256875
C27	C	-4.015263	-0.109620	-0.840504
C28	C	-4.219676	-0.115216	-0.810070
C29	C	-4.176405	-0.115385	-0.712479
C30	C	-3.940372	-0.110464	-0.671455
C31	C	-3.804765	-0.026793	-0.691455
C32	C	-3.849393	-0.026273	-0.789052
C33	C	-3.928582	-0.187397	-0.814580
C34	C	-3.890015	-0.189048	-0.717266
C35	C	-3.898034	-0.110938	-0.575915
C36	C	-4.057592	-0.109140	-0.936043
C37	C	-4.153749	0.039950	-0.254242
C38	C	-4.091440	0.133727	-0.254721
C39	C	-4.153681	-0.108295	-0.105983
C40	C	-4.091331	-0.108764	-0.012203
H41	H	-3.673781	-0.666372	-0.190928
H42	H	-3.734222	-0.684175	-0.307116
F43	F	-3.923050	0.050627	-0.808679
H44	H	-3.631045	-0.020149	-0.663949
F45	F	-4.108036	-0.716651	-0.415549
H46	H	-3.608783	-0.521354	-0.191288
F47	F	-4.033870	-0.557365	-0.416669
H48	H	-3.838568	0.031577	-0.659273
H49	H	-4.222179	-0.059365	-0.681974
F50	F	-3.649540	-0.016417	-0.814160
H51	H	-4.259594	-0.557675	-0.346907
H52	H	-4.325095	-0.701989	-0.345510
H53	H	-3.669794	-0.538664	-0.307120
F54	F	-4.307069	-0.042195	-0.832827
F55	F	-3.730441	-0.183058	-0.839860
H56	H	-4.041765	-0.250271	-0.850578
H57	H	-3.721127	-0.190340	-0.689860
H58	H	-3.990527	-0.250905	-0.705497
F59	F	-4.385559	-0.193573	-0.855427
F60	F	-3.877742	-0.504357	-0.096384
H61	H	-3.963959	-0.660504	-0.115058
F62	F	-4.224245	-0.526044	-0.182492
F63	F	-4.285439	-0.684430	-0.174836
F64	F	-4.313992	-0.193991	-0.695851
