data_functionalizedCrystal
_audit_creation_method	'MofGen! by Chris Wilmer'
_symmetry_space_group_name_H-M	'P1'
_symmetry_Int_Tables_number	1
_symmetry_cell_setting	triclinic
loop_
_symmetry_equiv_pos_as_xyz
  x,y,z
_cell_length_a	18.050591
_cell_length_b	21.395361
_cell_length_c	18.050565
_cell_angle_alpha	90.106805
_cell_angle_beta	89.930112
_cell_angle_gamma	89.973287
loop_
_atom_site_label
_atom_site_type_symbol
_atom_site_fract_x
_atom_site_fract_y
_atom_site_fract_z
Zn1	Zn	1.135639	0.249050	-0.420011
Zn2	Zn	1.468972	0.582384	-0.086678
Zn3	Zn	1.802306	0.915717	0.246656
Zn4	Zn	1.135438	0.353966	-0.295811
Zn5	Zn	1.468771	0.687299	0.037522
Zn6	Zn	1.802105	1.020633	0.370855
Zn7	Zn	1.011352	0.249199	-0.295822
Zn8	Zn	1.344685	0.582532	0.037512
Zn9	Zn	1.678019	0.915866	0.370845
Zn10	Zn	1.011401	0.353787	-0.419947
Zn11	Zn	1.344734	0.687120	-0.086614
Zn12	Zn	1.678067	1.020453	0.246720
O13	O	1.073457	0.301501	-0.357898
O14	O	1.406791	0.634834	-0.024564
O15	O	1.740124	0.968167	0.308769
O16	O	1.239537	0.262980	-0.403558
O17	O	1.572870	0.596314	-0.070225
O18	O	1.906203	0.929647	0.263109
O19	O	1.118873	0.340206	-0.191888
O20	O	1.452207	0.673539	0.141446
O21	O	1.785540	1.006873	0.474779
O22	O	1.027903	0.161501	-0.312327
O23	O	1.361236	0.494835	0.021007
O24	O	1.694569	0.828168	0.354340
O25	O	1.239389	0.340062	-0.312309
O26	O	1.572723	0.673395	0.021024
O27	O	1.906056	1.006728	0.354358
O28	O	1.119216	0.161392	-0.403568
O29	O	1.452549	0.494725	-0.070235
O30	O	1.785882	0.828059	0.263099
O31	O	1.027708	0.263234	-0.191895
O32	O	1.361041	0.596567	0.141438
O33	O	1.694374	0.929901	0.474771
O34	O	0.907434	0.263060	-0.312265
O35	O	1.240767	0.596393	0.021069
O36	O	1.574100	0.929727	0.354402
O37	O	1.027986	0.339756	-0.523881
O38	O	1.361319	0.673089	-0.190547
O39	O	1.694652	1.006422	0.142786
O40	O	0.907470	0.339900	-0.403459
O41	O	1.240803	0.673233	-0.070126
O42	O	1.574136	1.006567	0.263207
O43	O	1.119263	0.262806	-0.523927
O44	O	1.452596	0.596140	-0.190594
O45	O	1.785930	0.929473	0.142739
O46	O	1.118920	0.441620	-0.312247
O47	O	1.452254	0.774954	0.021086
O48	O	1.785587	1.108287	0.354420
O49	O	1.027791	0.441488	-0.403449
O50	O	1.361124	0.774822	-0.070116
O51	O	1.694457	1.108155	0.263217
C52	C	0.880505	0.301477	-0.357857
C53	C	1.213839	0.634811	-0.024523
C54	C	1.547172	0.968144	0.308810
C55	C	0.797959	0.301482	-0.357857
C56	C	1.131293	0.634816	-0.024523
C57	C	1.464626	0.968149	0.308810
C58	C	1.073359	0.464288	-0.357856
C59	C	1.406693	0.797622	-0.024523
C60	C	1.740026	1.130955	0.308810
C61	C	1.073385	0.533929	-0.357864
C62	C	1.406719	0.867263	-0.024530
C63	C	1.740052	1.200596	0.308803
C64	C	1.073652	0.301244	-0.551604
C65	C	1.406985	0.634578	-0.218271
C66	C	1.740319	0.967911	0.115063
C67	C	1.073735	0.301135	-0.634150
C68	C	1.407068	0.634469	-0.300817
C69	C	1.740402	0.967802	0.032517
C70	C	0.598468	0.259648	-0.308379
C71	C	0.931801	0.592981	0.024954
C72	C	1.265135	0.926315	0.358287
C73	C	0.549030	0.316816	-0.290098
C74	C	0.882363	0.650150	0.043235
C75	C	1.215696	0.983483	0.376568
C76	C	0.646829	0.301501	-0.357890
C77	C	0.980162	0.634835	-0.024557
C78	C	1.313496	0.968168	0.308776
C79	C	0.549186	0.244353	-0.376169
C80	C	0.882519	0.577686	-0.042836
C81	C	1.215852	0.911020	0.290497
C82	C	0.500844	0.301515	-0.357921
C83	C	0.834177	0.634848	-0.024588
C84	C	1.167511	0.968181	0.308745
C85	C	0.598478	0.358700	-0.339574
C86	C	0.931811	0.692033	-0.006240
C87	C	1.265145	1.025366	0.327093
C88	C	0.598638	0.286198	-0.425677
C89	C	0.931972	0.619531	-0.092343
C90	C	1.265305	0.952864	0.240990
C91	C	0.549222	0.343405	-0.407421
C92	C	0.882556	0.676739	-0.074088
C93	C	1.215889	1.010072	0.259246
C94	C	0.730927	0.301493	-0.357870
C95	C	1.064261	0.634826	-0.024537
C96	C	1.397594	0.968159	0.308796
C97	C	0.416747	0.301530	-0.357941
C98	C	0.750081	0.634863	-0.024608
C99	C	1.083414	0.968196	0.308726
C100	C	1.267163	0.301524	-0.357939
C101	C	1.600496	0.634858	-0.024606
C102	C	1.933830	0.968191	0.308727
C103	C	1.349709	0.301534	-0.357957
C104	C	1.683042	0.634868	-0.024624
C105	C	2.016375	0.968201	0.308710
C106	C	1.073576	0.138077	-0.357955
C107	C	1.406909	0.471410	-0.024622
C108	C	1.740243	0.804744	0.308711
C109	C	1.073627	0.068436	-0.357980
C110	C	1.406960	0.401769	-0.024647
C111	C	1.740293	0.735102	0.308687
C112	C	1.120879	0.566690	-0.310423
C113	C	1.454212	0.900024	0.022910
C114	C	1.787545	1.233357	0.356243
C115	C	1.120913	0.632126	-0.310440
C116	C	1.454246	0.965459	0.022893
C117	C	1.787580	1.298792	0.356227
C118	C	1.073441	0.664798	-0.357889
C119	C	1.406774	0.998131	-0.024556
C120	C	1.740108	1.331464	0.308778
C121	C	1.025944	0.632029	-0.405339
C122	C	1.359278	0.965362	-0.072005
C123	C	1.692611	1.298696	0.261328
C124	C	1.025917	0.566595	-0.405326
C125	C	1.359250	0.899928	-0.071992
C126	C	1.692583	1.233261	0.261341
C127	C	1.006577	0.768502	-0.363702
C128	C	1.339910	1.101835	-0.030368
C129	C	1.673243	1.435168	0.302965
C130	C	1.006603	0.833935	-0.363709
C131	C	1.339937	1.167268	-0.030376
C132	C	1.673270	1.500601	0.302957
C133	C	1.073528	0.866618	-0.357933
C134	C	1.406861	1.199952	-0.024599
C135	C	1.740194	1.533285	0.308734
C136	C	1.140427	0.833861	-0.352133
C137	C	1.473761	1.167195	-0.018799
C138	C	1.807094	1.500528	0.314534
C139	C	1.140399	0.768427	-0.352120
C140	C	1.473733	1.101760	-0.018787
C141	C	1.807066	1.435094	0.314547
C142	C	1.073466	0.735750	-0.357908
C143	C	1.406800	1.069083	-0.024575
C144	C	1.740133	1.402417	0.308758
C145	C	1.121062	0.970332	-0.310508
C146	C	1.454396	1.303665	0.022826
C147	C	1.787729	1.636998	0.356159
C148	C	1.121098	1.035768	-0.310530
C149	C	1.454432	1.369102	0.022804
C150	C	1.787765	1.702435	0.356137
C151	C	1.026123	1.035670	-0.405424
C152	C	1.359456	1.369004	-0.072091
C153	C	1.692790	1.702337	0.261242
C154	C	1.026094	0.970235	-0.405406
C155	C	1.359427	1.303568	-0.072073
C156	C	1.692760	1.636902	0.261260
C157	C	1.073563	0.937570	-0.357944
C158	C	1.406896	1.270903	-0.024611
C159	C	1.740229	1.604236	0.308723
C160	C	1.073306	0.301710	-0.164945
C161	C	1.406639	0.635044	0.168388
C162	C	1.739973	0.968377	0.501722
C163	C	1.073367	0.301643	-0.082399
C164	C	1.406700	0.634976	0.250934
C165	C	1.740034	0.968310	0.584267
C166	C	1.123474	0.342976	0.117092
C167	C	1.456807	0.676309	0.450426
C168	C	1.790141	1.009642	0.783759
C169	C	1.055883	0.358653	0.166680
C170	C	1.389216	0.691986	0.500013
C171	C	1.722549	1.025320	0.833346
C172	C	1.073489	0.301472	0.068730
C173	C	1.406823	0.634805	0.402064
C174	C	1.740156	0.968139	0.735397
C175	C	1.141199	0.285658	0.166225
C176	C	1.474532	0.618991	0.499558
C177	C	1.807865	0.952324	0.832891
C178	C	1.073614	0.301308	0.214715
C179	C	1.406947	0.634642	0.548048
C180	C	1.740280	0.967975	0.881382
C181	C	1.005862	0.317180	0.117231
C182	C	1.339195	0.650514	0.450564
C183	C	1.672528	0.983847	0.783897
C184	C	1.091223	0.244158	0.116771
C185	C	1.424557	0.577492	0.450104
C186	C	1.757890	0.910825	0.783438
C187	C	1.023585	0.259814	0.166336
C188	C	1.356918	0.593147	0.499669
C189	C	1.690252	0.926481	0.833003
C190	C	1.073419	0.301568	-0.015368
C191	C	1.406752	0.634901	0.317966
C192	C	1.740086	0.968235	0.651299
C193	C	1.073677	0.301212	0.298811
C194	C	1.407010	0.634545	0.632145
C195	C	1.740343	0.967879	0.965478
H196	H	0.620092	0.224292	-0.266464
H197	H	0.953425	0.557626	0.066869
H198	H	1.286758	0.890959	0.400202
H199	H	0.952130	0.860600	-0.368424
H200	H	1.285463	1.193934	-0.035091
H201	H	1.618796	1.527267	0.298242
H202	H	0.620444	0.273226	-0.482972
H203	H	0.953777	0.606560	-0.149638
H204	H	1.287110	0.939893	0.183695
H205	H	1.165639	0.378172	0.095469
H206	H	1.498972	0.711505	0.428802
H207	H	1.832305	1.044838	0.762135
H208	H	1.159532	0.540096	-0.271779
H209	H	1.492866	0.873429	0.061555
H210	H	1.826199	1.206763	0.394888
H211	H	0.527735	0.378846	-0.449304
H212	H	0.861068	0.712179	-0.115971
H213	H	1.194402	1.045512	0.217363
H214	H	0.987417	0.943559	-0.444034
H215	H	1.320750	1.276893	-0.110700
H216	H	1.654084	1.610226	0.222633
H217	H	1.040932	0.407052	0.188594
H218	H	1.374265	0.740385	0.521928
H219	H	1.707598	1.073719	0.855261
H220	H	0.948636	0.330541	0.095794
H221	H	1.281969	0.663874	0.429128
H222	H	1.615303	0.997207	0.762461
H223	H	1.106194	0.195773	0.094841
H224	H	1.439528	0.529106	0.428174
H225	H	1.772861	0.862439	0.761508
H226	H	0.987241	0.539920	-0.443958
H227	H	1.320574	0.873254	-0.110625
H228	H	1.653908	1.206587	0.222708
H229	H	0.527242	0.329770	-0.232786
H230	H	0.860575	0.663103	0.100547
H231	H	1.193909	0.996437	0.433881
H232	H	0.981319	0.224646	0.187823
H233	H	1.314653	0.557979	0.521156
H234	H	1.647986	0.891313	0.854490
H235	H	1.194870	0.741758	-0.347400
H236	H	1.528204	1.075091	-0.014066
H237	H	1.861537	1.408424	0.319267
H238	H	1.198408	0.272350	0.187752
H239	H	1.531741	0.605683	0.521086
H240	H	1.865074	0.939017	0.854419
H241	H	0.620041	0.407049	-0.324063
H242	H	0.953374	0.740382	0.009271
H243	H	1.286707	1.073716	0.342604
H244	H	0.527494	0.196024	-0.391592
H245	H	0.860827	0.529357	-0.058258
H246	H	1.194160	0.862691	0.275075
H247	H	1.159591	0.658805	-0.271808
H248	H	1.492924	0.992138	0.061525
H249	H	1.826257	1.325471	0.394858
H250	H	1.194923	0.860471	-0.347429
H251	H	1.528257	1.193804	-0.014096
H252	H	1.861590	1.527138	0.319238
H253	H	1.159717	0.943735	-0.271863
H254	H	1.493050	1.277068	0.061470
H255	H	1.826384	1.610401	0.394803
H256	H	1.159778	1.062441	-0.271899
H257	H	1.493111	1.395774	0.061434
H258	H	1.826444	1.729108	0.394767
H259	H	0.987474	1.062271	-0.444062
H260	H	1.320807	1.395605	-0.110728
H261	H	1.654140	1.728938	0.222605
H262	H	0.952075	0.741897	-0.368409
H263	H	1.285408	1.075230	-0.035075
H264	H	1.618741	1.408564	0.298258
H265	H	0.987294	0.658635	-0.443973
H266	H	1.320627	0.991968	-0.110640
H267	H	1.653960	1.325301	0.222693
