data_functionalizedCrystal
_audit_creation_method	'MofGen! by Chris Wilmer'
_symmetry_space_group_name_H-M	'P1'
_symmetry_Int_Tables_number	1
_symmetry_cell_setting	triclinic
loop_
_symmetry_equiv_pos_as_xyz
  x,y,z
_cell_length_a	10.489741
_cell_length_b	19.188924
_cell_length_c	9.565339
_cell_angle_alpha	90.001833
_cell_angle_beta	90.000900
_cell_angle_gamma	83.840569
loop_
_atom_site_label
_atom_site_type_symbol
_atom_site_fract_x
_atom_site_fract_y
_atom_site_fract_z
O1	O	1.691846	0.098498	0.116181
O2	O	1.320443	0.107744	0.116203
O3	O	1.516867	0.001537	0.116175
O4	O	1.495422	0.204705	0.116209
O5	O	1.516852	0.001543	-0.116345
O6	O	1.320428	0.107750	-0.116317
O7	O	1.691830	0.098504	-0.116339
Zn8	Zn	1.506127	0.103128	-0.153246
Zn9	Zn	1.506147	0.103120	0.153110
O10	O	1.495407	0.204711	-0.116311
C11	C	1.272919	0.107049	-0.000054
C12	C	1.131337	0.104959	-0.000046
C13	C	1.516166	-0.024476	-0.000086
C14	C	1.514086	-0.101995	-0.000090
C15	C	1.064711	0.037383	-0.000071
C16	C	0.971876	0.069302	0.114576
C17	C	0.971895	0.069325	-0.114670
C18	C	1.040367	0.136906	0.114695
C19	C	1.040395	0.136920	-0.114654
C20	C	0.947587	0.168888	0.000021
C21	C	1.513124	-0.138404	0.126657
C22	C	1.511151	-0.211239	0.126668
C23	C	1.510166	-0.247665	-0.000076
C24	C	1.511122	-0.211247	-0.126840
C25	C	1.513081	-0.138412	-0.126847
N26	N	1.579664	-0.366860	-0.094412
N27	N	1.577805	-0.436051	-0.094397
C28	C	1.504258	-0.467114	-0.000062
N29	N	1.432657	-0.426374	0.094278
N30	N	1.434522	-0.357177	0.094267
C31	C	1.508040	-0.326643	-0.000082
C32	C	1.501155	-0.582500	0.126705
C33	C	1.499174	-0.655337	0.126711
C34	C	1.499158	-0.655344	-0.126800
C35	C	1.501126	-0.582508	-0.126802
C36	C	1.502130	-0.546090	-0.000045
C37	C	1.739354	0.099199	-0.000079
C38	C	1.880937	0.101289	-0.000078
C39	C	1.496107	0.230724	-0.000047
C40	C	1.498188	0.308243	-0.000034
N41	N	1.506122	0.103134	-0.362325
C42	C	1.415255	0.152235	-0.453515
C43	C	1.530436	0.166362	-0.546698
C44	C	1.390991	0.089013	-0.546697
C45	C	1.621360	0.117293	-0.453457
C46	C	1.481840	0.039916	-0.453447
C47	C	1.597104	0.054016	-0.546588
N48	N	1.506162	0.103109	0.362189
H49	H	0.941509	0.040706	0.211494
O50	O	1.737653	0.131587	-0.405049
C51	C	1.819011	0.141584	-0.518979
H52	H	1.784255	0.114137	-0.615256
H53	H	1.920964	0.118659	-0.492673
H54	H	1.817604	0.200037	-0.541134
H55	H	1.513938	-0.108757	0.229872
H56	H	1.674048	0.012480	-0.587198
O57	O	1.510231	-0.246510	0.249921
C58	C	1.511474	-0.198745	0.361795
H59	H	1.553278	-0.149522	0.324654
H60	H	1.572779	-0.223917	0.450466
H61	H	1.409374	-0.184171	0.400730
H62	H	1.338481	0.193796	-0.412649
H63	H	1.551001	0.219813	-0.587658
O64	O	1.509941	-0.246580	-0.249996
C65	C	1.399990	-0.221420	-0.327110
H66	H	1.323345	-0.196257	-0.252940
H67	H	1.361629	-0.266853	-0.384599
H68	H	1.426086	-0.180806	-0.406148
H69	H	1.498384	-0.684979	0.229928
O70	O	1.502251	-0.547070	-0.249835
C71	C	1.613839	-0.512309	-0.257441
H72	H	1.650957	-0.503848	-0.147393
H73	H	1.590379	-0.459438	-0.311086
H74	H	1.690413	-0.545531	-0.319994
O75	O	1.513798	-0.102994	-0.249938
C76	C	1.404515	-0.053494	-0.257499
H77	H	1.326737	-0.070300	-0.185565
H78	H	1.367458	-0.050199	-0.369600
H79	H	1.430978	0.000043	-0.223447
H80	H	1.498346	-0.685000	-0.229997
H81	H	1.461239	-0.013519	-0.412455
H82	H	0.896917	0.224499	0.000093
O83	O	1.274764	0.074729	-0.595320
C84	C	1.192850	0.065398	-0.481540
H85	H	1.252762	0.049968	-0.384767
H86	H	1.129911	0.022252	-0.507356
H87	H	1.129639	0.116428	-0.460493
O88	O	1.125391	-0.028909	0.000303
C89	C	1.090679	-0.064284	0.121386
H90	H	1.057048	-0.024373	0.205452
H91	H	1.177117	-0.099760	0.161401
H92	H	1.009805	-0.097324	0.095220
H93	H	1.070561	0.165474	0.211730
O94	O	1.076889	0.171016	-0.230169
C95	C	1.210834	0.173046	-0.227861
H96	H	1.246966	0.166975	-0.115661
H97	H	1.234830	0.225335	-0.271628
H98	H	1.259018	0.128471	-0.294426
H99	H	0.941551	0.040722	-0.211596
O100	O	1.502057	-0.547222	0.249955
C101	C	1.500802	-0.594982	0.361832
H102	H	1.459028	-0.644213	0.324680
H103	H	1.439465	-0.569810	0.450481
H104	H	1.602895	-0.609542	0.400803
