data_functionalizedCrystal
_audit_creation_method	'MofGen! by Chris Wilmer'
_symmetry_space_group_name_H-M	'P1'
_symmetry_Int_Tables_number	1
_symmetry_cell_setting	triclinic
loop_
_symmetry_equiv_pos_as_xyz
  x,y,z
_cell_length_a	16.974829
_cell_length_b	10.654541
_cell_length_c	15.455313
_cell_angle_alpha	92.691200
_cell_angle_beta	83.671566
_cell_angle_gamma	83.939946
loop_
_atom_site_label
_atom_site_type_symbol
_atom_site_fract_x
_atom_site_fract_y
_atom_site_fract_z
O1	O	1.056992	0.148950	-0.146325
O2	O	1.556992	0.648950	0.353675
O3	O	0.826126	0.170562	-0.130121
O4	O	1.326126	0.670562	0.369879
O5	O	0.946868	-0.023093	-0.138591
O6	O	1.446868	0.476907	0.361409
O7	O	0.936250	0.342606	-0.137856
O8	O	1.436250	0.842606	0.362144
O9	O	0.939963	-0.012065	0.006156
O10	O	1.439963	0.487935	0.506156
O11	O	0.819221	0.181591	0.014625
O12	O	1.319221	0.681591	0.514625
O13	O	1.050087	0.159979	-0.001579
O14	O	1.550087	0.659979	0.498421
Cu15	Cu	0.934024	0.171792	0.019740
Cu16	Cu	1.434024	0.671792	0.519740
Cu17	Cu	0.942189	0.158749	-0.151440
Cu18	Cu	1.442189	0.658749	0.348560
O19	O	0.929345	0.353635	0.006890
O20	O	1.429345	0.853635	0.506890
C21	C	0.793112	0.175458	-0.055673
C22	C	1.293112	0.675458	0.444327
C23	C	0.705028	0.173600	-0.049491
C24	C	1.205028	0.673600	0.450509
C25	C	0.208802	0.163826	-0.006221
C26	C	0.708802	0.663826	0.493779
C27	C	0.291566	0.165572	-0.012031
C28	C	0.791566	0.665572	0.487969
C29	C	0.336713	0.160424	-0.093839
C30	C	0.836713	0.660424	0.406161
C31	C	0.299091	0.153542	-0.169842
C32	C	0.799091	0.653542	0.330158
C33	C	0.216327	0.151805	-0.164030
C34	C	0.716327	0.651805	0.335970
C35	C	0.584642	0.164981	-0.119681
C36	C	1.084642	0.664981	0.380319
C37	C	0.667412	0.166714	-0.125487
C38	C	1.167412	0.666714	0.374513
C39	C	0.659881	0.178747	0.032324
C40	C	1.159881	0.678747	0.532324
C41	C	0.577117	0.177002	0.038128
C42	C	1.077117	0.677002	0.538128
C43	C	0.539501	0.170127	-0.037874
C44	C	1.039501	0.670127	0.462126
N45	N	0.421312	0.162204	-0.099781
N46	N	0.921312	0.662204	0.400219
N47	N	0.454904	0.168356	-0.031932
N48	N	0.954904	0.668356	0.468068
C49	C	0.942636	-0.064361	-0.066163
C50	C	1.442636	0.435639	0.433837
C51	C	0.940305	-0.203756	-0.066001
C52	C	1.440305	0.296244	0.433999
C53	C	1.084685	-0.234732	-0.076124
C54	C	1.584685	0.265268	0.423876
C55	C	1.155776	-0.315705	-0.081106
C56	C	1.655776	0.184295	0.418894
C57	C	1.153580	-0.446678	-0.080955
C58	C	1.653580	0.053322	0.419045
C59	C	1.080286	-0.496678	-0.075823
C60	C	1.580286	0.003322	0.424177
C61	C	1.009195	-0.415705	-0.070841
C62	C	1.509195	0.084295	0.429159
C63	C	1.011398	-0.284731	-0.070990
C64	C	1.511398	0.215269	0.429010
C65	C	0.864818	-0.384730	-0.060724
C66	C	1.364818	0.115270	0.439276
C67	C	0.867011	-0.253756	-0.060869
C68	C	1.367011	0.246244	0.439131
C69	C	0.791523	-0.434730	-0.055593
C70	C	1.291523	0.065270	0.444407
C71	C	0.720430	-0.353756	-0.050604
C72	C	1.220430	0.146244	0.449396
C73	C	0.722629	-0.222776	-0.050754
C74	C	1.222629	0.277224	0.449246
C75	C	0.795920	-0.172783	-0.055887
C76	C	1.295920	0.327217	0.444113
C77	C	1.083101	0.155083	-0.076029
C78	C	1.583101	0.655083	0.423971
C79	C	1.171185	0.156941	-0.082217
C80	C	1.671185	0.656941	0.417783
C81	C	0.933577	0.394902	-0.065539
C82	C	1.433577	0.894902	0.434461
C83	C	0.935909	0.534297	-0.065707
C84	C	1.435909	1.034297	0.434293
N85	N	0.928286	0.180965	0.140138
N86	N	1.428286	0.680965	0.640138
N87	N	0.947933	0.149566	-0.271838
N88	N	1.447933	0.649566	0.228162
C89	C	0.979600	0.098723	0.181932
C90	C	1.479600	0.598723	0.681932
C91	C	0.975268	0.105671	0.273044
C92	C	1.475268	0.605671	0.773044
C93	C	0.919626	0.194868	0.322359
C94	C	1.419626	0.694868	0.822359
C95	C	0.868307	0.277114	0.280558
C96	C	1.368307	0.777114	0.780558
C97	C	0.872635	0.270158	0.189448
C98	C	1.372635	0.770158	0.689448
C99	C	0.900943	0.224857	0.595251
C100	C	1.400943	0.724857	1.095251
C101	C	0.896620	0.231808	0.686367
C102	C	1.396620	0.731808	1.186367
C103	C	1.003580	0.060363	0.678846
C104	C	1.503580	0.560363	1.178846
C105	C	1.007907	0.053421	0.587735
C106	C	1.507907	0.553421	1.087735
C107	C	0.956585	0.135662	0.545942
C108	C	1.456585	0.635662	1.045942
N109	N	0.915199	0.201976	0.415490
N110	N	1.415199	0.701976	0.915490
N111	N	0.961009	0.128548	0.452813
N112	N	1.461009	0.628548	0.952813
H113	H	0.185701	0.146202	-0.225914
H114	H	0.685701	0.646202	0.274086
H115	H	0.789741	-0.541377	-0.055475
H116	H	1.289741	-0.041377	0.444525
N117	N	0.798285	-0.031520	-0.056050
N118	N	1.298285	0.468480	0.443950
H119	H	0.824593	-0.001965	-0.004415
H120	H	1.324593	0.498035	0.495585
H121	H	0.829708	-0.010241	-0.111766
H122	H	1.329708	0.489759	0.388234
H123	H	1.017051	0.038703	0.307073
H124	H	1.517051	0.538703	0.807073
N125	N	0.641383	-0.407676	-0.045063
N126	N	1.141383	0.092324	0.454937
H127	H	0.612766	-0.382191	-0.096532
H128	H	1.112766	0.117809	0.403468
H129	H	0.650842	-0.502922	-0.045699
H130	H	1.150842	-0.002922	0.454301
N131	N	0.845587	0.313549	0.550181
N132	N	1.345587	0.813549	1.050181
H133	H	0.809684	0.371108	0.595250
H134	H	1.309684	0.871108	1.095250
H135	H	0.878049	0.365999	0.510207
H136	H	1.378049	0.865999	1.010207
N137	N	1.058926	-0.028345	0.723921
N138	N	1.558926	0.471655	1.223921
H139	H	1.116062	-0.015435	0.704091
H140	H	1.616062	0.484565	1.204091
H141	H	1.047675	-0.010364	0.789111
H142	H	1.547675	0.489636	1.289111
H143	H	1.053215	-0.019210	0.547584
H144	H	1.553215	0.480790	1.047584
H145	H	1.086479	-0.128088	-0.076236
H146	H	1.586479	0.371912	0.423764
H147	H	1.024913	0.026094	0.141785
H148	H	1.524913	0.526094	0.641785
N149	N	0.808286	0.373312	0.333743
N150	N	1.308286	0.873312	0.833743
H151	H	0.813331	0.365243	0.397804
H152	H	1.313331	0.865243	0.897804
H153	H	0.818692	0.461128	0.317127
H154	H	1.318692	0.961128	0.817127
H155	H	0.851307	0.304448	0.726516
H156	H	1.351307	0.804448	1.226516
N157	N	0.700457	0.186181	0.114289
N158	N	1.200457	0.686181	0.614289
H159	H	0.678406	0.266353	0.150207
H160	H	1.178406	0.766353	0.650207
H161	H	0.690399	0.110614	0.149315
H162	H	1.190399	0.610614	0.649315
H163	H	0.704168	0.162532	-0.192109
H164	H	1.204168	0.662532	0.307891
N165	N	1.234824	-0.261772	-0.086631
N166	N	1.734824	0.238228	0.413369
H167	H	1.279525	-0.332944	-0.089764
H168	H	1.779525	0.167056	0.410236
H169	H	1.241449	-0.212187	-0.140572
H170	H	1.741449	0.287813	0.359428
N171	N	1.230254	-0.534023	-0.086335
N172	N	1.730254	-0.034023	0.413665
H173	H	1.277019	-0.482480	-0.089611
H174	H	1.777019	0.017520	0.410389
H175	H	1.229920	-0.584954	-0.032833
H176	H	1.729920	-0.084954	0.467167
H177	H	0.540366	0.181167	0.104745
H178	H	1.040366	0.681167	0.604745
H179	H	0.554026	0.159378	-0.181568
H180	H	1.054026	0.659378	0.318432
N181	N	0.817287	0.358854	0.144365
N182	N	1.317287	0.858854	0.644365
H183	H	0.781381	0.416417	0.189430
H184	H	1.281381	0.916417	0.689430
H185	H	0.849753	0.411301	0.104393
H186	H	1.349753	0.911301	0.604393
H187	H	0.335855	0.149357	-0.236452
H188	H	0.835855	0.649357	0.263548
N189	N	1.077924	-0.637942	-0.075665
N190	N	1.577924	-0.137942	0.424335
H191	H	1.046488	-0.659332	-0.019985
H192	H	1.546488	-0.159332	0.480015
H193	H	1.051634	-0.667396	-0.127337
H194	H	1.551634	-0.167396	0.372663
N195	N	0.645955	-0.135431	-0.045381
N196	N	1.145955	0.364569	0.454619
H197	H	0.616577	-0.155531	-0.096801
H198	H	1.116577	0.344469	0.403199
H199	H	0.611508	-0.147409	0.010546
H200	H	1.111508	0.352591	0.510546
N201	N	0.160113	0.169368	0.082017
N202	N	0.660113	0.669368	0.582017
H203	H	0.196572	0.173121	0.129270
H204	H	0.696572	0.673121	0.629270
H205	H	0.119976	0.247216	0.088520
H206	H	0.619976	0.747216	0.588520
N207	N	0.332138	0.173011	0.069936
N208	N	0.832138	0.673011	0.569936
H209	H	0.290980	0.176004	0.122642
H210	H	0.790980	0.676004	0.622642
H211	H	0.372317	0.096155	0.070548
H212	H	0.872317	0.596155	0.570548
