data_functionalizedCrystal
_audit_creation_method	'MofGen! by Chris Wilmer'
_symmetry_space_group_name_H-M	'P1'
_symmetry_Int_Tables_number	1
_symmetry_cell_setting	triclinic
loop_
_symmetry_equiv_pos_as_xyz
  x,y,z
_cell_length_a	14.853558
_cell_length_b	19.188924
_cell_length_c	13.330367
_cell_angle_alpha	89.993282
_cell_angle_beta	89.992972
_cell_angle_gamma	83.386549
loop_
_atom_site_label
_atom_site_type_symbol
_atom_site_fract_x
_atom_site_fract_y
_atom_site_fract_z
O1	O	1.195864	0.091125	-0.083416
O2	O	0.933343	0.101990	-0.083421
O3	O	1.072183	-0.005074	-0.083407
O4	O	1.057025	0.198188	-0.083431
O5	O	1.072163	-0.005076	0.083441
O6	O	0.933323	0.101988	0.083426
O7	O	1.195844	0.091122	0.083431
Cu8	Cu	1.064582	0.096555	0.098663
Cu9	Cu	1.064606	0.096558	-0.098653
O10	O	1.057005	0.198186	0.083417
C11	C	0.899747	0.101498	0.000002
C12	C	0.799671	0.100026	0.000000
C13	C	0.752666	0.099337	-0.090952
C14	C	0.752642	0.099326	0.090951
C15	C	0.658616	0.097939	0.090953
C16	C	0.611611	0.097251	0.000001
C17	C	0.658631	0.097948	-0.090953
C18	C	0.611590	0.097235	0.181905
C19	C	0.517558	0.095847	0.181911
C20	C	0.470550	0.095163	0.090958
C21	C	0.517577	0.095862	0.000000
C22	C	0.470571	0.095173	-0.090952
C23	C	0.517595	0.095876	-0.181911
C24	C	0.611623	0.097264	-0.181906
C25	C	0.376522	0.093775	0.090953
C26	C	0.376537	0.093784	-0.090953
C27	C	1.071683	-0.031087	0.000018
C28	C	1.070212	-0.108597	0.000021
C29	C	1.069537	-0.144997	-0.090928
C30	C	1.068143	-0.217824	-0.090936
C31	C	1.067442	-0.254251	0.000010
C32	C	1.068112	-0.217842	0.090971
C33	C	1.069497	-0.145015	0.090976
N34	N	1.116562	-0.373752	0.067700
N35	N	1.115248	-0.442935	0.067689
C36	C	1.063266	-0.473674	0.000001
N37	N	1.012659	-0.432617	-0.067692
N38	N	1.013977	-0.363429	-0.067684
C39	C	1.065939	-0.333219	0.000015
C40	C	1.061077	-0.589041	-0.090963
C41	C	1.059677	-0.661869	-0.090966
C42	C	1.059656	-0.661886	0.090943
C43	C	1.061047	-0.589059	0.090944
C44	C	1.061762	-0.552641	-0.000011
C45	C	1.229440	0.091614	0.000006
C46	C	1.329516	0.093086	0.000001
C47	C	1.057504	0.224200	-0.000010
C48	C	1.058975	0.301709	-0.000019
N49	N	1.064572	0.096552	0.237445
N50	N	1.064623	0.096554	-0.237435
C51	C	1.003125	0.143947	0.710061
C52	C	1.126111	0.049163	0.710042
C53	C	1.126100	0.049161	0.605024
C54	C	1.064602	0.096553	0.552519
C55	C	1.003114	0.143947	0.605033
C56	C	1.187593	0.001772	0.552502
C57	C	1.187586	0.001768	0.447477
C58	C	1.126083	0.049158	0.394971
C59	C	1.064592	0.096554	0.447491
C60	C	1.003094	0.143946	0.394986
C61	C	0.941598	0.191339	0.447505
C62	C	0.941611	0.191337	0.552526
C63	C	1.126070	0.049160	0.289949
C64	C	1.003084	0.143947	0.289958
H65	H	0.649870	0.097789	0.255954
H66	H	1.061604	-0.559422	0.165005
H67	H	0.479311	0.095311	-0.255964
H68	H	0.338238	0.093209	0.165010
H69	H	1.061654	-0.559388	-0.165024
H70	H	1.176143	0.010576	0.247193
H71	H	0.953053	0.182532	0.752824
H72	H	1.237668	-0.036810	0.595254
H73	H	1.176185	0.010581	0.752794
H74	H	1.070117	-0.115350	-0.164991
H75	H	1.237658	-0.036822	0.404723
H76	H	0.891544	0.229923	0.595293
H77	H	0.649919	0.097836	-0.255960
H78	H	1.059123	-0.691504	-0.165031
H79	H	0.790956	0.099913	-0.165008
H80	H	1.059078	-0.691543	0.164993
H81	H	1.067539	-0.247505	0.165020
H82	H	0.338271	0.093227	-0.165018
H83	H	0.790920	0.099882	0.165000
H84	H	0.479280	0.095274	0.255975
H85	H	0.953001	0.182537	0.247215
H86	H	1.070044	-0.115378	0.165040
H87	H	1.067587	-0.247466	-0.164999
H88	H	0.891529	0.229929	0.404744
