data_functionalizedCrystal
_audit_creation_method	'MofGen! by Chris Wilmer'
_symmetry_space_group_name_H-M	'P1'
_symmetry_Int_Tables_number	1
_symmetry_cell_setting	triclinic
loop_
_symmetry_equiv_pos_as_xyz
  x,y,z
_cell_length_a	19.188930
_cell_length_b	16.109301
_cell_length_c	14.586319
_cell_angle_alpha	90.005214
_cell_angle_beta	90.017382
_cell_angle_gamma	83.303130
loop_
_atom_site_label
_atom_site_type_symbol
_atom_site_fract_x
_atom_site_fract_y
_atom_site_fract_z
O1	O	-0.926386	-0.103796	-0.076538
O2	O	-0.426386	0.396204	0.423462
O3	O	-0.723108	-0.117769	-0.076476
O4	O	-0.223108	0.382231	0.423524
O5	O	-0.830331	0.010267	-0.076499
O6	O	-0.330331	0.510267	0.423501
O7	O	-0.819163	-0.231832	-0.076514
O8	O	-0.319163	0.268168	0.423486
O9	O	-0.830324	0.010268	0.075982
O10	O	-0.330324	0.510268	0.575982
O11	O	-0.723100	-0.117767	0.076005
O12	O	-0.223100	0.382233	0.576005
O13	O	-0.926379	-0.103795	0.075943
O14	O	-0.426379	0.396205	0.575943
Cu15	Cu	-0.824739	-0.110781	0.089897
Cu16	Cu	-0.324739	0.389219	0.589897
Cu17	Cu	-0.824748	-0.110783	-0.090429
Cu18	Cu	-0.324748	0.389217	0.409571
O19	O	-0.819155	-0.231830	0.075966
O20	O	-0.319155	0.268170	0.575966
C21	C	-0.697092	-0.117316	-0.000227
C22	C	-0.197092	0.382684	0.499773
C23	C	-0.619584	-0.115958	-0.000203
C24	C	-0.119584	0.384042	0.499797
C25	C	-0.952395	-0.104248	-0.000308
C26	C	-0.452395	0.395752	0.499692
C27	C	-1.029903	-0.105606	-0.000338
C28	C	-0.529903	0.394394	0.499662
C29	C	-0.574836	-0.191085	-0.000222
C30	C	-0.074836	0.308915	0.499778
C31	C	-0.502009	-0.189809	-0.000232
C32	C	-0.002009	0.310191	0.499768
C33	C	-0.473934	-0.113401	-0.000241
C34	C	0.026066	0.386599	0.499759
C35	C	-0.518692	-0.038264	-0.000217
C36	C	-0.018692	0.461736	0.499783
C37	C	-0.591517	-0.039542	-0.000198
C38	C	-0.091517	0.460458	0.499802
N39	N	-0.365820	-0.054998	-0.052170
N40	N	0.134180	0.445002	0.447830
N41	N	-0.296638	-0.053788	-0.052191
N42	N	0.203362	0.446212	0.447809
C43	C	-0.254516	-0.109545	-0.000297
C44	C	0.245484	0.390455	0.499703
N45	N	-0.284188	-0.166569	0.051606
N46	N	0.215812	0.333431	0.551606
N47	N	-0.353375	-0.167781	0.051622
N48	N	0.146625	0.332219	0.551622
C49	C	-0.394968	-0.112007	-0.000262
C50	C	0.105032	0.387993	0.499738
C51	C	-0.130800	-0.183294	-0.000326
C52	C	0.369200	0.316706	0.499674
C53	C	-0.057973	-0.182015	-0.000330
C54	C	0.442027	0.317985	0.499670
C55	C	-0.074657	-0.030468	-0.000324
C56	C	0.425343	0.469532	0.499676
C57	C	-0.147483	-0.031749	-0.000311
C58	C	0.352517	0.468251	0.499689
C59	C	-0.175550	-0.108165	-0.000316
C60	C	0.324450	0.391835	0.499684
C61	C	-0.829875	0.041241	-0.000258
C62	C	-0.329875	0.541241	0.499742
C63	C	-0.828519	0.133532	-0.000256
C64	C	-0.328519	0.633532	0.499744
C65	C	-0.819612	-0.262805	-0.000277
C66	C	-0.319612	0.237195	0.499723
C67	C	-0.820968	-0.355096	-0.000284
C68	C	-0.320968	0.144904	0.499716
N69	N	-0.824738	-0.110779	0.216728
N70	N	-0.324738	0.389221	0.716728
C71	C	-0.888990	0.356005	-0.000290
C72	C	-0.388990	0.856005	0.499710
C73	C	-0.887710	0.442721	-0.000297
C74	C	-0.387710	0.942721	0.499703
C75	C	-0.760493	0.422425	-0.000254
C76	C	-0.260493	0.922425	0.499746
C77	C	-0.761773	0.335710	-0.000253
C78	C	-0.261773	0.835710	0.499747
C79	C	-0.826024	0.302503	-0.000267
C80	C	-0.326024	0.802503	0.499733
C81	C	-0.823463	0.475933	-0.000274
C82	C	-0.323463	0.975933	0.499726
C83	C	-0.822075	0.569955	-0.000282
C84	C	-0.322075	1.069955	0.499718
C85	C	-0.827412	0.208475	-0.000261
C86	C	-0.327412	0.708475	0.499739
N87	N	-0.824754	-0.110778	-0.217261
N88	N	-0.324754	0.389222	0.282739
C89	C	-0.872232	-0.054103	0.451724
C90	C	-0.372232	0.445897	0.951724
C91	C	-0.872234	-0.054101	0.547706
C92	C	-0.372234	0.445899	1.047706
C93	C	-0.777255	-0.167457	0.547736
C94	C	-0.277255	0.332543	1.047736
C95	C	-0.777250	-0.167454	0.451757
C96	C	-0.277250	0.332546	0.951757
C97	C	-0.824743	-0.110778	0.403753
C98	C	-0.324743	0.389222	0.903753
C99	C	-0.824750	-0.110779	0.595714
C100	C	-0.324750	0.389221	1.095714
C101	C	-0.824751	-0.110777	0.699781
C102	C	-0.324751	0.389223	1.199781
C103	C	-0.824740	-0.110779	0.299679
C104	C	-0.324740	0.389221	0.799679
H105	H	-0.597683	-0.253308	-0.000228
H106	H	-0.097683	0.246692	0.499772
Br107	Br	-0.936685	0.022815	0.386580
Br108	Br	-0.436685	0.522815	0.886580
Br109	Br	-0.973167	0.515328	-0.000333
Br110	Br	-0.473167	1.015328	0.499667
H111	H	-0.153654	-0.245516	-0.000316
H112	H	0.346346	0.254484	0.499684
H113	H	-0.183919	0.029428	-0.000300
H114	H	0.316081	0.529428	0.499700
Br115	Br	-0.676313	0.263094	-0.000235
Br116	Br	-0.176313	0.763094	0.499765
Br117	Br	-0.936683	0.022822	0.612808
Br118	Br	-0.436683	0.522822	1.112808
H119	H	-0.738589	-0.213602	0.586830
H120	H	-0.238589	0.286398	1.086830
H121	H	-0.738575	-0.213606	0.412696
H122	H	-0.238575	0.286394	0.912696
H123	H	-0.465568	-0.250988	-0.000245
H124	H	0.034432	0.249012	0.499755
H125	H	-0.495829	0.023948	-0.000237
H126	H	0.004171	0.523948	0.499763
H127	H	-0.627952	0.021638	-0.000183
H128	H	-0.127952	0.521638	0.499817
Br129	Br	-0.036564	0.073231	-0.000322
Br130	Br	0.463436	0.573231	0.499678
H131	H	-0.708182	0.449473	-0.000242
H132	H	-0.208182	0.949473	0.499758
Br133	Br	0.002760	-0.283983	-0.000348
Br134	Br	0.502760	0.216017	0.499652
H135	H	-0.941306	0.328970	-0.000302
H136	H	-0.441306	0.828970	0.499698
