data_functionalizedCrystal
_audit_creation_method	'MofGen! by Chris Wilmer'
_symmetry_space_group_name_H-M	'P1'
_symmetry_Int_Tables_number	1
_symmetry_cell_setting	triclinic
loop_
_symmetry_equiv_pos_as_xyz
  x,y,z
_cell_length_a	16.109301
_cell_length_b	9.065218
_cell_length_c	8.140239
_cell_angle_alpha	89.997198
_cell_angle_beta	89.998879
_cell_angle_gamma	95.761317
loop_
_atom_site_label
_atom_site_type_symbol
_atom_site_fract_x
_atom_site_fract_y
_atom_site_fract_z
O1	O	-0.121905	1.957448	-0.136598
O2	O	0.211428	2.290782	0.196735
O3	O	0.544762	2.624115	0.530068
O4	O	-0.131904	1.527922	-0.136599
O5	O	0.201429	1.861255	0.196734
O6	O	0.534762	2.194588	0.530068
O7	O	-0.005964	1.754484	-0.136607
O8	O	0.327369	2.087818	0.196726
O9	O	0.660702	2.421151	0.530059
O10	O	-0.247845	1.730885	-0.136590
O11	O	0.085488	2.064219	0.196743
O12	O	0.418822	2.397552	0.530076
O13	O	-0.005963	1.754472	0.136620
O14	O	0.327371	2.087805	0.469953
O15	O	0.660704	2.421139	0.803287
O16	O	-0.131903	1.527909	0.136628
O17	O	0.201431	1.861242	0.469961
O18	O	0.534764	2.194576	0.803295
O19	O	-0.121904	1.957436	0.136629
O20	O	0.211430	2.290769	0.469962
O21	O	0.544763	2.624103	0.803295
Zn22	Zn	-0.126903	1.742671	0.180009
Zn23	Zn	0.206430	2.076004	0.513342
Zn24	Zn	0.539764	2.409337	0.846676
Zn25	Zn	-0.126905	1.742687	-0.179979
Zn26	Zn	0.206428	2.076020	0.153354
Zn27	Zn	0.539762	2.409354	0.486687
O28	O	-0.247843	1.730873	0.136637
O29	O	0.085490	2.064206	0.469970
O30	O	0.418823	2.397540	0.803304
C31	C	-0.130943	1.472952	0.000014
C32	C	0.202391	1.806285	0.333347
C33	C	0.535724	2.139619	0.666681
C34	C	-0.128069	1.309179	0.000013
C35	C	0.205264	1.642512	0.333346
C36	C	0.538598	1.975845	0.666680
C37	C	-0.278826	1.731835	0.000025
C38	C	0.054507	2.065168	0.333359
C39	C	0.387840	2.398502	0.666692
C40	C	-0.371144	1.734701	0.000032
C41	C	-0.037810	2.068034	0.333365
C42	C	0.295523	2.401368	0.666698
C43	C	-0.592434	1.606927	0.000008
C44	C	-0.259101	1.940260	0.333341
C45	C	0.074232	2.273594	0.666674
C46	C	-0.679176	1.609631	-0.000005
C47	C	-0.345842	1.942965	0.333328
C48	C	-0.012509	2.276298	0.666662
C49	C	-0.661367	1.878441	0.000003
C50	C	-0.328033	2.211774	0.333336
C51	C	0.005300	2.545107	0.666669
C52	C	-0.574627	1.875735	0.000003
C53	C	-0.241294	2.209068	0.333337
C54	C	0.092040	2.542401	0.666670
C55	C	-0.540164	1.739974	0.000014
C56	C	-0.206830	2.073307	0.333347
C57	C	0.126503	2.406640	0.666681
C58	C	-0.713644	1.745384	0.000001
C59	C	-0.380311	2.078717	0.333334
C60	C	-0.046978	2.412051	0.666668
C61	C	-0.807693	1.748317	-0.000012
C62	C	-0.474359	2.081650	0.333321
C63	C	-0.141026	2.414984	0.666654
C64	C	-0.446109	1.737040	0.000025
C65	C	-0.112776	2.070373	0.333358
C66	C	0.220558	2.403706	0.666691
C67	C	0.025019	1.753522	0.000001
C68	C	0.358352	2.086856	0.333334
C69	C	0.691685	2.420189	0.666667
C70	C	0.117336	1.750656	-0.000016
C71	C	0.450669	2.083990	0.333317
C72	C	0.784003	2.417323	0.666650
C73	C	-0.122865	2.012405	0.000012
C74	C	0.210468	2.345739	0.333345
C75	C	0.543801	2.679072	0.666679
C76	C	-0.125739	2.176179	0.000002
C77	C	0.207595	2.509512	0.333336
C78	C	0.540928	2.842846	0.666669
N79	N	-0.126901	1.742670	0.425692
N80	N	0.206432	2.076003	0.759025
N81	N	0.539766	2.409337	1.092358
N82	N	-0.126900	1.742699	-0.425662
N83	N	0.206433	2.076032	-0.092329
N84	N	0.539766	2.409366	0.241005
H85	H	-0.564377	1.496382	0.000022
H86	H	-0.231044	1.829715	0.333355
H87	H	0.102289	2.163048	0.666688
Br88	Br	-0.503681	2.056311	-0.000005
Br89	Br	-0.170348	2.389645	0.333329
Br90	Br	0.162985	2.722978	0.666662
H91	H	-0.689438	1.988973	0.000011
H92	H	-0.356104	2.322306	0.333344
H93	H	-0.022771	2.655639	0.666677
Br94	Br	-0.750112	1.429060	-0.000029
Br95	Br	-0.416779	1.762393	0.333304
Br96	Br	-0.083446	2.095727	0.666638
