data_functionalizedCrystal
_audit_creation_method	'MofGen! by Chris Wilmer'
_symmetry_space_group_name_H-M	'P1'
_symmetry_Int_Tables_number	1
_symmetry_cell_setting	triclinic
loop_
_symmetry_equiv_pos_as_xyz
  x,y,z
_cell_length_a	9.065218
_cell_length_b	17.038272
_cell_length_c	8.140239
_cell_angle_alpha	89.996147
_cell_angle_beta	89.997198
_cell_angle_gamma	88.063721
loop_
_atom_site_label
_atom_site_type_symbol
_atom_site_fract_x
_atom_site_fract_y
_atom_site_fract_z
O1	O	1.971908	0.114742	-0.136620
O2	O	1.543567	0.124153	-0.136623
O3	O	1.755192	0.005614	-0.136608
O4	O	1.760283	0.233281	-0.136634
O5	O	1.755179	0.005612	0.136619
O6	O	1.543555	0.124152	0.136605
O7	O	1.971895	0.114740	0.136607
Zn8	Zn	1.757723	0.119446	0.179986
Zn9	Zn	1.757740	0.119448	-0.180002
O10	O	1.760271	0.233280	0.136593
C11	C	1.488484	0.123248	-0.000009
C12	C	1.324369	0.120544	-0.000010
C13	C	1.750555	-0.023549	0.000005
C14	C	1.736739	-0.110441	0.000005
C15	C	1.863587	-0.159639	0.000007
C16	C	1.850596	-0.241284	-0.000009
C17	C	1.710756	-0.273728	-0.000015
C18	C	1.583899	-0.224524	-0.000022
C19	C	1.596891	-0.142881	-0.000019
C20	C	1.664859	-0.519818	-0.000038
C21	C	1.651876	-0.601467	-0.000037
C22	C	1.918575	-0.618221	-0.000026
C23	C	1.931554	-0.536576	-0.000012
C24	C	1.804697	-0.487379	-0.000028
C25	C	1.697475	-0.357182	-0.000026
C26	C	1.817980	-0.403927	-0.000029
C27	C	2.026979	0.115646	-0.000010
C28	C	2.191093	0.118350	-0.000020
C29	C	1.764908	0.262442	-0.000024
C30	C	1.778724	0.349335	-0.000034
N31	N	1.757722	0.119444	0.425669
N32	N	1.757751	0.119443	-0.425685
H33	H	1.977459	-0.133230	0.000022
N34	N	1.554623	-0.390312	0.000018
N35	N	1.441367	-0.346380	0.000045
H36	H	1.340477	-0.369780	0.000081
N37	N	1.441041	-0.257646	-0.000037
N38	N	1.353209	-0.242910	-0.115205
H39	H	1.252309	-0.266300	-0.115209
N40	N	2.074390	-0.503428	0.000009
N41	N	2.111379	-0.459747	0.115191
H42	H	2.212259	-0.436336	0.115216
H43	H	1.537996	-0.627879	-0.000015
N44	N	1.980184	-0.291527	-0.000022
N45	N	2.105032	-0.262549	-0.000015
H46	H	2.196561	-0.298033	-0.000030
N47	N	1.467336	-0.092610	-0.000034
N48	N	1.444851	-0.045180	-0.115210
H49	H	1.353351	-0.009674	-0.115230
N50	N	1.535266	-0.469582	-0.000042
N51	N	1.410422	-0.498564	-0.000035
H52	H	1.318889	-0.463082	-0.000033
H53	H	1.931837	-0.377507	-0.000060
H54	H	2.021854	-0.658286	-0.000016
