data_functionalizedCrystal
_audit_creation_method	'MofGen! by Chris Wilmer'
_symmetry_space_group_name_H-M	'P1'
_symmetry_Int_Tables_number	1
_symmetry_cell_setting	triclinic
loop_
_symmetry_equiv_pos_as_xyz
  x,y,z
_cell_length_a	16.109301
_cell_length_b	16.109301
_cell_length_c	14.586319
_cell_angle_alpha	89.994786
_cell_angle_beta	89.999213
_cell_angle_gamma	83.461481
loop_
_atom_site_label
_atom_site_type_symbol
_atom_site_fract_x
_atom_site_fract_y
_atom_site_fract_z
O1	O	1.103131	0.106866	-0.076185
O2	O	0.861069	0.120165	-0.076200
O3	O	0.988749	-0.007515	-0.076183
O4	O	0.975450	0.234547	-0.076203
O5	O	0.988741	-0.007517	0.076298
O6	O	0.861060	0.120164	0.076281
O7	O	1.103122	0.106864	0.076295
Cu8	Cu	0.982090	0.113514	0.090211
Cu9	Cu	0.982101	0.113516	-0.090115
O10	O	0.975441	0.234545	0.076278
C11	C	0.830090	0.119626	0.000038
C12	C	0.737794	0.118011	0.000033
C13	C	0.988206	-0.038491	0.000058
C14	C	0.986591	-0.130786	0.000059
C15	C	1.058599	-0.353059	0.000049
C16	C	1.057075	-0.439779	0.000041
C17	C	0.905586	-0.419905	0.000036
C18	C	0.907111	-0.333186	0.000037
C19	C	0.983620	-0.299766	0.000048
C20	C	0.980571	-0.473205	0.000039
C21	C	0.978918	-0.567231	0.000031
C22	C	0.985273	-0.205734	0.000055
C23	C	0.515522	0.190018	0.000038
C24	C	0.428801	0.188494	0.000044
C25	C	0.448676	0.037006	0.000052
C26	C	0.535394	0.038530	0.000053
C27	C	0.568815	0.115039	0.000041
C28	C	0.395376	0.111990	0.000046
C29	C	0.301350	0.110337	0.000053
C30	C	0.662847	0.116693	0.000036
C31	C	1.134101	0.107404	0.000055
C32	C	1.226397	0.109019	0.000054
C33	C	0.975984	0.265521	0.000035
C34	C	0.977600	0.357816	0.000028
N35	N	0.982089	0.113512	0.217042
N36	N	0.982109	0.113511	-0.216947
C37	C	1.038644	0.056994	0.452057
C38	C	1.038647	0.056992	0.548038
C39	C	0.925547	0.170032	0.548032
C40	C	0.925541	0.170030	0.452052
C41	C	0.982095	0.113511	0.404067
C42	C	0.982103	0.113512	0.596028
C43	C	0.982105	0.113510	0.700095
C44	C	0.982092	0.113512	0.299993
H45	H	1.120897	-0.325851	0.000056
H46	H	0.578788	-0.022530	0.000058
Br47	Br	0.403314	-0.066823	0.000065
Br48	Br	1.115394	-0.019711	0.386937
H49	H	1.118130	-0.483168	0.000040
Br50	Br	0.848783	0.246731	0.386916
Br51	Br	0.356477	0.290256	0.000044
Br52	Br	0.801758	-0.465267	0.000017
Br53	Br	1.115392	-0.019718	0.613165
H54	H	0.846050	-0.289792	0.000033
H55	H	0.879503	0.216049	0.587111
Br56	Br	0.560876	0.293851	0.000025
