data_functionalizedCrystal
_audit_creation_method	'MofGen! by Chris Wilmer'
_symmetry_space_group_name_H-M	'P1'
_symmetry_Int_Tables_number	1
_symmetry_cell_setting	triclinic
loop_
_symmetry_equiv_pos_as_xyz
  x,y,z
_cell_length_a	16.793024
_cell_length_b	16.793047
_cell_length_c	33.586455
_cell_angle_alpha	113.253857
_cell_angle_beta	66.219990
_cell_angle_gamma	112.758327
loop_
_atom_site_label
_atom_site_type_symbol
_atom_site_fract_x
_atom_site_fract_y
_atom_site_fract_z
O1	O	0.005016	-0.570216	-0.583573
O2	O	-0.034529	-0.474528	-0.453458
O3	O	0.114723	-0.474535	-0.528082
O4	O	-0.144235	-0.570209	-0.508949
O5	O	0.108729	-0.346329	-0.530229
O6	O	-0.040523	-0.346322	-0.455605
O7	O	-0.000977	-0.442010	-0.585721
Zn8	Zn	-0.021701	-0.373810	-0.521004
Zn9	Zn	-0.013805	-0.542728	-0.518175
O10	O	-0.150229	-0.442003	-0.511097
C11	C	0.005100	-0.790970	-0.238461
C12	C	0.009223	-0.693065	-0.217557
C13	C	0.003804	-0.645758	-0.241627
C14	C	-0.075059	-0.538459	-0.266316
C15	C	0.049838	-0.422849	-0.250165
C16	C	-0.040584	-0.395375	-0.435637
C17	C	-0.044693	-0.353446	-0.386631
C18	C	-0.039275	-0.401741	-0.363054
C19	C	-0.040566	-0.125547	-0.300731
C20	C	-0.044689	-0.223451	-0.321635
C21	C	-0.039266	-0.270752	-0.297563
C22	C	0.039597	-0.378051	-0.272874
C23	C	-0.085304	-0.493667	-0.289026
C24	C	0.005118	-0.521142	-0.103554
C25	C	0.009231	-0.563064	-0.152559
C26	C	0.003809	-0.514775	-0.176138
C27	C	0.010758	-0.652581	-0.172822
C28	C	0.001010	-0.556371	-0.220792
C29	C	-0.008251	-0.506059	-0.245823
C30	C	-0.046224	-0.263935	-0.366370
C31	C	-0.036476	-0.360146	-0.318399
C32	C	-0.027211	-0.410451	-0.293367
C33	C	0.815184	-0.521162	-0.508596
C34	C	0.717729	-0.563083	-0.506815
C35	C	0.669923	-0.514793	-0.509201
C36	C	0.564072	-0.463272	-0.548285
C37	C	0.445555	-0.498966	-0.486078
C38	C	0.415541	-0.125553	-0.528781
C39	C	0.375032	-0.223457	-0.531493
C40	C	0.423813	-0.270761	-0.529101
C41	C	0.149318	-0.395376	-0.530584
C42	C	0.246774	-0.353455	-0.532364
C43	C	0.294574	-0.401748	-0.529976
C44	C	0.400424	-0.453269	-0.490892
C45	C	0.518948	-0.417572	-0.553101
C46	C	0.548961	-0.790984	-0.510398
C47	C	0.589464	-0.693083	-0.507684
C48	C	0.540690	-0.645776	-0.510078
C49	C	0.678399	-0.652598	-0.506649
C50	C	0.581167	-0.556389	-0.510877
C51	C	0.530434	-0.506073	-0.515170
C52	C	0.286104	-0.263940	-0.532530
C53	C	0.383336	-0.360149	-0.528302
C54	C	0.434062	-0.410467	-0.524008
C55	C	-0.040530	-0.395407	-0.935652
C56	C	-0.044651	-0.353482	-0.886645
C57	C	-0.039242	-0.401770	-0.863061
C58	C	0.039602	-0.453292	-0.810474
C59	C	-0.085288	-0.417587	-0.750981
C60	C	0.005063	-0.791004	-0.738448
C61	C	0.009186	-0.693099	-0.717543
C62	C	0.003779	-0.645796	-0.741620
C63	C	0.005077	-0.521171	-0.603544
C64	C	0.009198	-0.563096	-0.652550
C65	C	0.003786	-0.514804	-0.676131
C66	C	-0.075058	-0.463283	-0.728717
C67	C	0.049835	-0.498991	-0.788214
C68	C	-0.040516	-0.125574	-0.800747
C69	C	-0.044642	-0.223476	-0.821649
C70	C	-0.039232	-0.270782	-0.797575
C71	C	-0.046172	-0.263965	-0.866386
C72	C	-0.036447	-0.360171	-0.818406
C73	C	-0.027197	-0.410486	-0.793373
C74	C	0.010719	-0.652613	-0.672809
C75	C	0.000994	-0.556406	-0.720789
C76	C	-0.008259	-0.506089	-0.745819
O77	O	-0.000965	0.173549	-0.277957
O78	O	-0.040516	-0.085616	-0.325254
O79	O	0.108737	0.059592	-0.327284
O80	O	-0.150219	0.028341	-0.275927
O81	O	0.114753	0.055151	-0.263265
O82	O	-0.034500	-0.090057	-0.261234
O83	O	0.005051	0.169108	-0.213937
Zn84	Zn	-0.013769	0.038820	-0.227421
Zn85	Zn	-0.021696	0.044672	-0.311770
O86	O	-0.144202	0.023900	-0.211907
O87	O	-0.034458	-0.474571	0.046517
O88	O	0.005076	-0.570190	-0.083599
O89	O	-0.144170	-0.570237	-0.008972
O90	O	0.114787	-0.474523	-0.028110
O91	O	-0.150200	-0.442024	-0.011093
O92	O	-0.000954	-0.441976	-0.085720
O93	O	-0.040488	-0.346357	0.044396
Zn94	Zn	-0.021679	-0.373810	-0.020999
Zn95	Zn	-0.013734	-0.542737	-0.018204
O96	O	0.108757	-0.346309	-0.030231
C97	C	-0.850734	0.086244	-0.289716
C98	C	-0.753280	0.087165	-0.312001
C99	C	-0.705462	0.081107	-0.288506
C100	C	-0.599592	0.000085	-0.264184
C101	C	-0.481080	0.121287	-0.283645
C102	C	-0.450996	0.035117	-0.097351
C103	C	-0.410501	0.028587	-0.146852
C104	C	-0.459292	0.034683	-0.169840
C105	C	-0.184802	0.024283	-0.235878
C106	C	-0.282257	0.023363	-0.213592
C107	C	-0.330068	0.029423	-0.237088
C108	C	-0.435938	0.110445	-0.261411
C109	C	-0.554456	-0.010759	-0.241948
C110	C	-0.584541	0.075410	-0.428242
C111	C	-0.625029	0.081943	-0.378743
C112	C	-0.576244	0.075844	-0.355753
C113	C	-0.713963	0.086424	-0.357292
C114	C	-0.616708	0.075351	-0.310510
C115	C	-0.565963	0.065400	-0.286043
C116	C	-0.321573	0.024104	-0.168302
C117	C	-0.418828	0.035176	-0.215083
C118	C	-0.469568	0.045131	-0.239552
O119	O	0.585213	0.169090	-0.504004
O120	O	0.494056	-0.090076	-0.525516
O121	O	0.488081	0.055124	-0.449918
O122	O	0.591189	0.023889	-0.579602
O123	O	0.359978	0.059584	-0.452885
O124	O	0.365953	-0.085616	-0.528483
O125	O	0.457110	0.173550	-0.506971
Zn126	Zn	0.391193	0.044675	-0.518198
Zn127	Zn	0.559974	0.038798	-0.514289
O128	O	0.463086	0.028349	-0.582569
C129	C	0.815354	-0.521094	-0.008709
C130	C	0.717898	-0.563028	-0.006927
C131	C	0.670072	-0.514739	-0.009298
C132	C	0.564182	-0.463204	-0.048354
C133	C	0.445681	-0.498945	0.013847
C134	C	0.415547	-0.125494	-0.028771
C135	C	0.375059	-0.223405	-0.031498
C136	C	0.423859	-0.270708	-0.029121
C137	C	0.149365	-0.395355	-0.030599
C138	C	0.246820	-0.353421	-0.032381
C139	C	0.294640	-0.401713	-0.030008
C140	C	0.400530	-0.453248	0.009048
C141	C	0.519038	-0.417504	-0.053155
C142	C	0.549171	-0.790955	-0.010537
C143	C	0.589653	-0.693047	-0.007809
C144	C	0.540859	-0.645741	-0.010187
C145	C	0.678588	-0.652551	-0.006775
C146	C	0.581317	-0.556344	-0.010973
C147	C	0.530562	-0.506029	-0.015250
C148	C	0.286131	-0.263897	-0.032533
C149	C	0.383402	-0.360104	-0.028335
C150	C	0.434150	-0.410423	-0.024057
O151	O	-0.620614	0.089309	0.052274
O152	O	-0.529507	0.043784	-0.078544
O153	O	-0.523494	0.194833	-0.006033
O154	O	-0.626628	-0.061740	-0.020236
O155	O	-0.395386	0.185419	-0.005549
O156	O	-0.401400	0.034370	-0.078059
O157	O	-0.492507	0.079895	0.052758
Zn158	Zn	-0.426614	0.055638	-0.012574
Zn159	Zn	-0.595401	0.068041	-0.013212
O160	O	-0.498521	-0.071154	-0.019752
C161	C	-0.437537	0.048335	0.402491
C162	C	-0.397043	0.041789	0.352989
C163	C	-0.445822	0.047883	0.329994
C164	C	-0.496646	0.126653	0.277022
C165	C	-0.465894	-0.000633	0.218811
C166	C	-0.837226	0.099430	0.210091
C167	C	-0.739773	0.100339	0.187806
C168	C	-0.691967	0.094287	0.211308
C169	C	-0.571027	0.088563	0.071568
C170	C	-0.611521	0.095108	0.121070
C171	C	-0.562739	0.089011	0.144061
C172	C	-0.511915	0.010241	0.197033
C173	C	-0.542670	0.137531	0.255247
C174	C	-0.171338	0.037467	0.263967
C175	C	-0.268788	0.036555	0.286249
C176	C	-0.316597	0.042611	0.262750
C177	C	-0.308112	0.037305	0.331542
C178	C	-0.405351	0.048369	0.284750
C179	C	-0.456092	0.058317	0.260279
C180	C	-0.700452	0.099593	0.142516
C181	C	-0.603213	0.088528	0.189308
C182	C	-0.552469	0.078578	0.213776
O183	O	-0.040608	-1.085661	-0.825229
O184	O	-0.001018	-0.826491	-0.777938
O185	O	-0.150287	-0.971682	-0.775894
O186	O	0.108661	-0.940470	-0.827272
O187	O	-0.144253	-0.976123	-0.711878
O188	O	0.005016	-0.830932	-0.713922
O189	O	-0.034575	-1.090102	-0.761213
Zn190	Zn	-0.013821	-0.961222	-0.727403
Zn191	Zn	-0.021771	-0.955371	-0.811747
O192	O	0.114695	-0.944911	-0.763256
C193	C	-0.036362	-0.225031	-0.248202
H194	H	-0.038845	-0.164658	-0.239332
H195	H	0.018110	-0.225348	-0.245951
H196	H	-0.086581	-0.256877	-0.228868
H197	H	0.468233	-0.679598	-0.011487
C198	C	-0.341290	0.173383	-0.259774
H199	H	-0.319127	0.156874	-0.243045
H200	H	-0.344830	0.233802	-0.245510
H201	H	-0.301495	0.168264	-0.289780
H202	H	0.261721	-0.474856	-0.029430
C203	C	-0.438063	0.197045	-0.306938
H204	H	-0.478123	0.195460	-0.320874
H205	H	-0.382714	0.188802	-0.329333
H206	H	-0.426831	0.253616	-0.284973
H207	H	0.413839	-0.532573	0.042316
H208	H	0.088099	-0.448874	-0.845454
H209	H	0.550810	-0.383955	-0.581575
C210	C	-0.036379	-0.500544	-0.385949
H211	H	-0.032712	-0.523503	-0.365211
H212	H	0.015018	-0.503878	-0.411971
H213	H	-0.089671	-0.535210	-0.394782
C214	C	-0.694182	-0.062946	-0.265887
H215	H	-0.710946	-0.105346	-0.249834
H216	H	-0.693215	-0.093887	-0.296568
H217	H	-0.736748	-0.028487	-0.252299
C218	C	0.658774	-0.469158	-0.081152
H219	H	0.680916	-0.503268	-0.073219
H220	H	0.698645	-0.410271	-0.079179
H221	H	0.655112	-0.497623	-0.111294
H222	H	0.107227	-0.532615	-0.804368
H223	H	0.702857	-0.441654	-0.509785
C224	C	-0.749930	0.080739	-0.238503
H225	H	-0.708143	0.076259	-0.227588
H226	H	-0.801928	0.030792	-0.236129
H227	H	-0.767140	0.134958	-0.220940
H228	H	0.550886	-0.383867	-0.081621
H229	H	-0.283673	0.042875	0.225734
H230	H	-0.586315	-0.066836	-0.224702
C231	C	0.000892	-0.416000	-0.653236
H232	H	-0.002777	-0.393044	-0.673974
H233	H	0.054173	-0.381338	-0.644396
H234	H	-0.050518	-0.412668	-0.627217
H235	H	-0.434254	-0.059305	0.203012
C236	C	-0.520911	-0.056279	0.150795
H237	H	-0.554863	-0.039319	0.140190
H238	H	-0.550928	-0.115287	0.154038
H239	H	-0.462485	-0.055259	0.129626
C240	C	0.521971	-0.224979	-0.027366
H241	H	0.538888	-0.164596	-0.028188
H242	H	0.561072	-0.256807	-0.052687
H243	H	0.526475	-0.225306	-0.000132
H244	H	-0.740818	0.102779	0.123104
H245	H	0.001660	-0.441639	-0.159184
C246	C	0.733160	-0.706484	-0.005403
H247	H	0.696536	-0.766046	-0.005424
H248	H	0.751683	-0.678267	0.021324
H249	H	0.784932	-0.708432	-0.031281
H250	H	-0.531920	0.039247	-0.151930
H251	H	-0.123560	-0.607102	-0.263443
H252	H	-0.048864	-0.224020	-0.386283
H253	H	-0.281187	0.020914	-0.148901
C254	C	-0.162833	-0.372188	-0.729170
H255	H	-0.197002	-0.382476	-0.700367
H256	H	-0.200882	-0.396804	-0.748167
H257	H	-0.138452	-0.309269	-0.725516
C258	C	0.250095	-0.500552	-0.529190
H259	H	0.190026	-0.518225	-0.530550
H260	H	0.249015	-0.506536	-0.501995
H261	H	0.283802	-0.537855	-0.554549
H262	H	0.702991	-0.441593	-0.009870
C263	C	0.305838	-0.447301	-0.458100
H264	H	0.283700	-0.413204	-0.466044
H265	H	0.309492	-0.418834	-0.427959
H266	H	0.265958	-0.506190	-0.460072
H267	H	-0.574318	0.196197	0.271049
C268	C	0.305948	-0.447296	0.041852
H269	H	0.289203	-0.478950	0.063275
H270	H	0.263372	-0.473300	0.025208
H271	H	0.306925	-0.385955	0.057319
H272	H	0.496441	-0.236915	-0.527803
H273	H	0.245737	-0.223998	-0.033572
C274	C	0.658662	-0.469252	-0.581078
H275	H	0.680789	-0.503359	-0.573134
H276	H	0.698543	-0.410371	-0.579112
H277	H	0.655003	-0.497732	-0.611220
C278	C	0.231566	-0.210026	-0.533947
H279	H	0.268167	-0.150441	-0.533885
H280	H	0.179708	-0.208156	-0.508117
H281	H	0.213190	-0.238215	-0.560719
C282	C	-0.036320	-0.225060	-0.748216
H283	H	-0.032643	-0.266629	-0.736786
H284	H	-0.089595	-0.205931	-0.730159
H285	H	0.015094	-0.174414	-0.747254
C286	C	-0.036353	-0.500575	-0.885959
H287	H	-0.038822	-0.518241	-0.916114
H288	H	-0.086567	-0.537880	-0.869357
H289	H	0.018123	-0.506555	-0.886540
H290	H	-0.123559	-0.467696	-0.693740
C291	C	-0.464629	0.082837	0.119872
H292	H	-0.447700	0.084041	0.089454
H293	H	-0.460123	0.028252	0.119975
H294	H	-0.425531	0.132427	0.135260
H295	H	-0.267732	0.034117	0.350946
H296	H	-0.518447	0.052455	0.347905
C297	C	0.014261	-0.706522	-0.645895
H298	H	0.015049	-0.669105	-0.616131
H299	H	0.067353	-0.726834	-0.660740
H300	H	-0.037452	-0.756881	-0.644203
H301	H	-0.048809	-0.224052	-0.886301
H302	H	0.413699	-0.532573	-0.457601
H303	H	0.468064	-0.679625	-0.511379
C304	C	-0.736438	0.093926	0.261313
H305	H	-0.796511	0.098261	0.270962
H306	H	-0.702732	0.143721	0.279508
H307	H	-0.737522	0.039555	0.264315
C308	C	-0.487647	0.193171	0.323263
H309	H	-0.517908	0.237484	0.331680
H310	H	-0.425527	0.221544	0.321117
H311	H	-0.513977	0.161515	0.345525
H312	H	0.001632	-0.679646	-0.778160
C313	C	-0.162864	-0.535194	-0.310666
H314	H	-0.197038	-0.591867	-0.305049
H315	H	-0.138504	-0.543166	-0.342453
H316	H	-0.200915	-0.496166	-0.297835
H317	H	0.088092	-0.309407	-0.275738
C318	C	-0.285592	0.029818	-0.287088
H319	H	-0.225518	0.025482	-0.296740
H320	H	-0.284523	0.084186	-0.290082
H321	H	-0.319289	-0.019981	-0.305291
H322	H	-0.503619	0.071273	-0.373665
C323	C	-0.768516	0.090714	-0.383508
H324	H	-0.827582	0.093484	-0.364017
H325	H	-0.772460	0.038504	-0.408668
H326	H	-0.739165	0.142811	-0.394007
C327	C	0.127405	-0.381335	-0.228531
H328	H	0.125137	-0.420945	-0.214025
H329	H	0.121276	-0.325230	-0.206804
H330	H	0.183668	-0.372243	-0.251426
C331	C	0.014314	-0.706490	-0.145911
H332	H	0.015105	-0.669074	-0.116148
H333	H	0.067408	-0.726798	-0.160759
H334	H	-0.037397	-0.756852	-0.144218
C335	C	0.000895	-0.691482	-0.290987
H336	H	-0.002767	-0.649909	-0.302420
H337	H	-0.050507	-0.742131	-0.291954
H338	H	0.054182	-0.710600	-0.309041
C339	C	0.732950	-0.706533	-0.505261
H340	H	0.696313	-0.766088	-0.505273
H341	H	0.751469	-0.678304	-0.478533
H342	H	0.784722	-0.708499	-0.531137
