data_functionalizedCrystal
_audit_creation_method	'MofGen! by Chris Wilmer'
_symmetry_space_group_name_H-M	'P1'
_symmetry_Int_Tables_number	1
_symmetry_cell_setting	triclinic
loop_
_symmetry_equiv_pos_as_xyz
  x,y,z
_cell_length_a	16.992694
_cell_length_b	16.109301
_cell_length_c	14.586319
_cell_angle_alpha	90.005214
_cell_angle_beta	89.997873
_cell_angle_gamma	87.064852
loop_
_atom_site_label
_atom_site_type_symbol
_atom_site_fract_x
_atom_site_fract_y
_atom_site_fract_z
O1	O	-1.040345	-0.176288	-0.076131
O2	O	-0.707012	0.157045	0.257203
O3	O	-0.373679	0.490379	0.590536
O4	O	-0.812060	-0.174354	-0.076158
O5	O	-0.478727	0.158979	0.257176
O6	O	-0.145394	0.492313	0.590509
O7	O	-0.932474	-0.054709	-0.076134
O8	O	-0.599141	0.278625	0.257199
O9	O	-0.265807	0.611958	0.590533
O10	O	-0.919932	-0.295934	-0.076154
O11	O	-0.586598	0.037400	0.257179
O12	O	-0.253265	0.370733	0.590513
O13	O	-0.932466	-0.054706	0.076347
O14	O	-0.599132	0.278627	0.409680
O15	O	-0.265799	0.611961	0.743014
O16	O	-0.812052	-0.174352	0.076323
O17	O	-0.478719	0.158982	0.409657
O18	O	-0.145385	0.492315	0.742990
O19	O	-1.040337	-0.176286	0.076350
O20	O	-0.707004	0.157048	0.409684
O21	O	-0.373670	0.490381	0.743017
Cu22	Cu	-0.926194	-0.175318	0.090259
Cu23	Cu	-0.592860	0.158015	0.423593
Cu24	Cu	-0.259527	0.491348	0.756926
Cu25	Cu	-0.926204	-0.175321	-0.090067
Cu26	Cu	-0.592870	0.158012	0.243267
Cu27	Cu	-0.259537	0.491345	0.576600
O28	O	-0.919923	-0.295931	0.076327
O29	O	-0.586590	0.037402	0.409660
O30	O	-0.253257	0.370736	0.742993
C31	C	-0.782844	-0.171865	0.000080
C32	C	-0.449511	0.161469	0.333413
C33	C	-0.116178	0.494802	0.666746
C34	C	-0.695802	-0.164441	0.000070
C35	C	-0.362469	0.168892	0.333403
C36	C	-0.029135	0.502225	0.666736
C37	C	-0.931962	-0.023699	0.000107
C38	C	-0.598628	0.309635	0.333440
C39	C	-0.265295	0.642968	0.666773
C40	C	-0.930439	0.068698	0.000108
C41	C	-0.597105	0.402032	0.333441
C42	C	-0.263772	0.735365	0.666775
C43	C	-1.069553	-0.178775	0.000111
C44	C	-0.736220	0.154558	0.333444
C45	C	-0.402886	0.487892	0.666778
C46	C	-1.156595	-0.186198	0.000115
C47	C	-0.823262	0.147135	0.333448
C48	C	-0.489929	0.480468	0.666782
C49	C	-0.645543	-0.236067	0.000064
C50	C	-0.312210	0.097266	0.333398
C51	C	0.021123	0.430599	0.666731
C52	C	-0.563758	-0.229087	0.000078
C53	C	-0.230425	0.104246	0.333411
C54	C	0.102908	0.437579	0.666744
C55	C	-0.532234	-0.150481	0.000090
C56	C	-0.198901	0.182853	0.333423
C57	C	0.134433	0.516186	0.666756
C58	C	-0.582499	-0.078849	0.000098
C59	C	-0.249166	0.254484	0.333431
C60	C	0.084167	0.587818	0.666764
C61	C	-0.664282	-0.085830	0.000091
C62	C	-0.330949	0.247503	0.333424
C63	C	0.002384	0.580837	0.666758
C64	C	-0.288644	-0.121548	0.000116
C65	C	0.044690	0.211786	0.333450
C66	C	0.378023	0.545119	0.666783
C67	C	-0.206854	-0.114572	0.000120
C68	C	0.126479	0.218761	0.333454
C69	C	0.459813	0.552094	0.666787
C70	C	-0.188119	-0.264811	0.000102
C71	C	0.145215	0.068522	0.333435
C72	C	0.478548	0.401855	0.666769
C73	C	-0.269904	-0.271785	0.000090
C74	C	0.063429	0.061548	0.333423
C75	C	0.396762	0.394881	0.666757
C76	C	-0.320163	-0.200154	0.000103
C77	C	0.013171	0.133180	0.333436
C78	C	0.346504	0.466513	0.666769
N79	N	-0.448637	-0.143344	0.000100
N80	N	-0.115304	0.189989	0.333433
N81	N	0.218030	0.523323	0.666767
N82	N	-0.403758	-0.207291	0.000099
N83	N	-0.070425	0.126042	0.333432
N84	N	0.262909	0.459376	0.666765
C85	C	-0.920435	-0.326941	0.000084
C86	C	-0.587102	0.006392	0.333417
C87	C	-0.253769	0.339726	0.666751
C88	C	-0.921959	-0.419338	0.000077
C89	C	-0.588625	-0.086005	0.333410
C90	C	-0.255292	0.247329	0.666743
N91	N	-0.926192	-0.175316	0.217091
N92	N	-0.592859	0.158017	0.550425
N93	N	-0.259526	0.491350	0.883758
C94	C	-0.998348	0.286439	0.000101
C95	C	-0.665015	0.619773	0.333435
C96	C	-0.331681	0.953106	0.666768
C97	C	-0.996911	0.373256	0.000094
C98	C	-0.663577	0.706589	0.333427
C99	C	-0.330244	1.039922	0.666760
C100	C	-0.854044	0.362915	0.000080
C101	C	-0.520711	0.696248	0.333414
C102	C	-0.187377	1.029581	0.666747
C103	C	-0.855482	0.276100	0.000082
C104	C	-0.522149	0.609433	0.333415
C105	C	-0.188815	0.942767	0.666748
C106	C	-0.927636	0.237865	0.000097
C107	C	-0.594303	0.571198	0.333430
C108	C	-0.260970	0.904531	0.666763
C109	C	-0.924761	0.411496	0.000088
C110	C	-0.591428	0.744829	0.333421
C111	C	-0.258094	1.078162	0.666755
C112	C	-0.923202	0.505626	0.000080
C113	C	-0.589869	0.838959	0.333413
C114	C	-0.256535	1.172292	0.666746
C115	C	-0.929196	0.143729	0.000103
C116	C	-0.595862	0.477062	0.333437
C117	C	-0.262529	0.810395	0.666770
N118	N	-0.926211	-0.175317	-0.216898
N119	N	-0.592878	0.158016	0.116435
N120	N	-0.259544	0.491349	0.449768
C121	C	-0.979529	-0.122357	0.452108
C122	C	-0.646196	0.210976	0.785441
C123	C	-0.312863	0.544309	1.118775
C124	C	-0.979531	-0.122355	0.548089
C125	C	-0.646198	0.210978	0.881423
C126	C	-0.312865	0.544311	1.214756
C127	C	-0.872869	-0.228278	0.548078
C128	C	-0.539535	0.105055	0.881411
C129	C	-0.206202	0.438388	1.214745
C130	C	-0.872863	-0.228276	0.452098
C131	C	-0.539530	0.105058	0.785432
C132	C	-0.206197	0.438391	1.118765
C133	C	-0.926198	-0.175316	0.404116
C134	C	-0.592865	0.158017	0.737449
C135	C	-0.259531	0.491350	1.070783
C136	C	-0.926206	-0.175317	0.596077
C137	C	-0.592872	0.158016	0.929410
C138	C	-0.259539	0.491349	1.262743
C139	C	-0.926208	-0.175316	0.700144
C140	C	-0.592874	0.158018	1.033477
C141	C	-0.259541	0.491351	1.366811
C142	C	-0.926195	-0.175316	0.300042
C143	C	-0.592862	0.158017	0.633376
C144	C	-0.259528	0.491350	0.966709
H145	H	-0.671204	-0.300077	0.000054
H146	H	-0.337870	0.033256	0.333387
H147	H	-0.004537	0.366589	0.666721
H148	H	-0.295565	-0.335795	0.000070
H149	H	0.037768	-0.002462	0.333403
H150	H	0.371102	0.330872	0.666736
Br151	Br	-0.800490	-0.300151	0.613200
Br152	Br	-0.467157	0.033182	0.946533
Br153	Br	-0.133823	0.366516	1.279867
Br154	Br	-0.800474	-0.300146	0.386959
Br155	Br	-0.467141	0.033187	0.720292
Br156	Br	-0.133807	0.366520	1.053625
Br157	Br	-0.756125	0.414811	0.000057
Br158	Br	-0.422792	0.748144	0.333391
Br159	Br	-0.089458	1.081477	0.666724
H160	H	-0.797897	0.236549	0.000075
H161	H	-0.464563	0.569882	0.333408
H162	H	-0.131230	0.903215	0.666742
H163	H	-0.522840	-0.287413	0.000072
H164	H	-0.189507	0.045920	0.333406
H165	H	0.143826	0.379254	0.666739
H166	H	-0.147190	-0.323129	0.000094
H167	H	0.186143	0.010204	0.333427
H168	H	0.519476	0.343537	0.666760
H169	H	-1.022957	-0.079233	0.413043
H170	H	-0.689623	0.254100	0.746376
H171	H	-0.356290	0.587433	1.079710
Br172	Br	-0.164072	-0.007884	0.000156
Br173	Br	0.169262	0.325449	0.333489
Br174	Br	0.502595	0.658782	0.666823
H175	H	-0.329554	-0.063220	0.000128
H176	H	0.003779	0.270113	0.333461
H177	H	0.337112	0.603447	0.666794
Br178	Br	-1.092881	0.439176	0.000095
Br179	Br	-0.759547	0.772509	0.333428
Br180	Br	-0.426214	1.105842	0.666761
H181	H	-0.556826	-0.014846	0.000120
H182	H	-0.223492	0.318488	0.333454
H183	H	0.109841	0.651821	0.666787
Br184	Br	-0.732493	0.011381	0.000106
Br185	Br	-0.399159	0.344714	0.333439
Br186	Br	-0.065826	0.678047	0.666773
H187	H	-1.022958	-0.079231	0.587162
H188	H	-0.689624	0.254103	0.920495
H189	H	-0.356291	0.587436	1.253829
Br190	Br	-1.096271	0.234551	0.000123
Br191	Br	-0.762937	0.567884	0.333456
Br192	Br	-0.429604	0.901217	0.666789
