data_functionalizedCrystal
_audit_creation_method	'MofGen! by Chris Wilmer'
_symmetry_space_group_name_H-M	'P1'
_symmetry_Int_Tables_number	1
_symmetry_cell_setting	triclinic
loop_
_symmetry_equiv_pos_as_xyz
  x,y,z
_cell_length_a	16.992694
_cell_length_b	10.489741
_cell_length_c	16.053802
_cell_angle_alpha	92.592148
_cell_angle_beta	87.249047
_cell_angle_gamma	87.603699
loop_
_atom_site_label
_atom_site_type_symbol
_atom_site_fract_x
_atom_site_fract_y
_atom_site_fract_z
O1	O	1.045194	0.265584	-0.069324
O2	O	0.816893	0.262613	-0.069348
O3	O	0.936238	0.078953	-0.069330
O4	O	0.925849	0.449244	-0.069341
O5	O	0.929669	0.089018	0.069528
O6	O	0.810324	0.272678	0.069510
O7	O	1.038624	0.275649	0.069534
Zn8	Zn	0.923431	0.275761	0.091569
Zn9	Zn	0.932086	0.262501	-0.091383
O10	O	0.919279	0.459309	0.069516
C11	C	0.784374	0.263826	0.000078
C12	C	0.697266	0.252430	0.000068
C13	C	0.647647	0.362379	0.000066
C14	C	0.565799	0.351666	0.000078
C15	C	0.533573	0.231001	0.000086
C16	C	0.583199	0.121044	0.000091
C17	C	0.665044	0.131759	0.000085
C18	C	0.289723	0.186590	0.000110
C19	C	0.207871	0.175882	0.000113
C20	C	0.190477	0.406505	0.000101
C21	C	0.272325	0.417210	0.000090
C22	C	0.321944	0.307253	0.000100
N23	N	0.449912	0.220047	0.000096
N24	N	0.405603	0.318209	0.000096
C25	C	0.932169	0.036385	0.000098
C26	C	0.929821	-0.105448	0.000096
C27	C	0.853885	-0.180196	0.000082
C28	C	0.886518	-0.264235	0.068550
C29	C	0.893013	-0.274131	-0.068353
C30	C	0.962482	-0.187615	0.068621
C31	C	0.968969	-0.197507	-0.068344
C32	C	1.001656	-0.281513	0.000141
C33	C	1.071143	0.274436	0.000107
C34	C	1.158252	0.285831	0.000110
C35	C	0.923349	0.501876	0.000086
C36	C	0.925697	0.643710	0.000083
N37	N	0.917530	0.284811	0.216428
N38	N	0.937994	0.253441	-0.216242
C39	C	0.968330	0.206695	0.260130
C40	C	0.964209	0.213038	0.347536
C41	C	0.909292	0.297505	0.391239
C42	C	0.858486	0.375625	0.347531
C43	C	0.862603	0.369274	0.260127
C44	C	0.891306	0.325210	0.652646
C45	C	0.887193	0.331557	0.740056
C46	C	0.992917	0.168969	0.740055
C47	C	0.997032	0.162631	0.652649
C48	C	0.946224	0.240745	0.608949
N49	N	0.905080	0.303994	0.480582
N50	N	0.950432	0.234249	0.519607
H51	H	0.525402	0.441198	0.000074
N52	N	0.548435	-0.009096	0.000099
H53	H	0.568909	-0.061378	-0.051373
H54	H	0.564058	-0.053806	0.051610
N55	N	0.307083	0.547354	0.000065
H56	H	0.263229	0.615383	0.000061
H57	H	0.338241	0.560570	0.051534
H58	H	0.150069	0.496026	0.000095
H59	H	1.034282	0.105370	0.775644
N60	N	0.854068	-0.324442	-0.145024
H61	H	0.798248	-0.287353	-0.144965
H62	H	0.884691	-0.299027	-0.196691
H63	H	1.013053	0.137919	0.224552
N64	N	0.799254	0.466738	0.394659
H65	H	0.744208	0.445205	0.379459
H66	H	0.804422	0.458876	0.456647
H67	H	0.991843	-0.149790	0.126570
N68	N	0.771183	-0.121615	0.000154
H69	H	0.740154	-0.145644	0.051917
H70	H	0.773443	-0.025598	-0.000407
H71	H	0.705444	0.042226	0.000087
H72	H	1.005574	0.149429	0.383117
H73	H	0.821235	0.432883	0.224546
N74	N	0.173110	0.045731	0.000117
H75	H	0.216962	-0.022302	0.000123
H76	H	0.137098	0.040000	0.051593
N77	N	0.343233	0.067999	0.000125
H78	H	0.310396	-0.010064	0.000130
H79	H	0.380003	0.063679	-0.051349
N80	N	0.840341	-0.303449	0.145224
H81	H	0.784526	-0.266372	0.145171
H82	H	0.839589	-0.399693	0.144894
H83	H	1.064144	-0.325497	0.000186
H84	H	0.849937	0.388816	0.617072
H85	H	0.673878	0.460637	0.000058
H86	H	1.003811	-0.167865	-0.126225
N87	N	1.056266	0.071529	0.605513
H88	H	1.087823	0.023003	0.646462
H89	H	1.027623	0.009385	0.569258
N90	N	0.827966	0.422678	0.787197
H91	H	0.796404	0.471202	0.746251
H92	H	0.791303	0.372892	0.823479
