data_functionalizedCrystal
_audit_creation_method	'MofGen! by Chris Wilmer'
_symmetry_space_group_name_H-M	'P1'
_symmetry_Int_Tables_number	1
_symmetry_cell_setting	triclinic
loop_
_symmetry_equiv_pos_as_xyz
  x,y,z
_cell_length_a	17.038272
_cell_length_b	14.044220
_cell_length_c	12.503572
_cell_angle_alpha	86.156832
_cell_angle_beta	93.767800
_cell_angle_gamma	92.150217
loop_
_atom_site_label
_atom_site_type_symbol
_atom_site_fract_x
_atom_site_fract_y
_atom_site_fract_z
O1	O	-1.055991	-0.201858	-0.089189
O2	O	-0.555991	0.298142	0.410811
O3	O	-0.828132	-0.198570	-0.089221
O4	O	-0.328132	0.301430	0.410779
O5	O	-0.938641	-0.061954	-0.089195
O6	O	-0.438641	0.438046	0.410805
O7	O	-0.945483	-0.338474	-0.089215
O8	O	-0.445483	0.161526	0.410785
O9	O	-0.930332	-0.072247	0.089445
O10	O	-0.430332	0.427753	0.589445
O11	O	-0.819823	-0.208862	0.089419
O12	O	-0.319823	0.291138	0.589419
O13	O	-1.047682	-0.212151	0.089451
O14	O	-0.547682	0.287849	0.589451
Cu15	Cu	-0.932993	-0.211446	0.105746
Cu16	Cu	-0.432993	0.288554	0.605746
Cu17	Cu	-0.942821	-0.199274	-0.105516
Cu18	Cu	-0.442821	0.300726	0.394484
O19	O	-0.937173	-0.348766	0.089425
O20	O	-0.437173	0.151234	0.589425
C21	C	-0.794640	-0.200726	0.000095
C22	C	-0.294640	0.299274	0.500095
C23	C	-0.707224	-0.191806	0.000084
C24	C	-0.207224	0.308194	0.500084
C25	C	-0.931492	-0.031545	0.000125
C26	C	-0.431492	0.468455	0.500125
C27	C	-0.922561	0.074401	0.000125
C28	C	-0.422561	0.574401	0.500125
C29	C	-1.081174	-0.209994	0.000132
C30	C	-0.581174	0.290006	0.500132
C31	C	-1.168591	-0.218914	0.000137
C32	C	-0.668591	0.281086	0.500137
C33	C	-0.662839	-0.273694	0.000078
C34	C	-0.162839	0.226306	0.500078
C35	C	-0.580701	-0.265309	0.000094
C36	C	-0.080701	0.234691	0.500094
C37	C	-0.542950	-0.175035	0.000107
C38	C	-0.042950	0.324965	0.500107
C39	C	-0.587341	-0.093141	0.000115
C40	C	-0.087341	0.406859	0.500115
C41	C	-0.669477	-0.101527	0.000107
C42	C	-0.169477	0.398473	0.500107
C43	C	-0.295118	-0.145406	0.000138
C44	C	0.204882	0.354594	0.500138
C45	C	-0.212976	-0.137026	0.000142
C46	C	0.287024	0.362974	0.500142
C47	C	-0.206341	-0.309195	0.000123
C48	C	0.293659	0.190805	0.500123
C49	C	-0.288479	-0.317574	0.000109
C50	C	0.211521	0.182426	0.500109
C51	C	-0.332863	-0.235680	0.000123
C52	C	0.167137	0.264320	0.500123
C53	C	-0.458992	-0.166461	0.000119
C54	C	0.041008	0.333539	0.500119
C55	C	-0.416819	-0.244255	0.000118
C56	C	0.083181	0.255745	0.500118
C57	C	-0.944322	-0.379176	0.000102
C58	C	-0.444322	0.120824	0.500102
C59	C	-0.953254	-0.485122	0.000095
C60	C	-0.453254	0.014878	0.500095
N61	N	-0.926087	-0.220008	0.254337
N62	N	-0.426087	0.279992	0.754337
C63	C	-0.906233	0.268380	0.000108
C64	C	-0.406233	0.768380	0.500108
C65	C	-0.969578	0.320905	0.000113
C66	C	-0.469578	0.820905	0.500113
C67	C	-0.960493	0.428842	0.000103
C68	C	-0.460493	0.928842	0.500103
C69	C	-0.915317	0.160434	0.000117
C70	C	-0.415317	0.660434	0.500117
N71	N	-0.949733	-0.190706	-0.254107
N72	N	-0.449733	0.309294	0.245893
C73	C	-0.915929	-0.232609	0.473450
C74	C	-0.415929	0.267391	0.973450
C75	C	-0.959889	-0.178107	0.526787
C76	C	-0.459889	0.321893	1.026787
C77	C	-0.954236	-0.185119	0.648709
C78	C	-0.454236	0.314881	1.148709
C79	C	-0.921580	-0.225599	0.351517
C80	C	-0.421580	0.274401	0.851517
H81	H	-0.693569	-0.347206	0.000067
H82	H	-0.193569	0.152794	0.500067
F83	F	-0.826436	0.315556	0.000091
F84	F	-0.326436	0.815556	0.500091
H85	H	-0.874051	-0.284533	0.519347
H86	H	-0.374051	0.215467	1.019347
F87	F	-0.533466	-0.352466	0.000084
F88	F	-0.033466	0.147534	0.500084
F89	F	-0.328651	-0.413656	0.000089
F90	F	0.171349	0.086344	0.500089
F91	F	-0.159099	-0.396346	0.000110
F92	F	0.340901	0.103654	0.500110
F93	F	-0.172800	-0.040940	0.000175
F94	F	0.327200	0.459060	0.500175
F95	F	-0.716715	-0.014371	0.000117
F96	F	-0.216715	0.485629	0.500117
F97	F	-1.049381	0.273729	0.000132
F98	F	-0.549381	0.773729	0.500132
H99	H	-1.001770	-0.126182	0.480884
H100	H	-0.501770	0.373818	0.980884
H101	H	-0.556597	-0.019638	0.000141
H102	H	-0.056597	0.480362	0.500141
F103	F	-0.342344	-0.058247	0.000152
F104	F	0.157656	0.441753	0.500152
F105	F	-0.456998	-0.340329	0.000109
F106	F	0.043002	0.159671	0.500109
H107	H	-0.428245	-0.092961	0.000160
H108	H	0.071755	0.407039	0.500160
