data_functionalizedCrystal
_audit_creation_method	'MofGen! by Chris Wilmer'
_symmetry_space_group_name_H-M	'P1'
_symmetry_Int_Tables_number	1
_symmetry_cell_setting	triclinic
loop_
_symmetry_equiv_pos_as_xyz
  x,y,z
_cell_length_a	12.837943
_cell_length_b	10.654550
_cell_length_c	9.130313
_cell_angle_alpha	89.997153
_cell_angle_beta	89.997304
_cell_angle_gamma	89.656935
loop_
_atom_site_label
_atom_site_type_symbol
_atom_site_fract_x
_atom_site_fract_y
_atom_site_fract_z
O1	O	-1.377802	-0.326748	0.121773
O2	O	-1.075880	-0.310607	0.121782
O3	O	-1.233783	-0.136696	0.121768
O4	O	-1.219900	-0.500659	0.121787
O5	O	-1.233771	-0.136694	-0.121831
O6	O	-1.075868	-0.310606	-0.121817
O7	O	-1.377790	-0.326746	-0.121826
Cu8	Cu	-1.226828	-0.318676	-0.144064
Cu9	Cu	-1.226842	-0.318677	0.144020
O10	O	-1.219888	-0.500658	-0.121812
C11	C	-1.232758	-0.089786	-0.000031
C12	C	-1.229708	0.049990	-0.000028
C13	C	-1.037215	-0.305153	-0.000017
C14	C	-0.922021	-0.288891	-0.000014
C15	C	-1.416456	-0.332200	-0.000024
C16	C	-1.531650	-0.348462	-0.000018
C17	C	-0.682468	-0.484395	-0.000025
C18	C	-0.574232	-0.469121	-0.000023
C19	C	-0.597312	-0.243070	-0.000019
C20	C	-0.705547	-0.258344	-0.000021
C21	C	-0.748121	-0.379010	-0.000021
C22	C	-0.856359	-0.394284	-0.000013
C23	C	-0.879436	-0.168233	-0.000019
C24	C	-0.771201	-0.152959	-0.000017
C25	C	-1.220913	-0.547568	-0.000010
C26	C	-1.223963	-0.687344	-0.000003
N27	N	-1.226826	-0.318675	-0.346687
C28	C	-1.322678	0.119331	-0.000031
C29	C	-1.319806	0.250665	-0.000013
C30	C	-1.130985	0.243307	0.000003
C31	C	-1.133858	0.111975	-0.000004
C32	C	-1.290296	-0.402483	-0.423331
C33	C	-1.290313	-0.402478	-0.576668
C34	C	-1.163380	-0.234852	-0.576703
C35	C	-1.163370	-0.234852	-0.423369
N36	N	-1.226853	-0.318669	0.346642
H37	H	-0.891020	-0.492536	-0.000016
Br38	Br	-0.740253	-0.648151	0.000002
H39	H	-1.341966	-0.470737	-0.360901
Br40	Br	-1.000910	0.327436	0.000041
H41	H	-1.341998	-0.470722	-0.639065
Br42	Br	-1.077259	-0.121105	-0.680780
Br43	Br	-0.713412	0.010795	-0.000025
Br44	Br	-1.077226	-0.121104	-0.319341
Br45	Br	-1.445986	0.344765	-0.000007
H46	H	-0.562629	-0.144828	-0.000139
Br47	Br	-0.968543	-0.025201	0.000016
Br48	Br	-1.452759	0.035212	-0.000065
H49	H	-0.520780	-0.554937	-0.000030
H50	H	-1.058146	0.055516	0.000002
