data_functionalizedCrystal
_audit_creation_method	'MofGen! by Chris Wilmer'
_symmetry_space_group_name_H-M	'P1'
_symmetry_Int_Tables_number	1
_symmetry_cell_setting	triclinic
loop_
_symmetry_equiv_pos_as_xyz
  x,y,z
_cell_length_a	19.188933
_cell_length_b	19.188930
_cell_length_c	11.892095
_cell_angle_alpha	93.870839
_cell_angle_beta	86.115576
_cell_angle_gamma	83.145175
loop_
_atom_site_label
_atom_site_type_symbol
_atom_site_fract_x
_atom_site_fract_y
_atom_site_fract_z
O1	O	0.930621	0.082698	-0.093977
O2	O	1.430621	0.582698	0.406023
O3	O	0.727310	0.094430	-0.093990
O4	O	1.227310	0.594430	0.406010
O5	O	0.834831	-0.013090	-0.093961
O6	O	1.334831	0.486910	0.406039
O7	O	0.823099	0.190219	-0.094006
O8	O	1.323099	0.690219	0.405994
O9	O	0.825866	-0.004139	0.094044
O10	O	1.325866	0.495861	0.594044
O11	O	0.718345	0.103381	0.094015
O12	O	1.218345	0.603381	0.594015
O13	O	0.921656	0.091649	0.094028
O14	O	1.421656	0.591649	0.594028
Zn15	Zn	0.818577	0.098936	0.123871
Zn16	Zn	1.318577	0.598936	0.623871
Zn17	Zn	0.830389	0.087143	-0.123833
Zn18	Zn	1.330389	0.587143	0.376167
O19	O	0.814134	0.199170	0.093999
O20	O	1.314134	0.699170	0.593999
C21	C	0.696817	0.098526	0.000012
C22	C	1.196817	0.598526	0.500012
C23	C	0.619312	0.097384	0.000008
C24	C	1.119312	0.597384	0.500008
C25	C	0.070943	0.084360	-0.102460
C26	C	0.570943	0.584360	0.397540
C27	C	0.143768	0.085428	-0.102464
C28	C	0.643768	0.585428	0.397536
C29	C	0.175298	0.090845	0.000017
C30	C	0.675298	0.590845	0.500017
C31	C	0.134000	0.095176	0.102510
C32	C	0.634000	0.595176	0.602510
C33	C	0.061178	0.094101	0.102512
C34	C	0.561178	0.594101	0.602512
N35	N	0.280681	0.135895	0.076289
N36	N	0.780681	0.635895	0.576289
N37	N	0.349859	0.136917	0.076281
N38	N	0.849859	0.636917	0.576281
C39	C	0.394706	0.094083	0.000018
C40	C	0.894706	0.594083	0.500018
N41	N	0.367762	0.050195	-0.076253
N42	N	0.867762	0.550195	0.423747
N43	N	0.298578	0.049176	-0.076248
N44	N	0.798578	0.549176	0.423752
C45	C	0.254261	0.092011	0.000026
C46	C	0.754261	0.592011	0.500026
C47	C	0.514961	0.090905	-0.102474
C48	C	1.014961	0.590905	0.397526
C49	C	0.587787	0.091969	-0.102474
C50	C	1.087787	0.591969	0.397526
C51	C	0.578017	0.101724	0.102503
C52	C	1.078017	0.601724	0.602503
C53	C	0.505193	0.100653	0.102501
C54	C	1.005193	0.600653	0.602501
C55	C	0.473669	0.095247	0.000009
C56	C	0.973669	0.595247	0.500009
C57	C	0.829969	-0.034626	0.000045
C58	C	1.329969	0.465374	0.500045
C59	C	0.828828	-0.112130	0.000054
C60	C	1.328828	0.387870	0.500054
C61	C	0.891918	-0.157053	0.000064
C62	C	1.391918	0.342947	0.500064
C63	C	0.890847	-0.229877	0.000045
C64	C	1.390847	0.270123	0.500045
C65	C	0.826681	-0.257775	0.000041
C66	C	1.326681	0.242225	0.500041
C67	C	0.763583	-0.212842	0.000025
C68	C	1.263583	0.287158	0.500025
C69	C	0.764656	-0.140020	0.000032
C70	C	1.264656	0.359980	0.500032
N71	N	0.774583	-0.362734	0.064019
N72	N	1.274583	0.137266	0.564019
N73	N	0.773568	-0.431913	0.064015
N74	N	1.273568	0.068087	0.564015
C75	C	0.823444	-0.477184	0.000018
C76	C	1.323444	0.022816	0.500018
N77	N	0.874384	-0.450665	-0.063962
N78	N	1.374384	0.049335	0.436038
N79	N	0.875401	-0.381480	-0.063953
N80	N	1.375401	0.118520	0.436047
C81	C	0.825511	-0.336738	0.000033
C82	C	1.325511	0.163262	0.500033
C83	C	0.885378	-0.601073	0.000005
C84	C	1.385378	-0.101073	0.500005
C85	C	0.884305	-0.673899	-0.000020
C86	C	1.384305	-0.173899	0.499980
C87	C	0.757038	-0.656861	-0.000029
C88	C	1.257038	-0.156861	0.499971
C89	C	0.758114	-0.584038	-0.000015
C90	C	1.258114	-0.084038	0.499985
C91	C	0.822285	-0.556148	0.000008
C92	C	1.322285	-0.056148	0.500008
C93	C	0.952149	0.087554	0.000024
C94	C	1.452149	0.587554	0.500024
C95	C	1.029654	0.088695	0.000020
C96	C	1.529654	0.588695	0.500020
C97	C	0.818997	0.220705	-0.000009
C98	C	1.318997	0.720705	0.499991
C99	C	0.820139	0.298209	-0.000026
C100	C	1.320139	0.798209	0.499974
N101	N	0.810521	0.106985	0.292923
N102	N	1.310521	0.606985	0.792923
N103	N	0.838450	0.079089	-0.292885
N104	N	1.338450	0.579089	0.207115
C105	C	0.894508	0.023045	0.529593
C106	C	1.394508	0.523045	1.029593
C107	C	0.888882	0.028676	0.647934
C108	C	1.388882	0.528676	1.147934
C109	C	0.793640	0.123873	0.647947
C110	C	1.293640	0.623873	1.147947
C111	C	0.799266	0.118242	0.529606
C112	C	1.299266	0.618242	1.029606
C113	C	0.849702	0.067828	0.470434
C114	C	1.349702	0.567828	0.970434
C115	C	0.855331	0.062201	0.352091
C116	C	1.355331	0.562201	0.852091
C117	C	0.760087	0.157394	0.352106
C118	C	1.260087	0.657394	0.852106
C119	C	0.754461	0.163025	0.470447
C120	C	1.254461	0.663025	0.970447
H121	H	0.177391	0.081902	-0.185918
H122	H	0.677391	0.581902	0.314082
H123	H	0.159676	0.099585	0.185951
H124	H	0.659676	0.599585	0.685951
H125	H	0.027559	0.097633	0.185966
H126	H	0.527559	0.597633	0.685966
Cl127	Cl	0.972592	-0.121997	0.000060
Cl128	Cl	1.472592	0.378003	0.500060
Cl129	Cl	0.918737	-0.001176	0.277705
Cl130	Cl	1.418737	0.498824	0.777705
H131	H	0.471574	0.104185	0.185951
H132	H	0.971574	0.604185	0.685951
Cl133	Cl	0.945210	-0.027625	0.722303
Cl134	Cl	1.445210	0.472375	1.222303
H135	H	0.713394	0.204070	0.518638
H136	H	1.213394	0.704070	1.018638
H137	H	0.935683	-0.710476	-0.000018
H138	H	1.435683	-0.210476	0.499982
Cl139	Cl	0.475328	0.084104	-0.231317
Cl140	Cl	0.975328	0.584104	0.268683
Cl141	Cl	0.957919	-0.040325	0.455204
Cl142	Cl	1.457919	0.459675	0.955204
H143	H	0.752571	0.164915	0.696140
H144	H	1.252571	0.664915	1.196140
H145	H	0.045282	0.079956	-0.185917
H146	H	0.545282	0.579956	0.314083
Cl147	Cl	0.639696	0.086512	-0.231319
Cl148	Cl	1.139696	0.586512	0.268681
H149	H	0.723605	0.193861	0.303925
H150	H	1.223605	0.693861	0.803925
H151	H	0.704794	-0.679575	-0.000038
H152	H	1.204794	-0.179575	0.499962
H153	H	0.603688	0.106131	0.185945
H154	H	1.103688	0.606131	0.685945
Cl155	Cl	0.682918	-0.247912	0.000010
Cl156	Cl	1.182918	0.252088	0.500010
Cl157	Cl	0.970167	-0.286363	0.000056
Cl158	Cl	1.470167	0.213637	0.500056
H159	H	0.713279	-0.103442	0.000025
H160	H	1.213279	0.396558	0.500025
Cl161	Cl	0.966049	-0.566008	0.000040
Cl162	Cl	1.466049	-0.066008	0.500040
H163	H	0.706738	-0.547460	-0.000016
H164	H	1.206738	-0.047460	0.499984
