data_functionalizedCrystal
_audit_creation_method	'MofGen! by Chris Wilmer'
_symmetry_space_group_name_H-M	'P1'
_symmetry_Int_Tables_number	1
_symmetry_cell_setting	triclinic
loop_
_symmetry_equiv_pos_as_xyz
  x,y,z
_cell_length_a	15.995292
_cell_length_b	23.532357
_cell_length_c	15.072220
_cell_angle_alpha	89.993295
_cell_angle_beta	89.986330
_cell_angle_gamma	83.148454
loop_
_atom_site_label
_atom_site_type_symbol
_atom_site_fract_x
_atom_site_fract_y
_atom_site_fract_z
O1	O	1.110398	0.073248	-0.073817
O2	O	1.610398	0.573248	0.426183
O3	O	0.866538	0.082348	-0.073815
O4	O	1.366538	0.582348	0.426185
O5	O	0.995843	-0.005109	-0.073798
O6	O	1.495843	0.494891	0.426202
O7	O	0.981092	0.160704	-0.073835
O8	O	1.481092	0.660704	0.426165
O9	O	0.995811	-0.005104	0.073767
O10	O	1.495811	0.494896	0.573767
O11	O	0.866506	0.082353	0.073750
O12	O	1.366506	0.582353	0.573750
O13	O	1.110366	0.073253	0.073748
O14	O	1.610366	0.573253	0.573748
Zn15	Zn	0.988431	0.077803	0.097178
Zn16	Zn	1.488431	0.577803	0.597178
Zn17	Zn	0.988473	0.077797	-0.097246
Zn18	Zn	1.488473	0.577797	0.402754
O19	O	0.981060	0.160709	0.073731
O20	O	1.481060	0.660709	0.573731
C21	C	0.835329	0.081980	-0.000032
C22	C	1.335329	0.581980	0.499968
C23	C	0.742386	0.080869	-0.000031
C24	C	1.242386	0.580869	0.499969
C25	C	0.404682	0.076788	-0.000040
C26	C	0.904682	0.576788	0.499960
C27	C	0.427453	0.139911	-0.000383
C28	C	0.927453	0.639911	0.499617
C29	C	0.524118	0.141111	-0.000047
C30	C	1.024118	0.641111	0.499953
C31	C	0.572221	0.078813	-0.000036
C32	C	1.072221	0.578813	0.499964
C33	C	0.543372	0.047257	0.084235
C34	C	1.043372	0.547257	0.584235
C35	C	0.446588	0.046497	0.084302
C36	C	0.946588	0.546497	0.584302
C37	C	0.446780	0.045202	-0.083507
C38	C	0.946780	0.545202	0.416493
C39	C	0.543252	0.047542	-0.084617
C40	C	1.043252	0.547542	0.415383
C41	C	0.666907	0.079954	-0.000031
C42	C	1.166907	0.579954	0.499969
C43	C	0.309997	0.075644	-0.000039
C44	C	0.809997	0.575644	0.499961
C45	C	0.995458	-0.026324	-0.000013
C46	C	1.495458	0.473676	0.499987
C47	C	0.994349	-0.089547	-0.000005
C48	C	1.494349	0.410453	0.499995
C49	C	0.987402	-0.481587	-0.080490
C50	C	1.487402	0.018413	0.419510
C51	C	0.986348	-0.540990	-0.080495
C52	C	1.486348	-0.040990	0.419505
O53	O	0.985789	-0.571711	-0.148904
O54	O	1.485789	-0.071711	0.351096
N55	N	0.985807	-0.570700	-0.000059
N56	N	1.485807	-0.070700	0.499941
C57	C	0.986313	-0.541004	0.080388
C58	C	1.486313	-0.041004	0.580388
O59	O	0.985756	-0.571729	0.148806
O60	O	1.485756	-0.071729	0.648806
C61	C	0.987362	-0.481601	0.080392
C62	C	1.487362	0.018399	0.580392
C63	C	0.987910	-0.451894	-0.000049
C64	C	1.487910	0.048106	0.499951
C65	C	0.987950	-0.451880	-0.160926
C66	C	1.487950	0.048120	0.339074
C67	C	0.989006	-0.392481	-0.160920
C68	C	1.489006	0.107519	0.339080
C69	C	0.989514	-0.362788	-0.080479
C70	C	1.489514	0.137212	0.419521
C71	C	0.988966	-0.392495	-0.000044
C72	C	1.488966	0.107505	0.499956
C73	C	0.987861	-0.451905	0.160839
C74	C	1.487861	0.048095	0.660839
C75	C	0.988909	-0.392498	0.160836
C76	C	1.488909	0.107502	0.660836
C77	C	0.989458	-0.362791	0.080394
C78	C	1.489458	0.137209	0.580394
C79	C	0.990531	-0.303404	0.080402
C80	C	1.490531	0.196596	0.580402
N81	N	0.991071	-0.273693	-0.000035
N82	N	1.491071	0.226307	0.499965
C83	C	0.990563	-0.303386	-0.080475
C84	C	1.490563	0.196614	0.419525
C85	C	0.984110	-0.665753	0.080374
C86	C	1.484110	-0.165753	0.580374
C87	C	0.983067	-0.725156	0.080370
C88	C	1.483067	-0.225156	0.580370
C89	C	0.983100	-0.725138	-0.080514
C90	C	1.483100	-0.225138	0.419486
C91	C	0.984149	-0.665735	-0.080509
C92	C	1.484149	-0.165735	0.419491
C93	C	0.984650	-0.636043	-0.000063
C94	C	1.484650	-0.136043	0.499937
C95	C	0.992781	-0.178643	-0.080458
C96	C	1.492781	0.321357	0.419542
C97	C	0.993841	-0.119239	-0.080445
C98	C	1.493841	0.380761	0.419555
C99	C	0.993803	-0.119262	0.080438
C100	C	1.493803	0.380738	0.580438
C101	C	0.992748	-0.178661	0.080426
C102	C	1.492748	0.321339	0.580426
C103	C	0.992234	-0.208350	-0.000029
C104	C	1.492234	0.291650	0.499971
O105	O	0.991087	-0.272645	0.148776
O106	O	1.491087	0.227355	0.648776
O107	O	0.991109	-0.272652	-0.148881
O108	O	1.491109	0.227348	0.351119
C109	C	1.141574	0.073621	-0.000037
C110	C	1.641574	0.573621	0.499963
C111	C	1.234518	0.074731	-0.000045
C112	C	1.734518	0.574731	0.499955
C113	C	0.981445	0.181925	-0.000057
C114	C	1.481445	0.681925	0.499943
C115	C	0.982555	0.245147	-0.000071
C116	C	1.482555	0.745147	0.499929
N117	N	0.988408	0.077807	0.229867
N118	N	1.488408	0.577807	0.729867
N119	N	0.988502	0.077788	-0.229934
N120	N	1.488502	0.577788	0.270066
C121	C	0.988471	0.077795	0.589068
C122	C	1.488471	0.577795	1.089068
C123	C	0.919053	0.124434	0.551452
C124	C	1.419053	0.624434	1.051452
C125	C	0.919209	0.124604	0.448626
C126	C	1.419209	0.624604	0.948626
C127	C	0.988439	0.077801	0.410864
C128	C	1.488439	0.577801	0.910864
C129	C	1.075695	0.090768	0.448151
C130	C	1.575695	0.590768	0.948151
C131	C	1.075305	0.091099	0.551009
C132	C	1.575305	0.591099	1.051009
C133	C	0.971414	0.018051	0.551182
C134	C	1.471414	0.518051	1.051182
C135	C	0.969406	0.018449	0.448318
C136	C	1.469406	0.518449	0.948318
C137	C	0.988427	0.077804	0.310151
C138	C	1.488427	0.577804	0.810151
C139	C	0.988489	0.077794	0.689782
C140	C	1.488489	0.577794	1.189782
H141	H	0.542946	0.165821	-0.060458
H142	H	1.042946	0.665821	0.439542
C143	C	0.989464	-0.359841	0.249336
C144	C	1.489464	0.140159	0.749336
N145	N	0.989885	-0.335245	0.315994
N146	N	1.489885	0.164755	0.815994
C147	C	0.882693	0.005156	0.415403
C148	C	1.382693	0.505156	0.915403
N149	N	0.817379	-0.004855	0.390608
N150	N	1.317379	0.495145	0.890608
H151	H	0.853966	0.116838	0.576216
H152	H	1.353966	0.616838	1.076216
C153	C	0.389363	0.172781	-0.082026
C154	C	0.889363	0.672781	0.417974
N155	N	0.360667	0.197540	-0.143523
N156	N	0.860667	0.697540	0.356477
H157	H	1.016721	-0.017882	0.422617
H158	H	1.516721	0.482118	0.922617
C159	C	0.982532	-0.757810	-0.169001
C160	C	1.482532	-0.257810	0.330999
N161	N	0.982103	-0.782420	-0.235645
N162	N	1.482103	-0.282420	0.264355
H163	H	0.542295	0.165978	0.060454
H164	H	1.042295	0.665978	0.560454
C165	C	0.933858	0.184499	0.415357
C166	C	1.433858	0.684499	0.915357
N167	N	0.944896	0.229613	0.390299
N168	N	1.444896	0.729613	0.890299
C169	C	0.933488	0.183993	0.586344
C170	C	1.433488	0.683993	1.086344
N171	N	0.944363	0.228853	0.612625
N172	N	1.444363	0.728853	1.112625
H173	H	0.398214	0.164109	0.059702
H174	H	0.898214	0.664109	0.559702
C175	C	0.410083	0.076038	0.169384
C176	C	0.910083	0.576038	0.669384
N177	N	0.382591	0.098293	0.233466
N178	N	0.882591	0.598293	0.733466
H179	H	1.091178	0.133842	0.422372
H180	H	1.591178	0.633842	0.922372
H181	H	0.432434	0.000215	0.088138
H182	H	0.932434	0.500215	0.588138
H183	H	1.090414	0.134670	0.574980
H184	H	1.590414	0.634670	1.074980
C185	C	1.039807	-0.028838	0.584050
C186	C	1.539807	0.471162	1.084050
N187	N	1.091322	-0.064151	0.608813
N188	N	1.591322	0.435849	1.108813
H189	H	0.854334	0.116881	0.423418
H190	H	1.354334	0.616881	0.923418
C191	C	0.984674	-0.633099	0.168877
C192	C	1.484674	-0.133099	0.668877
N193	N	0.985100	-0.608506	0.235537
N194	N	1.485100	-0.108506	0.735537
C195	C	1.147122	0.046098	0.415102
C196	C	1.647122	0.546098	0.915102
N197	N	1.200920	0.012453	0.390208
N198	N	1.700920	0.512453	0.890208
H199	H	1.128548	0.058468	0.575890
H200	H	1.628548	0.558468	1.075890
H201	H	0.992309	-0.202850	0.145928
H202	H	1.492309	0.297150	0.645928
H203	H	0.575633	0.001414	0.087377
H204	H	1.075633	0.501414	0.587377
C205	C	0.887342	0.001214	0.586266
C206	C	1.387342	0.501214	1.086266
N207	N	0.824014	-0.011460	0.612691
N208	N	1.324014	0.488540	1.112691
C209	C	0.570188	0.076870	0.168950
C210	C	1.070188	0.576870	0.668950
N211	N	0.590381	0.099179	0.232755
N212	N	1.090381	0.599179	0.732755
H213	H	0.987416	-0.476082	0.226343
H214	H	1.487416	0.023918	0.726343
H215	H	0.992359	-0.202808	-0.145972
H216	H	1.492359	0.297192	0.354028
H217	H	0.418297	0.064931	-0.147378
H218	H	0.918297	0.564931	0.352622
H219	H	0.561638	0.070518	-0.146960
H220	H	1.061638	0.570518	0.353040
C221	C	0.428412	-0.017566	-0.084267
C222	C	0.928412	0.482434	0.415733
N223	N	0.414572	-0.064842	-0.084834
N224	N	0.914572	0.435158	0.415166
C225	C	0.994442	-0.086565	-0.168941
C226	C	1.494442	0.413435	0.331059
N227	N	0.994892	-0.061957	-0.235595
N228	N	1.494892	0.438043	0.264405
C229	C	0.588313	-0.013892	-0.091477
C230	C	1.088313	0.486108	0.408523
N231	N	0.622250	-0.060167	-0.096636
N232	N	1.122250	0.439833	0.403364
H233	H	0.989450	-0.368298	-0.226424
H234	H	1.489450	0.131702	0.273576
H235	H	0.987533	-0.476049	-0.226434
H236	H	1.487533	0.023951	0.273566
H237	H	0.984594	-0.641551	-0.146012
H238	H	1.484594	-0.141551	0.353988
C239	C	0.982472	-0.757827	0.168863
C240	C	1.482472	-0.257827	0.668863
N241	N	0.982017	-0.782432	0.235519
N242	N	1.482017	-0.282432	0.735519
H243	H	0.994221	-0.095076	0.145931
H244	H	1.494221	0.404924	0.645931
