data_functionalizedCrystal
_audit_creation_method	'MofGen! by Chris Wilmer'
_symmetry_space_group_name_H-M	'P1'
_symmetry_Int_Tables_number	1
_symmetry_cell_setting	triclinic
loop_
_symmetry_equiv_pos_as_xyz
  x,y,z
_cell_length_a	14.446369
_cell_length_b	17.917603
_cell_length_c	17.917603
_cell_angle_alpha	60.138055
_cell_angle_beta	90.000794
_cell_angle_gamma	63.035246
loop_
_atom_site_label
_atom_site_type_symbol
_atom_site_fract_x
_atom_site_fract_y
_atom_site_fract_z
Zr1	Zr	0.944542	0.806895	-0.129101
O2	O	0.811723	0.951923	-0.249631
O3	O	0.978911	0.654669	-0.087451
O4	O	0.995681	0.796522	-0.242860
O5	O	0.788945	0.820763	0.023020
O6	O	1.148010	0.796528	-0.242866
O7	O	0.794953	0.810070	-0.094222
O8	O	1.118012	0.542779	0.035132
O9	O	0.818943	1.074512	-0.254978
O10	O	1.114919	0.719953	-0.075372
O11	O	0.996754	0.727928	0.012129
O12	O	1.016498	0.894942	-0.170845
O13	O	0.898333	0.902917	-0.083344
Zr14	Zr	1.177908	0.823960	0.057876
Zr15	Zr	1.187490	0.806905	-0.129111
Zr16	Zr	0.934960	0.823950	0.057887
Zr17	Zr	0.956058	1.002411	-0.137629
Zr18	Zr	1.166392	0.628444	0.066405
O19	O	1.143539	0.976186	0.016226
O20	O	1.157163	0.951937	-0.249646
O21	O	0.798098	0.976172	0.016241
O22	O	1.310727	0.678932	0.178406
O23	O	1.324352	0.654683	-0.087466
O24	O	0.965287	0.678918	0.178421
O25	O	1.333505	0.810092	-0.094245
O26	O	1.126769	0.834333	0.171636
O27	O	0.974440	0.834327	0.171642
O28	O	1.327497	0.820785	0.022997
O29	O	1.012054	1.074520	-0.254987
O30	O	1.110396	0.556335	0.183762
O31	O	1.303507	0.556343	0.183754
O32	O	1.311123	0.542787	0.035124
O33	O	0.811327	1.088068	-0.106348
O34	O	1.004438	1.088076	-0.106357
O35	O	1.105952	0.735913	0.099621
O36	O	1.224117	0.727938	0.012119
O37	O	1.125696	0.902927	-0.083354
O38	O	1.007531	0.910902	0.004148
C39	C	1.046821	0.570867	-0.024944
C40	C	1.041932	0.487866	-0.021323
C41	C	1.033000	0.335899	-0.014712
C42	C	1.089447	0.294952	-0.056511
C43	C	1.084477	0.210392	-0.052832
C44	C	1.037969	0.420466	-0.018389
C45	C	0.757334	0.815415	-0.035599
C46	C	0.654196	0.815411	-0.035595
C47	C	0.569605	0.705032	0.024333
C48	C	0.676913	0.704982	0.024651
C49	C	0.580950	0.876402	0.002157
C50	C	0.474028	0.875705	0.002586
C51	C	0.479557	0.865688	-0.133402
C52	C	0.588093	0.863528	-0.133152
C53	C	1.365116	0.815440	-0.035625
C54	C	1.468254	0.815444	-0.035630
C55	C	1.073211	0.794095	-0.269505
C56	C	1.077278	0.786855	-0.348886
C57	C	1.075629	1.059988	-0.046280
C58	C	1.080518	1.142989	-0.049901
C59	C	1.084732	0.773630	-0.494241
C60	C	1.037721	0.857221	-0.576985
C61	C	1.041868	0.849863	-0.657866
C62	C	1.080586	0.780986	-0.413352
C63	C	1.049240	0.836760	0.198281
C64	C	1.045172	0.844000	0.277662
C65	C	1.350712	0.570880	-0.024957
C66	C	1.448961	0.487882	-0.021341
C67	C	1.034835	0.592200	0.208949
C68	C	1.025879	0.516438	0.291950
C69	C	1.338726	0.592212	0.208936
C70	C	1.432907	0.516455	0.291933
C71	C	0.783724	1.038643	-0.280160
C72	C	0.689543	1.114400	-0.363157
C73	C	0.771738	1.059976	-0.046267
C74	C	0.673489	1.142973	-0.049883
C75	C	1.087615	1.038655	-0.280173
C76	C	1.096571	1.114417	-0.363175
C77	C	1.438100	0.444737	-0.065320
C78	C	1.530407	0.366761	-0.061940
C79	C	1.633575	0.331927	-0.014575
C80	C	1.644434	0.375080	0.029405
C81	C	1.552128	0.453060	0.026019
C82	C	1.078673	0.485029	0.376606
C83	C	1.070253	0.413855	0.454602
C84	C	1.009046	0.374086	0.447940
C85	C	0.956245	0.405502	0.363275
C86	C	0.964659	0.476681	0.285281
C87	C	1.538827	0.476715	0.285235
C88	C	1.627331	0.405543	0.363212
C89	C	1.609912	0.374107	0.447887
C90	C	1.503981	0.413854	0.454583
C91	C	1.415480	0.485030	0.376606
C92	C	0.583623	1.154149	-0.356459
C93	C	0.495121	1.225345	-0.434437
C94	C	0.512540	1.256786	-0.519112
C95	C	0.618471	1.217033	-0.525809
C96	C	0.706971	1.145844	-0.447832
C97	C	0.684351	1.186126	-0.005912
C98	C	0.592046	1.264121	-0.009314
C99	C	0.488879	1.298957	-0.056681
C100	C	0.478019	1.255801	-0.100658
C101	C	0.570324	1.177812	-0.097261
C102	C	1.157787	1.154163	-0.356484
C103	C	1.166224	1.225339	-0.434465
C104	C	1.113437	1.256773	-0.519137
C105	C	1.052219	1.217019	-0.525826
C106	C	1.043789	1.145839	-0.447845
H107	H	0.729913	0.657563	-0.000400
F108	F	1.485460	0.380388	0.544708
H109	H	0.413727	1.362461	-0.059440
F110	F	0.603626	1.310035	0.037498
F111	F	0.368212	1.292885	-0.151065
F112	F	0.996037	1.250490	-0.615948
H113	H	1.560986	0.488179	0.061838
H114	H	1.128514	0.517401	0.382048
H115	H	1.200774	1.128582	-0.287547
H116	H	0.906410	0.373112	0.357864
H117	H	1.216072	1.257701	-0.429001
H118	H	0.408458	0.946966	-0.178229
F119	F	0.978623	1.103552	-0.454981
H120	H	0.569807	0.943719	-0.181192
H121	H	1.141504	0.323403	-0.095059
F122	F	0.562812	0.654431	0.118146
H123	H	0.980946	0.307450	0.023833
H124	H	0.768346	1.157769	0.032665
F125	F	0.570974	0.642612	-0.008193
H126	H	0.408876	1.257700	-0.428968
F127	F	0.739024	0.654203	0.119029
H128	H	0.793213	1.113480	-0.453296
H129	H	0.561465	1.142679	-0.133066
F130	F	1.518827	0.320845	-0.108750
F131	F	0.981040	0.957986	-0.590184
F132	F	1.122417	1.332533	-0.602124
H133	H	0.468308	0.841360	0.074419
H134	H	0.569419	1.128555	-0.287520
H135	H	0.402353	0.956976	-0.038530
F136	F	1.328310	0.481797	-0.115738
H137	H	0.560671	0.957826	-0.039624
H138	H	0.626652	0.842919	0.073288
H139	H	1.708727	0.268430	-0.011825
F140	F	0.418339	1.332552	-0.602096
H141	H	0.474985	0.825687	-0.165419
F142	F	0.636993	1.250503	-0.615934
F143	F	1.740061	0.363251	0.356066
H144	H	1.728445	0.346707	0.067968
H145	H	0.638595	0.818992	-0.161400
H146	H	1.113255	0.388284	0.523532
H147	H	1.128090	0.696545	-0.484147
F148	F	1.302754	0.527312	0.383749
H149	H	1.002203	0.316128	0.511455
F150	F	0.908469	0.510096	0.195186
F151	F	1.557391	0.510163	0.195125
H152	H	1.681985	0.316151	0.511373
