data_functionalizedCrystal
_audit_creation_method	'MofGen! by Chris Wilmer'
_symmetry_space_group_name_H-M	'P1'
_symmetry_Int_Tables_number	1
_symmetry_cell_setting	triclinic
loop_
_symmetry_equiv_pos_as_xyz
  x,y,z
_cell_length_a	10.685727
_cell_length_b	10.686285
_cell_length_c	10.685986
_cell_angle_alpha	98.412590
_cell_angle_beta	90.351197
_cell_angle_gamma	80.939845
loop_
_atom_site_label
_atom_site_type_symbol
_atom_site_fract_x
_atom_site_fract_y
_atom_site_fract_z
Zn1	Zn	-1.911870	0.586566	-0.814895
Zn2	Zn	-1.411870	1.086566	-0.314895
Zn3	Zn	-1.946818	0.817642	-0.588879
Zn4	Zn	-1.446818	1.317642	-0.088879
Zn5	Zn	-1.718355	0.589115	-0.588904
Zn6	Zn	-1.218355	1.089115	-0.088904
Zn7	Zn	-1.718378	0.784957	-0.784844
Zn8	Zn	-1.218378	1.284957	-0.284844
O9	O	-1.823855	0.694570	-0.694380
O10	O	-1.323855	1.194570	-0.194380
O11	O	-2.093095	0.629830	-0.797480
O12	O	-1.593095	1.129830	-0.297480
O13	O	-1.931127	0.802073	-0.412292
O14	O	-1.431127	1.302073	0.087708
O15	O	-1.729389	0.410110	-0.631470
O16	O	-1.229389	0.910110	-0.131470
O17	O	-2.118771	0.799601	-0.631426
O18	O	-1.618771	1.299601	-0.131426
O19	O	-1.871563	0.408237	-0.797504
O20	O	-1.371563	0.908237	-0.297504
O21	O	-1.763276	0.634175	-0.412310
O22	O	-1.263276	1.134175	0.087690
O23	O	-1.541768	0.602482	-0.602330
O24	O	-1.041768	1.102482	-0.102330
O25	O	-1.729430	0.743895	-0.965420
O26	O	-1.229430	1.243895	-0.465420
O27	O	-1.541786	0.746367	-0.746286
O28	O	-1.041786	1.246367	-0.246286
O29	O	-1.871587	0.598137	-0.987499
O30	O	-1.371587	1.098137	-0.487499
O31	O	-1.931150	0.991974	-0.602286
O32	O	-1.431150	1.491974	-0.102286
O33	O	-1.763317	0.967960	-0.746261
O34	O	-1.263317	1.467960	-0.246261
C35	C	-1.495990	0.671155	-0.671050
C36	C	-0.995990	1.171155	-0.171050
C37	C	-1.355727	0.661167	-0.661097
C38	C	-0.855727	1.161167	-0.161097
C39	C	-1.851061	1.026293	-0.671040
C40	C	-1.351061	1.526293	-0.171040
C41	C	-1.862811	1.168211	-0.661105
C42	C	-1.362811	1.668211	-0.161105
C43	C	-1.796612	0.667086	-1.023528
C44	C	-1.296612	1.167086	-0.523528
C45	C	-1.785003	0.655373	-1.163791
C46	C	-1.285003	1.155373	-0.663791
C47	C	-1.153000	0.718064	-0.717797
C48	C	-0.653000	1.218064	-0.217797
C49	C	-1.293260	0.728040	-0.727762
C50	C	-0.793260	1.228040	-0.227762
C51	C	-1.796575	0.361552	-0.717842
C52	C	-1.296575	0.861552	-0.217842
C53	C	-1.784950	0.219639	-0.727840
C54	C	-1.284950	0.719639	-0.227840
C55	C	-1.851057	0.721861	-0.366525
C56	C	-1.351057	1.221861	0.133475
C57	C	-1.862881	0.733231	-0.226305
C58	C	-1.362881	1.233231	0.273695
H59	H	-1.347083	0.792927	-0.792459
H60	H	-0.847083	1.292927	-0.292459
H61	H	-1.301896	0.596264	-0.596407
H62	H	-0.801896	1.096264	-0.096407
Br63	Br	-1.658855	1.112070	-0.835740
Br64	Br	-1.158855	1.612070	-0.335740
H65	H	-1.938458	1.232759	-0.596356
H66	H	-1.438458	1.732759	-0.096356
Br67	Br	-1.659079	0.529334	-1.253430
Br68	Br	-1.159079	1.029334	-0.753430
Br69	Br	-1.988830	0.859255	-1.136665
Br70	Br	-1.488830	1.359255	-0.636665
