data_functionalizedCrystal
_audit_creation_method	'MofGen! by Chris Wilmer'
_symmetry_space_group_name_H-M	'P1'
_symmetry_Int_Tables_number	1
_symmetry_cell_setting	triclinic
loop_
_symmetry_equiv_pos_as_xyz
  x,y,z
_cell_length_a	9.065218
_cell_length_b	14.971486
_cell_length_c	7.540329
_cell_angle_alpha	89.996600
_cell_angle_beta	89.996214
_cell_angle_gamma	84.315040
loop_
_atom_site_label
_atom_site_type_symbol
_atom_site_fract_x
_atom_site_fract_y
_atom_site_fract_z
O1	O	-1.957736	-0.131153	0.147574
O2	O	-1.457736	0.368847	0.647574
O3	O	-1.528233	-0.141910	0.147558
O4	O	-1.028233	0.358090	0.647558
O5	O	-1.754496	-0.006417	0.147554
O6	O	-1.254496	0.493583	0.647554
O7	O	-1.731473	-0.266646	0.147578
O8	O	-1.231473	0.233354	0.647578
O9	O	-1.754488	-0.006416	-0.147411
O10	O	-1.254488	0.493584	0.352589
O11	O	-1.528225	-0.141909	-0.147407
O12	O	-1.028225	0.358091	0.352593
O13	O	-1.957728	-0.131152	-0.147391
O14	O	-1.457728	0.368848	0.352609
Cu15	Cu	-1.742976	-0.136530	-0.174332
Cu16	Cu	-1.242976	0.363470	0.325668
Cu17	Cu	-1.742985	-0.136531	0.174499
Cu18	Cu	-1.242985	0.363469	0.674499
O19	O	-1.731465	-0.266645	-0.147387
O20	O	-1.231465	0.233355	0.352613
C21	C	-1.473263	-0.140876	0.000073
C22	C	-0.973263	0.359124	0.500073
C23	C	-1.309483	-0.137784	0.000067
C24	C	-0.809483	0.362216	0.500067
C25	C	-1.753463	0.026916	0.000072
C26	C	-1.253463	0.526916	0.500072
C27	C	-1.750377	0.126236	0.000073
C28	C	-1.250377	0.626236	0.500073
N29	N	-1.742980	-0.136529	-0.419680
N30	N	-1.242980	0.363471	0.080320
C31	C	-1.012698	-0.132186	0.000087
C32	C	-0.512698	0.367814	0.500087
C33	C	-1.176478	-0.135277	0.000072
C34	C	-0.676478	0.364723	0.500072
C35	C	-1.732498	-0.299977	0.000099
C36	C	-1.232498	0.200023	0.500099
C37	C	-1.735584	-0.399298	0.000109
C38	C	-1.235584	0.100702	0.500109
C39	C	-1.883301	0.182470	0.000077
C40	C	-1.383301	0.682470	0.500077
C41	C	-1.880393	0.275792	0.000095
C42	C	-1.380393	0.775792	0.500095
C43	C	-1.744559	0.312876	0.000096
C44	C	-1.244559	0.812876	0.500096
C45	C	-1.611626	0.256634	0.000098
C46	C	-1.111626	0.756634	0.500098
C47	C	-1.614535	0.163315	0.000093
C48	C	-1.114535	0.663315	0.500093
C49	C	-1.605571	0.451142	0.000104
C50	C	-1.105571	0.951142	0.500104
C51	C	-1.602660	0.544468	0.000106
C52	C	-1.102660	1.044468	0.500106
C53	C	-1.871428	0.563619	0.000106
C54	C	-1.371428	1.063619	0.500106
C55	C	-1.874338	0.470299	0.000101
C56	C	-1.374338	0.970299	0.500101
C57	C	-1.741403	0.414064	0.000099
C58	C	-1.241403	0.914064	0.500099
N59	N	-1.742993	-0.136526	0.419847
N60	N	-1.242993	0.363474	0.919847
H61	H	-1.993912	0.152284	0.000065
H62	H	-1.493912	0.652284	0.500065
Cl63	Cl	-1.440863	0.303255	0.000121
Cl64	Cl	-0.940863	0.803255	0.500121
Cl65	Cl	-2.038546	0.634314	0.000118
Cl66	Cl	-1.538546	1.134314	0.500118
Cl67	Cl	-1.431896	0.591088	0.000106
Cl68	Cl	-0.931896	1.091088	0.500106
Cl69	Cl	-2.047505	0.346483	0.000094
Cl70	Cl	-1.547505	0.846483	0.500094
Cl71	Cl	-2.045102	0.423680	0.000108
Cl72	Cl	-1.545102	0.923680	0.500108
H73	H	-1.497321	0.405357	0.000107
H74	H	-0.997321	0.905357	0.500107
Cl75	Cl	-1.447424	0.092619	0.000095
Cl76	Cl	-0.947424	0.592619	0.500095
