data_functionalizedCrystal
_audit_creation_method	'MofGen! by Chris Wilmer'
_symmetry_space_group_name_H-M	'P1'
_symmetry_Int_Tables_number	1
_symmetry_cell_setting	triclinic
loop_
_symmetry_equiv_pos_as_xyz
  x,y,z
_cell_length_a	19.077105
_cell_length_b	25.639239
_cell_length_c	25.639234
_cell_angle_alpha	89.975095
_cell_angle_beta	87.682510
_cell_angle_gamma	87.734929
loop_
_atom_site_label
_atom_site_type_symbol
_atom_site_fract_x
_atom_site_fract_y
_atom_site_fract_z
Zn1	Zn	1.075912	-0.240348	-0.327690
Zn2	Zn	1.075795	-0.327773	-0.240251
Zn3	Zn	0.958214	-0.236838	-0.236759
Zn4	Zn	0.958155	-0.324234	-0.324148
O5	O	1.017019	-0.282298	-0.282212
O6	O	1.174387	-0.254895	-0.319035
O7	O	1.060173	-0.315722	-0.166622
O8	O	0.973901	-0.164140	-0.248843
O9	O	1.174300	-0.319126	-0.254794
O10	O	1.060373	-0.166719	-0.315649
O11	O	0.973787	-0.248913	-0.164057
O12	O	0.859716	-0.245481	-0.245408
O13	O	0.973800	-0.313094	-0.397784
O14	O	0.859672	-0.309690	-0.309612
O15	O	1.060316	-0.251463	-0.400386
O16	O	1.060115	-0.400466	-0.251359
O17	O	0.973686	-0.397866	-0.312997
C18	C	0.834157	-0.276821	-0.276747
C19	C	0.755928	-0.274491	-0.274421
C20	C	0.719171	-0.306877	-0.306703
C21	C	0.645667	-0.304680	-0.304521
C22	C	0.608920	-0.270100	-0.270053
C23	C	0.645681	-0.237710	-0.237769
C24	C	0.719185	-0.239905	-0.239955
C25	C	0.389089	-0.259945	-0.259939
C26	C	0.315581	-0.257754	-0.257755
C27	C	0.315571	-0.324723	-0.324508
C28	C	0.389075	-0.326917	-0.326688
C29	C	0.425831	-0.294525	-0.294406
N30	N	0.533786	-0.267855	-0.267820
N31	N	0.500963	-0.296768	-0.296642
C32	C	1.016900	-0.418137	-0.282185
C33	C	1.016914	-0.476251	-0.282192
C34	C	1.062140	-0.837962	-0.250177
C35	C	1.062167	-0.892567	-0.250185
O36	O	1.100497	-0.921947	-0.222935
N37	N	1.017143	-0.918541	-0.282250
C38	C	0.972092	-0.889906	-0.314314
O39	O	0.933798	-0.917012	-0.341589
C40	C	0.972069	-0.835302	-0.314308
C41	C	1.017092	-0.809332	-0.282237
C42	C	1.107160	-0.811992	-0.218109
C43	C	1.107131	-0.757390	-0.218101
C44	C	1.062083	-0.728760	-0.250161
C45	C	1.017064	-0.754730	-0.282229
C46	C	0.927023	-0.806668	-0.346374
C47	C	0.927004	-0.752061	-0.346366
C48	C	0.972027	-0.726090	-0.314295
C49	C	0.971987	-0.671498	-0.314280
N50	N	1.017012	-0.645525	-0.282215
C51	C	1.062060	-0.674156	-0.250155
C52	C	0.972146	-1.004578	-0.314324
C53	C	0.972165	-1.059181	-0.314327
C54	C	1.062241	-1.061839	-0.250198
C55	C	1.062218	-1.007235	-0.250193
C56	C	1.017170	-0.978605	-0.282258
C57	C	1.061997	-0.559489	-0.250140
C58	C	1.061962	-0.504882	-0.250132
C59	C	0.971889	-0.502229	-0.314262
C60	C	0.971921	-0.556831	-0.314268
C61	C	1.016980	-0.585459	-0.282205
O62	O	0.933679	-0.642085	-0.341518
O63	O	1.100354	-0.647043	-0.222890
C64	C	1.200595	-0.287797	-0.287699
C65	C	1.278824	-0.290140	-0.290037
C66	C	1.017065	-0.282276	-0.418587
C67	C	1.017084	-0.282266	-0.476701
C68	C	1.017157	-0.145929	-0.282252
C69	C	1.017216	-0.087817	-0.282269
C70	C	0.972123	-0.247417	-0.835735
C71	C	0.972126	-0.247407	-0.890339
O72	O	0.933863	-0.217834	-0.917444
N73	N	1.017107	-0.282185	-0.918985
C74	C	1.062083	-0.316977	-0.893023
O75	O	1.100342	-0.346558	-0.922402
C76	C	1.062075	-0.316989	-0.838419
C77	C	1.017096	-0.282205	-0.809777
C78	C	0.927147	-0.212637	-0.807092
C79	C	0.927144	-0.212645	-0.752492
C80	C	0.972117	-0.247434	-0.726533
C81	C	1.017093	-0.282214	-0.755176
C82	C	1.107046	-0.351783	-0.812458
C83	C	1.107034	-0.351792	-0.757850
C84	C	1.062055	-0.317009	-0.729208
C85	C	1.062064	-0.317012	-0.674617
N86	N	1.017083	-0.282235	-0.645972
C87	C	0.972109	-0.247446	-0.671930
C88	C	1.062095	-0.316951	-1.007694
C89	C	1.062107	-0.316937	-1.062296
C90	C	0.972149	-0.247368	-1.059609
C91	C	0.972142	-0.247379	-1.005006
C92	C	1.017114	-0.282174	-0.979048
C93	C	0.972108	-0.247467	-0.557265
C94	C	0.972111	-0.247477	-0.502659
C95	C	1.062065	-0.317048	-0.505351
C96	C	1.062065	-0.317036	-0.559952
C97	C	1.017080	-0.282243	-0.585907
O98	O	1.100305	-0.346572	-0.647477
O99	O	0.933849	-0.217875	-0.642544
C100	C	1.017014	-0.282284	-0.146369
C101	C	1.017131	-0.282150	-0.088259
H102	H	0.749111	-0.213530	-0.213670
Cl103	Cl	1.163800	-0.847975	-0.177800
Cl104	Cl	0.269360	-0.365442	-0.365087
H105	H	1.098725	-0.345282	-0.986563
H106	H	1.143795	-0.736249	-0.191987
Cl107	Cl	1.118567	-0.472237	-0.209811
Cl108	Cl	0.269385	-0.214282	-0.214416
H109	H	0.419006	-0.233573	-0.233649
H110	H	0.615756	-0.209552	-0.209707
Cl111	Cl	1.118642	-0.595470	-0.209830
H112	H	0.890521	-0.184307	-0.828221
H113	H	1.098924	-1.085160	-0.224095
H114	H	1.098741	-0.345256	-1.085613
H115	H	0.935457	-0.981270	-0.340433
H116	H	1.098879	-0.986093	-0.224078
H117	H	0.890357	-0.827804	-0.372488
Cl118	Cl	0.915554	-1.091823	-0.354640
H119	H	0.935516	-0.219056	-0.981688
Cl120	Cl	0.870371	-0.716072	-0.386680
Cl121	Cl	0.915306	-0.589480	-0.354575
H122	H	0.935209	-0.478910	-0.340364
Cl123	Cl	0.870591	-0.168919	-0.716492
H124	H	1.143672	-0.380108	-0.835769
H125	H	0.935484	-0.219150	-0.479341
Cl126	Cl	1.163572	-0.395538	-0.725222
Cl127	Cl	0.765360	-0.350354	-0.350035
H128	H	0.935477	-0.219135	-0.578391
H129	H	0.615743	-0.331053	-0.330808
Cl130	Cl	1.118622	-0.360755	-0.595961
H131	H	0.935529	-0.219041	-1.080754
H132	H	1.098683	-0.345371	-0.484206
H133	H	0.418990	-0.355077	-0.354754
