data_functionalizedCrystal
_audit_creation_method	'MofGen! by Chris Wilmer'
_symmetry_space_group_name_H-M	'P1'
_symmetry_Int_Tables_number	1
_symmetry_cell_setting	triclinic
loop_
_symmetry_equiv_pos_as_xyz
  x,y,z
_cell_length_a	12.645330
_cell_length_b	16.625548
_cell_length_c	16.625539
_cell_angle_alpha	90.020568
_cell_angle_beta	90.025033
_cell_angle_gamma	90.013453
loop_
_atom_site_label
_atom_site_type_symbol
_atom_site_fract_x
_atom_site_fract_y
_atom_site_fract_z
Zn1	Zn	-0.422007	1.232737	0.455928
Zn2	Zn	-0.599293	1.232664	0.321103
Zn3	Zn	-0.422048	1.097899	0.321108
Zn4	Zn	-0.599232	1.097893	0.455892
O5	O	-0.510645	1.165298	0.388508
O6	O	-0.445533	1.345560	0.438055
O7	O	-0.575824	1.214759	0.208271
O8	O	-0.273695	1.115818	0.339009
O9	O	-0.575784	1.345506	0.339000
O10	O	-0.273665	1.214883	0.438061
O11	O	-0.445602	1.115748	0.208275
O12	O	-0.445543	0.985066	0.338975
O13	O	-0.575681	1.115808	0.568730
O14	O	-0.575720	0.985061	0.438001
O15	O	-0.445474	1.214878	0.568755
O16	O	-0.747632	1.214753	0.338966
O17	O	-0.747588	1.115738	0.437995
C18	C	-0.510630	0.955807	0.388485
C19	C	-0.510649	0.866186	0.388495
C20	C	-0.510656	0.538011	0.388529
C21	C	-0.510651	0.629319	0.388517
C22	C	-0.510653	0.702095	0.388511
C23	C	-0.510647	0.793410	0.388500
C24	C	-0.786075	1.165259	0.388494
C25	C	-0.903905	1.165316	0.388515
C26	C	-0.948770	1.227678	0.326269
C27	C	-1.071331	1.227534	0.326047
C28	C	-1.071913	1.080345	0.365681
C29	C	-0.949315	1.080666	0.365207
C30	C	-0.948986	1.187266	0.473797
C31	C	-1.071590	1.189181	0.473365
C32	C	-0.234140	1.165360	0.388540
C33	C	-0.116310	1.165386	0.388553
C34	C	-0.510566	1.165351	0.598817
C35	C	-0.510532	1.165373	0.688438
C36	C	-0.510661	1.375607	0.388531
C37	C	-0.510668	1.465228	0.388541
C38	C	-0.510647	1.165292	0.179017
C39	C	-0.510382	1.165426	0.089396
C40	C	-0.510414	1.165410	1.016614
C41	C	-0.510450	1.165397	0.925305
C42	C	-0.510474	1.165392	0.852529
C43	C	-0.510509	1.165378	0.761214
H44	H	-1.101344	1.290586	0.340333
H45	H	-0.919639	1.032608	0.408585
H46	H	-1.101050	1.032634	0.409636
H47	H	-0.918033	1.213311	0.263439
H48	H	-0.919964	1.141851	0.520173
H49	H	-0.917985	1.248200	0.494640
H50	H	-1.100736	1.213008	0.262868
H51	H	-0.919224	1.290907	0.340386
H52	H	-0.920800	1.062093	0.302874
H53	H	-1.102698	1.061471	0.304044
H54	H	-1.100599	1.251764	0.490614
H55	H	-1.102202	1.147112	0.522221
