data_functionalizedCrystal
_audit_creation_method	'MofGen! by Chris Wilmer'
_symmetry_space_group_name_H-M	'P1'
_symmetry_Int_Tables_number	1
_symmetry_cell_setting	triclinic
loop_
_symmetry_equiv_pos_as_xyz
  x,y,z
_cell_length_a	12.811415
_cell_length_b	9.065215
_cell_length_c	8.140239
_cell_angle_alpha	89.999269
_cell_angle_beta	95.434013
_cell_angle_gamma	95.473073
loop_
_atom_site_label
_atom_site_type_symbol
_atom_site_fract_x
_atom_site_fract_y
_atom_site_fract_z
O1	O	0.153894	-1.958451	0.159510
O2	O	0.166521	-1.529006	0.161400
O3	O	0.007517	-1.754533	0.137700
O4	O	0.312897	-1.732924	0.183210
O5	O	0.007516	-1.754526	-0.135527
O6	O	0.166520	-1.528999	-0.111827
O7	O	0.153892	-1.958444	-0.113717
Zn8	Zn	0.160206	-1.743720	-0.156153
Zn9	Zn	0.160207	-1.743730	0.203836
O10	O	0.312896	-1.732917	-0.090017
C11	C	0.165307	-1.474031	0.024607
C12	C	0.161681	-1.310234	0.024070
C13	C	-0.031599	-1.753319	-0.004739
C14	C	-0.148151	-1.749693	-0.022098
C15	C	-0.367153	-1.742861	0.243189
C16	C	-0.476665	-1.739455	0.226887
C17	C	-0.476687	-1.739462	-0.071004
C18	C	-0.367175	-1.742869	-0.054701
C19	C	-0.312413	-1.744571	0.102400
C20	C	-0.202900	-1.747988	0.118701
C21	C	-0.202923	-1.747985	-0.179188
C22	C	-0.312435	-1.744578	-0.195490
C23	C	0.352012	-1.734132	0.052426
C24	C	0.468564	-1.737757	0.069795
N25	N	0.160204	-1.743725	-0.401836
C26	C	0.155106	-1.013419	0.023081
C27	C	0.158732	-1.177216	0.023631
N28	N	0.160201	-1.743737	0.449517
H29	H	-0.158314	-1.749378	0.246621
H30	H	-0.521293	-1.738065	-0.198908
F31	F	-0.534920	-1.737631	0.376734
F32	F	-0.144658	-1.749817	-0.329036
F33	F	-0.308870	-1.744692	0.410385
F34	F	-0.370727	-1.742755	-0.362680
