data_functionalizedCrystal
_audit_creation_method	'MofGen! by Chris Wilmer'
_symmetry_space_group_name_H-M	'P1'
_symmetry_Int_Tables_number	1
_symmetry_cell_setting	triclinic
loop_
_symmetry_equiv_pos_as_xyz
  x,y,z
_cell_length_a	6.817900
_cell_length_b	16.418049
_cell_length_c	11.102228
_cell_angle_alpha	93.886846
_cell_angle_beta	108.604565
_cell_angle_gamma	103.389670
loop_
_atom_site_label
_atom_site_type_symbol
_atom_site_fract_x
_atom_site_fract_y
_atom_site_fract_z
V1	V	-4.085015	-0.115888	-0.396704
O2	O	-4.071823	0.005567	-0.388692
O3	O	-4.035746	-0.229784	-0.394434
O4	O	-4.062198	-0.114106	-0.569518
O5	O	-4.045188	-0.110912	-0.212395
V6	V	-4.565441	-0.101360	-0.374605
O7	O	-4.353068	-0.147755	-0.445179
O8	O	-4.747585	-0.069493	-0.326130
O9	O	-4.391503	0.012536	-0.376876
O10	O	-4.696030	-0.222815	-0.382617
O11	O	-4.722665	-0.106336	-0.558914
O12	O	-4.365052	-0.103142	-0.201791
C13	C	-3.879708	-0.257550	-0.388290
C14	C	-3.920882	-0.350662	-0.387585
C15	C	-4.198620	-0.569151	-0.392346
C16	C	-4.237297	-0.656640	-0.391696
C17	C	-3.871196	-0.648096	-0.378971
C18	C	-3.832526	-0.560609	-0.379631
C19	C	-3.996241	-0.521139	-0.386312
C20	C	-4.073589	-0.696115	-0.385002
C21	C	-4.115524	-0.790974	-0.384296
C22	C	-3.954306	-0.426273	-0.387020
C23	C	-3.913448	-0.109990	-0.611626
C24	C	-3.976070	-0.109286	-0.752905
C25	C	-4.048114	-0.185659	-0.837725
C26	C	-4.106966	-0.184997	-0.970472
C27	C	-4.021714	-0.031582	-0.933566
C28	C	-3.962877	-0.032245	-0.800822
C29	C	-4.356245	-0.278931	-1.178223
C30	C	-4.428258	-0.355307	-1.263047
C31	C	-4.329121	-0.420558	-1.232085
C32	C	-4.157923	-0.409436	-1.116300
C33	C	-4.085894	-0.333058	-1.031482
C34	C	-4.185079	-0.267811	-1.062445
C35	C	-3.713584	0.061684	-0.593069
C36	C	-3.641539	0.138063	-0.508248
C37	C	-3.740659	0.203322	-0.539205
C38	C	-3.911823	0.192208	-0.654991
C39	C	-3.983869	0.115829	-0.739812
C40	C	-3.884748	0.050570	-0.708846
C41	C	-4.210883	0.040297	-0.383016
C42	C	-4.148948	0.133408	-0.383729
C43	C	-4.177142	-0.107261	-0.159677
C44	C	-4.093759	-0.107960	-0.018396
H45	H	-4.058861	-0.248391	-0.798716
C46	C	-3.825925	-0.394232	-0.894942
C47	C	-3.897747	-0.320829	-0.904211
H48	H	-3.709786	-0.386685	-0.816361
H49	H	-3.779294	-0.404861	-0.965030
H50	H	-3.939985	-0.440927	-0.897128
H51	H	-3.783691	-0.274134	-0.902034
H52	H	-3.944371	-0.310190	-0.834104
C53	C	-4.148316	-0.550551	-1.181168
C54	C	-4.048938	-0.481163	-1.082273
H55	H	-4.081040	-0.594834	-1.160151
H56	H	-4.135324	-0.533919	-1.259169
H57	H	-4.295980	-0.569967	-1.191236
H58	H	-3.901277	-0.461743	-1.072211
H59	H	-4.061911	-0.497797	-1.004249
H60	H	-3.502142	0.147113	-0.413978
H61	H	-3.737909	-0.680244	-0.373529
H62	H	-4.402091	-0.695729	-0.396612
C63	C	-4.106068	0.282929	-0.594679
C64	C	-4.020807	0.263936	-0.689031
H65	H	-4.173355	0.327209	-0.615699
H66	H	-3.993823	0.300482	-0.513598
H67	H	-4.208879	0.233976	-0.590768
H68	H	-3.917983	0.312887	-0.692936
H69	H	-4.133066	0.246385	-0.770134
H70	H	-4.387761	-0.482745	-1.301158
H71	H	-4.567657	-0.364358	-1.357319
H72	H	-4.437003	-0.225807	-1.203437
H73	H	-4.331929	-0.537017	-0.397785
C74	C	-4.074027	0.037556	-1.120667
C75	C	-4.007186	0.053099	-0.986241
H76	H	-4.065037	0.089838	-1.153180
H77	H	-4.218282	0.003481	-1.154148
H78	H	-3.984063	0.008820	-1.145836
H79	H	-4.097161	0.081830	-0.961072
H80	H	-3.862908	0.087188	-0.952747
C81	C	-4.354873	0.111880	-0.840937
C82	C	-4.172036	0.103602	-0.867083
H83	H	-4.471039	0.104324	-0.919508
H84	H	-4.326151	0.166704	-0.794870
H85	H	-4.391445	0.070214	-0.790718
H86	H	-4.135454	0.145272	-0.917294
H87	H	-4.200759	0.048770	-0.913170
H88	H	-3.667720	-0.521517	-0.374722
H89	H	-3.681931	0.265524	-0.470151
H90	H	-3.632862	0.008547	-0.567851
