data_functionalizedCrystal
_audit_creation_method	'MofGen! by Chris Wilmer'
_symmetry_space_group_name_H-M	'P1'
_symmetry_Int_Tables_number	1
_symmetry_cell_setting	triclinic
loop_
_symmetry_equiv_pos_as_xyz
  x,y,z
_cell_length_a	16.109301
_cell_length_b	10.489741
_cell_length_c	15.186229
_cell_angle_alpha	89.996534
_cell_angle_beta	89.999362
_cell_angle_gamma	84.000327
loop_
_atom_site_label
_atom_site_type_symbol
_atom_site_fract_x
_atom_site_fract_y
_atom_site_fract_z
O1	O	1.104141	0.163947	-0.073172
O2	O	0.862205	0.184350	-0.073186
O3	O	0.988678	-0.011529	-0.073174
O4	O	0.977668	0.359826	-0.073185
O5	O	0.988670	-0.011532	0.073284
O6	O	0.862196	0.184347	0.073271
O7	O	1.104133	0.163944	0.073285
Zn8	Zn	0.983163	0.174145	0.096531
Zn9	Zn	0.983174	0.174149	-0.096433
O10	O	0.977659	0.359823	0.073272
C11	C	0.831221	0.183522	0.000041
C12	C	0.738910	0.181044	0.000035
C13	C	0.517319	0.291514	0.000042
C14	C	0.430584	0.289175	0.000048
C15	C	0.449026	0.056771	0.000051
C16	C	0.535759	0.059111	0.000052
C17	C	0.569903	0.176486	0.000043
C18	C	0.396435	0.171808	0.000048
C19	C	0.302393	0.169272	0.000054
C20	C	0.663950	0.179022	0.000038
C21	C	0.987842	-0.059050	0.000054
C22	C	0.985354	-0.200644	0.000053
C23	C	0.904883	-0.267616	0.000042
C24	C	0.942893	-0.360292	0.072255
C25	C	0.942920	-0.360264	-0.072141
C26	C	1.023397	-0.291454	0.072325
C27	C	1.023413	-0.291417	-0.072135
C28	C	1.061482	-0.384066	0.000096
C29	C	1.135117	0.164772	0.000056
C30	C	1.227427	0.167250	0.000056
C31	C	0.978495	0.407344	0.000042
C32	C	0.980983	0.548938	0.000038
N33	N	0.983162	0.174142	0.228224
N34	N	0.983183	0.174142	-0.228125
C35	C	1.039183	0.087436	0.453952
C36	C	1.039186	0.087433	0.546142
C37	C	0.927155	0.260852	0.546140
C38	C	0.927149	0.260848	0.453952
C39	C	0.983168	0.174141	0.407860
C40	C	0.983176	0.174142	0.592238
C41	C	0.983179	0.174140	0.692194
C42	C	0.983165	0.174142	0.307898
H43	H	0.421215	-0.038791	0.000064
H44	H	0.908865	-0.390732	-0.133197
H45	H	0.881546	0.331449	0.583677
H46	H	0.908840	-0.390810	0.133302
C47	C	1.100796	-0.007949	0.403251
C48	C	1.164676	0.041907	0.339868
C49	C	1.226288	-0.053484	0.289170
C50	C	1.224021	-0.198730	0.301856
C51	C	1.160139	-0.248593	0.365242
C52	C	1.098527	-0.153202	0.415940
H53	H	1.166356	0.149433	0.330474
H54	H	1.273578	-0.016571	0.242247
H55	H	1.269631	-0.269344	0.264326
H56	H	1.158459	-0.356120	0.374635
H57	H	1.051237	-0.190115	0.462863
H58	H	1.057437	-0.260865	-0.133185
H59	H	1.084798	0.016828	0.583667
C60	C	0.372740	0.415708	0.000043
C61	C	0.310580	0.446061	0.076097
C62	C	0.252736	0.572598	0.076094
C63	C	0.257052	0.668783	0.000037
C64	C	0.319214	0.638433	-0.076022
C65	C	0.377058	0.511895	-0.076019
H66	H	0.307383	0.374857	0.132403
H67	H	0.206719	0.595065	0.132398
H68	H	0.214232	0.762454	0.000035
H69	H	0.322411	0.709636	-0.132328
H70	H	0.423075	0.489428	-0.132323
C71	C	0.554878	0.420622	0.000043
C72	C	0.497033	0.547150	0.000048
C73	C	0.534589	0.676262	0.000052
C74	C	0.629991	0.678846	0.000050
C75	C	0.687843	0.552313	0.000045
C76	C	0.650286	0.423201	0.000041
H77	H	0.426405	0.545241	0.000049
H78	H	0.491763	0.769930	0.000055
H79	H	0.657793	0.774423	0.000053
H80	H	0.758470	0.554222	0.000044
H81	H	0.693112	0.329533	0.000037
C82	C	0.865529	0.356231	0.403243
C83	C	0.803940	0.451654	0.453936
C84	C	0.742321	0.547027	0.403226
C85	C	0.742290	0.546978	0.301822
C86	C	0.803881	0.451552	0.251124
C87	C	0.865500	0.356178	0.301834
H88	H	0.803961	0.451694	0.529006
H89	H	0.696728	0.617668	0.440757
H90	H	0.696676	0.617579	0.264284
H91	H	0.803860	0.451512	0.176054
H92	H	0.911093	0.285537	0.264303
H93	H	0.578575	-0.034565	0.000055
H94	H	0.838720	-0.217005	0.000110
H95	H	1.057413	-0.261117	0.133445
H96	H	1.127704	-0.434450	0.000140
