data_functionalizedCrystal
_audit_creation_method	'MofGen! by Chris Wilmer'
_symmetry_space_group_name_H-M	'P1'
_symmetry_Int_Tables_number	1
_symmetry_cell_setting	triclinic
loop_
_symmetry_equiv_pos_as_xyz
  x,y,z
_cell_length_a	27.732048
_cell_length_b	27.732048
_cell_length_c	26.809956
_cell_angle_alpha	90.000636
_cell_angle_beta	90.003258
_cell_angle_gamma	82.642655
loop_
_atom_site_label
_atom_site_type_symbol
_atom_site_fract_x
_atom_site_fract_y
_atom_site_fract_z
O1	O	-0.640931	-0.057510	-0.041421
O2	O	-0.140931	0.442490	0.458579
O3	O	-0.500138	-0.066256	-0.041436
O4	O	-0.000138	0.433744	0.458564
O5	O	-0.574907	0.008514	-0.041419
O6	O	-0.074907	0.508514	0.458581
O7	O	-0.566162	-0.132280	-0.041439
O8	O	-0.066162	0.367720	0.458561
O9	O	-0.574893	0.008502	0.041541
O10	O	-0.074893	0.508502	0.541541
O11	O	-0.500123	-0.066267	0.041523
O12	O	-0.000123	0.433733	0.541523
O13	O	-0.640917	-0.057522	0.041539
O14	O	-0.140917	0.442478	0.541539
Zn15	Zn	-0.570518	-0.061896	0.054702
Zn16	Zn	-0.070518	0.438104	0.554702
Zn17	Zn	-0.570536	-0.061881	-0.054600
Zn18	Zn	-0.070536	0.438119	0.445400
O19	O	-0.566147	-0.132291	0.041521
O20	O	-0.066147	0.367709	0.541521
C21	C	-0.482124	-0.066078	0.000041
C22	C	0.017876	0.433922	0.500041
C23	C	-0.428469	-0.065525	0.000036
C24	C	0.071531	0.434475	0.500036
C25	C	-0.574716	0.026515	0.000062
C26	C	-0.074716	0.526515	0.500062
C27	C	-0.574164	0.080170	0.000066
C28	C	-0.074164	0.580170	0.500066
C29	C	-0.658931	-0.057699	0.000060
C30	C	-0.158931	0.442301	0.500060
C31	C	-0.712586	-0.058252	0.000062
C32	C	-0.212586	0.441748	0.500062
C33	C	-0.089654	-0.106229	0.000051
C34	C	0.410346	0.393771	0.500051
C35	C	0.112006	-0.104178	0.000056
C36	C	0.612006	0.395822	0.500056
O37	O	0.143262	-0.141398	0.000073
O38	O	0.643262	0.358602	0.500073
N39	N	0.131130	-0.059843	0.000062
N40	N	0.631130	0.440157	0.500062
C41	C	0.099835	-0.016017	0.000069
C42	C	0.599835	0.483983	0.500069
O43	O	0.120728	0.021740	0.000079
O44	O	0.620728	0.521740	0.500079
C45	C	-0.101824	-0.018068	0.000068
C46	C	0.398176	0.481932	0.500068
C47	C	-0.120944	-0.062407	0.000057
C48	C	0.379056	0.437593	0.500057
C49	C	-0.108775	-0.150563	0.000042
C50	C	0.391225	0.349437	0.500042
C51	C	-0.159187	-0.151076	0.000038
C52	C	0.340813	0.348924	0.500038
C53	C	-0.190477	-0.107253	0.000044
C54	C	0.309523	0.392747	0.500044
C55	C	-0.171356	-0.062919	0.000054
C56	C	0.328644	0.437081	0.500054
C57	C	-0.133117	0.025757	0.000079
C58	C	0.366883	0.525757	0.500079
C59	C	-0.183535	0.025240	0.000080
C60	C	0.316465	0.525240	0.500080
C61	C	-0.202655	-0.019098	0.000069
C62	C	0.297345	0.480902	0.500069
C63	C	-0.253059	-0.019609	0.000056
C64	C	0.246941	0.480391	0.500056
N65	N	-0.272183	-0.063944	0.000050
N66	N	0.227817	0.436056	0.500050
C67	C	-0.240892	-0.107766	0.000044
C68	C	0.259108	0.392234	0.500044
C69	C	0.205709	-0.014943	0.000069
C70	C	0.705709	0.485057	0.500069
C71	C	0.256124	-0.014430	0.000068
C72	C	0.756124	0.485570	0.500068
C73	C	0.268291	-0.102591	0.000056
C74	C	0.768291	0.397409	0.500056
C75	C	0.217876	-0.103104	0.000053
C76	C	0.717876	0.396896	0.500053
C77	C	0.186585	-0.059278	0.000063
C78	C	0.686585	0.440722	0.500063
C79	C	-0.346761	-0.108839	0.000036
C80	C	0.153239	0.391161	0.500036
C81	C	-0.397178	-0.109347	0.000030
C82	C	0.102822	0.390653	0.500030
C83	C	-0.409341	-0.021186	0.000044
C84	C	0.090659	0.478814	0.500044
C85	C	-0.358929	-0.020678	0.000048
C86	C	0.141071	0.479322	0.500048
C87	C	-0.327639	-0.064508	0.000045
C88	C	0.172361	0.435492	0.500045
O89	O	-0.284343	0.017592	0.000045
O90	O	0.215657	0.517592	0.500045
O91	O	-0.261794	-0.145518	0.000045
O92	O	0.238206	0.354482	0.500045
C93	C	-0.039242	-0.105716	0.000055
C94	C	0.460758	0.394284	0.500055
C95	C	-0.020120	-0.061382	0.000065
C96	C	0.479880	0.438618	0.500065
C97	C	-0.051411	-0.017560	0.000071
C98	C	0.448589	0.482440	0.500071
C99	C	0.030294	-0.060869	0.000065
C100	C	0.530294	0.439131	0.500065
C101	C	0.061585	-0.104691	0.000059
C102	C	0.561585	0.395309	0.500059
C103	C	0.042461	-0.149026	0.000053
C104	C	0.542461	0.350974	0.500053
C105	C	-0.007951	-0.149539	0.000049
C106	C	0.492049	0.350461	0.500049
C107	C	-0.032287	0.026775	0.000077
C108	C	0.467713	0.526775	0.500077
C109	C	0.018125	0.027284	0.000080
C110	C	0.518125	0.527284	0.500080
C111	C	0.049416	-0.016538	0.000074
C112	C	0.549416	0.483462	0.500074
C113	C	-0.566338	-0.150292	0.000039
C114	C	-0.066338	0.349708	0.500039
C115	C	-0.566891	-0.203947	0.000031
C116	C	-0.066891	0.296053	0.500031
N117	N	-0.570509	-0.061906	0.129298
N118	N	-0.070509	0.438094	0.629298
C119	C	-0.614867	0.418985	0.000045
C120	C	-0.114867	0.918985	0.500045
C121	C	-0.612816	0.620645	0.000038
C122	C	-0.112816	1.120645	0.500038
O123	O	-0.650037	0.651900	0.000021
O124	O	-0.150037	1.151900	0.500021
N125	N	-0.568481	0.639768	0.000034
N126	N	-0.068481	1.139768	0.500034
C127	C	-0.524656	0.608474	0.000028
C128	C	-0.024656	1.108474	0.500028
O129	O	-0.486899	0.629367	0.000019
O130	O	0.013101	1.129367	0.500019
C131	C	-0.526707	0.406815	0.000031
C132	C	-0.026707	0.906815	0.500031
C133	C	-0.571045	0.387694	0.000041
C134	C	-0.071045	0.887694	0.500041
C135	C	-0.659202	0.399864	0.000054
C136	C	-0.159202	0.899864	0.500054
C137	C	-0.659714	0.349452	0.000059
C138	C	-0.159714	0.849452	0.500059
C139	C	-0.615892	0.318161	0.000054
C140	C	-0.115892	0.818161	0.500054
C141	C	-0.571557	0.337282	0.000045
C142	C	-0.071557	0.837282	0.500045
C143	C	-0.482882	0.375521	0.000022
C144	C	0.017118	0.875521	0.500022
C145	C	-0.483399	0.325104	0.000021
C146	C	0.016601	0.825104	0.500021
C147	C	-0.527737	0.305983	0.000031
C148	C	-0.027737	0.805983	0.500031
C149	C	-0.528247	0.255580	0.000045
C150	C	-0.028247	0.755580	0.500045
N151	N	-0.572583	0.236456	0.000050
N152	N	-0.072583	0.736456	0.500050
C153	C	-0.616405	0.267747	0.000054
C154	C	-0.116405	0.767747	0.500054
C155	C	-0.523582	0.714348	0.000027
C156	C	-0.023582	1.214348	0.500027
C157	C	-0.523069	0.764762	0.000027
C158	C	-0.023069	1.264762	0.500027
C159	C	-0.611230	0.776930	0.000036
C160	C	-0.111230	1.276930	0.500036
C161	C	-0.611742	0.726514	0.000040
C162	C	-0.111742	1.226514	0.500040
C163	C	-0.567917	0.695224	0.000031
C164	C	-0.067917	1.195224	0.500031
C165	C	-0.617477	0.161878	0.000064
C166	C	-0.117477	0.661878	0.500064
C167	C	-0.617986	0.111461	0.000071
C168	C	-0.117986	0.611461	0.500071
C169	C	-0.529825	0.099298	0.000059
C170	C	-0.029825	0.599298	0.500059
C171	C	-0.529316	0.149710	0.000055
C172	C	-0.029316	0.649710	0.500055
C173	C	-0.573147	0.180999	0.000056
C174	C	-0.073147	0.680999	0.500056
O175	O	-0.491047	0.224296	0.000057
O176	O	0.008953	0.724296	0.500057
O177	O	-0.654156	0.246844	0.000053
O178	O	-0.154156	0.746844	0.500053
C179	C	-0.614355	0.469397	0.000041
C180	C	-0.114355	0.969397	0.500041
C181	C	-0.570021	0.488518	0.000032
C182	C	-0.070021	0.988518	0.500032
C183	C	-0.526198	0.457228	0.000027
C184	C	-0.026198	0.957228	0.500027
C185	C	-0.569508	0.538933	0.000032
C186	C	-0.069508	1.038933	0.500032
C187	C	-0.613330	0.570223	0.000036
C188	C	-0.113330	1.070223	0.500036
C189	C	-0.657665	0.551100	0.000041
C190	C	-0.157665	1.051100	0.500041
C191	C	-0.658177	0.500688	0.000045
C192	C	-0.158177	1.000688	0.500045
C193	C	-0.481863	0.476351	0.000023
C194	C	0.018137	0.976351	0.500023
C195	C	-0.481355	0.526764	0.000019
C196	C	0.018645	1.026764	0.500019
C197	C	-0.525177	0.558054	0.000023
C198	C	-0.025177	1.058054	0.500023
N199	N	-0.570549	-0.061867	-0.129196
N200	N	-0.070549	0.438133	0.370804
C201	C	-0.603640	-0.028781	0.473932
C202	C	-0.103640	0.471219	0.973932
C203	C	-0.603652	-0.028774	0.682810
C204	C	-0.103652	0.471226	1.182810
O205	O	-0.631801	-0.000613	0.709820
O206	O	-0.131801	0.499387	1.209820
N207	N	-0.570539	-0.061870	0.708925
N208	N	-0.070539	0.438130	1.208925
C209	C	-0.537419	-0.094969	0.682818
C210	C	-0.037419	0.405031	1.182818
O211	O	-0.509252	-0.123116	0.709824
O212	O	-0.009252	0.376884	1.209824
C213	C	-0.537406	-0.094974	0.473941
C214	C	-0.037406	0.405026	0.973941
C215	C	-0.570524	-0.061878	0.447829
C216	C	-0.070524	0.438122	0.947829
C217	C	-0.636755	0.004312	0.447819
C218	C	-0.136755	0.504312	0.947819
C219	C	-0.636754	0.004308	0.395603
C220	C	-0.136754	0.504308	0.895603
C221	C	-0.603637	-0.028789	0.369500
C222	C	-0.103637	0.471211	0.869500
C223	C	-0.570522	-0.061882	0.395612
C224	C	-0.070522	0.438118	0.895612
C225	C	-0.504284	-0.128070	0.447835
C226	C	-0.004284	0.371930	0.947835
C227	C	-0.504283	-0.128067	0.395613
C228	C	-0.004283	0.371933	0.895613
C229	C	-0.537401	-0.094972	0.369500
C230	C	-0.037401	0.405028	0.869500
C231	C	-0.537405	-0.094983	0.317293
C232	C	-0.037405	0.405017	0.817293
N233	N	-0.570517	-0.061887	0.291177
N234	N	-0.070517	0.438113	0.791177
C235	C	-0.603633	-0.028790	0.317281
C236	C	-0.103633	0.471210	0.817281
C237	C	-0.537429	-0.094965	0.792481
C238	C	-0.037429	0.405035	1.292481
C239	C	-0.537433	-0.094964	0.844700
C240	C	-0.037433	0.405036	1.344700
C241	C	-0.603665	-0.028768	0.844689
C242	C	-0.103665	0.471232	1.344689
C243	C	-0.603663	-0.028772	0.792469
C244	C	-0.103663	0.471228	1.292469
C245	C	-0.570542	-0.061868	0.766366
C246	C	-0.070542	0.438132	1.266366
C247	C	-0.603628	-0.028801	0.207623
C248	C	-0.103628	0.471199	0.707623
C249	C	-0.603625	-0.028809	0.155402
C250	C	-0.103625	0.471191	0.655402
C251	C	-0.537392	-0.095003	0.155418
C252	C	-0.037392	0.404997	0.655418
C253	C	-0.537396	-0.094997	0.207635
C254	C	-0.037396	0.405003	0.707635
C255	C	-0.570516	-0.061892	0.233735
C256	C	-0.070516	0.438108	0.733735
O257	O	-0.509266	-0.123126	0.290250
O258	O	-0.009266	0.376874	0.790250
O259	O	-0.631789	-0.000640	0.290266
O260	O	-0.131789	0.499360	0.790266
C261	C	-0.603642	-0.028777	0.526149
C262	C	-0.103642	0.471223	1.026149
C263	C	-0.570527	-0.061870	0.552261
C264	C	-0.070527	0.438130	1.052261
C265	C	-0.537410	-0.094968	0.526158
C266	C	-0.037410	0.405032	1.026158
C267	C	-0.570531	-0.061870	0.604480
C268	C	-0.070531	0.438130	1.104480
C269	C	-0.603647	-0.028773	0.630584
C270	C	-0.103647	0.471227	1.130584
C271	C	-0.636759	0.004324	0.604468
C272	C	-0.136759	0.504324	1.104468
C273	C	-0.636758	0.004320	0.552252
C274	C	-0.136758	0.504320	1.052252
C275	C	-0.504298	-0.128064	0.552273
C276	C	-0.004298	0.371936	1.052273
C277	C	-0.504303	-0.128058	0.604489
C278	C	-0.004303	0.371942	1.104489
C279	C	-0.537419	-0.094961	0.630593
C280	C	-0.037419	0.405039	1.130593
H281	H	-0.412743	-0.145454	0.000021
H282	H	0.087257	0.354546	0.500021
O283	O	-0.177695	-0.194179	-0.000036
O284	O	0.322305	0.305821	0.499964
C285	C	-0.182718	-0.269674	-0.043039
C286	C	0.317282	0.230326	0.456961
C287	C	-0.161725	-0.220877	-0.043014
C288	C	0.338275	0.279123	0.456986
H289	H	-0.169823	-0.291269	-0.077788
H290	H	0.330177	0.208731	0.422212
H291	H	-0.169782	-0.291344	-0.008347
H292	H	0.330218	0.208656	0.491653
H293	H	-0.224126	-0.262516	-0.043015
H294	H	0.275874	0.237484	0.456985
H295	H	-0.120317	-0.227991	-0.043055
H296	H	0.379683	0.272009	0.456945
H297	H	-0.174699	-0.199222	-0.077703
H298	H	0.325301	0.300778	0.422297
O299	O	-0.486259	0.168309	0.000138
O300	O	0.013741	0.668309	0.500138
C301	C	-0.434515	0.218190	0.043084
C302	C	0.065485	0.718190	0.543084
C303	C	-0.483290	0.197157	0.043064
C304	C	0.016710	0.697157	0.543064
H305	H	-0.432103	0.241527	0.077780
H306	H	0.067897	0.741527	0.577780
H307	H	-0.403264	0.187182	0.043116
H308	H	0.096736	0.687182	0.543116
H309	H	-0.432083	0.241463	0.008345
H310	H	0.067917	0.741463	0.508345
H311	H	-0.485770	0.173890	0.077796
H312	H	0.014230	0.673890	0.577796
H313	H	-0.514517	0.228188	0.043006
H314	H	-0.014517	0.728188	0.543006
O315	O	0.274637	0.028671	0.000006
O316	O	0.774637	0.528671	0.500006
C317	C	0.279671	0.104174	-0.042975
C318	C	0.779671	0.604174	0.457025
C319	C	0.258666	0.055383	-0.042964
C320	C	0.758666	0.555383	0.457036
H321	H	0.266775	0.125781	-0.077718
H322	H	0.766775	0.625781	0.422282
H323	H	0.266743	0.125837	-0.008277
H324	H	0.766743	0.625837	0.491723
H325	H	0.321078	0.097007	-0.042952
H326	H	0.821078	0.597007	0.457048
H327	H	0.217259	0.062506	-0.043005
H328	H	0.717259	0.562506	0.456995
H329	H	0.271632	0.033736	-0.077660
H330	H	0.771632	0.533736	0.422340
O331	O	-0.660085	0.192218	0.000001
O332	O	-0.160085	0.692218	0.500001
C333	C	-0.735278	0.218052	-0.042978
C334	C	-0.235278	0.718052	0.457022
C335	C	-0.687050	0.183656	-0.042968
C336	C	-0.187050	0.683656	0.457032
H337	H	-0.757089	0.211149	-0.077720
H338	H	-0.257089	0.711149	0.422280
H339	H	-0.757140	0.211133	-0.008279
H340	H	-0.257140	0.711133	0.491721
H341	H	-0.727293	0.257368	-0.042958
H342	H	-0.227293	0.757368	0.457042
H343	H	-0.694992	0.144328	-0.043005
H344	H	-0.194992	0.644328	0.456995
H345	H	-0.665203	0.190618	-0.077664
H346	H	-0.165203	0.690618	0.422336
H347	H	-0.446777	0.391080	0.000011
H348	H	0.053223	0.891080	0.500011
H349	H	-0.510471	-0.121919	0.865958
H350	H	-0.010471	0.378081	1.365958
O351	O	-0.078335	-0.193105	-0.000034
O352	O	0.421665	0.306895	0.499966
C353	C	-0.014391	-0.243707	-0.043048
C354	C	0.485609	0.256293	0.456952
C355	C	-0.048824	-0.195502	-0.043012
C356	C	0.451176	0.304498	0.456988
H357	H	0.009471	-0.245665	-0.077797
H358	H	0.509471	0.254335	0.422203
H359	H	0.009556	-0.245693	-0.008356
H360	H	0.509556	0.254307	0.491644
H361	H	-0.036737	-0.275468	-0.043031
H362	H	0.463263	0.224532	0.456969
H363	H	-0.026516	-0.163713	-0.043047
H364	H	0.473484	0.336287	0.456953
H365	H	-0.072772	-0.193558	-0.077701
H366	H	0.427228	0.306442	0.422299
O367	O	-0.701290	0.482198	0.000029
O368	O	-0.201290	0.982198	0.500029
C369	C	-0.788678	0.499606	0.000067
C370	C	-0.288678	0.999606	0.500067
C371	C	-0.739885	0.520605	0.000075
C372	C	-0.239885	1.020605	0.500075
H373	H	-0.819895	0.530648	0.000115
H374	H	-0.319895	1.030648	0.500115
H375	H	-0.791165	0.476326	-0.034658
H376	H	-0.291165	0.976326	0.465342
H377	H	-0.791095	0.476292	0.034778
H378	H	-0.291095	0.976292	0.534778
H379	H	-0.737435	0.543941	-0.034612
H380	H	-0.237435	1.043941	0.465388
H381	H	-0.737419	0.543858	0.034824
H382	H	-0.237419	1.043858	0.534824
O383	O	-0.505271	-0.127217	0.130078
O384	O	-0.005271	0.372783	0.630078
C385	C	-0.476286	-0.211462	0.114114
C386	C	0.023714	0.288538	0.614114
C387	C	-0.512700	-0.175036	0.142836
C388	C	-0.012700	0.324964	0.642836
H389	H	-0.482273	-0.250132	0.124427
H390	H	0.017727	0.249868	0.624427
H391	H	-0.481976	-0.205816	0.072302
H392	H	0.018024	0.294184	0.572302
H393	H	-0.437625	-0.205400	0.124377
H394	H	0.062375	0.294600	0.624377
H395	H	-0.551377	-0.181076	0.132616
H396	H	-0.051377	0.318924	0.632616
H397	H	-0.506968	-0.180691	0.184642
H398	H	-0.006968	0.319309	0.684642
H399	H	0.202311	-0.139207	0.000047
H400	H	0.702311	0.360793	0.500047
O401	O	-0.653831	0.807281	-0.000029
O402	O	-0.153831	1.307281	0.499971
C403	C	-0.729010	0.833136	-0.043028
C404	C	-0.229010	1.333136	0.456972
C405	C	-0.680790	0.798726	-0.043004
C406	C	-0.180790	1.298726	0.456996
H407	H	-0.750815	0.826238	-0.077775
H408	H	-0.250815	1.326238	0.422225
H409	H	-0.750882	0.826224	-0.008333
H410	H	-0.250882	1.326224	0.491667
H411	H	-0.721011	0.872447	-0.043006
H412	H	-0.221011	1.372447	0.456994
H413	H	-0.688745	0.759402	-0.043044
H414	H	-0.188745	1.259402	0.456956
H415	H	-0.658932	0.805679	-0.077696
H416	H	-0.158932	1.305679	0.422304
O417	O	0.072911	-0.191564	-0.000019
O418	O	0.572911	0.308436	0.499981
C419	C	0.136880	-0.242150	-0.043014
C420	C	0.636880	0.257850	0.456986
C421	C	0.102429	-0.193957	-0.042992
C422	C	0.602429	0.306043	0.457008
H423	H	0.160747	-0.244105	-0.077759
H424	H	0.660747	0.255895	0.422241
H425	H	0.160820	-0.244120	-0.008318
H426	H	0.660820	0.255880	0.491682
H427	H	0.114548	-0.273922	-0.042995
H428	H	0.614548	0.226078	0.457005
H429	H	0.124722	-0.162158	-0.043028
H430	H	0.624722	0.337842	0.456972
H431	H	0.078487	-0.192030	-0.077685
H432	H	0.578487	0.307970	0.422315
O433	O	0.036615	0.070400	0.000111
O434	O	0.536615	0.570400	0.500111
C435	C	0.019212	0.157789	0.000103
C436	C	0.519212	0.657789	0.500103
C437	C	-0.001790	0.108997	0.000074
C438	C	0.498210	0.608997	0.500074
H439	H	-0.011829	0.189007	0.000062
H440	H	0.488171	0.689007	0.500062
H441	H	0.042490	0.160261	0.034834
H442	H	0.542490	0.660261	0.534834
H443	H	0.042528	0.160218	-0.034603
H444	H	0.542528	0.660218	0.465397
H445	H	-0.025128	0.106535	0.034756
H446	H	0.474872	0.606535	0.534756
H447	H	-0.025041	0.106546	-0.034680
H448	H	0.474959	0.606546	0.465320
O449	O	-0.668829	0.036553	0.526872
O450	O	-0.168829	0.536553	1.026872
C451	C	-0.679502	0.102773	0.468064
C452	C	-0.179502	0.602773	0.968064
C453	C	-0.643148	0.066244	0.496738
C454	C	-0.143148	0.566244	0.996738
H455	H	-0.658753	0.126794	0.443702
H456	H	-0.158753	0.626794	0.943702
H457	H	-0.703541	0.082193	0.443544
H458	H	-0.203541	0.582193	0.943544
H459	H	-0.703129	0.126398	0.495750
H460	H	-0.203129	0.626398	0.995750
H461	H	-0.619489	0.042609	0.469088
H462	H	-0.119489	0.542609	0.969088
H463	H	-0.619143	0.086854	0.521266
H464	H	-0.119143	0.586854	1.021266
O465	O	-0.635749	0.003436	0.130090
O466	O	-0.135749	0.503436	0.630090
C467	C	-0.664688	0.087711	0.114235
C468	C	-0.164688	0.587711	0.614235
C469	C	-0.628276	0.051231	0.142899
C470	C	-0.128276	0.551231	0.642899
H471	H	-0.658666	0.126361	0.124589
H472	H	-0.158666	0.626361	0.624589
H473	H	-0.659031	0.082108	0.072414
H474	H	-0.159031	0.582108	0.572414
H475	H	-0.703350	0.081666	0.124510
H476	H	-0.203350	0.581666	0.624510
H477	H	-0.589599	0.057254	0.132667
H478	H	-0.089599	0.557254	0.632667
H479	H	-0.633975	0.056843	0.184714
H480	H	-0.133975	0.556843	0.684714
O481	O	-0.062727	0.069316	0.000012
O482	O	0.437273	0.569316	0.500012
C483	C	-0.126678	0.119927	-0.042987
C484	C	0.373322	0.619927	0.457013
C485	C	-0.092244	0.071724	-0.042966
C486	C	0.407756	0.571724	0.457034
H487	H	-0.150544	0.121895	-0.077737
H488	H	0.349456	0.621895	0.422263
H489	H	-0.150621	0.121902	-0.008296
H490	H	0.349379	0.621902	0.491704
H491	H	-0.104334	0.151690	-0.042959
H492	H	0.395666	0.651690	0.457041
H493	H	-0.114549	0.039934	-0.043012
H494	H	0.385451	0.539934	0.456988
H495	H	-0.068299	0.069792	-0.077655
H496	H	0.431701	0.569792	0.422345
H497	H	-0.510457	-0.121917	0.771232
H498	H	-0.010457	0.378083	1.271232
O499	O	-0.440857	0.294661	0.000081
O500	O	0.059143	0.794661	0.500081
C501	C	-0.390242	0.230705	0.043069
C502	C	0.109758	0.730705	0.543069
C503	C	-0.438443	0.265144	0.043057
C504	C	0.061557	0.765144	0.543057
H505	H	-0.388270	0.206839	0.077817
H506	H	0.111730	0.706839	0.577817
H507	H	-0.388277	0.206763	0.008376
H508	H	0.111723	0.706763	0.508376
H509	H	-0.358477	0.253046	0.043038
H510	H	0.141523	0.753046	0.543038
H511	H	-0.470235	0.242842	0.043106
H512	H	0.029765	0.742842	0.543106
H513	H	-0.440365	0.289088	0.077747
H514	H	0.059635	0.789088	0.577747
O515	O	-0.487227	0.068945	-0.000015
O516	O	0.012773	0.568945	0.499985
C517	C	-0.412064	0.043086	-0.043030
C518	C	0.087936	0.543086	0.456970
C519	C	-0.460282	0.077498	-0.042997
C520	C	0.039718	0.577498	0.457003
H521	H	-0.390269	0.049982	-0.077783
H522	H	0.109731	0.549982	0.422217
H523	H	-0.390179	0.049997	-0.008342
H524	H	0.109821	0.549997	0.491658
H525	H	-0.420064	0.003776	-0.043005
H526	H	0.079936	0.503776	0.456995
H527	H	-0.452326	0.116821	-0.043041
H528	H	0.047674	0.616821	0.456959
H529	H	-0.482152	0.070545	-0.077683
H530	H	0.017848	0.570545	0.422317
O531	O	-0.472110	-0.160143	0.629907
O532	O	0.027890	0.339857	1.129907
C533	C	-0.405992	-0.170878	0.688836
C534	C	0.094008	0.329122	1.188836
C535	C	-0.442433	-0.134495	0.660094
C536	C	0.057567	0.365505	1.160094
H537	H	-0.381982	-0.150156	0.713241
H538	H	0.118018	0.349844	1.213241
H539	H	-0.426647	-0.194880	0.713319
H540	H	0.073353	0.305120	1.213319
H541	H	-0.382346	-0.194541	0.661194
H542	H	0.117654	0.305459	1.161194
H543	H	-0.466089	-0.110800	0.687699
H544	H	0.033911	0.389200	1.187699
H545	H	-0.421749	-0.110527	0.635603
H546	H	0.078251	0.389473	1.135603
O547	O	-0.702827	0.330962	0.000042
O548	O	-0.202827	0.830962	0.500042
C549	C	-0.790215	0.348370	0.000079
C550	C	-0.290215	0.848370	0.500079
C551	C	-0.741422	0.369369	0.000088
C552	C	-0.241422	0.869369	0.500088
H553	H	-0.821432	0.379412	0.000126
H554	H	-0.321432	0.879412	0.500126
H555	H	-0.792701	0.325090	-0.034647
H556	H	-0.292701	0.825090	0.465353
H557	H	-0.792633	0.325056	0.034789
H558	H	-0.292633	0.825056	0.534789
H559	H	-0.738972	0.392705	-0.034599
H560	H	-0.238972	0.892705	0.465401
H561	H	-0.738956	0.392622	0.034837
H562	H	-0.238956	0.892622	0.534837
H563	H	-0.654093	0.095896	0.000080
H564	H	-0.154093	0.595896	0.500080
O565	O	-0.700190	0.581569	0.000022
O566	O	-0.200190	1.081569	0.500022
C567	C	-0.738459	0.664634	0.000046
C568	C	-0.238459	1.164634	0.500046
C569	C	-0.690268	0.630180	0.000060
C570	C	-0.190268	1.130180	0.500060
H571	H	-0.730454	0.703943	0.000088
H572	H	-0.230454	1.203943	0.500088
H573	H	-0.760309	0.657760	-0.034678
H574	H	-0.260309	1.157760	0.465322
H575	H	-0.760296	0.657700	0.034758
H576	H	-0.260296	1.157700	0.534758
H577	H	-0.668393	0.637093	-0.034628
H578	H	-0.168393	1.137093	0.465372
H579	H	-0.668456	0.637061	0.034808
H580	H	-0.168456	1.137061	0.534808
O581	O	-0.479956	0.783252	0.000001
O582	O	0.020044	1.283252	0.500001
C583	C	-0.392567	0.765849	0.000018
C584	C	0.107433	1.265849	0.500018
C585	C	-0.441359	0.744847	0.000039
C586	C	0.058641	1.244847	0.500039
H587	H	-0.361349	0.734809	0.000059
H588	H	0.138651	1.234809	0.500059
H589	H	-0.390094	0.789129	-0.034710
H590	H	0.109906	1.289129	0.465290
H591	H	-0.390140	0.789164	0.034727
H592	H	0.109860	1.289164	0.534727
H593	H	-0.443820	0.721510	-0.034646
H594	H	0.056180	1.221510	0.465354
H595	H	-0.443812	0.721595	0.034790
H596	H	0.056188	1.221595	0.534790
O597	O	-0.026581	-0.192577	0.000104
O598	O	0.473419	0.307423	0.500104
C599	C	-0.076407	-0.244349	0.043080
C600	C	0.423593	0.255651	0.543080
C601	C	-0.055354	-0.195585	0.043076
C602	C	0.444646	0.304415	0.543076
H603	H	-0.099667	-0.246801	0.077824
H604	H	0.400333	0.253199	0.577824
H605	H	-0.099737	-0.246795	0.008383
H606	H	0.400263	0.253205	0.508383
H607	H	-0.045371	-0.275572	0.043051
H608	H	0.454629	0.224428	0.543051
H609	H	-0.086359	-0.164334	0.043123
H610	H	0.413641	0.335666	0.543123
H611	H	-0.032011	-0.193181	0.077770
H612	H	0.467989	0.306819	0.577770
H613	H	-0.630630	-0.001820	0.865951
H614	H	-0.130630	0.498180	1.365951
O615	O	-0.481019	0.683937	-0.000067
O616	O	0.018981	1.183937	0.499933
C617	C	-0.430439	0.619943	-0.043033
C618	C	0.069561	1.119943	0.456967
C619	C	-0.478654	0.654360	-0.042998
C620	C	0.021346	1.154360	0.457002
H621	H	-0.428516	0.596014	-0.077734
H622	H	0.071484	1.096014	0.422266
H623	H	-0.398650	0.642253	-0.043067
H624	H	0.101350	1.142253	0.456933
H625	H	-0.428472	0.596058	-0.008299
H626	H	0.071528	1.096058	0.491701
H627	H	-0.480668	0.678252	-0.077726
H628	H	0.019332	1.178252	0.422274
H629	H	-0.510420	0.632020	-0.042938
H630	H	-0.010420	1.132020	0.457062
O631	O	-0.438238	0.545254	-0.000012
O632	O	0.061762	1.045254	0.499988
C633	C	-0.350850	0.527850	-0.000002
C634	C	0.149150	1.027850	0.499998
C635	C	-0.399642	0.506848	0.000028
C636	C	0.100358	1.006848	0.500028
H637	H	-0.319632	0.496810	0.000041
H638	H	0.180368	0.996810	0.500041
H639	H	-0.348379	0.551126	-0.034732
H640	H	0.151621	1.051126	0.465268
H641	H	-0.348420	0.551169	0.034705
H642	H	0.151580	1.051169	0.534705
H643	H	-0.402105	0.483508	-0.034655
H644	H	0.097895	0.983508	0.465345
H645	H	-0.402092	0.483600	0.034781
H646	H	0.097908	0.983600	0.534781
O647	O	-0.439304	0.445940	-0.000068
O648	O	0.060696	0.945940	0.499932
C649	C	-0.388725	0.381941	-0.043028
C650	C	0.111275	0.881941	0.456972
C651	C	-0.436939	0.416359	-0.042996
C652	C	0.063061	0.916359	0.457004
H653	H	-0.386801	0.358009	-0.077726
H654	H	0.113199	0.858009	0.422274
H655	H	-0.356935	0.404251	-0.043064
H656	H	0.143065	0.904251	0.456936
H657	H	-0.386759	0.358060	-0.008291
H658	H	0.113241	0.858060	0.491709
H659	H	-0.438952	0.440248	-0.077727
H660	H	0.061048	0.940248	0.422273
H661	H	-0.468706	0.394020	-0.042934
H662	H	0.031294	0.894020	0.457066
H663	H	-0.321291	-0.144530	0.000035
H664	H	0.178709	0.355470	0.500035
O665	O	-0.472110	-0.160265	0.526998
O666	O	0.027890	0.339735	1.026998
C667	C	-0.406403	-0.225905	0.532533
C668	C	0.093597	0.274095	1.032533
C669	C	-0.442837	-0.189467	0.561216
C670	C	0.057163	0.310533	1.061216
H671	H	-0.382719	-0.249518	0.560186
H672	H	0.117281	0.250482	1.060186
H673	H	-0.427063	-0.249947	0.508101
H674	H	0.072937	0.250053	1.008101
H675	H	-0.382430	-0.205199	0.508072
H676	H	0.117570	0.294801	1.008072
H677	H	-0.466819	-0.210134	0.585705
H678	H	0.033181	0.289866	1.085705
H679	H	-0.422146	-0.165425	0.585617
H680	H	0.077854	0.334575	1.085617
O681	O	-0.635735	0.003403	0.232996
O682	O	-0.135735	0.503403	0.732996
C683	C	-0.646534	0.069481	0.291965
C684	C	-0.146534	0.569481	0.791965
C685	C	-0.610119	0.033049	0.263252
C686	C	-0.110119	0.533049	0.763252
H687	H	-0.625838	0.093452	0.316441
H688	H	-0.125838	0.593452	0.816441
H689	H	-0.670194	0.093165	0.264348
H690	H	-0.170194	0.593165	0.764348
H691	H	-0.670535	0.048768	0.316388
H692	H	-0.170535	0.548768	0.816388
H693	H	-0.586087	0.053722	0.238828
H694	H	-0.086087	0.553722	0.738828
H695	H	-0.586493	0.009365	0.290895
H696	H	-0.086493	0.509365	0.790895
O697	O	-0.668873	0.036586	0.370333
O698	O	-0.168873	0.536586	0.870333
C699	C	-0.697762	0.120898	0.354614
C700	C	-0.197762	0.620898	0.854614
C701	C	-0.661353	0.084353	0.383204
C702	C	-0.161353	0.584353	0.883204
H703	H	-0.691701	0.159525	0.365018
H704	H	-0.191701	0.659525	0.865018
H705	H	-0.692141	0.115350	0.312781
H706	H	-0.192141	0.615350	0.812781
H707	H	-0.736425	0.114868	0.364904
H708	H	-0.236425	0.614868	0.864904
H709	H	-0.622675	0.090360	0.372956
H710	H	-0.122675	0.590360	0.872956
H711	H	-0.667016	0.089910	0.425030
H712	H	-0.167016	0.589910	0.925030
O713	O	-0.668948	0.036398	0.473227
O714	O	-0.168948	0.536398	0.973227
C715	C	-0.735074	0.047145	0.532137
C716	C	-0.235074	0.547145	1.032137
C717	C	-0.698629	0.010755	0.503409
C718	C	-0.198629	0.510755	1.003409
H719	H	-0.759088	0.026426	0.556539
H720	H	-0.259088	0.526426	1.056539
H721	H	-0.714422	0.071149	0.556623
H722	H	-0.214422	0.571149	1.056623
H723	H	-0.758715	0.070803	0.504486
H724	H	-0.258715	0.570803	1.004486
H725	H	-0.674978	-0.012935	0.531024
H726	H	-0.174978	0.487065	1.031024
H727	H	-0.719311	-0.013216	0.478916
H728	H	-0.219311	0.486784	0.978916
H729	H	0.293777	-0.138273	0.000051
H730	H	0.793777	0.361727	0.500051
O731	O	-0.635850	0.003426	0.767182
O732	O	-0.135850	0.503426	1.267182
C733	C	-0.701563	0.069062	0.772696
C734	C	-0.201563	0.569062	1.272696
C735	C	-0.665130	0.032630	0.801391
C736	C	-0.165130	0.532630	1.301391
H737	H	-0.725252	0.092676	0.800342
H738	H	-0.225252	0.592676	1.300342
H739	H	-0.680901	0.093104	0.748267
H740	H	-0.180901	0.593104	1.248267
H741	H	-0.725530	0.048351	0.748230
H742	H	-0.225530	0.548351	1.248230
H743	H	-0.641153	0.053302	0.825884
H744	H	-0.141153	0.553302	1.325884
H745	H	-0.685822	0.008589	0.825789
H746	H	-0.185822	0.508589	1.325789
H747	H	-0.510433	-0.121951	0.228896
H748	H	-0.010433	0.378049	0.728896
O749	O	-0.472091	-0.160267	0.370335
O750	O	0.027909	0.339733	0.870335
C751	C	-0.406376	-0.225901	0.375862
C752	C	0.093624	0.274099	0.875862
C753	C	-0.442813	-0.189469	0.404550
C754	C	0.057187	0.310531	0.904550
H755	H	-0.382689	-0.249513	0.403513
H756	H	0.117311	0.250487	0.903513
H757	H	-0.427035	-0.249944	0.351428
H758	H	0.072965	0.250056	0.851428
H759	H	-0.382407	-0.205189	0.351402
H760	H	0.117593	0.294811	0.851402
H761	H	-0.466791	-0.210141	0.429038
H762	H	0.033209	0.289859	0.929038
H763	H	-0.422124	-0.165426	0.428952
H764	H	0.077876	0.334574	0.928952
O765	O	-0.668861	0.036523	0.629854
O766	O	-0.168861	0.536523	1.129854
C767	C	-0.679635	0.102588	0.688839
C768	C	-0.179635	0.602588	1.188839
C769	C	-0.643232	0.066158	0.660109
C770	C	-0.143232	0.566158	1.160109
H771	H	-0.658928	0.126551	0.713315
H772	H	-0.158928	0.626551	1.213315
H773	H	-0.703299	0.126282	0.661233
H774	H	-0.203299	0.626282	1.161233
H775	H	-0.703632	0.081874	0.713265
H776	H	-0.203632	0.581874	1.213265
H777	H	-0.619203	0.086832	0.635682
H778	H	-0.119203	0.586832	1.135682
H779	H	-0.619602	0.042465	0.687741
H780	H	-0.119602	0.542465	1.187741
H781	H	-0.117558	0.061861	0.000088
H782	H	0.382442	0.561861	0.500088
H783	H	0.180236	0.020747	0.000077
H784	H	0.680236	0.520747	0.500077
H785	H	-0.209009	0.060929	0.000089
H786	H	0.290991	0.560929	0.500089
H787	H	-0.434827	0.014492	0.000047
H788	H	0.065173	0.514492	0.500047
O789	O	-0.340327	0.022378	-0.000034
O790	O	0.159673	0.522378	0.499966
C791	C	-0.290442	0.074116	-0.042978
C792	C	0.209558	0.574116	0.457022
C793	C	-0.311481	0.025343	-0.042960
C794	C	0.188519	0.525343	0.457040
H795	H	-0.267108	0.076525	-0.077674
H796	H	0.232892	0.576525	0.422326
H797	H	-0.321448	0.105369	-0.043008
H798	H	0.178552	0.605369	0.456992
H799	H	-0.267167	0.076546	-0.008239
H800	H	0.232833	0.576546	0.491761
H801	H	-0.334750	0.022865	-0.077693
H802	H	0.165250	0.522865	0.422307
H803	H	-0.280452	-0.005887	-0.042903
H804	H	0.219548	0.494113	0.457097
H805	H	-0.694889	0.425336	0.000056
H806	H	-0.194889	0.925336	0.500056
H807	H	-0.647846	0.710950	0.000047
H808	H	-0.147846	1.210950	0.500047
H809	H	-0.477317	-0.155019	0.469089
H810	H	0.022683	0.344981	0.969089
