data_functionalizedCrystal
_audit_creation_method	'MofGen! by Chris Wilmer'
_symmetry_space_group_name_H-M	'P1'
_symmetry_Int_Tables_number	1
_symmetry_cell_setting	triclinic
loop_
_symmetry_equiv_pos_as_xyz
  x,y,z
_cell_length_a	15.995343
_cell_length_b	15.995292
_cell_length_c	12.376457
_cell_angle_alpha	101.276936
_cell_angle_beta	78.711345
_cell_angle_gamma	83.478900
loop_
_atom_site_label
_atom_site_type_symbol
_atom_site_fract_x
_atom_site_fract_y
_atom_site_fract_z
O1	O	1.127007	0.091870	-0.093883
O2	O	0.883233	0.105200	-0.093909
O3	O	1.011809	-0.023357	-0.093897
O4	O	0.998431	0.220426	-0.093895
O5	O	0.979677	0.008739	0.094112
O6	O	0.851100	0.137295	0.094100
O7	O	1.094874	0.123965	0.094126
Zn8	Zn	0.967885	0.135726	0.123964
Zn9	Zn	1.010222	0.093439	-0.123747
O10	O	0.966298	0.252521	0.094114
C11	C	0.995199	-0.038505	0.000105
C12	C	0.993568	-0.131459	0.000096
C13	C	0.835972	0.120697	0.000092
C14	C	0.743024	0.119046	0.000082
C15	C	0.987565	-0.469196	0.000106
C16	C	1.080296	-0.445813	0.000536
C17	C	1.082133	-0.349210	0.000108
C18	C	0.990544	-0.301641	0.000101
C19	C	0.962495	-0.349069	-0.107262
C20	C	0.961393	-0.445874	-0.107348
C21	C	0.922957	-0.409233	0.106453
C22	C	0.926154	-0.312499	0.107868
C23	C	0.992223	-0.206946	0.000095
C24	C	0.985885	-0.563892	0.000104
C25	C	0.572835	0.116055	0.000097
C26	C	0.549509	0.023255	0.000096
C27	C	0.452757	0.021583	0.000529
C28	C	0.405274	0.113108	0.000110
C29	C	0.416042	0.178061	0.107260
C30	C	0.512820	0.179176	0.107343
C31	C	0.549273	0.144035	-0.106466
C32	C	0.453018	0.140370	-0.107868
C33	C	0.310574	0.111449	0.000122
C34	C	0.667533	0.117718	0.000093
C35	C	1.142135	0.108467	0.000123
C36	C	1.235085	0.110117	0.000125
C37	C	0.982909	0.267669	0.000110
C38	C	0.984541	0.360622	0.000111
N39	N	0.938998	0.164585	0.293019
N40	N	1.039116	0.064573	-0.292802
C41	C	1.106172	-0.002435	0.648020
C42	C	1.126386	-0.022634	0.529682
C43	C	1.079540	0.024169	0.470510
C44	C	1.012478	0.091174	0.529688
C45	C	0.992267	0.111380	0.648038
C46	C	0.965635	0.137984	0.470529
C47	C	0.898573	0.204989	0.529707
C48	C	0.878365	0.225190	0.648045
C49	C	0.925211	0.178388	0.707216
C50	C	0.985847	0.117778	0.352179
C51	C	0.871942	0.231593	0.352197
C52	C	0.851728	0.251792	0.470535
H53	H	1.102908	-0.460667	0.077531
O54	O	0.598495	-0.035415	-0.091519
C55	C	0.576041	-0.117850	-0.088988
H56	H	0.507823	-0.110641	-0.035632
H57	H	0.623276	-0.155015	-0.050559
C58	C	0.663644	-0.176285	-0.275744
C59	C	0.579854	-0.167431	-0.210219
H60	H	0.666000	-0.206872	-0.350525
H61	H	0.678775	-0.120748	-0.277449
H62	H	0.702997	-0.207254	-0.243707
H63	H	0.540504	-0.136454	-0.242248
H64	H	0.564717	-0.222964	-0.208523
H65	H	0.833797	0.269706	0.304021
H66	H	0.591434	0.100888	-0.187707
O67	O	1.099257	0.004409	0.355558
C68	C	1.168505	-0.064753	0.316014
H69	H	1.171481	-0.102980	0.384214
H70	H	1.231580	-0.038414	0.295001
C71	C	1.151266	-0.077294	0.125310
C72	C	1.154917	-0.124249	0.209071
H73	H	1.142888	-0.113993	0.059340
H74	H	1.104615	-0.030696	0.151950
H75	H	1.203830	-0.055348	0.107813
H76	H	1.102350	-0.146186	0.226576
H77	H	1.201560	-0.170853	0.182431
O78	O	1.138229	-0.496060	-0.090881
C79	C	1.095328	-0.552301	-0.155203
H80	H	1.023983	-0.524047	-0.136953
H81	H	1.102314	-0.617791	-0.131704
C82	C	1.223028	-0.598137	-0.304276
C83	C	1.135402	-0.563432	-0.281869
H84	H	1.247749	-0.605007	-0.382410
H85	H	1.251933	-0.560249	-0.260940
H86	H	1.228838	-0.652709	-0.284685
H87	H	1.129594	-0.508857	-0.301446
H88	H	1.106497	-0.601311	-0.325212
H89	H	0.895780	-0.317882	-0.111259
H90	H	0.823766	0.279756	0.696227
O91	O	0.845033	-0.271868	0.115798
C92	C	0.789501	-0.283295	0.213520
H93	H	0.829010	-0.297793	0.276865
H94	H	0.753759	-0.339456	0.189714
C95	C	0.675228	-0.182523	0.189055
C96	C	0.723753	-0.200323	0.266860
H97	H	0.634669	-0.131344	0.221956
H98	H	0.712639	-0.174826	0.123216
H99	H	0.645451	-0.229330	0.169224
H100	H	0.753538	-0.153522	0.286680
H101	H	0.686346	-0.208010	0.332705
O102	O	1.015969	-0.494254	-0.203159
C103	C	0.969470	-0.546686	-0.266711
H104	H	0.898345	-0.516822	-0.242886
H105	H	0.976539	-0.613825	-0.247993
C106	C	1.092563	-0.590288	-0.422861
C107	C	1.005207	-0.553604	-0.393606
H108	H	1.114609	-0.594559	-0.501136
H109	H	1.123892	-0.554966	-0.380044
H110	H	1.098442	-0.646234	-0.407254
H111	H	0.999330	-0.497656	-0.409199
H112	H	0.973878	-0.588917	-0.436428
H113	H	0.448016	0.092857	-0.187138
H114	H	0.854523	-0.423099	0.107171
H115	H	1.040449	0.063223	0.304007
H116	H	0.894180	-0.461254	-0.112217
O117	O	1.017326	-0.341369	-0.202468
C118	C	1.081060	-0.293137	-0.172394
H119	H	1.087578	-0.297061	-0.083361
H120	H	1.061673	-0.222863	-0.175011
C121	C	1.160061	-0.325259	-0.365630
C122	C	1.168071	-0.330085	-0.256281
H123	H	1.213733	-0.348046	-0.417377
H124	H	1.117120	-0.357751	-0.385893
H125	H	1.143902	-0.266695	-0.367794
H126	H	1.184220	-0.388648	-0.254115
H127	H	1.211017	-0.297603	-0.236020
H128	H	0.446870	-0.028053	-0.076264
O129	O	0.786534	0.316788	0.528153
C130	C	0.723196	0.283593	0.596593
H131	H	0.753538	0.221113	0.614308
H132	H	0.669103	0.270086	0.550998
C133	C	0.648828	0.426715	0.687257
C134	C	0.686096	0.349980	0.709023
H135	H	0.625940	0.467667	0.756608
H136	H	0.691498	0.449080	0.641145
H137	H	0.603756	0.415448	0.649258
H138	H	0.731175	0.361246	0.747009
H139	H	0.643433	0.327618	0.755145
H140	H	0.565388	0.000968	0.076819
H141	H	0.938274	-0.423430	0.187834
H142	H	1.180987	-0.077188	0.481503
H143	H	0.525872	0.160964	0.187743
O144	O	1.109912	-0.310919	0.091859
C145	C	1.193578	-0.352105	0.087798
H146	H	1.226181	-0.385546	-0.003288
H147	H	1.189092	-0.402009	0.142187
C148	C	1.206944	-0.243434	0.244806
C149	C	1.246991	-0.284501	0.132932
H150	H	1.239891	-0.201735	0.272651
H151	H	1.150575	-0.215688	0.247546
H152	H	1.203208	-0.285029	0.290116
H153	H	1.250716	-0.242908	0.087621
H154	H	1.303361	-0.312238	0.130186
O155	O	0.415010	-0.006192	0.092575
C156	C	0.381243	-0.082004	0.057156
H157	H	0.416563	-0.114841	-0.033130
H158	H	0.309499	-0.064766	0.060506
C159	C	0.350184	-0.103416	0.246792
C160	C	0.393568	-0.143750	0.135905
H161	H	0.357782	-0.141503	0.295370
H162	H	0.372929	-0.052338	0.270656
H163	H	0.290400	-0.089053	0.249568
H164	H	0.453352	-0.158103	0.133128
H165	H	0.370833	-0.194832	0.112042
H166	H	0.946364	-0.280375	0.187295
H167	H	0.526597	0.248010	0.111925
H168	H	0.383553	0.246102	0.110944
O169	O	0.375805	0.155996	0.202643
C170	C	0.337814	0.081957	0.172887
H171	H	0.372122	0.044853	0.083925
H172	H	0.266645	0.102214	0.175487
C173	C	0.303967	0.069411	0.366308
C174	C	0.346110	0.023835	0.257047
H175	H	0.309081	0.033560	0.418224
H176	H	0.329559	0.119294	0.386357
H177	H	0.244663	0.086289	0.368459
H178	H	0.405414	0.006967	0.254895
H179	H	0.320528	-0.026053	0.237000
O180	O	0.415011	0.218756	-0.115774
C181	C	0.344049	0.250796	-0.023440
H182	H	0.352942	0.219086	0.049272
H183	H	0.282134	0.235529	-0.050019
C184	C	0.327237	0.388197	-0.074202
C185	C	0.338163	0.349257	0.015107
H186	H	0.323603	0.448933	-0.050426
H187	H	0.375043	0.366611	-0.136412
H188	H	0.275642	0.375466	-0.096343
H189	H	0.389763	0.361979	0.037237
H190	H	0.290365	0.370848	0.077322
O191	O	0.566286	0.225296	-0.107575
C192	C	0.599278	0.256781	-0.012517
H193	H	0.628509	0.200163	0.018710
H194	H	0.544837	0.298382	0.057518
C195	C	0.633469	0.380997	-0.083821
C196	C	0.669377	0.311458	-0.045474
H197	H	0.676707	0.414728	-0.104148
H198	H	0.611239	0.359787	-0.147862
H199	H	0.588102	0.415655	-0.025452
H200	H	0.714735	0.276796	-0.103848
H201	H	0.691617	0.332663	0.018556
O202	O	1.141543	-0.342896	-0.091742
C203	C	1.205120	-0.296973	-0.056016
H204	H	1.206888	-0.301422	0.034344
H205	H	1.189048	-0.226385	-0.059431
C206	C	1.291721	-0.330689	-0.245417
C207	C	1.293897	-0.336160	-0.134439
H208	H	1.346483	-0.354858	-0.293794
H209	H	1.248887	-0.361625	-0.269488
H210	H	1.278324	-0.271863	-0.248247
H211	H	1.307283	-0.394985	-0.131608
H212	H	1.336736	-0.305234	-0.110369
O213	O	1.151563	-0.047829	0.705673
C214	C	1.119359	-0.015609	0.822813
H215	H	1.050022	0.018406	0.838980
H216	H	1.161001	0.032153	0.856384
C217	C	1.206755	-0.132656	0.863728
C218	C	1.121591	-0.090885	0.883585
H219	H	1.208134	-0.179088	0.901216
H220	H	1.228453	-0.154362	0.784808
H221	H	1.241446	-0.092846	0.891703
H222	H	1.086903	-0.130692	0.855597
H223	H	1.099886	-0.069186	0.962501
O224	O	0.905567	0.198166	0.822173
C225	C	0.915830	0.284401	0.861714
H226	H	0.910309	0.322085	0.793518
H227	H	0.982017	0.285816	0.882709
C228	C	0.851872	0.279497	1.052425
C229	C	0.845083	0.325784	0.968669
H230	H	0.808235	0.305024	1.118403
H231	H	0.844960	0.221398	1.025787
H232	H	0.907031	0.280680	1.069907
H233	H	0.789929	0.324591	0.951178
H234	H	0.851984	0.383884	0.995306
