data_functionalizedCrystal
_audit_creation_method	'MofGen! by Chris Wilmer'
_symmetry_space_group_name_H-M	'P1'
_symmetry_Int_Tables_number	1
_symmetry_cell_setting	triclinic
loop_
_symmetry_equiv_pos_as_xyz
  x,y,z
_cell_length_a	15.995292
_cell_length_b	15.995280
_cell_length_c	15.072220
_cell_angle_alpha	90.013217
_cell_angle_beta	90.002061
_cell_angle_gamma	96.533893
loop_
_atom_site_label
_atom_site_type_symbol
_atom_site_fract_x
_atom_site_fract_y
_atom_site_fract_z
O1	O	0.107643	-1.111010	-0.073791
O2	O	0.607643	-0.611010	0.426209
O3	O	0.121033	-0.867224	-0.073789
O4	O	0.621033	-0.367224	0.426211
O5	O	-0.007555	-0.995807	-0.073791
O6	O	0.492445	-0.495807	0.426209
O7	O	0.236231	-0.982428	-0.073788
O8	O	0.736231	-0.482428	0.426212
O9	O	-0.007548	-0.995775	0.073774
O10	O	0.492452	-0.495775	0.573774
O11	O	0.121040	-0.867192	0.073777
O12	O	0.621040	-0.367192	0.573777
O13	O	0.107650	-1.110978	0.073774
O14	O	0.607650	-0.610978	0.573774
Zn15	Zn	0.114346	-0.989080	0.097205
Zn16	Zn	0.614346	-0.489080	0.597205
Zn17	Zn	0.114337	-0.989122	-0.097219
Zn18	Zn	0.614337	-0.489122	0.402781
O19	O	0.236238	-0.982396	0.073777
O20	O	0.736238	-0.482396	0.573777
C21	C	0.120493	-0.836013	-0.000006
C22	C	0.620493	-0.336013	0.499994
C23	C	0.118865	-0.743059	-0.000005
C24	C	0.618865	-0.243059	0.499995
C25	C	0.112878	-0.405320	-0.000018
C26	C	0.612878	0.094680	0.499982
C27	C	0.205684	-0.428613	-0.000346
C28	C	0.705684	0.071387	0.499654
C29	C	0.207444	-0.525289	-0.000009
C30	C	0.707444	-0.025289	0.499991
C31	C	0.115849	-0.572876	-0.000012
C32	C	0.615849	-0.072876	0.499988
C33	C	0.069455	-0.543766	0.084251
C34	C	0.569455	-0.043766	0.584251
C35	C	0.068342	-0.446975	0.084317
C36	C	0.568342	0.053025	0.584317
C37	C	0.066439	-0.447156	-0.083492
C38	C	0.566439	0.052844	0.416508
C39	C	0.069874	-0.543649	-0.084601
C40	C	0.569874	-0.043649	0.415399
C41	C	0.117523	-0.667573	-0.000006
C42	C	0.617523	-0.167573	0.499994
C43	C	0.111202	-0.310624	-0.000019
C44	C	0.611202	0.189376	0.499981
C45	C	-0.038747	-0.995246	-0.000011
C46	C	0.461253	-0.495246	0.499989
C47	C	-0.131699	-0.993614	-0.000017
C48	C	0.368301	-0.493614	0.499983
C49	C	-0.469436	-0.987612	-0.000009
C50	C	0.030564	-0.487612	0.499991
C51	C	-0.446147	-1.080420	0.000320
C52	C	0.053853	-0.580420	0.500320
C53	C	-0.349472	-1.082184	-0.000016
C54	C	0.150528	-0.582184	0.499984
C55	C	-0.301881	-0.990590	-0.000013
C56	C	0.198119	-0.490590	0.499987
C57	C	-0.330974	-0.944209	-0.084277
C58	C	0.169026	-0.444209	0.415723
C59	C	-0.427765	-0.943092	-0.084344
C60	C	0.072235	-0.443092	0.415656
C61	C	-0.427613	-0.941160	0.083465
C62	C	0.072387	-0.441160	0.583465
C63	C	-0.331121	-0.944599	0.084576
C64	C	0.168879	-0.444599	0.584576
C65	C	-0.207185	-0.992268	-0.000018
C66	C	0.292815	-0.492268	0.499982
C67	C	-0.564131	-0.985931	-0.000010
C68	C	-0.064131	-0.485931	0.499990
C69	C	0.267430	-0.982956	-0.000005
C70	C	0.767430	-0.482956	0.499995
C71	C	0.360382	-0.984589	-0.000005
C72	C	0.860382	-0.484589	0.499995
N73	N	0.114352	-0.989058	0.229893
N74	N	0.614352	-0.489058	0.729893
C75	C	0.108201	-0.142188	-0.000013
C76	C	0.608201	0.357812	0.499987
C77	C	0.109862	-0.235137	-0.000025
C78	C	0.609862	0.264863	0.499975
N79	N	0.114324	-0.989151	-0.229908
N80	N	0.614324	-0.489151	0.270092
C81	C	0.114333	-0.989120	0.589095
C82	C	0.614333	-0.489120	1.089095
C83	C	0.182907	-0.920088	0.551489
C84	C	0.682907	-0.420088	1.051489
C85	C	0.183158	-0.920246	0.448664
C86	C	0.683158	-0.420246	0.948664
C87	C	0.114343	-0.989089	0.410891
C88	C	0.614343	-0.489089	0.910891
C89	C	0.133403	-1.076452	0.448182
C90	C	0.633403	-0.576452	0.948182
C91	C	0.133890	-1.076066	0.551039
C92	C	0.633890	-0.576066	1.051039
C93	C	0.026496	-0.971569	0.551194
C94	C	0.526496	-0.471569	1.051194
C95	C	0.027082	-0.969564	0.448331
C96	C	0.527082	-0.469564	0.948331
C97	C	0.114346	-0.989076	0.310177
C98	C	0.614346	-0.489076	0.810177
C99	C	0.114332	-0.989139	0.689808
C100	C	0.614332	-0.489139	1.189808
H101	H	0.095445	-0.418837	-0.147360
H102	H	0.595445	0.081163	0.352640
Cl103	Cl	0.263882	-0.553678	0.093414
Cl104	Cl	0.763882	-0.053678	0.593414
H105	H	0.171742	-0.854938	0.576251
H106	H	0.671742	-0.354938	1.076251
Cl107	Cl	-0.302458	-0.996733	0.180824
Cl108	Cl	0.197542	-0.496733	0.680824
Cl109	Cl	-0.039029	-0.425579	-0.084375
Cl110	Cl	0.460971	0.074421	0.415625
H111	H	0.103653	-0.562225	-0.146939
H112	H	0.603653	-0.062225	0.353061
H113	H	0.084785	-1.129048	0.423712
H114	H	0.584785	-0.629048	0.923712
H115	H	-0.455706	-0.970374	0.147337
H116	H	0.044294	-0.470374	0.647337
Cl117	Cl	0.260917	-0.385397	-0.093645
Cl118	Cl	0.760917	0.114603	0.406355
H119	H	-0.442298	-0.875045	-0.088159
H120	H	0.057702	-0.375045	0.411841
Cl121	Cl	-0.489381	-1.135635	0.093618
Cl122	Cl	0.010619	-0.635635	0.593618
H123	H	-0.298135	-0.877744	0.089667
H124	H	0.201865	-0.377744	0.589667
H125	H	-0.330453	-1.118509	0.060386
H126	H	0.169547	-0.618509	0.560386
H127	H	-0.441586	-0.872847	0.084035
H128	H	0.058414	-0.372847	0.584035
Cl129	Cl	0.260618	-0.383779	0.092426
Cl130	Cl	0.760618	0.116221	0.592426
H131	H	0.003019	-0.576634	-0.089693
H132	H	0.503019	-0.076634	0.410307
H133	H	0.012617	-0.905298	0.423959
H134	H	0.512617	-0.405298	0.923959
H135	H	-0.475177	-1.116006	-0.059771
H136	H	0.024823	-0.616006	0.440229
H137	H	0.100481	-0.420138	0.147308
H138	H	0.600481	0.079862	0.647308
H139	H	-0.310925	-0.976443	-0.146987
H140	H	0.189075	-0.476443	0.353013
H141	H	-0.331080	-1.118750	-0.060526
H142	H	0.168920	-0.618750	0.439474
Cl143	Cl	0.282984	-0.937159	0.591362
Cl144	Cl	0.782984	-0.437159	1.091362
Cl145	Cl	-0.281744	-0.840150	-0.089119
Cl146	Cl	0.218256	-0.340150	0.410881
H147	H	-0.454592	-0.975240	-0.147335
H148	H	0.045408	-0.475240	0.352665
H149	H	0.171805	-0.855306	0.423453
H150	H	0.671805	-0.355306	0.923453
H151	H	0.000297	-0.432438	0.088142
H152	H	0.500297	0.067562	0.588142
Cl153	Cl	0.283805	-0.937514	0.410656
Cl154	Cl	0.783805	-0.437514	0.910656
H155	H	0.197949	-1.091535	0.575022
H156	H	0.697949	-0.591535	1.075022
H157	H	0.101679	-0.563805	0.146962
H158	H	0.601679	-0.063805	0.646962
H159	H	0.085912	-1.129038	0.575913
H160	H	0.585912	-0.629038	1.075913
H161	H	0.196731	-1.092292	0.422413
H162	H	0.696731	-0.592292	0.922413
Cl163	Cl	-0.001793	-0.875332	0.591290
Cl164	Cl	0.498207	-0.375332	1.091290
H165	H	0.243773	-0.544321	-0.060414
H166	H	0.743773	-0.044321	0.439586
Cl167	Cl	-0.055394	-1.042161	0.408652
Cl168	Cl	0.444606	-0.542161	0.908652
Cl169	Cl	-0.034612	-0.592979	0.089084
Cl170	Cl	0.465388	-0.092979	0.589084
Cl171	Cl	-0.052291	-1.049292	0.588739
Cl172	Cl	0.447709	-0.549292	1.088739
