data_functionalizedCrystal
_audit_creation_method	'MofGen! by Chris Wilmer'
_symmetry_space_group_name_H-M	'P1'
_symmetry_Int_Tables_number	1
_symmetry_cell_setting	triclinic
loop_
_symmetry_equiv_pos_as_xyz
  x,y,z
_cell_length_a	12.645330
_cell_length_b	21.395362
_cell_length_c	12.645324
_cell_angle_alpha	89.953742
_cell_angle_beta	90.031766
_cell_angle_gamma	89.964044
loop_
_atom_site_label
_atom_site_type_symbol
_atom_site_fract_x
_atom_site_fract_y
_atom_site_fract_z
Zn1	Zn	-0.421442	-0.957905	0.600106
Zn2	Zn	-0.598751	-0.957835	0.422846
Zn3	Zn	-0.421559	-0.853123	0.422778
Zn4	Zn	-0.598720	-0.853113	0.599989
O5	O	-0.510118	-0.905494	0.511429
O6	O	-0.444926	-1.045574	0.576669
O7	O	-0.575308	-0.943919	0.274489
O8	O	-0.273196	-0.867057	0.446321
O9	O	-0.575195	-1.045522	0.446437
O10	O	-0.273110	-0.944039	0.576603
O11	O	-0.445125	-0.866988	0.274439
O12	O	-0.445096	-0.765444	0.446208
O13	O	-0.575142	-0.867039	0.748352
O14	O	-0.575255	-0.765437	0.576404
O15	O	-0.444896	-0.944030	0.748437
O16	O	-0.747094	-0.943909	0.446324
O17	O	-0.747072	-0.866971	0.576470
C18	C	-0.510186	-0.742706	0.511287
C19	C	-0.510240	-0.673065	0.511251
C20	C	-0.578106	-0.640365	0.578939
C21	C	-0.578085	-0.574929	0.578978
C22	C	-0.510208	-0.542197	0.511311
C23	C	-0.442329	-0.574905	0.443618
C24	C	-0.442345	-0.640340	0.443588
C25	C	-0.501708	-0.438473	0.415862
C26	C	-0.501700	-0.373040	0.415890
C27	C	-0.510153	-0.340376	0.511403
C28	C	-0.518638	-0.373154	0.606891
C29	C	-0.518654	-0.438588	0.606862
C30	C	-0.510183	-0.471245	0.511336
C31	C	-0.578000	-0.236723	0.579139
C32	C	-0.577971	-0.171286	0.579180
C33	C	-0.442221	-0.171264	0.443811
C34	C	-0.442244	-0.236699	0.443779
C35	C	-0.510139	-0.269425	0.511442
C36	C	-0.785548	-0.905448	0.511415
C37	C	-0.903378	-0.905486	0.511444
C38	C	-1.070971	-0.857284	0.593572
C39	C	-0.948412	-0.857037	0.593307
C40	C	-0.947995	-0.887610	0.399709
C41	C	-1.070593	-0.887316	0.400208
C42	C	-1.070428	-0.971860	0.540144
C43	C	-0.947821	-0.971453	0.542587
C44	C	-0.233613	-0.905557	0.511468
C45	C	-0.115783	-0.905584	0.511484
C46	C	-0.510003	-0.905541	0.787935
C47	C	-0.509954	-0.905561	0.905765
C48	C	-0.510069	-0.068917	0.511543
C49	C	-0.510093	-0.138559	0.511514
C50	C	-0.510156	-0.905483	0.236000
C51	C	-0.509907	-0.905585	0.118170
C52	C	-0.428253	-0.954184	1.073383
C53	C	-0.427958	-0.954028	0.950823
C54	C	-0.479631	-0.839553	0.950198
C55	C	-0.479011	-0.839849	1.072796
C56	C	-0.622096	-0.922410	1.072975
C57	C	-0.621531	-0.923854	0.950370
H58	H	-0.494819	-0.465062	0.338078
Cl59	Cl	-0.356993	-0.533757	0.358556
H60	H	-0.494798	-0.346357	0.338137
H61	H	-0.633234	-0.144663	0.634306
Cl62	Cl	-0.903312	-0.781177	0.563990
H63	H	-1.100240	-0.920969	0.336958
Cl64	Cl	-0.356924	-0.277811	0.358678
H65	H	-1.099314	-0.838868	0.375934
H66	H	-0.345604	-0.943187	1.104199
H67	H	-1.099404	-1.007845	0.480357
Cl68	Cl	-0.356882	-0.130121	0.358749
Cl69	Cl	-0.902790	-0.992270	0.669545
Cl70	Cl	-1.118017	-0.997036	0.663805
Cl71	Cl	-0.664680	-0.995454	1.120776
Cl72	Cl	-0.352412	-0.817800	1.116957
Cl73	Cl	-0.720513	-0.873171	0.903023
H74	H	-0.398538	-0.825030	0.919492
Cl75	Cl	-0.656834	-0.998854	0.905548
H76	H	-0.918826	-0.921674	0.336874
H77	H	-0.387076	-0.666964	0.388469
H78	H	-0.535898	-0.802406	1.102418
Cl79	Cl	-0.457187	-1.030006	1.118975
H80	H	-0.917157	-1.009334	0.487156
H81	H	-0.446944	-1.002974	0.920786
Cl82	Cl	-0.716026	-0.867758	1.117682
Cl83	Cl	-0.299645	-0.936828	0.905546
Cl84	Cl	-0.901827	-0.874302	0.721221
H85	H	-0.633391	-0.667006	0.634036
Cl86	Cl	-1.116360	-0.874388	0.721908
Cl87	Cl	-0.663410	-0.533811	0.664077
H88	H	-0.917413	-0.839667	0.374998
Cl89	Cl	-1.118746	-0.781900	0.564648
H90	H	-0.525520	-0.346560	0.684668
Cl91	Cl	-0.529312	-0.479791	0.726898
Cl92	Cl	-0.663346	-0.277867	0.664205
Cl93	Cl	-0.568638	-0.782124	0.905141
