data_functionalizedCrystal
_audit_creation_method	'MofGen! by Chris Wilmer'
_symmetry_space_group_name_H-M	'P1'
_symmetry_Int_Tables_number	1
_symmetry_cell_setting	triclinic
loop_
_symmetry_equiv_pos_as_xyz
  x,y,z
_cell_length_a	14.044220
_cell_length_b	17.699103
_cell_length_c	16.776229
_cell_angle_alpha	89.988386
_cell_angle_beta	89.997978
_cell_angle_gamma	88.239969
loop_
_atom_site_label
_atom_site_type_symbol
_atom_site_fract_x
_atom_site_fract_y
_atom_site_fract_z
O1	O	1.257306	0.182443	-0.066220
O2	O	0.981351	0.175860	-0.066240
O3	O	1.127115	0.069500	-0.066214
O4	O	1.111542	0.288802	-0.066246
O5	O	1.127096	0.069492	0.066362
O6	O	0.981332	0.175851	0.066337
O7	O	1.257287	0.182435	0.066356
Zn8	Zn	1.119306	0.179141	0.087396
Zn9	Zn	1.119332	0.179153	-0.087279
O10	O	1.111523	0.288794	0.066331
C11	C	1.126545	0.041261	0.000076
C12	C	1.124861	-0.042873	0.000083
C13	C	0.946034	0.172974	0.000046
C14	C	0.840827	0.164378	0.000039
C15	C	1.114573	-0.559290	-0.072238
C16	C	1.116154	-0.480238	-0.072230
C17	C	1.116932	-0.440730	0.000042
C18	C	1.116139	-0.480278	0.072312
C19	C	1.114565	-0.559329	0.072304
C20	C	1.122487	-0.161474	0.072345
C21	C	1.124058	-0.082417	0.072348
C22	C	1.124076	-0.082382	-0.072189
C23	C	1.122502	-0.161433	-0.072197
C24	C	1.121714	-0.200975	0.000073
C25	C	1.120002	-0.286693	0.000064
C26	C	1.118637	-0.355013	0.000051
C27	C	0.648200	0.148662	0.000057
C28	C	0.590432	0.209628	0.000052
C29	C	0.483248	0.200884	0.000062
C30	C	0.755394	0.157405	0.000047
C31	C	1.292604	0.185321	0.000068
C32	C	1.397811	0.193916	0.000070
C33	C	1.112094	0.317033	0.000038
C34	C	1.113777	0.401167	0.000027
N35	N	1.119296	0.179134	0.206607
N36	N	1.119350	0.179155	-0.206491
C37	C	1.183860	0.132060	0.248335
C38	C	1.183865	0.132060	0.331788
C39	C	1.119310	0.179138	0.373510
C40	C	1.054739	0.226213	0.331776
C41	C	1.054730	0.226209	0.248325
C42	C	1.054774	0.226230	0.668323
C43	C	1.054790	0.226233	0.751779
C44	C	1.183908	0.132082	0.751786
C45	C	1.183899	0.132077	0.668335
C46	C	1.119326	0.179150	0.626608
C47	C	1.119320	0.179148	0.536120
C48	C	1.119320	0.179144	0.463997
H49	H	1.113931	-0.591452	-0.131090
H50	H	0.621473	0.268390	0.000040
Cl51	Cl	0.973579	0.285394	0.384225
H52	H	1.124721	-0.050178	-0.131034
Cl53	Cl	1.125037	-0.032751	0.163212
H54	H	0.617161	0.089906	0.000070
H55	H	1.236432	0.093728	0.214371
Cl56	Cl	1.265031	0.072880	0.384248
Cl57	Cl	1.121487	-0.211173	0.163199
H58	H	1.236469	0.093745	0.634367
Cl59	Cl	1.265085	0.072901	0.804247
H60	H	1.121864	-0.193597	-0.131048
Cl61	Cl	0.973627	0.285419	0.804230
H62	H	1.002197	0.264560	0.634355
H63	H	1.002155	0.264540	0.214350
H64	H	1.116804	-0.448045	-0.131075
Cl65	Cl	1.113570	-0.609041	0.163154
Cl66	Cl	1.117122	-0.430611	0.163169
