data_functionalizedCrystal
_audit_creation_method	'MofGen! by Chris Wilmer'
_symmetry_space_group_name_H-M	'P1'
_symmetry_Int_Tables_number	1
_symmetry_cell_setting	triclinic
loop_
_symmetry_equiv_pos_as_xyz
  x,y,z
_cell_length_a	12.827892
_cell_length_b	12.759401
_cell_length_c	12.759393
_cell_angle_alpha	89.980324
_cell_angle_beta	89.970218
_cell_angle_gamma	90.015818
loop_
_atom_site_label
_atom_site_type_symbol
_atom_site_fract_x
_atom_site_fract_y
_atom_site_fract_z
Zn1	Zn	-0.415971	1.606261	-0.593990
Zn2	Zn	-0.590748	1.606150	-0.418312
Zn3	Zn	-0.416023	1.430560	-0.418329
Zn4	Zn	-0.590672	1.430550	-0.593953
O5	O	-0.503353	1.518380	-0.506146
O6	O	-0.439165	1.753268	-0.570694
O7	O	-0.567624	1.582816	-0.271293
O8	O	-0.269780	1.453918	-0.441653
O9	O	-0.567573	1.753186	-0.441625
O10	O	-0.269741	1.583005	-0.570710
O11	O	-0.439254	1.453810	-0.271306
O12	O	-0.439180	1.283538	-0.441618
O13	O	-0.567443	1.453900	-0.740979
O14	O	-0.567494	1.283530	-0.570648
O15	O	-0.439091	1.582995	-0.741006
O16	O	-0.736974	1.582806	-0.441589
O17	O	-0.736918	1.453793	-0.570632
C18	C	-0.503335	1.245413	-0.506131
C19	C	-0.503353	1.128636	-0.506150
C20	C	-0.436611	1.073817	-0.573460
C21	C	-0.436622	0.964093	-0.573467
C22	C	-0.570124	0.964017	-0.438851
C23	C	-0.570108	1.073739	-0.438839
C24	C	-0.774863	1.518315	-0.506128
C25	C	-0.891016	1.518383	-0.506155
C26	C	-0.942794	1.582298	-0.442371
C27	C	-1.062844	1.582370	-0.442398
C28	C	-0.230783	1.518475	-0.506188
C29	C	-0.114630	1.518515	-0.506205
C30	C	-0.503253	1.518459	-0.780180
C31	C	-0.503210	1.518492	-0.896956
C32	C	-0.503372	1.792414	-0.506162
C33	C	-0.503380	1.909190	-0.506168
C34	C	-0.436367	1.585717	-0.951834
C35	C	-0.436322	1.585735	-1.061558
C36	C	-0.569973	1.451301	-1.061517
C37	C	-0.570012	1.451278	-0.951795
C38	C	-0.503378	1.518362	-0.233179
C39	C	-0.503126	1.518533	-0.116403
H40	H	-0.382273	0.919465	-0.628276
H41	H	-0.624475	0.919306	-0.384050
C42	C	-0.643528	1.134048	-0.364793
C43	C	-0.643504	1.254738	-0.364778
C44	C	-0.716917	1.315048	-0.290732
C45	C	-0.790354	1.254668	-0.216701
C46	C	-0.790380	1.133971	-0.216714
C47	C	-0.716968	1.073661	-0.290760
H48	H	-0.589140	1.299441	-0.419582
H49	H	-0.716897	1.404396	-0.290723
H50	H	-0.844698	1.299313	-0.161888
H51	H	-0.844745	1.089268	-0.161909
H52	H	-0.716988	0.984313	-0.290769
C53	C	-0.643545	1.377323	-0.891426
C54	C	-0.634998	1.257894	-0.906502
C55	C	-0.708524	1.183938	-0.846135
C56	C	-0.790598	1.229410	-0.770691
C57	C	-0.799149	1.348845	-0.755611
C58	C	-0.725623	1.422802	-0.815979
H59	H	-0.574239	1.224227	-0.962353
H60	H	-0.702193	1.095524	-0.857298
H61	H	-0.845026	1.174663	-0.726003
H62	H	-0.859908	1.382512	-0.699760
H63	H	-0.731953	1.511216	-0.804815
C64	C	-1.122989	1.656299	-0.368622
C65	C	-1.198151	1.610794	-0.286182
C66	C	-1.258298	1.684726	-0.212403
C67	C	-1.243282	1.804162	-0.221064
C68	C	-1.168117	1.849673	-0.303506
C69	C	-1.107970	1.775741	-0.377285
H70	H	-1.209269	1.522375	-0.279768
H71	H	-1.313940	1.651035	-0.151374
H72	H	-1.287806	1.858891	-0.166448
H73	H	-1.156999	1.938092	-0.309920
H74	H	-1.052328	1.809432	-0.438315
C75	C	-0.363175	1.134206	-0.647491
C76	C	-0.289756	1.073901	-0.721526
C77	C	-0.216315	1.134286	-0.795557
C78	C	-0.216292	1.254976	-0.795553
C79	C	-0.289714	1.315288	-0.721515
C80	C	-0.363155	1.254903	-0.647484
H81	H	-0.289770	0.984553	-0.721532
H82	H	-0.161963	1.089639	-0.850365
H83	H	-0.161927	1.299677	-0.850354
H84	H	-0.289700	1.404636	-0.721509
H85	H	-0.417507	1.299550	-0.592676
H86	H	-0.898249	1.636970	-0.387747
H87	H	-1.070110	1.463788	-0.560812
C88	C	-0.951186	1.444526	-0.579958
C89	C	-1.026353	1.362179	-0.534309
C90	C	-1.086519	1.288319	-0.608115
C91	C	-1.071519	1.296806	-0.727569
C92	C	-0.996348	1.379157	-0.773223
C93	C	-0.936182	1.453016	-0.699418
H94	H	-1.037460	1.355893	-0.445877
H95	H	-1.142165	1.227358	-0.574317
H96	H	-1.116057	1.242131	-0.782204
H97	H	-0.985241	1.385442	-0.861656
H98	H	-0.880536	1.513977	-0.733215
C99	C	-0.362879	1.659642	-0.891509
C100	C	-0.244075	1.651108	-0.906613
C101	C	-0.170582	1.725032	-0.846292
C102	C	-0.215894	1.807489	-0.770867
C103	C	-0.334704	1.816026	-0.755760
C104	C	-0.408197	1.742102	-0.816081
H105	H	-0.210527	1.590066	-0.962450
H106	H	-0.082631	1.718712	-0.857475
H107	H	-0.161490	1.862212	-0.726213
H108	H	-0.368252	1.877068	-0.699923
H109	H	-0.496148	1.748422	-0.804898
H110	H	-0.381889	1.640474	-1.106235
H111	H	-0.624362	1.396580	-1.106180
