data_functionalizedCrystal
_audit_creation_method	'MofGen! by Chris Wilmer'
_symmetry_space_group_name_H-M	'P1'
_symmetry_Int_Tables_number	1
_symmetry_cell_setting	triclinic
loop_
_symmetry_equiv_pos_as_xyz
  x,y,z
_cell_length_a	13.635800
_cell_length_b	7.076090
_cell_length_c	21.457829
_cell_angle_alpha	70.855675
_cell_angle_beta	116.828356
_cell_angle_gamma	117.701400
loop_
_atom_site_label
_atom_site_type_symbol
_atom_site_fract_x
_atom_site_fract_y
_atom_site_fract_z
V1	V	-1.989783	0.297386	-0.217363
O2	O	-2.091172	-0.011928	-0.213733
O3	O	-1.862619	0.587393	-0.215387
O4	O	-2.002321	0.293848	-0.312385
O5	O	-1.950502	0.283650	-0.116064
V6	V	-2.240179	0.260266	-0.205306
O7	O	-2.101473	0.378811	-0.243810
O8	O	-2.353587	0.178840	-0.178859
O9	O	-2.255740	-0.029742	-0.207281
O10	O	-2.197489	0.569579	-0.208935
O11	O	-2.338158	0.274001	-0.306605
O12	O	-2.116037	0.263803	-0.110284
V13	V	-1.489783	0.297386	-0.217363
O14	O	-1.591172	-0.011928	-0.213733
O15	O	-1.362619	0.587393	-0.215387
O16	O	-1.502321	0.293848	-0.312385
O17	O	-1.450502	0.283650	-0.116064
V18	V	-1.740179	0.260266	-0.205306
O19	O	-1.601473	0.378811	-0.243810
O20	O	-1.853587	0.178840	-0.178859
O21	O	-1.755740	-0.029742	-0.207281
O22	O	-1.697489	0.569579	-0.208935
O23	O	-1.838158	0.274001	-0.306605
O24	O	-1.616037	0.263803	-0.110284
C25	C	-1.758891	0.658061	-0.211835
C26	C	-1.694622	0.899610	-0.210837
C27	C	-1.937087	0.283609	-0.335562
C28	C	-1.987298	0.282636	-0.413240
C29	C	-2.191150	-0.100397	-0.210835
C30	C	-2.244851	-0.341938	-0.211850
C31	C	-2.012939	0.274049	-0.087103
C32	C	-1.952351	0.275011	-0.009425
C33	C	-1.437087	0.283609	-0.335562
C34	C	-1.487298	0.282636	-0.413240
C35	C	-1.512939	0.274049	-0.087103
C36	C	-1.452351	0.275011	-0.009425
C37	C	-2.099506	0.292850	-0.453262
C38	C	-2.146706	0.291907	-0.526248
C39	C	-2.081693	0.280766	-0.559211
C40	C	-1.969477	0.270544	-0.519183
C41	C	-1.922282	0.271472	-0.446198
C42	C	-1.835146	0.286170	0.023526
C43	C	-1.778214	0.287088	0.096513
C44	C	-1.838485	0.276891	0.136544
C45	C	-1.955710	0.265719	0.103586
C46	C	-2.012643	0.264779	0.030602
C47	C	-1.793509	0.395801	0.248674
C48	C	-1.736571	0.396754	0.321656
C49	C	-1.662891	0.279780	0.361653
C50	C	-1.646135	0.161881	0.328657
C51	C	-1.703067	0.160941	0.255672
C52	C	-1.776761	0.277908	0.215684
C53	C	-1.483949	0.291932	0.473744
C54	C	-1.427021	0.292837	0.546733
C55	C	-1.604518	0.271489	0.553804
C56	C	-1.661445	0.270563	0.480818
C57	C	-1.601153	0.280795	0.440792
C58	C	-1.335148	0.286129	0.023520
C59	C	-1.278210	0.287008	0.096509
C60	C	-1.338473	0.276785	0.136550
C61	C	-1.455687	0.265660	0.103600
C62	C	-1.512626	0.264766	0.030614
H63	H	-2.152458	0.301928	-0.426434
O64	O	-2.267738	0.302932	-0.569408
H65	H	-2.259729	0.449126	-0.610056
O66	O	-1.270083	0.297283	-0.019646
H67	H	-1.243072	0.156482	-0.000130
H68	H	-1.331582	0.301917	0.573560
O69	O	-1.899282	0.258640	-0.554709
H70	H	-1.950237	0.111628	-0.580591
O71	O	-2.139063	0.252754	-0.004942
H72	H	-2.195728	0.105687	-0.030798
H73	H	-1.750217	0.492763	0.348516
O74	O	-1.801246	0.260493	-0.403034
H75	H	-1.763972	0.252617	-0.438225
O76	O	-1.651791	0.299102	0.132053
H77	H	-1.648098	0.153900	0.172350
O78	O	-1.770025	0.297747	-0.019673
H79	H	-1.678922	0.305850	0.015497
O80	O	-1.151791	0.298995	0.132042
H81	H	-1.095111	0.446016	0.157921
H82	H	-2.120135	0.280013	-0.618641
O83	O	-1.277050	0.277774	0.215270
H84	H	-1.185422	0.287248	0.231445
H85	H	-1.653591	0.263197	0.586397
H86	H	-1.504742	0.257331	0.136213
O87	O	-1.639039	0.252780	-0.004912
H88	H	-1.642740	0.397977	-0.045211
H89	H	-1.689423	0.064940	0.228810
H90	H	-1.586138	0.066635	0.361221
O91	O	-1.787864	0.258532	0.445277
H92	H	-1.791574	0.403701	0.404966
H93	H	-1.434858	0.300246	0.441154
O94	O	-1.872973	0.521987	0.205535
H95	H	-1.875042	0.604155	0.240736
O96	O	-2.020725	0.254726	0.146756
H97	H	-1.961442	0.257277	0.203042
