data_functionalizedCrystal
_audit_creation_method	'MofGen! by Chris Wilmer'
_symmetry_space_group_name_H-M	'P1'
_symmetry_Int_Tables_number	1
_symmetry_cell_setting	triclinic
loop_
_symmetry_equiv_pos_as_xyz
  x,y,z
_cell_length_a	19.288859
_cell_length_b	8.634740
_cell_length_c	18.366186
_cell_angle_alpha	89.996787
_cell_angle_beta	89.990083
_cell_angle_gamma	91.852016
loop_
_atom_site_label
_atom_site_type_symbol
_atom_site_fract_x
_atom_site_fract_y
_atom_site_fract_z
O1	O	0.934491	0.192229	-0.060561
O2	O	0.734003	0.218176	-0.060559
O3	O	0.824757	-0.019207	-0.060559
O4	O	0.843738	0.429612	-0.060562
O5	O	0.824738	-0.019218	0.060541
O6	O	0.733984	0.218165	0.060540
O7	O	0.934472	0.192217	0.060538
Zn8	Zn	0.834225	0.205189	0.079766
Zn9	Zn	0.834250	0.205204	-0.079788
O10	O	0.843719	0.429601	0.060537
C11	C	0.708060	0.217337	-0.000010
C12	C	0.630785	0.214836	-0.000009
C13	C	0.820447	-0.076633	-0.000010
C14	C	0.807627	-0.247726	-0.000013
C15	C	0.075106	0.337199	-0.000011
C16	C	0.147714	0.339563	-0.000015
C17	C	0.182903	0.200278	-0.000012
C18	C	0.145478	0.058617	-0.000025
C19	C	0.072871	0.056258	-0.000028
C20	C	0.297068	0.096395	0.042418
C21	C	0.369674	0.098761	0.042426
C22	C	0.406846	0.207551	-0.000005
C23	C	0.371404	0.314000	-0.042434
C24	C	0.298798	0.311641	-0.042437
C25	C	0.261633	0.202821	-0.000009
C26	C	0.522992	0.351765	-0.000002
C27	C	0.595602	0.354123	-0.000010
C28	C	0.593364	0.073173	-0.000013
C29	C	0.520756	0.070819	-0.000012
C30	C	0.485575	0.210119	-0.000003
C31	C	0.960415	0.193056	-0.000014
C32	C	1.037690	0.195558	-0.000019
C33	C	0.848028	0.487027	-0.000013
C34	C	0.860848	0.658120	-0.000015
N35	N	0.834213	0.205178	0.188657
N36	N	0.834267	0.205204	-0.188679
C37	C	0.874418	0.100116	0.226758
C38	C	0.874422	0.100109	0.302986
C39	C	0.834229	0.205191	0.341110
C40	C	0.794016	0.310260	0.303000
C41	C	0.794008	0.310254	0.226774
C42	C	0.834528	0.345627	0.461869
C43	C	0.834541	0.345636	0.538094
C44	C	0.834251	0.205210	0.576217
C45	C	0.833961	0.064769	0.538106
C46	C	0.833953	0.064763	0.461880
C47	C	0.834233	0.205208	0.423765
C48	C	0.874461	0.100132	0.696973
C49	C	0.874460	0.100123	0.773202
C50	C	0.794059	0.310288	0.773215
C51	C	0.794056	0.310283	0.696987
C52	C	0.834261	0.205207	0.658871
H53	H	0.046466	0.450629	-0.000007
C54	C	0.732814	-0.315659	-0.000011
N55	N	0.676466	-0.366828	-0.000008
H56	H	0.907197	0.014561	0.804225
H57	H	0.269944	0.398313	-0.076986
C58	C	0.412288	0.433675	-0.089114
N59	N	0.443085	0.523811	-0.124272
C60	C	0.188880	0.495386	-0.000001
N61	N	0.219885	0.612752	0.000012
H62	H	0.907153	0.014553	0.195726
H63	H	0.490291	-0.044521	-0.000014
H64	H	0.761290	0.395817	0.334044
C65	C	0.834848	0.500117	0.419941
N66	N	0.835089	0.616475	0.388362
H67	H	0.494346	0.465192	0.000004
C68	C	0.749848	0.425880	0.815147
N69	N	0.716546	0.512947	0.846734
C70	C	0.918660	-0.015456	0.344905
N71	N	0.951983	-0.102495	0.376476
H72	H	0.761321	0.395841	0.665964
H73	H	0.834781	0.459990	0.569118
H74	H	0.833716	-0.049588	0.430853
H75	H	0.761268	0.395809	0.195751
H76	H	0.622014	-0.040236	-0.000016
C77	C	0.833640	-0.089713	0.580036
N78	N	0.833398	-0.206064	0.611621
H79	H	0.626065	0.469469	-0.000009
H80	H	0.916222	-0.291597	-0.000040
H81	H	0.398525	0.012090	0.076978
C82	C	0.256186	-0.023294	0.089096
N83	N	0.225394	-0.113442	0.124252
C84	C	0.184187	-0.094597	-0.000017
N85	N	0.213343	-0.210003	-0.000013
C86	C	0.031712	-0.099566	-0.000028
N87	N	0.000710	-0.216935	-0.000024
H88	H	0.907196	0.014567	0.665937
