data_functionalizedCrystal
_audit_creation_method	'MofGen! by Chris Wilmer'
_symmetry_space_group_name_H-M	'P1'
_symmetry_Int_Tables_number	1
_symmetry_cell_setting	triclinic
loop_
_symmetry_equiv_pos_as_xyz
  x,y,z
_cell_length_a	12.759401
_cell_length_b	21.295412
_cell_length_c	12.759400
_cell_angle_alpha	90.023063
_cell_angle_beta	89.985084
_cell_angle_gamma	89.978578
loop_
_atom_site_label
_atom_site_type_symbol
_atom_site_fract_x
_atom_site_fract_y
_atom_site_fract_z
Zn1	Zn	1.606274	-0.355910	0.418286
Zn2	Zn	2.106274	0.144090	0.918286
Zn3	Zn	1.606163	-0.250649	0.593979
Zn4	Zn	2.106163	0.249351	1.093979
Zn5	Zn	1.430571	-0.250658	0.418315
Zn6	Zn	1.930571	0.249342	0.918315
Zn7	Zn	1.430565	-0.355884	0.593924
Zn8	Zn	1.930565	0.144116	1.093924
O9	O	1.518393	-0.303275	0.506126
O10	O	2.018393	0.196725	1.006126
O11	O	1.753281	-0.341953	0.441603
O12	O	2.253281	0.158047	0.941603
O13	O	1.582826	-0.162561	0.570712
O14	O	2.082826	0.337439	1.070712
O15	O	1.453927	-0.264635	0.271290
O16	O	1.953927	0.235365	0.771290
O17	O	1.753199	-0.264618	0.570683
O18	O	2.253199	0.235382	1.070683
O19	O	1.583016	-0.341962	0.271269
O20	O	2.083016	0.158038	0.771269
O21	O	1.453819	-0.162568	0.441652
O22	O	1.953819	0.337432	0.941652
O23	O	1.283549	-0.264610	0.441599
O24	O	1.783549	0.235390	0.941599
O25	O	1.453917	-0.443977	0.570590
O26	O	1.953917	0.056023	1.070590
O27	O	1.283545	-0.341920	0.570619
O28	O	1.783545	0.158080	1.070619
O29	O	1.583010	-0.443996	0.441550
O30	O	2.083010	0.056004	0.941550
O31	O	1.582821	-0.264594	0.740993
O32	O	2.082821	0.235406	1.240993
O33	O	1.453809	-0.341910	0.740952
O34	O	1.953809	0.158090	1.240952
C35	C	1.245426	-0.303264	0.506107
C36	C	1.745426	0.196736	1.006107
C37	C	1.128649	-0.303274	0.506124
C38	C	1.628649	0.196726	1.006124
C39	C	1.073748	-0.262950	0.573229
C40	C	1.573748	0.237050	1.073229
C41	C	0.964024	-0.262961	0.573247
C42	C	1.464024	0.237039	1.073247
C43	C	0.964112	-0.343620	0.439047
C44	C	1.464112	0.156380	0.939047
C45	C	1.073834	-0.343612	0.439035
C46	C	1.573834	0.156388	0.939035
C47	C	1.073697	-0.216381	0.650705
C48	C	1.573697	0.283619	1.150705
C49	C	0.963973	-0.216392	0.650723
C50	C	1.463973	0.283608	1.150723
C51	C	1.518475	-0.467466	0.506061
C52	C	2.018475	0.032534	1.006061
C53	C	1.518510	-0.537434	0.506033
C54	C	2.018510	-0.037434	1.006033
C55	C	1.451354	-0.570294	0.438824
C56	C	1.951354	-0.070294	0.938824
C57	C	1.451351	-0.636037	0.438804
C58	C	1.951351	-0.136037	0.938804
C59	C	1.518522	-0.668916	0.505983
C60	C	2.018522	-0.168916	1.005983
C61	C	1.585682	-0.636048	0.573205
C62	C	2.085682	-0.136048	1.073205
C63	C	1.585677	-0.570307	0.573230
C64	C	2.085677	-0.070307	1.073230
N65	N	1.610493	-0.772153	0.514006
N66	N	2.110493	-0.272153	1.014006
N67	N	1.610496	-0.834605	0.513976
N68	N	2.110496	-0.334605	1.013976
C69	C	1.518541	-0.866991	0.505913
C70	C	2.018541	-0.366991	1.005913
N71	N	1.426582	-0.834567	0.497860
N72	N	1.926582	-0.334567	0.997860
N73	N	1.426581	-0.772110	0.497884
N74	N	1.926581	-0.272110	0.997884
C75	C	1.518535	-0.740202	0.505963
C76	C	2.018535	-0.240202	1.005963
C77	C	1.451375	-0.971137	0.438679
C78	C	1.951375	-0.471137	0.938679
C79	C	1.451370	-1.036881	0.438667
C80	C	1.951370	-0.536881	0.938667
C81	C	1.585711	-1.036891	0.573062
C82	C	2.085711	-0.536891	1.073062
C83	C	1.585707	-0.971148	0.573079
C84	C	2.085707	-0.471148	1.073079
C85	C	1.518541	-0.938276	0.505883
C86	C	2.018541	-0.438276	1.005883
C87	C	1.792426	-0.303287	0.506146
C88	C	2.292426	0.196713	1.006146
C89	C	1.909203	-0.303293	0.506154
C90	C	2.409203	0.196707	1.006154
C91	C	1.518331	-0.303262	0.779093
C92	C	2.018331	0.196738	1.279093
C93	C	1.518400	-0.303278	0.895870
C94	C	2.018400	0.196722	1.395870
C95	C	1.518372	-0.139724	0.506115
C96	C	2.018372	0.360276	1.006115
C97	C	1.518540	-0.069756	0.505847
C98	C	2.018540	0.430244	1.005847
C99	C	1.518484	-0.303302	0.232093
C100	C	2.018484	0.196698	0.732093
C101	C	1.518523	-0.303314	0.115316
C102	C	2.018523	0.196686	0.615316
C103	C	1.585651	-0.263064	0.950718
C104	C	2.085651	0.236936	1.450718
C105	C	1.585716	-0.263083	1.060442
C106	C	2.085716	0.236917	1.560442
C107	C	1.451270	-0.343532	1.060460
C108	C	1.951270	0.156468	1.560460
C109	C	1.451211	-0.343516	0.950738
C110	C	1.951211	0.156484	1.450738
C111	C	1.663269	-0.216615	0.950708
C112	C	2.163269	0.283385	1.450708
C113	C	1.663334	-0.216634	1.060432
C114	C	2.163334	0.283366	1.560432
H115	H	0.919468	-0.376463	0.384425
H116	H	1.419468	0.123537	0.884425
H117	H	1.103471	-0.229350	0.732101
H118	H	1.603471	0.270650	1.232101
C119	C	1.659622	-0.935001	0.646979
C120	C	2.159622	-0.435001	1.146979
N121	N	1.715306	-0.907774	0.702635
N122	N	2.215306	-0.407774	1.202635
H123	H	1.396460	-0.376267	0.906082
H124	H	1.896460	0.123733	1.406082
C125	C	1.659428	-0.672217	0.647243
C126	C	2.159428	-0.172217	1.147243
N127	N	1.714921	-0.699459	0.703066
N128	N	2.214921	-0.199459	1.203066
C129	C	1.119632	-0.153855	0.611187
C130	C	1.619632	0.346145	1.111187
N131	N	1.154232	-0.106760	0.581421
N132	N	1.654232	0.393240	1.081421
C133	C	1.377359	-0.387787	1.120826
C134	C	1.877359	0.112213	1.620826
N135	N	1.321685	-0.421120	1.166292
N136	N	1.821685	0.078880	1.666292
C137	C	1.377476	-0.672190	0.364862
C138	C	1.877476	-0.172190	0.864862
N139	N	1.321835	-0.699420	0.309166
N140	N	1.821835	-0.199420	0.809166
C141	C	0.917999	-0.239865	0.755212
C142	C	1.417999	0.260135	1.255212
N143	N	0.883370	-0.257543	0.833913
N144	N	1.383370	0.242457	1.333913
H145	H	1.744613	-0.229708	0.920854
H146	H	2.244613	0.270292	1.420854
H147	H	0.934156	-0.167663	0.628823
H148	H	1.434156	0.332337	1.128823
H149	H	1.396658	-0.543533	0.384111
H150	H	1.896658	-0.043533	0.884111
H151	H	1.641594	-0.167874	1.090283
H152	H	2.141594	0.332126	1.590283
C153	C	1.623897	-0.154030	0.904826
C154	C	2.123897	0.345970	1.404826
N155	N	1.594230	-0.106892	0.870268
N156	N	2.094230	0.393108	1.370268
H157	H	1.640368	-0.543552	0.627958
H158	H	2.140368	-0.043552	1.127958
H159	H	1.396684	-0.944371	0.383964
H160	H	1.896684	-0.444371	0.883964
H161	H	1.640405	-1.063661	0.627757
H162	H	2.140405	-0.563661	1.127757
C163	C	1.134221	-0.387973	0.365219
C164	C	1.634221	0.112027	0.865219
N165	N	1.179704	-0.421387	0.309617
N166	N	1.679704	0.078613	0.809617
H167	H	1.396676	-1.063635	0.383941
H168	H	1.896676	-0.563635	0.883941
H169	H	1.740639	-0.234138	1.094381
H170	H	2.240639	0.265862	1.594381
