data_functionalizedCrystal
_audit_creation_method	'MofGen! by Chris Wilmer'
_symmetry_space_group_name_H-M	'P1'
_symmetry_Int_Tables_number	1
_symmetry_cell_setting	triclinic
loop_
_symmetry_equiv_pos_as_xyz
  x,y,z
_cell_length_a	12.759401
_cell_length_b	12.594516
_cell_length_c	12.759401
_cell_angle_alpha	90.005465
_cell_angle_beta	90.005677
_cell_angle_gamma	90.016479
loop_
_atom_site_label
_atom_site_type_symbol
_atom_site_fract_x
_atom_site_fract_y
_atom_site_fract_z
Zn1	Zn	1.606111	-0.423916	0.594002
Zn2	Zn	1.606041	-0.601862	0.418330
Zn3	Zn	1.430453	-0.423899	0.418341
Zn4	Zn	1.430398	-0.601854	0.593971
O5	O	1.518251	-0.512883	0.506161
O6	O	1.753123	-0.447531	0.570707
O7	O	1.582743	-0.578251	0.271310
O8	O	1.453807	-0.274955	0.441661
O9	O	1.753071	-0.578267	0.441641
O10	O	1.582862	-0.274968	0.570718
O11	O	1.453739	-0.447502	0.271319
O12	O	1.283425	-0.447495	0.441631
O13	O	1.453713	-0.578254	0.740996
O14	O	1.283384	-0.578238	0.570665
O15	O	1.582809	-0.447524	0.741019
O16	O	1.582689	-0.750806	0.441611
O17	O	1.453645	-0.750801	0.570654
C18	C	1.245283	-0.512864	0.506146
C19	C	1.128507	-0.512882	0.506165
C20	C	1.073672	-0.444931	0.573473
C21	C	0.963948	-0.444942	0.573480
C22	C	0.963903	-0.580864	0.438868
C23	C	1.073625	-0.580847	0.438856
C24	C	0.814022	-0.319498	0.611243
C25	C	0.759184	-0.251556	0.678567
C26	C	0.794818	-0.235375	0.781105
C27	C	0.885288	-0.287151	0.816339
C28	C	0.940121	-0.355101	0.749020
C29	C	0.904489	-0.371262	0.646468
C30	C	1.223553	-0.706292	0.401104
C31	C	1.278387	-0.774248	0.333789
C32	C	1.242756	-0.790440	0.231250
C33	C	1.152282	-0.738683	0.196020
C34	C	1.097447	-0.670727	0.263334
C35	C	1.133086	-0.654533	0.365872
C36	C	1.518182	-0.789424	0.506151
C37	C	1.518249	-0.907729	0.506181
C38	C	1.448055	-0.977018	0.576318
C39	C	1.422477	-1.047848	0.480452
C40	C	1.543922	-1.047698	0.602064
C41	C	1.492620	-0.977001	0.410264
C42	C	1.614110	-0.976844	0.531941
C43	C	1.588569	-1.047643	0.436009
C44	C	1.792284	-0.512902	0.506177
C45	C	1.909061	-0.512910	0.506183
C46	C	1.518262	-0.512890	0.780194
C47	C	1.518267	-0.512893	0.896971
C48	C	1.518349	-0.235262	0.506194
C49	C	1.518390	-0.116956	0.506209
C50	C	1.585479	-0.444833	0.951846
C51	C	1.585470	-0.444831	1.061571
C52	C	1.451035	-0.580958	1.061534
C53	C	1.451039	-0.580954	0.951812
C54	C	1.623049	-0.319312	1.211542
C55	C	1.690277	-0.251261	1.266422
C56	C	1.792799	-0.234927	1.230827
C57	C	1.828113	-0.286660	1.140356
C58	C	1.760890	-0.354719	1.085482
C59	C	1.658354	-0.371032	1.121075
C60	C	1.413472	-0.706474	0.801838
C61	C	1.346253	-0.774539	0.746962
C62	C	1.243730	-0.790884	0.782554
C63	C	1.208419	-0.739170	0.873030
C64	C	1.275637	-0.671105	0.927905
C65	C	1.378160	-0.654759	0.892306
C66	C	1.518238	-0.512899	1.233194
C67	C	1.518254	-0.512895	1.116417
H68	H	1.118354	-0.389586	0.628277
H69	H	1.661514	-0.209140	1.340084
H70	H	0.750161	-0.180054	0.835921
H71	H	1.695094	-0.945635	0.553753
C72	C	1.668841	-1.089283	0.355805
N73	N	1.729297	-1.120650	0.295392
C74	C	0.774823	-0.337283	0.498442
N75	N	0.745291	-0.350680	0.413479
H76	H	0.685523	-0.209400	0.649870
C77	C	1.573182	-1.089649	0.711594
N78	N	1.595213	-1.121242	0.794094
H79	H	1.470869	-0.946076	0.329166
H80	H	1.911601	-0.273363	1.111387
H81	H	1.640218	-0.389410	0.907198
C82	C	1.303076	-0.865202	0.157207
N83	N	1.348508	-0.921508	0.101437
C84	C	1.095637	-0.757147	0.912184
N85	N	1.010687	-0.770692	0.941673
H86	H	1.789644	-0.396843	1.011824
C87	C	1.866745	-0.160063	1.291194
N88	N	1.922435	-0.103668	1.336664
C89	C	1.510264	-0.337262	1.250697
N90	N	1.425313	-0.350783	1.280194
C91	C	1.377085	-0.655820	1.121869
N92	N	1.321385	-0.712206	1.167312
C93	C	1.377901	-0.831198	0.372554
N94	N	1.452851	-0.874095	0.401753
H95	H	1.341475	-1.079060	0.458686
H96	H	1.246879	-0.628997	1.001576
H97	H	0.919205	-0.636200	0.384068
C98	C	1.169792	-0.865764	0.722188
N99	N	1.114101	-0.922159	0.676721
H100	H	1.375016	-0.816657	0.673299
H101	H	1.252579	-0.693105	0.484598
C102	C	0.997926	-0.613788	0.224574
N103	N	0.922968	-0.570901	0.195381
C104	C	1.526256	-0.688501	0.762679
N105	N	1.611206	-0.674970	0.733186
H106	H	0.914288	-0.273979	0.899840
C107	C	1.039638	-0.412046	0.787769
N108	N	1.114600	-0.454929	0.816956
C109	C	1.367719	-0.935110	0.656325
N110	N	1.307208	-0.903542	0.716580
C111	C	1.113084	-0.756493	0.083220
N112	N	1.083563	-0.769911	-0.001743
