data_functionalizedCrystal
_audit_creation_method	'MofGen! by Chris Wilmer'
_symmetry_space_group_name_H-M	'P1'
_symmetry_Int_Tables_number	1
_symmetry_cell_setting	triclinic
loop_
_symmetry_equiv_pos_as_xyz
  x,y,z
_cell_length_a	16.992694
_cell_length_b	11.792241
_cell_length_c	15.455313
_cell_angle_alpha	92.683265
_cell_angle_beta	87.142206
_cell_angle_gamma	87.430819
loop_
_atom_site_label
_atom_site_type_symbol
_atom_site_fract_x
_atom_site_fract_y
_atom_site_fract_z
O1	O	1.044827	0.236106	-0.072022
O2	O	0.816531	0.233463	-0.072048
O3	O	0.936219	0.070068	-0.072029
O4	O	0.925139	0.399501	-0.072042
O5	O	0.929374	0.079370	0.072232
O6	O	0.809687	0.242766	0.072213
O7	O	1.037982	0.245409	0.072239
Cu8	Cu	0.923210	0.244937	0.085398
Cu9	Cu	0.931304	0.233935	-0.085207
O10	O	0.918295	0.408804	0.072219
C11	C	0.783882	0.234716	0.000079
C12	C	0.696795	0.224578	0.000070
C13	C	0.646971	0.322395	0.000066
C14	C	0.565143	0.312864	0.000079
C15	C	0.533142	0.205513	0.000088
C16	C	0.582973	0.107688	0.000094
C17	C	0.664799	0.117221	0.000088
C18	C	0.289375	0.166002	0.000113
C19	C	0.207543	0.156476	0.000117
C20	C	0.189719	0.361652	0.000103
C21	C	0.271548	0.371176	0.000091
C22	C	0.321371	0.273351	0.000102
N23	N	0.449501	0.195767	0.000098
N24	N	0.405010	0.283098	0.000098
C25	C	0.932101	0.032371	0.000102
C26	C	0.930017	-0.093813	0.000101
C27	C	0.926187	-0.324840	0.000086
C28	C	0.928315	-0.196280	0.000094
C29	C	1.070631	0.244155	0.000109
C30	C	1.157718	0.254293	0.000113
C31	C	0.922413	0.446501	0.000087
C32	C	0.924497	0.572684	0.000082
N33	N	0.917522	0.252674	0.205393
N34	N	0.936998	0.226189	-0.205202
C35	C	0.968388	0.183287	0.250795
C36	C	0.964094	0.189150	0.341602
C37	C	0.908938	0.264406	0.387005
C38	C	0.858067	0.333796	0.341597
C39	C	0.862358	0.327927	0.250791
C40	C	0.890417	0.289710	0.658584
C41	C	0.886132	0.295576	0.749396
C42	C	0.992158	0.150928	0.749395
C43	C	0.996447	0.145070	0.658588
C44	C	0.945574	0.214455	0.613187
N45	N	0.904549	0.270403	0.479825
N46	N	0.949959	0.208452	0.520369
H47	H	0.149144	0.441295	0.000096
H48	H	0.705366	0.037568	0.000090
N49	N	0.304227	0.480838	0.000108
N50	N	0.345017	0.512969	0.060917
H51	H	0.368096	0.590421	0.060929
N52	N	1.044104	0.080031	0.795772
N53	N	1.043059	-0.025670	0.785641
H54	H	1.079746	-0.075749	0.818395
N55	N	0.801713	0.410662	0.387961
N56	N	0.729687	0.401804	0.377828
H57	H	0.689885	0.456092	0.410571
H58	H	1.041360	0.083790	0.621622
N59	N	1.016044	0.118231	0.387956
N60	N	1.014992	0.012535	0.377795
H61	H	1.051683	-0.037568	0.410524
N62	N	0.174850	0.046816	0.000146
N63	N	0.128299	0.022543	0.060961
H64	H	0.105207	-0.054900	0.060981
H65	H	0.820937	0.384428	0.213825
H66	H	1.013305	0.122010	0.213834
H67	H	0.841215	0.356864	0.786359
N68	N	0.838464	0.360576	0.612198
N69	N	0.792018	0.316824	0.561538
H70	H	0.755325	0.366877	0.528771
N71	N	0.550288	-0.001970	0.000087
N72	N	0.568274	-0.073514	-0.060722
H73	H	0.545192	-0.150964	-0.060731
N74	N	0.679642	0.432063	0.000067
N75	N	0.661654	0.503604	0.060877
H76	H	0.684725	0.581061	0.060881
N77	N	0.514260	0.412794	0.000080
N78	N	0.542843	0.508636	0.000068
H79	H	0.506907	0.579218	0.000070
N80	N	0.340250	0.066068	0.000120
N81	N	0.311664	-0.029771	0.000123
H82	H	0.347597	-0.100356	0.000127
