data_functionalizedCrystal
_audit_creation_method	'MofGen! by Chris Wilmer'
_symmetry_space_group_name_H-M	'P1'
_symmetry_Int_Tables_number	1
_symmetry_cell_setting	triclinic
loop_
_symmetry_equiv_pos_as_xyz
  x,y,z
_cell_length_a	16.109301
_cell_length_b	15.072220
_cell_length_c	16.109304
_cell_angle_alpha	89.998322
_cell_angle_beta	83.462059
_cell_angle_gamma	90.009777
loop_
_atom_site_label
_atom_site_type_symbol
_atom_site_fract_x
_atom_site_fract_y
_atom_site_fract_z
O1	O	1.103143	0.073721	0.106861
O2	O	0.861081	0.073734	0.120161
O3	O	0.988761	0.073728	-0.007520
O4	O	0.975464	0.073727	0.234542
O5	O	0.988729	-0.073837	-0.007513
O6	O	0.861050	-0.073831	0.120168
O7	O	1.103112	-0.073844	0.106869
Zn8	Zn	0.982076	-0.097267	0.113519
Zn9	Zn	0.982117	0.097157	0.113510
O10	O	0.975432	-0.073838	0.234549
C11	C	0.830091	-0.000047	0.119626
C12	C	0.737795	-0.000041	0.118010
N13	N	0.982053	-0.229956	0.113525
C14	C	0.515524	-0.000052	0.190018
C15	C	0.428803	-0.000057	0.188494
C16	C	0.448676	-0.000053	0.037005
C17	C	0.535395	-0.000054	0.038530
C18	C	0.568816	-0.000049	0.115039
C19	C	0.395377	-0.000054	0.111990
C20	C	0.301351	-0.000060	0.110337
C21	C	0.662848	-0.000044	0.116693
C22	C	0.982116	-0.589157	0.113507
C23	C	0.913568	-0.551547	0.181597
C24	C	0.913725	-0.448721	0.181846
C25	C	0.982084	-0.410953	0.113516
C26	C	1.068829	-0.448249	0.132440
C27	C	1.068444	-0.551107	0.132924
C28	C	0.964693	-0.551256	0.026291
C29	C	0.962702	-0.448393	0.026873
C30	C	0.982072	-0.310240	0.113519
C31	C	0.982134	-0.689870	0.113505
C32	C	1.134102	-0.000062	0.107404
C33	C	1.226398	-0.000061	0.109019
C34	C	0.988206	-0.000053	-0.038491
C35	C	0.986590	-0.000047	-0.130786
N36	N	0.982146	0.229845	0.113498
C37	C	0.982873	0.080388	-0.343127
C38	C	0.981347	0.080387	-0.429848
C39	C	0.981317	-0.080496	-0.429837
C40	C	0.982837	-0.080495	-0.343118
C41	C	0.983620	-0.000050	-0.299766
C42	C	0.980573	-0.000052	-0.473205
C43	C	0.978919	-0.000054	-0.567231
C44	C	0.985273	-0.000048	-0.205734
C45	C	0.975987	-0.000055	0.265520
C46	C	0.977603	-0.000056	0.357816
H47	H	0.385416	-0.000061	0.249550
H48	H	0.924537	-0.577386	0.245955
C49	C	0.980529	0.168866	-0.477546
H50	H	0.979502	0.157348	-0.535401
H51	H	1.029239	0.201917	-0.469692
H52	H	0.932324	0.201918	-0.456979
H53	H	1.121045	-0.575985	0.085284
H54	H	0.980682	-0.145992	-0.465145
C55	C	1.025764	-0.413670	-0.044788
H56	H	1.012546	-0.437340	-0.096341
H57	H	1.080555	-0.431499	-0.035682
H58	H	1.023087	-0.350744	-0.046559
C59	C	0.928755	-0.415464	0.269276
H60	H	0.934797	-0.464817	0.304778
H61	H	0.882578	-0.380483	0.291877
H62	H	0.978180	-0.380585	0.265113
C63	C	0.983661	-0.168981	-0.295416
H64	H	0.982989	-0.216891	-0.333656
H65	H	0.935799	-0.172322	-0.255233
H66	H	1.032714	-0.172321	-0.267943
C67	C	0.876500	-0.415469	0.007468
H68	H	0.852419	-0.379053	0.051975
H69	H	0.841137	-0.464918	0.001353
H70	H	0.882769	-0.382105	-0.042890
C71	C	0.594020	-0.000047	-0.043950
H72	H	0.561697	-0.000037	-0.089735
H73	H	0.628255	-0.051505	-0.046503
H74	H	0.628269	0.051419	-0.046501
C75	C	0.411909	-0.000048	-0.047147
H76	H	0.352630	-0.000038	-0.037318
H77	H	0.430193	-0.051504	-0.078021
H78	H	0.430214	0.051420	-0.078015
C79	C	1.089179	-0.583511	0.218849
H80	H	1.097753	-0.533812	0.253134
H81	H	1.138459	-0.618597	0.211830
H82	H	1.044101	-0.618100	0.244605
C83	C	0.826616	-0.414653	0.166635
H84	H	0.790813	-0.463677	0.160252
H85	H	0.831190	-0.379516	0.117371
H86	H	0.804095	-0.379763	0.212916
C87	C	0.826174	-0.584980	0.166625
H88	H	0.785702	-0.561525	0.208372
H89	H	0.825048	-0.647942	0.169145
H90	H	0.813849	-0.566080	0.113119
C91	C	0.552285	-0.000055	0.274173
H92	H	0.508123	-0.000066	0.318609
H93	H	0.585710	0.051403	0.277920
H94	H	0.585691	-0.051522	0.277916
C95	C	1.139386	-0.415194	0.067233
H96	H	1.116514	-0.378262	0.027797
H97	H	1.166426	-0.464569	0.039235
H98	H	1.178743	-0.382340	0.094443
C99	C	1.032215	-0.584117	-0.042163
H100	H	1.070841	-0.620757	-0.017756
H101	H	1.060802	-0.534653	-0.068424
H102	H	1.006655	-0.617235	-0.082531
H103	H	1.084553	-0.422481	0.195320
H104	H	0.902814	-0.577243	0.008088
H105	H	0.983508	0.145891	-0.307833
