data_functionalizedCrystal
_audit_creation_method	'MofGen! by Chris Wilmer'
_symmetry_space_group_name_H-M	'P1'
_symmetry_Int_Tables_number	1
_symmetry_cell_setting	triclinic
loop_
_symmetry_equiv_pos_as_xyz
  x,y,z
_cell_length_a	19.805407
_cell_length_b	18.215404
_cell_length_c	18.215399
_cell_angle_alpha	89.972485
_cell_angle_beta	90.020634
_cell_angle_gamma	89.976177
loop_
_atom_site_label
_atom_site_type_symbol
_atom_site_fract_x
_atom_site_fract_y
_atom_site_fract_z
Zn1	Zn	1.034755	0.292992	0.416134
Zn2	Zn	1.284755	0.542992	0.666134
Zn3	Zn	1.534755	0.792992	0.916134
Zn4	Zn	1.784755	1.042992	1.166134
Zn5	Zn	1.034673	0.416063	0.293068
Zn6	Zn	1.284673	0.666063	0.543068
Zn7	Zn	1.534673	0.916063	0.793068
Zn8	Zn	1.784673	1.166063	1.043068
Zn9	Zn	0.921567	0.293015	0.293079
Zn10	Zn	1.171567	0.543015	0.543079
Zn11	Zn	1.421567	0.793015	0.793079
Zn12	Zn	1.671567	1.043015	1.043079
Zn13	Zn	0.921538	0.416021	0.416092
Zn14	Zn	1.171538	0.666021	0.666092
Zn15	Zn	1.421538	0.916021	0.916092
Zn16	Zn	1.671538	1.166021	1.166092
O17	O	0.978133	0.354523	0.354593
O18	O	1.228133	0.604523	0.604593
O19	O	1.478133	0.854523	0.854593
O20	O	1.728133	1.104523	1.104593
O21	O	1.129461	0.309325	0.399822
O22	O	1.379461	0.559325	0.649822
O23	O	1.629461	0.809325	0.899822
O24	O	1.879461	1.059325	1.149822
O25	O	1.019647	0.399768	0.190086
O26	O	1.269647	0.649768	0.440086
O27	O	1.519647	0.899768	0.690086
O28	O	1.769647	1.149768	0.940086
O29	O	0.936629	0.190028	0.309425
O30	O	1.186629	0.440028	0.559425
O31	O	1.436629	0.690028	0.809425
O32	O	1.686629	0.940028	1.059425
O33	O	1.129400	0.399745	0.309406
O34	O	1.379400	0.649745	0.559406
O35	O	1.629400	0.899745	0.809406
O36	O	1.879400	1.149745	1.059406
O37	O	1.019787	0.190011	0.399833
O38	O	1.269787	0.440011	0.649833
O39	O	1.519787	0.690011	0.899833
O40	O	1.769787	0.940011	1.149833
O41	O	0.936549	0.309365	0.190094
O42	O	1.186549	0.559365	0.440094
O43	O	1.436549	0.809365	0.690094
O44	O	1.686549	1.059365	0.940094
O45	O	0.826847	0.309324	0.309384
O46	O	1.076847	0.559324	0.559384
O47	O	1.326847	0.809324	0.809384
O48	O	1.576847	1.059324	1.059384
O49	O	0.936579	0.399674	0.519082
O50	O	1.186579	0.649674	0.769082
O51	O	1.436579	0.899674	1.019082
O52	O	1.686579	1.149674	1.269082
O53	O	0.826826	0.399696	0.399761
O54	O	1.076826	0.649696	0.649761
O55	O	1.326826	0.899696	0.899761
O56	O	1.576826	1.149696	1.149761
O57	O	1.019759	0.309285	0.519113
O58	O	1.269759	0.559285	0.769113
O59	O	1.519759	0.809285	1.019113
O60	O	1.769759	1.059285	1.269113
O61	O	1.019619	0.519042	0.309365
O62	O	1.269619	0.769042	0.559365
O63	O	1.519619	1.019042	0.809365
O64	O	1.769619	1.269042	1.059365
O65	O	0.936499	0.519011	0.399750
O66	O	1.186499	0.769011	0.649750
O67	O	1.436499	1.019011	0.899750
O68	O	1.686499	1.269011	1.149750
C69	C	0.802277	0.354509	0.354570
C70	C	1.052277	0.604509	0.604570
C71	C	1.302277	0.854509	0.854570
C72	C	1.552277	1.104509	1.104570
C73	C	0.727045	0.354520	0.354577
C74	C	0.977045	0.604520	0.604577
C75	C	1.227045	0.854520	0.854577
C76	C	1.477045	1.104520	1.104577
C77	C	0.978065	0.545729	0.354568
C78	C	1.228065	0.795729	0.604568
C79	C	1.478065	1.045729	0.854568
C80	C	1.728065	1.295729	1.104568
C81	C	0.978098	0.627528	0.354582
C82	C	1.228098	0.877528	0.604582
C83	C	1.478098	1.127528	0.854582
C84	C	1.728098	1.377528	1.104582
C85	C	1.021483	0.815713	0.307615
C86	C	1.271483	1.065713	0.557615
C87	C	1.521483	1.315713	0.807615
C88	C	1.771483	1.565713	1.057615
C89	C	1.021515	0.892572	0.307637
C90	C	1.271515	1.142572	0.557637
C91	C	1.521515	1.392572	0.807637
C92	C	1.771515	1.642572	1.057637
C93	C	0.934887	0.892580	0.401677
C94	C	1.184887	1.142580	0.651677
C95	C	1.434887	1.392580	0.901677
C96	C	1.684887	1.642580	1.151677
C97	C	0.934860	0.815723	0.401659
C98	C	1.184860	1.065723	0.651659
C99	C	1.434860	1.315723	0.901659
C100	C	1.684860	1.565723	1.151659
C101	C	0.978157	0.777291	0.354623
C102	C	1.228157	1.027291	0.604623
C103	C	1.478157	1.277291	0.854623
C104	C	1.728157	1.527291	1.104623
C105	C	0.978216	0.931007	0.354664
C106	C	1.228216	1.181007	0.604664
C107	C	1.478216	1.431007	0.854664
C108	C	1.728216	1.681007	1.104664
C109	C	0.978250	1.014341	0.354688
C110	C	1.228250	1.264341	0.604688
C111	C	1.478250	1.514341	0.854688
C112	C	1.728250	1.764341	1.104688
C113	C	0.978124	0.693952	0.354600
C114	C	1.228124	0.943952	0.604600
C115	C	1.478124	1.193952	0.854600
C116	C	1.728124	1.443952	1.104600
C117	C	0.691708	0.401648	0.401560
C118	C	0.941708	0.651648	0.651560
C119	C	1.191708	0.901648	0.901560
C120	C	1.441708	1.151648	1.151560
C121	C	0.621019	0.401649	0.401570
C122	C	0.871019	0.651649	0.651570
C123	C	1.121019	0.901649	0.901570
C124	C	1.371019	1.151649	1.151570
C125	C	0.585670	0.354526	0.354593
C126	C	0.835670	0.604526	0.604593
C127	C	1.085670	0.854526	0.854593
C128	C	1.335670	1.104526	1.104593
C129	C	0.621012	0.307393	0.307608
C130	C	0.871012	0.557393	0.557608
C131	C	1.121012	0.807393	0.807608
C132	C	1.371012	1.057393	1.057608
C133	C	0.691700	0.307389	0.307602
C134	C	0.941700	0.557389	0.557602
C135	C	1.191700	0.807389	0.807602
C136	C	1.441700	1.057389	1.057602
C137	C	0.335939	0.307410	0.307633
C138	C	0.585939	0.557410	0.557633
C139	C	0.835939	0.807410	0.807633
C140	C	1.085939	1.057410	1.057633
C141	C	0.265247	0.307419	0.307641
C142	C	0.515247	0.557419	0.557641
C143	C	0.765247	0.807419	0.807641
C144	C	1.015247	1.057419	1.057641
C145	C	0.265259	0.401670	0.401601
C146	C	0.515259	0.651670	0.651601
C147	C	0.765259	0.901670	0.901601
C148	C	1.015259	1.151670	1.151601
C149	C	0.335946	0.401666	0.401594
C150	C	0.585946	0.651666	0.651594
C151	C	0.835946	0.901666	0.901594
C152	C	1.085946	1.151666	1.151594
C153	C	0.371282	0.354530	0.354613
C154	C	0.621282	0.604530	0.604613
C155	C	0.871282	0.854530	0.854613
C156	C	1.121282	1.104530	1.104613
C157	C	0.447931	0.354529	0.354603
C158	C	0.697931	0.604529	0.604603
C159	C	0.947931	0.854529	0.854603
C160	C	1.197931	1.104529	1.104603
C161	C	0.509023	0.354531	0.354599
C162	C	0.759023	0.604531	0.604599
C163	C	1.009023	0.854531	0.854599
C164	C	1.259023	1.104531	1.104599
C165	C	1.154676	0.354537	0.354618
C166	C	1.404676	0.604537	0.604618
C167	C	1.654676	0.854537	0.854618
C168	C	1.904676	1.104537	1.104618
C169	C	1.229908	0.354544	0.354628
C170	C	1.479908	0.604544	0.604628
C171	C	1.729908	0.854544	0.854628
C172	C	1.979908	1.104544	1.104628
C173	C	0.978175	0.354472	0.546546
C174	C	1.228175	0.604472	0.796546
C175	C	1.478175	0.854472	1.046546
C176	C	1.728175	1.104472	1.296546
C177	C	0.978192	0.354450	0.628345
C178	C	1.228192	0.604450	0.878345
C179	C	1.478192	0.854450	1.128345
C180	C	1.728192	1.104450	1.378345
C181	C	0.978225	1.162570	0.354648
C182	C	1.228225	1.412570	0.604648
C183	C	1.478225	1.662570	0.854648
C184	C	1.728225	1.912570	1.104648
C185	C	0.978274	1.080771	0.354706
C186	C	1.228274	1.330771	0.604706
C187	C	1.478274	1.580771	0.854706
C188	C	1.728274	1.830771	1.104706
C189	C	0.978131	0.354520	0.163387
C190	C	1.228131	0.604520	0.413387
C191	C	1.478131	0.854520	0.663387
C192	C	1.728131	1.104520	0.913387
C193	C	0.978245	0.354334	0.081589
C194	C	1.228245	0.604334	0.331589
C195	C	1.478245	0.854334	0.581589
C196	C	1.728245	1.104334	0.831589
C197	C	1.021519	0.307341	0.816557
C198	C	1.271519	0.557341	1.066557
C199	C	1.521519	0.807341	1.316557
C200	C	1.771519	1.057341	1.566557
C201	C	1.021528	0.307319	0.893415
C202	C	1.271528	0.557319	1.143415
C203	C	1.521528	0.807319	1.393415
C204	C	1.771528	1.057319	1.643415
C205	C	0.934913	0.401446	0.893372
C206	C	1.184913	0.651446	1.143372
C207	C	1.434913	0.901446	1.393372
C208	C	1.684913	1.151446	1.643372
C209	C	0.934902	0.401463	0.816515
C210	C	1.184902	0.651463	1.066515
C211	C	1.434902	0.901463	1.316515
C212	C	1.684902	1.151463	1.566515
C213	C	0.978209	0.354412	0.778109
C214	C	1.228209	0.604412	1.028109
C215	C	1.478209	0.854412	1.278109
C216	C	1.728209	1.104412	1.528109
C217	C	0.978228	0.354373	0.931825
C218	C	1.228228	0.604373	1.181825
C219	C	1.478228	0.854373	1.431825
C220	C	1.728228	1.104373	1.681825
C221	C	0.978236	0.354350	1.015159
C222	C	1.228236	0.604350	1.265159
C223	C	1.478236	0.854350	1.515159
C224	C	1.728236	1.104350	1.765159
C225	C	0.978200	0.354433	0.694770
C226	C	1.228200	0.604433	0.944770
C227	C	1.478200	0.854433	1.194770
C228	C	1.728200	1.104433	1.444770
H229	H	1.056796	0.923852	0.269359
H230	H	1.306796	1.173852	0.519359
H231	H	1.556796	1.423852	0.769359
H232	H	1.806796	1.673852	1.019359
H233	H	0.364701	0.269035	0.269372
H234	H	0.614701	0.519035	0.519372
H235	H	0.864701	0.769035	0.769372
H236	H	1.114701	1.019035	1.019372
H237	H	0.899578	0.784437	0.439942
H238	H	1.149578	1.034437	0.689942
H239	H	1.399578	1.284437	0.939942
H240	H	1.649578	1.534437	1.189942
H241	H	0.899636	0.923880	0.439971
H242	H	1.149636	1.173880	0.689971
H243	H	1.399636	1.423880	0.939971
H244	H	1.649636	1.673880	1.189971
O245	O	0.582891	0.256584	0.256920
O246	O	0.832891	0.506584	0.506920
O247	O	1.082891	0.756584	0.756920
O248	O	1.332891	1.006584	1.006920
H249	H	0.527800	0.264516	0.264804
H250	H	0.777800	0.514516	0.514804
H251	H	1.027800	0.764516	0.764804
H252	H	1.277800	1.014516	1.014804
H253	H	0.364724	0.440041	0.439845
H254	H	0.614724	0.690041	0.689845
H255	H	0.864724	0.940041	0.939845
H256	H	1.114724	1.190041	1.189845
H257	H	0.236479	0.440047	0.439858
H258	H	0.486479	0.690047	0.689858
H259	H	0.736479	0.940047	0.939858
H260	H	0.986479	1.190047	1.189858
H261	H	1.056794	0.268988	0.924716
H262	H	1.306794	0.518988	1.174716
H263	H	1.556794	0.768988	1.424716
H264	H	1.806794	1.018988	1.674716
O265	O	0.227115	0.256585	0.256978
O266	O	0.477115	0.506585	0.506978
O267	O	0.727115	0.756585	0.756978
O268	O	0.977115	1.006585	1.006978
H269	H	0.263562	0.223802	0.224313
H270	H	0.513562	0.473802	0.474313
H271	H	0.763562	0.723802	0.724313
H272	H	1.013562	0.973802	0.974313
H273	H	0.720484	0.440024	0.439811
H274	H	0.970484	0.690024	0.689811
H275	H	1.220484	0.940024	0.939811
H276	H	1.470484	1.190024	1.189811
H277	H	0.720471	0.269009	0.269348
H278	H	0.970471	0.519009	0.519348
H279	H	1.220471	0.769009	0.769348
H280	H	1.470471	1.019009	1.019348
H281	H	0.592250	0.440026	0.439828
H282	H	0.842250	0.690026	0.689828
H283	H	1.092250	0.940026	0.939828
H284	H	1.342250	1.190026	1.189828
H285	H	0.899628	0.439794	0.785209
H286	H	1.149628	0.689794	1.035209
H287	H	1.399628	0.939794	1.285209
H288	H	1.649628	1.189794	1.535209
O289	O	1.068221	0.256590	0.775130
O290	O	1.318221	0.506590	1.025130
O291	O	1.568221	0.756590	1.275130
O292	O	1.818221	1.006590	1.525130
H293	H	1.098334	0.223850	0.814780
H294	H	1.348334	0.473850	1.064780
H295	H	1.598334	0.723850	1.314780
H296	H	1.848334	0.973850	1.564780
H297	H	0.899655	0.439756	0.924651
H298	H	1.149655	0.689756	1.174651
H299	H	1.399655	0.939756	1.424651
H300	H	1.649655	1.189756	1.674651
H301	H	1.056739	0.784424	0.269317
H302	H	1.306739	1.034424	0.519317
H303	H	1.556739	1.284424	0.769317
H304	H	1.806739	1.534424	1.019317
