data_functionalizedCrystal
_audit_creation_method	'MofGen! by Chris Wilmer'
_symmetry_space_group_name_H-M	'P1'
_symmetry_Int_Tables_number	1
_symmetry_cell_setting	triclinic
loop_
_symmetry_equiv_pos_as_xyz
  x,y,z
_cell_length_a	11.792241
_cell_length_b	18.366186
_cell_length_c	19.288865
_cell_angle_alpha	90.011479
_cell_angle_beta	83.664832
_cell_angle_gamma	90.004833
loop_
_atom_site_label
_atom_site_type_symbol
_atom_site_fract_x
_atom_site_fract_y
_atom_site_fract_z
O1	O	1.505472	0.060488	0.095201
O2	O	1.174982	0.060506	0.105012
O3	O	1.349777	0.060482	-0.000970
O4	O	1.330678	0.060512	0.201182
O5	O	1.349747	-0.060617	-0.000975
O6	O	1.174953	-0.060593	0.105007
O7	O	1.505442	-0.060611	0.095195
Zn8	Zn	1.340193	-0.079829	0.100100
Zn9	Zn	1.340232	0.079724	0.100107
O10	O	1.330648	-0.060587	0.201177
C11	C	1.132686	-0.000042	0.104393
C12	C	1.006700	-0.000035	0.102548
N13	N	1.340174	-0.188721	0.100095
C14	C	1.417599	-0.226832	0.053190
C15	C	1.417606	-0.303059	0.053186
C16	C	1.340200	-0.341173	0.100101
C17	C	1.262761	-0.303053	0.147010
C18	C	1.262748	-0.226827	0.147007
C19	C	1.325007	-0.461924	0.163302
C20	C	1.325027	-0.538149	0.163306
C21	C	1.340232	-0.576281	0.100110
C22	C	1.355440	-0.538179	0.036907
C23	C	1.355428	-0.461952	0.036904
C24	C	1.340204	-0.423828	0.100109
C25	C	1.417668	-0.697047	0.053197
C26	C	1.417667	-0.773276	0.053193
C27	C	1.262828	-0.773268	0.147022
C28	C	1.262823	-0.697041	0.147020
C29	C	1.340249	-0.658934	0.100108
C30	C	0.776039	-0.000057	0.099156
C31	C	0.904396	-0.000045	0.101041
C32	C	1.547739	-0.000062	0.095814
C33	C	1.673725	-0.000063	0.097659
C34	C	1.349147	-0.000070	-0.026852
C35	C	1.347303	-0.000076	-0.103966
N36	N	1.340259	0.188615	0.100107
C37	C	1.449864	-0.000085	-0.148080
C38	C	1.448131	-0.000074	-0.220537
C39	C	1.343830	-0.000067	-0.248877
C40	C	1.241255	-0.000054	-0.204754
C41	C	1.242992	-0.000058	-0.132298
C42	C	1.261828	-0.042481	-0.357632
C43	C	1.260096	-0.042482	-0.430086
C44	C	1.338472	-0.000051	-0.472353
C45	C	1.418598	0.042371	-0.442158
C46	C	1.420334	0.042366	-0.369703
C47	C	1.341936	-0.000062	-0.327442
C48	C	1.439161	-0.000046	-0.595033
C49	C	1.437423	-0.000030	-0.667491
C50	C	1.230545	-0.000018	-0.651706
C51	C	1.232285	-0.000027	-0.579250
C52	C	1.336596	-0.000044	-0.550918
C53	C	1.331277	-0.000034	0.227060
C54	C	1.333122	-0.000023	0.304174
H55	H	1.480641	-0.195808	0.014990
C56	C	1.171963	-0.089143	-0.463295
H57	H	1.125520	-0.114403	-0.427746
H58	H	1.210508	-0.123262	-0.494560
H59	H	1.125469	-0.058544	-0.488057
H60	H	1.198002	-0.077038	-0.323224
C61	C	1.502820	-0.655127	0.001590
H62	H	1.548922	-0.688745	-0.026354
H63	H	1.549930	-0.625379	0.026768
H64	H	1.462131	-0.625403	-0.027493
H65	H	1.199699	-0.195796	0.185203
H66	H	1.534802	-0.000097	-0.125017
C67	C	1.115816	-0.000009	-0.682872
H68	H	1.129470	-0.000011	-0.732342
H69	H	1.073612	0.042222	-0.667743
H70	H	1.073592	-0.042243	-0.667766
H71	H	1.199734	-0.334089	0.185207
H72	H	1.199798	-0.804300	0.185218
H73	H	1.312605	-0.430883	0.214768
H74	H	1.531651	-0.000078	-0.256461
H75	H	1.148769	-0.000024	-0.543331
H76	H	1.485574	0.076909	-0.345121
H77	H	1.156333	-0.000048	-0.227833
C78	C	1.308300	-0.580058	0.232823
H79	H	1.310499	-0.630916	0.223776
H80	H	1.236590	-0.567569	0.257292
H81	H	1.367512	-0.567549	0.260287
C82	C	1.177679	-0.655113	0.198628
H83	H	1.188755	-0.604257	0.191907
H84	H	1.189774	-0.667596	0.245033
H85	H	1.101969	-0.667612	0.190775
C86	C	1.502832	-0.815202	0.001593
H87	H	1.491742	-0.866058	0.008306
H88	H	1.578533	-0.802702	0.009450
H89	H	1.490742	-0.802719	-0.044817
C90	C	1.502778	-0.344990	0.001590
H91	H	1.548890	-0.311378	-0.026347
H92	H	1.462112	-0.374741	-0.027491
H93	H	1.549893	-0.374712	0.026781
C94	C	1.130169	-0.000055	-0.083771
H95	H	1.067800	-0.000053	-0.111024
H96	H	1.126556	0.042170	-0.055165
H97	H	1.126539	-0.042295	-0.055193
H98	H	1.367808	-0.430932	-0.014558
C99	C	1.504810	0.089052	-0.488641
H100	H	1.492294	0.082988	-0.536116
H101	H	1.580183	0.074133	-0.482503
H102	H	1.495121	0.138839	-0.475988
H103	H	1.524097	-0.000057	-0.571964
H104	H	1.520945	-0.000034	-0.703409
H105	H	1.367821	-0.569224	-0.014554
