data_functionalizedCrystal
_audit_creation_method	'MofGen! by Chris Wilmer'
_symmetry_space_group_name_H-M	'P1'
_symmetry_Int_Tables_number	1
_symmetry_cell_setting	triclinic
loop_
_symmetry_equiv_pos_as_xyz
  x,y,z
_cell_length_a	16.109301
_cell_length_b	16.109301
_cell_length_c	15.186229
_cell_angle_alpha	89.994833
_cell_angle_beta	89.999362
_cell_angle_gamma	83.461481
loop_
_atom_site_label
_atom_site_type_symbol
_atom_site_fract_x
_atom_site_fract_y
_atom_site_fract_z
O1	O	1.103131	0.106866	-0.073176
O2	O	0.861069	0.120165	-0.073190
O3	O	0.988749	-0.007515	-0.073174
O4	O	0.975450	0.234547	-0.073192
O5	O	0.988741	-0.007517	0.073284
O6	O	0.861060	0.120164	0.073267
O7	O	1.103122	0.106864	0.073282
Zn8	Zn	0.982090	0.113514	0.096528
Zn9	Zn	0.982101	0.113516	-0.096436
O10	O	0.975441	0.234545	0.073265
C11	C	0.830090	0.119626	0.000037
C12	C	0.737794	0.118011	0.000032
C13	C	0.515522	0.190018	0.000036
C14	C	0.428801	0.188494	0.000042
C15	C	0.448676	0.037006	0.000050
C16	C	0.535394	0.038530	0.000051
C17	C	0.568815	0.115039	0.000039
C18	C	0.395376	0.111990	0.000045
C19	C	0.301350	0.110337	0.000051
C20	C	0.662847	0.116693	0.000035
C21	C	0.988206	-0.038491	0.000056
C22	C	0.986591	-0.130786	0.000057
C23	C	1.058599	-0.353059	0.000047
C24	C	1.057075	-0.439779	0.000040
C25	C	0.905586	-0.419905	0.000034
C26	C	0.907111	-0.333186	0.000035
C27	C	0.983620	-0.299766	0.000046
C28	C	0.980571	-0.473205	0.000038
C29	C	0.978918	-0.567231	0.000030
C30	C	0.985273	-0.205734	0.000052
C31	C	1.134101	0.107404	0.000053
C32	C	1.226397	0.109019	0.000052
C33	C	0.975984	0.265521	0.000034
C34	C	0.977600	0.357816	0.000027
N35	N	0.982088	0.113511	0.228220
N36	N	0.982109	0.113512	-0.228129
C37	C	1.038644	0.056994	0.453950
C38	C	1.038647	0.056992	0.546140
C39	C	0.925547	0.170032	0.546135
C40	C	0.925541	0.170030	0.453947
C41	C	0.982094	0.113511	0.407857
C42	C	0.982103	0.113512	0.592235
C43	C	0.982105	0.113510	0.692191
C44	C	0.982091	0.113512	0.307894
H45	H	1.120897	-0.325851	0.000054
C46	C	0.412227	-0.045973	0.000009
C47	C	0.324875	-0.031263	-0.000018
C48	C	0.291273	-0.107685	-0.000070
H49	H	0.430428	-0.076912	0.051069
H50	H	0.430477	-0.076849	-0.051083
H51	H	0.306633	-0.000400	0.051069
H52	H	0.306652	-0.000337	-0.051074
H53	H	0.309523	-0.138560	-0.051162
H54	H	0.309480	-0.138618	0.050991
H55	H	0.232002	-0.097714	-0.000096
C56	C	0.551693	0.273143	-0.000105
C57	C	0.524583	0.318483	-0.075442
C58	C	0.557874	0.395068	-0.075593
H59	H	0.610969	0.263436	-0.000151
H60	H	0.533372	0.304055	0.050942
H61	H	0.542908	0.287578	-0.126476
H62	H	0.465311	0.328212	-0.075412
H63	H	0.539554	0.425979	-0.024547
H64	H	0.617150	0.385352	-0.075637
H65	H	0.539479	0.425843	-0.126704
C66	C	0.822583	-0.456308	-0.000105
C67	C	0.817293	-0.505526	-0.075442
C68	C	0.740847	-0.539081	-0.075591
H69	H	0.778074	-0.412234	-0.000152
H70	H	0.818833	-0.489775	0.050942
H71	H	0.821036	-0.472061	-0.126476
H72	H	0.861785	-0.549613	-0.075411
H73	H	0.737096	-0.572548	-0.024544
H74	H	0.696343	-0.495002	-0.075636
H75	H	0.737250	-0.572485	-0.126701
C76	C	0.825610	-0.275456	0.000079
C77	C	0.758280	-0.323283	0.000100
C78	C	0.683194	-0.270131	0.000149
H79	H	0.822941	-0.241191	-0.050980
H80	H	0.823011	-0.241229	0.051172
H81	H	0.760878	-0.357495	-0.050988
H82	H	0.760921	-0.357545	0.051156
H83	H	0.680594	-0.235905	0.051242
H84	H	0.680534	-0.235869	-0.050912
H85	H	0.637502	-0.302573	0.000171
H86	H	0.385413	0.249550	0.000041
C87	C	1.099941	-0.004526	0.403979
C88	C	1.086444	-0.086216	0.426428
C89	C	1.142886	-0.142922	0.380417
H90	H	1.155461	0.004398	0.419052
H91	H	1.091852	0.003489	0.342460
H92	H	1.094540	-0.094228	0.487933
H93	H	1.030935	-0.095167	0.411353
H94	H	1.134797	-0.134907	0.318898
H95	H	1.198403	-0.133990	0.395493
H96	H	1.133731	-0.198355	0.395635
C97	C	0.593125	-0.042971	0.000008
C98	C	0.545298	-0.110300	-0.000013
C99	C	0.598450	-0.185387	-0.000060
H100	H	0.627384	-0.045643	0.051068
H101	H	0.627356	-0.045566	-0.051084
H102	H	0.511081	-0.107706	0.051074
H103	H	0.511040	-0.107655	-0.051069
H104	H	0.632681	-0.187982	-0.051153
H105	H	0.632706	-0.188051	0.051001
H106	H	0.566007	-0.231079	-0.000083
H107	H	0.879503	0.216049	0.583670
H108	H	0.879487	0.216053	0.416415
C109	C	1.138572	-0.497502	0.000089
C110	C	1.205896	-0.449669	0.000120
C111	C	1.280987	-0.502814	0.000175
H112	H	1.141249	-0.531757	-0.050972
H113	H	1.141169	-0.531739	0.051180
H114	H	1.203301	-0.415447	-0.050967
H115	H	1.203247	-0.415416	0.051176
H116	H	1.283584	-0.537051	0.051267
H117	H	1.283656	-0.537066	-0.050886
H118	H	1.326676	-0.470367	0.000204
H119	H	1.084694	0.010969	0.583667
