data_functionalizedCrystal
_audit_creation_method	'MofGen! by Chris Wilmer'
_symmetry_space_group_name_H-M	'P1'
_symmetry_Int_Tables_number	1
_symmetry_cell_setting	triclinic
loop_
_symmetry_equiv_pos_as_xyz
  x,y,z
_cell_length_a	12.827893
_cell_length_b	21.295417
_cell_length_c	12.827893
_cell_angle_alpha	90.015771
_cell_angle_beta	90.003976
_cell_angle_gamma	90.030477
loop_
_atom_site_label
_atom_site_type_symbol
_atom_site_fract_x
_atom_site_fract_y
_atom_site_fract_z
Zn1	Zn	1.597402	-0.250718	0.590788
Zn2	Zn	2.097402	0.249282	1.090788
Zn3	Zn	1.597297	-0.355959	0.416023
Zn4	Zn	2.097297	0.144041	0.916023
Zn5	Zn	1.422690	-0.250708	0.416062
Zn6	Zn	1.922690	0.249292	0.916062
Zn7	Zn	1.422583	-0.355953	0.590723
Zn8	Zn	1.922583	0.144047	1.090723
O9	O	1.509993	-0.303334	0.503399
O10	O	2.009993	0.196666	1.003399
O11	O	1.743624	-0.264685	0.567616
O12	O	2.243624	0.235315	1.067616
O13	O	1.574136	-0.341995	0.269792
O14	O	2.074136	0.158005	0.769792
O15	O	1.445955	-0.162620	0.439283
O16	O	1.945955	0.337380	0.939283
O17	O	1.743547	-0.342005	0.439217
O18	O	2.243547	0.157995	0.939217
O19	O	1.574315	-0.162627	0.567653
O20	O	2.074315	0.337373	1.067653
O21	O	1.445853	-0.264667	0.269820
O22	O	1.945853	0.235333	0.769820
O23	O	1.276440	-0.264662	0.439220
O24	O	1.776440	0.235338	0.939220
O25	O	1.445772	-0.341995	0.736967
O26	O	1.945772	0.158005	1.236967
O27	O	1.276361	-0.341985	0.567542
O28	O	1.776361	0.158015	1.067542
O29	O	1.574211	-0.264680	0.737015
O30	O	2.074211	0.235320	1.237015
O31	O	1.574031	-0.444048	0.439154
O32	O	2.074031	0.055952	0.939154
O33	O	1.445670	-0.444043	0.567505
O34	O	1.945670	0.055957	1.067505
C35	C	1.238483	-0.303322	0.503379
C36	C	1.738483	0.196678	1.003379
C37	C	1.122330	-0.303332	0.503395
C38	C	1.622330	0.196668	1.003395
C39	C	1.070534	-0.341654	0.566795
C40	C	1.570534	0.158346	1.066795
C41	C	0.950483	-0.341665	0.566814
C42	C	1.450483	0.158335	1.066814
C43	C	1.509856	-0.466886	0.503341
C44	C	2.009856	0.033114	1.003341
C45	C	1.509893	-0.536854	0.503351
C46	C	2.009893	-0.036854	1.003351
C47	C	1.576790	-0.569702	0.436587
C48	C	2.076790	-0.069702	0.936587
C49	C	1.576839	-0.635445	0.436611
C50	C	2.076839	-0.135445	0.936611
C51	C	1.509972	-0.668337	0.503387
C52	C	2.009972	-0.168337	1.003387
C53	C	1.443070	-0.635481	0.570164
C54	C	1.943070	-0.135481	1.070164
C55	C	1.443031	-0.569739	0.570146
C56	C	1.943031	-0.069739	1.070146
N57	N	1.418553	-0.771604	0.511347
N58	N	1.918553	-0.271604	1.011347
N59	N	1.418594	-0.834055	0.511358
N60	N	1.918594	-0.334055	1.011358
C61	C	1.510089	-0.866411	0.503447
C62	C	2.010089	-0.366411	1.003447
N63	N	1.601544	-0.833957	0.495504
N64	N	2.101544	-0.333957	0.995504
N65	N	1.601502	-0.771500	0.495488
N66	N	2.101502	-0.271500	0.995488
C67	C	1.510008	-0.739622	0.503414
C68	C	2.010008	-0.239622	1.003414
C69	C	1.577045	-0.970545	0.436705
C70	C	2.077045	-0.470545	0.936705
C71	C	1.577096	-1.036289	0.436736
C72	C	2.077096	-0.536289	0.936736
C73	C	1.443318	-1.036323	0.570284
C74	C	1.943318	-0.536323	1.070284
C75	C	1.443276	-0.970581	0.570258
C76	C	1.943276	-0.470581	1.070258
C77	C	1.510139	-0.937696	0.503463
C78	C	2.010139	-0.437696	1.003463
C79	C	1.782563	-0.303347	0.503419
C80	C	2.282563	0.196653	1.003419
C81	C	1.898716	-0.303352	0.503428
C82	C	2.398716	0.196648	1.003428
C83	C	1.509991	-0.303338	0.775969
C84	C	2.009991	0.196662	1.275969
C85	C	1.509990	-0.303340	0.892122
C86	C	2.009990	0.196660	1.392122
C87	C	1.510159	-0.139144	0.503480
C88	C	2.010159	0.360856	1.003480
C89	C	1.510230	-0.069176	0.503514
C90	C	2.010230	0.430824	1.003514
C91	C	1.573537	-0.265088	1.063975
C92	C	2.073537	0.234912	1.563975
C93	C	1.573539	-0.265086	0.943924
C94	C	2.073539	0.234914	1.443924
C95	C	1.509987	-0.303345	1.231889
C96	C	2.009987	0.196655	1.731889
C97	C	1.509987	-0.303343	1.115736
C98	C	2.009987	0.196657	1.615736
H99	H	1.077798	-0.270529	0.449134
H100	H	1.577798	0.229471	0.949134
O101	O	1.642271	-1.068102	0.371932
O102	O	2.142271	-0.568102	0.871932
C103	C	1.746369	-1.051943	0.394917
C104	C	2.246369	-0.551943	0.894917
H105	H	1.748400	-1.004207	0.435107
H106	H	2.248400	-0.504207	0.935107
H107	H	1.793307	-1.049650	0.319554
H108	H	2.293307	-0.549650	0.819554
H109	H	1.781576	-1.088906	0.448673
H110	H	2.281576	-0.588906	0.948673
O111	O	1.638595	-0.226082	1.117079
O112	O	2.138595	0.273918	1.617079
C113	C	1.742758	-0.239818	1.090464
C114	C	2.242758	0.260182	1.590464
H115	H	1.748012	-0.290090	1.060367
H116	H	2.248012	0.209910	1.560367
H117	H	1.794326	-0.234437	1.162297
H118	H	2.294326	0.265563	1.662297
H119	H	1.770163	-0.206034	1.027210
H120	H	2.270163	0.293966	1.527210
O121	O	1.638301	-0.225976	0.890718
O122	O	2.138301	0.274024	1.390718
C123	C	1.578783	-0.185338	0.827625
C124	C	2.078783	0.314662	1.327625
H125	H	1.499555	-0.207547	0.811359
H126	H	1.999555	0.292453	1.311359
H127	H	1.621287	-0.176937	0.750838
H128	H	2.121287	0.323063	1.250838
H129	H	1.567380	-0.138669	0.869656
H130	H	2.067380	0.361331	1.369656
H131	H	1.115066	-0.374452	0.621065
H132	H	1.615066	0.125548	1.121065
H133	H	1.455574	-0.336089	0.936629
H134	H	1.955574	0.163911	1.436629
O135	O	0.951795	-0.264276	0.438515
O136	O	1.451795	0.235724	0.938515
C137	C	0.925146	-0.277913	0.334303
C138	C	1.425146	0.222087	0.834303
H139	H	0.895038	-0.328182	0.328851
H140	H	1.395038	0.171818	0.828851
H141	H	0.996965	-0.272476	0.282744
H142	H	1.496965	0.227524	0.782744
H143	H	0.861890	-0.244108	0.307043
H144	H	1.361890	0.255892	0.807043
O145	O	0.897191	-0.380749	0.631539
O146	O	1.397191	0.119251	1.131539
C147	C	0.789192	-0.372067	0.617135
C148	C	1.289192	0.127933	1.117135
H149	H	0.774412	-0.323448	0.583047
H150	H	1.274412	0.176552	1.083047
H151	H	0.747650	-0.376392	0.695366
H152	H	1.247650	0.123608	1.195366
H153	H	0.758181	-0.409339	0.561348
H154	H	1.258181	0.090661	1.061348
O155	O	1.641847	-0.537856	0.371682
O156	O	2.141847	-0.037856	0.871682
C157	C	1.700887	-0.580952	0.312742
C158	C	2.200887	-0.080952	0.812742
H159	H	1.704491	-0.627802	0.355560
H160	H	2.204491	-0.127802	0.855560
H161	H	1.783223	-0.561919	0.301667
H162	H	2.283223	-0.061919	0.801667
H163	H	1.662691	-0.587982	0.233342
H164	H	2.162691	-0.087982	0.733342
H165	H	1.631319	-0.662195	0.382244
H166	H	2.131319	-0.162195	0.882244
H167	H	1.388628	-0.662266	0.624536
H168	H	1.888628	-0.162266	1.124536
H169	H	1.388554	-0.542994	0.624515
H170	H	1.888554	-0.042994	1.124515
H171	H	1.631492	-0.943769	0.382319
H172	H	2.131492	-0.443769	0.882319
O173	O	1.378400	-1.068364	0.635057
O174	O	1.878400	-0.568364	1.135057
C175	C	1.392802	-1.133434	0.620782
C176	C	1.892802	-0.633434	1.120782
H177	H	1.427094	-1.142417	0.540167
H178	H	1.927094	-0.642417	1.040167
H179	H	1.314537	-1.158461	0.627815
H180	H	1.814537	-0.658461	1.127815
H181	H	1.448417	-1.152040	0.682820
H182	H	1.948417	-0.652040	1.182820
O183	O	1.445227	-0.342447	1.062465
O184	O	1.945227	0.157553	1.562465
C185	C	1.504747	-0.383081	0.999336
C186	C	2.004747	0.116919	1.499336
H187	H	1.583979	-0.360873	0.983116
H188	H	2.083979	0.139127	1.483116
H189	H	1.462249	-0.391471	0.922529
H190	H	1.962249	0.108529	1.422529
H191	H	1.516141	-0.429755	1.041313
H192	H	2.016141	0.070245	1.541313
H193	H	1.388798	-0.943834	0.624620
H194	H	1.888798	-0.443834	1.124620
