data_functionalizedCrystal
_audit_creation_method	'MofGen! by Chris Wilmer'
_symmetry_space_group_name_H-M	'P1'
_symmetry_Int_Tables_number	1
_symmetry_cell_setting	triclinic
loop_
_symmetry_equiv_pos_as_xyz
  x,y,z
_cell_length_a	8.559649
_cell_length_b	7.088929
_cell_length_c	8.597304
_cell_angle_alpha	76.027438
_cell_angle_beta	102.375399
_cell_angle_gamma	84.675669
loop_
_atom_site_label
_atom_site_type_symbol
_atom_site_fract_x
_atom_site_fract_y
_atom_site_fract_z
O1	O	-2.103774	-0.153102	-0.035735
O2	O	-1.638457	-0.166684	0.046709
O3	O	-1.884153	-0.121352	-0.228463
O4	O	-1.858079	-0.198434	0.239437
O5	O	-1.916987	0.202693	-0.265311
O6	O	-1.671292	0.157362	0.009861
O7	O	-2.136609	0.170943	-0.072583
Cu8	Cu	-1.906948	0.193740	-0.034726
Cu9	Cu	-1.868118	-0.189481	0.008851
O10	O	-1.890913	0.125612	0.202589
C11	C	-1.595336	-0.005690	0.034533
C12	C	-1.417931	-0.008754	0.053131
C13	C	-1.899599	0.050443	-0.306233
C14	C	-1.896688	0.079562	-0.483064
N15	N	-1.934272	0.463278	-0.065378
C16	C	-1.179730	0.009949	-0.060407
C17	C	-1.357135	0.013012	-0.079005
N18	N	-1.840807	-0.459016	0.039489
C19	C	-1.875466	-0.046188	0.280359
C20	C	-1.878376	-0.075319	0.457192
H21	H	-1.440805	0.033981	-0.206358
H22	H	-1.334249	-0.029745	0.180495
C23	C	-1.932339	0.426116	-0.506431
C24	C	-1.914834	0.288678	-0.596633
H25	H	-1.943530	0.555210	-0.576544
H26	H	-2.025823	0.412078	-0.464398
H27	H	-1.839517	0.404284	-0.417191
H28	H	-2.007661	0.310500	-0.685866
H29	H	-1.821340	0.302723	-0.638692
C30	C	-1.627972	0.521371	0.278280
C31	C	-1.710032	0.406609	0.186198
H32	H	-1.547244	0.438400	0.368858
H33	H	-1.578493	0.610705	0.209963
H34	H	-1.702528	0.592815	0.318489
H35	H	-1.635478	0.335176	0.145978
H36	H	-1.759512	0.317240	0.254526
H37	H	-2.031155	0.562836	-0.174049
H38	H	-1.864920	-0.230209	-0.458674
