data_functionalizedCrystal
_audit_creation_method	'MofGen! by Chris Wilmer'
_symmetry_space_group_name_H-M	'P1'
_symmetry_Int_Tables_number	1
_symmetry_cell_setting	triclinic
loop_
_symmetry_equiv_pos_as_xyz
  x,y,z
_cell_length_a	9.616153
_cell_length_b	11.792241
_cell_length_c	11.792254
_cell_angle_alpha	95.803993
_cell_angle_beta	90.002416
_cell_angle_gamma	89.997326
loop_
_atom_site_label
_atom_site_type_symbol
_atom_site_fract_x
_atom_site_fract_y
_atom_site_fract_z
O1	O	0.115511	-1.506920	0.155562
O2	O	0.115544	-1.176580	0.171595
O3	O	0.115517	-1.349759	-0.001591
O4	O	0.115538	-1.333741	0.328748
O5	O	-0.115775	-1.349735	-0.001587
O6	O	-0.115748	-1.176556	0.171599
O7	O	-0.115780	-1.506896	0.155566
Zn8	Zn	-0.152486	-1.341722	0.163583
Zn9	Zn	0.152250	-1.341754	0.163578
O10	O	-0.115753	-1.333717	0.328752
C11	C	-0.000098	-1.134277	0.170590
C12	C	-0.000086	-1.008263	0.167576
N13	N	-0.360461	-1.341709	0.163586
C14	C	-0.000128	-1.348738	-0.043880
C15	C	-0.000127	-1.345718	-0.169893
C16	C	-0.580817	-1.248789	0.255919
C17	C	-0.419649	-1.248992	0.256264
C18	C	-0.418920	-1.460302	0.190183
C19	C	-0.580138	-1.459795	0.190836
C20	C	-0.580377	-1.317220	0.044349
C21	C	-0.419150	-1.314494	0.045131
N22	N	0.360224	-1.341776	0.163567
C23	C	-0.000135	-1.549199	0.156571
C24	C	-0.000139	-1.675213	0.159586
C25	C	-0.000126	-0.777551	0.162033
C26	C	-0.000104	-0.905936	0.165112
C27	C	-0.000122	-1.343264	-0.272229
C28	C	-0.000108	-1.340196	-0.400616
C29	C	-0.000105	-1.334738	0.371041
C30	C	-0.000098	-1.337758	0.497054
H31	H	-0.380127	-1.160864	0.240309
N32	N	-0.370821	-1.549202	0.108078
N33	N	-0.292731	-1.526091	0.028858
H34	H	-0.258758	-1.588874	-0.029132
N35	N	-0.368236	-1.487913	0.298044
N36	N	-0.289079	-1.420449	0.355505
H37	H	-0.253283	-1.439943	0.431685
N38	N	-0.627271	-1.486780	0.299946
N39	N	-0.594011	-1.424545	0.387890
H40	H	-0.627289	-1.443600	0.464954
H41	H	-0.618504	-1.385022	-0.024385
H42	H	-0.619620	-1.160384	0.240215
H43	H	-0.621108	-1.232588	0.018953
H44	H	-0.621311	-1.264333	0.343875
H45	H	-0.619137	-1.531189	0.126262
N46	N	-0.371220	-1.205047	0.019842
N47	N	-0.294119	-1.147244	0.088743
H48	H	-0.260259	-1.069946	0.070886
H49	H	-0.381066	-1.264742	0.344720
H50	H	-0.378866	-1.377758	-0.026868
