data_functionalizedCrystal
_audit_creation_method	'MofGen! by Chris Wilmer'
_symmetry_space_group_name_H-M	'P1'
_symmetry_Int_Tables_number	1
_symmetry_cell_setting	triclinic
loop_
_symmetry_equiv_pos_as_xyz
  x,y,z
_cell_length_a	11.169416
_cell_length_b	21.395362
_cell_length_c	21.395355
_cell_angle_alpha	90.043940
_cell_angle_beta	90.010927
_cell_angle_gamma	90.026221
loop_
_atom_site_label
_atom_site_type_symbol
_atom_site_fract_x
_atom_site_fract_y
_atom_site_fract_z
Zn1	Zn	-0.477437	0.957948	0.354619
Zn2	Zn	0.022563	1.457948	0.854619
Zn3	Zn	-0.678108	0.957888	0.249855
Zn4	Zn	-0.178108	1.457888	0.749855
Zn5	Zn	-0.477493	0.853163	0.249820
Zn6	Zn	0.022507	1.353163	0.749820
Zn7	Zn	-0.678133	0.853169	0.354560
Zn8	Zn	-0.178133	1.353169	0.854560
O9	O	-0.577793	0.905542	0.302213
O10	O	-0.077793	1.405542	0.802213
O11	O	-0.504023	1.045618	0.340761
O12	O	-0.004023	1.545618	0.840761
O13	O	-0.651509	0.943968	0.162172
O14	O	-0.151509	1.443968	0.662172
O15	O	-0.309536	0.867086	0.263732
O16	O	0.190464	1.367086	0.763732
O17	O	-0.651455	1.045574	0.263792
O18	O	-0.151455	1.545574	0.763792
O19	O	-0.309495	0.944071	0.340727
O20	O	0.190505	1.444071	0.840727
O21	O	-0.504118	0.867027	0.162147
O22	O	-0.004118	1.367027	0.662147
O23	O	-0.504142	0.765486	0.263675
O24	O	-0.004142	1.265486	0.763675
O25	O	-0.651497	0.867096	0.442246
O26	O	-0.151497	1.367096	0.942246
O27	O	-0.651551	0.765491	0.340627
O28	O	-0.151551	1.265491	0.840627
O29	O	-0.504047	0.944077	0.442289
O30	O	-0.004047	1.444077	0.942289
O31	O	-0.846061	0.943974	0.263734
O32	O	-0.346061	1.443974	0.763734
O33	O	-0.846079	0.867038	0.340661
O34	O	-0.346079	1.367038	0.840661
C35	C	-0.577856	0.742754	0.302141
C36	C	-0.077856	1.242754	0.802141
C37	C	-0.577912	0.673113	0.302124
C38	C	-0.077912	1.173113	0.802124
C39	C	-0.889618	0.905517	0.302209
C40	C	-0.389618	1.405517	0.802209
C41	C	-1.023018	0.905564	0.302228
C42	C	-0.523018	1.405564	0.802228
C43	C	-0.654770	0.640419	0.342133
C44	C	-0.154770	1.140419	0.842133
C45	C	-0.654741	0.574984	0.342161
C46	C	-0.154741	1.074984	0.842161
C47	C	-0.577866	0.542245	0.302169
C48	C	-0.077866	1.042245	0.802169
C49	C	-0.500994	0.574947	0.262157
C50	C	-0.000994	1.074947	0.762157
C51	C	-0.501017	0.640381	0.262135
C52	C	-0.001017	1.140381	0.762135
C53	C	-0.568198	0.438518	0.245763
C54	C	-0.068198	0.938518	0.745763
C55	C	-0.568183	0.373085	0.245784
C56	C	-0.068183	0.873085	0.745784
C57	C	-0.577788	0.340424	0.302238
C58	C	-0.077788	0.840424	0.802238
C59	C	-0.587433	0.373204	0.358673
C60	C	-0.087433	0.873204	0.858673
C61	C	-0.587456	0.438638	0.358650
C62	C	-0.087456	0.938638	0.858650
C63	C	-0.577832	0.471293	0.302189
C64	C	-0.077832	0.971293	0.802189
C65	C	-0.654618	0.236777	0.342281
C66	C	-0.154618	0.736777	0.842281
C67	C	-0.654580	0.171341	0.342310
C68	C	-0.154580	0.671341	0.842310
C69	C	-0.500839	0.171306	0.262300
C70	C	-0.000839	0.671306	0.762300
C71	C	-0.500871	0.236741	0.262277
C72	C	-0.000871	0.736741	0.762277
C73	C	-0.577766	0.269473	0.302266
C74	C	-0.077766	0.769473	0.802266
C75	C	-0.264751	0.905584	0.302232
C76	C	0.235249	1.405584	0.802232
C77	C	-0.131351	0.905602	0.302240
C78	C	0.368649	1.405602	0.802240
C79	C	-0.577769	0.905594	0.465637
C80	C	-0.077769	1.405594	0.965637
C81	C	-0.577758	0.905616	0.535278
C82	C	-0.077758	1.405616	1.035278
C83	C	-0.577730	1.068965	0.302287
C84	C	-0.077730	1.568965	0.802287
C85	C	-0.577703	1.138607	0.302318
C86	C	-0.077703	1.638607	0.802318
C87	C	-0.577731	0.905526	0.139426
C88	C	-0.077731	1.405526	0.639426
C89	C	-0.577403	0.905626	0.069785
C90	C	-0.077403	1.405626	0.569785
C91	C	-0.500978	0.945698	0.568015
C92	C	-0.000978	1.445698	1.068015
C93	C	-0.500926	0.945697	0.633450
C94	C	-0.000926	1.445697	1.133450
C95	C	-0.577676	0.905621	0.666146
C96	C	-0.077676	1.405621	1.166146
C97	C	-0.654462	0.865531	0.633402
C98	C	-0.154462	1.365531	1.133402
C99	C	-0.654503	0.865529	0.567968
C100	C	-0.154503	1.365529	1.067968
C101	C	-0.685744	0.900665	0.769818
C102	C	-0.185744	1.400665	1.269818
C103	C	-0.685705	0.900672	0.835251
C104	C	-0.185705	1.400672	1.335251
C105	C	-0.577550	0.905625	0.867967
C106	C	-0.077550	1.405625	1.367967
C107	C	-0.469429	0.910584	0.835243
C108	C	0.030571	1.410584	1.335243
C109	C	-0.469470	0.910582	0.769809
C110	C	0.030530	1.410582	1.269809
C111	C	-0.577640	0.905619	0.737099
C112	C	-0.077640	1.405619	1.237099
C113	C	-0.500707	0.945708	0.971656
C114	C	-0.000707	1.445708	1.471656
C115	C	-0.500653	0.945703	1.037093
C116	C	-0.000653	1.445703	1.537093
C117	C	-0.654200	0.865540	1.037044
C118	C	-0.154200	1.365540	1.537044
C119	C	-0.654243	0.865542	0.971608
C120	C	-0.154243	1.365542	1.471608
C121	C	-0.577498	0.905630	0.938919
C122	C	-0.077498	1.405630	1.438919
H123	H	-0.717383	0.667065	0.374697
H124	H	-0.217383	1.167065	0.874697
H125	H	-0.560371	0.465106	0.199789
H126	H	-0.060371	0.965106	0.699789
N127	N	-0.417913	0.136004	0.219169
N128	N	0.082087	0.636004	0.719169
H129	H	-0.429557	0.089590	0.225255
H130	H	0.070443	0.589590	0.725255
H131	H	-0.436469	0.147385	0.174401
H132	H	0.063531	0.647385	0.674401
H133	H	-0.717327	0.548359	0.374744
H134	H	-0.217327	1.048359	0.874744
H135	H	-0.438427	0.667001	0.229555
H136	H	0.061573	1.167001	0.729555
N137	N	-0.417813	0.988931	1.072397
N138	N	0.082187	1.488931	1.572397
H139	H	-0.436444	1.033696	1.061047
H140	H	0.063556	1.533696	1.561047
H141	H	-0.429451	0.982798	1.118800
H142	H	0.070549	1.482798	1.618800
H143	H	-0.438396	0.978336	0.660110
H144	H	0.061604	1.478336	1.160110
H145	H	-0.717026	0.832887	0.541314
H146	H	-0.217026	1.332887	1.041314
H147	H	-0.595306	0.465325	0.404601
H148	H	-0.095306	0.965325	0.904601
H149	H	-0.381435	0.914618	0.743167
H150	H	0.118565	1.414618	1.243167
N151	N	-0.597885	0.337985	0.419562
N152	N	-0.097885	0.837985	0.919562
H153	H	-0.604032	0.368679	0.455305
H154	H	-0.104032	0.868679	0.955305
H155	H	-0.671847	0.310829	0.418568
H156	H	-0.171847	0.810829	0.918568
H157	H	-0.560337	0.346401	0.199832
H158	H	-0.060337	0.846401	0.699832
N159	N	-0.802407	0.895329	0.734534
N160	N	-0.302407	1.395329	1.234534
H161	H	-0.813652	0.933497	0.707416
H162	H	-0.313652	1.433497	1.207416
H163	H	-0.800755	0.856697	0.707392
H164	H	-0.300755	1.356697	1.207392
H165	H	-0.438485	0.978340	0.541403
H166	H	0.061515	1.478340	1.041403
H167	H	-0.381359	0.914618	0.861879
H168	H	0.118641	1.414618	1.361879
N169	N	-0.737225	0.822296	0.668662
N170	N	-0.237225	1.322296	1.168662
H171	H	-0.725547	0.828378	0.715083
H172	H	-0.225547	1.328378	1.215083
H173	H	-0.822949	0.832026	0.657241
H174	H	-0.322949	1.332026	1.157241
H175	H	-0.716679	0.832903	1.063664
H176	H	-0.216679	1.332903	1.563664
H177	H	-0.717225	0.263429	0.374846
H178	H	-0.217225	0.763429	0.874846
N179	N	-0.737485	0.136074	0.385462
N180	N	-0.237485	0.636074	0.885462
H181	H	-0.786202	0.166741	0.410787
H182	H	-0.286202	0.666741	0.910787
H183	H	-0.792933	0.108879	0.359911
H184	H	-0.292933	0.608879	0.859911
N185	N	-0.802318	0.895325	0.870540
N186	N	-0.302318	1.395325	1.370540
H187	H	-0.800694	0.856719	0.897663
H188	H	-0.300694	1.356719	1.397663
H189	H	-0.813482	0.933523	0.897679
H190	H	-0.313482	1.433523	1.397679
H191	H	-0.438291	0.263361	0.229694
H192	H	0.061709	0.763361	0.729694
H193	H	-0.438400	0.548287	0.229597
H194	H	0.061600	1.048287	0.729597
N195	N	-0.417934	0.988940	0.936392
N196	N	0.082066	1.488940	1.436392
H197	H	-0.369277	1.014329	0.967063
H198	H	0.130723	1.514329	1.467063
H199	H	-0.362423	0.963444	0.909218
H200	H	0.137577	1.463444	1.409218
N201	N	-0.737054	0.822300	0.936306
N202	N	-0.237054	1.322300	1.436306
H203	H	-0.822799	0.832013	0.947705
H204	H	-0.322799	1.332013	1.447705
H205	H	-0.725339	0.828389	0.889902
H206	H	-0.225339	1.328389	1.389902
