data_functionalizedCrystal
_audit_creation_method	'MofGen! by Chris Wilmer'
_symmetry_space_group_name_H-M	'P1'
_symmetry_Int_Tables_number	1
_symmetry_cell_setting	triclinic
loop_
_symmetry_equiv_pos_as_xyz
  x,y,z
_cell_length_a	15.944551
_cell_length_b	11.792254
_cell_length_c	10.268362
_cell_angle_alpha	89.994545
_cell_angle_beta	89.999906
_cell_angle_gamma	83.848668
loop_
_atom_site_label
_atom_site_type_symbol
_atom_site_fract_x
_atom_site_fract_y
_atom_site_fract_z
O1	O	1.115190	0.146380	-0.108165
O2	O	1.448523	0.479713	0.225168
O3	O	1.781856	0.813046	0.558502
O4	O	0.870722	0.164427	-0.108197
O5	O	1.204055	0.497760	0.225136
O6	O	1.537389	0.831093	0.558469
O7	O	0.998883	-0.009815	-0.108171
O8	O	1.332216	0.323518	0.225162
O9	O	1.665550	0.656851	0.558496
O10	O	0.987029	0.320622	-0.108191
O11	O	1.320362	0.653955	0.225142
O12	O	1.653696	0.987288	0.558475
O13	O	0.998872	-0.009822	0.108429
O14	O	1.332205	0.323511	0.441763
O15	O	1.665538	0.656844	0.775096
O16	O	0.870711	0.164420	0.108403
O17	O	1.204044	0.497753	0.441737
O18	O	1.537377	0.831086	0.775070
O19	O	1.115178	0.146373	0.108436
O20	O	1.448512	0.479706	0.441769
O21	O	1.781845	0.813039	0.775102
Cu22	Cu	0.992944	0.155395	0.128197
Cu23	Cu	1.326277	0.488729	0.461530
Cu24	Cu	1.659610	0.822062	0.794863
Cu25	Cu	0.992957	0.155404	-0.127959
Cu26	Cu	1.326290	0.488737	0.205375
Cu27	Cu	1.659624	0.822071	0.538708
O28	O	0.987018	0.320615	0.108409
O29	O	1.320351	0.653948	0.441743
O30	O	1.653684	0.987281	0.775076
C31	C	0.998131	-0.052103	0.000129
C32	C	1.331464	0.281230	0.333462
C33	C	1.664797	0.614563	0.666795
C34	C	0.995895	-0.178098	0.000127
C35	C	1.329229	0.155235	0.333460
C36	C	1.662562	0.488569	0.666794
C37	C	0.839419	0.163674	0.000099
C38	C	1.172752	0.497007	0.333432
C39	C	1.506086	0.830341	0.666765
C40	C	0.746163	0.161428	0.000087
C41	C	1.079496	0.494761	0.333420
C42	C	1.412829	0.828095	0.666753
C43	C	0.994079	-0.280420	0.000122
C44	C	1.327413	0.052914	0.333456
C45	C	1.660746	0.386247	0.666789
C46	C	0.991809	-0.408787	0.000110
C47	C	1.325142	-0.075454	0.333443
C48	C	1.658475	0.257879	0.666777
C49	C	0.530791	0.048056	0.000119
C50	C	0.864124	0.381389	0.333452
C51	C	1.197457	0.714722	0.666785
C52	C	0.470015	0.100705	-0.106680
C53	C	0.803349	0.434039	0.226653
C54	C	1.136682	0.767372	0.559987
C55	C	0.575418	0.157364	0.000102
C56	C	0.908752	0.490698	0.333436
C57	C	1.242085	0.824031	0.666769
C58	C	0.470027	0.100724	0.106871
C59	C	0.803360	0.434058	0.440205
C60	C	1.136693	0.767391	0.773538
C61	C	0.410488	0.153431	0.000123
C62	C	0.743821	0.486765	0.333456
C63	C	1.077155	0.820098	0.666790
C64	C	0.515872	0.210044	-0.106785
C65	C	0.849205	0.543377	0.226549
C66	C	1.182538	0.876711	0.559882
C67	C	0.515889	0.210048	0.106863
C68	C	0.849222	0.543381	0.440196
C69	C	1.182556	0.876714	0.773529
C70	C	0.455132	0.262777	0.000038
C71	C	0.788465	0.596110	0.333371
C72	C	1.121799	0.929444	0.666704
C73	C	0.670431	0.159627	0.000089
C74	C	1.003764	0.492960	0.333423
C75	C	1.337098	0.826294	0.666756
C76	C	0.315477	0.151177	0.000127
C77	C	0.648810	0.484511	0.333460
C78	C	0.982143	0.817844	0.666794
C79	C	1.146481	0.147125	0.000137
C80	C	1.479815	0.480459	0.333470
C81	C	1.813148	0.813792	0.666803
C82	C	1.239738	0.149371	0.000140
C83	C	1.573071	0.482705	0.333474
C84	C	1.906404	0.816038	0.666807
C85	C	0.987770	0.362903	0.000107
C86	C	1.321103	0.696236	0.333440
C87	C	1.654437	1.029569	0.666773
C88	C	0.990005	0.488897	0.000100
C89	C	1.323338	0.822231	0.333433
C90	C	1.656672	1.155564	0.666766
N91	N	0.992940	0.155389	0.308363
N92	N	1.326274	0.488722	0.641696
N93	N	1.659607	0.822055	0.975029
N94	N	0.992967	0.155402	-0.308124
N95	N	1.326300	0.488735	0.025209
N96	N	1.659633	0.822068	0.358542
C97	C	0.992953	0.155402	0.574033
C98	C	1.326286	0.488735	0.907367
C99	C	1.659619	0.822068	1.240700
C100	C	0.992943	0.155398	0.426195
C101	C	1.326276	0.488731	0.759529
C102	C	1.659610	0.822065	1.092862
H103	H	0.563711	-0.042661	-0.000008
H104	H	0.897045	0.290672	0.333326
H105	H	1.230378	0.624005	0.666659
H106	H	0.536074	0.256246	-0.197173
H107	H	0.869407	0.589579	0.136160
H108	H	1.202741	0.922912	0.469494
H109	H	0.422386	0.353588	-0.000027
H110	H	0.755719	0.686921	0.333306
H111	H	1.089053	1.020254	0.666639
H112	H	0.449700	0.054475	-0.196965
H113	H	0.783033	0.387809	0.136368
H114	H	1.116366	0.721142	0.469701
H115	H	0.536226	0.256240	0.197152
H116	H	0.869559	0.589573	0.530485
H117	H	1.202892	0.922906	0.863819
H118	H	0.449726	0.054468	0.197158
H119	H	0.783059	0.387801	0.530491
H120	H	1.116392	0.721135	0.863825
