data_functionalizedCrystal
_audit_creation_method	'MofGen! by Chris Wilmer'
_symmetry_space_group_name_H-M	'P1'
_symmetry_Int_Tables_number	1
_symmetry_cell_setting	triclinic
loop_
_symmetry_equiv_pos_as_xyz
  x,y,z
_cell_length_a	6.817900
_cell_length_b	9.170285
_cell_length_c	9.514088
_cell_angle_alpha	80.288326
_cell_angle_beta	118.843545
_cell_angle_gamma	112.460155
loop_
_atom_site_label
_atom_site_type_symbol
_atom_site_fract_x
_atom_site_fract_y
_atom_site_fract_z
V1	V	-4.242798	-0.218426	-0.469790
O2	O	-4.200475	0.007653	-0.492295
O3	O	-4.217577	-0.430366	-0.436331
O4	O	-4.277331	-0.216313	-0.688481
O5	O	-4.140308	-0.207882	-0.238400
V6	V	-4.712676	-0.191237	-0.445788
O7	O	-4.533987	-0.278067	-0.522440
O8	O	-4.871684	-0.131595	-0.393138
O9	O	-4.514690	0.020704	-0.479247
O10	O	-4.872396	-0.417315	-0.423283
O11	O	-4.932563	-0.201780	-0.677178
O12	O	-4.454936	-0.193349	-0.227098
C13	C	-4.065534	-0.481994	-0.421116
C14	C	-4.126753	-0.655266	-0.395217
C15	C	-4.141753	-0.208946	-0.742756
C16	C	-4.251424	-0.208622	-0.921338
C17	C	-4.330075	0.072324	-0.494457
C18	C	-4.248098	0.245594	-0.520366
C19	C	-4.253853	-0.200721	-0.172814
C20	C	-4.123419	-0.201038	0.005769
H21	H	-3.929933	-0.194807	-0.920018
H22	H	-4.305072	-0.706717	-0.647287
N23	N	-4.507747	-0.216899	-1.019634
H24	H	-4.552397	-0.215483	-1.137554
H25	H	-4.526569	-0.123208	-0.991638
H26	H	-4.069752	-0.702961	-0.268287
