data_functionalizedCrystal
_audit_creation_method	'MofGen! by Chris Wilmer'
_symmetry_space_group_name_H-M	'P1'
_symmetry_Int_Tables_number	1
_symmetry_cell_setting	triclinic
loop_
_symmetry_equiv_pos_as_xyz
  x,y,z
_cell_length_a	19.902436
_cell_length_b	21.606444
_cell_length_c	21.606444
_cell_angle_alpha	59.991153
_cell_angle_beta	90.004815
_cell_angle_gamma	60.002005
loop_
_atom_site_label
_atom_site_type_symbol
_atom_site_fract_x
_atom_site_fract_y
_atom_site_fract_z
Zr1	Zr	0.647310	0.677462	-0.081278
O2	O	0.540015	0.806605	-0.180136
O3	O	0.680201	0.548328	-0.050957
O4	O	0.680195	0.677464	-0.180102
O5	O	0.540027	0.677465	0.050862
O6	O	0.790772	0.677455	-0.180092
O7	O	0.540021	0.677469	-0.050992
O8	O	0.790783	0.446454	0.050924
O9	O	0.540015	0.908465	-0.180153
O10	O	0.776752	0.601433	-0.038037
O11	O	0.694234	0.601436	0.037968
O12	O	0.694226	0.753477	-0.114082
O13	O	0.611708	0.753480	-0.038077
Zr14	Zr	0.823676	0.677441	0.081184
Zr15	Zr	0.823668	0.677448	-0.081262
Zr16	Zr	0.647319	0.677455	0.081168
Zr17	Zr	0.647311	0.839917	-0.081305
Zr18	Zr	0.823675	0.514986	0.081211
O19	O	0.790785	0.806575	0.050863
O20	O	0.790773	0.806585	-0.180113
O21	O	0.540027	0.806595	0.050841
O22	O	0.930972	0.548298	0.180042
O23	O	0.930959	0.548308	-0.050935
O24	O	0.680214	0.548318	0.180019
O25	O	0.930960	0.677438	-0.050956
O26	O	0.790792	0.677439	0.180008
O27	O	0.680215	0.677448	0.179998
O28	O	0.930965	0.677434	0.050898
O29	O	0.680196	0.908454	-0.180140
O30	O	0.790790	0.446449	0.180046
O31	O	0.930971	0.446438	0.180059
O32	O	0.930964	0.446443	0.050936
O33	O	0.540022	0.908459	-0.051030
O34	O	0.680203	0.908448	-0.051018
O35	O	0.776760	0.601426	0.113988
O36	O	0.859278	0.601423	0.037983
O37	O	0.776753	0.753467	-0.038062
O38	O	0.694235	0.753470	0.037943
C39	C	0.735492	0.474245	-0.000013
C40	C	0.735492	0.405278	-0.000001
C41	C	0.514897	0.677469	-0.000067
C42	C	0.440028	0.677475	-0.000074
C43	C	0.674568	0.429020	-0.056135
C44	C	0.674570	0.364231	-0.056151
C45	C	0.735493	0.275700	-0.000029
C46	C	0.796422	0.251959	0.056107
C47	C	0.796423	0.316747	0.056119
C48	C	0.796422	-0.009328	0.056060
C49	C	0.796415	-0.074117	0.056045
C50	C	0.674570	0.038156	-0.056210
C51	C	0.674570	0.102944	-0.056199
C52	C	0.735501	0.079197	-0.000065
C53	C	0.735499	0.149450	-0.000049
C54	C	0.735492	0.205448	-0.000041
C55	C	0.302967	0.677459	-0.000055
C56	C	0.222395	0.773364	-0.048023
C57	C	0.144504	0.773402	-0.047804
C58	C	0.168020	0.677444	-0.000039
C59	C	0.222306	0.629537	0.082588
C60	C	0.299857	0.630172	0.082315
C61	C	0.300689	0.628764	-0.034045
C62	C	0.221820	0.630550	-0.035705
C63	C	0.091756	0.677431	-0.000025
C64	C	0.379232	0.677469	-0.000064
C65	C	0.956090	0.677434	-0.000027
C66	C	1.030958	0.677428	-0.000020
C67	C	0.735482	0.677460	-0.203242
C68	C	0.735478	0.677463	-0.272204
C69	C	0.735494	0.880658	-0.000081
C70	C	0.735495	0.949625	-0.000093
C71	C	0.692400	0.756828	-0.344298
C72	C	0.692407	0.756825	-0.409093
C73	C	0.735488	0.677457	-0.401792
C74	C	0.778571	0.598086	-0.329691
C75	C	0.778569	0.598090	-0.264898
C76	C	0.778584	0.598071	-0.590994
C77	C	0.778582	0.598074	-0.655795
C78	C	0.692423	0.756807	-0.735189
C79	C	0.692420	0.756810	-0.670396
C80	C	0.735507	0.677440	-0.598300
C81	C	0.735500	0.677443	-0.528043
C82	C	0.735491	0.677453	-0.472048
C83	C	0.735504	0.677443	0.203148
C84	C	0.735508	0.677440	0.272110
C85	C	0.956088	0.474227	0.000007
C86	C	1.030956	0.405255	0.000025
C87	C	0.735503	0.474236	0.203182
C88	C	0.735507	0.405267	0.272156
C89	C	0.956100	0.474218	0.203201
C90	C	1.030971	0.405243	0.272182
C91	C	0.514887	0.880684	-0.203296
C92	C	0.440015	0.949660	-0.272276
C93	C	0.514898	0.880676	-0.000101
C94	C	0.440030	0.949648	-0.000119
C95	C	0.735483	0.880667	-0.203276
C96	C	0.735480	0.949636	-0.272250
C97	C	1.023037	0.372870	-0.039655
C98	C	1.093377	0.308072	-0.039653
C99	C	1.171635	0.275656	0.000034
C100	C	1.179553	0.308047	0.039715
C101	C	1.109214	0.372848	0.039708
C102	C	0.778586	0.372873	0.344235
C103	C	0.778586	0.308078	0.409049
C104	C	0.735511	0.275673	0.401783
C105	C	0.692426	0.308073	0.329696
C106	C	0.692422	0.372872	0.264883
C107	C	1.109213	0.372850	0.264902
C108	C	1.179570	0.308049	0.329711
C109	C	1.171683	0.275638	0.401798
C110	C	1.093433	0.308038	0.409077
C111	C	1.023078	0.372842	0.344269
C112	C	0.361773	0.982061	-0.264996
C113	C	0.291416	1.046882	-0.329805
C114	C	0.299303	1.079296	-0.401892
C115	C	0.377553	1.046892	-0.409171
C116	C	0.447908	0.982077	-0.344363
C117	C	0.447949	0.982040	0.039554
C118	C	0.377609	1.046856	0.039534
C119	C	0.299351	1.079274	-0.000155
C120	C	0.291434	1.046880	-0.039833
C121	C	0.361773	0.982069	-0.039817
C122	C	0.778563	0.982020	-0.264959
C123	C	0.778576	1.046816	-0.329761
C124	C	0.735500	1.079231	-0.401853
C125	C	0.692415	1.046840	-0.409142
C126	C	0.692408	0.982042	-0.344341
H127	H	0.624950	0.501104	-0.101828
H128	H	0.227706	1.073285	-0.072147
O129	O	0.825045	1.081747	-0.321891
H130	H	0.854983	1.048327	-0.260873
H131	H	0.511664	0.955650	0.071879
O132	O	1.084939	0.273069	0.486833
H133	H	1.018713	0.306480	0.481017
O134	O	0.645963	0.842413	-0.812955
H135	H	0.579753	0.880472	-0.819567
H136	H	0.657320	0.955682	-0.350288
O137	O	0.645944	0.842428	-0.486851
H138	H	0.598341	0.846222	-0.518279
O139	O	0.825076	0.273128	0.486792
H140	H	0.800200	0.327531	0.493364
H141	H	0.846036	-0.028674	0.101767
H142	H	0.813653	0.533463	-0.323751
H143	H	0.959373	0.399208	0.350207
H144	H	1.115673	0.399208	0.072025
H145	H	1.228903	0.222890	0.000034
H146	H	0.813647	0.533463	-0.206196
H147	H	0.735513	1.131994	-0.454612
O148	O	0.862131	0.291150	0.116660
H149	H	0.859138	0.251796	0.173241
H150	H	0.384072	1.073220	0.071847
H151	H	0.355313	0.955698	-0.072122
H152	H	0.657344	1.073243	-0.467848
O153	O	0.248540	0.536064	0.132017
H154	H	0.225019	0.525910	0.180363
O155	O	0.825076	0.512467	-0.647923
H156	H	0.855052	0.457275	-0.586906
O157	O	0.645994	0.273096	0.321862
H158	H	0.653257	0.222581	0.379045
H159	H	0.624960	0.383570	-0.101860
H160	H	0.355336	0.955673	-0.206305
O161	O	0.938634	0.407835	-0.082471
H162	H	0.944958	0.374430	-0.110068
H163	H	0.813663	0.399249	0.350166
O164	O	0.735526	0.205780	0.471695
H165	H	0.698333	0.188687	0.454540
O166	O	0.608869	0.198432	-0.116735
H167	H	0.566510	0.204057	-0.155779
O168	O	0.092160	0.823163	-0.128387
H169	H	0.036351	0.823236	-0.128312
H170	H	0.813668	0.533443	-0.532299
O171	O	1.084829	0.273135	-0.082446
H172	H	1.018593	0.306555	-0.110029
H173	H	0.242083	1.132047	-0.000162
H174	H	0.242009	1.132072	-0.454657
H175	H	1.243280	0.281644	0.072026
H176	H	0.657344	0.399238	0.206195
O177	O	0.862139	-0.169607	0.116577
H178	H	0.832853	-0.201823	0.148932
H179	H	0.813641	0.955638	-0.206264
H180	H	0.383965	1.073292	-0.467872
H181	H	1.115650	0.399229	0.206211
H182	H	0.624959	0.057486	-0.101920
O183	O	1.263962	0.273100	0.321853
H184	H	1.257619	0.306515	0.260837
H185	H	0.227709	1.073254	-0.323864
H186	H	0.511614	0.955696	-0.350299
O187	O	0.375447	0.536952	0.132251
H188	H	0.431349	0.536706	0.132425
O189	O	0.862134	0.156474	0.116642
H190	H	0.851895	0.115409	0.107210
H191	H	0.220570	0.811218	-0.109021
O192	O	0.221514	0.822728	-0.017069
H193	H	0.278211	0.779254	0.032333
H194	H	0.105569	0.810800	-0.024208
O195	O	0.645954	0.842413	-0.678267
H196	H	0.616004	0.897602	-0.739285
H197	H	0.299809	0.663731	0.109582
O198	O	1.247570	0.205730	0.471696
H199	H	1.284720	0.230597	0.471645
O200	O	0.172847	0.673066	0.118873
H201	H	0.109615	0.728811	0.078212
O202	O	0.304462	0.669715	-0.113451
H203	H	0.308004	0.725237	-0.129577
H204	H	0.240364	0.560559	-0.004415
O205	O	0.172223	0.676815	-0.116340
H206	H	0.109514	0.732973	-0.130961
H207	H	0.357479	0.558115	0.000724
H208	H	0.657313	0.821459	-0.350251
