data_functionalizedCrystal
_audit_creation_method	'MofGen! by Chris Wilmer'
_symmetry_space_group_name_H-M	'P1'
_symmetry_Int_Tables_number	1
_symmetry_cell_setting	triclinic
loop_
_symmetry_equiv_pos_as_xyz
  x,y,z
_cell_length_a	14.560438
_cell_length_b	19.377372
_cell_length_c	14.560438
_cell_angle_alpha	89.999420
_cell_angle_beta	59.995857
_cell_angle_gamma	72.113948
loop_
_atom_site_label
_atom_site_type_symbol
_atom_site_fract_x
_atom_site_fract_y
_atom_site_fract_z
Zr1	Zr	1.278766	0.580568	-0.257334
O2	O	1.425053	0.484342	-0.381330
O3	O	1.101050	0.610066	-0.219314
O4	O	1.292662	0.610067	-0.410931
O5	O	1.233439	0.484341	-0.038573
O6	O	1.339374	0.709242	-0.434290
O7	O	1.233441	0.484341	-0.189714
O8	O	0.996615	0.709240	-0.091522
O9	O	1.576197	0.484342	-0.381340
O10	O	1.220648	0.696661	-0.220542
O11	O	1.185785	0.622647	-0.090314
O12	O	1.411383	0.622648	-0.315919
O13	O	1.376521	0.548635	-0.185691
Zr14	Zr	1.353261	0.738741	-0.053537
Zr15	Zr	1.353266	0.738741	-0.294589
Zr16	Zr	1.278761	0.580568	-0.016282
Zr17	Zr	1.519823	0.580569	-0.257350
Zr18	Zr	1.112204	0.738740	-0.053521
O19	O	1.530977	0.709243	-0.091557
O20	O	1.530983	0.709243	-0.434302
O21	O	1.425047	0.484342	-0.038585
O22	O	1.206974	0.834967	0.070460
O23	O	1.206980	0.834967	-0.272285
O24	O	1.101044	0.610066	0.123431
O25	O	1.398588	0.834968	-0.272298
O26	O	1.339365	0.709242	0.100060
O27	O	1.292653	0.610067	0.123419
O28	O	1.398586	0.834968	-0.121157
O29	O	1.635415	0.610068	-0.410953
O30	O	0.996612	0.709241	0.100082
O31	O	1.055830	0.834967	0.070470
O32	O	1.055833	0.834967	-0.121135
O33	O	1.576194	0.484342	-0.189736
O34	O	1.635412	0.610069	-0.219349
O35	O	1.220644	0.696661	0.005048
O36	O	1.255506	0.770674	-0.125179
O37	O	1.446242	0.696662	-0.220556
O38	O	1.411379	0.622649	-0.090329
C39	C	1.014487	0.659653	-0.155416
C40	C	0.912152	0.659653	-0.155409
C41	C	0.921633	0.605015	-0.225822
C42	C	0.825495	0.605018	-0.225852
C43	C	0.710397	0.714300	-0.085045
C44	C	0.806536	0.714299	-0.085022
C45	C	1.222825	0.461805	-0.108835
C46	C	1.191198	0.394656	-0.093019
C47	C	1.584980	-0.019350	-0.289934
C48	C	1.555235	-0.082436	-0.275058
C49	C	1.356121	-0.005163	-0.175492
C50	C	1.385849	0.057931	-0.190355
C51	C	1.500280	0.050831	-0.247578
C52	C	1.301150	0.128111	-0.147999
C53	C	1.330876	0.191199	-0.162865
C54	C	1.445302	0.184107	-0.220088
C55	C	1.530007	0.113919	-0.262444
C56	C	1.186720	0.135209	-0.090783
C57	C	1.102020	0.205390	-0.048426
C58	C	1.131746	0.268480	-0.063286
C59	C	1.246171	0.261387	-0.120509
C60	C	1.047041	0.338668	-0.020930
C61	C	1.076767	0.401756	-0.035797
C62	C	1.275898	0.324476	-0.135376
C63	C	1.617540	0.659656	-0.155455
C64	C	1.719875	0.659656	-0.155462
C65	C	1.316019	0.659654	-0.456955
C66	C	1.316020	0.659654	-0.559288
C67	C	1.409202	0.857504	-0.202036
C68	C	1.440829	0.924653	-0.217851
C69	C	1.341755	0.714290	-0.620232
C70	C	1.341745	0.714292	-0.716379
C71	C	1.290266	0.605016	-0.690629
C72	C	1.290270	0.605017	-0.594480
C73	C	1.316008	0.659655	0.146084
C74	C	1.316007	0.659655	0.248417
C75	C	1.107675	0.857503	-0.202016
C76	C	1.036967	0.924651	-0.217825
C77	C	1.014482	0.659653	0.146104
C78	C	0.912145	0.659653	0.248444
C79	C	1.107670	0.857503	0.099504
C80	C	1.036960	0.924651	0.186028
C81	C	1.524357	0.461806	-0.410374
C82	C	1.595067	0.394658	-0.496898
C83	C	1.524352	0.461806	-0.108855
C84	C	1.595060	0.394658	-0.093046
C85	C	1.617545	0.659656	-0.456975
C86	C	1.719882	0.659656	-0.559314
C87	C	0.985566	0.917550	-0.275037
C88	C	0.919139	0.980637	-0.289912
C89	C	0.904108	1.050823	-0.247568
C90	C	0.955517	1.057923	-0.190354
C91	C	1.021950	0.994837	-0.175486
C92	C	1.021955	0.994825	0.158681
C93	C	0.955532	1.057924	0.239969
C94	C	0.904108	1.050847	0.348603
C95	C	0.919119	0.980666	0.375948
C96	C	0.985548	0.917568	0.294661
C97	C	1.610084	0.324484	-0.469552
C98	C	1.676537	0.261385	-0.550840
C99	C	1.727965	0.268462	-0.659473
C100	C	1.712948	0.338643	-0.686819
C101	C	1.646502	0.401741	-0.605532
C102	C	1.646471	0.401759	-0.035844
C103	C	1.712925	0.338672	-0.020995
C104	C	1.727959	0.268486	-0.063343
C105	C	1.676545	0.261386	-0.120552
C106	C	1.610099	0.324472	-0.135407
C107	C	0.882261	0.698286	0.346301
C108	C	0.786109	0.698277	0.442458
C109	C	0.749731	0.621001	0.342887
C110	C	0.845885	0.621006	0.246733
H111	H	1.007625	0.560514	-0.283129
H112	H	0.936211	0.729752	0.347701
H113	H	0.624394	0.758790	-0.027737
Cl114	Cl	1.374095	0.782982	-0.792991
Cl115	Cl	0.903192	0.347582	0.050991
Cl116	Cl	1.257907	0.536330	-0.517853
Cl117	Cl	0.883462	0.572430	0.123703
H118	H	0.833224	0.560527	-0.283191
Cl119	Cl	1.777604	0.347528	-0.823393
Cl120	Cl	0.748547	0.746845	0.565479
H121	H	1.782066	0.217078	-0.725652
H122	H	0.877241	0.974914	0.464408
H123	H	1.469502	0.235479	-0.232193
Cl124	Cl	1.627625	0.489957	-0.639930
H125	H	0.695770	0.589537	0.341507
Cl126	Cl	1.777542	0.347614	0.050934
Cl127	Cl	1.086554	1.003777	-0.103548
Cl128	Cl	0.794616	0.782994	0.003501
H129	H	1.568238	0.318680	-0.181982
H130	H	0.877286	0.974842	-0.336500
Cl131	Cl	1.419756	0.315555	-0.207301
H132	H	1.634236	0.458903	-0.001349
Cl133	Cl	0.970287	0.489987	0.017447
Cl134	Cl	1.004452	0.829323	-0.328287
H135	H	1.623188	0.108136	-0.309008
H136	H	1.362721	0.758780	-0.591581
Cl137	Cl	1.004393	0.829352	0.329059
Cl138	Cl	1.695451	0.173146	-0.173777
Cl139	Cl	1.257901	0.536330	-0.734879
H140	H	0.943318	1.115063	0.217685
Cl141	Cl	1.728838	-0.028271	-0.361859
Cl142	Cl	1.811493	0.189184	-0.044656
H143	H	1.262952	0.000607	-0.128904
Cl144	Cl	1.149350	0.055897	-0.072104
Cl145	Cl	1.661728	-0.170666	-0.328324
Cl146	Cl	0.820598	1.130178	0.450781
Cl147	Cl	0.958170	0.214307	0.023506
Cl148	Cl	1.545441	0.315567	-0.332991
H149	H	0.850010	1.102186	-0.259681
Cl150	Cl	1.695395	0.173166	-0.516438
H151	H	0.943269	1.115077	-0.155882
H152	H	1.063817	1.000602	0.070232
