data_functionalizedCrystal
_audit_creation_method	'MofGen! by Chris Wilmer'
_symmetry_space_group_name_H-M	'P1'
_symmetry_Int_Tables_number	1
_symmetry_cell_setting	triclinic
loop_
_symmetry_equiv_pos_as_xyz
  x,y,z
_cell_length_a	11.792254
_cell_length_b	14.044190
_cell_length_c	10.868271
_cell_angle_alpha	89.990065
_cell_angle_beta	89.995741
_cell_angle_gamma	88.695187
loop_
_atom_site_label
_atom_site_type_symbol
_atom_site_fract_x
_atom_site_fract_y
_atom_site_fract_z
O1	O	1.519112	0.130045	-0.102336
O2	O	1.852445	0.463378	0.230997
O3	O	2.185779	0.796711	0.564330
O4	O	1.190030	0.143429	-0.102341
O5	O	1.523363	0.476762	0.230993
O6	O	1.856696	0.810095	0.564326
O7	O	1.349627	-0.001274	-0.102314
O8	O	1.682960	0.332060	0.231019
O9	O	2.016294	0.665393	0.564352
O10	O	1.359514	0.274747	-0.102363
O11	O	1.692848	0.608081	0.230971
O12	O	2.026181	0.941414	0.564304
O13	O	1.349612	-0.001279	0.102330
O14	O	1.682945	0.332054	0.435664
O15	O	2.016279	0.665387	0.768997
O16	O	1.190015	0.143423	0.102304
O17	O	1.523348	0.476756	0.435637
O18	O	1.856681	0.810090	0.768971
O19	O	1.519097	0.130039	0.102308
O20	O	1.852430	0.463372	0.435642
O21	O	2.185764	0.796706	0.768975
Zn22	Zn	1.354553	0.136730	0.134798
Zn23	Zn	1.687887	0.470064	0.468131
Zn24	Zn	2.021220	0.803397	0.801465
Zn25	Zn	1.354573	0.136738	-0.134830
Zn26	Zn	1.687906	0.470071	0.198503
Zn27	Zn	2.021240	0.803404	0.531836
O28	O	1.359500	0.274741	0.102282
O29	O	1.692833	0.608075	0.435615
O30	O	2.026166	0.941408	0.768949
C31	C	1.147652	0.142583	-0.000018
C32	C	1.480986	0.475916	0.333315
C33	C	1.814319	0.809250	0.666648
C34	C	1.021402	0.140059	-0.000019
C35	C	1.354736	0.473393	0.333314
C36	C	1.688069	0.806726	0.666648
C37	C	0.918873	0.138009	-0.000024
C38	C	1.252206	0.471342	0.333309
C39	C	1.585540	0.804676	0.666643
C40	C	0.790246	0.135445	-0.000024
C41	C	1.123579	0.468778	0.333309
C42	C	1.456912	0.802112	0.666642
C43	C	1.345294	-0.036613	0.000012
C44	C	1.678627	0.296720	0.333345
C45	C	2.011961	0.630053	0.666678
C46	C	1.332392	-0.141906	0.000022
C47	C	1.665725	0.191427	0.333355
C48	C	1.999059	0.524761	0.666689
C49	C	1.400309	-0.391841	-0.000025
C50	C	1.733642	-0.058508	0.333308
C51	C	2.066976	0.274826	0.666641
C52	C	1.308822	-0.334686	-0.000018
C53	C	1.642156	-0.001352	0.333316
C54	C	1.975489	0.331981	0.666649
C55	C	1.321940	-0.227413	0.000004
C56	C	1.655273	0.105920	0.333338
C57	C	1.988606	0.439253	0.666671
C58	C	1.387194	-0.499123	-0.000047
C59	C	1.720527	-0.165790	0.333286
C60	C	2.053860	0.167543	0.666619
C61	C	1.561474	0.130885	-0.000016
C62	C	1.894808	0.464218	0.333317
C63	C	2.228141	0.797552	0.666650
C64	C	1.687724	0.133409	-0.000024
C65	C	2.021058	0.466742	0.333309
C66	C	2.354391	0.800075	0.666643
C67	C	1.363832	0.310081	-0.000046
C68	C	1.697166	0.643415	0.333287
C69	C	2.030499	0.976748	0.666620
C70	C	1.376735	0.415374	-0.000065
C71	C	1.710068	0.748707	0.333268
C72	C	2.043401	1.082041	0.666602
N73	N	1.354548	0.136725	0.318812
N74	N	1.687882	0.470058	0.652145
N75	N	2.021215	0.803391	0.985479
N76	N	1.354586	0.136736	-0.318844
N77	N	1.687920	0.470069	0.014489
N78	N	2.021253	0.803403	0.347822
C79	C	1.354567	0.136736	0.569818
C80	C	1.687900	0.470069	0.903151
C81	C	2.021234	0.803402	1.236485
C82	C	1.354553	0.136732	0.430141
C83	C	1.687887	0.470066	0.763474
C84	C	2.021220	0.803399	1.096807
H85	H	1.488478	-0.360211	-0.000011
H86	H	1.821811	-0.026878	0.333322
H87	H	2.155144	0.306456	0.666655
H88	H	1.220647	-0.366317	-0.000026
H89	H	1.553980	-0.032984	0.333307
H90	H	1.887313	0.300349	0.666641
