data_functionalizedCrystal
_audit_creation_method	'MofGen! by Chris Wilmer'
_symmetry_space_group_name_H-M	'P1'
_symmetry_Int_Tables_number	1
_symmetry_cell_setting	triclinic
loop_
_symmetry_equiv_pos_as_xyz
  x,y,z
_cell_length_a	11.169417
_cell_length_b	10.685194
_cell_length_c	11.169409
_cell_angle_alpha	94.405531
_cell_angle_beta	90.019513
_cell_angle_gamma	94.378522
loop_
_atom_site_label
_atom_site_type_symbol
_atom_site_fract_x
_atom_site_fract_y
_atom_site_fract_z
Zn1	Zn	1.798363	-0.502272	0.641880
Zn2	Zn	2.298363	-0.002272	1.141880
Zn3	Zn	1.782871	-0.713351	0.425794
Zn4	Zn	2.282871	-0.213351	0.925794
Zn5	Zn	1.597643	-0.502350	0.441210
Zn6	Zn	2.097643	-0.002350	0.941210
Zn7	Zn	1.582283	-0.713250	0.626447
Zn8	Zn	2.082283	-0.213250	1.126447
O9	O	1.690290	-0.607806	0.533833
O10	O	2.190290	-0.107806	1.033833
O11	O	1.964257	-0.530282	0.613223
O12	O	2.464257	-0.030282	1.113223
O13	O	1.758245	-0.685437	0.259884
O14	O	2.258245	-0.185437	0.759884
O15	O	1.637180	-0.325740	0.480740
O16	O	2.137180	0.174260	0.980740
O17	O	1.952875	-0.685361	0.454466
O18	O	2.452875	-0.185361	0.954466
O19	O	1.784648	-0.325682	0.628171
O20	O	2.284648	0.174318	1.128171
O21	O	1.622159	-0.530415	0.271210
O22	O	2.122159	-0.030415	0.771210
O23	O	1.427656	-0.530317	0.465775
O24	O	1.927656	-0.030317	0.965775
O25	O	1.611001	-0.685188	0.796450
O26	O	2.111001	-0.185188	1.296450
O27	O	1.416371	-0.685264	0.601868
O28	O	1.916371	-0.185264	1.101868
O29	O	1.769754	-0.530183	0.807788
O30	O	2.269754	-0.030183	1.307788
O31	O	1.743351	-0.889938	0.439501
O32	O	2.243351	-0.389938	0.939501
O33	O	1.595979	-0.889863	0.586920
O34	O	2.095979	-0.389863	1.086920
C35	C	1.378466	-0.607789	0.533821
C36	C	1.878466	-0.107789	1.033821
C37	C	1.245065	-0.607812	0.533841
C38	C	1.745065	-0.107812	1.033841
C39	C	1.666350	-0.935691	0.509889
C40	C	2.166350	-0.435691	1.009889
C41	C	1.656218	-1.075961	0.499686
C42	C	2.156218	-0.575961	0.999686
C43	C	2.003331	-0.607824	0.533846
C44	C	2.503331	-0.107824	1.033846
C45	C	2.136730	-0.607831	0.533852
C46	C	2.636730	-0.107831	1.033852
C47	C	1.690392	-0.607666	0.846886
C48	C	2.190392	-0.107666	1.346886
C49	C	1.690436	-0.607606	0.980290
C50	C	2.190436	-0.107606	1.480290
C51	C	1.714356	-0.278640	0.557897
C52	C	2.214356	0.221360	1.057897
C53	C	1.724611	-0.138370	0.568151
C54	C	2.224611	0.361630	1.068151
C55	C	1.690264	-0.607854	0.222005
C56	C	2.190264	-0.107854	0.722005
C57	C	1.690478	-0.607558	0.088627
C58	C	2.190478	-0.107558	0.588627
H59	H	1.790919	-1.084491	0.634579
H60	H	2.290919	-0.584491	1.134579
H61	H	1.589897	-1.129848	0.433264
H62	H	2.089897	-0.629848	0.933264
