data_functionalizedCrystal
_audit_creation_method	'MofGen! by Chris Wilmer'
_symmetry_space_group_name_H-M	'P1'
_symmetry_Int_Tables_number	1
_symmetry_cell_setting	triclinic
loop_
_symmetry_equiv_pos_as_xyz
  x,y,z
_cell_length_a	17.699083
_cell_length_b	12.376897
_cell_length_c	17.699092
_cell_angle_alpha	77.310278
_cell_angle_beta	83.284691
_cell_angle_gamma	77.316470
loop_
_atom_site_label
_atom_site_type_symbol
_atom_site_fract_x
_atom_site_fract_y
_atom_site_fract_z
O1	O	0.991182	0.093838	0.082801
O2	O	1.491182	0.593838	0.582801
O3	O	0.770799	0.093875	0.095248
O4	O	1.270799	0.593875	0.595248
O5	O	0.887214	0.093853	-0.021164
O6	O	1.387214	0.593853	0.478836
O7	O	0.874767	0.093860	0.199213
O8	O	1.374767	0.593860	0.699213
O9	O	0.913042	-0.094149	0.004698
O10	O	1.413042	0.405851	0.504698
O11	O	0.796627	-0.094127	0.121110
O12	O	1.296627	0.405873	0.621110
O13	O	1.017010	-0.094164	0.108662
O14	O	1.517010	0.405836	0.608662
Zn15	Zn	0.910919	-0.123995	0.118992
Zn16	Zn	1.410919	0.376005	0.618992
Zn17	Zn	0.876890	0.123706	0.084918
Zn18	Zn	1.376890	0.623706	0.584918
O19	O	0.900595	-0.094142	0.225074
O20	O	1.400595	0.405858	0.725074
C21	C	0.755515	-0.000122	0.107732
C22	C	1.255515	0.499878	0.607732
C23	C	0.671495	-0.000108	0.106391
C24	C	1.171495	0.499892	0.606391
C25	C	0.622876	-0.000106	0.174724
C26	C	1.122876	0.499894	0.674724
C27	C	0.543935	-0.000120	0.173464
C28	C	1.043935	0.499880	0.673464
C29	C	0.513613	-0.000129	0.103869
C30	C	1.013613	0.499871	0.603869
C31	C	0.562239	-0.000134	0.035531
C32	C	1.062239	0.499866	0.535531
C33	C	0.641180	-0.000127	0.036794
C34	C	1.141180	0.499873	0.536794
C35	C	0.243880	-0.000162	0.030440
C36	C	0.743880	0.499838	0.530440
C37	C	0.164932	-0.000165	0.029183
C38	C	0.664932	0.499835	0.529183
C39	C	0.146634	-0.000155	0.167111
C40	C	0.646634	0.499845	0.667111
C41	C	0.225575	-0.000148	0.168373
C42	C	0.725575	0.499852	0.668373
C43	C	0.274195	-0.000160	0.100036
C44	C	0.774195	0.499840	0.600036
C45	C	0.359792	-0.000146	0.101404
C46	C	0.859792	0.499854	0.601404
C47	C	0.428016	-0.000134	0.102500
C48	C	0.928016	0.499866	0.602500
N49	N	0.934149	-0.293044	0.142246
N50	N	1.434149	0.206956	0.642246
C51	C	0.799714	-0.648081	0.007672
C52	C	1.299714	-0.148081	0.507672
C53	C	0.783443	-0.529748	-0.008606
C54	C	1.283443	-0.029748	0.491394
C55	C	0.821118	-0.470566	0.029106
C56	C	1.321118	0.029434	0.529106
C57	C	0.875067	-0.529730	0.083098
C58	C	1.375067	-0.029730	0.583098
C59	C	0.891344	-0.648075	0.099372
C60	C	1.391344	-0.148075	0.599372
C61	C	0.912748	-0.470559	0.120807
C62	C	1.412748	0.029441	0.620807
C63	C	0.966697	-0.529723	0.174798
C64	C	1.466697	-0.029723	0.674798
C65	C	0.982971	-0.648057	0.191070
C66	C	1.482971	-0.148057	0.691070
C67	C	0.945296	-0.707238	0.153358
C68	C	1.445296	-0.207238	0.653358
C69	C	0.896471	-0.352214	0.104532
C70	C	1.396471	0.147786	0.604532
C71	C	0.988101	-0.352208	0.196232
C72	C	1.488101	0.147792	0.696232
C73	C	1.004372	-0.470541	0.212510
C74	C	1.504372	0.029459	0.712510
C75	C	1.032293	-0.000165	0.096178
C76	C	1.532293	0.499835	0.596178
C77	C	1.116312	-0.000172	0.097517
C78	C	1.616312	0.499828	0.597517
C79	C	0.899681	-0.000146	-0.036430
C80	C	1.399681	0.499854	0.463570
C81	C	0.898339	-0.000141	-0.120449
C82	C	1.398339	0.499859	0.379551
N83	N	0.853666	0.292755	0.061658
N84	N	1.353666	0.792755	0.561658
C85	C	0.883631	0.102340	-0.174014
C86	C	1.383631	0.602340	0.325986
C87	C	0.882366	0.102342	-0.252957
C88	C	1.382366	0.602342	0.247043
C89	C	0.895814	-0.000139	-0.278334
C90	C	1.395814	0.499861	0.221666
C91	C	0.910520	-0.102628	-0.224762
C92	C	1.410520	0.397372	0.275238
C93	C	0.911780	-0.102629	-0.145820
C94	C	1.411780	0.397371	0.354180
C95	C	0.905440	-0.102629	-0.543127
C96	C	1.405440	0.397371	-0.043127
C97	C	0.904182	-0.102621	-0.622077
C98	C	1.404182	0.397379	-0.122077
C99	C	0.876026	0.102342	-0.650264
C100	C	1.376026	0.602342	-0.150264
C101	C	0.877286	0.102341	-0.571322
C102	C	1.377286	0.602341	-0.071322
C103	C	0.891988	-0.000147	-0.517756
C104	C	1.391988	0.499853	-0.017756
C105	C	0.893358	-0.000148	-0.432157
C106	C	1.393358	0.499852	0.067843
C107	C	0.894450	-0.000140	-0.363933
C108	C	1.394450	0.499860	0.136067
C109	C	0.888128	-0.000140	0.240340
C110	C	1.388128	0.499860	0.740340
C111	C	0.889469	-0.000138	0.324358
C112	C	1.389469	0.499862	0.824358
H113	H	0.140248	-0.000174	-0.027493
H114	H	0.640248	0.499826	0.472507
O115	O	1.056875	-0.528070	0.264845
O116	O	1.556875	-0.028070	0.764845
C117	C	1.118004	-0.596535	0.228045
C118	C	1.618004	-0.096535	0.728045
H119	H	1.121340	-0.560865	0.162904
H120	H	1.621340	-0.060865	0.662904
H121	H	1.175153	-0.597878	0.252347
H122	H	1.675153	-0.097878	0.752347
H123	H	1.106950	-0.686222	0.239126
H124	H	1.606950	-0.186222	0.739126
O125	O	0.961169	-0.822191	0.169285
O126	O	1.461169	-0.322191	0.669285
C127	C	1.016884	-0.861724	0.225004
C128	C	1.516884	-0.361724	0.725004
H129	H	1.015546	-0.793529	0.259485
H130	H	1.515546	-0.293529	0.759485
H131	H	1.003094	-0.940897	0.266123
H132	H	1.503094	-0.440897	0.766123
H133	H	1.077062	-0.882715	0.194462
H134	H	1.577062	-0.382715	0.694462
H135	H	0.769050	-0.696278	-0.023032
H136	H	1.269050	-0.196278	0.476968
H137	H	0.504351	-0.000117	0.229108
H138	H	1.004351	0.499883	0.729108
O139	O	1.024605	-0.294557	0.232830
O140	O	1.524605	0.205443	0.732830
C141	C	0.998681	-0.177422	0.206878
C142	C	1.498681	0.322578	0.706878
H143	H	0.939180	-0.161273	0.183147
H144	H	1.439180	0.338727	0.683147
H145	H	0.994290	-0.132450	0.257421
H146	H	1.494290	0.367550	0.757421
H147	H	1.041611	-0.143826	0.159083
H148	H	1.541611	0.356174	0.659083
O149	O	0.919791	-0.202283	-0.491212
O150	O	1.419791	0.297717	0.008788
C151	C	0.931384	-0.292730	-0.530542
C152	C	1.431384	0.207270	-0.030542
H153	H	0.950293	-0.262671	-0.594126
H154	H	1.450293	0.237329	-0.094126
H155	H	0.978344	-0.364397	-0.502759
H156	H	1.478344	0.135603	-0.002759
H157	H	0.874891	-0.324260	-0.526543
H158	H	1.374891	0.175740	-0.026543
H159	H	0.923746	-0.186079	-0.102206
H160	H	1.423746	0.313921	0.397794
H161	H	0.283457	-0.000172	-0.025204
H162	H	0.783457	0.499828	0.474796
O163	O	0.870519	0.201994	-0.149492
O164	O	1.370519	0.701994	0.350508
C165	C	0.857284	0.292445	-0.213704
C166	C	1.357284	0.792445	0.286296
H167	H	0.836562	0.262403	-0.262667
H168	H	1.336562	0.762403	0.237333
H169	H	0.811069	0.364128	-0.195884
H170	H	1.311069	0.864128	0.304116
H171	H	0.913519	0.323947	-0.234485
H172	H	1.413519	0.823947	0.265515
H173	H	1.026906	-0.696224	0.235027
H174	H	1.526906	-0.196224	0.735027
H175	H	0.921465	-0.186070	-0.245430
H176	H	1.421465	0.313930	0.254570
H177	H	0.537547	-0.000157	-0.021132
H178	H	1.037547	0.499843	0.478868
O179	O	0.805436	-0.355618	0.013229
O180	O	1.305436	0.144382	0.513229
C181	C	0.874116	-0.316057	-0.015992
C182	C	1.374116	0.183943	0.484008
H183	H	0.916930	-0.384238	-0.041647
H184	H	1.416930	0.115762	0.458353
H185	H	0.859928	-0.236882	-0.063063
H186	H	1.359928	0.263118	0.436937
H187	H	0.901024	-0.295062	0.033101
H188	H	1.401024	0.204938	0.533101
H189	H	0.680765	-0.000128	-0.018850
H190	H	1.180765	0.499872	0.481150
H191	H	0.870393	0.185793	-0.296568
H192	H	1.370393	0.685793	0.203432
O193	O	0.844002	-0.294629	0.052186
O194	O	1.344002	0.205371	0.552186
C195	C	0.782849	-0.226214	0.088995
C196	C	1.282849	0.273786	0.588995
H197	H	0.803858	-0.208476	0.142684
H198	H	1.303858	0.291524	0.642684
H199	H	0.763023	-0.143002	0.047135
H200	H	1.263023	0.356998	0.547135
H201	H	0.732216	-0.271840	0.106930
H202	H	1.232216	0.228160	0.606930
O203	O	0.652208	-0.000146	0.242403
O204	O	1.152208	0.499854	0.742403
C205	C	0.592360	-0.000121	0.302441
C206	C	1.092360	0.499879	0.802441
H207	H	0.543665	-0.035720	0.286217
H208	H	1.043665	0.464280	0.786217
H209	H	0.616271	-0.054699	0.358548
H210	H	1.116271	0.445301	0.858548
H211	H	0.568748	0.090073	0.311105
H212	H	1.068748	0.590073	0.811105
H213	H	0.250258	-0.000136	0.225043
H214	H	0.750258	0.499864	0.725043
H215	H	0.866339	0.185792	-0.550665
H216	H	1.366339	0.685792	-0.050665
H217	H	0.864051	0.185793	-0.693887
H218	H	1.364051	0.685793	-0.193887
O219	O	0.099506	-0.000105	0.233560
O220	O	0.599506	0.499895	0.733560
C221	C	0.143201	-0.000119	0.295257
C222	C	0.643201	0.499881	0.795257
H223	H	0.197261	0.035478	0.271038
H224	H	0.697261	0.535478	0.771038
H225	H	0.106489	0.054467	0.335617
H226	H	0.606489	0.554467	0.835617
H227	H	0.161186	-0.090309	0.329008
H228	H	0.661186	0.409691	0.829008
H229	H	0.739520	-0.481585	-0.052567
H230	H	1.239520	0.018415	0.447433
H231	H	0.915131	-0.186078	-0.642734
H232	H	1.415131	0.313922	-0.142734
