data_functionalizedCrystal
_audit_creation_method	'MofGen! by Chris Wilmer'
_symmetry_space_group_name_H-M	'P1'
_symmetry_Int_Tables_number	1
_symmetry_cell_setting	triclinic
loop_
_symmetry_equiv_pos_as_xyz
  x,y,z
_cell_length_a	10.489741
_cell_length_b	14.971486
_cell_length_c	13.448316
_cell_angle_alpha	90.001801
_cell_angle_beta	89.993703
_cell_angle_gamma	95.923349
loop_
_atom_site_label
_atom_site_type_symbol
_atom_site_fract_x
_atom_site_fract_y
_atom_site_fract_z
O1	O	0.166222	-1.187893	-0.082577
O2	O	0.186128	-0.927607	-0.082604
O3	O	-0.009491	-1.063673	-0.082584
O4	O	0.361841	-1.051827	-0.082597
O5	O	-0.009503	-1.063655	0.082800
O6	O	0.186116	-0.927589	0.082780
O7	O	0.166210	-1.187876	0.082807
Cu8	Cu	0.176162	-1.057731	0.097894
Cu9	Cu	0.176176	-1.057752	-0.097691
O10	O	0.361829	-1.051810	0.082787
C11	C	-0.057019	-1.062769	0.000107
C12	C	-0.198617	-1.060093	0.000105
C13	C	0.185232	-0.894268	0.000085
C14	C	0.182564	-0.794956	0.000074
C15	C	0.167106	-1.221215	0.000116
C16	C	0.169774	-1.320527	0.000120
C17	C	-0.265755	-0.973518	0.000089
C18	C	-0.358357	-1.014406	0.081636
C19	C	-0.358320	-1.014444	-0.081419
C20	C	-0.289354	-1.101017	0.081720
C21	C	-0.289307	-1.101043	-0.081409
C22	C	-0.381882	-1.141994	0.000158
C23	C	0.409357	-1.052713	0.000094
C24	C	0.550955	-1.055390	0.000089
N25	N	0.176151	-1.057723	0.235459
C26	C	0.297485	-0.738385	0.000072
C27	C	0.294971	-0.645071	0.000087
C28	C	0.177534	-0.608330	0.000097
C29	C	0.062604	-0.664909	0.000103
C30	C	0.065120	-0.758221	0.000095
C31	C	0.057369	-0.470416	0.000117
C32	C	0.054853	-0.377098	0.000123
C33	C	0.287220	-0.357267	0.000108
C34	C	0.289736	-0.450579	0.000101
C35	C	0.174805	-0.507151	0.000104
N36	N	0.176177	-1.057766	-0.235255
C37	C	0.089567	-1.117992	0.287508
C38	C	0.089566	-1.117998	0.391611
C39	C	0.176156	-1.057738	0.443663
C40	C	0.262745	-0.997462	0.391607
C41	C	0.262739	-0.997453	0.287505
C42	C	0.262753	-0.997487	0.608587
C43	C	0.262761	-0.997497	0.712695
C44	C	0.089580	-1.118032	0.712693
C45	C	0.089574	-1.118023	0.608591
C46	C	0.176165	-1.057748	0.556542
H47	H	-0.215280	-0.902336	0.000164
H48	H	-0.388950	-0.977767	0.150571
C49	C	0.426951	-0.528631	0.085097
C50	C	0.421293	-0.582884	0.000075
H51	H	0.504945	-0.490243	0.085089
H52	H	0.356658	-0.493402	0.085103
H53	H	0.423111	-0.565457	0.142760
H54	H	0.425124	-0.546058	-0.057589
H55	H	0.491606	-0.618117	0.000059
C56	C	0.062203	-1.239546	0.508677
C57	C	-0.005600	-1.184249	0.448833
H58	H	0.003448	-1.280443	0.544009
H59	H	0.115361	-1.272053	0.468055
H60	H	0.113768	-1.203643	0.554566
H61	H	-0.057158	-1.220152	0.402939
H62	H	-0.058781	-1.151739	0.489459
C63	C	-0.081623	-1.237128	0.297972
C64	C	-0.005621	-1.184231	0.230297
H65	H	-0.140396	-1.278017	0.262653
H66	H	-0.028451	-1.269644	0.338561
H67	H	-0.127584	-1.199596	0.338590
H68	H	0.040347	-1.221764	0.189684
H69	H	-0.058800	-1.151713	0.189692
C70	C	0.435130	-0.831800	-0.084971
C71	C	0.426579	-0.778762	0.000055
H72	H	0.514834	-0.856719	-0.084981
H73	H	0.367060	-0.878846	-0.084964
H74	H	0.429316	-0.795797	-0.142632
H75	H	0.432383	-0.814767	0.057716
H76	H	0.494668	-0.731710	0.000057
H77	H	-0.388855	-0.977809	-0.150368
C78	C	0.484507	-0.311631	-0.084921
C79	C	0.413557	-0.295088	0.000108
H80	H	0.562496	-0.273238	-0.084926
H81	H	0.502804	-0.372455	-0.084923
H82	H	0.436344	-0.300403	-0.142580
H83	H	0.461717	-0.306321	0.057767
H84	H	0.395264	-0.234249	0.000119
C85	C	-0.174581	-0.406068	0.000153
C86	C	-0.074233	-0.336710	0.000140
H87	H	-0.254272	-0.381132	0.000168
H88	H	-0.168774	-0.442050	-0.057518
H89	H	-0.168759	-0.442052	0.057828
H90	H	-0.080049	-0.300731	-0.057540
H91	H	-0.080043	-0.300714	0.057817
H92	H	0.019072	-1.167095	0.566211
C93	C	-0.131117	-1.169168	0.744742
C94	C	-0.005606	-1.184291	0.769894
H95	H	-0.189872	-1.210080	0.780055
H96	H	-0.145114	-1.109398	0.761822
H97	H	-0.143488	-1.177785	0.675291
H98	H	0.006768	-1.175667	0.839345
H99	H	0.008396	-1.244075	0.752821
H100	H	0.385363	-0.480489	0.000083
C101	C	0.433902	-0.878322	0.702247
C102	C	0.357918	-0.931242	0.769914
H103	H	0.492637	-0.837413	0.737574
H104	H	0.479894	-0.915831	0.661640
H105	H	0.380704	-0.845822	0.661648
H106	H	0.411116	-0.963748	0.810508
H107	H	0.311923	-0.893729	0.810538
H108	H	-0.258951	-1.137610	0.150739
H109	H	-0.036219	-0.516476	0.000121
C110	C	0.436286	-0.979177	0.491492
C111	C	0.357934	-0.931235	0.551368
H112	H	0.495041	-0.938278	0.456163
H113	H	0.482256	-1.016696	0.532093
H114	H	0.384697	-1.015061	0.445602
H115	H	0.409523	-0.895356	0.597264
H116	H	0.311961	-0.893701	0.510763
H117	H	-0.033015	-0.634987	0.000126
H118	H	-0.258681	-1.137650	-0.150347
C119	C	-0.164815	-0.768456	0.000093
C120	C	-0.061205	-0.820408	0.000089
H121	H	-0.242804	-0.806849	0.000085
H122	H	-0.160971	-0.731654	0.057765
H123	H	-0.160948	-0.731643	-0.057581
H124	H	-0.065067	-0.857217	0.057766
H125	H	-0.065052	-0.857225	-0.057590
C126	C	0.433932	-0.878320	0.297958
C127	C	0.357921	-0.931208	0.230289
H128	H	0.492697	-0.837425	0.262633
H129	H	0.380764	-0.845812	0.338570
H130	H	0.479901	-0.915858	0.338551
H131	H	0.311944	-0.893670	0.189700
H132	H	0.411096	-0.963718	0.189659
H133	H	0.333244	-0.948393	0.433993
H134	H	-0.432131	-1.213239	0.000211
