data_functionalizedCrystal
_audit_creation_method	'MofGen! by Chris Wilmer'
_symmetry_space_group_name_H-M	'P1'
_symmetry_Int_Tables_number	1
_symmetry_cell_setting	triclinic
loop_
_symmetry_equiv_pos_as_xyz
  x,y,z
_cell_length_a	22.010155
_cell_length_b	11.792241
_cell_length_c	11.792241
_cell_angle_alpha	84.193416
_cell_angle_beta	90.004139
_cell_angle_gamma	89.995687
loop_
_atom_site_label
_atom_site_type_symbol
_atom_site_fract_x
_atom_site_fract_y
_atom_site_fract_z
O1	O	0.050466	-1.506917	-0.155552
O2	O	0.383800	-1.173584	0.177781
O3	O	0.717133	-0.840250	0.511115
O4	O	0.050481	-1.176576	-0.171585
O5	O	0.383814	-0.843243	0.161748
O6	O	0.717147	-0.509909	0.495082
O7	O	0.050469	-1.349763	0.001602
O8	O	0.383802	-1.016430	0.334935
O9	O	0.717136	-0.683096	0.668269
O10	O	0.050478	-1.333730	-0.328739
O11	O	0.383811	-1.000397	0.004594
O12	O	0.717145	-0.667063	0.337928
O13	O	-0.050581	-1.349731	0.001576
O14	O	0.282752	-1.016398	0.334909
O15	O	0.616085	-0.683065	0.668243
O16	O	-0.050570	-1.176544	-0.171611
O17	O	0.282764	-0.843211	0.161722
O18	O	0.616097	-0.509878	0.495056
O19	O	-0.050584	-1.506885	-0.155578
O20	O	0.282749	-1.173552	0.177755
O21	O	0.616083	-0.840219	0.511089
Cu22	Cu	-0.059804	-1.341712	-0.163597
Cu23	Cu	0.273530	-1.008379	0.169736
Cu24	Cu	0.606863	-0.675045	0.503070
Cu25	Cu	0.059700	-1.341749	-0.163566
Cu26	Cu	0.393034	-1.008416	0.169767
Cu27	Cu	0.726367	-0.675083	0.503100
O28	O	-0.050572	-1.333698	-0.328765
O29	O	0.282761	-1.000365	0.004568
O30	O	0.616094	-0.667032	0.337902
C31	C	-0.000043	-1.134269	-0.170591
C32	C	0.333291	-0.800936	0.162742
C33	C	0.666624	-0.467603	0.496076
C34	C	-0.000038	-1.008255	-0.167576
C35	C	0.333296	-0.674922	0.165757
C36	C	0.666629	-0.341589	0.499090
C37	C	-0.000056	-1.348740	0.043880
C38	C	0.333277	-1.015407	0.377213
C39	C	0.666611	-0.682073	0.710547
C40	C	-0.000055	-1.345726	0.169894
C41	C	0.333278	-1.012392	0.503227
C42	C	0.666611	-0.679059	0.836560
N43	N	-0.143856	-1.341694	-0.163618
N44	N	0.189477	-1.008361	0.169716
N45	N	0.522811	-0.675027	0.503049
C46	C	-0.563641	-1.418441	-0.086890
C47	C	-0.230307	-1.085108	0.246443
C48	C	0.103026	-0.751774	0.579777
C49	C	-0.627248	-1.418446	-0.086882
C50	C	-0.293915	-1.085113	0.246451
C51	C	0.039418	-0.751780	0.579784
O52	O	-0.660144	-1.483654	-0.021660
O53	O	-0.326811	-1.150320	0.311673
O54	O	0.006523	-0.816987	0.645007
N55	N	-0.659063	-1.341748	-0.163542
N56	N	-0.325730	-1.008415	0.169791
N57	N	0.007604	-0.675082	0.503124
C58	C	-0.627267	-1.265033	-0.240208
C59	C	-0.293934	-0.931699	0.093126
C60	C	0.039399	-0.598366	0.426459
O61	O	-0.660169	-1.199795	-0.305412
O62	O	-0.326836	-0.866462	0.027922
O63	O	0.006498	-0.533128	0.361255
C64	C	-0.563661	-1.265023	-0.240209
C65	C	-0.230327	-0.931690	0.093124
C66	C	0.103006	-0.598356	0.426458
C67	C	-0.531849	-1.341734	-0.163552
C68	C	-0.198516	-1.008400	0.169782
C69	C	0.134818	-0.675067	0.503115
C70	C	-0.531829	-1.495145	-0.010238
C71	C	-0.198496	-1.161811	0.323095
C72	C	0.134838	-0.828478	0.656429
C73	C	-0.468226	-1.495140	-0.010247
C74	C	-0.134892	-1.161807	0.323086
C75	C	0.198441	-0.828474	0.656419
C76	C	-0.436434	-1.418433	-0.086909
C77	C	-0.103101	-1.085100	0.246424
C78	C	0.230232	-0.751766	0.579758
C79	C	-0.468246	-1.341729	-0.163561
C80	C	-0.134913	-1.008396	0.169772
C81	C	0.198421	-0.675063	0.503106
C82	C	-0.531866	-1.188303	-0.316868
C83	C	-0.198533	-0.854969	0.016465
C84	C	0.134801	-0.521636	0.349799
C85	C	-0.468255	-1.188299	-0.316862
C86	C	-0.134922	-0.854965	0.016471
C87	C	0.198411	-0.521632	0.349805
C88	C	-0.436444	-1.265009	-0.240205
C89	C	-0.103110	-0.931676	0.093129
C90	C	0.230223	-0.598343	0.426462
C91	C	-0.372851	-1.265018	-0.240232
C92	C	-0.039518	-0.931684	0.093101
C93	C	0.293816	-0.598351	0.426435
N94	N	-0.341036	-1.341716	-0.163572
N95	N	-0.007703	-1.008382	0.169761
N96	N	0.325630	-0.675049	0.503095
C97	C	-0.372828	-1.418423	-0.086910
C98	C	-0.039494	-1.085090	0.246423
C99	C	0.293839	-0.751756	0.579756
C100	C	-0.760845	-1.265058	-0.240198
C101	C	-0.427512	-0.931724	0.093136
C102	C	-0.094178	-0.598391	0.426469
C103	C	-0.824450	-1.265072	-0.240203
C104	C	-0.491117	-0.931739	0.093131
C105	C	-0.157784	-0.598405	0.426464
C106	C	-0.824427	-1.418485	-0.086875
C107	C	-0.491094	-1.085151	0.246458
C108	C	-0.157760	-0.751818	0.579791
C109	C	-0.760820	-1.418475	-0.086877
C110	C	-0.427487	-1.085141	0.246457
C111	C	-0.094154	-0.751808	0.579790
C112	C	-0.729030	-1.341756	-0.163537
C113	C	-0.395697	-1.008422	0.169796
C114	C	-0.062363	-0.675089	0.503129
C115	C	-0.239256	-1.418409	-0.086937
C116	C	0.094077	-1.085076	0.246397
C117	C	0.427410	-0.751743	0.579730
C118	C	-0.175648	-1.418402	-0.086956
C119	C	0.157686	-1.085068	0.246377
C120	C	0.491019	-0.751735	0.579710
C121	C	-0.175676	-1.264986	-0.240279
C122	C	0.157657	-0.931652	0.093055
C123	C	0.490990	-0.598319	0.426388
C124	C	-0.239280	-1.264997	-0.240264
C125	C	0.094054	-0.931664	0.093069
C126	C	0.427387	-0.598330	0.426403
C127	C	-0.271068	-1.341713	-0.163583
C128	C	0.062265	-1.008380	0.169750
C129	C	0.395599	-0.675046	0.503083
O130	O	-0.339915	-1.199840	-0.305418
O131	O	-0.006582	-0.866507	0.027915
O132	O	0.326752	-0.533174	0.361249
O133	O	-0.339918	-1.483640	-0.021707
O134	O	-0.006585	-1.150307	0.311626
O135	O	0.326748	-0.816973	0.644959
N136	N	0.143753	-1.341776	-0.163536
N137	N	0.477086	-1.008443	0.169797
N138	N	0.810419	-0.675109	0.503130
C139	C	-0.000059	-1.549192	-0.156572
C140	C	0.333274	-1.215859	0.176761
C141	C	0.666607	-0.882525	0.510094
C142	C	-0.000061	-1.675206	-0.159587
C143	C	0.333273	-1.341873	0.173747
C144	C	0.666606	-1.008539	0.507080
C145	C	-0.000055	-0.777543	-0.162034
C146	C	0.333278	-0.444210	0.171300
C147	C	0.666612	-0.110877	0.504633
C148	C	-0.000045	-0.905928	-0.165113
C149	C	0.333288	-0.572595	0.168220
C150	C	0.666621	-0.239262	0.501553
C151	C	-0.000046	-1.334721	-0.371043
C152	C	0.333287	-1.001388	-0.037710
C153	C	0.666621	-0.668055	0.295624
C154	C	-0.000043	-1.337736	-0.497057
C155	C	0.333291	-1.004402	-0.163723
C156	C	0.666624	-0.671069	0.169610
C157	C	-0.000045	-1.340183	0.400606
C158	C	0.333288	-1.006849	0.733939
C159	C	0.666622	-0.673516	1.067272
C160	C	-0.000051	-1.343262	0.272221
C161	C	0.333283	-1.009929	0.605554
C162	C	0.666616	-0.676596	0.938887
H163	H	-0.265131	-1.480877	-0.024495
H164	H	0.068202	-1.147544	0.308838
H165	H	0.401535	-0.814211	0.642171
H166	H	-0.557758	-1.125837	-0.379288
H167	H	-0.224425	-0.792504	-0.045955
H168	H	0.108908	-0.459171	0.287378
H169	H	-0.442374	-1.125821	-0.379287
H170	H	-0.109041	-0.792488	-0.045954
H171	H	0.224292	-0.459154	0.287379
H172	H	-0.265181	-1.202543	-0.302696
H173	H	0.068152	-0.869210	0.030637
H174	H	0.401485	-0.535877	0.363970
H175	H	-0.149782	-1.202534	-0.302699
H176	H	0.183551	-0.869201	0.030634
H177	H	0.516885	-0.535868	0.363967
H178	H	-0.149748	-1.480873	-0.024532
H179	H	0.183585	-1.147539	0.308801
H180	H	0.516918	-0.814206	0.642134
N181	N	-0.566110	-1.577906	0.072438
N182	N	-0.232776	-1.244572	0.405772
N183	N	0.100557	-0.911239	0.739105
H184	H	-0.555036	-1.564362	0.153088
H185	H	-0.221703	-1.231028	0.486421
H186	H	0.111631	-0.897695	0.819754
H187	H	-0.555006	-1.658485	0.058694
H188	H	-0.221673	-1.325151	0.392028
H189	H	0.111660	-0.991818	0.725361
N190	N	-0.726556	-1.182324	-0.322901
N191	N	-0.393222	-0.848991	0.010433
N192	N	-0.059889	-0.515658	0.343766
H193	H	-0.700167	-1.131797	-0.279198
H194	H	-0.366834	-0.798464	0.054136
H195	H	-0.033501	-0.465130	0.387469
H196	H	-0.756402	-1.133821	-0.371443
H197	H	-0.423069	-0.800488	-0.038110
H198	H	-0.089736	-0.467154	0.295223
N199	N	-0.433919	-1.577874	0.072438
N200	N	-0.100586	-1.244540	0.405771
N201	N	0.232748	-0.911207	0.739105
H202	H	-0.463718	-1.626459	0.121000
H203	H	-0.130385	-1.293126	0.454333
H204	H	0.202948	-0.959792	0.787667
H205	H	-0.407530	-1.534115	0.122911
H206	H	-0.074197	-1.200781	0.456245
H207	H	0.259136	-0.867448	0.789578
N208	N	-0.726512	-1.501211	-0.004198
N209	N	-0.393178	-1.167878	0.329136
N210	N	-0.059845	-0.834544	0.662469
H211	H	-0.756309	-1.549804	0.044361
H212	H	-0.422976	-1.216471	0.377694
H213	H	-0.089642	-0.883137	0.711028
H214	H	-0.700124	-1.457455	0.046280
H215	H	-0.366790	-1.124121	0.379613
H216	H	-0.033457	-0.790788	0.712946
H217	H	-0.850323	-1.480943	-0.024452
H218	H	-0.516990	-1.147609	0.308882
H219	H	-0.183656	-0.814276	0.642215
H220	H	-0.850347	-1.202619	-0.302636
H221	H	-0.517014	-0.869286	0.030697
H222	H	-0.183680	-0.535953	0.364031
