data_functionalizedCrystal
_audit_creation_method	'MofGen! by Chris Wilmer'
_symmetry_space_group_name_H-M	'P1'
_symmetry_Int_Tables_number	1
_symmetry_cell_setting	triclinic
loop_
_symmetry_equiv_pos_as_xyz
  x,y,z
_cell_length_a	6.817900
_cell_length_b	9.582889
_cell_length_c	17.458065
_cell_angle_alpha	92.159484
_cell_angle_beta	106.368158
_cell_angle_gamma	111.207298
loop_
_atom_site_label
_atom_site_type_symbol
_atom_site_fract_x
_atom_site_fract_y
_atom_site_fract_z
V1	V	-4.100774	-0.210030	-0.249010
O2	O	-4.045796	0.007031	-0.244421
O3	O	-4.091295	-0.413509	-0.247162
O4	O	-4.066626	-0.208143	-0.357678
O5	O	-4.070636	-0.199757	-0.133140
V6	V	-4.577511	-0.183908	-0.235169
O7	O	-4.376916	-0.267330	-0.279373
O8	O	-4.751566	-0.126608	-0.204806
O9	O	-4.363783	0.019571	-0.237017
O10	O	-4.749886	-0.400969	-0.239758
O11	O	-4.725046	-0.194181	-0.351039
O12	O	-4.388452	-0.185795	-0.126501
C13	C	-3.945304	-0.463071	-0.243197
C14	C	-4.018936	-0.629426	-0.242410
C15	C	-3.913834	-0.201104	-0.384170
C16	C	-3.967456	-0.200907	-0.473005
C17	C	-3.808543	-0.193296	-0.510678
C18	C	-3.858945	-0.193125	-0.594150
C19	C	-4.068255	-0.200554	-0.639947
C20	C	-4.227181	-0.208170	-0.602269
C21	C	-4.176784	-0.208352	-0.518799
C22	C	-4.238730	-0.200826	-0.890021
C23	C	-4.289115	-0.200639	-0.973496
C24	C	-3.920876	-0.185596	-0.965371
C25	C	-3.870490	-0.185770	-0.881900
C26	C	-4.029423	-0.193394	-0.844230
N27	N	-4.119776	-0.200374	-0.725268
N28	N	-3.977906	-0.193585	-0.758911
C29	C	-4.173118	0.069125	-0.240980
C30	C	-4.078725	0.235479	-0.241772
C31	C	-4.204587	-0.192839	-0.100005
C32	C	-4.130202	-0.193028	-0.011169
H33	H	-3.638085	-0.187208	-0.473392
C34	C	-3.643502	-0.178161	-0.832172
C35	C	-3.668406	-0.307384	-0.794755
C36	C	-3.459378	-0.300505	-0.748963
H37	H	-3.556046	-0.173745	-0.866528
H38	H	-3.572282	-0.090257	-0.792121
H39	H	-3.739593	-0.395265	-0.834801
H40	H	-3.755824	-0.311826	-0.760386
H41	H	-3.388159	-0.212600	-0.708911
H42	H	-3.371938	-0.296086	-0.783324
H43	H	-3.476249	-0.388173	-0.723564
H44	H	-3.729539	-0.186932	-0.624819
H45	H	-4.368149	-0.207029	-0.859360
C46	C	-4.348989	-0.216371	-0.477770
C47	C	-4.266443	-0.087462	-0.419391
C48	C	-4.425014	-0.094815	-0.381573
H49	H	-4.480941	-0.220698	-0.516904
H50	H	-4.380569	-0.304475	-0.452569
H51	H	-4.234892	0.000618	-0.444591
H52	H	-4.134511	-0.083110	-0.380241
H53	H	-4.456594	-0.182918	-0.356371
H54	H	-4.556957	-0.099145	-0.420712
H55	H	-4.369021	-0.007360	-0.341953
C56	C	-4.516587	-0.209067	-1.023220
C57	C	-4.679723	-0.343166	-1.016068
C58	C	-4.889283	-0.351005	-1.061877
H59	H	-4.540741	-0.124558	-1.004035
H60	H	-4.523933	-0.207956	-1.078340
H61	H	-4.672383	-0.344263	-0.960960
H62	H	-4.655642	-0.427699	-1.035259
H63	H	-4.896630	-0.349894	-1.116997
H64	H	-4.913415	-0.266489	-1.042688
H65	H	-4.999995	-0.441996	-1.057037
H66	H	-3.791487	-0.179391	-0.996051
H67	H	-4.397614	-0.214228	-0.639564
