data_functionalizedCrystal
_audit_creation_method	'MofGen! by Chris Wilmer'
_symmetry_space_group_name_H-M	'P1'
_symmetry_Int_Tables_number	1
_symmetry_cell_setting	triclinic
loop_
_symmetry_equiv_pos_as_xyz
  x,y,z
_cell_length_a	21.395362
_cell_length_b	11.169416
_cell_length_c	21.395355
_cell_angle_alpha	89.991917
_cell_angle_beta	90.043940
_cell_angle_gamma	89.971030
loop_
_atom_site_label
_atom_site_type_symbol
_atom_site_fract_x
_atom_site_fract_y
_atom_site_fract_z
Zn1	Zn	0.957936	0.477437	0.354631
Zn2	Zn	1.457936	0.977437	0.854631
Zn3	Zn	0.957871	0.678108	0.249873
Zn4	Zn	1.457871	1.178108	0.749873
Zn5	Zn	0.853151	0.477493	0.249832
Zn6	Zn	1.353151	0.977493	0.749832
Zn7	Zn	0.853153	0.678133	0.354577
Zn8	Zn	1.353153	1.178133	0.854577
O9	O	0.905528	0.577793	0.302228
O10	O	1.405528	1.077793	0.802228
O11	O	1.045605	0.504023	0.340774
O12	O	1.545605	1.004023	0.840774
O13	O	0.943952	0.651509	0.162189
O14	O	1.443952	1.151509	0.662189
O15	O	0.867078	0.309536	0.263740
O16	O	1.367078	0.809536	0.763740
O17	O	1.045557	0.651455	0.263808
O18	O	1.545557	1.151455	0.763808
O19	O	0.944063	0.309495	0.340735
O20	O	1.444063	0.809495	0.840735
O21	O	0.867015	0.504118	0.162160
O22	O	1.367015	1.004118	0.662160
O23	O	0.765473	0.504142	0.263688
O24	O	1.265473	1.004142	0.763688
O25	O	0.867080	0.651497	0.442262
O26	O	1.367080	1.151497	0.942262
O27	O	0.765474	0.651551	0.340643
O28	O	1.265474	1.151551	0.840643
O29	O	0.944064	0.504047	0.442302
O30	O	1.444064	1.004047	0.942302
O31	O	0.943953	0.846061	0.263756
O32	O	1.443953	1.346061	0.763756
O33	O	0.867017	0.846079	0.340682
O34	O	1.367017	1.346079	0.840682
C35	C	0.742740	0.577856	0.302156
C36	C	1.242740	1.077856	0.802156
C37	C	0.673099	0.577912	0.302139
C38	C	1.173099	1.077912	0.802139
C39	C	0.640403	0.654770	0.342150
C40	C	1.140403	1.154770	0.842150
C41	C	0.574967	0.654741	0.342178
C42	C	1.074967	1.154741	0.842178
C43	C	0.542230	0.577866	0.302184
C44	C	1.042230	1.077866	0.802184
C45	C	0.574935	0.500994	0.262170
C46	C	1.074935	1.000994	0.762170
C47	C	0.640369	0.501017	0.262148
C48	C	1.140369	1.001017	0.762148
C49	C	0.438504	0.568198	0.245778
C50	C	0.938504	1.068198	0.745778
C51	C	0.373071	0.568183	0.245799
C52	C	0.873071	1.068183	0.745799
C53	C	0.340410	0.577788	0.302253
C54	C	0.840410	1.077788	0.802253
C55	C	0.373189	0.587433	0.358688
C56	C	0.873189	1.087433	0.858688
C57	C	0.438623	0.587456	0.358665
C58	C	0.938623	1.087456	0.858665
C59	C	0.471278	0.577832	0.302204
C60	C	0.971278	1.077832	0.802204
C61	C	0.236761	0.654618	0.342298
C62	C	0.736761	1.154618	0.842298
C63	C	0.171324	0.654580	0.342327
C64	C	0.671324	1.154580	0.842327
C65	C	0.171293	0.500839	0.262313
C66	C	0.671293	1.000839	0.762313
C67	C	0.236728	0.500871	0.262290
C68	C	0.736728	1.000871	0.762290
C69	C	0.269458	0.577766	0.302281
C70	C	0.769458	1.077766	0.802281
C71	C	0.905495	0.889618	0.302232
C72	C	1.405495	1.389618	0.802232
C73	C	0.905538	1.023018	0.302254
C74	C	1.405538	1.523018	0.802254
C75	C	1.068951	0.577730	0.302302
C76	C	1.568951	1.077730	0.802302
C77	C	1.138592	0.577703	0.302333
C78	C	1.638592	1.077703	0.802333
C79	C	0.905580	0.577769	0.465652
C80	C	1.405580	1.077769	0.965652
C81	C	0.905602	0.577758	0.535293
C82	C	1.405602	1.077758	1.035293
C83	C	0.905571	1.264751	0.302245
C84	C	1.405571	1.764751	0.802245
C85	C	0.905574	1.131351	0.302269
C86	C	1.405574	1.631351	0.802269
C87	C	0.905512	0.577731	0.139441
C88	C	1.405512	1.077731	0.639441
C89	C	0.905611	0.577403	0.069800
C90	C	1.405611	1.077403	0.569800
C91	C	0.945686	0.500978	0.568028
C92	C	1.445686	1.000978	1.068028
C93	C	0.945685	0.500926	0.633463
C94	C	1.445685	1.000926	1.133463
C95	C	0.905607	0.577676	0.666161
C96	C	1.405607	1.077676	1.166161
C97	C	0.865515	0.654462	0.633419
C98	C	1.365515	1.154462	1.133419
C99	C	0.865513	0.654503	0.567985
C100	C	1.365513	1.154503	1.067985
C101	C	0.900648	0.685744	0.769836
C102	C	1.400648	1.185744	1.269836
C103	C	0.900655	0.685706	0.835269
C104	C	1.400655	1.185706	1.335269
C105	C	0.905611	0.577550	0.867982
C106	C	1.405611	1.077550	1.367982
C107	C	0.910573	0.469429	0.835255
C108	C	1.410573	0.969429	1.335255
C109	C	0.910570	0.469470	0.769821
C110	C	1.410570	0.969470	1.269821
C111	C	0.905605	0.577640	0.737114
C112	C	1.405605	1.077640	1.237114
C113	C	0.945696	0.500707	0.971669
C114	C	1.445696	1.000707	1.471669
C115	C	0.945690	0.500653	1.037106
C116	C	1.445690	1.000653	1.537106
C117	C	0.865524	0.654200	1.037061
C118	C	1.365524	1.154200	1.537061
C119	C	0.865526	0.654243	0.971625
C120	C	1.365526	1.154243	1.471625
C121	C	0.905615	0.577498	0.938934
C122	C	1.405615	1.077498	1.438934
H123	H	0.548341	0.717327	0.374762
H124	H	1.048341	1.217327	0.874762
H125	H	0.896618	0.773744	0.861910
H126	H	1.396618	1.273744	1.361910
H127	H	0.914609	0.381435	0.743177
H128	H	1.414609	0.881435	1.243177
H129	H	0.896445	0.773795	0.743206
H130	H	1.396445	1.273795	1.243206
H131	H	0.548276	0.438400	0.229608
H132	H	1.048276	0.938400	0.729608
H133	H	0.978331	0.438122	1.063758
H134	H	1.478331	0.938122	1.563758
H135	H	0.667047	0.717383	0.374715
H136	H	1.167047	1.217383	0.874715
H137	H	0.832885	0.716679	1.063683
H138	H	1.332885	1.216679	1.563683
H139	H	0.465310	0.595306	0.404616
H140	H	0.965310	1.095306	0.904616
H141	H	0.914609	0.381359	0.861889
H142	H	1.414609	0.881359	1.361889
H143	H	0.978329	0.438485	0.541414
H144	H	1.478329	0.938485	1.041414
H145	H	0.666990	0.438427	0.229566
H146	H	1.166990	0.938427	0.729566
H147	H	0.978325	0.438396	0.660121
H148	H	1.478325	0.938396	1.160121
H149	H	0.978335	0.438210	0.945051
H150	H	1.478335	0.938210	1.445051
H151	H	0.144704	0.717164	0.374912
H152	H	0.644704	1.217164	0.874912
H153	H	0.465092	0.560371	0.199803
H154	H	0.965092	1.060371	0.699803
H155	H	0.144640	0.438241	0.229752
H156	H	0.644640	0.938241	0.729752
H157	H	0.346598	0.595252	0.404658
H158	H	0.846598	1.095252	0.904658
H159	H	0.263411	0.717225	0.374864
H160	H	0.763411	1.217225	0.874864
H161	H	0.263350	0.438291	0.229706
H162	H	0.763350	0.938291	0.729706
H163	H	0.346387	0.560337	0.199847
H164	H	0.846387	1.060337	0.699847
H165	H	0.832889	0.716773	0.944972
H166	H	1.332889	1.216773	1.444972
H167	H	0.832881	0.716949	0.660046
H168	H	1.332881	1.216949	1.160046
H169	H	0.832869	0.717026	0.541332
H170	H	1.332869	1.217026	1.041332
