data_functionalizedCrystal
_audit_creation_method	'MofGen! by Chris Wilmer'
_symmetry_space_group_name_H-M	'P1'
_symmetry_Int_Tables_number	1
_symmetry_cell_setting	triclinic
loop_
_symmetry_equiv_pos_as_xyz
  x,y,z
_cell_length_a	19.121424
_cell_length_b	19.120786
_cell_length_c	19.120915
_cell_angle_alpha	89.863545
_cell_angle_beta	94.749638
_cell_angle_gamma	95.008527
loop_
_atom_site_label
_atom_site_type_symbol
_atom_site_fract_x
_atom_site_fract_y
_atom_site_fract_z
Zn1	Zn	1.048453	-0.249444	-0.341889
Zn2	Zn	1.048803	-0.361679	-0.219634
Zn3	Zn	0.935818	-0.249473	-0.229242
Zn4	Zn	0.925740	-0.372103	-0.341829
O5	O	0.989704	-0.308175	-0.283148
O6	O	1.147140	-0.259958	-0.321676
O7	O	1.038180	-0.342444	-0.122626
O8	O	0.954831	-0.151178	-0.248231
O9	O	1.147398	-0.342416	-0.231855
O10	O	1.037583	-0.151157	-0.330992
O11	O	0.955170	-0.260007	-0.129685
O12	O	0.835841	-0.270115	-0.248173
O13	O	0.937654	-0.360183	-0.440119
O14	O	0.828437	-0.360211	-0.330890
O15	O	1.027811	-0.270066	-0.440163
O16	O	1.028408	-0.461354	-0.231797
O17	O	0.937994	-0.469012	-0.321573
C18	C	0.806562	-0.316298	-0.290568
C19	C	0.728212	-0.319791	-0.293758
C20	C	0.982164	-0.490669	-0.275650
C21	C	0.979001	-0.568738	-0.272464
C22	C	0.284886	-0.341881	-0.314013
C23	C	0.358504	-0.338604	-0.311002
C24	C	0.399145	-0.289988	-0.266508
C25	C	0.366164	-0.244652	-0.225017
C26	C	0.292547	-0.247933	-0.228024
C27	C	0.621614	-0.277735	-0.255274
C28	C	0.695236	-0.274456	-0.252271
C29	C	0.687571	-0.368410	-0.338256
C30	C	0.613953	-0.371683	-0.341263
C31	C	0.580978	-0.326349	-0.299769
C32	C	0.474395	-0.286636	-0.263432
C33	C	0.505729	-0.329705	-0.302842
C34	C	1.020565	-0.605347	-0.314094
C35	C	1.017591	-0.678702	-0.311101
C36	C	0.973056	-0.715447	-0.266473
C37	C	0.931487	-0.678833	-0.224842
C38	C	0.934458	-0.605479	-0.227839
C39	C	0.961928	-0.936930	-0.255270
C40	C	0.958962	-1.010288	-0.252274
C41	C	1.045065	-1.010153	-0.338534
C42	C	1.048035	-0.936798	-0.341524
C43	C	1.006464	-0.900190	-0.299895
C44	C	0.970016	-0.790427	-0.263411
C45	C	1.009500	-0.825212	-0.302962
C46	C	1.173560	-0.300021	-0.275700
C47	C	1.251909	-0.296546	-0.272526
C48	C	0.981570	-0.316284	-0.466337
C49	C	0.978103	-0.319739	-0.544401
C50	C	0.997292	-0.124969	-0.290690
C51	C	1.000526	-0.046897	-0.293904
C52	C	0.956149	-0.341676	-0.985912
C53	C	0.959403	-0.338419	-0.912563
C54	C	1.007974	-0.289875	-0.875915
C55	C	1.053288	-0.244580	-0.912620
C56	C	1.050029	-0.247834	-0.985968
C57	C	1.020158	-0.277699	-0.654454
C58	C	1.023415	-0.274450	-0.581100
C59	C	0.929529	-0.368288	-0.581049
C60	C	0.926278	-0.371540	-0.654398
C61	C	0.971589	-0.326243	-0.691097
C62	C	1.011303	-0.286546	-0.800941
C63	C	0.968256	-0.329569	-0.766070
C64	C	0.997849	-0.300045	-0.100673
C65	C	1.001460	-0.296386	-0.022612
H66	H	0.251800	-0.381465	-0.350249
O67	O	0.461925	-0.382161	-0.350829
H68	H	0.428099	-0.353880	-0.389289
O69	O	1.089890	-1.049635	-0.383444
H70	H	1.080338	-1.106816	-0.373871
O71	O	0.723142	-0.417293	-0.383014
H72	H	0.756601	-0.450096	-0.348692
H73	H	0.728324	-0.234859	-0.216044
H74	H	0.594775	-0.240824	-0.221484
H75	H	0.399260	-0.205071	-0.188786
H76	H	0.265699	-0.211015	-0.194243
O77	O	0.921994	-0.830068	-0.215273
H78	H	0.866693	-0.819034	-0.230084
H79	H	0.928081	-0.907130	-0.221372
H80	H	0.895223	-0.708756	-0.188508
H81	H	0.507493	-0.247052	-0.227205
H82	H	1.092832	-0.205052	-0.882775
O83	O	0.873892	-0.423903	-0.693921
H84	H	0.879245	-0.418563	-0.751089
O85	O	0.903755	-0.394031	-1.025435
H86	H	0.932332	-0.429859	-1.056098
O87	O	1.068606	-0.565716	-0.362221
H88	H	1.097005	-0.603499	-0.390668
O89	O	1.062421	-0.718190	-0.356000
H90	H	1.093894	-0.680316	-0.387529
H91	H	1.084299	-0.906882	-0.377863
H92	H	0.922693	-1.040204	-0.215933
O93	O	0.889636	-0.565988	-0.182933
H94	H	0.858174	-0.603860	-0.151391
O95	O	1.057541	-0.785586	-0.351088
H96	H	1.025737	-0.755157	-0.389439
H97	H	0.922513	-0.375305	-0.882685
H98	H	0.892639	-0.405165	-0.551161
H99	H	1.062967	-0.234916	-0.551264
O100	O	1.069034	-0.228853	-0.694032
H101	H	1.103360	-0.194559	-0.656223
H102	H	1.086924	-0.210952	-1.015848
O103	O	0.915866	-0.381921	-0.805596
H104	H	0.926291	-0.435890	-0.788757
O105	O	0.394074	-0.387494	-0.355755
H106	H	0.353446	-0.421842	-0.387208
O107	O	0.570118	-0.424265	-0.389092
H108	H	0.605418	-0.455296	-0.417373
O109	O	1.063698	-0.234199	-0.761408
H110	H	1.035118	-0.198382	-0.730736
