data_functionalizedCrystal
_audit_creation_method	'MofGen! by Chris Wilmer'
_symmetry_space_group_name_H-M	'P1'
_symmetry_Int_Tables_number	1
_symmetry_cell_setting	triclinic
loop_
_symmetry_equiv_pos_as_xyz
  x,y,z
_cell_length_a	19.121321
_cell_length_b	19.121063
_cell_length_c	18.215399
_cell_angle_alpha	92.409843
_cell_angle_beta	92.421570
_cell_angle_gamma	89.929715
loop_
_atom_site_label
_atom_site_type_symbol
_atom_site_fract_x
_atom_site_fract_y
_atom_site_fract_z
Zn1	Zn	1.059811	-0.324761	-0.383198
Zn2	Zn	1.309811	-0.074761	-0.133198
Zn3	Zn	1.559811	0.175239	0.116802
Zn4	Zn	1.809811	0.425239	0.366802
Zn5	Zn	1.054716	-0.441999	-0.265592
Zn6	Zn	1.304716	-0.191999	-0.015592
Zn7	Zn	1.554716	0.058001	0.234408
Zn8	Zn	1.804716	0.308001	0.484408
Zn9	Zn	0.942577	-0.319789	-0.265168
Zn10	Zn	1.192577	-0.069789	-0.015168
Zn11	Zn	1.442577	0.180211	0.234832
Zn12	Zn	1.692577	0.430211	0.484832
Zn13	Zn	0.937540	-0.436968	-0.393635
Zn14	Zn	1.187540	-0.186968	-0.143635
Zn15	Zn	1.437540	0.063032	0.106365
Zn16	Zn	1.687540	0.313032	0.356365
O17	O	0.998661	-0.380879	-0.326898
O18	O	1.248661	-0.130879	-0.076898
O19	O	1.498661	0.119121	0.173102
O20	O	1.748661	0.369121	0.423102
O21	O	1.157236	-0.344498	-0.363407
O22	O	1.407236	-0.094498	-0.113407
O23	O	1.657236	0.155502	0.136593
O24	O	1.907236	0.405502	0.386593
O25	O	1.039817	-0.425812	-0.162554
O26	O	1.289817	-0.175812	0.087446
O27	O	1.539817	0.074188	0.337446
O28	O	1.789817	0.324188	0.587446
O29	O	0.962368	-0.222345	-0.276279
O30	O	1.212368	0.027655	-0.026279
O31	O	1.462368	0.277655	0.223721
O32	O	1.712368	0.527655	0.473721
O33	O	1.153493	-0.430633	-0.277002
O34	O	1.403493	-0.180633	-0.027002
O35	O	1.653493	0.069367	0.222998
O36	O	1.903493	0.319367	0.472998
O37	O	1.048499	-0.225997	-0.362995
O38	O	1.298499	0.024003	-0.112995
O39	O	1.548499	0.274003	0.137005
O40	O	1.798499	0.524003	0.387005
O41	O	0.957428	-0.336026	-0.162242
O42	O	1.207428	-0.086026	0.087758
O43	O	1.457428	0.163974	0.337758
O44	O	1.707428	0.413974	0.587758
O45	O	0.843808	-0.331148	-0.286400
O46	O	1.093808	-0.081148	-0.036400
O47	O	1.343808	0.168852	0.213600
O48	O	1.593808	0.418852	0.463600
O49	O	0.953784	-0.422058	-0.495232
O50	O	1.203784	-0.172058	-0.245232
O51	O	1.453784	0.077942	0.004768
O52	O	1.703784	0.327942	0.254768
O53	O	0.840107	-0.417238	-0.380784
O54	O	1.090107	-0.167238	-0.130784
O55	O	1.340107	0.082762	0.119216
O56	O	1.590107	0.332762	0.369216
O57	O	1.043615	-0.339620	-0.487564
O58	O	1.293615	-0.089620	-0.237564
O59	O	1.543615	0.160380	0.012436
O60	O	1.793615	0.410380	0.262436
O61	O	1.034933	-0.539435	-0.287123
O62	O	1.284933	-0.289435	-0.037123
O63	O	1.534933	-0.039435	0.212877
O64	O	1.784933	0.210565	0.462877
O65	O	0.948844	-0.535739	-0.381195
O66	O	1.198844	-0.285739	-0.131195
O67	O	1.448844	-0.035739	0.118805
O68	O	1.698844	0.214261	0.368805
C69	C	0.816521	-0.373108	-0.334679
C70	C	1.066521	-0.123108	-0.084679
C71	C	1.316521	0.126892	0.165321
C72	C	1.566521	0.376892	0.415321
C73	C	0.738600	-0.369800	-0.338025
C74	C	0.988600	-0.119800	-0.088025
C75	C	1.238600	0.130200	0.161975
C76	C	1.488600	0.380200	0.411975
C77	C	0.297993	-0.348791	-0.359247
C78	C	0.547993	-0.098791	-0.109247
C79	C	0.797993	0.151209	0.140753
C80	C	1.047993	0.401209	0.390753
C81	C	0.371208	-0.351912	-0.356098
C82	C	0.621208	-0.101912	-0.106098
C83	C	0.871208	0.148088	0.143902
C84	C	1.121208	0.398088	0.393902
C85	C	0.405861	-0.398245	-0.309458
C86	C	0.655861	-0.148245	-0.059458
C87	C	0.905861	0.101755	0.190542
C88	C	1.155861	0.351755	0.440542
C89	C	0.367295	-0.441464	-0.265969
C90	C	0.617295	-0.191464	-0.015969
C91	C	0.867295	0.058536	0.234031
C92	C	1.117295	0.308536	0.484031
C93	C	0.294082	-0.438346	-0.269122
C94	C	0.544082	-0.188346	-0.019122
C95	C	0.794082	0.061654	0.230878
C96	C	1.044082	0.311654	0.480878
C97	C	0.626820	-0.409902	-0.297689
C98	C	0.876820	-0.159902	-0.047689
C99	C	1.126820	0.090098	0.202311
C100	C	1.376820	0.340098	0.452311
C101	C	0.700039	-0.413015	-0.294538
C102	C	0.950039	-0.163015	-0.044538
C103	C	1.200039	0.086985	0.205462
C104	C	1.450039	0.336985	0.455462
C105	C	0.703947	-0.323464	-0.384668
C106	C	0.953947	-0.073464	-0.134668
C107	C	1.203947	0.176536	0.115332
C108	C	1.453947	0.426536	0.365332
C109	C	0.630732	-0.320347	-0.387813
C110	C	0.880732	-0.070347	-0.137813
C111	C	1.130732	0.179653	0.112187
C112	C	1.380732	0.429653	0.362187
C113	C	0.592173	-0.363569	-0.344327
C114	C	0.842173	-0.113569	-0.094327
C115	C	1.092173	0.136431	0.155673
C116	C	1.342173	0.386431	0.405673
C117	C	0.480698	-0.401434	-0.306238
C118	C	0.730698	-0.151434	-0.056238
C119	C	0.980698	0.098566	0.193762
C120	C	1.230698	0.348566	0.443762
C121	C	0.517337	-0.360382	-0.347553
C122	C	0.767337	-0.110382	-0.097553
C123	C	1.017337	0.139618	0.152447
C124	C	1.267337	0.389618	0.402447
C125	C	0.990808	-0.563025	-0.335352
C126	C	1.240808	-0.313025	-0.085352
C127	C	1.490808	-0.063025	0.164648
C128	C	1.740808	0.186975	0.414648
C129	C	0.987513	-0.640951	-0.338991
C130	C	1.237513	-0.390951	-0.088991
C131	C	1.487513	-0.140951	0.161009
C132	C	1.737513	0.109049	0.411009
C133	C	1.030821	-0.679463	-0.291760
C134	C	1.280821	-0.429463	-0.041760
C135	C	1.530821	-0.179463	0.208240
C136	C	1.780821	0.070537	0.458240
C137	C	1.027726	-0.752683	-0.295186
C138	C	1.277726	-0.502683	-0.045186
C139	C	1.527726	-0.252683	0.204814
C140	C	1.777726	-0.002683	0.454814
C141	C	0.981319	-0.787388	-0.345841
C142	C	1.231319	-0.537388	-0.095841
C143	C	1.481319	-0.287388	0.154159
C144	C	1.731319	-0.037388	0.404159
C145	C	0.938008	-0.748871	-0.393077
C146	C	1.188008	-0.498871	-0.143077
C147	C	1.438008	-0.248871	0.106923
C148	C	1.688008	0.001129	0.356923
C149	C	0.941107	-0.675653	-0.389654
C150	C	1.191107	-0.425653	-0.139654
C151	C	1.441107	-0.175653	0.110346
C152	C	1.691107	0.074347	0.360346
C153	C	0.969720	-1.008364	-0.358629
C154	C	1.219720	-0.758364	-0.108629
C155	C	1.469720	-0.508364	0.141371
C156	C	1.719720	-0.258364	0.391371
C157	C	0.966623	-1.081588	-0.362047
C158	C	1.216623	-0.831588	-0.112047
C159	C	1.466623	-0.581588	0.137953
C160	C	1.716623	-0.331588	0.387953
C161	C	1.056342	-1.085394	-0.264156
C162	C	1.306342	-0.835394	-0.014156
C163	C	1.556342	-0.585394	0.235844
C164	C	1.806342	-0.335394	0.485844
C165	C	1.059434	-1.012174	-0.260734
C166	C	1.309434	-0.762174	-0.010734
C167	C	1.559434	-0.512174	0.239266
C168	C	1.809434	-0.262174	0.489266
C169	C	1.016126	-0.973664	-0.307974
C170	C	1.266126	-0.723664	-0.057974
C171	C	1.516126	-0.473664	0.192026
C172	C	1.766126	-0.223664	0.442026
C173	C	0.978152	-0.862230	-0.349343
C174	C	1.228152	-0.612230	-0.099343
C175	C	1.478152	-0.362230	0.150657
C176	C	1.728152	-0.112230	0.400657
C177	C	1.019297	-0.898823	-0.304475
C178	C	1.269297	-0.648823	-0.054475
C179	C	1.519297	-0.398823	0.195525
C180	C	1.769297	-0.148823	0.445525
C181	C	1.181512	-0.388681	-0.319088
C182	C	1.431512	-0.138681	-0.069088
C183	C	1.681512	0.111319	0.180912
C184	C	1.931512	0.361319	0.430912
C185	C	1.259433	-0.392006	-0.315759
C186	C	1.509433	-0.142006	-0.065759
C187	C	1.759433	0.107994	0.184241
C188	C	2.009433	0.357994	0.434241
C189	C	0.998706	-0.380833	-0.518847
C190	C	1.248706	-0.130833	-0.268847
C191	C	1.498706	0.119167	-0.018847
C192	C	1.748706	0.369167	0.231153
C193	C	0.998725	-0.380813	-0.600644
C194	C	1.248725	-0.130813	-0.350644
C195	C	1.498725	0.119187	-0.100644
C196	C	1.748725	0.369187	0.149356
C197	C	1.006564	-0.198022	-0.318426
C198	C	1.256564	0.051978	-0.068426
C199	C	1.506564	0.301978	0.181574
C200	C	1.756564	0.551978	0.431574
C201	C	1.009931	-0.120100	-0.314816
C202	C	1.259931	0.129900	-0.064816
C203	C	1.509931	0.379900	0.185184
C204	C	1.759931	0.629900	0.435184
C205	C	1.045518	-0.337846	-0.784844
C206	C	1.295518	-0.087846	-0.534844
C207	C	1.545518	0.162154	-0.284844
C208	C	1.795518	0.412154	-0.034844
C209	C	1.045527	-0.337826	-0.861702
C210	C	1.295527	-0.087826	-0.611702
C211	C	1.545527	0.162174	-0.361702
C212	C	1.795527	0.412174	-0.111702
C213	C	0.951986	-0.423673	-0.869675
C214	C	1.201986	-0.173673	-0.619675
C215	C	1.451986	0.076327	-0.369675
C216	C	1.701986	0.326327	-0.119675
C217	C	0.951974	-0.423689	-0.792819
C218	C	1.201974	-0.173689	-0.542819
C219	C	1.451974	0.076311	-0.292819
C220	C	1.701974	0.326311	-0.042819
C221	C	0.998744	-0.380777	-0.750405
C222	C	1.248744	-0.130777	-0.500405
C223	C	1.498744	0.119223	-0.250405
C224	C	1.748744	0.369223	-0.000405
C225	C	0.998765	-0.380741	-0.904119
C226	C	1.248765	-0.130741	-0.654119
C227	C	1.498765	0.119259	-0.404119
C228	C	1.748765	0.369259	-0.154119
C229	C	0.998775	-0.380719	-0.987451
C230	C	1.248775	-0.130719	-0.737451
C231	C	1.498775	0.119281	-0.487451
C232	C	1.748775	0.369281	-0.237451
C233	C	0.998733	-0.380797	-0.667068
C234	C	1.248733	-0.130797	-0.417068
C235	C	1.498733	0.119203	-0.167068
C236	C	1.748733	0.369203	0.082932
C237	C	0.998659	-0.380877	-0.135692
C238	C	1.248659	-0.130877	0.114308
C239	C	1.498659	0.119123	0.364308
C240	C	1.748659	0.369123	0.614308
C241	C	0.998784	-0.380705	-0.053880
C242	C	1.248784	-0.130705	0.196120
C243	C	1.498784	0.119295	0.446120
C244	C	1.748784	0.369295	0.696120
H245	H	0.508921	-0.439155	-0.268261
H246	H	0.758921	-0.189155	-0.018261
H247	H	1.008921	0.060845	0.231739
H248	H	1.258921	0.310845	0.481739
H249	H	1.083614	-0.302866	-0.889738
H250	H	1.333614	-0.052866	-0.639738
H251	H	1.583614	0.197134	-0.389738
H252	H	1.833614	0.447134	-0.139738
H253	H	0.735350	-0.288276	-0.420073
H254	H	0.985350	-0.038276	-0.170073
H255	H	1.235350	0.211724	0.079927
H256	H	1.485350	0.461724	0.329927
Br257	Br	0.583708	-0.257467	-0.451114
Br258	Br	0.833708	-0.007467	-0.201114
Br259	Br	1.083708	0.242533	0.048886
Br260	Br	1.333708	0.492533	0.298886
H261	H	0.928840	-1.109843	-0.403309
H262	H	1.178840	-0.859843	-0.153309
H263	H	1.428840	-0.609843	0.096691
H264	H	1.678840	-0.359843	0.346691
Br265	Br	1.082281	-0.851722	-0.235736
Br266	Br	1.332281	-0.601722	0.014264
Br267	Br	1.582281	-0.351722	0.264264
Br268	Br	1.832281	-0.101722	0.514264
Br269	Br	0.888518	-0.481911	-0.927241
Br270	Br	1.138518	-0.231911	-0.677241
Br271	Br	1.388518	0.018089	-0.427241
Br272	Br	1.638518	0.268089	-0.177241
Br273	Br	1.115117	-1.137662	-0.200053
Br274	Br	1.365117	-0.887662	0.049947
Br275	Br	1.615117	-0.637662	0.299947
Br276	Br	1.865117	-0.387662	0.549947
Br277	Br	0.423538	-0.293267	-0.415126
Br278	Br	0.673538	-0.043267	-0.165126
Br279	Br	0.923538	0.206733	0.084874
Br280	Br	1.173538	0.456733	0.334874
H281	H	0.905842	-0.644297	-0.428116
H282	H	1.155842	-0.394297	-0.178116
H283	H	1.405842	-0.144297	0.071884
H284	H	1.655842	0.105703	0.321884
H285	H	0.940365	-0.890496	-0.390585
H286	H	1.190365	-0.640496	-0.140585
H287	H	1.440365	-0.390496	0.109415
H288	H	1.690365	-0.140496	0.359415
H289	H	0.395515	-0.479191	-0.227997
H290	H	0.645515	-0.229191	0.022003
H291	H	0.895515	0.020809	0.272003
H292	H	1.145515	0.270809	0.522003
H293	H	1.068608	-0.651211	-0.250508
H294	H	1.318608	-0.401211	-0.000508
H295	H	1.568608	-0.151211	0.249492
H296	H	1.818608	0.098789	0.499492
H297	H	1.083599	-0.302902	-0.750313
H298	H	1.333599	-0.052902	-0.500313
H299	H	1.583599	0.197098	-0.250313
H300	H	1.833599	0.447098	-0.000313
H301	H	0.913880	-0.458648	-0.764779
H302	H	1.163880	-0.208648	-0.514779
H303	H	1.413880	0.041352	-0.264779
H304	H	1.663880	0.291352	-0.014779
Br305	Br	0.574499	-0.468539	-0.238648
Br306	Br	0.824499	-0.218539	0.011352
Br307	Br	1.074499	0.031461	0.261352
Br308	Br	1.324499	0.281461	0.511352
H309	H	0.728251	-0.450746	-0.256557
H310	H	0.978251	-0.200746	-0.006557
H311	H	1.228251	0.049254	0.243443
H312	H	1.478251	0.299254	0.493443
Br313	Br	0.241748	-0.497005	-0.210110
Br314	Br	0.491748	-0.247005	0.039890
Br315	Br	0.741748	0.002995	0.289890
Br316	Br	0.991748	0.252995	0.539890
Br317	Br	1.122427	-0.965079	-0.191995
Br318	Br	1.372427	-0.715079	0.058005
Br319	Br	1.622427	-0.465079	0.308005
Br320	Br	1.872427	-0.215079	0.558005
Br321	Br	0.910945	-0.956109	-0.422740
Br322	Br	1.160945	-0.706109	-0.172740
Br323	Br	1.410945	-0.456109	0.077260
Br324	Br	1.660945	-0.206109	0.327260
H325	H	0.489119	-0.322661	-0.385529
H326	H	0.739119	-0.072661	-0.135529
H327	H	0.989119	0.177339	0.114471
H328	H	1.239119	0.427339	0.364471
Br329	Br	0.250972	-0.285903	-0.422541
Br330	Br	0.500972	-0.035903	-0.172541
Br331	Br	0.750972	0.214097	0.077459
Br332	Br	1.000972	0.464097	0.327459
H333	H	1.062992	-0.784036	-0.256725
H334	H	1.312992	-0.534036	-0.006725
H335	H	1.562992	-0.284036	0.243275
H336	H	1.812992	-0.034036	0.493275
Br337	Br	0.875031	-0.795971	-0.461830
Br338	Br	1.125031	-0.545971	-0.211830
Br339	Br	1.375031	-0.295971	0.038170
Br340	Br	1.625031	-0.045971	0.288170
