data_functionalizedCrystal
_audit_creation_method	'MofGen! by Chris Wilmer'
_symmetry_space_group_name_H-M	'P1'
_symmetry_Int_Tables_number	1
_symmetry_cell_setting	triclinic
loop_
_symmetry_equiv_pos_as_xyz
  x,y,z
_cell_length_a	18.050591
_cell_length_b	12.759393
_cell_length_c	12.759400
_cell_angle_alpha	89.970195
_cell_angle_beta	90.010651
_cell_angle_gamma	89.971244
loop_
_atom_site_label
_atom_site_type_symbol
_atom_site_fract_x
_atom_site_fract_y
_atom_site_fract_z
Zn1	Zn	1.135420	-0.594244	-0.418327
Zn2	Zn	1.135343	-0.418566	-0.594043
Zn3	Zn	1.011222	-0.418555	-0.418366
Zn4	Zn	1.011217	-0.594180	-0.593953
O5	O	1.073301	-0.506386	-0.506172
O6	O	1.239334	-0.570972	-0.441658
O7	O	1.118848	-0.271544	-0.570793
O8	O	1.027732	-0.441883	-0.271340
O9	O	1.239278	-0.441902	-0.570755
O10	O	1.118979	-0.570961	-0.271311
O11	O	1.027657	-0.271536	-0.441724
O12	O	0.907297	-0.441821	-0.441637
O13	O	1.027722	-0.741209	-0.570601
O14	O	0.907293	-0.570851	-0.570639
O15	O	1.118974	-0.741257	-0.441570
O16	O	1.118843	-0.441840	-0.741052
O17	O	1.027648	-0.570862	-0.740986
C18	C	0.880348	-0.506328	-0.506133
C19	C	0.797803	-0.506328	-0.506142
C20	C	1.073356	-0.780420	-0.506071
C21	C	1.073380	-0.897197	-0.506028
C22	C	1.073257	-0.506368	-0.779140
C23	C	1.073306	-0.506395	-0.895916
C24	C	0.598333	-0.436323	-0.435909
C25	C	0.548927	-0.410475	-0.531739
C26	C	0.646672	-0.506376	-0.506174
C27	C	0.548997	-0.532221	-0.410376
C28	C	0.500687	-0.506420	-0.506196
C29	C	0.598353	-0.480478	-0.602054
C30	C	0.598428	-0.602269	-0.480627
C31	C	0.549044	-0.576457	-0.576524
C32	C	0.730771	-0.506348	-0.506159
C33	C	0.416591	-0.506448	-0.506221
C34	C	1.267006	-0.506445	-0.506212
C35	C	1.349552	-0.506471	-0.506229
C36	C	1.120898	-0.952085	-0.438831
C37	C	1.120911	-1.061809	-0.438786
C38	C	1.025885	-1.061747	-0.573144
C39	C	1.025869	-0.952025	-0.573183
C40	C	1.147497	-1.211791	-0.314833
C41	C	1.195027	-1.266683	-0.247645
C42	C	1.267490	-1.231105	-0.231544
C43	C	1.292438	-1.140637	-0.282647
C44	C	1.244912	-1.085751	-0.349843
C45	C	1.172439	-1.121327	-0.365923
C46	C	0.999290	-0.802041	-0.697138
C47	C	0.951767	-0.747153	-0.764340
C48	C	0.879303	-0.782728	-0.780451
C49	C	0.854357	-0.873200	-0.729367
C50	C	0.901880	-0.928088	-0.662165
C51	C	0.974344	-0.892505	-0.646052
C52	C	1.073288	-0.233419	-0.506197
C53	C	1.073408	-0.116643	-0.505944
C54	C	1.120798	-0.573663	-0.950673
C55	C	1.120839	-0.573692	-1.060397
C56	C	1.025895	-0.439175	-1.060597
C57	C	1.025850	-0.439153	-0.950875
C58	C	1.147390	-0.697666	-1.210229
C59	C	1.194894	-0.764925	-1.264990
C60	C	1.267338	-0.781151	-1.229289
C61	C	1.292293	-0.730104	-1.138829
C62	C	1.244793	-0.662838	-1.084074
C63	C	1.172339	-0.646631	-1.119773
C64	C	0.999307	-0.315177	-0.801042
C65	C	0.951810	-0.247904	-0.746285
C66	C	0.879365	-0.231667	-0.781983
C67	C	0.854413	-0.282696	-0.872447
C68	C	0.901909	-0.349968	-0.927204
C69	C	0.974354	-0.366207	-0.891498
C70	C	1.073365	-0.506428	-0.232139
C71	C	1.073392	-0.506446	-0.115362
H72	H	0.527185	-0.329399	-0.553363
H73	H	0.619975	-0.377018	-0.376552
H74	H	1.159583	-0.907447	-0.384146
O75	O	0.783997	-0.907933	-0.744930
C76	C	0.692379	-1.038716	-0.703100
C77	C	0.772085	-0.999511	-0.685393
H78	H	0.682718	-1.112750	-0.654958
H79	H	0.683881	-1.056846	-0.789752
H80	H	0.651511	-0.975521	-0.677644
H81	H	0.813004	-1.062661	-0.710789
H82	H	0.780521	-0.981351	-0.598736
H83	H	0.972087	-0.673493	-0.805945
O84	O	0.523042	-0.558410	-0.313800
C85	C	0.450850	-0.680014	-0.211600
C86	C	0.480178	-0.650475	-0.321034
H87	H	0.416202	-0.754462	-0.217408
H88	H	0.415134	-0.613478	-0.179917
H89	H	0.499556	-0.694006	-0.156438
H90	H	0.431519	-0.636500	-0.376275
H91	H	0.515916	-0.717027	-0.352631
H92	H	0.619943	-0.458546	-0.683102
H93	H	0.527538	-0.635717	-0.636022
H94	H	1.306189	-1.275806	-0.176837
H95	H	0.620188	-0.683320	-0.458974
H96	H	1.174708	-1.340342	-0.206037
O97	O	1.069726	-0.767565	-0.681670
C98	C	1.187576	-0.726905	-0.760466
C99	C	1.107829	-0.765971	-0.778114
H100	H	1.218401	-0.725583	-0.838430
H101	H	1.217299	-0.781690	-0.703719
H102	H	1.186046	-0.644441	-0.726184
H103	H	1.109291	-0.848419	-0.812431
H104	H	1.078138	-0.711115	-0.834823
H105	H	1.265226	-1.012097	-0.391453
H106	H	1.351448	-1.111683	-0.269539
H107	H	1.088399	-0.684470	-1.239299
O108	O	1.077055	-1.246202	-0.330358
C109	C	0.946808	-1.207089	-0.316538
C110	C	1.026546	-1.167992	-0.298876
H111	H	0.905950	-1.143868	-0.291114
H112	H	0.937090	-1.281145	-0.268450
H113	H	0.938358	-1.225180	-0.403206
H114	H	1.035052	-1.149842	-0.212236
H115	H	1.036226	-1.093971	-0.347031
O116	O	1.313413	-0.846642	-1.282412
C117	C	1.334717	-1.022109	-1.345357
C118	C	1.282485	-0.948057	-1.285150
H119	H	1.309725	-1.104114	-1.347609
H120	H	1.390785	-1.025033	-1.304311
H121	H	1.342288	-0.991975	-1.428797
H122	H	1.274853	-0.978136	-1.201706
H123	H	1.226448	-0.945139	-1.326277
O124	O	1.362658	-0.745706	-1.104039
C125	C	1.454242	-0.704117	-0.973100
C126	C	1.374542	-0.686333	-1.012402
H127	H	1.463871	-0.656141	-0.898994
H128	H	1.495187	-0.678632	-1.036168
H129	H	1.462658	-0.790816	-0.955008
H130	H	1.366054	-0.599650	-1.030484
H131	H	1.333638	-0.711887	-0.949311
H132	H	0.987204	-1.106401	-0.627822
H133	H	0.881564	-1.001755	-0.620570
H134	H	0.840613	-0.738033	-0.835182
O135	O	1.166808	-0.639138	-0.897330
C136	C	1.202799	-0.817897	-0.863640
C137	C	1.150638	-0.743861	-0.924094
H138	H	1.189755	-0.902579	-0.885273
H139	H	1.194607	-0.806418	-0.775800
H140	H	1.262694	-0.799489	-0.885149
H141	H	1.090723	-0.762223	-0.902674
H142	H	1.158893	-0.755353	-1.011919
O143	O	1.269036	-0.613085	-0.996307
C144	C	1.291997	-0.447532	-0.911547
C145	C	1.264538	-0.503737	-1.011020
H146	H	1.288356	-0.359116	-0.923399
H147	H	1.351955	-0.470590	-0.895427
H148	H	1.255958	-0.471294	-0.842134
H149	H	1.300523	-0.480004	-1.080493
H150	H	1.204569	-0.480678	-1.027047
O151	O	1.170729	-0.814406	-1.352960
C152	C	1.187967	-0.841229	-1.538286
C153	C	1.215392	-0.785106	-1.438748
H154	H	1.224073	-0.817579	-1.607667
H155	H	1.128037	-0.818082	-1.554483
H156	H	1.191515	-0.929646	-1.526375
H157	H	1.211892	-0.696680	-1.450583
H158	H	1.275308	-0.808339	-1.422581
H159	H	0.987260	-0.384427	-1.105359
H160	H	0.881587	-0.391519	-1.000865
H161	H	0.795423	-0.269472	-0.901516
H162	H	0.840695	-0.176884	-0.737391
O163	O	1.069719	-0.330775	-0.766428
C164	C	1.187605	-0.252204	-0.725613
C165	C	1.107890	-0.234403	-0.764847
H166	H	1.218484	-0.174298	-0.724301
H167	H	1.217314	-0.308998	-0.780291
H168	H	1.186013	-0.286496	-0.643122
H169	H	1.109414	-0.200076	-0.847322
H170	H	1.078213	-0.177646	-0.710097
H171	H	0.972135	-0.206349	-0.672628
