data_functionalizedCrystal
_audit_creation_method	'MofGen! by Chris Wilmer'
_symmetry_space_group_name_H-M	'P1'
_symmetry_Int_Tables_number	1
_symmetry_cell_setting	triclinic
loop_
_symmetry_equiv_pos_as_xyz
  x,y,z
_cell_length_a	10.723024
_cell_length_b	10.723023
_cell_length_c	7.088929
_cell_angle_alpha	96.263548
_cell_angle_beta	96.280967
_cell_angle_gamma	95.532291
loop_
_atom_site_label
_atom_site_type_symbol
_atom_site_fract_x
_atom_site_fract_y
_atom_site_fract_z
O1	O	-0.187739	1.644491	-0.158959
O2	O	-0.204494	1.281338	-0.158966
O3	O	-0.014540	1.471291	-0.158960
O4	O	-0.377693	1.454537	-0.158965
O5	O	0.010903	1.496676	0.159016
O6	O	-0.179050	1.306722	0.159010
O7	O	-0.162296	1.669876	0.159017
Cu8	Cu	-0.168350	1.490617	0.188047
Cu9	Cu	-0.198440	1.460596	-0.187996
O10	O	-0.352249	1.479922	0.159011
C11	C	-0.190553	1.247530	0.000021
C12	C	-0.186906	1.108976	0.000018
C13	C	-0.194691	0.890858	-0.164703
C14	C	-0.198461	1.034061	-0.164704
C15	C	-0.411471	1.468449	0.000022
C16	C	-0.550025	1.472096	0.000019
C17	C	-0.625008	1.365808	0.000016
C18	C	-0.768212	1.369576	0.000014
C19	C	0.044681	1.482764	0.000025
C20	C	0.183235	1.479116	0.000015
C21	C	-0.176236	1.703682	0.000026
C22	C	-0.179885	1.842236	0.000016
N23	N	-0.147186	1.511741	0.452536
N24	N	-0.219594	1.439482	-0.452485
H25	H	-0.204568	0.826469	-0.305725
H26	H	-0.174230	1.067119	0.141048
H27	H	-0.583187	1.272022	0.000005
O28	O	-0.215245	1.089499	-0.351522
H29	H	-0.215555	1.193278	-0.322206
O30	O	-0.853556	1.249044	0.000014
H31	H	-0.824942	1.204259	0.129626
H32	H	-0.169993	0.906627	0.141038
H33	H	-0.752339	1.570112	0.000026
H34	H	-0.591853	1.565877	-0.000048
H35	H	-0.294630	1.364594	0.465866
H36	H	-0.072154	1.586643	0.534194
