data_functionalizedCrystal
_audit_creation_method	'MofGen! by Chris Wilmer'
_symmetry_space_group_name_H-M	'P1'
_symmetry_Int_Tables_number	1
_symmetry_cell_setting	triclinic
loop_
_symmetry_equiv_pos_as_xyz
  x,y,z
_cell_length_a	17.699083
_cell_length_b	15.944551
_cell_length_c	16.776229
_cell_angle_alpha	89.992397
_cell_angle_beta	89.998886
_cell_angle_gamma	83.390877
loop_
_atom_site_label
_atom_site_type_symbol
_atom_site_fract_x
_atom_site_fract_y
_atom_site_fract_z
O1	O	1.004260	0.106222	-0.066178
O2	O	0.783905	0.120042	-0.066204
O3	O	0.900100	-0.009156	-0.066183
O4	O	0.888065	0.235419	-0.066199
O5	O	0.900084	-0.009164	0.066393
O6	O	0.783890	0.120034	0.066372
O7	O	1.004244	0.106214	0.066398
Zn8	Zn	0.894065	0.113123	0.087435
Zn9	Zn	0.894085	0.113133	-0.087241
O10	O	0.888050	0.235411	0.066377
C11	C	0.755700	0.119542	0.000080
C12	C	0.671679	0.118057	0.000071
C13	C	0.899593	-0.040453	0.000105
C14	C	0.898095	-0.133696	0.000105
C15	C	0.623187	0.193893	0.000066
C16	C	0.544242	0.192492	0.000076
C17	C	0.513789	0.115254	0.000086
C18	C	0.562287	0.039412	0.000093
C19	C	0.641231	0.040814	0.000088
C20	C	0.243914	0.033758	0.000113
C21	C	0.164964	0.032362	0.000115
C22	C	0.146925	0.185436	0.000101
C23	C	0.225869	0.186837	0.000096
C24	C	0.274360	0.110996	0.000108
C25	C	0.359962	0.112516	0.000098
C26	C	0.428189	0.113733	0.000090
C27	C	0.822492	-0.348393	0.000085
C28	C	0.857592	-0.409488	0.065458
C29	C	0.895385	-0.304416	0.000099
C30	C	0.857624	-0.409464	-0.065252
C31	C	0.892762	-0.469323	0.000089
C32	C	0.930505	-0.364283	0.065525
C33	C	0.930527	-0.364252	-0.065244
C34	C	0.965680	-0.425329	0.000145
C35	C	0.896894	-0.209417	0.000105
C36	C	0.891259	-0.564321	0.000089
C37	C	1.032450	0.106713	0.000112
C38	C	1.116471	0.108199	0.000116
C39	C	0.888557	0.266708	0.000087
C40	C	0.890055	0.359951	0.000082
N41	N	0.894056	0.113115	0.206646
N42	N	0.894099	0.113134	-0.206452
C43	C	0.945523	0.055930	0.248372
C44	C	0.945527	0.055929	0.331824
C45	C	0.894068	0.113118	0.373549
C46	C	0.842595	0.170306	0.331816
C47	C	0.842588	0.170302	0.248366
C48	C	0.842623	0.170323	0.668364
C49	C	0.842636	0.170324	0.751820
C50	C	0.945562	0.055949	0.751822
C51	C	0.945555	0.055945	0.668372
C52	C	0.894080	0.113130	0.626647
C53	C	0.894075	0.113129	0.536158
C54	C	0.894076	0.113124	0.464036
H55	H	0.647975	0.256789	0.000058
H56	H	0.800692	0.216868	0.365793
O57	O	0.967175	-0.340325	-0.131250
C58	C	0.970216	-0.335982	-0.274782
C59	C	0.928637	-0.363111	-0.200088
H60	H	0.939085	-0.354410	-0.330456
H61	H	0.971459	-0.264660	-0.273883
H62	H	1.030926	-0.368848	-0.275299
H63	H	0.867909	-0.330305	-0.199522
H64	H	0.927455	-0.434440	-0.201016
H65	H	0.761987	-0.314958	0.000143
O66	O	0.792670	0.225970	0.207866
C67	C	0.748287	0.372085	0.182345
C68	C	0.804877	0.309136	0.228246
H69	H	0.758126	0.439338	0.198818
H70	H	0.757118	0.362331	0.115525
H71	H	0.687678	0.361179	0.198754
H72	H	0.865508	0.320004	0.211904
H73	H	0.795979	0.318905	0.295055
H74	H	0.504763	0.254246	0.000072
O75	O	0.290903	-0.039989	0.000085
C76	C	0.300457	-0.191971	0.000150
C77	C	0.247151	-0.108511	0.000162
H78	H	0.265106	-0.247392	0.000229
H79	H	0.337856	-0.195202	-0.055345
H80	H	0.337882	-0.195099	0.055621
H81	H	0.209679	-0.105327	-0.055272
H82	H	0.209805	-0.105314	0.055694
O83	O	1.037965	-0.464928	0.000089
C84	C	1.158438	-0.485812	-0.068202
C85	C	1.076599	-0.440911	-0.068233
H86	H	1.189692	-0.466425	-0.123443
H87	H	1.189403	-0.467233	-0.012472
H88	H	1.156787	-0.557075	-0.068691
H89	H	1.078181	-0.369640	-0.067772
H90	H	1.045666	-0.459558	-0.123959
O91	O	0.688230	-0.032931	0.000053
C92	C	0.697796	-0.184913	0.000112
C93	C	0.644484	-0.101458	0.000130
H94	H	0.662450	-0.240338	0.000191
H95	H	0.735191	-0.188139	-0.055386
H96	H	0.735224	-0.188040	0.055580
H97	H	0.607009	-0.098275	-0.055301
H98	H	0.607141	-0.098267	0.055664
O99	O	0.255324	0.261940	0.000123
C100	C	0.229098	0.413626	0.000069
C101	C	0.195641	0.328631	0.000053
H102	H	0.180860	0.467569	-0.000004
H103	H	0.265580	0.418161	0.055563
H104	H	0.265631	0.418067	-0.055403
H105	H	0.159073	0.324133	0.055488
H106	H	0.159201	0.324133	-0.055478
H107	H	0.987473	0.009384	0.785804
H108	H	0.140173	-0.030538	0.000124
O109	O	0.792559	0.225762	0.627799
C110	C	0.689227	0.243803	0.533548
C111	C	0.745867	0.180919	0.579459
H112	H	0.651473	0.207573	0.494442
H113	H	0.652398	0.284674	0.577666
H114	H	0.721924	0.285728	0.494506
H115	H	0.713232	0.138940	0.618503
H116	H	0.782696	0.140107	0.535298
O117	O	0.792567	0.225907	0.792229
C118	C	0.690492	0.339377	0.783426
C119	C	0.747138	0.276467	0.737563
H120	H	0.653759	0.380283	0.739248
H121	H	0.652643	0.303201	0.822486
H122	H	0.723183	0.381261	0.822504
H123	H	0.714509	0.234566	0.698441
H124	H	0.784986	0.312695	0.698554
H125	H	0.961304	-0.344360	0.120853
O126	O	0.099742	0.259056	-0.000008
C127	C	0.000171	0.346342	-0.068719
C128	C	0.053546	0.262932	-0.068682
H129	H	-0.037181	0.349511	-0.124245
H130	H	-0.037289	0.349527	-0.013271
H131	H	0.035515	0.401771	-0.068692
H132	H	0.018263	0.207456	-0.068737
H133	H	0.091009	0.259821	-0.124125
O134	O	0.995604	0.000357	0.372234
C135	C	1.097685	-0.113103	0.363429
C136	C	1.041020	-0.050201	0.317568
H137	H	1.134408	-0.154007	0.319252
H138	H	1.135542	-0.076919	0.402462
H139	H	1.065011	-0.154989	0.402535
H140	H	1.073633	-0.008299	0.278418
H141	H	1.003164	-0.086437	0.278585
H142	H	0.537486	-0.023476	0.000112
H143	H	0.826754	-0.429535	0.120718
O144	O	0.820739	-0.433232	-0.131163
C145	C	0.703551	-0.420749	-0.205612
C146	C	0.745243	-0.393754	-0.130950
H147	H	0.642501	-0.388857	-0.205456
H148	H	0.733983	-0.401220	-0.261342
H149	H	0.703293	-0.492214	-0.205283
H150	H	0.745513	-0.322293	-0.131202
H151	H	0.714798	-0.413345	-0.075254
H152	H	0.987430	0.009363	0.214406
O153	O	0.995570	0.000310	0.627965
C154	C	1.097690	-0.113109	0.636777
C155	C	1.041078	-0.050157	0.682634
H156	H	1.134508	-0.153916	0.680957
H157	H	1.065048	-0.155084	0.597742
H158	H	1.135460	-0.076882	0.597673
H159	H	1.003294	-0.086315	0.721781
H160	H	1.073767	-0.008182	0.721619
