data_functionalizedCrystal
_audit_creation_method	'MofGen! by Chris Wilmer'
_symmetry_space_group_name_H-M	'P1'
_symmetry_Int_Tables_number	1
_symmetry_cell_setting	triclinic
loop_
_symmetry_equiv_pos_as_xyz
  x,y,z
_cell_length_a	14.044191
_cell_length_b	10.540510
_cell_length_c	13.101039
_cell_angle_alpha	93.398210
_cell_angle_beta	86.337551
_cell_angle_gamma	88.852544
loop_
_atom_site_label
_atom_site_type_symbol
_atom_site_fract_x
_atom_site_fract_y
_atom_site_fract_z
O1	O	1.264925	0.299890	-0.085154
O2	O	1.764925	0.799890	0.414846
O3	O	0.988883	0.288828	-0.085168
O4	O	1.488883	0.788828	0.414832
O5	O	1.133216	0.110288	-0.085160
O6	O	1.633216	0.610288	0.414840
O7	O	1.120591	0.478429	-0.085162
O8	O	1.620591	0.978429	0.414838
O9	O	1.122861	0.123121	0.085269
O10	O	1.622861	0.623121	0.585269
O11	O	0.978527	0.301661	0.085262
O12	O	1.478527	0.801661	0.585262
O13	O	1.254570	0.312723	0.085275
O14	O	1.754570	0.812723	0.585275
Zn15	Zn	1.114904	0.309229	0.112328
Zn16	Zn	1.614904	0.809229	0.612328
Zn17	Zn	1.128548	0.292321	-0.112220
Zn18	Zn	1.628548	0.792321	0.387780
O19	O	1.110236	0.491262	0.085268
O20	O	1.610236	0.991262	0.585268
C21	C	0.948358	0.290405	0.000045
C22	C	1.448358	0.790405	0.500045
C23	C	0.843036	0.275971	0.000040
C24	C	1.343036	0.775971	0.500040
C25	C	0.593257	0.351950	0.000050
C26	C	1.093257	0.851950	0.500050
C27	C	0.650201	0.249605	0.000049
C28	C	1.150201	0.749605	0.500049
C29	C	0.757504	0.264279	0.000044
C30	C	1.257504	0.764279	0.500044
C31	C	0.485944	0.337279	0.000055
C32	C	0.985944	0.837279	0.500055
C33	C	1.127098	0.069306	0.000052
C34	C	1.627098	0.569306	0.500052
C35	C	1.124284	-0.071929	0.000046
C36	C	1.624284	0.428071	0.500046
C37	C	1.224528	-0.279215	0.000441
C38	C	1.724528	0.220785	0.500441
C39	C	1.227554	-0.132345	0.000052
C40	C	1.727554	0.367655	0.500052
C41	C	1.077332	-0.129363	-0.097278
C42	C	1.577332	0.370637	0.402722
C43	C	1.075066	-0.276359	-0.097354
C44	C	1.575066	0.223641	0.402646
C45	C	1.061139	-0.261791	0.096456
C46	C	1.561139	0.238209	0.596456
C47	C	1.065960	-0.114858	0.097737
C48	C	1.565960	0.385142	0.597737
C49	C	1.295094	0.311145	0.000060
C50	C	1.795094	0.811145	0.500060
C51	C	1.400417	0.325578	0.000059
C52	C	1.900417	0.825578	0.500059
C53	C	1.116355	0.532244	0.000053
C54	C	1.616355	1.032244	0.500053
C55	C	1.119169	0.673479	0.000053
C56	C	1.619169	1.173479	0.500053
N57	N	1.105599	0.320769	0.265576
N58	N	1.605599	0.820769	0.765576
N59	N	1.137860	0.280772	-0.265468
N60	N	1.637860	0.780772	0.234532
C61	C	1.092940	0.336480	0.474618
C62	C	1.592940	0.836480	0.974618
C63	C	1.150517	0.265065	0.525496
C64	C	1.650517	0.765065	1.025496
C65	C	1.143473	0.273807	0.641814
C66	C	1.643473	0.773807	1.141814
C67	C	1.099983	0.327740	0.358289
C68	C	1.599983	0.827740	0.858289
H69	H	0.618371	0.150959	-0.000023
H70	H	1.118371	0.650959	0.499977
H71	H	1.273404	-0.104994	-0.069830
H72	H	1.773404	0.395006	0.430170
C73	C	1.319897	-0.243552	-0.153448
C74	C	1.819897	0.256448	0.346552
C75	C	1.284225	-0.339520	-0.093247
C76	C	1.784225	0.160480	0.406753
H77	H	1.356752	-0.280785	-0.211285
H78	H	1.856752	0.219215	0.288715
H79	H	1.268269	-0.195138	-0.175827
H80	H	1.768269	0.304862	0.324173
H81	H	1.358874	-0.189660	-0.114062
H82	H	1.858874	0.310340	0.385938
H83	H	1.245241	-0.393407	-0.132632
H84	H	1.745241	0.106593	0.367368
H85	H	1.335860	-0.387955	-0.070869
H86	H	1.835860	0.112045	0.429131
H87	H	1.205100	0.197360	0.481697
H88	H	1.705100	0.697360	0.981697
H89	H	0.625091	0.450583	0.000046
H90	H	1.125091	0.950583	0.500046
H91	H	1.038361	0.404183	0.518412
H92	H	1.538361	0.904183	1.018412
C93	C	0.952802	0.009170	-0.017579
C94	C	1.452802	0.509170	0.482421
C95	C	0.975000	-0.076132	-0.102183
C96	C	1.475000	0.423868	0.397817
H97	H	0.889628	0.042038	-0.020612
H98	H	1.389628	0.542038	0.479388
H99	H	0.957431	-0.033702	0.043732
H100	H	1.457431	0.466298	0.543732
H101	H	0.996284	0.077038	-0.018492
H102	H	1.496284	0.577038	0.481508
H103	H	0.931521	-0.144006	-0.101267
H104	H	1.431521	0.355994	0.398733
H105	H	0.970362	-0.033259	-0.163510
H106	H	1.470362	0.466741	0.336490
H107	H	0.998094	-0.307498	-0.101767
H108	H	1.498094	0.192502	0.398233
H109	H	1.264678	-0.093564	0.069816
H110	H	1.764678	0.406436	0.569816
H111	H	1.260520	-0.311845	0.070237
H112	H	1.760520	0.188155	0.570237
H113	H	1.089475	-0.295099	0.170227
H114	H	1.589475	0.204901	0.670227
C115	C	1.086359	-0.291734	-0.281334
C116	C	1.586359	0.208266	0.218666
C117	C	1.129811	-0.333119	-0.195555
C118	C	1.629811	0.166881	0.304445
H119	H	1.120163	-0.326766	-0.341958
H120	H	1.620163	0.173234	0.158042
H121	H	1.022204	-0.318784	-0.279821
H122	H	1.522204	0.181216	0.220179
H123	H	1.087256	-0.201582	-0.280403
H124	H	1.587256	0.298418	0.219597
H125	H	1.128907	-0.423271	-0.196482
H126	H	1.628907	0.076729	0.303518
H127	H	1.193982	-0.306076	-0.197068
H128	H	1.693982	0.193924	0.302932
C129	C	1.139406	-0.165594	0.251246
C130	C	1.639406	0.334406	0.751246
C131	C	1.111981	-0.063663	0.194935
C132	C	1.611981	0.436337	0.694935
H133	H	1.167827	-0.133981	0.311245
H134	H	1.667827	0.366019	0.811245
H135	H	1.084871	-0.212929	0.270077
H136	H	1.584871	0.287071	0.770077
H137	H	1.184134	-0.218990	0.210608
H138	H	1.684134	0.281010	0.710608
H139	H	1.067248	-0.010272	0.235571
H140	H	1.567248	0.489728	0.735571
H141	H	1.166523	-0.016307	0.176106
H142	H	1.666523	0.483693	0.676106
C143	C	1.071935	-0.021155	-0.253078
C144	C	1.571935	0.478845	0.246922
C145	C	1.132833	-0.090069	-0.195053
C146	C	1.632833	0.409931	0.304947
H147	H	1.106206	0.003107	-0.313435
H148	H	1.606206	0.503107	0.186565
H149	H	1.020148	-0.072546	-0.271321
H150	H	1.520148	0.427454	0.228679
H151	H	1.048163	0.052724	-0.213834
H152	H	1.548163	0.552724	0.286166
H153	H	1.156599	-0.163953	-0.234295
H154	H	1.656599	0.336047	0.265705
H155	H	1.184638	-0.038676	-0.176812
H156	H	1.684638	0.461324	0.323188
H157	H	0.983563	-0.291734	0.097107
H158	H	1.483563	0.208266	0.597107
H159	H	0.990207	-0.072974	0.103610
H160	H	1.490207	0.427026	0.603610
