data_functionalizedCrystal
_audit_creation_method	'MofGen! by Chris Wilmer'
_symmetry_space_group_name_H-M	'P1'
_symmetry_Int_Tables_number	1
_symmetry_cell_setting	triclinic
loop_
_symmetry_equiv_pos_as_xyz
  x,y,z
_cell_length_a	16.120530
_cell_length_b	19.120786
_cell_length_c	16.120297
_cell_angle_alpha	89.693695
_cell_angle_beta	89.871860
_cell_angle_gamma	89.436752
loop_
_atom_site_label
_atom_site_type_symbol
_atom_site_fract_x
_atom_site_fract_y
_atom_site_fract_z
Zn1	Zn	1.230439	-0.354318	0.515736
Zn2	Zn	1.563772	-0.020985	0.849069
Zn3	Zn	1.897106	0.312349	1.182402
Zn4	Zn	1.232048	-0.465652	0.370762
Zn5	Zn	1.565381	-0.132319	0.704095
Zn6	Zn	1.898714	0.201015	1.037428
Zn7	Zn	1.098996	-0.342500	0.370282
Zn8	Zn	1.432330	-0.009167	0.703615
Zn9	Zn	1.765663	0.324167	1.036948
Zn10	Zn	1.086035	-0.465008	0.502765
Zn11	Zn	1.419368	-0.131675	0.836099
Zn12	Zn	1.752702	0.201659	1.169432
O13	O	1.161880	-0.406870	0.439886
O14	O	1.495213	-0.073536	0.773219
O15	O	1.828546	0.259797	1.106553
O16	O	1.346768	-0.374302	0.502134
O17	O	1.680102	-0.040969	0.835467
O18	O	2.013435	0.292364	1.168800
O19	O	1.220496	-0.444639	0.254581
O20	O	1.553829	-0.111306	0.587914
O21	O	1.887162	0.222027	0.921248
O22	O	1.121184	-0.246204	0.394804
O23	O	1.454517	0.087129	0.728137
O24	O	1.787850	0.420463	1.061471
O25	O	1.347950	-0.456099	0.395622
O26	O	1.681284	-0.122765	0.728955
O27	O	2.014617	0.210568	1.062289
O28	O	1.217754	-0.254887	0.501668
O29	O	1.551087	0.078447	0.835002
O30	O	1.884421	0.411780	1.168335
O31	O	1.122744	-0.354160	0.254229
O32	O	1.456077	-0.020827	0.587562
O33	O	1.789410	0.312507	0.920895
O34	O	0.981161	-0.353536	0.382227
O35	O	1.314494	-0.020202	0.715560
O36	O	1.647828	0.313131	1.048894
O37	O	1.099093	-0.455001	0.620603
O38	O	1.432426	-0.121668	0.953936
O39	O	1.765760	0.211666	1.287269
O40	O	0.971638	-0.443542	0.479562
O41	O	1.304972	-0.110208	0.812895
O42	O	1.638305	0.223125	1.146229
O43	O	1.205186	-0.373678	0.630132
O44	O	1.538519	-0.040344	0.963465
O45	O	1.871853	0.292989	1.296799
O46	O	1.207928	-0.563430	0.383045
O47	O	1.541261	-0.230097	0.716378
O48	O	1.874594	0.103236	1.049712
O49	O	1.100653	-0.562957	0.480027
O50	O	1.433986	-0.229624	0.813361
O51	O	1.767319	0.103710	1.146694
C52	C	0.946292	-0.397187	0.429435
C53	C	1.279625	-0.063854	0.762769
C54	C	1.612959	0.269480	1.096102
C55	C	0.854061	-0.393062	0.424983
C56	C	1.187394	-0.059729	0.758317
C57	C	1.520728	0.273604	1.091650
C58	C	0.685193	-0.385516	0.416863
C59	C	1.018527	-0.052182	0.750196
C60	C	1.351860	0.281151	1.083530
C61	C	0.639400	-0.428278	0.462967
C62	C	0.972734	-0.094944	0.796301
C63	C	1.306067	0.238389	1.129634
C64	C	0.545437	-0.424079	0.458449
C65	C	0.878770	-0.090745	0.791782
C66	C	1.212103	0.242588	1.125116
C67	C	0.779166	-0.389714	0.421380
C68	C	1.112499	-0.056380	0.754713
C69	C	1.445832	0.276953	1.088047
C70	C	1.153080	-0.588570	0.430200
C71	C	1.486413	-0.255237	0.763533
C72	C	1.819746	0.078096	1.096867
C73	C	1.149390	-0.666307	0.426087
C74	C	1.482723	-0.332974	0.759421
C75	C	1.816056	0.000359	1.092754
C76	C	1.197893	-0.707288	0.479835
C77	C	1.531226	-0.373955	0.813169
C78	C	1.864560	-0.040622	1.146502
C79	C	1.194422	-0.780330	0.475973
C80	C	1.527756	-0.446997	0.809306
C81	C	1.861089	-0.113664	1.142639
C82	C	1.142452	-0.812390	0.418357
C83	C	1.475785	-0.479057	0.751691
C84	C	1.809119	-0.145723	1.085024
C85	C	1.093943	-0.771403	0.364607
C86	C	1.427276	-0.438070	0.697941
C87	C	1.760610	-0.104737	1.031274
C88	C	1.097410	-0.698363	0.368475
C89	C	1.430743	-0.365029	0.701808
C90	C	1.764076	-0.031696	1.035141
C91	C	1.129467	-1.032702	0.403899
C92	C	1.462800	-0.699369	0.737232
C93	C	1.796134	-0.366035	1.070565
C94	C	1.126006	-1.105748	0.400034
C95	C	1.459339	-0.772415	0.733367
C96	C	1.792672	-0.439082	1.066700
C97	C	1.226484	-1.114670	0.511400
C98	C	1.559818	-0.781337	0.844734
C99	C	1.893151	-0.448004	1.178067
C100	C	1.229950	-1.041628	0.515259
C101	C	1.563284	-0.708295	0.848593
C102	C	1.896617	-0.374961	1.181926
C103	C	1.181438	-1.000648	0.461512
C104	C	1.514771	-0.667314	0.794845
C105	C	1.848105	-0.333981	1.128179
C106	C	1.138905	-0.887050	0.414406
C107	C	1.472238	-0.553717	0.747739
C108	C	1.805572	-0.220384	1.081073
C109	C	1.184981	-0.925989	0.465468
C110	C	1.518314	-0.592655	0.798802
C111	C	1.851648	-0.259322	1.132135
C112	C	1.378309	-0.416591	0.450378
C113	C	1.711642	-0.083257	0.783711
C114	C	2.044975	0.250076	1.117045
C115	C	1.470538	-0.420733	0.454849
C116	C	1.803871	-0.087400	0.788183
C117	C	2.137205	0.245934	1.121516
C118	C	1.150514	-0.415586	0.656317
C119	C	1.483847	-0.082252	0.989650
C120	C	1.817181	0.251081	1.322984
C121	C	1.145671	-0.419300	0.748547
C122	C	1.479004	-0.085967	1.081880
C123	C	1.812338	0.247367	1.415214
C124	C	1.170735	-0.224461	0.449629
C125	C	1.504069	0.108872	0.782963
C126	C	1.837402	0.442206	1.116296
C127	C	1.174509	-0.146729	0.453781
C128	C	1.507843	0.186604	0.787115
C129	C	1.841176	0.519937	1.120448
C130	C	1.173251	-0.398139	0.224302
C131	C	1.506584	-0.064806	0.557635
C132	C	1.839918	0.268528	0.890969
C133	C	1.178264	-0.394235	0.132091
C134	C	1.511598	-0.060901	0.465424
C135	C	1.844931	0.272432	0.798758
C136	C	1.136799	-0.426065	0.917412
C137	C	1.470132	-0.092731	1.250746
C138	C	1.803465	0.240602	1.584079
C139	C	1.187134	-0.387472	0.963231
C140	C	1.520467	-0.054139	1.296564
C141	C	1.853801	0.279194	1.629898
C142	C	1.182197	-0.391236	1.057193
C143	C	1.515531	-0.057903	1.390527
C144	C	1.848864	0.275431	1.723860
C145	C	1.141734	-0.422302	0.823441
C146	C	1.475067	-0.088968	1.156775
C147	C	1.808401	0.244365	1.490108
H148	H	0.653831	-0.345756	0.374001
H149	H	0.987164	-0.012423	0.707335
H150	H	1.320498	0.320911	1.040668
F151	F	1.038624	-0.805525	0.303296
F152	F	1.371957	-0.472192	0.636629
F153	F	1.705291	-0.138859	0.969962
H154	H	1.240217	-0.681191	0.526748
H155	H	1.573550	-0.347858	0.860081
H156	H	1.906883	-0.014524	1.193415
H157	H	0.670765	-0.468040	0.505833
H158	H	1.004098	-0.134706	0.839166
H159	H	1.337431	0.198627	1.172499
F160	F	1.075632	-0.472944	0.958375
F161	F	1.408966	-0.139611	1.291708
F162	F	1.742299	0.193722	1.625042
F163	F	1.285263	-1.007513	0.576582
F164	F	1.618597	-0.674180	0.909915
F165	F	1.951930	-0.340847	1.243249
F166	F	1.246037	-0.823943	0.533187
F167	F	1.579371	-0.490609	0.866521
F168	F	1.912704	-0.157276	1.199854
F169	F	1.278108	-1.158289	0.568600
F170	F	1.611442	-0.824956	0.901933
F171	F	1.944775	-0.491622	1.235267
F172	F	1.070692	-1.139866	0.338707
F173	F	1.404025	-0.806533	0.672040
F174	F	1.737358	-0.473200	1.005373
F175	F	1.248321	-0.340604	0.922268
F176	F	1.581654	-0.007271	1.255601
F177	F	1.914987	0.326063	1.588935
H178	H	1.057912	-0.664996	0.324709
H179	H	1.391245	-0.331663	0.658042
H180	H	1.724579	0.001671	0.991375
F181	F	1.240285	-0.891867	0.526789
F182	F	1.573619	-0.558534	0.860122
F183	F	1.906952	-0.225200	1.193455
F184	F	1.077829	-0.989097	0.346701
F185	F	1.411162	-0.655764	0.680035
F186	F	1.744496	-0.322431	1.013368
H187	H	1.096593	-0.913161	0.367493
H188	H	1.429926	-0.579828	0.700827
H189	H	1.763260	-0.246495	1.034160
