data_functionalizedCrystal
_audit_creation_method	'MofGen! by Chris Wilmer'
_symmetry_space_group_name_H-M	'P1'
_symmetry_Int_Tables_number	1
_symmetry_cell_setting	triclinic
loop_
_symmetry_equiv_pos_as_xyz
  x,y,z
_cell_length_a	16.625548
_cell_length_b	12.645323
_cell_length_c	16.625545
_cell_angle_alpha	89.971273
_cell_angle_beta	89.974583
_cell_angle_gamma	90.024242
loop_
_atom_site_label
_atom_site_type_symbol
_atom_site_fract_x
_atom_site_fract_y
_atom_site_fract_z
Zn1	Zn	-1.232678	-0.599462	-0.320998
Zn2	Zn	-1.232570	-0.422190	-0.455843
Zn3	Zn	-1.097836	-0.422202	-0.321028
Zn4	Zn	-1.097803	-0.599401	-0.455792
O5	O	-1.165222	-0.510814	-0.388415
O6	O	-1.345496	-0.575968	-0.338895
O7	O	-1.214665	-0.273844	-0.437993
O8	O	-1.115782	-0.445746	-0.208191
O9	O	-1.345417	-0.445727	-0.437964
O10	O	-1.214850	-0.575979	-0.208170
O11	O	-1.115677	-0.273853	-0.338945
O12	O	-0.984999	-0.445687	-0.338896
O13	O	-1.115727	-0.747756	-0.437878
O14	O	-0.984975	-0.575874	-0.437907
O15	O	-1.214819	-0.747801	-0.338846
O16	O	-1.214634	-0.445667	-0.568669
O17	O	-1.115621	-0.575863	-0.568631
C18	C	-0.955731	-0.510776	-0.388399
C19	C	-0.866110	-0.510784	-0.388412
C20	C	-0.537934	-0.510816	-0.388410
C21	C	-0.629243	-0.510804	-0.388409
C22	C	-0.702019	-0.510800	-0.388412
C23	C	-0.793333	-0.510789	-0.388409
C24	C	-1.165281	-0.787319	-0.388353
C25	C	-1.165306	-0.905149	-0.388326
C26	C	-1.165134	-0.510780	-0.597906
C27	C	-1.165170	-0.510802	-0.687527
C28	C	-0.375531	-0.510842	-0.388427
C29	C	-0.465152	-0.510829	-0.388418
C30	C	-1.102775	-1.072685	-0.450334
C31	C	-1.102939	-0.950125	-0.450641
C32	C	-1.250262	-0.949670	-0.411387
C33	C	-1.249919	-1.072268	-0.411776
C34	C	-1.143686	-1.072354	-0.302911
C35	C	-1.141790	-0.949747	-0.303423
C36	C	-1.165209	-0.235384	-0.388419
C37	C	-1.165340	-0.117555	-0.388219
C38	C	-1.165202	-0.510823	-0.760310
C39	C	-1.165249	-0.510846	-0.851618
C40	C	-1.165290	-0.510859	-0.924395
C41	C	-1.165337	-0.510881	-1.015709
C42	C	-1.165332	-0.510870	-0.178106
C43	C	-1.165378	-0.510895	-0.088485
H44	H	-1.039941	-0.920022	-0.436211
C45	C	-1.315034	-1.112379	-0.353323
C46	C	-1.328005	-1.232011	-0.341757
C47	C	-1.393123	-1.272117	-0.283311
C48	C	-1.445271	-1.192590	-0.236430
C49	C	-1.432302	-1.072951	-0.247995
C50	C	-1.367184	-1.032845	-0.306441
H51	H	-1.289400	-1.290888	-0.376462
H52	H	-1.402723	-1.360682	-0.274750
H53	H	-1.493476	-1.222278	-0.193165
H54	H	-1.470907	-1.014074	-0.213290
H55	H	-1.357584	-0.944280	-0.315002
C56	C	-1.017412	-1.112491	-0.431030
C57	C	-1.003466	-1.186228	-0.358629
C58	C	-0.918101	-1.226043	-0.339325
C59	C	-0.846682	-1.192121	-0.392421
C60	C	-0.860626	-1.118380	-0.464826
C61	C	-0.945991	-1.078565	-0.484131
H62	H	-1.056337	-1.211342	-0.319320
H63	H	-0.907779	-1.280631	-0.285725
H64	H	-0.783489	-1.221595	-0.378130
H65	H	-0.807755	-1.093266	-0.504136
H66	H	-0.956313	-1.023977	-0.537731
H67	H	-1.117233	-0.920806	-0.513883
C68	C	-1.061451	-1.114092	-0.274514
C69	C	-1.055359	-1.179038	-0.196378
C70	C	-0.973121	-1.220778	-0.167992
C71	C	-0.896976	-1.197571	-0.217741
C72	C	-0.903066	-1.132621	-0.295882
C73	C	-0.985304	-1.090882	-0.324268
H74	H	-1.111728	-1.196220	-0.159546
H75	H	-0.968614	-1.268858	-0.110147
H76	H	-0.836099	-1.228469	-0.196728
H77	H	-0.846696	-1.115440	-0.332714
H78	H	-0.989811	-1.042802	-0.382113
H79	H	-1.268275	-1.100874	-0.474137
C80	C	-1.121891	-1.114307	-0.535239
C81	C	-1.194001	-1.188788	-0.548359
C82	C	-1.213119	-1.230411	-0.633263
C83	C	-1.160128	-1.197553	-0.705047
C84	C	-1.088013	-1.123069	-0.691929
C85	C	-1.068895	-1.081445	-0.607025
H86	H	-1.233233	-1.213114	-0.495218
H87	H	-1.266503	-1.285550	-0.642973
H88	H	-1.174280	-1.228365	-0.767897
H89	H	-1.048781	-1.098742	-0.745069
H90	H	-1.015511	-1.026307	-0.597315
C91	C	-1.314929	-0.910326	-0.352204
C92	C	-1.291290	-0.837139	-0.282079
C93	C	-1.355956	-0.797798	-0.222892
C94	C	-1.444260	-0.831643	-0.233831
C95	C	-1.467904	-0.904835	-0.303959
C96	C	-1.403238	-0.944176	-0.363145
H97	H	-1.225918	-0.812081	-0.273979
H98	H	-1.338453	-0.743616	-0.170979
H99	H	-1.492130	-0.802520	-0.190018
H100	H	-1.533276	-0.929893	-0.312059
H101	H	-1.420741	-0.998357	-0.415059
H102	H	-1.268932	-0.918977	-0.473094
C103	C	-1.205238	-1.111559	-0.240386
C104	C	-1.256190	-1.031386	-0.192832
C105	C	-1.317744	-1.070597	-0.130314
C106	C	-1.328347	-1.189981	-0.115350
C107	C	-1.277394	-1.270162	-0.162905
C108	C	-1.215840	-1.230951	-0.225423
H109	H	-1.248342	-0.943003	-0.203908
H110	H	-1.355462	-1.011241	-0.095111
H111	H	-1.373913	-1.219008	-0.069071
H112	H	-1.285242	-1.358544	-0.151829
H113	H	-1.178122	-1.290307	-0.260627
C114	C	-1.057332	-0.910438	-0.279922
C115	C	-1.009915	-0.838182	-0.337528
C116	C	-0.925456	-0.798867	-0.314030
C117	C	-0.888413	-0.831808	-0.232925
C118	C	-0.935830	-0.904067	-0.175314
C119	C	-1.020289	-0.943382	-0.198812
H120	H	-1.037336	-0.813794	-0.397571
H121	H	-0.890355	-0.745376	-0.356678
H122	H	-0.825891	-0.802705	-0.215530
H123	H	-0.908409	-0.928455	-0.115271
H124	H	-1.055390	-0.996874	-0.156164
H125	H	-1.184031	-0.919132	-0.254697
