data_functionalizedCrystal
_audit_creation_method	'MofGen! by Chris Wilmer'
_symmetry_space_group_name_H-M	'P1'
_symmetry_Int_Tables_number	1
_symmetry_cell_setting	triclinic
loop_
_symmetry_equiv_pos_as_xyz
  x,y,z
_cell_length_a	16.625548
_cell_length_b	19.121063
_cell_length_c	16.625539
_cell_angle_alpha	92.410374
_cell_angle_beta	89.982945
_cell_angle_gamma	92.470058
loop_
_atom_site_label
_atom_site_type_symbol
_atom_site_fract_x
_atom_site_fract_y
_atom_site_fract_z
Zn1	Zn	1.218929	-0.279606	-0.469578
Zn2	Zn	1.718929	0.220394	0.030422
Zn3	Zn	1.213076	-0.397060	-0.340487
Zn4	Zn	1.713076	0.102940	0.159513
Zn5	Zn	1.084098	-0.279629	-0.334759
Zn6	Zn	1.584098	0.220371	0.165241
Zn7	Zn	1.078299	-0.397023	-0.475275
Zn8	Zn	1.578299	0.102977	0.024725
O9	O	1.148601	-0.338330	-0.405025
O10	O	1.648601	0.161670	0.094975
O11	O	1.330985	-0.295192	-0.452466
O12	O	1.830985	0.204808	0.047534
O13	O	1.195945	-0.381507	-0.226896
O14	O	1.695945	0.118493	0.273104
O15	O	1.106861	-0.181341	-0.347862
O16	O	1.606861	0.318659	0.152138
O17	O	1.326685	-0.381485	-0.357624
O18	O	1.826685	0.118515	0.142376
O19	O	1.205920	-0.181324	-0.446913
O20	O	1.705920	0.318676	0.053087
O21	O	1.101185	-0.295231	-0.222688
O22	O	1.601185	0.204769	0.277312
O23	O	0.970497	-0.295196	-0.353386
O24	O	1.470497	0.204804	0.146614
O25	O	1.096976	-0.381423	-0.587350
O26	O	1.596976	0.118577	-0.087350
O27	O	0.966236	-0.381445	-0.456622
O28	O	1.466236	0.118555	0.043378
O29	O	1.200297	-0.295157	-0.583165
O30	O	1.700297	0.204843	-0.083165
O31	O	1.190321	-0.495340	-0.363148
O32	O	1.690321	0.004660	0.136852
O33	O	1.091301	-0.495313	-0.462176
O34	O	1.591301	0.004687	0.037824
C35	C	0.939110	-0.338320	-0.405002
C36	C	1.439110	0.161680	0.094998
C37	C	0.849489	-0.338332	-0.405012
C38	C	1.349489	0.161668	0.094988
C39	C	1.139568	-0.520811	-0.413919
C40	C	1.639568	-0.020811	0.086081
C41	C	1.135778	-0.598877	-0.417751
C42	C	1.635778	-0.098877	0.082249
C43	C	0.521313	-0.338337	-0.405046
C44	C	1.021313	0.161663	0.094954
C45	C	0.612621	-0.338334	-0.405034
C46	C	1.112621	0.161666	0.094966
C47	C	0.685398	-0.338335	-0.405028
C48	C	1.185398	0.161665	0.094972
C49	C	0.776712	-0.338331	-0.405017
C50	C	1.276712	0.161669	0.094983
C51	C	1.185592	-0.635543	-0.368035
C52	C	1.685592	-0.135543	0.131965
C53	C	1.182032	-0.708894	-0.371644
C54	C	1.682032	-0.208894	0.128356
C55	C	1.128653	-0.745578	-0.424965
C56	C	1.628653	-0.245578	0.075035
C57	C	1.078837	-0.708907	-0.474686
C58	C	1.578837	-0.208907	0.025314
C59	C	1.082402	-0.635557	-0.471081
C60	C	1.582402	-0.135557	0.028919
C61	C	1.115313	-0.967048	-0.438432
C62	C	1.615313	-0.467048	0.061568
C63	C	1.111750	-1.040404	-0.442031
C64	C	1.611750	-0.540404	0.057969
C65	C	1.214946	-1.040386	-0.338990
C66	C	1.714946	-0.540386	0.161010
C67	C	1.218503	-0.967035	-0.335386
C68	C	1.718503	-0.467035	0.164614
C69	C	1.168690	-0.930370	-0.385110
C70	C	1.668690	-0.430370	0.114890
C71	C	1.125011	-0.820555	-0.428653
C72	C	1.625011	-0.320555	0.071347
C73	C	1.172336	-0.855394	-0.381425
C74	C	1.672336	-0.355394	0.118575
C75	C	1.358909	-0.338340	-0.405048
C76	C	1.858909	0.161660	0.094952
C77	C	1.448530	-0.338345	-0.405058
C78	C	1.948530	0.161655	0.094942
C79	C	1.148642	-0.338283	-0.615331
C80	C	1.648642	0.161717	-0.115331
C81	C	1.148660	-0.338264	-0.704952
C82	C	1.648660	0.161736	-0.204952
C83	C	1.157690	-0.155136	-0.396113
C84	C	1.657690	0.344864	0.103887
C85	C	1.161564	-0.077070	-0.392316
C86	C	1.661564	0.422930	0.107684
C87	C	1.148674	-0.338248	-0.777733
C88	C	1.648674	0.161752	-0.277733
C89	C	1.148694	-0.338222	-0.869041
C90	C	1.648694	0.161778	-0.369041
C91	C	1.148715	-0.338197	-0.941816
C92	C	1.648715	0.161803	-0.441816
C93	C	1.148736	-0.338172	-1.033129
C94	C	1.648736	0.161828	-0.533129
C95	C	1.148608	-0.338325	-0.195534
C96	C	1.648608	0.161675	0.304466
C97	C	1.148756	-0.338147	-0.105904
C98	C	1.648756	0.161853	0.394096
H99	H	1.229055	-0.605680	-0.324612
H100	H	1.729055	-0.105680	0.175388
H101	H	1.035379	-0.738781	-0.518105
H102	H	1.535379	-0.238781	-0.018105
H103	H	1.074751	-0.937202	-0.478917
H104	H	1.574751	-0.437202	0.021083
H105	H	1.255502	-1.070247	-0.298509
H106	H	1.755502	-0.570247	0.201491
N107	N	1.028677	-0.596006	-0.524705
N108	N	1.528677	-0.096006	-0.024705
H109	H	0.994320	-0.630374	-0.559030
H110	H	1.494320	-0.130374	-0.059030
H111	H	0.992860	-0.565617	-0.490358
H112	H	1.492860	-0.065617	0.009642
H113	H	1.068292	-1.070270	-0.485466
H114	H	1.568292	-0.570270	0.014534
N115	N	1.229910	-0.815828	-0.323922
N116	N	1.729910	-0.315828	0.176078
H117	H	1.198637	-0.785440	-0.285038
H118	H	1.698637	-0.285440	0.214962
H119	H	1.260916	-0.850226	-0.293025
H120	H	1.760916	-0.350226	0.206975
N121	N	1.235756	-0.748444	-0.318021
N122	N	1.735756	-0.248444	0.181979
H123	H	1.293982	-0.735626	-0.329962
H124	H	1.793982	-0.235626	0.170038
H125	H	1.223814	-0.735708	-0.259796
H126	H	1.723814	-0.235708	0.240204
N127	N	1.276087	-0.927470	-0.277888
N128	N	1.776087	-0.427470	0.222112
H129	H	1.307110	-0.961829	-0.246944
H130	H	1.807110	-0.461829	0.253056
H131	H	1.314856	-0.896995	-0.309259
H132	H	1.814856	-0.396995	0.190741
N133	N	1.067432	-0.860119	-0.486158
N134	N	1.567432	-0.360119	0.013842
H135	H	1.098699	-0.890507	-0.525046
H136	H	1.598699	-0.390507	-0.025046
H137	H	1.028624	-0.890559	-0.454788
H138	H	1.528624	-0.390559	0.045212
