data_functionalizedCrystal
_audit_creation_method	'MofGen! by Chris Wilmer'
_symmetry_space_group_name_H-M	'P1'
_symmetry_Int_Tables_number	1
_symmetry_cell_setting	triclinic
loop_
_symmetry_equiv_pos_as_xyz
  x,y,z
_cell_length_a	14.971486
_cell_length_b	16.109301
_cell_length_c	13.448316
_cell_angle_alpha	89.991973
_cell_angle_beta	89.998199
_cell_angle_gamma	83.537805
loop_
_atom_site_label
_atom_site_type_symbol
_atom_site_fract_x
_atom_site_fract_y
_atom_site_fract_z
O1	O	1.186791	0.108348	-0.082581
O2	O	0.926372	0.121323	-0.082608
O3	O	1.063736	-0.006187	-0.082584
O4	O	1.049428	0.235857	-0.082605
O5	O	1.063718	-0.006195	0.082800
O6	O	0.926355	0.121315	0.082776
O7	O	1.186774	0.108340	0.082803
Cu8	Cu	1.056563	0.114827	0.097890
Cu9	Cu	1.056583	0.114836	-0.097695
O10	O	1.049410	0.235850	0.082778
C11	C	0.893040	0.120739	0.000080
C12	C	0.793745	0.119000	0.000070
C13	C	0.736412	0.193908	0.000065
C14	C	0.643115	0.192269	0.000080
C15	C	0.607153	0.115721	0.000093
C16	C	0.664494	0.040807	0.000101
C17	C	0.757789	0.042447	0.000093
C18	C	0.470036	0.037395	0.000115
C19	C	0.376734	0.035755	0.000121
C20	C	0.355362	0.187217	0.000102
C21	C	0.448657	0.188857	0.000094
C22	C	0.505991	0.113942	0.000100
C23	C	1.063147	-0.037166	0.000109
C24	C	1.061410	-0.129464	0.000110
C25	C	1.138878	-0.351640	0.000102
C26	C	1.137239	-0.438362	0.000094
C27	C	0.974262	-0.418691	0.000081
C28	C	0.975902	-0.331970	0.000082
C29	C	1.058213	-0.298447	0.000098
C30	C	1.054933	-0.471890	0.000088
C31	C	1.053155	-0.565918	0.000079
C32	C	1.059992	-0.204413	0.000105
C33	C	1.220106	0.108924	0.000112
C34	C	1.319401	0.110663	0.000116
C35	C	1.049999	0.266829	0.000084
C36	C	1.051736	0.359127	0.000076
N37	N	1.056555	0.114820	0.235454
N38	N	1.056598	0.114837	-0.235260
C39	C	1.117398	0.058382	0.287506
C40	C	1.117404	0.058381	0.391609
C41	C	1.056570	0.114823	0.443659
C42	C	0.995720	0.171264	0.391601
C43	C	0.995711	0.171260	0.287499
C44	C	0.995745	0.171269	0.608581
C45	C	0.995755	0.171275	0.712689
C46	C	1.117438	0.058391	0.712690
C47	C	1.117429	0.058387	0.608589
C48	C	1.056580	0.114829	0.556538
H49	H	0.308675	0.248215	0.000101
C50	C	0.337861	-0.047438	0.000189
C51	C	0.408037	-0.112694	0.000226
C52	C	0.372262	-0.189343	0.000299
H53	H	0.301924	-0.051342	-0.057467
H54	H	0.301934	-0.051267	0.057886
H55	H	0.443949	-0.108867	-0.057466
H56	H	0.443980	-0.108818	0.057877
H57	H	0.336335	-0.193173	0.057996
H58	H	0.336326	-0.193239	-0.057358
H59	H	0.419870	-0.233629	0.000333
H60	H	0.635206	-0.021520	0.000126
H61	H	0.765684	0.256242	0.000053
C62	C	1.224750	-0.496213	0.000255
C63	C	1.228553	-0.546604	0.085324
C64	C	1.309152	-0.599915	0.085496
H65	H	1.274077	-0.463931	0.000314
H66	H	1.227509	-0.530491	-0.057392
H67	H	1.225803	-0.512331	0.142955
H68	H	1.179244	-0.578904	0.085282
H69	H	1.311911	-0.634192	0.027849
H70	H	1.358473	-0.567625	0.085552
H71	H	1.311739	-0.634117	0.143209
H72	H	0.804470	-0.018551	0.000097
C73	C	0.888345	-0.274171	-0.000129
C74	C	0.884526	-0.223818	-0.085230
C75	C	0.803881	-0.170572	-0.085469
H76	H	0.885507	-0.239859	0.057475
H77	H	0.839063	-0.306526	-0.000186
H78	H	0.933794	-0.191465	-0.085163
H79	H	0.887349	-0.258108	-0.142847
H80	H	0.754600	-0.202927	-0.085526
H81	H	0.801050	-0.136265	-0.027862
H82	H	0.801276	-0.136407	-0.143213
H83	H	0.946183	0.217217	0.433986
C84	C	0.929643	0.232645	0.552245
C85	C	0.876387	0.282093	0.620107
C86	C	0.815499	0.338650	0.568247
H87	H	0.892332	0.202778	0.511642
H88	H	0.961783	0.267347	0.511646
H89	H	0.844249	0.247395	0.660689
H90	H	0.913674	0.311978	0.660712
H91	H	0.847639	0.373352	0.527648
H92	H	0.778194	0.308776	0.527646
H93	H	0.779363	0.372213	0.614283
H94	H	0.946165	0.217216	0.245120
C95	C	0.581016	0.273690	0.000022
C96	C	0.632478	0.341077	-0.000023
C97	C	0.575304	0.416098	-0.000087
H98	H	0.544161	0.276318	0.057684
H99	H	0.544185	0.276245	-0.057669
H100	H	0.669293	0.338523	0.057662
H101	H	0.669330	0.338477	-0.057681
H102	H	0.538473	0.418653	-0.057779
H103	H	0.538452	0.418717	0.057576
H104	H	0.610212	0.461829	-0.000127
C105	C	1.183489	-0.002993	0.231179
C106	C	1.236757	-0.052434	0.299050
C107	C	1.297640	-0.108993	0.247202
H108	H	1.220793	0.026872	0.190552
H109	H	1.151345	-0.037700	0.190604
H110	H	1.268898	-0.017732	0.339608
H111	H	1.199477	-0.082318	0.339679
H112	H	1.265497	-0.143700	0.206627
H113	H	1.334938	-0.079120	0.206577
H114	H	1.333784	-0.142550	0.293245
C115	C	0.532394	-0.043876	-0.000036
C116	C	0.586589	-0.047340	-0.085115
C117	C	0.644053	-0.122185	-0.085287
H118	H	0.497730	-0.089770	-0.000082
H119	H	0.569289	-0.046394	0.057604
H120	H	0.549698	-0.044830	-0.142740
H121	H	0.621272	-0.001463	-0.085087
H122	H	0.680948	-0.124704	-0.027648
H123	H	0.609382	-0.168074	-0.085331
H124	H	0.680837	-0.124542	-0.143007
C125	C	1.183327	-0.002989	0.448168
C126	C	1.135717	-0.053981	0.507930
C127	C	1.196419	-0.110536	0.560032
H128	H	1.220574	0.026880	0.488848
H129	H	1.219544	-0.036646	0.402286
H130	H	1.099515	-0.020329	0.553807
H131	H	1.098473	-0.083870	0.467275
H132	H	1.232636	-0.144193	0.514150
H133	H	1.233663	-0.080659	0.600707
H134	H	1.164125	-0.145146	0.600580
H135	H	1.205901	-0.324348	0.000113
H136	H	1.166983	0.012434	0.755077
C137	C	0.884990	-0.455251	0.000125
C138	C	0.900816	-0.542583	0.000155
C139	C	0.818599	-0.576287	0.000213
H140	H	0.851711	-0.437084	-0.057533
H141	H	0.851767	-0.437049	0.057820
H142	H	0.934025	-0.560777	-0.057534
H143	H	0.934082	-0.560772	0.057809
H144	H	0.785376	-0.558086	0.057908
H145	H	0.785326	-0.558115	-0.057447
H146	H	0.829325	-0.635545	0.000242
H147	H	1.166969	0.012432	0.566210
H148	H	0.477934	0.251189	0.000074
H149	H	0.946216	0.217235	0.755063
