data_functionalizedCrystal
_audit_creation_method	'MofGen! by Chris Wilmer'
_symmetry_space_group_name_H-M	'P1'
_symmetry_Int_Tables_number	1
_symmetry_cell_setting	triclinic
loop_
_symmetry_equiv_pos_as_xyz
  x,y,z
_cell_length_a	15.299816
_cell_length_b	15.298563
_cell_length_c	15.296720
_cell_angle_alpha	107.324882
_cell_angle_beta	69.242954
_cell_angle_gamma	91.574804
loop_
_atom_site_label
_atom_site_type_symbol
_atom_site_fract_x
_atom_site_fract_y
_atom_site_fract_z
Zn1	Zn	-0.177043	-1.356712	0.306392
Zn2	Zn	0.322957	-0.856712	0.806392
Zn3	Zn	-0.296335	-1.401118	0.168538
Zn4	Zn	0.203665	-0.901118	0.668538
Zn5	Zn	-0.177098	-1.228137	0.177775
Zn6	Zn	0.322902	-0.728137	0.677775
Zn7	Zn	-0.359405	-1.228062	0.360160
Zn8	Zn	0.140595	-0.728062	0.860160
O9	O	-0.252470	-1.303507	0.253216
O10	O	0.247530	-0.803507	0.753216
O11	O	-0.166449	-1.488836	0.261737
O12	O	0.333551	-0.988836	0.761737
O13	O	-0.254146	-1.396787	0.035743
O14	O	0.245854	-0.896787	0.535743
O15	O	-0.050871	-1.226639	0.176200
O16	O	0.449129	-0.726639	0.676200
O17	O	-0.254092	-1.521461	0.160457
O18	O	0.245908	-1.021461	0.660457
O19	O	-0.050830	-1.321103	0.270694
O20	O	0.449170	-0.821103	0.770694
O21	O	-0.166543	-1.269698	0.042529
O22	O	0.333457	-0.769698	0.542529
O23	O	-0.227700	-1.101893	0.228337
O24	O	0.272300	-0.601893	0.728337
O25	O	-0.361586	-1.226512	0.487048
O26	O	0.138414	-0.726512	0.987048
O27	O	-0.361640	-1.101838	0.362334
O28	O	0.138360	-0.601838	0.862334
O29	O	-0.227605	-1.321030	0.447545
O30	O	0.272395	-0.821030	0.947545
O31	O	-0.430921	-1.396715	0.212594
O32	O	0.069079	-0.896715	0.712594
O33	O	-0.477259	-1.269572	0.353378
O34	O	0.022741	-0.769572	0.853378
C35	C	-0.301521	-1.069135	0.302173
C36	C	0.198479	-0.569135	0.802173
C37	C	-0.322531	-0.968869	0.323143
C38	C	0.177469	-0.468869	0.823143
C39	C	-0.102545	-0.686143	0.103549
C40	C	0.397455	-0.186143	0.603549
C41	C	-0.082800	-0.780346	0.083847
C42	C	0.417200	-0.280346	0.583847
C43	C	-0.142731	-0.827482	0.143669
C44	C	0.357269	-0.327482	0.643669
C45	C	-0.222411	-0.780404	0.223197
C46	C	0.277589	-0.280404	0.723197
C47	C	-0.242154	-0.686190	0.242905
C48	C	0.257846	-0.186190	0.742905
C49	C	-0.282340	-0.827529	0.283025
C50	C	0.217660	-0.327529	0.783025
C51	C	-0.362019	-0.780451	0.362553
C52	C	0.137981	-0.280451	0.862553
C53	C	-0.381759	-0.686247	0.382258
C54	C	0.118241	-0.186247	0.882258
C55	C	-0.321828	-0.639111	0.322436
C56	C	0.178172	-0.139111	0.822436
C57	C	-0.262597	-0.921743	0.263317
C58	C	0.237403	-0.421743	0.763317
C59	C	-0.402205	-0.921790	0.402674
C60	C	0.097795	-0.421790	0.902674
C61	C	-0.421951	-0.827587	0.422375
C62	C	0.078049	-0.327587	0.922375
C63	C	-0.486817	-1.337976	0.287834
C64	C	0.013183	-0.837976	0.787834
C65	C	-0.587060	-1.352799	0.302658
C66	C	-0.087060	-0.852799	0.802658
C67	C	-0.869938	-1.198105	0.147466
C68	C	-0.369938	-0.698105	0.647466
C69	C	-0.775756	-1.184173	0.133541
C70	C	-0.275756	-0.684173	0.633541
C71	C	-0.728577	-1.226328	0.175819
C72	C	-0.228577	-0.726328	0.675819
C73	C	-0.775590	-1.282419	0.232025
C74	C	-0.275590	-0.782419	0.732025
C75	C	-0.869784	-1.296347	0.245957
C76	C	-0.369784	-0.796347	0.745957
C77	C	-0.728423	-1.324570	0.274310
C78	C	-0.228423	-0.824570	0.774310
C79	C	-0.775436	-1.380660	0.330516
C80	C	-0.275436	-0.880660	0.830516
C81	C	-0.869620	-1.394586	0.344445
C82	C	-0.369620	-0.894586	0.844445
C83	C	-0.916799	-1.352431	0.302168
C84	C	-0.416799	-0.852431	0.802168
C85	C	-0.634229	-1.310642	0.260377
C86	C	-0.134229	-0.810642	0.760377
C87	C	-0.634075	-1.408883	0.358869
C88	C	-0.134075	-0.908883	0.858869
C89	C	-0.728257	-1.422816	0.372793
C90	C	-0.228257	-0.922816	0.872793
C91	C	-0.017208	-1.268926	0.218479
C92	C	0.482792	-0.768926	0.718479
C93	C	0.083047	-1.254189	0.203677
C94	C	0.583047	-0.754189	0.703677
C95	C	-0.301625	-1.268810	0.503018
C96	C	0.198375	-0.768810	1.003018
C97	C	-0.322572	-1.254024	0.609469
C98	C	0.177428	-0.754024	1.109469
C99	C	-0.203222	-0.538796	0.204057
C100	C	0.296778	-0.038796	0.704057
C101	C	-0.182219	-0.639064	0.183079
C102	C	0.317781	-0.139064	0.683079
C103	C	-0.203431	-1.338112	0.004366
C104	C	0.296569	-0.838112	0.504366
C105	C	-0.182194	-1.353035	-0.102158
C106	C	0.317806	-0.853035	0.397842
C107	C	-0.102595	-1.409195	0.827266
C108	C	0.397405	-0.909195	1.327266
C109	C	-0.082915	-1.423093	0.727249
C110	C	0.417085	-0.923093	1.227249
C111	C	-0.142827	-1.380827	0.697799
C112	C	0.357173	-0.880827	1.197799
C113	C	-0.222424	-1.324660	0.768376
C114	C	0.277576	-0.824660	1.268376
C115	C	-0.242110	-1.310767	0.868402
C116	C	0.257890	-0.810767	1.368402
C117	C	-0.282342	-1.282398	0.738935
C118	C	0.217658	-0.782398	1.238935
C119	C	-0.361938	-1.226232	0.809512
C120	C	0.138062	-0.726232	1.309512
C121	C	-0.381620	-1.212340	0.909527
C122	C	0.118380	-0.712340	1.409527
C123	C	-0.321708	-1.254607	0.938978
C124	C	0.178292	-0.754607	1.438978
C125	C	-0.262655	-1.296292	0.638909
C126	C	0.237345	-0.796292	1.138909
C127	C	-0.402170	-1.197864	0.680045
C128	C	0.097830	-0.697864	1.180045
C129	C	-0.421850	-1.183965	0.780061
C130	C	0.078150	-0.683965	1.280061
H131	H	-0.126649	-0.904186	0.127623
H132	H	0.373351	-0.404186	0.627623
F133	F	-0.342836	-0.538846	0.343404
F134	F	0.157164	-0.038846	0.843404
F135	F	-0.466344	-1.152577	0.984638
F136	F	0.033656	-0.652577	1.484638
H137	H	-0.908361	-1.163783	0.113055
H138	H	-0.408361	-0.663783	0.613055
F139	F	-0.465988	-0.971949	0.466351
F140	F	0.034012	-0.471949	0.966351
F141	F	-0.038765	-0.635970	0.039899
F142	F	0.461235	-0.135970	0.539899
H143	H	-0.766549	-1.468485	0.418557
H144	H	-0.266549	-0.968485	0.918557
H145	H	-0.446635	-0.647917	0.447021
H146	H	0.053365	-0.147917	0.947021
H147	H	-0.486826	-0.789243	0.487129
H148	H	0.013174	-0.289243	0.987129
F149	F	-0.628444	-1.211213	0.161313
F150	F	-0.128444	-0.711213	0.661313
F151	F	-0.038848	-1.454179	0.858616
F152	F	0.461152	-0.954179	1.358616
H153	H	-0.595664	-1.443208	0.393297
H154	H	-0.095664	-0.943208	0.893297
H155	H	-0.595960	-1.264972	0.214615
H156	H	-0.095960	-0.764972	0.714615
H157	H	-0.017927	-0.818671	0.019092
H158	H	0.482073	-0.318671	0.519092
H159	H	-0.486658	-1.138234	0.837539
H160	H	0.013342	-0.638234	1.337539
F161	F	-0.725731	-1.124471	0.073736
F162	F	-0.225731	-0.624471	0.573736
F163	F	-1.016977	-1.367427	0.316796
F164	F	-0.516977	-0.867427	0.816796
F165	F	-0.919659	-1.454266	0.404284
F166	F	-0.419659	-0.954266	0.904284
F167	F	-0.177946	-1.356067	0.563807
F168	F	0.322054	-0.856067	1.063807
F169	F	-0.121879	-1.395618	0.591351
F170	F	0.378121	-0.895618	1.091351
H171	H	-0.018110	-1.468827	0.669792
H172	H	0.481890	-0.968827	1.169792
F173	F	-0.177799	-0.971836	0.178680
F174	F	0.322201	-0.471836	0.678680
H175	H	-0.337727	-1.243294	1.020418
H176	H	0.162273	-0.743294	1.520418
H177	H	-0.450956	-1.163448	0.656068
H178	H	0.049044	-0.663448	1.156068
