data_functionalizedCrystal
_audit_creation_method	'MofGen! by Chris Wilmer'
_symmetry_space_group_name_H-M	'P1'
_symmetry_Int_Tables_number	1
_symmetry_cell_setting	triclinic
loop_
_symmetry_equiv_pos_as_xyz
  x,y,z
_cell_length_a	27.732048
_cell_length_b	27.732048
_cell_length_c	26.210047
_cell_angle_alpha	89.984523
_cell_angle_beta	90.024710
_cell_angle_gamma	97.357345
loop_
_atom_site_label
_atom_site_type_symbol
_atom_site_fract_x
_atom_site_fract_y
_atom_site_fract_z
O1	O	0.057526	-0.640937	0.042369
O2	O	0.557526	-0.140937	0.542369
O3	O	0.066272	-0.500144	0.042385
O4	O	0.566272	-0.000144	0.542385
O5	O	-0.008498	-0.574913	0.042367
O6	O	0.491502	-0.074913	0.542367
O7	O	0.132296	-0.566168	0.042387
O8	O	0.632296	-0.066168	0.542387
O9	O	-0.008518	-0.574886	-0.042491
O10	O	0.491482	-0.074886	0.457509
O11	O	0.066251	-0.500117	-0.042473
O12	O	0.566251	-0.000117	0.457527
O13	O	0.057506	-0.640910	-0.042489
O14	O	0.557506	-0.140910	0.457511
Cu15	Cu	0.061876	-0.570511	-0.050229
Cu16	Cu	0.561876	-0.070511	0.449771
Cu17	Cu	0.061901	-0.570543	0.050125
Cu18	Cu	0.561901	-0.070543	0.550125
O19	O	0.132275	-0.566141	-0.042471
O20	O	0.632275	-0.066141	0.457529
C21	C	0.066078	-0.482124	-0.000042
C22	C	0.566078	0.017876	0.499958
C23	C	0.065525	-0.428469	-0.000036
C24	C	0.565525	0.071531	0.499964
C25	C	-0.026515	-0.574716	-0.000064
C26	C	0.473485	-0.074716	0.499936
C27	C	-0.080170	-0.574164	-0.000068
C28	C	0.419830	-0.074164	0.499932
C29	C	0.057699	-0.658931	-0.000061
C30	C	0.557699	-0.158931	0.499939
C31	C	0.058252	-0.712586	-0.000064
C32	C	0.558252	-0.212586	0.499936
C33	C	-0.418985	-0.614867	-0.000046
C34	C	0.081015	-0.114867	0.499954
C35	C	-0.620645	-0.612816	-0.000039
C36	C	-0.120645	-0.112816	0.499961
O37	O	-0.651900	-0.650037	-0.000021
O38	O	-0.151900	-0.150037	0.499979
N39	N	-0.639768	-0.568481	-0.000034
N40	N	-0.139768	-0.068481	0.499966
C41	C	-0.608474	-0.524656	-0.000028
C42	C	-0.108474	-0.024656	0.499972
O43	O	-0.629367	-0.486899	-0.000019
O44	O	-0.129367	0.013101	0.499981
C45	C	-0.406815	-0.526707	-0.000032
C46	C	0.093185	-0.026707	0.499968
C47	C	-0.387694	-0.571045	-0.000042
C48	C	0.112306	-0.071045	0.499958
C49	C	-0.399864	-0.659202	-0.000056
C50	C	0.100136	-0.159202	0.499944
C51	C	-0.349452	-0.659714	-0.000060
C52	C	0.150548	-0.159714	0.499940
C53	C	-0.318161	-0.615892	-0.000056
C54	C	0.181839	-0.115892	0.499944
C55	C	-0.337282	-0.571557	-0.000046
C56	C	0.162718	-0.071557	0.499954
C57	C	-0.375521	-0.482882	-0.000022
C58	C	0.124479	0.017118	0.499978
C59	C	-0.325104	-0.483399	-0.000022
C60	C	0.174896	0.016601	0.499978
C61	C	-0.305983	-0.527737	-0.000032
C62	C	0.194017	-0.027737	0.499968
C63	C	-0.255580	-0.528247	-0.000046
C64	C	0.244420	-0.028247	0.499954
N65	N	-0.236456	-0.572583	-0.000051
N66	N	0.263544	-0.072583	0.499949
C67	C	-0.267747	-0.616405	-0.000056
C68	C	0.232253	-0.116405	0.499944
C69	C	-0.714348	-0.523582	-0.000027
C70	C	-0.214348	-0.023582	0.499973
C71	C	-0.764762	-0.523069	-0.000027
C72	C	-0.264762	-0.023069	0.499973
C73	C	-0.776930	-0.611230	-0.000037
C74	C	-0.276930	-0.111230	0.499963
C75	C	-0.726514	-0.611742	-0.000041
C76	C	-0.226514	-0.111742	0.499959
C77	C	-0.695224	-0.567917	-0.000032
C78	C	-0.195224	-0.067917	0.499968
C79	C	-0.161878	-0.617477	-0.000066
C80	C	0.338122	-0.117477	0.499934
C81	C	-0.111461	-0.617986	-0.000073
C82	C	0.388539	-0.117986	0.499927
C83	C	-0.099298	-0.529825	-0.000060
C84	C	0.400702	-0.029825	0.499940
C85	C	-0.149710	-0.529316	-0.000056
C86	C	0.350290	-0.029316	0.499944
C87	C	-0.180999	-0.573146	-0.000057
C88	C	0.319001	-0.073146	0.499943
O89	O	-0.224296	-0.491047	-0.000059
O90	O	0.275704	0.008953	0.499941
O91	O	-0.246844	-0.654156	-0.000054
O92	O	0.253156	-0.154156	0.499946
C93	C	-0.469397	-0.614355	-0.000042
C94	C	0.030603	-0.114355	0.499958
C95	C	-0.488518	-0.570021	-0.000033
C96	C	0.011482	-0.070021	0.499967
C97	C	-0.457228	-0.526198	-0.000028
C98	C	0.042772	-0.026198	0.499972
C99	C	-0.538933	-0.569508	-0.000033
C100	C	-0.038933	-0.069508	0.499967
C101	C	-0.570223	-0.613330	-0.000037
C102	C	-0.070223	-0.113330	0.499963
C103	C	-0.551100	-0.657665	-0.000042
C104	C	-0.051100	-0.157665	0.499958
C105	C	-0.500688	-0.658177	-0.000046
C106	C	-0.000688	-0.158177	0.499954
C107	C	-0.476351	-0.481863	-0.000023
C108	C	0.023649	0.018137	0.499977
C109	C	-0.526764	-0.481355	-0.000019
C110	C	-0.026764	0.018645	0.499981
C111	C	-0.558054	-0.525177	-0.000024
C112	C	-0.058054	-0.025177	0.499976
C113	C	0.150292	-0.566338	-0.000040
C114	C	0.650292	-0.066338	0.499960
C115	C	0.203947	-0.566891	-0.000032
C116	C	0.703947	-0.066891	0.499968
C117	C	0.106229	-0.089654	-0.000053
C118	C	0.606229	0.410346	0.499947
C119	C	0.104178	0.112006	-0.000057
C120	C	0.604178	0.612006	0.499943
O121	O	0.141398	0.143262	-0.000074
O122	O	0.641398	0.643262	0.499926
N123	N	0.059843	0.131130	-0.000063
N124	N	0.559843	0.631130	0.499937
C125	C	0.016017	0.099835	-0.000071
C126	C	0.516017	0.599835	0.499929
O127	O	-0.021740	0.120728	-0.000081
O128	O	0.478260	0.620728	0.499919
C129	C	0.018068	-0.101824	-0.000069
C130	C	0.518068	0.398176	0.499931
C131	C	0.062407	-0.120944	-0.000059
C132	C	0.562407	0.379056	0.499941
C133	C	0.150563	-0.108775	-0.000043
C134	C	0.650563	0.391225	0.499957
C135	C	0.151075	-0.159187	-0.000039
C136	C	0.651075	0.340813	0.499961
C137	C	0.107253	-0.190477	-0.000045
C138	C	0.607253	0.309523	0.499955
C139	C	0.062919	-0.171356	-0.000055
C140	C	0.562919	0.328644	0.499945
C141	C	-0.025757	-0.133117	-0.000081
C142	C	0.474243	0.366883	0.499919
C143	C	-0.025240	-0.183534	-0.000082
C144	C	0.474760	0.316466	0.499918
C145	C	0.019098	-0.202655	-0.000071
C146	C	0.519098	0.297345	0.499929
C147	C	0.019609	-0.253059	-0.000057
C148	C	0.519609	0.246941	0.499943
N149	N	0.063944	-0.272183	-0.000051
N150	N	0.563944	0.227817	0.499949
C151	C	0.107766	-0.240892	-0.000045
C152	C	0.607766	0.259108	0.499955
C153	C	0.014943	0.205709	-0.000070
C154	C	0.514943	0.705709	0.499930
C155	C	0.014430	0.256124	-0.000070
C156	C	0.514430	0.756124	0.499930
C157	C	0.102591	0.268291	-0.000057
C158	C	0.602591	0.768291	0.499943
C159	C	0.103103	0.217876	-0.000054
C160	C	0.603103	0.717876	0.499946
C161	C	0.059278	0.186585	-0.000065
C162	C	0.559278	0.686585	0.499935
C163	C	0.108839	-0.346761	-0.000036
C164	C	0.608839	0.153239	0.499964
C165	C	0.109347	-0.397178	-0.000030
C166	C	0.609347	0.102822	0.499970
C167	C	0.021186	-0.409341	-0.000045
C168	C	0.521186	0.090659	0.499955
C169	C	0.020678	-0.358929	-0.000049
C170	C	0.520678	0.141071	0.499951
C171	C	0.064508	-0.327639	-0.000046
C172	C	0.564508	0.172361	0.499954
O173	O	-0.017592	-0.284343	-0.000046
O174	O	0.482408	0.215657	0.499954
O175	O	0.145518	-0.261794	-0.000047
O176	O	0.645518	0.238206	0.499953
C177	C	0.105716	-0.039242	-0.000057
C178	C	0.605716	0.460758	0.499943
C179	C	0.061382	-0.020120	-0.000067
C180	C	0.561382	0.479880	0.499933
C181	C	0.017560	-0.051411	-0.000073
C182	C	0.517560	0.448589	0.499927
C183	C	0.060869	0.030294	-0.000066
C184	C	0.560869	0.530294	0.499934
C185	C	0.104691	0.061585	-0.000060
C186	C	0.604691	0.561585	0.499940
C187	C	0.149026	0.042461	-0.000054
C188	C	0.649026	0.542461	0.499946
C189	C	0.149539	-0.007951	-0.000050
C190	C	0.649539	0.492049	0.499950
C191	C	-0.026775	-0.032287	-0.000078
C192	C	0.473225	0.467713	0.499922
C193	C	-0.027284	0.018125	-0.000082
C194	C	0.472716	0.518125	0.499918
C195	C	0.016538	0.049416	-0.000076
C196	C	0.516538	0.549416	0.499924
N197	N	0.061859	-0.570492	-0.120813
N198	N	0.561859	-0.070492	0.379187
C199	C	0.032762	-0.541439	-0.526792
C200	C	0.532762	-0.041439	-0.026792
C201	C	0.032750	-0.541418	-0.313133
C202	C	0.532750	-0.041418	0.186867
O203	O	0.007973	-0.516686	-0.285524
O204	O	0.507973	-0.016686	0.214476
N205	N	0.061865	-0.570510	-0.286397
N206	N	0.561865	-0.070510	0.213603
C207	C	0.090983	-0.599613	-0.313079
C208	C	0.590983	-0.099613	0.186921
O209	O	0.115743	-0.624361	-0.285436
O210	O	0.615743	-0.124361	0.214564
C211	C	0.090992	-0.599636	-0.526737
C212	C	0.590992	-0.099636	-0.026737
C213	C	0.061879	-0.570538	-0.553470
C214	C	0.561879	-0.070538	-0.053470
C215	C	0.003651	-0.512344	-0.553525
C216	C	0.503651	-0.012344	-0.053525
C217	C	0.003656	-0.512348	-0.606937
C218	C	0.503656	-0.012348	-0.106937
C219	C	0.032773	-0.541446	-0.633615
C220	C	0.532773	-0.041446	-0.133615
C221	C	0.061884	-0.570542	-0.606881
C222	C	0.561884	-0.070542	-0.106881
C223	C	0.120107	-0.628741	-0.553418
C224	C	0.620107	-0.128741	-0.053418
C225	C	0.120106	-0.628745	-0.606835
C226	C	0.620106	-0.128745	-0.106835
C227	C	0.090993	-0.599647	-0.633569
C228	C	0.590993	-0.099647	-0.133569
C229	C	0.091006	-0.599644	-0.686971
C230	C	0.591006	-0.099644	-0.186971
N231	N	0.061891	-0.570552	-0.713707
N232	N	0.561891	-0.070552	-0.213707
C233	C	0.032775	-0.541453	-0.687029
C234	C	0.532775	-0.041453	-0.187029
C235	C	0.090977	-0.599598	-0.200906
C236	C	0.590977	-0.099598	0.299094
C237	C	0.090976	-0.599591	-0.147492
C238	C	0.590976	-0.099591	0.352508
C239	C	0.032742	-0.541397	-0.147549
C240	C	0.532742	-0.041397	0.352451
C241	C	0.032746	-0.541401	-0.200965
C242	C	0.532746	-0.041401	0.299035
C243	C	0.061862	-0.570505	-0.227642
C244	C	0.561862	-0.070505	0.272358
C245	C	0.032788	-0.541462	-0.799197
C246	C	0.532788	-0.041462	-0.299197
C247	C	0.032798	-0.541467	-0.852613
C248	C	0.532798	-0.041467	-0.352613
C249	C	0.091029	-0.599663	-0.852550
C250	C	0.591029	-0.099663	-0.352550
C251	C	0.091022	-0.599657	-0.799139
C252	C	0.591022	-0.099657	-0.299139
C253	C	0.061898	-0.570555	-0.772463
C254	C	0.561898	-0.070555	-0.272463
O255	O	0.115767	-0.624367	-0.714613
O256	O	0.615767	-0.124367	-0.214613
O257	O	0.008010	-0.516717	-0.714681
O258	O	0.508010	-0.016717	-0.214681
C259	C	0.032757	-0.541436	-0.473380
C260	C	0.532757	-0.041436	0.026620
C261	C	0.061869	-0.570531	-0.446647
C262	C	0.561869	-0.070531	0.053353
C263	C	0.090985	-0.599630	-0.473325
C264	C	0.590985	-0.099630	0.026675
C265	C	0.061867	-0.570524	-0.393233
C266	C	0.561867	-0.070524	0.106767
C267	C	0.032750	-0.541426	-0.366555
C268	C	0.532750	-0.041426	0.133445
C269	C	0.003635	-0.512333	-0.393291
C270	C	0.503635	-0.012333	0.106709
C271	C	0.003640	-0.512337	-0.446702
C272	C	0.503640	-0.012337	0.053298
C273	C	0.120100	-0.628722	-0.446589
C274	C	0.620100	-0.128722	0.053411
C275	C	0.120093	-0.628716	-0.393178
C276	C	0.620093	-0.128716	0.106822
C277	C	0.090976	-0.599617	-0.366499
C278	C	0.590976	-0.099617	0.133501
N279	N	0.061914	-0.570566	0.120709
N280	N	0.561914	-0.070566	0.620709
H281	H	-0.095896	-0.654093	-0.000082
H282	H	0.404104	-0.154093	0.499918
O283	O	-0.024577	-0.483998	-0.527641
O284	O	0.475423	0.016002	-0.027641
C285	C	-0.010843	-0.434842	-0.540730
C286	C	0.489157	0.065158	-0.040730
H287	H	0.028175	-0.429889	-0.555389
H288	H	0.528175	0.070111	-0.055389
H289	H	-0.013497	-0.411069	-0.505622
H290	H	0.486503	0.088931	-0.005622
H291	H	-0.036099	-0.423820	-0.571760
H292	H	0.463901	0.076180	-0.071760
O293	O	0.004487	-0.513147	-0.773368
O294	O	0.504487	-0.013147	-0.273368
C295	C	-0.021212	-0.487479	-0.808426
C296	C	0.478788	0.012521	-0.308426
H297	H	-0.001174	-0.484518	-0.846490
H298	H	0.498826	0.015482	-0.346490
H299	H	-0.023947	-0.449488	-0.793016
H300	H	0.476053	0.050512	-0.293016
H301	H	-0.059293	-0.507674	-0.814122
H302	H	0.440707	-0.007674	-0.314122
H303	H	0.187180	-0.174750	-0.000030
H304	H	0.687180	0.325250	0.499970
O305	O	-0.067826	-0.213910	0.000001
O306	O	0.432174	0.286090	0.500001
C307	C	-0.094762	-0.205289	0.043938
C308	C	0.405238	0.294711	0.543938
H309	H	-0.069104	-0.187876	0.074659
H310	H	0.430896	0.312124	0.574659
H311	H	-0.114418	-0.241205	0.058689
H312	H	0.385582	0.258795	0.558689
H313	H	-0.122545	-0.179816	0.033994
H314	H	0.377455	0.320184	0.533994
H315	H	0.186251	-0.083302	-0.000039
H316	H	0.686251	0.416698	0.499961
O317	O	-0.394063	-0.439798	0.000081
O318	O	0.105937	0.060202	0.500081
C319	C	-0.378006	-0.413126	0.044030
C320	C	0.121994	0.086874	0.544030
H321	H	-0.367702	-0.439076	0.074739
H322	H	0.132298	0.060924	0.574739
H323	H	-0.408388	-0.392792	0.058790
H324	H	0.091612	0.107208	0.558790
H325	H	-0.344947	-0.385942	0.034098
H326	H	0.155053	0.114058	0.534098
O327	O	0.119354	-0.627943	-0.878392
O328	O	0.619354	-0.127943	-0.378392
C329	C	0.145041	-0.653637	-0.843347
C330	C	0.645041	-0.153637	-0.343347
H331	H	0.148006	-0.633605	-0.805277
H332	H	0.648006	-0.133605	-0.305277
H333	H	0.183030	-0.656359	-0.858764
H334	H	0.683030	-0.156359	-0.358764
H335	H	0.124858	-0.691725	-0.837661
H336	H	0.624858	-0.191725	-0.337661
O337	O	0.119330	-0.627825	-0.121583
O338	O	0.619330	-0.127825	0.378417
C339	C	0.168489	-0.614057	-0.134610
C340	C	0.668489	-0.114057	0.365390
H341	H	0.170693	-0.595295	-0.173397
H342	H	0.670693	-0.095295	0.326603
H343	H	0.188052	-0.647752	-0.136420
H344	H	0.688052	-0.147752	0.363580
H345	H	0.186475	-0.587993	-0.104548
H346	H	0.686475	-0.087993	0.395452
O347	O	-0.708023	-0.654854	-0.000023
O348	O	-0.208023	-0.154854	0.499977
C349	C	-0.746458	-0.693419	-0.000041
C350	C	-0.246458	-0.193419	0.499959
H351	H	-0.780604	-0.680132	0.016023
H352	H	-0.280604	-0.180132	0.516023
H353	H	-0.736143	-0.724405	0.024594
H354	H	-0.236143	-0.224405	0.524594
H355	H	-0.753704	-0.706906	-0.040753
H356	H	-0.253704	-0.206906	0.459247
O357	O	-0.783252	-0.479956	-0.000001
O358	O	-0.283252	0.020044	0.499999
C359	C	-0.744818	-0.441391	-0.000009
C360	C	-0.244818	0.058609	0.499991
H361	H	-0.710661	-0.454689	0.016054
H362	H	-0.210661	0.045311	0.516054
H363	H	-0.755115	-0.410421	0.024633
H364	H	-0.255115	0.089579	0.524633
H365	H	-0.737600	-0.427878	-0.040717
H366	H	-0.237600	0.072122	0.459283
H367	H	0.009035	-0.517702	-0.125819
H368	H	0.509035	-0.017702	0.374181
H369	H	-0.688875	-0.487892	-0.000020
H370	H	-0.188875	0.012108	0.499980
H371	H	-0.020067	-0.488642	-0.468464
H372	H	0.479933	0.011358	0.031536
H373	H	-0.802415	-0.646911	-0.000041
H374	H	-0.302415	-0.146911	0.499959
O375	O	0.146216	0.199384	-0.000070
O376	O	0.646216	0.699384	0.499930
C377	C	0.184781	0.237819	-0.000049
C378	C	0.684781	0.737819	0.499951
H379	H	0.171485	0.271975	-0.016115
H380	H	0.671485	0.771975	0.483885
H381	H	0.215754	0.227519	-0.024682
H382	H	0.715754	0.727519	0.475318
H383	H	0.198288	0.245042	0.040664
H384	H	0.698288	0.745042	0.540664
H385	H	0.138273	0.293777	-0.000053
H386	H	0.638273	0.793777	0.499947
O387	O	-0.068796	-0.114492	-0.000161
O388	O	0.431204	0.385508	0.499839
C389	C	-0.071747	-0.085697	-0.044118
C390	C	0.428253	0.414303	0.455882
H391	H	-0.033555	-0.072853	-0.058761
H392	H	0.466445	0.427147	0.441239
H393	H	-0.090768	-0.052827	-0.034241
H394	H	0.409232	0.447173	0.465759
H395	H	-0.093303	-0.108127	-0.074898
H396	H	0.406697	0.391873	0.425102
O397	O	-0.294689	-0.440838	0.000076
O398	O	0.205311	0.059162	0.500076
C399	C	-0.265136	-0.438517	0.044016
C400	C	0.234864	0.061483	0.544016
H401	H	-0.283767	-0.463388	0.074731
H402	H	0.216233	0.036612	0.574731
H403	H	-0.259178	-0.399542	0.058775
H404	H	0.240822	0.100458	0.558775
H405	H	-0.228566	-0.450741	0.034075
H406	H	0.271434	0.049259	0.534075
H407	H	-0.020071	-0.488637	-0.371560
H408	H	0.479929	0.011363	0.128440
O409	O	-0.445910	-0.439324	-0.000089
O410	O	0.054090	0.060676	0.499911
C411	C	-0.416413	-0.436961	-0.044047
C412	C	0.083587	0.063039	0.455953
H413	H	-0.414145	-0.475305	-0.058702
H414	H	0.085855	0.024695	0.441298
H415	H	-0.378383	-0.418664	-0.034165
H416	H	0.121617	0.081336	0.465835
H417	H	-0.432857	-0.415005	-0.074818
H418	H	0.067143	0.084995	0.425182
H419	H	-0.021674	0.271687	-0.000070
H420	H	0.478326	0.771687	0.499930
H421	H	0.114735	-0.623344	-0.777372
H422	H	0.614735	-0.123344	-0.277372
H423	H	0.143805	-0.652410	-0.371416
H424	H	0.643805	-0.152410	0.128584
O425	O	0.152377	-0.415832	0.000006
O426	O	0.652377	0.084168	0.500006
C427	C	0.143437	-0.467039	-0.000001
C428	C	0.643437	0.032961	0.499999
H429	H	0.105626	-0.479158	0.016055
H430	H	0.605626	0.020842	0.516055
H431	H	0.171787	-0.482313	0.024646
H432	H	0.671787	0.017687	0.524646
H433	H	0.145667	-0.481053	-0.040709
H434	H	0.645667	0.018947	0.459291
H435	H	-0.020747	0.180236	-0.000079
H436	H	0.479253	0.680236	0.499921
O437	O	0.151459	-0.316440	-0.000008
O438	O	0.651459	0.183560	0.499992
C439	C	0.190694	-0.344137	-0.000009
C440	C	0.690694	0.155863	0.499991
H441	H	0.178133	-0.381860	0.016053
H442	H	0.678133	0.118140	0.516053
H443	H	0.221382	-0.325325	0.024635
H444	H	0.721382	0.174675	0.524635
H445	H	0.204296	-0.347621	-0.040717
H446	H	0.704296	0.152379	0.459283
H447	H	-0.187348	-0.653168	-0.000065
H448	H	0.312652	-0.153168	0.499935
H449	H	-0.015426	-0.343360	-0.000050
H450	H	0.484574	0.156640	0.499950
H451	H	-0.014492	-0.434827	-0.000048
H452	H	0.485508	0.065173	0.499952
H453	H	0.009040	-0.517707	-0.222727
H454	H	0.509040	-0.017707	0.277273
O455	O	0.148414	-0.656920	-0.472557
O456	O	0.648414	-0.156920	0.027443
C457	C	0.181615	-0.627202	-0.503436
C458	C	0.681615	-0.127202	-0.003436
H459	H	0.166820	-0.591452	-0.511464
H460	H	0.666820	-0.091452	-0.011464
H461	H	0.186874	-0.646597	-0.540984
H462	H	0.686874	-0.146597	-0.040984
H463	H	0.217999	-0.619526	-0.482829
H464	H	0.717999	-0.119526	0.017171
O465	O	0.192652	-0.026441	-0.000066
O466	O	0.692652	0.473559	0.499934
C467	C	0.231215	0.011996	-0.000049
C468	C	0.731215	0.511996	0.499951
H469	H	0.217916	0.046149	-0.016117
H470	H	0.717916	0.546149	0.483883
H471	H	0.262188	0.001696	-0.024681
H472	H	0.762188	0.501696	0.475319
H473	H	0.244723	0.019222	0.040664
H474	H	0.744723	0.519222	0.540664
H475	H	-0.165279	-0.493213	-0.000062
H476	H	0.334721	0.006787	0.499938
O477	O	-0.070346	0.036718	-0.000000
O478	O	0.429654	0.536718	0.500000
C479	C	-0.073272	0.065519	0.043937
C480	C	0.426728	0.565519	0.543937
H481	H	-0.048097	0.053780	0.074663
H482	H	0.451903	0.553780	0.574663
H483	H	-0.112262	0.060702	0.058680
H484	H	0.387738	0.560702	0.558680
H485	H	-0.061826	0.105365	0.033999
H486	H	0.438174	0.605365	0.533999
H487	H	0.184708	0.067947	-0.000047
H488	H	0.684708	0.567947	0.499953
H489	H	-0.062462	-0.057760	-0.000085
H490	H	0.437538	0.442240	0.499915
O491	O	-0.068945	-0.487227	0.000015
O492	O	0.431055	0.012773	0.500015
C493	C	-0.077534	-0.460310	0.043978
C494	C	0.422466	0.039690	0.543978
H495	H	-0.115865	-0.472472	0.058626
H496	H	0.384135	0.027528	0.558626
H497	H	-0.073689	-0.419962	0.034105
H498	H	0.426311	0.080038	0.534105
H499	H	-0.049995	-0.466728	0.074751
H500	H	0.450005	0.033272	0.574751
O501	O	-0.330962	-0.702827	-0.000043
O502	O	0.169038	-0.202827	0.499957
C503	C	-0.369399	-0.741390	-0.000058
C504	C	0.130601	-0.241390	0.499942
H505	H	-0.403543	-0.728100	0.016009
H506	H	0.096457	-0.228100	0.516009
H507	H	-0.359085	-0.772377	0.024576
H508	H	0.140915	-0.272377	0.524576
H509	H	-0.376649	-0.754877	-0.040770
H510	H	0.123351	-0.254877	0.459230
O511	O	0.119237	-0.627938	-0.226759
O512	O	0.619237	-0.127938	0.273241
C513	C	0.105497	-0.677099	-0.213697
C514	C	0.605497	-0.177099	0.286303
H515	H	0.086727	-0.679307	-0.174927
H516	H	0.586727	-0.179307	0.325073
H517	H	0.139207	-0.696639	-0.211835
H518	H	0.639207	-0.196639	0.288165
H519	H	0.079448	-0.695105	-0.243767
H520	H	0.579448	-0.195105	0.256233
O521	O	0.148319	-0.657035	-0.527399
O522	O	0.648319	-0.157035	-0.027399
C523	C	0.118613	-0.690244	-0.496514
C524	C	0.618613	-0.190244	0.003486
H525	H	0.082851	-0.675468	-0.488532
H526	H	0.582851	-0.175468	0.011468
H527	H	0.138009	-0.695483	-0.458943
H528	H	0.638009	-0.195483	0.041057
H529	H	0.110960	-0.726634	-0.517092
H530	H	0.610960	-0.226634	-0.017092
O531	O	-0.430274	-0.701762	0.000029
O532	O	0.069726	-0.201762	0.500029
C533	C	-0.459795	-0.704123	0.043970
C534	C	0.040205	-0.204123	0.543970
H535	H	-0.441145	-0.679271	0.074693
H536	H	0.058855	-0.179271	0.574693
H537	H	-0.465735	-0.743109	0.058714
H538	H	0.034265	-0.243109	0.558714
H539	H	-0.496376	-0.691897	0.034035
H540	H	0.003624	-0.191897	0.534035
O541	O	0.004486	-0.513270	-0.878637
O542	O	0.504486	-0.013270	-0.378637
C543	C	-0.028708	-0.542992	-0.909533
C544	C	0.471292	-0.042992	-0.409533
H545	H	-0.013912	-0.578744	-0.917516
H546	H	0.486088	-0.078744	-0.417516
H547	H	-0.033956	-0.523602	-0.947102
H548	H	0.466044	-0.023602	-0.447102
H549	H	-0.065097	-0.550663	-0.888964
H550	H	0.434903	-0.050663	-0.388964
O551	O	-0.024701	-0.484142	-0.632880
O552	O	0.475299	0.015858	-0.132880
C553	C	-0.073857	-0.497898	-0.619834
C554	C	0.426143	0.002102	-0.119834
H555	H	-0.078797	-0.536912	-0.605140
H556	H	0.421203	-0.036912	-0.105140
H557	H	-0.097621	-0.495264	-0.654972
H558	H	0.402379	0.004736	-0.154972
H559	H	-0.084903	-0.472641	-0.588843
H560	H	0.415097	0.027359	-0.088843
O561	O	0.148318	-0.657073	-0.632772
O562	O	0.648318	-0.157073	-0.132772
C563	C	0.118618	-0.690270	-0.663682
C564	C	0.618618	-0.190270	-0.163682
H565	H	0.080115	-0.695745	-0.647607
H566	H	0.580115	-0.195745	-0.147607
H567	H	0.133813	-0.726567	-0.664263
H568	H	0.633813	-0.226567	-0.164263
H569	H	0.117912	-0.675345	-0.704171
H570	H	0.617912	-0.175345	-0.204171
O571	O	-0.482198	-0.701290	-0.000030
O572	O	0.017802	-0.201290	0.499970
C573	C	-0.520634	-0.739853	-0.000045
C574	C	-0.020634	-0.239853	0.499955
H575	H	-0.554778	-0.726564	0.016022
H576	H	-0.054778	-0.226564	0.516022
H577	H	-0.510320	-0.770840	0.024588
H578	H	-0.010320	-0.270840	0.524588
H579	H	-0.527885	-0.753339	-0.040757
H580	H	-0.027885	-0.253339	0.459243
H581	H	-0.542327	-0.445246	-0.000016
H582	H	-0.042327	0.054754	0.499984
O583	O	-0.581520	-0.700222	0.000045
O584	O	-0.081520	-0.200222	0.500045
C585	C	-0.611034	-0.702564	0.043990
C586	C	-0.111034	-0.202564	0.543990
H587	H	-0.592370	-0.677715	0.074708
H588	H	-0.092370	-0.177715	0.574708
H589	H	-0.616987	-0.741548	0.058741
H590	H	-0.116987	-0.241548	0.558741
H591	H	-0.647609	-0.690324	0.034058
H592	H	-0.147609	-0.190324	0.534058
