data_functionalizedCrystal
_audit_creation_method	'MofGen! by Chris Wilmer'
_symmetry_space_group_name_H-M	'P1'
_symmetry_Int_Tables_number	1
_symmetry_cell_setting	triclinic
loop_
_symmetry_equiv_pos_as_xyz
  x,y,z
_cell_length_a	23.532407
_cell_length_b	7.088929
_cell_length_c	23.532407
_cell_angle_alpha	83.810936
_cell_angle_beta	82.848678
_cell_angle_gamma	96.169690
loop_
_atom_site_label
_atom_site_type_symbol
_atom_site_fract_x
_atom_site_fract_y
_atom_site_fract_z
O1	O	0.749388	-0.158773	0.075014
O2	O	0.583522	-0.158831	0.085020
O3	O	0.671458	-0.158765	-0.002916
O4	O	0.661452	-0.158839	0.162950
O5	O	0.683210	0.159219	-0.014694
O6	O	0.595274	0.159153	0.073242
O7	O	0.761140	0.159211	0.063236
Cu8	Cu	0.679280	0.188217	0.067164
Cu9	Cu	0.665382	-0.187836	0.081093
O10	O	0.673204	0.159145	0.151172
C11	C	0.568182	0.000154	0.078876
C12	C	0.504964	0.000133	0.078111
N13	N	0.689059	0.452712	0.057366
N14	N	0.655607	-0.452332	0.090885
C15	C	0.105864	0.000198	0.125342
C16	C	0.046464	0.000210	0.124630
O17	O	0.009721	0.000260	0.168414
N18	N	0.023838	0.000230	0.072353
C19	C	0.060617	0.000258	0.020784
O20	O	0.035918	0.000278	-0.023747
C21	C	0.120016	0.000259	0.021496
C22	C	0.142637	0.000220	0.073777
C23	C	0.128485	0.000161	0.177619
C24	C	0.187881	0.000145	0.178331
C25	C	0.224655	0.000167	0.126766
C26	C	0.202033	0.000204	0.074489
C27	C	0.156794	0.000301	-0.030073
C28	C	0.216197	0.000304	-0.029357
C29	C	0.238818	0.000264	0.022924
C30	C	0.298202	0.000211	0.023636
N31	N	0.320828	0.000191	0.075913
C32	C	0.284054	0.000169	0.127478
C33	C	-0.064126	0.000258	0.019293
C34	C	-0.123524	0.000242	0.018580
C35	C	-0.137673	0.000198	0.122427
C36	C	-0.078274	0.000200	0.123139
C37	C	-0.041500	0.000238	0.071570
C38	C	0.408789	0.000134	0.128969
C39	C	0.468190	0.000111	0.129676
C40	C	0.482335	0.000165	0.025830
C41	C	0.422938	0.000178	0.025122
C42	C	0.386167	0.000170	0.076696
O43	O	0.334980	0.000168	-0.020126
O44	O	0.308762	0.000174	0.172001
C45	C	0.776480	0.000222	0.069380
C46	C	0.839697	0.000231	0.070145
C47	C	0.677079	0.000232	-0.030021
C48	C	0.676314	0.000246	-0.093239
C49	C	0.723544	0.000158	-0.492339
C50	C	0.722832	0.000143	-0.551738
O51	O	0.766616	0.000088	-0.588481
N52	N	0.670555	0.000126	-0.574364
C53	C	0.618986	0.000104	-0.537585
O54	O	0.574455	0.000086	-0.562284
C55	C	0.619698	0.000105	-0.478186
C56	C	0.671980	0.000142	-0.455565
C57	C	0.775821	0.000192	-0.469717
C58	C	0.776533	0.000211	-0.410321
C59	C	0.724968	0.000195	-0.373548
C60	C	0.672691	0.000160	-0.396170
C61	C	0.568130	0.000070	-0.441409
C62	C	0.568846	0.000069	-0.382006
C63	C	0.621127	0.000106	-0.359385
C64	C	0.621838	0.000162	-0.300001
N65	N	0.674115	0.000180	-0.277375
C66	C	0.725680	0.000196	-0.314149
C67	C	0.617495	0.000099	-0.662328
C68	C	0.616783	0.000111	-0.721726
C69	C	0.720629	0.000147	-0.735875
C70	C	0.721341	0.000148	-0.676476
C71	C	0.669772	0.000116	-0.639702
C72	C	0.727171	0.000236	-0.189413
C73	C	0.727879	0.000262	-0.130012
C74	C	0.624033	0.000217	-0.115868
C75	C	0.623325	0.000200	-0.175265
C76	C	0.674899	0.000204	-0.212036
O77	O	0.578077	0.000210	-0.263223
O78	O	0.770203	0.000188	-0.289440
C79	C	0.667582	0.000144	0.178277
C80	C	0.668347	0.000117	0.241495
H81	H	0.486605	0.000078	0.172252
H82	H	0.723735	0.534394	0.022632
H83	H	0.770454	0.000297	-0.111598
O84	O	0.609682	0.439488	0.136896
H85	H	0.586422	0.542546	0.160211
H86	H	0.769167	0.000231	-0.219346
H87	H	0.819105	0.000233	-0.391909
H88	H	-0.141938	0.000244	-0.023991
O89	O	0.369131	0.000122	0.184592
H90	H	0.372343	-0.129510	0.214422
H91	H	-0.059860	0.000179	0.165710
H92	H	0.817814	0.000199	-0.499652
O93	O	0.398535	0.000223	-0.031265
H94	H	0.408532	-0.129363	-0.051231
H95	H	0.582050	0.000210	-0.085917
H96	H	0.763913	0.000176	-0.658062
H97	H	0.580756	0.000224	-0.193686
H98	H	-0.034187	0.000271	-0.022703
H99	H	0.762615	0.000152	-0.765827
O100	O	0.132405	0.000383	-0.086464
H101	H	0.167965	0.000434	-0.122196
O102	O	0.513222	0.000056	-0.342347
H103	H	0.506267	-0.129548	-0.310140
O104	O	0.560395	0.000097	-0.746124
H105	H	0.524662	0.000078	-0.710568
H106	H	0.575499	0.000089	-0.632390
O107	O	0.511740	0.000024	-0.465799
H108	H	0.476009	-0.000011	-0.430240
H109	H	0.206293	0.000113	0.220903
H110	H	0.098550	0.000150	0.219612
H111	H	0.512286	0.000175	-0.016153
O112	O	-0.177340	0.000207	0.178046
H113	H	-0.222442	0.000240	0.168762
H114	H	0.246136	0.000336	-0.071352
