data_functionalizedCrystal
_audit_creation_method	'MofGen! by Chris Wilmer'
_symmetry_space_group_name_H-M	'P1'
_symmetry_Int_Tables_number	1
_symmetry_cell_setting	triclinic
loop_
_symmetry_equiv_pos_as_xyz
  x,y,z
_cell_length_a	6.817900
_cell_length_b	12.840946
_cell_length_c	15.301131
_cell_angle_alpha	81.995001
_cell_angle_beta	75.011263
_cell_angle_gamma	88.344365
loop_
_atom_site_label
_atom_site_type_symbol
_atom_site_fract_x
_atom_site_fract_y
_atom_site_fract_z
V1	V	-3.903300	0.282022	0.126898
O2	O	-3.888166	0.320352	-0.003898
O3	O	-3.860468	0.238065	0.249503
O4	O	-3.798860	0.424196	0.125911
O5	O	-3.950200	0.132933	0.120548
V6	V	-4.393468	0.269295	0.111139
O7	O	-4.149982	0.309939	0.161467
O8	O	-4.596983	0.241378	0.076571
O9	O	-4.213093	0.313252	-0.011465
O10	O	-4.525999	0.230965	0.241936
O11	O	-4.463965	0.418384	0.117490
O12	O	-4.274701	0.127121	0.112126
C13	C	-3.708637	0.222772	0.279361
C14	C	-3.754530	0.187779	0.379598
C15	C	-3.773036	0.080414	0.413169
C16	C	-3.816187	0.047521	0.507351
C17	C	-3.840815	0.121995	0.567959
C18	C	-3.822312	0.229370	0.534382
C19	C	-3.779177	0.262262	0.440202
C20	C	-3.630062	0.460200	0.121704
C21	C	-3.625914	0.578331	0.121707
C22	C	-4.089871	-0.027023	0.116369
C23	C	-4.106871	0.091112	0.116349
V24	V	-3.886272	0.768181	0.126924
O25	O	-3.922567	0.921545	0.120585
O26	O	-3.791966	0.621336	0.125926
O27	O	-3.841903	0.767852	0.249529
O28	O	-3.872284	0.774014	-0.003873
V29	V	-4.374496	0.810988	0.111173
O30	O	-4.134889	0.740887	0.161493
O31	O	-4.575283	0.860965	0.076610
O32	O	-4.245989	0.946586	0.112168
O33	O	-4.455391	0.663538	0.117514
O34	O	-4.505674	0.811069	0.241972
O35	O	-4.196052	0.800069	-0.011434
C36	C	-4.028268	0.328541	-0.041318
C37	C	-3.961610	0.363540	-0.141554
C38	C	-3.689623	0.765226	0.279381
C39	C	-3.734182	0.768099	0.379618
C40	C	-4.012265	0.785730	-0.041296
C41	C	-3.946981	0.781821	-0.141534
C42	C	-3.935343	0.773317	0.431339
C43	C	-3.977199	0.776022	0.525521
C44	C	-3.817892	0.773502	0.567981
C45	C	-3.616715	0.768287	0.516252
C46	C	-3.574861	0.765589	0.422071
C47	C	-3.703964	0.773907	0.712557
C48	C	-3.745821	0.776603	0.806745
C49	C	-4.106302	0.784341	0.816006
C50	C	-4.064448	0.781643	0.721825
C51	C	-3.863273	0.776426	0.670103
C52	C	-4.104790	0.376340	-0.193258
C53	C	-4.042181	0.409209	-0.287443
C54	C	-3.836394	0.429284	-0.329922
C55	C	-3.693205	0.416478	-0.278212
C56	C	-3.755813	0.383603	-0.184029
H57	H	-3.842374	0.289999	0.583744
O58	O	-4.236259	0.784384	0.676019
H59	H	-4.383178	0.788484	0.727802
H60	H	-4.272361	0.360000	-0.158685
H61	H	-4.270109	0.788579	0.858124
O62	O	-3.836115	-0.068291	0.543551
H63	H	-3.720863	-0.090334	0.582364
O64	O	-4.194162	0.781658	0.581309
H65	H	-4.229015	0.711869	0.634546
O66	O	-3.887302	0.086507	0.669537
H67	H	-4.032104	0.041288	0.691994
H68	H	-3.785442	0.456052	-0.406612
H69	H	-3.616094	0.774573	0.841310
H70	H	-3.752977	0.019758	0.363832
O71	O	-4.196666	0.423030	-0.343190
H72	H	-4.159721	0.369841	-0.396412
O73	O	-3.759179	0.378066	0.403995
H74	H	-3.783530	0.424316	0.461968
H75	H	-3.525649	0.432827	-0.312812
O76	O	-4.107181	0.776032	0.385551
H77	H	-4.044290	0.773269	0.311373
O78	O	-3.486988	0.768283	0.656762
H79	H	-3.415767	0.695726	0.682705
O80	O	-3.444880	0.765578	0.562041
H81	H	-3.462474	0.695404	0.614819
H82	H	-3.411057	0.761346	0.379960
H83	H	-3.639208	0.373192	-0.141937
