data_functionalizedCrystal
_audit_creation_method	'MofGen! by Chris Wilmer'
_symmetry_space_group_name_H-M	'P1'
_symmetry_Int_Tables_number	1
_symmetry_cell_setting	triclinic
loop_
_symmetry_equiv_pos_as_xyz
  x,y,z
_cell_length_a	13.339070
_cell_length_b	23.532357
_cell_length_c	12.376457
_cell_angle_alpha	101.196651
_cell_angle_beta	75.589755
_cell_angle_gamma	99.228793
loop_
_atom_site_label
_atom_site_type_symbol
_atom_site_fract_x
_atom_site_fract_y
_atom_site_fract_z
O1	O	1.358829	0.277201	-0.094100
O2	O	1.858829	0.777201	0.405900
O3	O	1.064687	0.239788	-0.094086
O4	O	1.564687	0.739788	0.405914
O5	O	1.220649	0.176997	-0.094070
O6	O	1.720649	0.676997	0.405930
O7	O	1.202867	0.339992	-0.094115
O8	O	1.702867	0.839992	0.405885
O9	O	1.181673	0.192667	0.093938
O10	O	1.681673	0.692667	0.593938
O11	O	1.025710	0.255459	0.093923
O12	O	1.525710	0.755459	0.593923
O13	O	1.319852	0.292871	0.093909
O14	O	1.819852	0.792871	0.593909
Zn15	Zn	1.166593	0.276653	0.123766
Zn16	Zn	1.666593	0.776653	0.623766
Zn17	Zn	1.217946	0.256007	-0.123943
Zn18	Zn	1.717946	0.756007	0.376057
O19	O	1.163890	0.355663	0.093893
O20	O	1.663890	0.855663	0.593893
C21	C	1.007574	0.241304	-0.000079
C22	C	1.507574	0.741304	0.499921
C23	C	0.895467	0.222466	-0.000073
C24	C	1.395467	0.722466	0.499927
C25	C	1.200715	0.163544	-0.000062
C26	C	1.700715	0.663544	0.499938
C27	C	1.199375	0.100111	-0.000051
C28	C	1.699375	0.600111	0.499949
C29	C	0.529167	0.368938	-0.000132
C30	C	1.029167	0.868938	0.499868
C31	C	0.634499	0.386638	-0.000141
C32	C	1.134499	0.886638	0.499859
C33	C	0.699745	0.345597	-0.000124
C34	C	1.199745	0.845597	0.499876
C35	C	0.659651	0.286852	-0.000098
C36	C	1.159651	0.786852	0.499902
C37	C	0.554312	0.269148	-0.000097
C38	C	1.054312	0.769148	0.499903
C39	C	0.724890	0.245807	-0.000089
C40	C	1.224890	0.745807	0.499911
C41	C	0.684796	0.187062	-0.000063
C42	C	1.184796	0.687062	0.499937
C43	C	0.579466	0.169362	-0.000061
C44	C	1.079466	0.669362	0.499939
C45	C	0.514219	0.210404	-0.000079
C46	C	1.014219	0.710404	0.499921
C47	C	0.830230	0.263510	-0.000090
C48	C	1.330230	0.763510	0.499910
C49	C	0.855374	0.163721	-0.000055
C50	C	1.355374	0.663721	0.499945
C51	C	0.750043	0.146021	-0.000045
C52	C	1.250043	0.646021	0.499955
C53	C	1.212234	-0.301802	-0.102595
C54	C	1.712234	0.198198	0.397405
C55	C	1.210963	-0.361407	-0.102602
C56	C	1.710963	0.138593	0.397398
O57	O	1.228340	-0.399499	-0.189760
O58	O	1.728340	0.100501	0.310240
N59	N	1.189086	-0.382678	-0.000120
N60	N	1.689086	0.117322	0.499880
C61	C	1.168469	-0.344341	0.102375
C62	C	1.668469	0.155659	0.602375
O63	O	1.149744	-0.367907	0.189543
O64	O	1.649744	0.132093	0.689543
C65	C	1.169732	-0.284738	0.102380
C66	C	1.669732	0.215262	0.602380
C67	C	1.191621	-0.263469	-0.000108
C68	C	1.691621	0.236531	0.499892
C69	C	1.234119	-0.280533	-0.205076
C70	C	1.734119	0.219467	0.294924
C71	C	1.235391	-0.220931	-0.205069
C72	C	1.735391	0.279069	0.294931
C73	C	1.214778	-0.182599	-0.102582
C74	C	1.714778	0.317401	0.397418
C75	C	1.192893	-0.203868	-0.000101
C76	C	1.692893	0.296132	0.499899
C77	C	1.149108	-0.246403	0.204874
C78	C	1.649108	0.253597	0.704874
C79	C	1.150373	-0.186796	0.204870
C80	C	1.650373	0.313204	0.704870
C81	C	1.172261	-0.165528	0.102382
C82	C	1.672261	0.334472	0.602382
C83	C	1.173552	-0.105935	0.102392
C84	C	1.673552	0.394065	0.602392
N85	N	1.195429	-0.084664	-0.000089
N86	N	1.695429	0.415336	0.499911
C87	C	1.216042	-0.122996	-0.102576
C88	C	1.716042	0.377004	0.397424
C89	C	1.165815	-0.469513	0.102356
C90	C	1.665815	0.030487	0.602356
C91	C	1.164559	-0.529114	0.102352
C92	C	1.664559	-0.029114	0.602352
C93	C	1.207051	-0.546176	-0.102625
C94	C	1.707051	-0.046176	0.397375
C95	C	1.208315	-0.486572	-0.102620
C96	C	1.708315	0.013428	0.397380
C97	C	1.187692	-0.448241	-0.000126
C98	C	1.687692	0.051759	0.499874
C99	C	1.218713	0.002171	-0.102554
C100	C	1.718713	0.502171	0.397446
C101	C	1.219988	0.061779	-0.102538
C102	C	1.719988	0.561779	0.397462
C103	C	1.177490	0.078835	0.102438
C104	C	1.677490	0.578835	0.602438
C105	C	1.176221	0.019233	0.102423
C106	C	1.676221	0.519233	0.602423
C107	C	1.196831	-0.019098	-0.000083
C108	C	1.696831	0.480902	0.499917
O109	O	1.156181	-0.067809	0.189506
O110	O	1.656181	0.432191	0.689506
O111	O	1.234751	-0.099423	-0.189730
O112	O	1.734751	0.400577	0.310270
C113	C	1.376965	0.291356	-0.000100
C114	C	1.876965	0.791356	0.499900
C115	C	1.489075	0.310193	-0.000114
C116	C	1.989075	0.810193	0.499886
C117	C	1.183825	0.369115	-0.000117
C118	C	1.683825	0.869115	0.499883
C119	C	1.185166	0.432548	-0.000135
C120	C	1.685166	0.932548	0.499865
N121	N	1.131553	0.290744	0.292821
N122	N	1.631553	0.790744	0.792821
N123	N	1.252994	0.241912	-0.292998
N124	N	1.752994	0.741912	0.207002
C125	C	1.334333	0.209191	0.647826
C126	C	1.834333	0.709191	1.147826
C127	C	1.358852	0.199327	0.529489
C128	C	1.858852	0.699327	1.029489
C129	C	1.302029	0.222180	0.470316
C130	C	1.802029	0.722180	0.970316
C131	C	1.220684	0.254899	0.529492
C132	C	1.720684	0.754899	1.029492
C133	C	1.196168	0.264768	0.647841
C134	C	1.696168	0.764768	1.147841
C135	C	1.163864	0.277757	0.470331
C136	C	1.663864	0.777757	0.970331
C137	C	1.082518	0.310476	0.529507
C138	C	1.582518	0.810476	1.029507
C139	C	1.058006	0.320343	0.647844
C140	C	1.558006	0.820343	1.147844
C141	C	1.114829	0.297489	0.707017
C142	C	1.614829	0.797489	1.207017
C143	C	1.188380	0.267889	0.351982
C144	C	1.688380	0.767889	0.851982
C145	C	1.050214	0.323466	0.351997
C146	C	1.550214	0.823466	0.851997
C147	C	1.025696	0.333330	0.470334
C148	C	1.525696	0.833330	0.970334
H149	H	0.862862	0.311341	-0.000107
H150	H	1.362862	0.811341	0.499893
H151	H	1.094864	0.305518	0.803377
H152	H	1.594864	0.805518	1.303377
C153	C	1.259449	-0.197545	-0.317807
C154	C	1.759449	0.302455	0.182193
H155	H	1.271530	-0.228918	-0.378837
H156	H	1.771530	0.271082	0.121163
H157	H	1.319730	-0.169686	-0.322087
H158	H	1.819730	0.330314	0.177913
H159	H	1.201910	-0.179615	-0.322061
H160	H	1.701910	0.320385	0.177939
H161	H	0.991778	0.346990	0.696026
H162	H	1.491778	0.846990	1.196026
C163	C	1.232381	-0.463183	-0.215356
C164	C	1.732381	0.036817	0.284644
H165	H	1.244470	-0.494554	-0.276388
H166	H	1.744470	0.005446	0.223612
H167	H	1.292660	-0.435323	-0.219623
H168	H	1.792660	0.064677	0.280377
H169	H	1.174844	-0.445254	-0.219616
H170	H	1.674844	0.054746	0.280384
C171	C	1.244066	0.085173	-0.215277
C172	C	1.744066	0.585173	0.284723
H173	H	1.241884	0.126162	-0.200602
H174	H	1.741884	0.626162	0.299398
H175	H	1.193687	0.066939	-0.257389
H176	H	1.693687	0.566939	0.242611
H177	H	1.311500	0.076858	-0.257383
H178	H	1.811500	0.576858	0.242617
C179	C	0.815604	0.365068	-0.000121
C180	C	1.315604	0.865068	0.499879
H181	H	0.830136	0.405932	-0.000128
H182	H	1.330136	0.905932	0.499872
H183	H	0.857678	0.345179	-0.065672
H184	H	1.357678	0.845179	0.434328
H185	H	0.830472	0.356114	0.065462
H186	H	1.330472	0.856114	0.565462
H187	H	1.321996	0.214148	0.373960
H188	H	1.821996	0.714148	0.873960
H189	H	1.250902	-0.311738	-0.288537
H190	H	1.750902	0.188262	0.211463
C191	C	1.229713	-0.588350	-0.215360
C192	C	1.729713	-0.088350	0.284640
H193	H	1.225813	-0.626893	-0.200677
H194	H	1.725813	-0.126893	0.299323
H195	H	1.297554	-0.577131	-0.257482
H196	H	1.797554	-0.077131	0.242518
H197	H	1.179735	-0.587050	-0.257461
H198	H	1.679735	-0.087050	0.242539
C199	C	1.448317	0.163335	0.464403
C200	C	1.948317	0.663335	0.964403
H201	H	1.478641	0.151133	0.516591
H202	H	1.978641	0.651133	1.016591
H203	H	1.499709	0.186594	0.418218
H204	H	1.999709	0.686594	0.918218
H205	H	1.421788	0.130063	0.418258
H206	H	1.921788	0.630063	0.918258
H207	H	1.380596	0.190590	0.696013
H208	H	1.880596	0.690590	1.196013
H209	H	1.133563	-0.155591	0.288336
H210	H	1.633563	0.344409	0.788336
H211	H	0.667137	0.434468	-0.000172
H212	H	1.167137	0.934468	0.499828
H213	H	1.146750	-0.546424	0.185809
H214	H	1.646750	-0.046424	0.685809
H215	H	1.149024	-0.438305	0.185825
H216	H	1.649024	0.061695	0.685825
H217	H	1.158407	0.001916	0.185877
H218	H	1.658407	0.501916	0.685877
H219	H	0.428448	0.195995	-0.000071
H220	H	0.928448	0.695995	0.499929
H221	H	0.546828	0.121527	-0.000053
H222	H	1.046828	0.621527	0.499947
C223	C	1.277856	0.231905	0.286896
C224	C	1.777856	0.731905	0.786896
H225	H	1.284330	0.229305	0.207941
H226	H	1.784330	0.729305	0.707941
H227	H	1.263278	0.193839	0.306304
H228	H	1.763278	0.693839	0.806304
H229	H	1.341175	0.250380	0.306279
H230	H	1.841175	0.750380	0.806279
H231	H	1.160712	0.110056	0.185880
H232	H	1.660712	0.610056	0.685880
C233	C	0.705934	0.081404	-0.000029
C234	C	1.205934	0.581404	0.499971
H235	H	0.633859	0.076741	-0.000039
H236	H	1.133859	0.576741	0.499961
H237	H	0.714766	0.069266	0.065538
H238	H	1.214766	0.569266	0.565538
H239	H	0.741957	0.058340	-0.065596
H240	H	1.241957	0.558340	0.434404
C241	C	0.927134	0.118573	-0.000033
C242	C	1.427134	0.618573	0.499967
H243	H	0.995606	0.137530	-0.000025
H244	H	1.495606	0.637530	0.499975
H245	H	0.928636	0.089706	-0.065588
H246	H	1.428636	0.589706	0.434412
H247	H	0.901441	0.100638	0.065545
H248	H	1.401441	0.600638	0.565545
H249	H	1.235491	-0.029032	-0.186024
H250	H	1.735491	0.470968	0.313976
H251	H	1.131286	-0.263708	0.288331
H252	H	1.631286	0.236292	0.788331
H253	H	0.959463	0.359970	0.518530
H254	H	1.459463	0.859970	1.018530
C255	C	0.457398	0.414076	-0.000152
C256	C	0.957398	0.914076	0.499848
H257	H	0.388923	0.395118	-0.000142
H258	H	0.888923	0.895118	0.499858
H259	H	0.483086	0.432013	-0.065720
H260	H	0.983086	0.932013	0.434280
H261	H	0.455893	0.442942	0.065414
H262	H	0.955893	0.942942	0.565414
H263	H	1.003946	0.342077	0.303819
H264	H	1.503946	0.842077	0.803819
