data_functionalizedCrystal
_audit_creation_method	'MofGen! by Chris Wilmer'
_symmetry_space_group_name_H-M	'P1'
_symmetry_Int_Tables_number	1
_symmetry_cell_setting	triclinic
loop_
_symmetry_equiv_pos_as_xyz
  x,y,z
_cell_length_a	14.519709
_cell_length_b	10.654550
_cell_length_c	9.730223
_cell_angle_alpha	90.003749
_cell_angle_beta	89.997715
_cell_angle_gamma	95.917476
loop_
_atom_site_label
_atom_site_type_symbol
_atom_site_fract_x
_atom_site_fract_y
_atom_site_fract_z
O1	O	0.129528	-1.666589	-0.114406
O2	O	0.141869	-1.300991	-0.114384
O3	O	0.001510	-1.493483	-0.114384
O4	O	0.269887	-1.474097	-0.114407
O5	O	0.001514	-1.493481	0.114196
O6	O	0.141873	-1.300989	0.114195
O7	O	0.129532	-1.666586	0.114174
Zn8	Zn	0.135703	-1.483787	0.150477
Zn9	Zn	0.135698	-1.483790	-0.150687
O10	O	0.269890	-1.474094	0.114173
C11	C	0.140965	-1.254201	-0.000092
C12	C	0.138254	-1.114784	-0.000083
C13	C	-0.032852	-1.492579	-0.000093
C14	C	-0.135247	-1.489871	-0.000092
C15	C	0.130436	-1.713377	-0.000122
C16	C	0.133147	-1.852794	-0.000140
C17	C	-0.510195	-1.479904	-0.000127
C18	C	-0.405873	-1.482672	-0.000117
C19	C	-0.322725	-1.484887	-0.000109
C20	C	-0.218396	-1.487656	-0.000101
C21	C	0.304253	-1.474999	-0.000120
C22	C	0.406648	-1.477707	-0.000130
N23	N	0.135705	-1.483795	0.356013
C24	C	0.220895	-1.034504	-0.000110
C25	C	0.218342	-0.903507	-0.000134
C26	C	0.050500	-0.933085	-0.000108
C27	C	0.053054	-1.064078	-0.000075
C28	C	0.317797	-1.017426	-0.000131
C29	C	0.315244	-0.886430	-0.000154
N30	N	0.135688	-1.483793	-0.356224
C31	C	0.073576	-1.569052	0.427939
C32	C	0.073565	-1.569048	0.571822
C33	C	0.197821	-1.398527	0.571840
C34	C	0.197827	-1.398525	0.427959
C35	C	0.001840	-1.667505	0.427931
C36	C	0.001829	-1.667502	0.571814
H37	H	-0.014241	-1.129439	-0.000033
H38	H	0.248409	-1.329091	0.369398
Br39	Br	0.364055	-0.809823	0.164314
H40	H	0.248398	-1.329102	0.630434
H41	H	-0.018867	-0.891784	-0.000123
Br42	Br	0.380971	-1.065716	0.159300
Br43	Br	0.376094	-0.816277	-0.159603
Br44	Br	-0.109809	-1.617703	0.646204
Br45	Br	-0.116303	-1.632905	0.362837
Br46	Br	0.039293	-1.819110	0.353523
H47	H	0.348651	-1.052786	-0.098821
Br48	Br	0.028153	-1.828105	0.636902
