data_functionalizedCrystal
_audit_creation_method	'MofGen! by Chris Wilmer'
_symmetry_space_group_name_H-M	'P1'
_symmetry_Int_Tables_number	1
_symmetry_cell_setting	triclinic
loop_
_symmetry_equiv_pos_as_xyz
  x,y,z
_cell_length_a	10.654562
_cell_length_b	10.654541
_cell_length_c	9.130313
_cell_angle_alpha	89.998951
_cell_angle_beta	89.996930
_cell_angle_gamma	84.487016
loop_
_atom_site_label
_atom_site_type_symbol
_atom_site_fract_x
_atom_site_fract_y
_atom_site_fract_z
O1	O	1.667823	0.176469	-0.121895
O2	O	1.302347	0.193259	-0.121877
O3	O	1.493490	0.002125	-0.121877
O4	O	1.476680	0.367603	-0.121894
O5	O	1.493487	0.002130	0.121721
O6	O	1.302344	0.193264	0.121722
O7	O	1.667821	0.176474	0.121704
Cu8	Cu	1.485082	0.184870	0.143955
Cu9	Cu	1.485085	0.184864	-0.144128
O10	O	1.476678	0.367608	0.121704
C11	C	1.255548	0.192025	-0.000075
C12	C	1.116105	0.188327	-0.000068
C13	C	1.050573	0.186605	0.132706
C14	C	0.919551	0.183140	0.132682
C15	C	0.919604	0.183125	-0.132903
C16	C	1.050625	0.186581	-0.132877
C17	C	1.050541	0.186619	0.286040
C18	C	0.919519	0.183154	0.286016
C19	C	1.492255	-0.044671	-0.000079
C20	C	1.488564	-0.184114	-0.000081
C21	C	1.717127	-0.212075	-0.000074
C22	C	1.829670	-0.291564	-0.000067
C23	C	1.826194	-0.422582	-0.000072
C24	C	1.710164	-0.474113	-0.000087
C25	C	1.597621	-0.394623	-0.000094
C26	C	1.601109	-0.263604	-0.000085
C27	C	1.369061	-0.366663	-0.000111
C28	C	1.372534	-0.235645	-0.000097
C29	C	1.253031	-0.418194	-0.000127
C30	C	1.140485	-0.338704	-0.000123
C31	C	1.143966	-0.207679	-0.000117
C32	C	1.259991	-0.156156	-0.000103
C33	C	1.714620	0.177708	-0.000101
C34	C	1.854062	0.181406	-0.000118
N35	N	1.485090	0.184873	0.346578
C36	C	1.477913	0.414404	-0.000097
C37	C	1.481603	0.553848	-0.000105
N38	N	1.485088	0.184850	-0.346751
C39	C	1.569750	0.100268	0.423230
C40	C	1.569746	0.100253	0.576567
C41	C	1.400419	0.269459	0.576586
C42	C	1.400417	0.269467	0.423252
C43	C	1.667513	0.002582	0.423219
C44	C	1.667510	0.002567	0.576556
H45	H	1.719969	-0.105394	-0.000051
C46	C	1.090513	0.310346	0.350323
C47	C	1.165406	0.396778	0.255754
C48	C	1.205381	0.520505	0.320035
C49	C	1.170462	0.557801	0.478885
C50	C	1.095564	0.471368	0.573464
C51	C	1.055590	0.347640	0.509182
H52	H	1.191259	0.369171	0.138156
H53	H	1.260825	0.584488	0.250022
H54	H	1.200054	0.649391	0.526470
H55	H	1.069712	0.498975	0.691062
H56	H	1.000145	0.283657	0.579196
C57	C	1.626327	-0.120672	0.640833
C58	C	1.509444	-0.117090	0.740515
C59	C	1.468273	-0.240325	0.804805
C60	C	1.543984	-0.367143	0.769412
C61	C	1.660874	-0.370730	0.669725
C62	C	1.702045	-0.247494	0.605436
H63	H	1.453392	-0.023208	0.766719
H64	H	1.381743	-0.237669	0.878600
H65	H	1.513507	-0.458369	0.817003
H66	H	1.716926	-0.464612	0.643521
H67	H	1.788575	-0.250150	0.531640
H68	H	1.103978	0.187964	-0.240994
H69	H	1.052319	-0.142965	-0.000129
H70	H	0.866273	0.181703	-0.241031
C71	C	1.638539	-0.127820	0.366986
C72	C	1.734924	-0.206220	0.270013
C73	C	1.705949	-0.336618	0.213779
C74	C	1.580589	-0.388615	0.254519
C75	C	1.484195	-0.310214	0.351497
C76	C	1.513170	-0.179817	0.407730
H77	H	1.827731	-0.167729	0.239851
H78	H	1.777306	-0.394655	0.141990
H79	H	1.559139	-0.485143	0.212891
H80	H	1.391388	-0.348705	0.381659
H81	H	1.441813	-0.121780	0.479520
H82	H	0.889931	0.091561	0.333599
H83	H	1.096801	0.099826	0.344927
H84	H	0.873232	0.269952	0.344877
H85	H	1.924140	-0.249593	-0.000042
H86	H	1.917836	-0.487303	-0.000078
H87	H	1.262836	-0.049475	-0.000089
H88	H	1.707344	-0.580796	-0.000109
H89	H	1.250209	-0.524877	-0.000139
H90	H	1.046022	-0.380672	-0.000145
H91	H	1.331470	0.338348	0.360844
H92	H	1.331480	0.338333	0.639031
H93	H	1.758696	0.033174	0.375655
H94	H	1.764021	0.024090	0.618167
