data_functionalizedCrystal
_audit_creation_method	'MofGen! by Chris Wilmer'
_symmetry_space_group_name_H-M	'P1'
_symmetry_Int_Tables_number	1
_symmetry_cell_setting	triclinic
loop_
_symmetry_equiv_pos_as_xyz
  x,y,z
_cell_length_a	10.686285
_cell_length_b	18.101398
_cell_length_c	10.686551
_cell_angle_alpha	94.392576
_cell_angle_beta	99.084519
_cell_angle_gamma	85.630091
loop_
_atom_site_label
_atom_site_type_symbol
_atom_site_fract_x
_atom_site_fract_y
_atom_site_fract_z
Zn1	Zn	-0.450241	1.183116	0.678883
Zn2	Zn	0.049759	1.683116	1.178883
Zn3	Zn	-0.678821	1.183057	0.450381
Zn4	Zn	-0.178821	1.683057	0.950381
Zn5	Zn	-0.466586	1.050446	0.466659
Zn6	Zn	0.033414	1.550446	0.966659
Zn7	Zn	-0.662431	1.068098	0.662597
Zn8	Zn	-0.162431	1.568098	1.162597
O9	O	-0.564520	1.121179	0.564630
O10	O	-0.064520	1.621179	1.064630
O11	O	-0.480582	1.286742	0.648576
O12	O	0.019418	1.786742	1.148576
O13	O	-0.664368	1.158053	0.274911
O14	O	-0.164368	1.658053	0.774911
O15	O	-0.286795	1.060682	0.508440
O16	O	0.213205	1.560682	1.008440
O17	O	-0.648518	1.286698	0.480696
O18	O	-0.148518	1.786698	0.980696
O19	O	-0.274786	1.158155	0.664360
O20	O	0.225214	1.658155	1.164360
O21	O	-0.508440	1.060624	0.286870
O22	O	-0.008440	1.560624	0.786870
O23	O	-0.492547	0.949153	0.492647
O24	O	0.007453	1.449153	0.992647
O25	O	-0.620584	1.090768	0.842387
O26	O	-0.120584	1.590768	1.342387
O27	O	-0.636433	0.962122	0.636601
O28	O	-0.136433	1.462122	1.136601
O29	O	-0.464689	1.175271	0.854352
O30	O	0.035311	1.675271	1.354352
O31	O	-0.854270	1.175169	0.464903
O32	O	-0.354270	1.675169	0.964903
O33	O	-0.842228	1.090710	0.620817
O34	O	-0.342228	1.590710	1.120817
C35	C	-0.564486	0.928767	0.564624
C36	C	-0.064486	1.428767	1.064624
C37	C	-0.564499	0.846454	0.564649
C38	C	-0.064499	1.346454	1.064649
C39	C	-0.564523	0.695747	0.564645
C40	C	-0.064523	1.195747	1.064645
C41	C	-0.655215	0.672578	0.655054
C42	C	-0.155215	1.172578	1.155054
C43	C	-0.655635	0.586964	0.654734
C44	C	-0.155635	1.086964	1.154734
C45	C	-0.564546	0.547365	0.564644
C46	C	-0.064546	1.047365	1.064644
C47	C	-0.610536	0.574337	0.427978
C48	C	-0.110536	1.074337	0.927978
C49	C	-0.611192	0.660035	0.428491
C50	C	-0.111192	1.160035	0.928491
C51	C	-0.427688	0.660065	0.609751
C52	C	0.072312	1.160065	1.109751
C53	C	-0.428196	0.574568	0.612644
C54	C	0.071804	1.074568	1.112644
C55	C	-0.564558	0.463506	0.564635
C56	C	-0.064558	0.963506	1.064635
C57	C	-0.564515	0.779606	0.564645
C58	C	-0.064515	1.279606	1.064645
C59	C	-0.894303	1.134870	0.539354
C60	C	-0.394303	1.634870	1.039354
C61	C	-1.035382	1.140796	0.528584
C62	C	-0.535382	1.640796	1.028584
C63	C	-0.233447	1.107456	0.590032
C64	C	0.266553	1.607456	1.090032
C65	C	-0.092364	1.101608	0.600857
C66	C	0.407636	1.601608	1.100857
C67	C	-0.538985	1.134995	0.895715
C68	C	-0.038985	1.634995	1.395715
C69	C	-0.528103	1.140883	1.036803
C70	C	-0.028103	1.640883	1.536803
C71	C	-0.564555	1.314343	0.564637
C72	C	-0.064555	1.814343	1.064637
C73	C	-0.564570	1.396658	0.564640
C74	C	-0.064570	1.896658	1.064640
C75	C	-0.589864	1.107455	0.234840
C76	C	-0.089864	1.607455	0.734840
C77	C	-0.600388	1.101696	0.093780
C78	C	-0.100388	1.601696	0.593780
H79	H	-0.546953	0.547971	0.358319
H80	H	-0.046953	1.047971	0.858319
H81	H	-1.094534	1.178877	0.458453
H82	H	-0.594534	1.678877	0.958453
F83	F	-0.740302	0.549931	0.379127
F84	F	-0.240302	1.049931	0.879127
H85	H	-0.393693	0.557251	0.713273
H86	H	0.106307	1.057251	1.213273
H87	H	-0.670603	1.063645	1.034623
H88	H	-0.170603	1.563645	1.534623
H89	H	-0.457892	1.178942	1.095966
H90	H	0.042108	1.678942	1.595966
H91	H	-0.711504	0.682852	0.391542
H92	H	-0.211504	1.182852	0.891542
F93	F	-0.334128	0.538812	0.534006
F94	F	0.165872	1.038812	1.034006
H95	H	-0.548511	0.674770	0.358267
H96	H	-0.048511	1.174770	0.858267
F97	F	-0.616469	0.703763	0.787439
F98	F	-0.116469	1.203763	1.287439
F99	F	-0.616558	0.563704	0.786745
F100	F	-0.116558	1.063704	1.286745
F101	F	-0.787907	0.564315	0.614606
F102	F	-0.287907	1.064315	1.114606
F103	F	-0.786709	0.704827	0.615328
F104	F	-0.286709	1.204827	1.115328
H105	H	-0.387696	0.684323	0.708265
H106	H	0.112304	1.184323	1.208265
F107	F	-0.339212	0.678686	0.523853
F108	F	0.160788	1.178686	1.023853
F109	F	-1.015059	1.051829	0.692509
F110	F	-0.515059	1.551829	1.192509
