data_functionalizedCrystal
_audit_creation_method	'MofGen! by Chris Wilmer'
_symmetry_space_group_name_H-M	'P1'
_symmetry_Int_Tables_number	1
_symmetry_cell_setting	triclinic
loop_
_symmetry_equiv_pos_as_xyz
  x,y,z
_cell_length_a	14.908932
_cell_length_b	14.908977
_cell_length_c	14.908308
_cell_angle_alpha	89.840289
_cell_angle_beta	83.630060
_cell_angle_gamma	90.214730
loop_
_atom_site_label
_atom_site_type_symbol
_atom_site_fract_x
_atom_site_fract_y
_atom_site_fract_z
Zn1	Zn	-1.372821	0.303754	-0.413478
Zn2	Zn	-1.390062	0.444401	-0.253518
Zn3	Zn	-1.230197	0.303792	-0.270852
Zn4	Zn	-1.231152	0.462685	-0.412427
O5	O	-1.306058	0.378658	-0.337569
O6	O	-1.501301	0.314743	-0.385445
O7	O	-1.375672	0.418113	-0.129624
O8	O	-1.241501	0.178428	-0.297466
O9	O	-1.513969	0.418076	-0.267923
O10	O	-1.346286	0.178400	-0.402253
O11	O	-1.258219	0.314808	-0.142359
O12	O	-1.104130	0.332537	-0.296447
O13	O	-1.243129	0.449238	-0.538760
O14	O	-1.104832	0.449275	-0.400462
O15	O	-1.347212	0.332472	-0.539532
O16	O	-1.376598	0.572185	-0.266904
O17	O	-1.259847	0.585618	-0.383654
C18	C	-1.071760	0.392895	-0.350222
C19	C	-0.971527	0.399009	-0.355655
C20	C	-0.830652	0.468485	-0.417358
C21	C	-0.924830	0.462742	-0.412261
C22	C	-0.924039	0.341016	-0.304139
C23	C	-0.829861	0.346759	-0.309236
C24	C	-0.783171	0.410495	-0.365849
C25	C	-0.688991	0.416234	-0.370950
C26	C	-0.688202	0.294512	-0.262824
C27	C	-0.782380	0.288769	-0.257727
C28	C	-1.320220	0.611406	-0.323302
C29	C	-1.326360	0.710973	-0.317224
C30	C	-0.541270	0.364357	-0.324862
C31	C	-0.641503	0.358241	-0.319435
C32	C	-1.216219	0.912124	-0.427282
C33	C	-1.221984	1.005677	-0.421574
C34	C	-1.343652	0.991633	-0.300099
C35	C	-1.337886	0.898080	-0.305806
C36	C	-1.274168	0.858329	-0.369401
C37	C	-1.268408	0.764775	-0.375112
C38	C	-1.390070	0.750733	-0.253632
C39	C	-1.395836	0.844286	-0.247925
C40	C	-1.293354	0.392891	-0.572782
C41	C	-1.287940	0.398956	-0.673016
C42	C	-1.291835	1.145002	-0.351901
C43	C	-1.285700	1.045435	-0.357986
C44	C	-1.386146	0.288743	-0.862173
C45	C	-1.381062	0.294439	-0.956351
C46	C	-1.272684	0.416037	-0.955554
C47	C	-1.277768	0.410342	-0.861375
C48	C	-1.334502	0.346694	-0.814688
C49	C	-1.339590	0.341003	-0.720507
C50	C	-1.231208	0.462597	-0.719712
C51	C	-1.226124	0.468292	-0.813890
C52	C	-1.318761	0.364413	-0.103272
C53	C	-1.324333	0.358085	-0.003045
H54	H	-0.963486	0.509964	-0.454205
H55	H	-0.820408	0.236879	-0.211633
H56	H	-1.189158	0.509786	-0.681039
Br57	Br	-1.451149	0.215786	-1.020794
Br58	Br	-0.623758	0.215800	-0.192921
Br59	Br	-1.129759	0.858171	-0.513596
Br60	Br	-1.143331	1.078682	-0.500126
Br61	Br	-1.181939	0.710827	-0.461420
Br62	Br	-0.987420	0.254532	-0.227306
Br63	Br	-1.430120	1.045597	-0.213800
H64	H	-0.792636	0.520375	-0.463462
H65	H	-1.447711	0.876664	-0.196146
Br66	Br	-1.468729	0.677721	-0.175081
Br67	Br	-0.625626	0.502727	-0.447784
H68	H	-1.385787	0.289178	-0.682495
Br69	Br	-1.149129	0.554664	-0.877260
H70	H	-1.432345	0.236923	-0.824159
Br71	Br	-1.195684	0.502401	-1.018932
