data_functionalizedCrystal
_audit_creation_method	'MofGen! by Chris Wilmer'
_symmetry_space_group_name_H-M	'P1'
_symmetry_Int_Tables_number	1
_symmetry_cell_setting	triclinic
loop_
_symmetry_equiv_pos_as_xyz
  x,y,z
_cell_length_a	12.837932
_cell_length_b	14.044190
_cell_length_c	11.892095
_cell_angle_alpha	94.240074
_cell_angle_beta	85.688545
_cell_angle_gamma	94.010740
loop_
_atom_site_label
_atom_site_type_symbol
_atom_site_fract_x
_atom_site_fract_y
_atom_site_fract_z
O1	O	1.404561	0.242992	-0.094032
O2	O	1.904561	0.742992	0.405968
O3	O	1.101619	0.230715	-0.094032
O4	O	1.601619	0.730715	0.405968
O5	O	1.248538	0.098458	-0.094010
O6	O	1.748538	0.598458	0.405990
O7	O	1.257642	0.375248	-0.094055
O8	O	1.757642	0.875248	0.405945
O9	O	1.236286	0.109467	0.093996
O10	O	1.736286	0.609467	0.593996
O11	O	1.089368	0.241723	0.093973
O12	O	1.589368	0.741723	0.593973
O13	O	1.392309	0.254000	0.093973
O14	O	1.892309	0.754000	0.593973
Zn15	Zn	1.238893	0.249609	0.123823
Zn16	Zn	1.738893	0.749609	0.623823
Zn17	Zn	1.255035	0.235105	-0.123882
Zn18	Zn	1.755035	0.735105	0.376118
O19	O	1.245391	0.386256	0.093951
O20	O	1.745391	0.886256	0.593951
C21	C	1.056489	0.232072	-0.000029
C22	C	1.556489	0.732072	0.499971
C23	C	0.940268	0.219704	-0.000029
C24	C	1.440268	0.719704	0.499971
C25	C	0.780862	0.116330	-0.000010
C26	C	1.280862	0.616330	0.499990
C27	C	0.890063	0.127945	-0.000012
C28	C	1.390063	0.627945	0.499988
C29	C	0.881264	0.299854	-0.000039
C30	C	1.381264	0.799854	0.499961
C31	C	0.772064	0.288239	-0.000037
C32	C	1.272064	0.788239	0.499963
C33	C	0.721867	0.196474	-0.000024
C34	C	1.221867	0.696474	0.499976
C35	C	0.612665	0.184860	-0.000030
C36	C	1.112665	0.684860	0.499970
C37	C	0.603868	0.356769	-0.000049
C38	C	1.103868	0.856769	0.499951
C39	C	0.713068	0.368384	-0.000051
C40	C	1.213068	0.868384	0.499949
C41	C	1.238430	0.068289	-0.000004
C42	C	1.738430	0.568289	0.499996
C43	C	1.226552	-0.038010	0.000006
C44	C	1.726552	0.461990	0.500006
C45	C	1.289077	-0.282651	-0.000038
C46	C	1.789077	0.217349	0.499962
C47	C	1.204857	-0.232629	-0.000031
C48	C	1.704857	0.267371	0.499969
C49	C	1.216931	-0.124333	-0.000010
C50	C	1.716931	0.375667	0.499990
C51	C	1.277004	-0.390957	-0.000059
C52	C	1.777004	0.109043	0.499941
C53	C	1.437439	0.252643	-0.000032
C54	C	1.937439	0.752643	0.499968
C55	C	1.553661	0.265010	-0.000040
C56	C	2.053661	0.765010	0.499960
C57	C	1.255499	0.416426	-0.000058
C58	C	1.755499	0.916426	0.499942
C59	C	1.267377	0.522723	-0.000075
C60	C	1.767377	1.022723	0.499925
N61	N	1.227884	0.259508	0.292876
N62	N	1.727884	0.759508	0.792876
N63	N	1.266052	0.225200	-0.292935
N64	N	1.766052	0.725200	0.207065
C65	C	1.342651	0.156265	0.529541
C66	C	1.842651	0.656265	1.029541
C67	C	1.334964	0.163192	0.647882
C68	C	1.834964	0.663192	1.147882
C69	C	1.204819	0.280283	0.647900
C70	C	1.704819	0.780283	1.147900
C71	C	1.212506	0.273356	0.529559
C72	C	1.712506	0.773356	1.029559
C73	C	1.281425	0.211346	0.470384
C74	C	1.781425	0.711346	0.970384
C75	C	1.289117	0.204425	0.352041
C76	C	1.789117	0.704425	0.852041
C77	C	1.158967	0.321511	0.352061
C78	C	1.658967	0.821511	0.852061
C79	C	1.151280	0.328437	0.470402
C80	C	1.651280	0.828437	0.970402
H81	H	0.739992	0.041611	-0.000011
H82	H	1.239992	0.541611	0.499989
H83	H	1.109116	0.366364	0.303882
H84	H	1.609116	0.866364	0.803882
H85	H	0.555822	0.422028	-0.000061
H86	H	1.055822	0.922028	0.499939
Br87	Br	0.781202	0.492916	-0.000068
Br88	Br	1.281202	0.992916	0.499932
H89	H	1.123686	-0.271137	-0.000037
H90	H	1.623686	0.228863	0.499963
Br91	Br	0.544541	0.060324	-0.000016
Br92	Br	1.044541	0.560324	0.499984
H93	H	1.370241	-0.244145	-0.000027
H94	H	1.870241	0.255855	0.499973
Br95	Br	0.949407	0.424383	-0.000052
Br96	Br	1.449407	0.924383	0.499948
Br97	Br	1.382654	0.120275	0.271733
Br98	Br	1.882654	0.620275	0.771733
H99	H	1.398775	0.105781	0.481360
H100	H	1.898775	0.605781	0.981360
H101	H	0.938093	0.062683	-0.000000
H102	H	1.438093	0.562683	0.500000
H103	H	1.384819	0.118338	0.696044
H104	H	1.884819	0.618338	1.196044
Br105	Br	1.111275	0.364421	0.728220
Br106	Br	1.611275	0.864421	1.228220
Br107	Br	1.057746	0.412585	0.550718
Br108	Br	1.557746	0.912585	1.050718
