data_functionalizedCrystal
_audit_creation_method	'MofGen! by Chris Wilmer'
_symmetry_space_group_name_H-M	'P1'
_symmetry_Int_Tables_number	1
_symmetry_cell_setting	triclinic
loop_
_symmetry_equiv_pos_as_xyz
  x,y,z
_cell_length_a	12.759399
_cell_length_b	11.169417
_cell_length_c	11.169409
_cell_angle_alpha	89.980176
_cell_angle_beta	89.965790
_cell_angle_gamma	90.015995
loop_
_atom_site_label
_atom_site_type_symbol
_atom_site_fract_x
_atom_site_fract_y
_atom_site_fract_z
Zn1	Zn	-0.418157	1.834922	-0.678527
Zn2	Zn	-0.593882	1.834795	-0.477837
Zn3	Zn	-0.418221	1.634208	-0.477861
Zn4	Zn	-0.593797	1.634199	-0.678482
O5	O	-0.506014	1.734531	-0.578177
O6	O	-0.441476	2.002855	-0.651914
O7	O	-0.570643	1.808137	-0.309891
O8	O	-0.271191	1.660891	-0.504509
O9	O	-0.570581	2.002762	-0.504468
O10	O	-0.271144	1.808354	-0.651937
O11	O	-0.441585	1.660767	-0.309908
O12	O	-0.441502	1.466257	-0.504466
O13	O	-0.570435	1.660875	-0.846438
O14	O	-0.570497	1.466251	-0.651861
O15	O	-0.441393	1.808346	-0.846471
O16	O	-0.740892	1.808128	-0.504425
O17	O	-0.740829	1.660751	-0.651838
C18	C	-0.505998	1.422707	-0.578162
C19	C	-0.506017	1.289307	-0.578184
C20	C	-0.778981	1.734458	-0.578150
C21	C	-0.895758	1.734536	-0.578178
C22	C	-0.950618	1.811363	-0.501508
C23	C	-1.060342	1.811440	-0.501548
C24	C	-1.060337	1.657853	-0.654933
C25	C	-0.950615	1.657783	-0.654898
C26	C	-1.210221	1.953101	-0.458834
C27	C	-1.265084	2.029917	-0.382145
C28	C	-1.229550	2.048380	-0.265042
C29	C	-1.139154	1.990009	-0.224604
C30	C	-1.084296	1.913184	-0.301287
C31	C	-1.119829	1.894744	-0.418407
C32	C	-0.800734	1.516120	-0.697599
C33	C	-0.745874	1.439288	-0.774277
C34	C	-0.781406	1.420813	-0.891382
C35	C	-0.871806	1.479163	-0.931815
C36	C	-0.926666	1.555995	-0.855137
C37	C	-0.891126	1.574472	-0.738033
C38	C	-0.231981	1.734638	-0.578231
C39	C	-0.115204	1.734683	-0.578254
C40	C	-0.505897	1.734623	-0.891220
C41	C	-0.505848	1.734663	-1.024620
C42	C	-0.506031	2.047574	-0.578193
C43	C	-0.506038	2.180974	-0.578200
C44	C	-0.506054	1.734509	-0.266352
C45	C	-0.505808	1.734702	-0.132953
H46	H	-0.905956	1.873862	-0.439040
C47	C	-1.289894	2.132874	-0.180682
H48	H	-1.255791	2.135502	-0.105141
H49	H	-1.291667	2.210986	-0.214285
H50	H	-1.359456	2.104245	-0.170564
H51	H	-0.736730	1.358246	-0.953811
H52	H	-1.010696	1.865661	-0.268364
H53	H	-0.672261	1.391784	-0.741348
C54	C	-1.100078	2.010296	-0.095780
H55	H	-1.038394	1.964522	-0.082679
H56	H	-1.084964	2.092796	-0.084440
H57	H	-1.152769	1.986061	-0.040740
C58	C	-1.026097	1.620192	-0.899617
H59	H	-1.039401	1.598196	-0.980347
H60	H	-1.084012	1.597638	-0.851112
H61	H	-1.016207	1.704359	-0.894851
C62	C	-0.910900	1.458850	-1.060629
H63	H	-0.972600	1.504598	-1.073724
H64	H	-0.858225	1.483070	-1.115686
H65	H	-0.926014	1.376339	-1.071939
C66	C	-0.761657	1.536421	-0.568772
H67	H	-0.699975	1.490645	-0.555666
H68	H	-0.746541	1.618921	-0.557432
H69	H	-0.814352	1.512188	-0.513736
H70	H	-1.239155	1.938087	-0.554193
C71	C	-1.364507	2.094132	-0.426628
H72	H	-1.377804	2.072154	-0.507365
H73	H	-1.422426	2.071568	-0.378134
H74	H	-1.354616	2.178297	-0.421841
H75	H	-1.105014	1.595362	-0.717393
