data_functionalizedCrystal
_audit_creation_method	'MofGen! by Chris Wilmer'
_symmetry_space_group_name_H-M	'P1'
_symmetry_Int_Tables_number	1
_symmetry_cell_setting	triclinic
loop_
_symmetry_equiv_pos_as_xyz
  x,y,z
_cell_length_a	19.077105
_cell_length_b	12.594516
_cell_length_c	19.076919
_cell_angle_alpha	92.277239
_cell_angle_beta	90.076224
_cell_angle_gamma	87.712633
loop_
_atom_site_label
_atom_site_type_symbol
_atom_site_fract_x
_atom_site_fract_y
_atom_site_fract_z
Zn1	Zn	1.058319	-0.514930	-0.440450
Zn2	Zn	1.062975	-0.686069	-0.322954
Zn3	Zn	0.945535	-0.500672	-0.318243
Zn4	Zn	0.940797	-0.685427	-0.435707
O5	O	1.001907	-0.596775	-0.379338
O6	O	1.157269	-0.543868	-0.428821
O7	O	1.051328	-0.655777	-0.223998
O8	O	0.960531	-0.353620	-0.334467
O9	O	1.160690	-0.669603	-0.342497
O10	O	1.043393	-0.364096	-0.424253
O11	O	0.965046	-0.519567	-0.220536
O12	O	0.846574	-0.518944	-0.329868
O13	O	0.952455	-0.668509	-0.534668
O14	O	0.843093	-0.654683	-0.416168
O15	O	1.038798	-0.543246	-0.538153
O16	O	1.046733	-0.834927	-0.337898
O17	O	0.956969	-0.834455	-0.420737
C18	C	0.819337	-0.585197	-0.371992
C19	C	0.741233	-0.580271	-0.368866
C20	C	0.702747	-0.648728	-0.412259
C21	C	0.629360	-0.644085	-0.409325
C22	C	0.594459	-0.570991	-0.362994
C23	C	0.632949	-0.502527	-0.319600
C24	C	0.706335	-0.507165	-0.322538
C25	C	0.375169	-0.549525	-0.349400
C26	C	0.301778	-0.544895	-0.346464
C27	C	0.298194	-0.686452	-0.436191
C28	C	0.371582	-0.691088	-0.439121
C29	C	0.410065	-0.622620	-0.395730
N30	N	0.519445	-0.566246	-0.359993
N31	N	0.485078	-0.627361	-0.398735
C32	C	1.001861	-0.873312	-0.379330
C33	C	1.001905	-0.991622	-0.379352
C34	C	0.953079	-1.060655	-0.424375
C35	C	0.938538	-1.126689	-0.359570
C36	C	1.016509	-1.136391	-0.444171
C37	C	0.987331	-1.056094	-0.314511
C38	C	1.065330	-1.065794	-0.399157
C39	C	1.050816	-1.131795	-0.334309
C40	C	1.185189	-0.608398	-0.386714
C41	C	1.263293	-0.613351	-0.389857
C42	C	0.994578	-0.607396	-0.562619
C43	C	0.991455	-0.611923	-0.640723
C44	C	1.001971	-0.319159	-0.379363
C45	C	1.001998	-0.200856	-0.379374
C46	C	1.034940	-0.548834	-0.679231
C47	C	1.031997	-0.553083	-0.752617
C48	C	0.985572	-0.620426	-0.787494
C49	C	0.942083	-0.683517	-0.748980
C50	C	0.945023	-0.679262	-0.675595
C51	C	0.971956	-0.640139	-1.006776
C52	C	0.969021	-0.644391	-1.080166
C53	C	1.058935	-0.513955	-1.083799
C54	C	1.061873	-0.509711	-1.010412
C55	C	1.018381	-0.572798	-0.971905
N56	N	0.982565	-0.624772	-0.862506
N57	N	1.021386	-0.568445	-0.896894
C58	C	1.009247	-0.586120	-0.196772
C59	C	1.012506	-0.581302	-0.118675
H60	H	0.399993	-0.750611	-0.476847
H61	H	0.731159	-0.708252	-0.449984
C62	C	0.929728	-0.962352	-0.527713
C63	C	0.897251	-1.018479	-0.475695
H64	H	0.895261	-0.936321	-0.559395
H65	H	0.953333	-0.904335	-0.506541
H66	H	0.962607	-1.008344	-0.552490
H67	H	0.864376	-0.972485	-0.450915
H68	H	0.873635	-1.076504	-0.496869
H69	H	0.266852	-0.742192	-0.471519
C70	C	0.283896	-0.484405	-0.226633
C71	C	0.263403	-0.464538	-0.295545
H72	H	0.260204	-0.434795	-0.195203
H73	H	0.272275	-0.554526	-0.215787
H74	H	0.333109	-0.477350	-0.222172
H75	H	0.214190	-0.471601	-0.300007
H76	H	0.275019	-0.394400	-0.306394
C77	C	0.820425	-0.451418	-0.287205
C78	C	0.748642	-0.431917	-0.274839
H79	H	0.846541	-0.404953	-0.257761
H80	H	0.832851	-0.523057	-0.277319
H81	H	0.830566	-0.439450	-0.334919
H82	H	0.738500	-0.443892	-0.227126
H83	H	0.736211	-0.360261	-0.284720
C84	C	0.904471	-1.040316	-0.219681
C85	C	0.970619	-1.008876	-0.240497
H86	H	0.894155	-1.011169	-0.173987
H87	H	0.869969	-1.015395	-0.251685
H88	H	0.904432	-1.115710	-0.219242
H89	H	0.970657	-0.933482	-0.240941
H90	H	1.005130	-1.033792	-0.208484
C91	C	1.132773	-0.535249	-0.600517
C92	C	1.085970	-0.474806	-0.640898
H93	H	1.164278	-0.489541	-0.576857
H94	H	1.107297	-0.572205	-0.567081
H95	H	1.158494	-0.584981	-0.630231
H96	H	1.060246	-0.425078	-0.611183
H97	H	1.111449	-0.437832	-0.674337
C98	C	0.867206	-1.274237	-0.336602
C99	C	0.866187	-1.163031	-0.336961
H100	H	0.822539	-1.296667	-0.322644
H101	H	0.877879	-1.302883	-0.382329
H102	H	0.901883	-1.298577	-0.304581
H103	H	0.831514	-1.138691	-0.368987
H104	H	0.855505	-1.134374	-0.291228
H105	H	0.406494	-0.493782	-0.314062
C106	C	0.522046	-0.432562	-0.275256
C107	C	0.594587	-0.422176	-0.268674
H108	H	0.498366	-0.382959	-0.243812
H109	H	0.508147	-0.419076	-0.322000
H110	H	0.510428	-0.502693	-0.264407
H111	H	0.606206	-0.352047	-0.279529
H112	H	0.608491	-0.435654	-0.221920
H113	H	1.118911	-1.038859	-0.415922
H114	H	0.598028	-0.699830	-0.444659
H115	H	0.936552	-0.691524	-0.975432
H116	H	1.092148	-1.162827	-0.296198
H117	H	0.931215	-0.699232	-1.108560
H118	H	1.028824	-1.171502	-0.498979
H119	H	1.099679	-0.454876	-0.982021
C120	C	0.909604	-0.730650	-0.561485
C121	C	0.897223	-0.748610	-0.633262
H122	H	0.880088	-0.773458	-0.535353
H123	H	0.957288	-0.748529	-0.551363
H124	H	0.899818	-0.657783	-0.549061
H125	H	0.907014	-0.821476	-0.645688
H126	H	0.849528	-0.730738	-0.643389
C127	C	1.121177	-0.423744	-0.748837
C128	C	1.079802	-0.483741	-0.794946
H129	H	1.150693	-0.380939	-0.774971
H130	H	1.091720	-0.379428	-0.718986
H131	H	1.149186	-0.470180	-0.721292
H132	H	1.051789	-0.437305	-0.822488
H133	H	1.109262	-0.528061	-0.824810
C134	C	1.094348	-0.462549	-1.197905
C135	C	1.106732	-0.444602	-1.126128
H136	H	1.123854	-0.419723	-1.224035
H137	H	1.104139	-0.535401	-1.210337
H138	H	1.046655	-0.444677	-1.208022
H139	H	1.154425	-0.462482	-1.116010
H140	H	1.096946	-0.371733	-1.113691
H141	H	0.904280	-0.738345	-0.777382
