data_functionalizedCrystal
_audit_creation_method	'MofGen! by Chris Wilmer'
_symmetry_space_group_name_H-M	'P1'
_symmetry_Int_Tables_number	1
_symmetry_cell_setting	triclinic
loop_
_symmetry_equiv_pos_as_xyz
  x,y,z
_cell_length_a	29.839131
_cell_length_b	29.839134
_cell_length_c	25.639233
_cell_angle_alpha	90.023126
_cell_angle_beta	90.019585
_cell_angle_gamma	90.036281
loop_
_atom_site_label
_atom_site_type_symbol
_atom_site_fract_x
_atom_site_fract_y
_atom_site_fract_z
Zn1	Zn	-0.178970	0.686725	0.295753
Zn2	Zn	-0.254084	0.686655	0.208316
Zn3	Zn	-0.178962	0.611606	0.208315
Zn4	Zn	-0.254067	0.611555	0.295704
O5	O	-0.216521	0.649135	0.252022
O6	O	-0.188944	0.749583	0.284174
O7	O	-0.244123	0.676692	0.135150
O8	O	-0.116096	0.621621	0.219934
O9	O	-0.244130	0.749532	0.219935
O10	O	-0.116101	0.676810	0.284174
O11	O	-0.188931	0.621554	0.135150
O12	O	-0.188914	0.548732	0.219887
O13	O	-0.244101	0.621534	0.368876
O14	O	-0.244093	0.548695	0.284091
O15	O	-0.188927	0.676761	0.368911
O16	O	-0.316949	0.676643	0.219888
O17	O	-0.316936	0.621467	0.284092
C18	C	-0.216502	0.532413	0.251984
C19	C	-0.216504	0.482478	0.251980
C20	C	-0.333243	0.649054	0.251996
C21	C	-0.383178	0.649061	0.252002
C22	C	-0.245295	0.172825	0.285412
C23	C	-0.245307	-0.014848	0.285435
O24	O	-0.269765	-0.039121	0.313838
N25	N	-0.216537	-0.038307	0.252061
C26	C	-0.187759	-0.014844	0.218681
O27	O	-0.163286	-0.039104	0.190299
C28	C	-0.187745	0.172828	0.218661
C29	C	-0.216520	0.196284	0.252034
C30	C	-0.274067	0.196281	0.318782
C31	C	-0.274066	0.243197	0.318774
C32	C	-0.245291	0.266656	0.285396
C33	C	-0.216519	0.243200	0.252026
C34	C	-0.158965	0.196289	0.185284
C35	C	-0.158963	0.243210	0.185283
C36	C	-0.187739	0.266667	0.218656
C37	C	-0.187742	0.313574	0.218639
N38	N	-0.216513	0.337033	0.252013
C39	C	-0.245287	0.313574	0.285391
C40	C	-0.187770	-0.113375	0.218694
C41	C	-0.187774	-0.160293	0.218698
C42	C	-0.245321	-0.160293	0.285453
C43	C	-0.245319	-0.113375	0.285445
C44	C	-0.216540	-0.089916	0.252068
C45	C	-0.245282	0.412100	0.285371
C46	C	-0.245279	0.459019	0.285359
C47	C	-0.187730	0.459016	0.218606
C48	C	-0.187734	0.412100	0.218617
C49	C	-0.216512	0.388643	0.252004
O50	O	-0.163294	0.337876	0.190256
O51	O	-0.269750	0.337841	0.313778
C52	C	-0.245296	0.125910	0.285420
C53	C	-0.216524	0.102453	0.252050
C54	C	-0.187749	0.125912	0.218672
C55	C	-0.216528	0.055535	0.252054
C56	C	-0.245302	0.032076	0.285433
C57	C	-0.274073	0.055535	0.318807
C58	C	-0.274071	0.102450	0.318799
C59	C	-0.158979	0.102454	0.185298
C60	C	-0.158983	0.055538	0.185308
C61	C	-0.187758	0.032079	0.218686
C62	C	-0.692815	0.677918	0.218640
C63	C	-0.880488	0.677973	0.218660
O64	O	-0.904748	0.702444	0.190274
N65	N	-0.903963	0.649228	0.252061
C66	C	-0.880516	0.620470	0.285462
O67	O	-0.904789	0.596026	0.313876
C68	C	-0.692844	0.620417	0.285444
C69	C	-0.669372	0.649160	0.252037
C70	C	-0.669343	0.706659	0.185236
C71	C	-0.622427	0.706643	0.185229
C72	C	-0.598984	0.677886	0.218626
C73	C	-0.622456	0.649145	0.252030
C74	C	-0.669398	0.591661	0.318847
C75	C	-0.622477	0.591652	0.318841
C76	C	-0.599005	0.620395	0.285434
C77	C	-0.552098	0.620372	0.285421
N78	N	-0.528623	0.649116	0.252020
C79	C	-0.552066	0.677873	0.218622
C80	C	-0.979047	0.620499	0.285469
C81	C	-1.025964	0.620512	0.285473
C82	C	-1.025933	0.678015	0.218671
C83	C	-0.979015	0.678000	0.218665
C84	C	-0.955572	0.649244	0.252067
C85	C	-0.453540	0.677837	0.218610
C86	C	-0.406621	0.677818	0.218605
C87	C	-0.406656	0.620316	0.285408
C88	C	-0.453572	0.620334	0.285412
C89	C	-0.477013	0.649098	0.252011
O90	O	-0.527809	0.595917	0.313796
O91	O	-0.527785	0.702321	0.190221
C92	C	-0.739730	0.677933	0.218647
C93	C	-0.763203	0.649192	0.252051
C94	C	-0.739759	0.620435	0.285448
C95	C	-0.810120	0.649205	0.252055
C96	C	-0.833564	0.677962	0.218657
C97	C	-0.810089	0.706706	0.185256
C98	C	-0.763174	0.706691	0.185249
C99	C	-0.763234	0.591691	0.318849
C100	C	-0.810149	0.591708	0.318853
C101	C	-0.833593	0.620466	0.285455
C102	C	-0.099342	0.649229	0.252059
C103	C	-0.049408	0.649269	0.252075
C104	C	-0.216513	0.649150	0.388395
C105	C	-0.216509	0.649156	0.446509
C106	C	-0.216540	0.766314	0.252060
C107	C	-0.216548	0.816248	0.252076
C108	C	-0.216496	0.649147	0.116179
C109	C	-0.216373	0.649228	0.058066
C110	C	-0.187695	0.677949	0.806896
C111	C	-0.187683	0.677955	0.861501
O112	O	-0.163237	0.702399	0.889758
N113	N	-0.216404	0.649206	0.888792
C114	C	-0.245136	0.620446	0.861475
O115	O	-0.269565	0.595993	0.889702
C116	C	-0.245146	0.620438	0.806872
C117	C	-0.216426	0.649192	0.779584
C118	C	-0.158977	0.706700	0.779608
C119	C	-0.158990	0.706695	0.725008
C120	C	-0.187721	0.677939	0.697695
C121	C	-0.216439	0.649187	0.724983
C122	C	-0.273876	0.591677	0.779557
C123	C	-0.273883	0.591672	0.724950
C124	C	-0.245163	0.620426	0.697662
C125	C	-0.245184	0.620426	0.643070
N126	N	-0.216462	0.649175	0.615779
C127	C	-0.187731	0.677931	0.643092
C128	C	-0.245113	0.620463	0.976146
C129	C	-0.245106	0.620473	1.030748
C130	C	-0.187651	0.677981	1.030770
C131	C	-0.187661	0.677973	0.976167
C132	C	-0.216392	0.649212	0.948855
C133	C	-0.187761	0.677919	0.528427
C134	C	-0.187778	0.677912	0.473821
C135	C	-0.245231	0.620403	0.473805
C136	C	-0.245216	0.620411	0.528405
C137	C	-0.216477	0.649170	0.555715
O138	O	-0.269616	0.595992	0.614778
O139	O	-0.163303	0.702376	0.614858
H140	H	-0.268713	0.478115	0.312535
H141	H	-0.688425	0.730079	0.158039
C142	C	-0.162276	0.703439	0.390130
C143	C	-0.156201	0.709515	0.443826
H144	H	-0.142781	0.722949	0.371615
H145	H	-0.155702	0.673261	0.381177
H146	H	-0.192463	0.709996	0.381183
H147	H	-0.126014	0.702955	0.452775
H148	H	-0.162771	0.739700	0.452783
H149	H	-0.164304	0.478124	0.191429
C150	C	-0.130976	0.734768	0.522948
C151	C	-0.156175	0.709534	0.558440
H152	H	-0.111480	0.754289	0.541478
H153	H	-0.113794	0.715205	0.501649
H154	H	-0.150566	0.751929	0.501653
H155	H	-0.136585	0.692371	0.579733
H156	H	-0.173358	0.729100	0.579749
H157	H	-0.603392	0.568235	0.346043
H158	H	-0.135547	0.121549	0.158116
H159	H	-0.959963	0.597081	0.312670
C160	C	-0.251371	0.560012	0.914729
C161	C	-0.276703	0.588851	0.946130
H162	H	-0.270874	0.540495	0.896204
H163	H	-0.234274	0.577130	0.890659
H164	H	-0.231791	0.542848	0.936033
H165	H	-0.296281	0.606017	0.924826
H166	H	-0.293807	0.571731	0.970203
H167	H	-0.959906	0.701406	0.191462
H168	H	-0.297263	0.568262	0.801765
C169	C	-0.251334	0.560046	1.092135
C170	C	-0.276681	0.588873	1.060744
H171	H	-0.270828	0.540539	1.110654
H172	H	-0.231768	0.542874	1.070831
H173	H	-0.234222	0.577176	1.116216
H174	H	-0.293790	0.571743	1.036660
H175	H	-0.296255	0.606046	1.082050
C176	C	-0.608006	0.728586	0.096722
C177	C	-0.596633	0.738245	0.148512
H178	H	-0.592086	0.748101	0.074056
H179	H	-0.600340	0.698410	0.089029
H180	H	-0.639306	0.732705	0.091957
H181	H	-0.565333	0.734123	0.153278
H182	H	-0.604296	0.768428	0.156207
H183	H	-0.268714	0.393007	0.312559
C184	C	-0.102195	0.763533	0.730531
C185	C	-0.127415	0.738298	0.695017
H186	H	-0.082698	0.783041	0.712017
H187	H	-0.121768	0.780705	0.751827
H188	H	-0.085009	0.743967	0.751827
H189	H	-0.144603	0.757863	0.673724
H190	H	-0.107839	0.721125	0.673712
C191	C	-0.330950	0.097723	0.384784
C192	C	-0.305698	0.128229	0.355487
H193	H	-0.350474	0.113636	0.407438
H194	H	-0.348105	0.079405	0.361968
H195	H	-0.311395	0.079441	0.404822
H196	H	-0.325253	0.146508	0.335446
H197	H	-0.288542	0.146554	0.378306
C198	C	-0.280136	0.531221	0.663531
C199	C	-0.305469	0.560056	0.694934
H200	H	-0.299638	0.511702	0.645006
H201	H	-0.263042	0.548341	0.639461
H202	H	-0.260554	0.514058	0.684833
H203	H	-0.325049	0.577222	0.673632
H204	H	-0.322571	0.542934	0.719007
H205	H	-0.135578	0.730117	0.801840
H206	H	-0.688501	0.568253	0.346049
H207	H	-1.045029	0.701431	0.191478
H208	H	-0.135552	0.036444	0.158127
H209	H	-0.268606	0.597001	0.550624
C210	C	-0.448887	0.563495	0.351445
C211	C	-0.479375	0.588739	0.322133
H212	H	-0.464816	0.543995	0.374120
H213	H	-0.430618	0.546316	0.328640
H214	H	-0.430556	0.583056	0.371461
H215	H	-0.497704	0.569178	0.302114
H216	H	-0.497652	0.605920	0.344941
C217	C	-0.130870	0.734816	0.981685
C218	C	-0.156088	0.709577	0.946174
H219	H	-0.111375	0.754325	0.963170
H220	H	-0.150444	0.751987	1.002981
H221	H	-0.113682	0.715253	1.002982
H222	H	-0.173278	0.729140	0.924880
H223	H	-0.136511	0.692405	0.924870
C224	C	-0.162117	0.703511	1.114488
C225	C	-0.156062	0.709584	1.060799
H226	H	-0.142613	0.723018	1.133026
H227	H	-0.192296	0.710069	1.123432
H228	H	-0.155541	0.673328	1.123416
H229	H	-0.162641	0.739766	1.051870
H230	H	-0.125875	0.703030	1.051851
C231	C	-0.270748	0.594860	0.390087
C232	C	-0.276809	0.588792	0.443775
H233	H	-0.290240	0.575341	0.371548
H234	H	-0.277334	0.625035	0.381152
H235	H	-0.240561	0.588313	0.381149
H236	H	-0.306995	0.595343	0.452714
H237	H	-0.270226	0.558611	0.452714
C238	C	-0.334744	0.594772	0.315059
C239	C	-0.380881	0.588709	0.322120
H240	H	-0.318832	0.575263	0.337728
H241	H	-0.327078	0.588212	0.279925
H242	H	-0.327032	0.624953	0.322744
H243	H	-0.388594	0.558529	0.314432
H244	H	-0.388550	0.595267	0.357262
C245	C	-0.270869	-0.232219	0.315101
C246	C	-0.276948	-0.186086	0.322147
H247	H	-0.290389	-0.248143	0.337758
H248	H	-0.277405	-0.239923	0.279963
H249	H	-0.240691	-0.239880	0.322811
H250	H	-0.307125	-0.178425	0.314433
H251	H	-0.270414	-0.178379	0.357293
C252	C	-0.767870	0.763532	0.119224
C253	C	-0.737377	0.738290	0.148531
H254	H	-0.751946	0.783043	0.096557
H255	H	-0.786193	0.743974	0.099204
H256	H	-0.786147	0.780704	0.142037
H257	H	-0.719103	0.721115	0.125718
H258	H	-0.719046	0.757850	0.168552
H259	H	-0.387511	0.701224	0.191399
C260	C	-0.710456	0.585379	0.389171
C261	C	-0.737471	0.560076	0.355561
H262	H	-0.694556	0.565858	0.411838
H263	H	-0.689759	0.602488	0.369281
H264	H	-0.728736	0.604947	0.409196
H265	H	-0.719190	0.540510	0.335534
H266	H	-0.758171	0.542959	0.375454
H267	H	-0.297499	0.177186	0.345966
H268	H	-0.297497	0.262291	0.345950
H269	H	-0.268750	-0.094280	0.312621
H270	H	-1.045072	0.597102	0.312671
C271	C	-0.448784	0.734671	0.152573
C272	C	-0.479302	0.709452	0.181892
H273	H	-0.464689	0.754184	0.129901
H274	H	-0.430462	0.751835	0.175373
H275	H	-0.430509	0.715094	0.132553
H276	H	-0.497575	0.729028	0.201915
H277	H	-0.497632	0.692286	0.159089
C278	C	-0.882001	0.732278	0.155636
C279	C	-0.835864	0.738332	0.148562
H280	H	-0.897914	0.751808	0.132992
H281	H	-0.889724	0.702108	0.147929
H282	H	-0.889655	0.738819	0.190783
H283	H	-0.828210	0.731787	0.113415
H284	H	-0.828138	0.768509	0.156265
C285	C	-0.181454	-0.213065	0.148369
C286	C	-0.156152	-0.186067	0.181998
H287	H	-0.161931	-0.228972	0.125708
H288	H	-0.198581	-0.233757	0.168246
H289	H	-0.201005	-0.194773	0.128339
H290	H	-0.136603	-0.204360	0.202030
H291	H	-0.139018	-0.165373	0.162119
H292	H	-0.135534	0.177199	0.158107
C293	C	-0.130890	-0.118097	0.152707
C294	C	-0.156136	-0.087593	0.181998
H295	H	-0.111363	-0.102181	0.130050
H296	H	-0.113738	-0.136376	0.175527
H297	H	-0.150448	-0.136417	0.132674
H298	H	-0.136578	-0.069276	0.202035
H299	H	-0.173289	-0.069307	0.159175
C300	C	-0.102081	0.238495	0.119298
C301	C	-0.127332	0.268995	0.148587
H302	H	-0.082557	0.254413	0.096640
H303	H	-0.084926	0.220219	0.142118
H304	H	-0.121636	0.220172	0.099264
H305	H	-0.107777	0.287316	0.168624
H306	H	-0.144488	0.287279	0.125764
H307	H	-0.164304	0.393001	0.191441
H308	H	-0.297503	0.036426	0.345983
H309	H	-0.829256	0.568298	0.346056
