data_functionalizedCrystal
_audit_creation_method	'MofGen! by Chris Wilmer'
_symmetry_space_group_name_H-M	'P1'
_symmetry_Int_Tables_number	1
_symmetry_cell_setting	triclinic
loop_
_symmetry_equiv_pos_as_xyz
  x,y,z
_cell_length_a	13.897448
_cell_length_b	12.759395
_cell_length_c	12.759387
_cell_angle_alpha	89.980569
_cell_angle_beta	89.967288
_cell_angle_gamma	90.017538
loop_
_atom_site_label
_atom_site_type_symbol
_atom_site_fract_x
_atom_site_fract_y
_atom_site_fract_z
Zn1	Zn	-0.383968	1.606247	-0.593961
Zn2	Zn	-0.545296	1.606128	-0.418275
Zn3	Zn	-0.384016	1.430545	-0.418301
Zn4	Zn	-0.545222	1.430528	-0.593918
O5	O	-0.464625	1.518362	-0.506114
O6	O	-0.405379	1.753252	-0.570663
O7	O	-0.523952	1.582794	-0.271258
O8	O	-0.249028	1.453909	-0.441631
O9	O	-0.523906	1.753165	-0.441588
O10	O	-0.248993	1.582996	-0.570688
O11	O	-0.405461	1.453794	-0.271276
O12	O	-0.405390	1.283522	-0.441590
O13	O	-0.523781	1.453880	-0.740945
O14	O	-0.523827	1.283509	-0.570615
O15	O	-0.405308	1.582980	-0.740976
O16	O	-0.680268	1.582778	-0.441546
O17	O	-0.680214	1.453765	-0.570590
C18	C	-0.464606	1.245395	-0.506101
C19	C	-0.464621	1.128618	-0.506120
C20	C	-0.341399	1.128689	-0.640744
C21	C	-0.279799	1.073864	-0.708064
C22	C	-0.279817	0.964143	-0.708077
C23	C	-0.341438	0.909244	-0.640760
C24	C	-0.403037	0.964069	-0.573440
C25	C	-0.403016	1.073793	-0.573437
C26	C	-0.526253	0.963997	-0.438813
C27	C	-0.526243	1.073719	-0.438804
C28	C	-0.587875	0.909098	-0.371497
C29	C	-0.649480	0.963923	-0.304180
C30	C	-0.649462	1.073652	-0.304171
C31	C	-0.587842	1.128544	-0.371484
C32	C	-0.715240	1.518285	-0.506083
C33	C	-0.822454	1.518349	-0.506106
C34	C	-1.018749	1.518459	-0.506171
C35	C	-0.909516	1.518395	-0.506138
C36	C	-0.213032	1.518468	-0.506167
C37	C	-0.105819	1.518513	-0.506190
C38	C	-0.464531	1.518441	-0.780147
C39	C	-0.464491	1.518475	-0.896924
C40	C	-0.464645	1.792395	-0.506127
C41	C	-0.464654	1.909172	-0.506133
C42	C	-0.341133	1.652916	-0.896977
C43	C	-0.279440	1.720151	-0.951864
C44	C	-0.279405	1.720176	-1.061586
C45	C	-0.341067	1.652958	-1.116423
C46	C	-0.402761	1.585723	-1.061536
C47	C	-0.402791	1.585707	-0.951811
C48	C	-0.526112	1.451278	-1.061483
C49	C	-0.526153	1.451256	-0.951761
C50	C	-0.587775	1.384059	-1.116320
C51	C	-0.649474	1.316828	-1.061433
C52	C	-0.649508	1.316806	-0.951704
C53	C	-0.587847	1.384021	-0.896874
C54	C	-0.464650	1.518343	-0.233146
C55	C	-0.464419	1.518513	-0.116370
H56	H	-0.699643	0.919216	-0.249372
C57	C	-0.365614	1.752915	-1.273613
C58	C	-0.341025	1.652978	-1.237031
H59	H	-0.365593	1.752922	-1.348072
H60	H	-0.320061	1.802553	-1.248814
H61	H	-0.427873	1.771037	-1.248776
H62	H	-0.278763	1.634859	-1.261862
H63	H	-0.386580	1.603324	-1.261841
C64	C	-0.771265	1.062550	-0.171099
C65	C	-0.717179	1.133911	-0.230173
H66	H	-0.813075	1.099751	-0.125421
H67	H	-0.729196	1.019749	-0.131000
H68	H	-0.808216	1.019763	-0.216815
H69	H	-0.680222	1.176694	-0.184457
H70	H	-0.759253	1.176730	-0.270274
C71	C	-0.679497	1.410817	-1.273470
C72	C	-0.587740	1.384084	-1.236928
H73	H	-0.679477	1.410826	-1.347929
H74	H	-0.696186	1.478595	-1.248655
H75	H	-0.725053	1.361147	-1.248621
H76	H	-0.542185	1.433759	-1.261771
H77	H	-0.571040	1.316296	-1.261754
H78	H	-0.587816	1.217885	-0.371477
H79	H	-0.699735	1.262044	-0.907022
C80	C	-0.157502	1.853050	-0.962936
C81	C	-0.211661	1.794036	-0.891587
H82	H	-0.115654	1.898657	-0.925724
H83	H	-0.199523	1.893222	-1.005723
H84	H	-0.120587	1.807292	-1.005737
H85	H	-0.248581	1.839794	-0.848791
H86	H	-0.169635	1.753861	-0.848782
H87	H	-0.341165	1.652912	-0.807636
C88	C	-0.149622	1.734862	-1.185018
C89	C	-0.211589	1.794079	-1.121923
H90	H	-0.107753	1.780487	-1.222262
H91	H	-0.186344	1.694846	-1.233370
H92	H	-0.112733	1.689102	-1.142207
H93	H	-0.248484	1.839833	-1.164736
H94	H	-0.174864	1.834112	-1.073565
H95	H	-0.699670	1.262098	-1.106090
C96	C	-0.655072	1.310813	-0.739665
C97	C	-0.587897	1.384013	-0.776266
H98	H	-0.655107	1.310819	-0.665206
H99	H	-0.638364	1.243034	-0.764462
H100	H	-0.717308	1.328954	-0.764491
H101	H	-0.525660	1.365868	-0.751446
H102	H	-0.604600	1.451807	-0.751458
C103	C	-0.274295	1.285905	-0.714037
C104	C	-0.341384	1.249297	-0.640737
H105	H	-0.274283	1.360364	-0.714028
H106	H	-0.291064	1.261109	-0.781792
H107	H	-0.212033	1.261083	-0.695989
H108	H	-0.403648	1.274113	-0.658790
H109	H	-0.324620	1.274104	-0.572968
C110	C	-0.433248	0.752061	-0.667366
C111	C	-0.341453	0.788636	-0.640767
H112	H	-0.433257	0.677602	-0.667362
H113	H	-0.449991	0.776902	-0.735124
H114	H	-0.478748	0.776862	-0.617636
H115	H	-0.295953	0.763841	-0.690501
H116	H	-0.324699	0.763784	-0.572998
H117	H	-0.229627	1.118575	-0.762869
H118	H	-0.229651	0.919504	-0.762888
H119	H	-0.587882	0.819757	-0.371509
