data_functionalizedCrystal
_audit_creation_method	'MofGen! by Chris Wilmer'
_symmetry_space_group_name_H-M	'P1'
_symmetry_Int_Tables_number	1
_symmetry_cell_setting	triclinic
loop_
_symmetry_equiv_pos_as_xyz
  x,y,z
_cell_length_a	12.759401
_cell_length_b	29.839131
_cell_length_c	12.759393
_cell_angle_alpha	89.961905
_cell_angle_beta	89.982620
_cell_angle_gamma	90.041581
loop_
_atom_site_label
_atom_site_type_symbol
_atom_site_fract_x
_atom_site_fract_y
_atom_site_fract_z
Zn1	Zn	1.606049	-0.178824	-0.593935
Zn2	Zn	1.605865	-0.253963	-0.418236
Zn3	Zn	1.430354	-0.178848	-0.418275
Zn4	Zn	1.430257	-0.253928	-0.593877
O5	O	1.518131	-0.216391	-0.506081
O6	O	1.753045	-0.188796	-0.570636
O7	O	1.582546	-0.244023	-0.271220
O8	O	1.453778	-0.115978	-0.441617
O9	O	1.752910	-0.244000	-0.441551
O10	O	1.582860	-0.115960	-0.570674
O11	O	1.453599	-0.188837	-0.271248
O12	O	1.283320	-0.188803	-0.441561
O13	O	1.453613	-0.243941	-0.740906
O14	O	1.283249	-0.243964	-0.570575
O15	O	1.582766	-0.188762	-0.740949
O16	O	1.582452	-0.316825	-0.441495
O17	O	1.453435	-0.316800	-0.570538
C18	C	1.245164	-0.216382	-0.506066
C19	C	1.128387	-0.216390	-0.506085
C20	C	1.073516	-0.245158	-0.573152
C21	C	0.963792	-0.245164	-0.573163
C22	C	0.963820	-0.187631	-0.439032
C23	C	1.073542	-0.187624	-0.439027
C24	C	1.128361	-0.273924	-0.640210
C25	C	1.073489	-0.302695	-0.707282
C26	C	0.963765	-0.302701	-0.707293
C27	C	0.908912	-0.273935	-0.640233
C28	C	1.517942	-0.333113	-0.506029
C29	C	1.517956	-0.383048	-0.506041
C30	C	1.585433	-0.692692	-0.438986
C31	C	1.585563	-0.880365	-0.439027
O32	O	1.642783	-0.904630	-0.381974
N33	N	1.518349	-0.903833	-0.506160
C34	C	1.451103	-0.880379	-0.573292
O35	O	1.393945	-0.904647	-0.630402
C36	C	1.450980	-0.692707	-0.573256
C37	C	1.518190	-0.669242	-0.506111
C38	C	1.652639	-0.669226	-0.371848
C39	C	1.652602	-0.622311	-0.371834
C40	C	1.585359	-0.598861	-0.438959
C41	C	1.518153	-0.622326	-0.506098
C42	C	1.383740	-0.669255	-0.640393
C43	C	1.383717	-0.622334	-0.640380
C44	C	1.450927	-0.598868	-0.573235
C45	C	1.450873	-0.551961	-0.573209
N46	N	1.518086	-0.528493	-0.506076
C47	C	1.585329	-0.551943	-0.438951
C48	C	1.451171	-0.978910	-0.573305
C49	C	1.451201	-1.025828	-0.573313
C50	C	1.585662	-1.025810	-0.439049
C51	C	1.585626	-0.978891	-0.439036
C52	C	1.518385	-0.955442	-0.506172
C53	C	1.585246	-0.453417	-0.438927
C54	C	1.585199	-0.406498	-0.438916
C55	C	1.450743	-0.406520	-0.573184
C56	C	1.450784	-0.453435	-0.573191
C57	C	1.518044	-0.476883	-0.506059
O58	O	1.393691	-0.527667	-0.630240
O59	O	1.642496	-0.527668	-0.381867
C60	C	1.585470	-0.739607	-0.439000
C61	C	1.518264	-0.763073	-0.506138
C62	C	1.451021	-0.739623	-0.573263
C63	C	1.518294	-0.809991	-0.506146
C64	C	1.585537	-0.833440	-0.439021
C65	C	1.652750	-0.809972	-0.371888
C66	C	1.652713	-0.763057	-0.371875
C67	C	1.383808	-0.763091	-0.640396
C68	C	1.383850	-0.810006	-0.640404
C69	C	1.451093	-0.833456	-0.573279
C70	C	1.792164	-0.216399	-0.506096
C71	C	1.908941	-0.216403	-0.506102
C72	C	1.518199	-0.216345	-0.780114
C73	C	1.518229	-0.216325	-0.896891
C74	C	1.518350	-0.099212	-0.506156
C75	C	1.518444	-0.049278	-0.506188
C76	C	1.451114	-0.187584	-0.951774
C77	C	1.451146	-0.187571	-1.061498
C78	C	1.585415	-0.245041	-1.061447
C79	C	1.585377	-0.245056	-0.951725
C80	C	1.383966	-0.158854	-0.896940
C81	C	1.316847	-0.130110	-0.951823
C82	C	1.316879	-0.130097	-1.061547
C83	C	1.384029	-0.158827	-1.116388
C84	C	1.518124	-0.216404	-0.233113
C85	C	1.518298	-0.216297	-0.116337
H86	H	1.118157	-0.326112	-0.761886
C87	C	1.257182	-0.104610	-0.783649
C88	C	1.243036	-0.098531	-0.891546
H89	H	1.211616	-0.085112	-0.746440
H90	H	1.241739	-0.134793	-0.765645
H91	H	1.327783	-0.098040	-0.765684
H92	H	1.172436	-0.105105	-0.909511
H93	H	1.258472	-0.068342	-0.909557
C94	C	1.718533	-0.983597	-0.306324
C95	C	1.659512	-0.953100	-0.365236
H96	H	1.764153	-0.967675	-0.260767
H97	H	1.672787	-1.001926	-0.266104
H98	H	1.758700	-1.001867	-0.352150
H99	H	1.619339	-0.934833	-0.319410
H100	H	1.705264	-0.934763	-0.405458
H101	H	1.640414	-1.044911	-0.384393
H102	H	1.262221	-0.106695	-1.106230
C103	C	1.318297	-1.021121	-0.706030
C104	C	1.377315	-1.051618	-0.647115
H105	H	1.272691	-1.037043	-0.751601
H106	H	1.278126	-1.002856	-0.660215
H107	H	1.364054	-1.002788	-0.746245
H108	H	1.331558	-1.069950	-0.606894
H109	H	1.417489	-1.069891	-0.692936
H110	H	1.395991	-0.387419	-0.627834
C111	C	1.250895	-0.767831	-0.773093
C112	C	1.309878	-0.737319	-0.714177
H113	H	1.205242	-0.751921	-0.818635
H114	H	1.296662	-0.786093	-0.813328
H115	H	1.210764	-0.786167	-0.727268
H116	H	1.350015	-0.718985	-0.760001
H117	H	1.264105	-0.719049	-0.673939
C118	C	0.795634	-0.162106	-0.379469
C119	C	0.903528	-0.156021	-0.365308
H120	H	0.758416	-0.142594	-0.333945
H121	H	0.777688	-0.155564	-0.450078
H122	H	0.777625	-0.192288	-0.363971
H123	H	0.921539	-0.125840	-0.380814
H124	H	0.921482	-0.162560	-0.294684
H125	H	0.819568	-0.273938	-0.640257
H126	H	1.640088	-0.268431	-1.106107
H127	H	1.384047	-0.158815	-1.205733
H128	H	1.383934	-0.158860	-0.807597
H129	H	1.118220	-0.164195	-0.384423
C130	C	1.718099	-0.301862	-0.962686
C131	C	1.659146	-0.276650	-0.891389
H132	H	1.763641	-0.321367	-0.925435
H133	H	1.672306	-0.319035	-1.005472
H134	H	1.758347	-0.282281	-1.005494
H135	H	1.618893	-0.296231	-0.848586
H136	H	1.704946	-0.259475	-0.848585
H137	H	0.919091	-0.326124	-0.761913
C138	C	1.718119	-0.411200	-0.306203
C139	C	1.659087	-0.380705	-0.365110
H140	H	1.763736	-0.395277	-0.260647
H141	H	1.672380	-0.429532	-0.265984
H142	H	1.758289	-0.429467	-0.352033
H143	H	1.618911	-0.362440	-0.319280
H144	H	1.704832	-0.362365	-0.405333
C145	C	1.726660	-0.506101	-0.424466
C146	C	1.659194	-0.479181	-0.365142
H147	H	1.772318	-0.522003	-0.378912
H148	H	1.686647	-0.526798	-0.464427
H149	H	1.766784	-0.487758	-0.470281
H150	H	1.619065	-0.497525	-0.319332
H151	H	1.699212	-0.458481	-0.325163
H152	H	1.396060	-0.472542	-0.627869
C153	C	1.785525	-0.664483	-0.239125
C154	C	1.726555	-0.694997	-0.298048
H155	H	1.831151	-0.680392	-0.193553
H156	H	1.825674	-0.646155	-0.284936
H157	H	1.739740	-0.646213	-0.198911
H158	H	1.772340	-0.713265	-0.338268
H159	H	1.686403	-0.713333	-0.252232
H160	H	1.217703	-0.273923	-0.640207
H161	H	1.707333	-0.603208	-0.317162
H162	H	1.396413	-0.959821	-0.627977
H163	H	1.329005	-0.688353	-0.695065
H164	H	1.707442	-0.743955	-0.317199
H165	H	1.707499	-0.829074	-0.317230
C166	C	1.332438	-0.607858	-0.818245
C167	C	1.309802	-0.596559	-0.714180
H168	H	1.286801	-0.591948	-0.863803
H169	H	1.403006	-0.600129	-0.833667
H170	H	1.322840	-0.639160	-0.827844
H171	H	1.319407	-0.565257	-0.704579
H172	H	1.239217	-0.604285	-0.698754
C173	C	1.369215	-0.862722	-0.781741
C174	C	1.309967	-0.835797	-0.714218
H175	H	1.323608	-0.878644	-0.827309
H176	H	1.414949	-0.844382	-0.821948
H177	H	1.409257	-0.883405	-0.741757
H178	H	1.269930	-0.815112	-0.754202
H179	H	1.264214	-0.854138	-0.674007
