data_functionalizedCrystal
_audit_creation_method	'MofGen! by Chris Wilmer'
_symmetry_space_group_name_H-M	'P1'
_symmetry_Int_Tables_number	1
_symmetry_cell_setting	triclinic
loop_
_symmetry_equiv_pos_as_xyz
  x,y,z
_cell_length_a	20.875621
_cell_length_b	21.606444
_cell_length_c	21.606444
_cell_angle_alpha	60.001331
_cell_angle_beta	87.030131
_cell_angle_gamma	58.314225
loop_
_atom_site_label
_atom_site_type_symbol
_atom_site_fract_x
_atom_site_fract_y
_atom_site_fract_z
Zr1	Zr	0.617924	0.677455	-0.112152
O2	O	0.515495	0.806577	-0.205844
O3	O	0.649324	0.548335	-0.083434
O4	O	0.649316	0.677459	-0.212552
O5	O	0.515509	0.677448	0.025127
O6	O	0.754875	0.677460	-0.217839
O7	O	0.515504	0.677453	-0.076726
O8	O	0.754890	0.446481	0.013130
O9	O	0.515494	0.908427	-0.205841
O10	O	0.741493	0.601443	-0.075128
O11	O	0.662719	0.601440	0.004831
O12	O	0.662710	0.753466	-0.147189
O13	O	0.583936	0.753463	-0.067231
Zr14	Zr	0.786287	0.677449	0.041860
Zr15	Zr	0.786278	0.677456	-0.120585
Zr16	Zr	0.617932	0.677448	0.050293
Zr17	Zr	0.617922	0.839895	-0.112147
Zr18	Zr	0.786288	0.515008	0.041855
O19	O	0.754886	0.806568	0.013141
O20	O	0.754874	0.806578	-0.217835
O21	O	0.515507	0.806567	0.025132
O22	O	0.888715	0.548327	0.135552
O23	O	0.888703	0.548337	-0.095424
O24	O	0.649336	0.548325	0.147542
O25	O	0.888701	0.677455	-0.095420
O26	O	0.754894	0.677444	0.142259
O27	O	0.649335	0.677444	0.147547
O28	O	0.888707	0.677451	0.006434
O29	O	0.649314	0.908428	-0.212544
O30	O	0.754897	0.446475	0.142252
O31	O	0.888716	0.446476	0.135549
O32	O	0.888709	0.446481	0.006427
O33	O	0.515501	0.908422	-0.076719
O34	O	0.649320	0.908423	-0.083422
O35	O	0.741501	0.601437	0.076897
O36	O	0.820274	0.601441	-0.003061
O37	O	0.741491	0.753464	-0.075123
O38	O	0.662718	0.753460	0.004836
C39	C	0.702107	0.474264	-0.035153
C40	C	0.702108	0.405303	-0.035155
C41	C	0.491519	0.677450	-0.024598
C42	C	0.420048	0.677450	-0.021018
C43	C	0.743225	0.372908	-0.076893
C44	C	0.743228	0.308108	-0.076889
C45	C	0.702109	0.275709	-0.035149
C46	C	0.660990	0.308107	0.006595
C47	C	0.660992	0.372902	0.006593
C48	C	0.660981	0.046798	0.006601
C49	C	0.660980	-0.017999	0.006598
C50	C	0.743217	-0.017996	-0.076880
C51	C	0.743219	0.046799	-0.076882
C52	C	0.702104	0.079188	-0.035136
C53	C	0.702103	0.149450	-0.035140
C54	C	0.702105	0.205452	-0.035148
C55	C	0.386468	0.677455	-0.075450
C56	C	0.319316	0.677450	-0.072082
C57	C	0.285742	0.677447	-0.014286
C58	C	0.319329	0.677439	0.040151
C59	C	0.386483	0.677438	0.036786
C60	C	0.084903	0.677445	0.001798
C61	C	0.017742	0.677449	0.005158
C62	C	0.017735	0.677458	-0.107076
C63	C	0.084888	0.677461	-0.110438
C64	C	0.118471	0.677450	-0.055999
N65	N	0.217100	0.677444	-0.010844
N66	N	0.187115	0.677445	-0.059439
C67	C	0.912691	0.677453	-0.045694
C68	C	0.984162	0.677453	-0.049274
C69	C	0.702094	0.677460	-0.238340
C70	C	0.702091	0.677463	-0.307302
C71	C	0.702103	0.880640	-0.035139
C72	C	0.702102	0.949600	-0.035137
C73	C	0.660966	0.756817	-0.377316
C74	C	0.660973	0.756815	-0.442112
C75	C	0.702100	0.677458	-0.436891
C76	C	0.743230	0.598098	-0.366870
C77	C	0.743227	0.598101	-0.302076
C78	C	0.743242	0.598082	-0.628173
C79	C	0.743240	0.598085	-0.692974
C80	C	0.660988	0.756796	-0.768209
C81	C	0.660986	0.756800	-0.703415
C82	C	0.702118	0.677440	-0.633400
C83	C	0.702112	0.677444	-0.563142
C84	C	0.702103	0.677453	-0.507147
C85	C	0.702116	0.677443	0.168048
C86	C	0.702119	0.677440	0.237010
C87	C	0.912693	0.474265	-0.045701
C88	C	0.984165	0.405305	-0.049283
C89	C	0.702118	0.474255	0.168041
C90	C	0.702122	0.405292	0.237001
C91	C	0.912704	0.474256	0.157493
C92	C	0.984179	0.405293	0.222873
C93	C	0.491506	0.880647	-0.227785
C94	C	0.420031	0.949610	-0.293165
C95	C	0.491517	0.880638	-0.024591
C96	C	0.420045	0.949598	-0.021009
C97	C	0.702092	0.880648	-0.238333
C98	C	0.702088	0.949612	-0.307293
C99	C	0.976606	0.372922	-0.088590
C100	C	1.043754	0.308136	-0.091971
C101	C	1.118462	0.275730	-0.056040
C102	C	1.126019	0.308119	-0.016731
C103	C	1.058871	0.372908	-0.013356
C104	C	0.743248	0.372905	0.307010
C105	C	0.743249	0.308115	0.371812
C106	C	0.702129	0.275710	0.366602
C107	C	0.660999	0.308104	0.296586
C108	C	0.660993	0.372896	0.231786
C109	C	1.058871	0.372910	0.211839
C110	C	1.126036	0.308121	0.273263
C111	C	1.118508	0.275713	0.345722
C112	C	1.043808	0.308103	0.356756
C113	C	0.976645	0.372895	0.295332
C114	C	0.345340	0.982001	-0.282131
C115	C	0.278174	1.046810	-0.343556
C116	C	0.285703	1.079222	-0.416015
C117	C	0.360402	1.046828	-0.427048
C118	C	0.427566	0.982025	-0.365624
C119	C	0.427605	0.981988	0.018291
C120	C	0.360456	1.046792	0.021654
C121	C	0.285749	1.079200	-0.014279
C122	C	0.278191	1.046808	-0.053585
C123	C	0.345339	0.982010	-0.056951
C124	C	0.743216	0.981996	-0.302060
C125	C	0.743227	1.046786	-0.366850
C126	C	0.702105	1.079194	-0.436872
C127	C	0.660976	1.046803	-0.442104
C128	C	0.660970	0.982010	-0.377315
H129	H	0.776706	0.399286	-0.110886
H130	H	0.217355	1.073205	-0.082840
F131	F	0.617187	0.947557	-0.382896
H132	H	0.339173	0.955640	-0.088952
H133	H	0.627514	0.281719	0.040584
F134	F	0.786977	0.273646	-0.121325
H135	H	0.627508	0.399280	0.040579
H136	H	0.702139	0.222952	0.419372
H137	H	0.112239	0.677437	0.046123
H138	H	0.217358	1.073175	-0.334557
H139	H	1.065037	0.399266	0.018657
H140	H	0.776702	0.955619	-0.245051
H141	H	0.339195	0.955615	-0.223136
F142	F	0.787000	1.081251	-0.361266
F143	F	0.617202	0.841274	-0.516625
F144	F	-0.018009	0.677467	-0.165009
F145	F	0.787004	0.513642	-0.227561
F146	F	0.617226	0.081258	0.051034
F147	F	-0.017986	0.677447	0.066676
F148	F	0.507108	0.947510	0.056538
F149	F	0.702117	1.148155	-0.505820
H150	H	0.627520	0.281710	0.292356
H151	H	0.627471	0.821439	-0.381576
H152	H	1.173203	0.222955	0.395731
H153	H	0.231008	1.131989	-0.466024
H154	H	0.366523	1.073226	-0.486051
F155	F	0.617203	0.841262	-0.708977
F156	F	0.422190	0.677464	-0.136969
F157	F	0.368516	1.081251	0.063492
F158	F	0.787019	0.407378	0.312571
H159	H	0.627498	0.821415	-0.825225
F160	F	0.617208	1.081309	-0.516632
F161	F	0.787029	0.273649	0.446321
F162	F	0.786980	0.081280	-0.121310
H163	H	0.776720	0.533484	-0.362624
H164	H	0.627494	-0.044377	0.040590
F165	F	0.283577	0.677453	-0.130014
H166	H	0.231079	1.131963	-0.011532
H167	H	0.112222	0.677464	-0.157501
F168	F	1.205529	0.273658	0.261505
H169	H	0.627507	0.399258	0.174784
F170	F	0.507056	0.947553	-0.377379
H171	H	0.291992	0.677431	0.087214
F172	F	0.787016	0.513618	-0.687412
F173	F	0.422223	0.677429	0.094722
F174	F	1.066901	0.407393	0.134727
F175	F	0.786978	-0.052475	-0.121308
F176	F	1.035808	0.273602	0.433878
H177	H	1.037585	0.281773	-0.123979
F178	F	0.897103	0.407402	-0.126839
F179	F	0.786993	0.513621	-0.553664
H180	H	1.186855	0.281724	0.012522
F181	F	1.189920	0.206774	-0.059638
H182	H	0.915830	0.399253	0.304327
