data_functionalizedCrystal
_audit_creation_method	'MofGen! by Chris Wilmer'
_symmetry_space_group_name_H-M	'P1'
_symmetry_Int_Tables_number	1
_symmetry_cell_setting	triclinic
loop_
_symmetry_equiv_pos_as_xyz
  x,y,z
_cell_length_a	14.044191
_cell_length_b	14.044220
_cell_length_c	12.376994
_cell_angle_alpha	77.678100
_cell_angle_beta	102.333574
_cell_angle_gamma	93.190327
loop_
_atom_site_label
_atom_site_type_symbol
_atom_site_fract_x
_atom_site_fract_y
_atom_site_fract_z
O1	O	1.260415	0.246929	-0.093950
O2	O	0.983740	0.238619	-0.093965
O3	O	1.117927	0.104436	-0.093947
O4	O	1.126228	0.381111	-0.093968
O5	O	1.151446	0.070955	0.094054
O6	O	1.017260	0.205138	0.094036
O7	O	1.293935	0.213448	0.094050
Zn8	Zn	1.160919	0.203977	0.123892
Zn9	Zn	1.116755	0.248089	-0.123807
O10	O	1.159748	0.347630	0.094032
C11	C	0.964878	0.218242	0.000034
C12	C	0.858734	0.207395	0.000029
C13	C	1.131051	0.052073	0.000054
C14	C	1.120206	-0.054070	0.000055
C15	C	0.613276	0.264495	0.000036
C16	C	0.664403	0.187578	0.000040
C17	C	0.772538	0.198607	0.000034
C18	C	0.505131	0.253467	0.000042
C19	C	1.100377	-0.248405	0.000037
C20	C	1.177292	-0.299533	0.000038
C21	C	1.166258	-0.407668	0.000028
C22	C	1.111409	-0.140260	0.000047
C23	C	1.312797	0.233825	0.000049
C24	C	1.418939	0.244673	0.000047
C25	C	1.146623	0.399993	0.000029
C26	C	1.157467	0.506138	0.000021
N27	N	1.191067	0.173871	0.292939
C28	C	1.261052	0.103935	0.352099
C29	C	1.282148	0.082836	0.470431
C30	C	1.233267	0.131676	0.529616
C31	C	1.163285	0.201618	0.470456
C32	C	1.142181	0.222714	0.352112
C33	C	1.114396	0.250455	0.529629
C34	C	1.044415	0.320397	0.470469
C35	C	1.023315	0.341490	0.352137
C36	C	1.072196	0.292650	0.292953
C37	C	1.135500	0.229359	0.647973
C38	C	1.016630	0.348138	0.647986
C39	C	0.995533	0.369237	0.529654
N40	N	1.086615	0.278202	0.707146
H41	H	0.650716	0.338623	0.000026
H42	H	1.251413	-0.262079	-0.000034
O43	O	1.012019	-0.293223	0.000088
C44	C	1.020534	-0.392775	0.000054
H45	H	1.099445	-0.416072	0.035639
H46	H	0.971521	-0.437928	0.054639
H47	H	0.997522	-0.404824	-0.090140
H48	H	1.192479	0.172411	0.696130
O49	O	1.253910	0.111100	0.644563
C50	C	1.326142	0.038879	0.684088
H51	H	1.369443	0.039223	0.615889
H52	H	1.377319	0.054624	0.763259
H53	H	1.290074	-0.035609	0.705078
O54	O	1.308536	0.056686	0.294434
C55	C	1.274918	0.090322	0.177302
H56	H	1.242681	0.166024	0.161184
H57	H	1.338335	0.093987	0.132361
H58	H	1.216554	0.038156	0.143645
O59	O	1.350191	0.014913	0.527720
C60	C	1.388798	-0.023684	0.450112
H61	H	1.378133	0.030584	0.365761
H62	H	1.469910	-0.037837	0.484299
H63	H	1.349571	-0.095008	0.437519
H64	H	0.626946	0.113458	-0.000034
O65	O	1.051801	0.313305	0.178001
C66	C	1.071795	0.412635	0.138494
H67	H	1.126691	0.441154	0.206711
H68	H	1.103330	0.421204	0.059337
H69	H	1.001532	0.455868	0.117487
O70	O	0.955446	0.409558	0.294723
C71	C	0.984099	0.500225	0.323679
H72	H	1.066376	0.501403	0.356209
H73	H	0.963287	0.561077	0.245865
H74	H	0.945803	0.511512	0.392375
O75	O	0.927666	0.437303	0.472231
C76	C	0.956313	0.527974	0.501181
H77	H	1.038589	0.529153	0.533720
H78	H	0.935507	0.588822	0.423362
H79	H	0.918008	0.539266	0.569868
O80	O	0.969262	0.395528	0.705640
C81	C	1.002878	0.361896	0.822772
H82	H	1.078649	0.329802	0.838928
H83	H	1.006384	0.425272	0.867760
H84	H	0.950786	0.303420	0.856346
