data_functionalizedCrystal
_audit_creation_method	'MofGen! by Chris Wilmer'
_symmetry_space_group_name_H-M	'P1'
_symmetry_Int_Tables_number	1
_symmetry_cell_setting	triclinic
loop_
_symmetry_equiv_pos_as_xyz
  x,y,z
_cell_length_a	19.121385
_cell_length_b	17.638656
_cell_length_c	17.640968
_cell_angle_alpha	87.858322
_cell_angle_beta	98.350924
_cell_angle_gamma	103.141524
loop_
_atom_site_label
_atom_site_type_symbol
_atom_site_fract_x
_atom_site_fract_y
_atom_site_fract_z
Zn1	Zn	-1.119415	0.174250	-0.428637
Zn2	Zn	-0.619415	0.674250	0.071363
Zn3	Zn	-1.073828	0.328610	-0.329820
Zn4	Zn	-0.573828	0.828610	0.170180
Zn5	Zn	-0.975007	0.205274	-0.309639
Zn6	Zn	-0.475007	0.705274	0.190361
Zn7	Zn	-0.984162	0.306200	-0.461722
Zn8	Zn	-0.484162	0.806200	0.038278
O9	O	-1.038103	0.253583	-0.382455
O10	O	-0.538103	0.753583	0.117545
O11	O	-1.211328	0.191121	-0.410129
O12	O	-0.711328	0.691121	0.089871
O13	O	-1.037810	0.334611	-0.222141
O14	O	-0.537810	0.834611	0.277859
O15	O	-1.009410	0.094320	-0.303133
O16	O	-0.509410	0.594320	0.196867
O17	O	-1.177836	0.304528	-0.337529
O18	O	-0.677836	0.804528	0.162471
O19	O	-1.115505	0.071527	-0.390560
O20	O	-0.615505	0.571527	0.109440
O21	O	-0.965206	0.243997	-0.207314
O22	O	-0.465206	0.743997	0.292686
O23	O	-0.878261	0.222267	-0.335213
O24	O	-0.378261	0.722267	0.164787
O25	O	-1.025013	0.266334	-0.562336
O26	O	-0.525013	0.766334	-0.062336
O27	O	-0.884987	0.296417	-0.446948
O28	O	-0.384987	0.796417	0.053052
O29	O	-1.124383	0.169391	-0.538029
O30	O	-0.624383	0.669391	-0.038029
O31	O	-1.046687	0.432475	-0.369609
O32	O	-0.546687	0.932475	0.130391
O33	O	-0.980810	0.416011	-0.466517
O34	O	-0.480810	0.916011	0.033483
C35	C	-0.856224	0.260277	-0.392481
C36	C	-0.356224	0.760277	0.107519
C37	C	-0.778416	0.263156	-0.396792
C38	C	-0.278416	0.763156	0.103208
C39	C	-0.338545	0.281339	-0.424144
C40	C	0.161455	0.781339	0.075856
C41	C	-0.411649	0.278643	-0.420081
C42	C	0.088351	0.778643	0.079919
C43	C	-0.444705	0.238594	-0.359938
C44	C	0.055295	0.738594	0.140062
C45	C	-0.404650	0.201245	-0.303851
C46	C	0.095350	0.701245	0.196149
C47	C	-0.331546	0.203945	-0.307912
C48	C	0.168454	0.703945	0.192088
C49	C	-0.665257	0.228507	-0.344766
C50	C	-0.165257	0.728507	0.155234
C51	C	-0.738368	0.225807	-0.340711
C52	C	-0.238368	0.725807	0.159289
C53	C	-0.745361	0.303207	-0.456940
C54	C	-0.245361	0.803207	0.043060
C55	C	-0.672256	0.305901	-0.460998
C56	C	-0.172256	0.805901	0.039002
C57	C	-0.632207	0.268555	-0.404909
C58	C	-0.132207	0.768555	0.095091
C59	C	-0.519430	0.235835	-0.355784
C60	C	-0.019430	0.735835	0.144216
C61	C	-0.557482	0.271318	-0.409060
C62	C	-0.057482	0.771318	0.090940
C63	C	-1.009818	0.451941	-0.423858
C64	C	-0.509818	0.951941	0.076142
C65	C	-0.997787	0.536791	-0.441593
C66	C	-0.497787	1.036791	0.058407
C67	C	-0.220691	0.246861	-0.372380
C68	C	0.279309	0.746861	0.127620
C69	C	-0.298496	0.243990	-0.368062
C70	C	0.201504	0.743990	0.131938
C71	C	-1.129954	0.858529	-0.247821
C72	C	-0.629954	1.358529	0.252179
C73	C	-1.118640	0.938257	-0.264498
C74	C	-0.618640	1.438257	0.235502
C75	C	-1.049950	0.921176	-0.365336
C76	C	-0.549950	1.421176	0.134664
C77	C	-1.061256	0.841446	-0.348664
C78	C	-0.561256	1.341446	0.151336
C79	C	-1.101259	0.810129	-0.289907
C80	C	-0.601259	1.310129	0.210093
C81	C	-1.032561	0.793046	-0.390751
C82	C	-0.532561	1.293046	0.109249
C83	C	-1.043869	0.713322	-0.374083
C84	C	-0.543869	1.213322	0.125917
C85	C	-1.083872	0.681998	-0.315330
C86	C	-0.583872	1.181998	0.184670
C87	C	-1.112567	0.730405	-0.273239
C88	C	-0.612567	1.230405	0.226761
C89	C	-0.992562	0.824363	-0.449512
C90	C	-0.492562	1.324363	0.050488
C91	C	-0.963867	0.775963	-0.491598
C92	C	-0.463867	1.275963	0.008402
C93	C	-0.975170	0.696239	-0.474927
C94	C	-0.475170	1.196239	0.025073
C95	C	-1.015174	0.664915	-0.416174
C96	C	-0.515174	1.164915	0.083826
C97	C	-0.946475	0.647832	-0.517018
C98	C	-0.446475	1.147832	-0.017018
C99	C	-0.957783	0.568108	-0.500350
C100	C	-0.457783	1.068108	-0.000350
C101	C	-1.026482	0.585191	-0.399507
C102	C	-0.526482	1.085191	0.100493
C103	C	-1.080804	0.211902	-0.578169
C104	C	-0.580804	0.711902	-0.078169
C105	C	-1.099001	0.194140	-0.661571
C106	C	-0.599001	0.694140	-0.161571
C107	C	-1.066525	1.054445	-0.340916
C108	C	-0.566525	1.554445	0.159084
C109	C	-1.078647	0.969577	-0.323245
C110	C	-0.578647	1.469577	0.176755
C111	C	-0.900192	0.388094	-0.999146
C112	C	-0.400192	0.888094	-0.499146
C113	C	-0.917307	0.371394	-1.077512
C114	C	-0.417307	0.871394	-0.577512
C115	C	-1.020771	0.270456	-1.052193
C116	C	-0.520771	0.770456	-0.552193
C117	C	-1.003663	0.287145	-0.973823
C118	C	-0.503663	0.787145	-0.473823
C119	C	-0.943373	0.345966	-0.947306
C120	C	-0.443373	0.845966	-0.447306
C121	C	-1.046844	0.245016	-0.921983
C122	C	-0.546844	0.745016	-0.421983
C123	C	-1.029739	0.261707	-0.843620
C124	C	-0.529739	0.761707	-0.343620
C125	C	-0.969453	0.320527	-0.817097
C126	C	-0.469453	0.820527	-0.317097
C127	C	-0.926268	0.362657	-0.868944
C128	C	-0.426268	0.862657	-0.368944
C129	C	-1.107137	0.186199	-0.948502
C130	C	-0.607137	0.686199	-0.448502
C131	C	-1.150318	0.144071	-0.896662
C132	C	-0.650318	0.644071	-0.396662
C133	C	-1.133211	0.160758	-0.818297
C134	C	-0.633211	0.660758	-0.318297
C135	C	-1.072925	0.219578	-0.791774
C136	C	-0.572925	0.719578	-0.291774
C137	C	-1.176396	0.118628	-0.766450
C138	C	-0.676396	0.618628	-0.266450
C139	C	-1.159291	0.135319	-0.688088
C140	C	-0.659291	0.635319	-0.188088
C141	C	-1.055820	0.236269	-0.713411
C142	C	-0.555820	0.736269	-0.213411
C143	C	-0.995616	0.295046	-0.187488
C144	C	-0.495616	0.795046	0.312512
C145	C	-0.977585	0.312588	-0.104034
C146	C	-0.477585	0.812588	0.395966
H147	H	-0.765282	0.193184	-0.291739
H148	H	-0.265282	0.693184	0.208261
C149	C	-1.096310	0.594299	-0.296995
C150	C	-0.596310	1.094299	0.203005
N151	N	-1.105677	0.528244	-0.283184
N152	N	-0.605677	1.028244	0.216816
C153	C	-0.902474	0.682292	-0.581650
C154	C	-0.402474	1.182292	-0.081650
N155	N	-0.869331	0.708247	-0.630331
N156	N	-0.369331	1.208247	-0.130331
C157	C	-1.156576	0.695952	-0.208605
C158	C	-0.656576	1.195952	0.291395
N159	N	-1.189726	0.670000	-0.159928
N160	N	-0.689726	1.170000	0.340072
H161	H	-0.777977	0.333613	-0.502604
H162	H	-0.277977	0.833613	-0.002604
H163	H	-0.632656	0.198101	-0.299092
H164	H	-0.132656	0.698101	0.200908
H165	H	-0.431569	0.168640	-0.254879
H166	H	0.068431	0.668640	0.245121
H167	H	-1.162523	0.833032	-0.199969
H168	H	-0.662523	1.333032	0.300031
C169	C	-1.150208	0.991496	-0.218193
C170	C	-0.650208	1.491496	0.281807
N171	N	-1.173986	1.031596	-0.183317
N172	N	-0.673986	1.531596	0.316683
C173	C	-0.287493	0.162857	-0.246219
C174	C	0.212507	0.662857	0.253781
N175	N	-0.254313	0.131909	-0.199749
N176	N	0.245687	0.631909	0.300251
H177	H	-1.017381	0.946685	-0.413178
H178	H	-0.517381	1.446685	0.086822
H179	H	-0.955530	0.334119	-0.753289
H180	H	-0.455530	0.834119	-0.253289
H181	H	-0.983360	0.889279	-0.463083
H182	H	-0.483360	1.389279	0.036917
H183	H	-0.931298	0.801472	-0.539440
H184	H	-0.431298	1.301472	-0.039440
C185	C	-0.635894	0.349979	-0.527147
C186	C	-0.135894	0.849979	-0.027147
N187	N	-0.608505	0.383184	-0.576967
N188	N	-0.108505	0.883184	-0.076967
C189	C	-0.555803	0.191766	-0.289639
C190	C	-0.055803	0.691766	0.210361
N191	N	-0.583203	0.158570	-0.239820
N192	N	-0.083203	0.658570	0.260180
H193	H	-0.530564	0.303929	-0.458026
H194	H	-0.030564	0.803929	0.041974
H195	H	-1.069861	0.222566	-1.073794
H196	H	-0.569861	0.722566	-0.573794
C197	C	-0.926204	0.514868	-0.546637
C198	C	-0.426204	1.014868	-0.046637
N199	N	-0.902415	0.474767	-0.581499
N200	N	-0.402415	0.974767	-0.081499
H201	H	-1.059050	0.559694	-0.351655
H202	H	-0.559050	1.059694	0.148345
C203	C	-0.989497	0.300974	-0.684239
C204	C	-0.489497	0.800974	-0.184239
N205	N	-0.939546	0.349710	-0.662266
N206	N	-0.439546	0.849710	-0.162266
C207	C	-0.859945	0.427362	-0.839771
C208	C	-0.359945	0.927362	-0.339771
N209	N	-0.809994	0.476098	-0.817799
N210	N	-0.309994	0.976098	-0.317799
C211	C	-0.833869	0.452800	-0.969974
C212	C	-0.333869	0.952800	-0.469974
N213	N	-0.783918	0.501536	-0.948001
N214	N	-0.283918	1.001536	-0.448001
C215	C	-0.869797	0.417742	-1.134535
C216	C	-0.369797	0.917742	-0.634535
N217	N	-0.834014	0.452651	-1.177485
N218	N	-0.334014	0.952651	-0.677485
C219	C	-1.125950	0.167839	-1.034704
C220	C	-0.625950	0.667839	-0.534704
N221	N	-1.140119	0.154010	-1.099632
N222	N	-0.640119	0.654010	-0.599632
C223	C	-1.216630	0.079363	-0.925839
C224	C	-0.716630	0.579363	-0.425839
N225	N	-1.266575	0.030621	-0.947813
N226	N	-0.766575	0.530621	-0.447813
H227	H	-1.225488	0.070742	-0.788054
H228	H	-0.725488	0.570742	-0.288054
H229	H	-1.194453	0.101013	-0.645878
H230	H	-0.694453	0.601013	-0.145878
H231	H	-0.444253	0.309058	-0.465747
H232	H	0.055747	0.809058	0.034253
C233	C	-0.302190	0.325398	-0.490305
C234	C	0.197810	0.825398	0.009695
N235	N	-0.274808	0.358589	-0.540137
N236	N	0.225192	0.858589	-0.040137
