data_functionalizedCrystal
_audit_creation_method	'MofGen! by Chris Wilmer'
_symmetry_space_group_name_H-M	'P1'
_symmetry_Int_Tables_number	1
_symmetry_cell_setting	triclinic
loop_
_symmetry_equiv_pos_as_xyz
  x,y,z
_cell_length_a	23.532407
_cell_length_b	23.532407
_cell_length_c	12.996460
_cell_angle_alpha	89.989202
_cell_angle_beta	89.999749
_cell_angle_gamma	82.848678
loop_
_atom_site_label
_atom_site_type_symbol
_atom_site_fract_x
_atom_site_fract_y
_atom_site_fract_z
O1	O	0.755260	0.069136	-0.085449
O2	O	0.589397	0.079139	-0.085480
O3	O	0.677330	-0.008794	-0.085445
O4	O	0.667327	0.157069	-0.085484
O5	O	0.677321	-0.008799	0.085689
O6	O	0.589388	0.079134	0.085653
O7	O	0.755251	0.069131	0.085685
Cu8	Cu	0.672319	0.074132	0.101295
Cu9	Cu	0.672329	0.074138	-0.101091
O10	O	0.667318	0.157064	0.085649
C11	C	0.568176	0.078882	0.000083
C12	C	0.504959	0.078116	0.000071
C13	C	0.105856	0.125350	0.000107
C14	C	0.046456	0.124638	0.000113
O15	O	0.009711	0.168424	0.000140
N16	N	0.023830	0.072362	0.000124
C17	C	0.060607	0.020794	0.000139
O18	O	0.035908	-0.023737	0.000149
C19	C	0.120006	0.021506	0.000140
C20	C	0.142629	0.073785	0.000118
C21	C	0.128479	0.177625	0.000087
C22	C	0.187876	0.178336	0.000078
C23	C	0.224649	0.126772	0.000090
C24	C	0.202025	0.074496	0.000110
C25	C	0.156783	-0.030062	0.000162
C26	C	0.216185	-0.029345	0.000163
C27	C	0.238808	0.022934	0.000142
C28	C	0.298194	0.023643	0.000113
N29	N	0.320820	0.075920	0.000103
C30	C	0.284048	0.127484	0.000091
C31	C	-0.064135	0.019302	0.000139
C32	C	-0.123533	0.018589	0.000130
C33	C	-0.137680	0.122434	0.000107
C34	C	-0.078281	0.123146	0.000108
C35	C	-0.041509	0.071578	0.000128
C36	C	0.408784	0.128974	0.000072
C37	C	0.468186	0.129680	0.000060
C38	C	0.482329	0.025836	0.000089
C39	C	0.422932	0.025129	0.000096
C40	C	0.386160	0.076702	0.000091
O41	O	0.334974	-0.020119	0.000091
O42	O	0.308755	0.172007	0.000094
C43	C	0.677071	-0.030013	0.000125
C44	C	0.676305	-0.093230	0.000132
C45	C	0.723539	-0.492333	0.000085
C46	C	0.722827	-0.551733	0.000077
O47	O	0.766613	-0.588478	0.000047
N48	N	0.670551	-0.574359	0.000068
C49	C	0.618983	-0.537582	0.000056
O50	O	0.574452	-0.562281	0.000047
C51	C	0.619695	-0.478182	0.000057
C52	C	0.671974	-0.455560	0.000076
C53	C	0.775814	-0.469710	0.000104
C54	C	0.776525	-0.410313	0.000113
C55	C	0.724961	-0.373540	0.000105
C56	C	0.672685	-0.396164	0.000086
C57	C	0.568127	-0.441406	0.000038
C58	C	0.568844	-0.382004	0.000037
C59	C	0.621123	-0.359381	0.000057
C60	C	0.621832	-0.299995	0.000087
N61	N	0.674109	-0.277368	0.000097
C62	C	0.725673	-0.314141	0.000105
C63	C	0.617491	-0.662324	0.000053
C64	C	0.616778	-0.721722	0.000060
C65	C	0.720623	-0.735869	0.000079
C66	C	0.721335	-0.676470	0.000080
C67	C	0.669767	-0.639698	0.000062
C68	C	0.727163	-0.189405	0.000127
C69	C	0.727869	-0.130003	0.000141
C70	C	0.624025	-0.115860	0.000117
C71	C	0.623318	-0.175257	0.000108
C72	C	0.674891	-0.212029	0.000110
O73	O	0.578070	-0.263215	0.000113
O74	O	0.770196	-0.289433	0.000101
C75	C	0.776472	0.069388	0.000120
C76	C	0.839689	0.070154	0.000124
C77	C	0.667577	0.178283	0.000078
C78	C	0.668343	0.241500	0.000063
N79	N	0.672315	0.074128	0.243642
N80	N	0.672337	0.074138	-0.243438
C81	C	0.672329	0.074138	0.663456
C82	C	0.672323	0.074137	0.546651
C83	C	0.672322	0.074134	0.453553
C84	C	0.672316	0.074132	0.336740
H85	H	0.486602	0.172255	0.000042
H86	H	-0.034198	-0.022693	0.000146
H87	H	-0.141947	-0.023982	0.000132
H88	H	0.378851	0.170970	0.000072
C89	C	0.783217	-0.229227	0.000187
C90	C	0.829144	-0.196691	0.000233
C91	C	0.880790	-0.233355	0.000308
H92	H	0.785190	-0.252699	-0.059477
H93	H	0.785128	-0.252693	0.059887
H94	H	0.827235	-0.173236	-0.059462
H95	H	0.827191	-0.173220	0.059892
H96	H	0.882700	-0.256820	0.060009
H97	H	0.882756	-0.256825	-0.059356
H98	H	0.911957	-0.211285	0.000349
C99	C	0.561437	-0.622496	0.000103
C100	C	0.515509	-0.655031	0.000123
C101	C	0.463865	-0.618365	0.000181
H102	H	0.559473	-0.599010	-0.059557
H103	H	0.559521	-0.599046	0.059807
H104	H	0.517425	-0.678472	-0.059575
H105	H	0.517455	-0.678516	0.059779
H106	H	0.461948	-0.594915	0.059885
H107	H	0.461906	-0.594880	-0.059480
H108	H	0.432697	-0.640434	0.000204
H109	H	0.582043	-0.085909	0.000113
H110	H	0.206289	0.220908	0.000061
H111	H	0.526850	-0.352066	0.000022
H112	H	0.512280	-0.016146	0.000094
H113	H	0.525555	-0.459814	0.000015
H114	H	0.819097	-0.391900	0.000125
H115	H	0.762610	-0.765821	0.000082
H116	H	0.817806	-0.499645	0.000107
H117	H	0.763906	-0.658056	0.000095
H118	H	0.574207	-0.740136	0.000062
H119	H	0.770443	-0.111587	0.000160
C120	C	-0.053833	0.179966	0.000145
C121	C	-0.098758	0.224967	0.000157
C122	C	-0.076262	0.277319	0.000208
H123	H	-0.030964	0.182488	-0.059515
H124	H	-0.030975	0.182434	0.059849
H125	H	-0.121607	0.222500	-0.059541
H126	H	-0.121631	0.222464	0.059813
H127	H	-0.053403	0.279787	0.059912
H128	H	-0.053392	0.279835	-0.059453
H129	H	-0.106739	0.307859	0.000226
C130	C	0.088655	0.233676	0.000016
C131	C	0.121193	0.279602	-0.000027
C132	C	0.084531	0.331248	-0.000114
H133	H	0.065173	0.235646	0.059674
H134	H	0.065199	0.235591	-0.059690
H135	H	0.144639	0.277687	0.059673
H136	H	0.144674	0.277651	-0.059680
H137	H	0.061076	0.333163	-0.059820
H138	H	0.061051	0.333212	0.059545
H139	H	0.106603	0.362414	-0.000153
C140	C	0.566499	-0.199712	0.000036
C141	C	0.521495	-0.154791	0.000008
C142	C	0.469145	-0.177292	-0.000085
H143	H	0.563975	-0.222593	0.059688
H144	H	0.564038	-0.222560	-0.059676
H145	H	0.523955	-0.131953	0.059715
H146	H	0.524001	-0.131906	-0.059639
H147	H	0.466684	-0.200140	-0.059798
H148	H	0.466626	-0.200173	0.059567
H149	H	0.438603	-0.146817	-0.000114
C150	C	0.132343	-0.086883	0.000248
C151	C	0.177271	-0.131881	0.000295
C152	C	0.154780	-0.184236	0.000393
H153	H	0.109472	-0.089411	-0.059407
H154	H	0.109485	-0.089350	0.059957
H155	H	0.200118	-0.129415	-0.059407
H156	H	0.200145	-0.129372	0.059947
H157	H	0.131923	-0.186703	0.060101
H158	H	0.131910	-0.186757	-0.059264
H159	H	0.185260	-0.214773	0.000435
H160	H	0.246123	-0.071339	0.000181
C161	C	0.398332	-0.031613	-0.000100
C162	C	0.364648	-0.035061	-0.088146
C163	C	0.341988	-0.087326	-0.088357
H164	H	0.375421	-0.034105	0.059516
H165	H	0.428725	-0.062238	-0.000153
H166	H	0.334259	-0.004444	-0.088083
H167	H	0.387546	-0.032578	-0.147776
H168	H	0.372381	-0.117952	-0.088411
H169	H	0.319079	-0.089814	-0.028738
H170	H	0.319135	-0.089674	-0.148100
H171	H	-0.167632	0.164421	0.000102
