data_functionalizedCrystal
_audit_creation_method	'MofGen! by Chris Wilmer'
_symmetry_space_group_name_H-M	'P1'
_symmetry_Int_Tables_number	1
_symmetry_cell_setting	triclinic
loop_
_symmetry_equiv_pos_as_xyz
  x,y,z
_cell_length_a	14.519731
_cell_length_b	15.995362
_cell_length_c	12.996460
_cell_angle_alpha	90.000758
_cell_angle_beta	89.994327
_cell_angle_gamma	96.406883
loop_
_atom_site_label
_atom_site_type_symbol
_atom_site_fract_x
_atom_site_fract_y
_atom_site_fract_z
O1	O	1.223662	-0.109844	-0.085556
O2	O	1.556996	0.223489	0.247777
O3	O	1.890329	0.556822	0.581110
O4	O	0.955165	-0.122751	-0.085556
O5	O	1.288499	0.210582	0.247777
O6	O	1.621832	0.543915	0.581110
O7	O	1.096748	0.005578	-0.085564
O8	O	1.430081	0.338911	0.247770
O9	O	1.763414	0.672244	0.581103
O10	O	1.082080	-0.238173	-0.085549
O11	O	1.415414	0.095160	0.247784
O12	O	1.748747	0.428493	0.581118
O13	O	1.096733	0.005585	0.085570
O14	O	1.430066	0.338918	0.418903
O15	O	1.763400	0.672251	0.752237
O16	O	0.955151	-0.122744	0.085577
O17	O	1.288484	0.210589	0.418911
O18	O	1.621817	0.543923	0.752244
O19	O	1.223648	-0.109837	0.085577
O20	O	1.556981	0.223496	0.418911
O21	O	1.890314	0.556829	0.752244
Cu22	Cu	1.089398	-0.116290	0.101203
Cu23	Cu	1.422731	0.217043	0.434537
Cu24	Cu	1.756065	0.550377	0.767870
Cu25	Cu	1.089415	-0.116298	-0.101182
Cu26	Cu	1.422749	0.217035	0.232151
Cu27	Cu	1.756082	0.550368	0.565484
O28	O	1.082066	-0.238166	0.085585
O29	O	1.415399	0.095167	0.418918
O30	O	1.748732	0.428501	0.752251
C31	C	0.920800	-0.122143	0.000010
C32	C	1.254133	0.211190	0.333344
C33	C	1.587466	0.544524	0.666677
C34	C	0.818423	-0.120331	0.000010
C35	C	1.151756	0.213003	0.333343
C36	C	1.485089	0.546336	0.666676
C37	C	0.735281	-0.118858	0.000005
C38	C	1.068614	0.214475	0.333339
C39	C	1.401948	0.547809	0.666672
C40	C	0.630976	-0.117018	0.000005
C41	C	0.964309	0.216315	0.333338
C42	C	1.297642	0.549648	0.666672
C43	C	0.547839	-0.115558	0.000005
C44	C	0.881172	0.217775	0.333338
C45	C	1.214506	0.551109	0.666672
C46	C	0.443527	-0.113718	0.000002
C47	C	0.776860	0.219615	0.333336
C48	C	1.110194	0.552949	0.666669
C49	C	1.096132	0.036777	-0.000001
C50	C	1.429465	0.370110	0.333332
C51	C	1.762799	0.703443	0.666666
C52	C	1.094308	0.129729	-0.000013
C53	C	1.427641	0.463063	0.333320
C54	C	1.760975	0.796396	0.666654
C55	C	1.258013	-0.110446	0.000009
C56	C	1.591347	0.222888	0.333342
C57	C	1.924680	0.556221	0.666675
C58	C	1.360391	-0.112258	0.000002
C59	C	1.693724	0.221076	0.333336
C60	C	2.027057	0.554409	0.666669
N61	N	1.089392	-0.116284	0.243550
N62	N	1.422726	0.217050	0.576884
N63	N	1.756059	0.550383	0.910217
C64	C	1.087758	0.467485	-0.000032
C65	C	1.421091	0.800819	0.333301
C66	C	1.754425	1.134152	0.666634
C67	C	0.986924	0.420209	-0.000413
C68	C	1.320257	0.753543	0.332920
C69	C	1.653590	1.086876	0.666253
C70	C	0.988748	0.323517	-0.000021
C71	C	1.322081	0.656850	0.333312
C72	C	1.655415	0.990184	0.666646
C73	C	1.091007	0.299921	-0.000023
C74	C	1.424340	0.633254	0.333310
C75	C	1.757674	0.966587	0.666643
C76	C	1.140733	0.340924	0.097698
C77	C	1.474066	0.674257	0.431031
C78	C	1.807399	1.007591	0.764365
C79	C	1.138195	0.437563	0.097773
C80	C	1.471528	0.770897	0.431107
C81	C	1.804862	1.104230	0.764440
C82	C	1.140295	0.437910	-0.096838
C83	C	1.473628	0.771243	0.236495
C84	C	1.806961	1.104577	0.569829
C85	C	1.140276	0.340965	-0.098123
C86	C	1.473609	0.674298	0.235210
C87	C	1.806942	1.007632	0.568544
C88	C	1.092848	0.205221	-0.000015
C89	C	1.426182	0.538554	0.333319
C90	C	1.759515	0.871887	0.666652
C91	C	1.085919	0.562185	-0.000034
C92	C	1.419253	0.895519	0.333299
C93	C	1.752586	1.228852	0.666633
C94	C	1.082669	0.730633	0.000003
C95	C	1.416002	1.063967	0.333336
C96	C	1.749336	1.397300	0.666669
C97	C	1.084457	0.637676	-0.000043
C98	C	1.417790	0.971010	0.333290
C99	C	1.751123	1.304343	0.666624
N100	N	1.089428	-0.116298	-0.243529
N101	N	1.422761	0.217035	0.089804
N102	N	1.756095	0.550368	0.423137
C103	C	1.089414	-0.116299	0.663365
C104	C	1.422747	0.217034	0.996698
C105	C	1.756081	0.550367	1.330031
C106	C	1.089405	-0.116298	0.546560
C107	C	1.422739	0.217036	0.879893
C108	C	1.756072	0.550369	1.213226
C109	C	1.089404	-0.116292	0.453461
C110	C	1.422737	0.217041	0.786795
C111	C	1.756070	0.550375	1.120128
C112	C	1.089394	-0.116289	0.336649
C113	C	1.422727	0.217044	0.669982
C114	C	1.756061	0.550377	1.003315
H115	H	0.949659	0.295153	-0.070072
H116	H	1.282993	0.628487	0.263262
H117	H	1.616326	0.961820	0.596595
F118	F	1.097203	0.464811	-0.193654
F119	F	1.430537	0.798144	0.139679
F120	F	1.763870	1.131477	0.473012
F121	F	1.234956	0.479565	0.103573
F122	F	1.568289	0.812898	0.436907
F123	F	1.901623	1.146231	0.770240
H124	H	1.215859	0.326681	0.101330
H125	H	1.549193	0.660014	0.434664
H126	H	1.882526	0.993347	0.767997
H127	H	1.214848	0.325486	-0.104025
H128	H	1.548181	0.658819	0.229308
H129	H	1.881514	0.992153	0.562642
H130	H	0.946625	0.438801	-0.070494
H131	H	1.279959	0.772135	0.262839
H132	H	1.613292	1.105468	0.596172
F133	F	0.937294	0.287176	0.091699
F134	F	1.270627	0.620509	0.425032
F135	F	1.603961	0.953843	0.758366
F136	F	1.090777	0.461565	0.193254
F137	F	1.424111	0.794898	0.526588
F138	F	1.757444	1.128231	0.859921
H139	H	1.106184	0.312600	0.170425
H140	H	1.439517	0.645933	0.503759
H141	H	1.772850	0.979267	0.837092
H142	H	1.103919	0.313771	-0.170415
H143	H	1.437253	0.647104	0.162919
H144	H	1.770586	0.980437	0.496252
F145	F	0.934333	0.446187	0.090424
F146	F	1.267666	0.779521	0.423757
F147	F	1.601000	1.112854	0.757090
H148	H	1.214640	0.469554	-0.097500
H149	H	1.547973	0.802887	0.235834
H150	H	1.881306	1.136221	0.569167
