data_functionalizedCrystal
_audit_creation_method	'MofGen! by Chris Wilmer'
_symmetry_space_group_name_H-M	'P1'
_symmetry_Int_Tables_number	1
_symmetry_cell_setting	triclinic
loop_
_symmetry_equiv_pos_as_xyz
  x,y,z
_cell_length_a	18.101398
_cell_length_b	12.594516
_cell_length_c	18.101389
_cell_angle_alpha	89.987481
_cell_angle_beta	89.990255
_cell_angle_gamma	90.011609
loop_
_atom_site_label
_atom_site_type_symbol
_atom_site_fract_x
_atom_site_fract_y
_atom_site_fract_z
Zn1	Zn	1.132198	-0.423980	-0.418581
Zn2	Zn	1.632198	0.076020	0.081419
Zn3	Zn	1.132127	-0.601948	-0.294752
Zn4	Zn	1.632127	-0.101948	0.205248
Zn5	Zn	1.008357	-0.423970	-0.294774
Zn6	Zn	1.508357	0.076030	0.205226
Zn7	Zn	1.008341	-0.601903	-0.418572
Zn8	Zn	1.508341	-0.101903	0.081428
O9	O	1.070256	-0.512950	-0.356670
O10	O	1.570256	-0.012950	0.143330
O11	O	1.235822	-0.447611	-0.402149
O12	O	1.735822	0.052389	0.097851
O13	O	1.115686	-0.578353	-0.191122
O14	O	1.615686	-0.078353	0.308878
O15	O	1.024822	-0.275025	-0.311210
O16	O	1.524822	0.224975	0.188790
O17	O	1.235769	-0.578363	-0.311173
O18	O	1.735769	-0.078363	0.188827
O19	O	1.115808	-0.275033	-0.402170
O20	O	1.615808	0.224967	0.097830
O21	O	1.024753	-0.447593	-0.191138
O22	O	1.524753	0.052407	0.308862
O23	O	0.904722	-0.447550	-0.311201
O24	O	1.404722	0.052450	0.188799
O25	O	1.024794	-0.578287	-0.522206
O26	O	1.524794	-0.078287	-0.022206
O27	O	0.904710	-0.578277	-0.402155
O28	O	1.404710	-0.078277	0.097845
O29	O	1.115791	-0.447567	-0.522213
O30	O	1.615791	0.052433	-0.022213
O31	O	1.115669	-0.750888	-0.311165
O32	O	1.615669	-0.250888	0.188835
O33	O	1.024724	-0.750855	-0.402135
O34	O	1.524724	-0.250855	0.097865
C35	C	0.877845	-0.512908	-0.356680
C36	C	1.377845	-0.012908	0.143320
C37	C	0.795531	-0.512916	-0.356702
C38	C	1.295531	-0.012916	0.143298
C39	C	1.070207	-0.789491	-0.356663
C40	C	1.570207	-0.289491	0.143337
C41	C	1.070254	-0.907797	-0.356684
C42	C	1.570254	-0.407797	0.143316
C43	C	0.496440	-0.512979	-0.356671
C44	C	0.996440	-0.012979	0.143329
C45	C	0.527782	-0.595626	-0.413615
C46	C	1.027782	-0.095626	0.086385
C47	C	0.613401	-0.595367	-0.413849
C48	C	1.113401	-0.095367	0.086151
C49	C	0.644823	-0.512949	-0.356687
C50	C	1.144823	-0.012949	0.143313
C51	C	0.613748	-0.400845	-0.378006
C52	C	1.113748	0.099155	0.121994
C53	C	0.528103	-0.401342	-0.378411
C54	C	1.028103	0.098658	0.121589
C55	C	0.527993	-0.541446	-0.278270
C56	C	1.027993	-0.041446	0.221730
C57	C	0.613643	-0.543906	-0.278690
C58	C	1.113643	-0.043906	0.221310
C59	C	0.728682	-0.512925	-0.356694
C60	C	1.228682	-0.012925	0.143306
C61	C	0.412581	-0.512995	-0.356666
C62	C	0.912581	-0.012995	0.143334
C63	C	1.020784	-0.977071	-0.406128
C64	C	1.520784	-0.477071	0.093872
C65	C	1.002743	-1.047911	-0.338555
C66	C	1.502743	-0.547911	0.161445
C67	C	1.088363	-1.047755	-0.424269
C68	C	1.588363	-0.547755	0.075731
C69	C	1.052177	-0.977079	-0.289075
C70	C	1.552177	-0.477079	0.210925
C71	C	1.137829	-0.976917	-0.374835
C72	C	1.637829	-0.476917	0.125165
C73	C	1.119813	-1.047725	-0.307215
C74	C	1.619813	-0.547725	0.192785
C75	C	1.263418	-0.512993	-0.356660
C76	C	1.763418	-0.012993	0.143340
C77	C	1.345732	-0.513011	-0.356656
C78	C	1.845732	-0.013011	0.143344
C79	C	1.070299	-0.512923	-0.549832
C80	C	1.570299	-0.012923	-0.049832
C81	C	1.070317	-0.512912	-0.632146
C82	C	1.570317	-0.012912	-0.132146
C83	C	1.070325	-0.235329	-0.356693
C84	C	1.570325	0.264671	0.143307
C85	C	1.070354	-0.117024	-0.356703
C86	C	1.570354	0.382976	0.143297
C87	C	1.070360	-0.512712	-0.931237
C88	C	1.570360	-0.012712	-0.431237
C89	C	1.012909	-0.594696	-0.899908
C90	C	1.512909	-0.094696	-0.399908
C91	C	1.013065	-0.595076	-0.814289
C92	C	1.513065	-0.095076	-0.314289
C93	C	1.070338	-0.512811	-0.782854
C94	C	1.570338	-0.012811	-0.282854
C95	C	1.148369	-0.543267	-0.813942
C96	C	1.648369	-0.043267	-0.313942
C97	C	1.148049	-0.543805	-0.899588
C98	C	1.648049	-0.043805	-0.399588
C99	C	1.050458	-0.400091	-0.899658
C100	C	1.550458	0.099909	-0.399658
C101	C	1.048722	-0.400742	-0.814008
C102	C	1.548722	0.099258	-0.314008
C103	C	1.070330	-0.512865	-0.698995
C104	C	1.570330	-0.012865	-0.198995
C105	C	1.070373	-0.512661	-1.015097
C106	C	1.570373	-0.012661	-0.515097
C107	C	1.070256	-0.512900	-0.164259
C108	C	1.570256	-0.012900	0.335741
C109	C	1.070381	-0.512612	-0.081946
C110	C	1.570381	-0.012612	0.418054
H111	H	0.634411	-0.678498	-0.400488
H112	H	1.134411	-0.178498	0.099512
H113	H	0.506394	-0.621792	-0.258894
H114	H	1.006394	-0.121792	0.241106
H115	H	0.633900	-0.576533	-0.471939
H116	H	1.133900	-0.076533	0.028061
H117	H	0.635033	-0.488079	-0.233984
H118	H	1.135033	0.011921	0.266016
H119	H	0.506269	-0.577032	-0.471369
H120	H	1.006269	-0.077032	0.028631
H121	H	1.192324	-0.485430	-0.793581
H122	H	1.692324	0.014570	-0.293581
H123	H	1.194916	-0.945712	-0.390203
H124	H	1.694916	-0.445712	0.109797
H125	H	0.978874	-0.946046	-0.447880
H126	H	1.478874	-0.446046	0.052120
H127	H	1.025920	-0.677664	-0.921436
H128	H	1.525920	-0.177664	-0.421436
H129	H	0.635208	-0.376262	-0.434697
H130	H	1.135208	0.123738	0.065303
H131	H	0.955202	-0.576017	-0.793270
H132	H	1.455202	-0.076017	-0.293270
H133	H	1.161691	-1.078553	-0.265362
H134	H	1.661691	-0.578553	0.234638
H135	H	1.036835	-0.946162	-0.231912
H136	H	1.536835	-0.446162	0.268088
H137	H	0.508137	-0.377194	-0.435725
H138	H	1.008137	0.122806	0.064275
H139	H	0.633962	-0.626397	-0.262610
H140	H	1.133962	-0.126397	0.237390
H141	H	0.507723	-0.481246	-0.235842
H142	H	1.007723	0.018754	0.264158
H143	H	0.507369	-0.337558	-0.338837
H144	H	1.007369	0.162442	0.161163
H145	H	1.026206	-0.678554	-0.793810
H146	H	1.526206	-0.178554	-0.293810
H147	H	0.945643	-1.079118	-0.323219
H148	H	1.445643	-0.579118	0.176781
H149	H	1.103639	-1.078800	-0.481416
H150	H	1.603639	-0.578800	0.018584
H151	H	0.954873	-0.575832	-0.920507
H152	H	1.454873	-0.075832	-0.420507
H153	H	0.634100	-0.337599	-0.337825
H154	H	1.134100	0.162401	0.162175
H155	H	1.164918	-0.626132	-0.919572
H156	H	1.664918	-0.126132	-0.419572
H157	H	1.192306	-0.486684	-0.920313
H158	H	1.692306	0.013316	-0.420313
H159	H	1.165529	-0.624719	-0.792502
H160	H	1.665529	-0.124719	-0.292502
H161	H	0.994546	-0.372346	-0.921256
H162	H	1.494546	0.127654	-0.421256
H163	H	0.991298	-0.377775	-0.793689
H164	H	1.491298	0.122225	-0.293689
H165	H	1.092302	-0.339009	-0.919919
H166	H	1.592302	0.160991	-0.419919
H167	H	1.087511	-0.336416	-0.792609
H168	H	1.587511	0.163584	-0.292609
H169	H	0.507182	-0.679029	-0.400403
H170	H	1.007182	-0.179029	0.099597
