data_functionalizedCrystal
_audit_creation_method	'MofGen! by Chris Wilmer'
_symmetry_space_group_name_H-M	'P1'
_symmetry_Int_Tables_number	1
_symmetry_cell_setting	triclinic
loop_
_symmetry_equiv_pos_as_xyz
  x,y,z
_cell_length_a	18.215407
_cell_length_b	18.101395
_cell_length_c	18.101389
_cell_angle_alpha	89.983159
_cell_angle_beta	89.980853
_cell_angle_gamma	90.031552
loop_
_atom_site_label
_atom_site_type_symbol
_atom_site_fract_x
_atom_site_fract_y
_atom_site_fract_z
Zn1	Zn	1.125035	-0.294898	-0.418745
Zn2	Zn	1.625035	0.205102	0.081255
Zn3	Zn	1.124932	-0.418724	-0.294906
Zn4	Zn	1.624932	0.081276	0.205094
Zn5	Zn	1.001969	-0.294902	-0.294917
Zn6	Zn	1.501969	0.205098	0.205083
Zn7	Zn	1.001920	-0.418704	-0.418706
Zn8	Zn	1.501920	0.081296	0.081294
O9	O	1.063464	-0.356807	-0.356818
O10	O	1.563464	0.143193	0.143182
O11	O	1.228006	-0.311331	-0.402329
O12	O	1.728006	0.188669	0.097671
O13	O	1.108598	-0.402309	-0.191275
O14	O	1.608598	0.097691	0.308725
O15	O	1.018358	-0.191269	-0.311363
O16	O	1.518358	0.308731	0.188637
O17	O	1.227930	-0.402305	-0.311345
O18	O	1.727930	0.097695	0.188655
O19	O	1.108774	-0.191266	-0.402339
O20	O	1.608774	0.308734	0.097661
O21	O	1.018258	-0.311337	-0.191283
O22	O	1.518258	0.188663	0.308717
O23	O	0.898978	-0.311317	-0.311326
O24	O	1.398978	0.188683	0.188674
O25	O	1.018275	-0.402271	-0.522344
O26	O	1.518275	0.097729	-0.022344
O27	O	0.898942	-0.402274	-0.402274
O28	O	1.398942	0.097726	0.097726
O29	O	1.108726	-0.311311	-0.522372
O30	O	1.608726	0.188689	-0.022372
O31	O	1.108550	-0.522354	-0.311308
O32	O	1.608550	-0.022354	0.188692
O33	O	1.018174	-0.522339	-0.402263
O34	O	1.518174	-0.022339	0.097737
C35	C	0.872258	-0.356794	-0.356797
C36	C	1.372258	0.143206	0.143203
C37	C	0.790459	-0.356807	-0.356806
C38	C	1.290459	0.143193	0.143194
C39	C	1.063366	-0.549218	-0.356797
C40	C	1.563366	-0.049218	0.143203
C41	C	1.063391	-0.631532	-0.356812
C42	C	1.563391	-0.131532	0.143188
C43	C	0.602265	-0.404242	-0.404103
C44	C	1.102265	0.095758	0.095897
C45	C	0.525407	-0.404245	-0.404112
C46	C	1.025407	0.095755	0.095888
C47	C	0.525415	-0.309385	-0.309551
C48	C	1.025415	0.190615	0.190449
C49	C	0.602272	-0.309380	-0.309546
C50	C	1.102272	0.190620	0.190454
C51	C	0.640695	-0.356812	-0.356821
C52	C	1.140695	0.143188	0.143179
C53	C	0.486979	-0.356820	-0.356835
C54	C	0.986979	0.143180	0.143165
C55	C	0.403646	-0.356822	-0.356844
C56	C	0.903646	0.143178	0.143156
C57	C	0.724034	-0.356809	-0.356812
C58	C	1.224034	0.143191	0.143188
C59	C	1.063552	-0.930623	-0.356852
C60	C	1.563552	-0.430623	0.143148
C61	C	1.006822	-0.899319	-0.414221
C62	C	1.506822	-0.399319	0.085779
C63	C	1.006552	-0.813701	-0.414041
C64	C	1.506552	-0.313701	0.085959
C65	C	1.063472	-0.782240	-0.356833
C66	C	1.563472	-0.282240	0.143167
C67	C	1.042475	-0.813377	-0.278783
C68	C	1.542475	-0.313377	0.221217
C69	C	1.042110	-0.899023	-0.279127
C70	C	1.542110	-0.399023	0.220873
C71	C	1.141404	-0.898969	-0.376846
C72	C	1.641404	-0.398969	0.123154
C73	C	1.140946	-0.813319	-0.378558
C74	C	1.640946	-0.313319	0.121442
C75	C	1.063428	-0.698381	-0.356817
C76	C	1.563428	-0.198381	0.143183
C77	C	1.063594	-1.014482	-0.356862
C78	C	1.563594	-0.514482	0.143138
C79	C	1.255417	-0.356820	-0.356840
C80	C	1.755417	0.143180	0.143160
C81	C	1.337216	-0.356826	-0.356850
C82	C	1.837216	0.143174	0.143150
C83	C	1.063507	-0.356788	-0.549980
C84	C	1.563507	0.143212	-0.049980
C85	C	1.063525	-0.356780	-0.632295
C86	C	1.563525	0.143220	-0.132295
C87	C	1.063583	-0.163645	-0.356857
C88	C	1.563583	0.336355	0.143143
C89	C	1.063634	-0.081331	-0.356873
C90	C	1.563634	0.418669	0.143127
C91	C	1.063568	-0.356642	-0.931386
C92	C	1.563568	0.143358	-0.431386
C93	C	1.006462	-0.413689	-0.900043
C94	C	1.506462	0.086311	-0.400043
C95	C	1.006616	-0.413953	-0.814424
C96	C	1.506616	0.086047	-0.314424
C97	C	1.063546	-0.356710	-0.783003
C98	C	1.563546	0.143290	-0.283003
C99	C	1.141083	-0.377894	-0.814102
C100	C	1.641083	0.122106	-0.314102
C101	C	1.140765	-0.378268	-0.899747
C102	C	1.640765	0.121732	-0.399747
C103	C	1.043811	-0.278284	-0.899810
C104	C	1.543811	0.221716	-0.399810
C105	C	1.042085	-0.278737	-0.814159
C106	C	1.542085	0.221263	-0.314159
C107	C	1.063538	-0.356748	-0.699144
C108	C	1.563538	0.143252	-0.199144
C109	C	1.063580	-0.356606	-1.015245
C110	C	1.563580	0.143394	-0.515245
C111	C	1.063464	-0.356772	-0.164408
C112	C	1.563464	0.143228	0.335592
C113	C	1.063589	-0.356572	-0.082094
C114	C	1.563589	0.143428	0.417906
H115	H	0.633548	-0.442863	-0.442599
H116	H	1.133548	0.057137	0.057401
Cl117	Cl	1.209660	-0.780244	-0.318753
Cl118	Cl	1.709660	-0.280244	0.181247
Cl119	Cl	0.953984	-0.254074	-0.782785
Cl120	Cl	1.453984	0.245926	-0.282785
H121	H	1.019376	-0.471415	-0.921569
H122	H	1.519376	0.028585	-0.421569
Cl123	Cl	1.026797	-0.503617	-0.782796
Cl124	Cl	1.526797	-0.003617	-0.282796
H125	H	0.494121	-0.442866	-0.442615
H126	H	0.994121	0.057134	0.057385
Cl127	Cl	1.101624	-0.209630	-0.781149
Cl128	Cl	1.601624	0.290370	-0.281149
H129	H	1.085404	-0.235781	-0.920081
H130	H	1.585404	0.264219	-0.420081
H131	H	0.494121	-0.270768	-0.271060
H132	H	0.994121	0.229232	0.228940
H133	H	1.019689	-0.792647	-0.471914
H134	H	1.519689	-0.292647	0.028086
H135	H	0.633562	-0.270752	-0.271043
H136	H	1.133562	0.229248	0.228957
H137	H	0.949468	-0.920903	-0.401143
H138	H	1.449468	-0.420903	0.098857
Cl139	Cl	0.917459	-0.782160	-0.393597
Cl140	Cl	1.417459	-0.282160	0.106403
Cl141	Cl	1.026897	-0.931062	-0.503864
Cl142	Cl	1.526897	-0.431062	-0.003864
Cl143	Cl	0.917846	-0.393484	-0.781956
Cl144	Cl	1.417846	0.106516	-0.281956
H145	H	0.985201	-0.919063	-0.262190
H146	H	1.485201	-0.419063	0.237810
H147	H	1.184774	-0.337649	-0.793751
H148	H	1.684774	0.162351	-0.293751
Cl149	Cl	0.958032	-0.248488	-0.933139
Cl150	Cl	1.458032	0.251512	-0.433139
Cl151	Cl	1.103127	-0.930999	-0.210878
Cl152	Cl	1.603127	-0.430999	0.289122
Cl153	Cl	1.166621	-0.466704	-0.930604
Cl154	Cl	1.666621	0.033296	-0.430604
H155	H	1.082495	-0.792999	-0.234874
H156	H	1.582495	-0.292999	0.265126
Cl157	Cl	0.955541	-0.780363	-0.252164
Cl158	Cl	1.455541	-0.280363	0.247836
Cl159	Cl	1.170959	-0.932251	-0.463220
Cl160	Cl	1.670959	-0.432251	0.036780
Cl161	Cl	1.165396	-0.781897	-0.467241
Cl162	Cl	1.665396	-0.281897	0.032759
H163	H	1.183670	-0.919211	-0.335062
H164	H	1.683670	-0.419211	0.164938
H165	H	1.184755	-0.338521	-0.920483
H166	H	1.684755	0.161479	-0.420483
Cl167	Cl	0.917419	-0.393430	-0.931826
Cl168	Cl	1.417419	0.106570	-0.431826
Cl169	Cl	1.167392	-0.465391	-0.781001
Cl170	Cl	1.667392	0.034609	-0.281001
