data_functionalizedCrystal
_audit_creation_method	'MofGen! by Chris Wilmer'
_symmetry_space_group_name_H-M	'P1'
_symmetry_Int_Tables_number	1
_symmetry_cell_setting	triclinic
loop_
_symmetry_equiv_pos_as_xyz
  x,y,z
_cell_length_a	10.654550
_cell_length_b	11.026607
_cell_length_c	9.730223
_cell_angle_alpha	89.999947
_cell_angle_beta	89.996251
_cell_angle_gamma	96.535460
loop_
_atom_site_label
_atom_site_type_symbol
_atom_site_fract_x
_atom_site_fract_y
_atom_site_fract_z
O1	O	1.704901	0.170762	-0.114401
O2	O	1.342954	0.187032	-0.114379
O3	O	1.493930	0.001991	-0.114383
O4	O	1.553926	0.355802	-0.114397
O5	O	1.493929	0.001996	0.114196
O6	O	1.342953	0.187036	0.114201
O7	O	1.704900	0.170767	0.114179
Zn8	Zn	1.523926	0.178902	0.150482
Zn9	Zn	1.523928	0.178896	-0.150682
O10	O	1.553924	0.355807	0.114183
C11	C	1.295897	0.185839	-0.000086
C12	C	1.155677	0.182265	-0.000078
C13	C	1.099841	0.291214	-0.000102
C14	C	0.968090	0.287849	-0.000126
C15	C	0.948022	0.066576	-0.000107
C16	C	1.079771	0.069943	-0.000073
C17	C	1.111426	0.418964	-0.000119
C18	C	0.979675	0.415599	-0.000143
C19	C	1.482861	-0.043310	-0.000094
C20	C	1.449867	-0.178302	-0.000097
C21	C	1.540970	-0.251341	-0.000105
C22	C	1.506871	-0.390862	-0.000108
C23	C	1.751958	0.171959	-0.000117
C24	C	1.892177	0.175533	-0.000135
C25	C	1.564993	0.401109	-0.000109
C26	C	1.597988	0.536100	-0.000115
N27	N	1.523934	0.178906	0.356018
N28	N	1.523928	0.178883	-0.356219
C29	C	1.590814	0.096998	0.427942
C30	C	1.590808	0.096983	0.571825
C31	C	1.457040	0.260795	0.571847
C32	C	1.457040	0.260803	0.427967
C33	C	1.668049	0.002426	0.427931
C34	C	1.668043	0.002411	0.571814
H35	H	1.151603	0.468929	0.095545
H36	H	1.403623	-0.431617	-0.000111
H37	H	1.402575	0.327472	0.630443
H38	H	0.948391	0.463731	-0.095812
N39	N	1.313112	-0.232291	-0.000083
H40	H	1.269785	-0.204366	0.084658
H41	H	1.269882	-0.204349	-0.084868
H42	H	1.402568	0.327488	0.369407
H43	H	1.618360	-0.085899	0.616435
H44	H	1.626321	-0.091025	0.388882
N45	N	0.866147	-0.054565	-0.000121
H46	H	0.921515	-0.123073	-0.000103
H47	H	0.811026	-0.060779	0.084605
N48	N	1.797339	0.041647	0.368792
H49	H	1.859810	0.060590	0.446044
H50	H	1.824681	-0.026334	0.310332
N51	N	1.677728	-0.197361	-0.000098
H52	H	1.733842	-0.265272	-0.000102
H53	H	1.695378	-0.145309	-0.084834
N54	N	1.170368	0.472834	-0.130840
H55	H	1.101943	0.496390	-0.194024
H56	H	1.230548	0.547613	-0.108013
N57	N	1.734758	-0.409942	-0.000125
H58	H	1.752521	-0.357905	-0.084859
H59	H	1.752431	-0.357969	0.084666
N60	N	1.801866	0.030011	0.623538
H61	H	1.809056	0.106635	0.681227
H62	H	1.824529	-0.040518	0.681140
N63	N	1.139997	-0.047565	-0.000012
H64	H	1.071916	-0.119227	-0.000012
H65	H	1.194251	-0.051007	-0.084729
N66	N	0.930261	0.466726	0.130571
H67	H	1.003289	0.493909	0.193746
H68	H	0.883396	0.538764	0.107727
