data_functionalizedCrystal
_audit_creation_method	'MofGen! by Chris Wilmer'
_symmetry_space_group_name_H-M	'P1'
_symmetry_Int_Tables_number	1
_symmetry_cell_setting	triclinic
loop_
_symmetry_equiv_pos_as_xyz
  x,y,z
_cell_length_a	8.597340
_cell_length_b	6.394989
_cell_length_c	7.088929
_cell_angle_alpha	96.401883
_cell_angle_beta	103.954719
_cell_angle_gamma	94.092678
loop_
_atom_site_label
_atom_site_type_symbol
_atom_site_fract_x
_atom_site_fract_y
_atom_site_fract_z
O1	O	2.107138	-0.286851	0.188135
O2	O	1.643141	-0.320947	0.111698
O3	O	1.881726	0.000177	0.151000
O4	O	1.868554	-0.607975	0.148833
O5	O	1.913608	0.043189	0.474227
O6	O	1.675024	-0.277935	0.434925
O7	O	2.139021	-0.243839	0.511362
Cu8	Cu	1.909933	-0.256960	0.502657
Cu9	Cu	1.872229	-0.307826	0.120403
O10	O	1.900436	-0.564963	0.472060
C11	C	1.599594	-0.298176	0.263512
C12	C	1.422336	-0.294380	0.234311
C13	C	2.182568	-0.266611	0.359544
C14	C	2.359824	-0.270409	0.388733
C15	C	1.895062	0.099499	0.312177
C16	C	1.887102	0.335719	0.310864
N17	N	1.936464	-0.221182	0.771515
N18	N	1.845710	-0.343588	-0.148453
H19	H	1.340238	-0.312000	0.079746
H20	H	1.751653	-0.470436	0.754407
H21	H	2.030539	-0.094340	0.868668
H22	H	1.441914	-0.252775	0.543288
