data_functionalizedCrystal
_audit_creation_method	'MofGen! by Chris Wilmer'
_symmetry_space_group_name_H-M	'P1'
_symmetry_Int_Tables_number	1
_symmetry_cell_setting	triclinic
loop_
_symmetry_equiv_pos_as_xyz
  x,y,z
_cell_length_a	16.959455
_cell_length_b	16.959454
_cell_length_c	18.215399
_cell_angle_alpha	90.023696
_cell_angle_beta	90.024615
_cell_angle_gamma	90.017095
loop_
_atom_site_label
_atom_site_type_symbol
_atom_site_fract_x
_atom_site_fract_y
_atom_site_fract_z
Zn1	Zn	1.208417	-0.314752	0.416232
Zn2	Zn	1.541750	0.018581	0.749565
Zn3	Zn	1.875084	0.351914	1.082898
Zn4	Zn	1.208330	-0.446938	0.293174
Zn5	Zn	1.541663	-0.113605	0.626508
Zn6	Zn	1.874996	0.219729	0.959841
Zn7	Zn	1.076236	-0.314770	0.293169
Zn8	Zn	1.409569	0.018563	0.626502
Zn9	Zn	1.742902	0.351896	0.959835
Zn10	Zn	1.076210	-0.446886	0.416189
Zn11	Zn	1.409543	-0.113553	0.749522
Zn12	Zn	1.742877	0.219781	1.082856
O13	O	1.142298	-0.380837	0.354691
O14	O	1.475631	-0.047503	0.688024
O15	O	1.808965	0.285830	1.021358
O16	O	1.319016	-0.332301	0.399928
O17	O	1.652350	0.001032	0.733261
O18	O	1.985683	0.334365	1.066595
O19	O	1.190781	-0.429435	0.190189
O20	O	1.524115	-0.096101	0.523523
O21	O	1.857448	0.237232	0.856856
O22	O	1.093817	-0.204157	0.309509
O23	O	1.427150	0.129176	0.642842
O24	O	1.760484	0.462510	0.976175
O25	O	1.318952	-0.429417	0.309518
O26	O	1.652285	-0.096084	0.642852
O27	O	1.985619	0.237249	0.976185
O28	O	1.190930	-0.204144	0.399922
O29	O	1.524263	0.129189	0.733256
O30	O	1.857597	0.462523	1.066589
O31	O	1.093732	-0.332332	0.190185
O32	O	1.427066	0.001001	0.523518
O33	O	1.760399	0.334335	0.856852
O34	O	0.965621	-0.332282	0.309467
O35	O	1.298955	0.001052	0.642801
O36	O	1.632288	0.334385	0.976134
O37	O	1.093773	-0.429329	0.519179
O38	O	1.427107	-0.095996	0.852512
O39	O	1.760440	0.237338	1.185846
O40	O	0.965603	-0.429346	0.399850
O41	O	1.298936	-0.096013	0.733183
O42	O	1.632269	0.237320	1.066517
O43	O	1.190905	-0.332251	0.519210
O44	O	1.524239	0.001082	0.852544
O45	O	1.857572	0.334416	1.185877
O46	O	1.190756	-0.557542	0.309477
O47	O	1.524090	-0.224209	0.642810
O48	O	1.857423	0.109125	0.976144
O49	O	1.093689	-0.557504	0.399855
O50	O	1.427022	-0.224170	0.733189
O51	O	1.760355	0.109163	1.066522
C52	C	0.936932	-0.380811	0.354654
C53	C	1.270265	-0.047478	0.687987
C54	C	1.603598	0.285856	1.021320
C55	C	0.849075	-0.380819	0.354655
C56	C	1.182408	-0.047486	0.687989
C57	C	1.515742	0.285848	1.021322
C58	C	1.142232	-0.586203	0.354678
C59	C	1.475565	-0.252870	0.688012
C60	C	1.808898	0.080464	1.021345
C61	C	1.142276	-0.674060	0.354698
C62	C	1.475609	-0.340726	0.688031
C63	C	1.808942	-0.007393	1.021364
C64	C	0.477556	-0.431355	0.307591
C65	C	0.810889	-0.098022	0.640924
C66	C	1.144222	0.235312	0.974257
C67	C	0.477644	-0.330384	0.401881
C68	C	0.810977	0.002949	0.735214
C69	C	1.144310	0.336283	1.068547
C70	C	0.560190	-0.330371	0.401863
C71	C	0.893523	0.002962	0.735196
C72	C	1.226856	0.336296	1.068529
C73	C	0.601422	-0.380852	0.354709
C74	C	0.934756	-0.047518	0.688042
C75	C	1.268089	0.285815	1.021376
C76	C	0.560109	-0.431345	0.307573
C77	C	0.893442	-0.098012	0.640906
C78	C	1.226776	0.235322	0.974239
C79	C	0.601509	-0.279884	0.449003
C80	C	0.934842	0.053449	0.782337
C81	C	1.268176	0.386783	1.115670
C82	C	0.684060	-0.279870	0.448988
C83	C	1.017393	0.053464	0.782321
C84	C	1.350726	0.386797	1.115655
C85	C	0.725294	-0.330347	0.401830
C86	C	1.058627	0.002987	0.735163
C87	C	1.391961	0.336320	1.068496
C88	C	0.683976	-0.380842	0.354691
C89	C	1.017309	-0.047508	0.688024
C90	C	1.350642	0.285825	1.021358
C91	C	0.725208	-0.431322	0.307537
C92	C	1.058542	-0.097989	0.640870
C93	C	1.391875	0.235344	0.974204
C94	C	0.683892	-0.481814	0.260394
C95	C	1.017225	-0.148481	0.593728
C96	C	1.350558	0.184853	0.927061
C97	C	0.601343	-0.481822	0.260415
C98	C	0.934677	-0.148489	0.593748
C99	C	1.268010	0.184844	0.927081
C100	C	0.807842	-0.330338	0.401809
C101	C	1.141176	0.002995	0.735143
C102	C	1.474509	0.336328	1.068476
C103	C	0.807762	-0.431312	0.307519
C104	C	1.141095	-0.097979	0.640853
C105	C	1.474429	0.235354	0.974186
C106	C	1.091828	-1.045545	0.401746
C107	C	1.425162	-0.712212	0.735079
C108	C	1.758495	-0.378879	1.068412
C109	C	1.192988	-1.045525	0.307711
C110	C	1.526321	-0.712192	0.641044
C111	C	1.859655	-0.378858	0.974378
C112	C	1.192960	-0.962979	0.307704
C113	C	1.526294	-0.629646	0.641037
C114	C	1.859627	-0.296312	0.974371
C115	C	1.142365	-0.921712	0.354718
C116	C	1.475698	-0.588379	0.688051
C117	C	1.809032	-0.255046	1.021385
C118	C	1.091797	-0.962992	0.401739
C119	C	1.425131	-0.629658	0.735072
C120	C	1.758464	-0.296325	1.068406
C121	C	1.243522	-0.921694	0.260679
C122	C	1.576855	-0.588360	0.594012
C123	C	1.910188	-0.255027	0.927346
C124	C	1.243495	-0.839143	0.260670
C125	C	1.576829	-0.505809	0.594003
C126	C	1.910162	-0.172476	0.927336
C127	C	1.192903	-0.797875	0.307688
C128	C	1.526237	-0.464541	0.641021
C129	C	1.859570	-0.131208	0.974355
C130	C	1.142334	-0.839159	0.354711
C131	C	1.475668	-0.505826	0.688045
C132	C	1.809001	-0.172492	1.021378
C133	C	1.091739	-0.797892	0.401725
C134	C	1.425072	-0.464559	0.735059
C135	C	1.758406	-0.131226	1.068392
C136	C	1.041173	-0.839175	0.448753
C137	C	1.374507	-0.505842	0.782086
C138	C	1.707840	-0.172508	1.115420
C139	C	1.041205	-0.921724	0.448757
C140	C	1.374539	-0.588390	0.782091
C141	C	1.707872	-0.255057	1.115424
C142	C	1.192871	-0.715326	0.307684
C143	C	1.526204	-0.381993	0.641017
C144	C	1.859538	-0.048660	0.974350
C145	C	1.091708	-0.715339	0.401718
C146	C	1.425041	-0.382005	0.735052
C147	C	1.758375	-0.048672	1.068385
C148	C	1.348466	-0.380863	0.354729
C149	C	1.681800	-0.047530	0.688062
C150	C	2.015133	0.285804	1.021395
C151	C	1.436323	-0.380874	0.354745
C152	C	1.769656	-0.047541	0.688078
C153	C	2.102989	0.285792	1.021411
C154	C	1.142346	-0.380782	0.546644
C155	C	1.475680	-0.047449	0.879977
C156	C	1.809013	0.285884	1.213311
C157	C	1.142367	-0.380759	0.628443
C158	C	1.475700	-0.047426	0.961776
C159	C	1.809033	0.285908	1.295109
C160	C	1.142386	-0.174668	0.354720
C161	C	1.475719	0.158665	0.688053
C162	C	1.809053	0.491998	1.021386
C163	C	1.142424	-0.086812	0.354732
C164	C	1.475757	0.246521	0.688065
C165	C	1.809090	0.579855	1.021398
C166	C	1.142296	-0.380834	0.163485
C167	C	1.475629	-0.047501	0.496818
C168	C	1.808962	0.285833	0.830151
C169	C	1.142428	-0.380634	0.081686
C170	C	1.475762	-0.047301	0.415019
C171	C	1.809095	0.286032	0.748353
C172	C	1.192961	-0.330163	0.816654
C173	C	1.526295	0.003170	1.149988
C174	C	1.859628	0.336503	1.483321
C175	C	1.192971	-0.330140	0.893513
C176	C	1.526304	0.003193	1.226846
C177	C	1.859638	0.336527	1.560180
C178	C	1.091828	-0.431232	0.893469
C179	C	1.425161	-0.097899	1.226803
C180	C	1.758495	0.235434	1.560136
C181	C	1.091815	-0.431251	0.816612
C182	C	1.425148	-0.097918	1.149945
C183	C	1.758482	0.235416	1.483279
C184	C	1.142386	-0.380717	0.778206
C185	C	1.475720	-0.047384	1.111540
C186	C	1.809053	0.285949	1.444873
C187	C	1.142409	-0.380676	0.931923
C188	C	1.475742	-0.047343	1.265256
C189	C	1.809075	0.285991	1.598589
C190	C	1.142418	-0.380651	1.015256
C191	C	1.475752	-0.047318	1.348590
C192	C	1.809085	0.286015	1.681923
C193	C	1.142376	-0.380741	0.694867
C194	C	1.475709	-0.047407	1.028201
C195	C	1.809042	0.285926	1.361534
H196	H	0.841328	-0.472418	0.269118
H197	H	1.174661	-0.139084	0.602451
H198	H	1.507995	0.194249	0.935784
F199	F	1.246805	-0.276338	0.934429
F200	F	1.580138	0.056995	1.267762
F201	F	1.913472	0.390328	1.601095
F202	F	0.728025	-0.226132	0.499160
F203	F	1.061358	0.107201	0.832493
F204	F	1.394691	0.440534	1.165827
H205	H	0.999974	-0.805566	0.487029
H206	H	1.333308	-0.472233	0.820362
H207	H	1.666641	-0.138900	1.153695
F208	F	1.038012	-0.485014	0.934350
F209	F	1.371346	-0.151680	1.267683
F210	F	1.704679	0.181653	1.601016
H211	H	1.234138	-0.289013	0.785387
H212	H	1.567471	0.044320	1.118720
H213	H	1.900804	0.377653	1.452053
H214	H	1.050625	-0.472418	0.785307
H215	H	1.383958	-0.139084	1.118640
H216	H	1.717292	0.194249	1.451973
F217	F	0.557622	-0.226172	0.499193
F218	F	0.890956	0.107161	0.832526
F219	F	1.224289	0.440494	1.165859
F220	F	0.851811	-0.276609	0.451982
F221	F	1.185144	0.056724	0.785315
F222	F	1.518478	0.390057	1.118648
H223	H	0.717474	-0.522919	0.222005
H224	H	1.050807	-0.189586	0.555339
H225	H	1.384141	0.143747	0.888672
H226	H	1.284708	-0.955299	0.222397
H227	H	1.618041	-0.621966	0.555731
H228	H	1.951374	-0.288632	0.889064
F229	F	0.557366	-0.535555	0.210248
F230	F	0.890699	-0.202222	0.543581
F231	F	1.224033	0.131111	0.876914
F232	F	0.433584	-0.485086	0.257417
F233	F	0.766917	-0.151753	0.590751
F234	F	1.100251	0.181581	0.924084
F235	F	0.433759	-0.276670	0.452069
F236	F	0.767092	0.056663	0.785402
F237	F	1.100426	0.389997	1.118736
H238	H	1.234176	-1.079129	0.269430
H239	H	1.567509	-0.745796	0.602763
H240	H	1.900842	-0.412463	0.936096
F241	F	1.037860	-0.671426	0.451762
F242	F	1.371194	-0.338093	0.785095
F243	F	1.704527	-0.004759	1.118429
H244	H	1.284669	-0.805535	0.222378
H245	H	1.618002	-0.472202	0.555712
H246	H	1.951336	-0.138869	0.889045
H247	H	1.000037	-0.955343	0.487044
H248	H	1.333370	-0.622010	0.820377
H249	H	1.666703	-0.288677	1.153710
H250	H	1.050661	-1.079161	0.440037
H251	H	1.383994	-0.745828	0.773370
H252	H	1.717328	-0.412495	1.106703
H253	H	1.234037	-0.681718	0.269391
H254	H	1.567371	-0.348384	0.602724
H255	H	1.900704	-0.015051	0.936058
