data_functionalizedCrystal
_audit_creation_method	'MofGen! by Chris Wilmer'
_symmetry_space_group_name_H-M	'P1'
_symmetry_Int_Tables_number	1
_symmetry_cell_setting	triclinic
loop_
_symmetry_equiv_pos_as_xyz
  x,y,z
_cell_length_a	15.944493
_cell_length_b	15.944493
_cell_length_c	8.140239
_cell_angle_alpha	90.002357
_cell_angle_beta	89.997844
_cell_angle_gamma	83.475044
loop_
_atom_site_label
_atom_site_type_symbol
_atom_site_fract_x
_atom_site_fract_y
_atom_site_fract_z
O1	O	1.114530	0.108102	-0.136570
O2	O	0.869971	0.121509	-0.136575
O3	O	0.998954	-0.007474	-0.136586
O4	O	0.985547	0.237085	-0.136559
O5	O	0.998947	-0.007475	0.136641
O6	O	0.869964	0.121508	0.136652
O7	O	1.114523	0.108100	0.136657
Zn8	Zn	0.992242	0.114804	0.180035
Zn9	Zn	0.992252	0.114806	-0.179953
O10	O	0.985540	0.237084	0.136668
C11	C	0.838673	0.120961	0.000037
C12	C	0.745424	0.119318	0.000034
C13	C	0.509649	0.195240	0.000041
C14	C	0.459095	0.154297	0.134759
C15	C	0.574704	0.116273	0.000037
C16	C	0.459107	0.154280	-0.134621
C17	C	0.409795	0.113339	0.000032
C18	C	0.525379	0.075352	0.134866
C19	C	0.525394	0.075346	-0.134636
C20	C	0.474873	0.034346	0.000115
C21	C	0.669704	0.117966	0.000041
C22	C	0.314798	0.111640	0.000040
C23	C	0.998403	-0.038769	0.000020
C24	C	0.996760	-0.132018	-0.000001
C25	C	1.072682	-0.367793	0.000032
C26	C	1.031744	-0.418352	-0.134683
C27	C	0.993716	-0.302738	0.000019
C28	C	1.031718	-0.418330	0.134697
C29	C	0.990781	-0.467647	0.000046
C30	C	0.952798	-0.352069	-0.134807
C31	C	0.952784	-0.352043	0.134695
C32	C	0.911788	-0.402569	-0.000054
C33	C	0.995408	-0.207739	0.000003
C34	C	0.989082	-0.562644	0.000051
C35	C	1.145821	0.108649	0.000041
C36	C	1.239069	0.110292	0.000033
C37	C	0.986091	0.268379	0.000058
C38	C	0.987734	0.361627	0.000068
N39	N	0.992242	0.114802	0.425718
N40	N	0.992258	0.114801	-0.425636
H41	H	0.525258	0.263261	0.000175
H42	H	1.065080	-0.447268	0.248581
H43	H	0.554350	0.042023	-0.248541
O44	O	0.424523	0.193942	0.270747
C45	C	0.383395	0.136556	0.364649
H46	H	0.411314	0.069301	0.334556
H47	H	0.313126	0.144613	0.334420
C48	C	0.361389	0.236439	0.585671
C49	C	0.395684	0.153835	0.548720
H50	H	0.368965	0.247099	0.699215
H51	H	0.389094	0.275103	0.522406
H52	H	0.302833	0.243143	0.560468
H53	H	0.454240	0.147135	0.573903
H54	H	0.367988	0.115170	0.611994
H55	H	0.919472	-0.323241	-0.248820
H56	H	0.554211	0.042023	0.248872
O57	O	0.456585	-0.046912	0.000274
C58	C	0.532248	-0.102072	0.001633
H59	H	0.585297	-0.067863	0.054006
H60	H	0.548866	-0.123584	-0.129102
C61	C	0.455634	-0.221494	0.044646
C62	C	0.520788	-0.179480	0.108985
H63	H	0.448565	-0.269245	0.110859
H64	H	0.404658	-0.184333	0.043725
H65	H	0.469491	-0.239413	-0.064298
H66	H	0.506926	-0.161553	0.217919
H67	H	0.571762	-0.216641	0.109927
O68	O	1.153829	-0.349167	-0.000445
C69	C	1.195166	-0.383103	-0.142751
H70	H	1.146386	-0.392431	-0.241501
H71	H	1.232393	-0.446478	-0.112021
C72	C	1.315841	-0.310502	-0.085027
C73	C	1.255929	-0.321953	-0.206319
H74	H	1.353325	-0.272785	-0.124237
H75	H	1.287993	-0.287642	0.010850
H76	H	1.346855	-0.363320	-0.059430
H77	H	1.224910	-0.269138	-0.231899
H78	H	1.283773	-0.344804	-0.302203
H79	H	0.843715	-0.418021	-0.000129
H80	H	1.065095	-0.447304	-0.248575
H81	H	0.919461	-0.323076	0.248590
H82	H	0.430164	0.187646	-0.248499
