data_functionalizedCrystal
_audit_creation_method	'MofGen! by Chris Wilmer'
_symmetry_space_group_name_H-M	'P1'
_symmetry_Int_Tables_number	1
_symmetry_cell_setting	triclinic
loop_
_symmetry_equiv_pos_as_xyz
  x,y,z
_cell_length_a	16.992694
_cell_length_b	17.038272
_cell_length_c	16.053802
_cell_angle_alpha	92.751609
_cell_angle_beta	87.249047
_cell_angle_gamma	90.889890
loop_
_atom_site_label
_atom_site_type_symbol
_atom_site_fract_x
_atom_site_fract_y
_atom_site_fract_z
O1	O	1.054593	0.163385	-0.069325
O2	O	0.826187	0.161558	-0.069350
O3	O	0.939032	0.048571	-0.069331
O4	O	0.941748	0.276372	-0.069344
O5	O	0.932819	0.054763	0.069527
O6	O	0.819974	0.167750	0.069508
O7	O	1.048380	0.169577	0.069533
Zn8	Zn	0.933190	0.169646	0.091567
Zn9	Zn	0.941376	0.161489	-0.091384
O10	O	0.935535	0.282564	0.069514
C11	C	0.793711	0.162304	0.000076
C12	C	0.706200	0.155293	0.000067
C13	C	0.660472	0.222933	0.000064
C14	C	0.578245	0.216342	0.000076
C15	C	0.541748	0.142110	0.000085
C16	C	0.587482	0.074465	0.000091
C17	C	0.669707	0.081057	0.000085
C18	C	0.296327	0.114789	0.000109
C19	C	0.214096	0.108201	0.000112
C20	C	0.204864	0.250079	0.000099
C21	C	0.287091	0.256665	0.000088
C22	C	0.332818	0.189020	0.000098
N23	N	0.457699	0.135371	0.000094
N24	N	0.416865	0.195760	0.000095
C25	C	0.933456	0.022384	0.000098
C26	C	0.926089	-0.064871	0.000097
C27	C	0.993729	-0.110741	0.000105
C28	C	0.986802	-0.192727	0.000096
C29	C	0.912235	-0.228840	0.000085
C30	C	0.844590	-0.182964	0.000075
C31	C	0.851518	-0.100981	0.000077
C32	C	0.887761	-0.476135	0.000071
C33	C	0.880838	-0.558124	0.000071
C34	C	1.023051	-0.567881	0.000091
C35	C	1.029972	-0.485895	0.000099
C36	C	0.962328	-0.440026	0.000084
C37	C	0.905153	-0.312643	0.000079
C38	C	0.969410	-0.356226	0.000084
C39	C	1.080856	0.168831	0.000105
C40	C	1.168367	0.175841	0.000109
C41	C	0.941111	0.308751	0.000084
C42	C	0.948478	0.396006	0.000079
N43	N	0.927609	0.175214	0.216427
N44	N	0.946963	0.155915	-0.216243
C45	C	0.975645	0.127157	0.260129
C46	C	0.971749	0.131060	0.347535
C47	C	0.919820	0.183023	0.391237
C48	C	0.871779	0.231082	0.347529
C49	C	0.875672	0.227175	0.260125
C50	C	0.902815	0.200067	0.652644
C51	C	0.898928	0.203972	0.740055
C52	C	0.998897	0.103948	0.740054
C53	C	1.002788	0.100050	0.652648
C54	C	0.954744	0.148105	0.608948
N55	N	0.915838	0.187015	0.480580
N56	N	0.958723	0.144109	0.519606
H57	H	1.041882	-0.230071	0.000105
H58	H	0.832680	-0.438798	0.000059
H59	H	0.856639	0.246290	0.775633
H60	H	0.820113	-0.587524	0.000076
H61	H	0.783876	-0.212375	0.000061
H62	H	0.333548	0.059707	0.000118
N63	N	0.782418	-0.054135	0.000058
N64	N	0.715844	-0.086387	0.000044
H65	H	0.667040	-0.053304	0.000025
H66	H	0.167624	0.305152	0.000092
N67	N	1.047964	0.054870	0.784706
N68	N	1.044485	0.058362	0.862745
H69	H	1.079138	0.023697	0.894282
H70	H	0.863697	0.239197	0.617070
N71	N	0.531546	0.285443	0.000077
N72	N	0.564142	0.351717	0.000065
H73	H	0.531162	0.400524	0.000067
H74	H	1.030124	-0.326819	0.000074
H75	H	1.090692	-0.456497	0.000108
N76	N	0.828993	-0.349550	0.000085
N77	N	0.806659	-0.391608	0.058616
H78	H	0.752871	-0.417679	0.058620
H79	H	0.316801	0.317112	0.000071
H80	H	1.017934	0.084847	0.224552
N81	N	1.020819	0.081962	0.392162
N82	N	1.067182	0.035572	0.353132
H83	H	1.101840	0.000893	0.384649
H84	H	1.045072	0.057737	0.617067
H85	H	0.829494	0.273389	0.383117
N86	N	0.826596	0.276265	0.215494
N87	N	0.780233	0.322658	0.254522
H88	H	0.745568	0.357328	0.223003
H89	H	0.690181	0.283381	0.000056
H90	H	0.184383	0.047750	0.000119
H91	H	0.557760	0.014024	0.000110
H92	H	1.054449	-0.081343	0.000119
N93	N	1.092152	-0.614723	0.000108
N94	N	1.137916	-0.606225	0.058645
H95	H	1.186723	-0.639306	0.058655
N96	N	0.716421	0.011966	0.000105
N97	N	0.707719	-0.033651	0.058646
H98	H	0.740711	-0.082448	0.058666
