data_functionalizedCrystal
_audit_creation_method	'MofGen! by Chris Wilmer'
_symmetry_space_group_name_H-M	'P1'
_symmetry_Int_Tables_number	1
_symmetry_cell_setting	triclinic
loop_
_symmetry_equiv_pos_as_xyz
  x,y,z
_cell_length_a	23.532407
_cell_length_b	26.809956
_cell_length_c	23.532407
_cell_angle_alpha	90.000335
_cell_angle_beta	82.848678
_cell_angle_gamma	90.003435
loop_
_atom_site_label
_atom_site_type_symbol
_atom_site_fract_x
_atom_site_fract_y
_atom_site_fract_z
O1	O	0.755264	0.041422	0.069127
O2	O	0.589401	0.041438	0.079130
O3	O	0.677334	0.041420	-0.008803
O4	O	0.667331	0.041440	0.157060
O5	O	0.677317	-0.041539	-0.008790
O6	O	0.589384	-0.041522	0.079143
O7	O	0.755247	-0.041537	0.069140
Zn8	Zn	0.672313	-0.054701	0.074144
Zn9	Zn	0.672335	0.054602	0.074126
O10	O	0.667314	-0.041520	0.157073
C11	C	0.568176	-0.000040	0.078882
C12	C	0.504959	-0.000035	0.078116
N13	N	0.672302	-0.129297	0.074156
C14	C	0.105856	-0.000052	0.125350
C15	C	0.046456	-0.000055	0.124638
O16	O	0.009711	-0.000068	0.168424
N17	N	0.023830	-0.000060	0.072362
C18	C	0.060607	-0.000067	0.020794
O19	O	0.035908	-0.000072	-0.023737
C20	C	0.120006	-0.000068	0.021506
C21	C	0.142629	-0.000057	0.073785
C22	C	0.128479	-0.000042	0.177625
C23	C	0.187876	-0.000038	0.178336
C24	C	0.224649	-0.000044	0.126772
C25	C	0.202025	-0.000053	0.074497
C26	C	0.156783	-0.000078	-0.030062
C27	C	0.216185	-0.000079	-0.029345
C28	C	0.238808	-0.000069	0.022934
C29	C	0.298194	-0.000055	0.023643
N30	N	0.320820	-0.000050	0.075920
C31	C	0.284048	-0.000044	0.127484
C32	C	-0.064135	-0.000067	0.019302
C33	C	-0.123533	-0.000063	0.018589
C34	C	-0.137680	-0.000052	0.122434
C35	C	-0.078281	-0.000052	0.123146
C36	C	-0.041509	-0.000062	0.071578
C37	C	0.408784	-0.000035	0.128974
C38	C	0.468186	-0.000029	0.129680
C39	C	0.482329	-0.000043	0.025836
C40	C	0.422932	-0.000047	0.025129
C41	C	0.386160	-0.000044	0.076702
O42	O	0.334974	-0.000044	-0.020119
O43	O	0.308755	-0.000045	0.172007
C44	C	0.711267	-0.473930	0.035199
C45	C	0.711280	-0.682808	0.035190
O46	O	0.744386	-0.709818	0.002071
N47	N	0.672338	-0.708924	0.074114
C48	C	0.633387	-0.682817	0.113040
O49	O	0.600261	-0.709823	0.146142
C50	C	0.633371	-0.473940	0.113045
C51	C	0.672320	-0.447827	0.074123
C52	C	0.750212	-0.447817	-0.003720
C53	C	0.750210	-0.395601	-0.003716
C54	C	0.711263	-0.369498	0.035208
C55	C	0.672318	-0.395611	0.074128
C56	C	0.594418	-0.447834	0.151968
C57	C	0.594417	-0.395612	0.151965
C58	C	0.633365	-0.369499	0.113043
C59	C	0.633370	-0.317291	0.113056
N60	N	0.672312	-0.291176	0.074133
C61	C	0.711259	-0.317279	0.035209
C62	C	0.633399	-0.792480	0.113035
C63	C	0.633404	-0.844699	0.113034
C64	C	0.711296	-0.844687	0.035184
C65	C	0.711294	-0.792467	0.035188
C66	C	0.672341	-0.766365	0.074111
C67	C	0.711253	-0.207621	0.035222
C68	C	0.711249	-0.155400	0.035232
C69	C	0.633355	-0.155417	0.113080
C70	C	0.633360	-0.207633	0.113072
C71	C	0.672311	-0.233734	0.074139
O72	O	0.600277	-0.290249	0.146154
O73	O	0.744372	-0.290264	0.002103
C74	C	0.711269	-0.526147	0.035194
C75	C	0.672324	-0.552260	0.074114
C76	C	0.633377	-0.526157	0.113038
C77	C	0.672328	-0.604479	0.074113
C78	C	0.711275	-0.630582	0.035189
C79	C	0.750217	-0.604466	-0.003734
C80	C	0.750215	-0.552250	-0.003730
C81	C	0.594435	-0.552272	0.151961
C82	C	0.594440	-0.604489	0.151954
C83	C	0.633387	-0.630592	0.113030
C84	C	0.776472	-0.000058	0.069388
C85	C	0.839689	-0.000060	0.070154
C86	C	0.677071	-0.000060	-0.030013
C87	C	0.676305	-0.000064	-0.093230
N88	N	0.672350	0.129198	0.074110
C89	C	0.723539	-0.000041	-0.492333
C90	C	0.722827	-0.000037	-0.551733
O91	O	0.766613	-0.000023	-0.588478
N92	N	0.670551	-0.000033	-0.574359
C93	C	0.618983	-0.000027	-0.537582
O94	O	0.574452	-0.000023	-0.562281
C95	C	0.619695	-0.000027	-0.478182
C96	C	0.671974	-0.000037	-0.455560
C97	C	0.775814	-0.000050	-0.469710
C98	C	0.776525	-0.000055	-0.410313
C99	C	0.724961	-0.000051	-0.373540
C100	C	0.672685	-0.000042	-0.396164
C101	C	0.568127	-0.000018	-0.441406
C102	C	0.568844	-0.000018	-0.382004
C103	C	0.621123	-0.000028	-0.359381
C104	C	0.621832	-0.000042	-0.299995
N105	N	0.674109	-0.000047	-0.277368
C106	C	0.725673	-0.000051	-0.314141
C107	C	0.617491	-0.000026	-0.662324
C108	C	0.616778	-0.000029	-0.721722
C109	C	0.720623	-0.000038	-0.735869
C110	C	0.721335	-0.000039	-0.676470
C111	C	0.669767	-0.000030	-0.639698
C112	C	0.727163	-0.000062	-0.189405
C113	C	0.727869	-0.000068	-0.130003
C114	C	0.624025	-0.000057	-0.115860
C115	C	0.623318	-0.000052	-0.175257
C116	C	0.674891	-0.000053	-0.212029
O117	O	0.578070	-0.000055	-0.263215
O118	O	0.770196	-0.000049	-0.289433
C119	C	0.667577	-0.000038	0.178283
C120	C	0.668343	-0.000031	0.241500
H121	H	0.378851	-0.000035	0.170970
H122	H	0.601650	-0.228895	0.144772
H123	H	-0.167632	-0.000050	0.164421
N124	N	0.792215	-0.367442	-0.045703
H125	H	0.786309	-0.330399	-0.039801
H126	H	0.832576	-0.376569	-0.039328
N127	N	-0.147924	-0.000071	-0.037800
H128	H	-0.172253	-0.030826	-0.040408
H129	H	-0.172224	0.030700	-0.040387
H130	H	0.817806	-0.000052	-0.499645
H131	H	0.781927	-0.469066	-0.035420
H132	H	0.769159	-0.000060	-0.219337
N133	N	0.212272	-0.000024	0.234724
H134	H	0.179956	-0.000021	0.267277
H135	H	0.236607	-0.030777	0.237292
N136	N	-0.024475	-0.000075	-0.036321
H137	H	-0.047826	-0.000078	-0.069542
H138	H	0.000482	0.030678	-0.038296
N139	N	0.492579	-0.000020	0.186073
H140	H	0.516908	-0.030771	0.188691
H141	H	0.516879	0.030755	0.188648
N142	N	0.552426	-0.524128	0.193952
H143	H	0.574042	-0.502464	0.219062
H144	H	0.527338	-0.502491	0.172285
H145	H	0.743009	-0.865949	0.003491
H146	H	0.404512	-0.000048	-0.017441
N147	N	0.753302	-0.764304	-0.006792
H148	H	0.777974	-0.788769	-0.031447
H149	H	0.731644	-0.742642	-0.031863
N150	N	0.777722	-0.000049	-0.652072
H151	H	0.810276	-0.000053	-0.684386
H152	H	0.780289	0.030705	-0.627737
H153	H	0.526850	-0.000011	-0.352066
N154	N	0.591398	-0.872861	0.155017
H155	H	0.566725	-0.848396	0.179671
H156	H	0.566348	-0.894527	0.133337
N157	N	0.832913	-0.000063	-0.385917
H158	H	0.865466	-0.000064	-0.418233
H159	H	0.835479	0.030690	-0.361581
H160	H	0.574207	-0.000030	-0.740136
H161	H	0.138375	-0.000087	-0.072634
N162	N	0.568411	-0.000066	-0.076193
H163	H	0.576799	-0.000071	-0.035132
H164	H	0.545613	0.030689	-0.083476
N165	N	0.792224	-0.632627	-0.045716
H166	H	0.816900	-0.608165	-0.070375
H167	H	0.817273	-0.654291	-0.024035
H168	H	0.601646	-0.134156	0.144773
N169	N	0.521998	-0.000056	-0.029777
H170	H	0.498657	-0.000063	-0.063006
H171	H	0.546955	0.030697	-0.031750
N172	N	0.776241	-0.000043	-0.775538
H173	H	0.767853	-0.000040	-0.816598
H174	H	0.799045	0.030709	-0.768246
N175	N	0.255847	-0.000093	-0.084966
H176	H	0.232498	-0.000100	-0.118189
H177	H	0.280802	0.030661	-0.086943
N178	N	0.753261	-0.127235	-0.006749
H179	H	0.777932	-0.151699	-0.031408
H180	H	0.731604	-0.105569	-0.031816
H181	H	0.575496	-0.000023	-0.632386
N182	N	0.566933	-0.000049	-0.199662
H183	H	0.534375	-0.000049	-0.167351
H184	H	0.564382	0.030709	-0.223993
H185	H	0.601678	-0.771231	0.144732
N186	N	0.753266	-0.235768	-0.006766
H187	H	0.777936	-0.211295	-0.031415
H188	H	0.778319	-0.257430	0.014912
H189	H	0.770443	-0.000077	-0.111587
N190	N	0.552399	-0.475989	0.193940
H191	H	0.558715	-0.466900	0.234332
H192	H	0.512044	-0.466883	0.187520
N193	N	0.552400	-0.367459	0.193945
H194	H	0.527730	-0.391928	0.218599
H195	H	0.574053	-0.345792	0.219018
N196	N	0.511739	-0.000014	-0.465797
H197	H	0.479187	-0.000011	-0.433480
H198	H	0.509182	0.030740	-0.490133
H199	H	0.098544	-0.000039	0.219617
N200	N	0.792224	-0.524089	-0.045710
H201	H	0.816893	-0.548555	-0.070366
H202	H	0.770568	-0.502425	-0.070780
H203	H	-0.059867	-0.000047	0.165717
H204	H	0.562724	-0.625746	0.183654
