data_functionalizedCrystal
_audit_creation_method	'MofGen! by Chris Wilmer'
_symmetry_space_group_name_H-M	'P1'
_symmetry_Int_Tables_number	1
_symmetry_cell_setting	triclinic
loop_
_symmetry_equiv_pos_as_xyz
  x,y,z
_cell_length_a	25.639242
_cell_length_b	21.295417
_cell_length_c	21.295411
_cell_angle_alpha	89.978356
_cell_angle_beta	90.033308
_cell_angle_gamma	89.973967
loop_
_atom_site_label
_atom_site_type_symbol
_atom_site_fract_x
_atom_site_fract_y
_atom_site_fract_z
Zn1	Zn	0.799312	0.250756	0.356058
Zn2	Zn	0.799231	0.356008	0.250784
Zn3	Zn	0.711872	0.250748	0.250787
Zn4	Zn	0.711846	0.355983	0.355999
O5	O	0.755565	0.303374	0.303407
O6	O	0.872467	0.264731	0.342117
O7	O	0.787620	0.342052	0.162695
O8	O	0.723515	0.162660	0.264778
O9	O	0.872407	0.342060	0.264772
O10	O	0.787758	0.162666	0.342120
O11	O	0.723437	0.264718	0.162697
O12	O	0.638703	0.264694	0.264721
O13	O	0.723472	0.342017	0.444097
O14	O	0.638684	0.342010	0.342020
O15	O	0.787733	0.264707	0.444140
O16	O	0.787595	0.444094	0.264715
O17	O	0.723393	0.444076	0.342016
C18	C	0.619723	0.303349	0.303364
C19	C	0.561609	0.303354	0.303361
C20	C	0.755497	0.466925	0.303372
C21	C	0.755515	0.536894	0.303378
C22	C	0.755648	0.139184	0.303456
C23	C	0.755684	0.069215	0.303477
C24	C	0.201245	0.343699	0.343619
C25	C	0.146641	0.343703	0.343628
O26	O	0.118403	0.377976	0.377821
N27	N	0.119326	0.303391	0.303448
C28	C	0.146619	0.263068	0.263260
O29	O	0.118372	0.228780	0.229085
C30	C	0.201222	0.263062	0.263254
C31	C	0.228534	0.303381	0.303432
C32	C	0.228556	0.384015	0.383794
C33	C	0.283157	0.384011	0.383783
C34	C	0.310446	0.343693	0.343597
C35	C	0.283134	0.303378	0.303421
C36	C	0.228514	0.222736	0.223069
C37	C	0.283121	0.222732	0.223067
C38	C	0.310433	0.263052	0.263245
C39	C	0.365024	0.263056	0.263224
N40	N	0.392338	0.303368	0.303404
C41	C	0.365049	0.343686	0.343590
C42	C	0.031949	0.263084	0.263277
C43	C	-0.022654	0.263093	0.263280
C44	C	-0.022629	0.343728	0.343649
C45	C	0.031975	0.343721	0.343643
C46	C	0.059263	0.303396	0.303457
C47	C	0.479714	0.343677	0.343564
C48	C	0.534320	0.343672	0.343548
C49	C	0.534290	0.263036	0.263181
C50	C	0.479689	0.263043	0.263195
C51	C	0.452403	0.303365	0.303391
O52	O	0.393296	0.228799	0.229051
O53	O	0.393303	0.377963	0.377766
C54	C	0.891938	0.303399	0.303450
C55	C	0.950052	0.303410	0.303469
C56	C	0.755609	0.303361	0.467597
C57	C	0.755627	0.303355	0.537566
C58	C	0.788975	0.569749	0.263169
C59	C	0.788999	0.635491	0.263183
C60	C	0.755555	0.668376	0.303400
C61	C	0.722093	0.635513	0.343618
C62	C	0.722073	0.569772	0.343607
N63	N	0.709817	0.771638	0.308185
N64	N	0.709838	0.834090	0.308191
C65	C	0.755614	0.866451	0.303436
N66	N	0.801369	0.834001	0.298662
N67	N	0.801348	0.771544	0.298652
C68	C	0.755573	0.739661	0.303417
C69	C	0.789102	0.970591	0.263240
C70	C	0.789128	1.036335	0.263258
C71	C	0.722217	1.036356	0.343690
C72	C	0.722196	0.970613	0.343674
C73	C	0.755638	0.937735	0.303446
C74	C	0.755552	0.303342	0.139856
C75	C	0.755635	0.303170	0.069888
C76	C	0.789086	0.263098	0.570456
C77	C	0.789086	0.263071	0.636198
C78	C	0.755631	0.303312	0.669048
C79	C	0.722166	0.343571	0.636150
C80	C	0.722163	0.343593	0.570409
N81	N	0.751597	0.358379	0.772263
N82	N	0.751602	0.358357	0.834714
C83	C	0.755635	0.303248	0.867123
N84	N	0.759672	0.248161	0.834721
N85	N	0.759670	0.248184	0.772264
C86	C	0.755630	0.303292	0.740334
C87	C	0.789095	0.262958	0.971299
C88	C	0.789090	0.262929	1.037043
C89	C	0.722173	0.343436	1.036993
C90	C	0.722175	0.343459	0.971250
C91	C	0.755638	0.303220	0.938407
H92	H	0.556554	0.376507	0.376266
H93	H	0.816336	0.230143	1.063821
F94	F	0.824700	0.220270	0.535505
H95	H	-0.044886	0.230268	0.230556
H96	H	0.054208	0.376552	0.376361
H97	H	0.556518	0.230211	0.230460
F98	F	0.686501	0.670512	0.386422
H99	H	0.694928	0.376194	1.063739
H100	H	-0.044857	0.376555	0.376373
F101	F	0.686460	0.534804	0.386405
H102	H	0.694932	0.376244	0.944471
F103	F	0.060986	0.220166	0.220499
H104	H	0.816334	0.943821	0.230485
F105	F	0.824707	0.220131	0.936342
F106	F	0.824612	0.670465	0.220384
F107	F	0.824745	1.071302	0.220464
F108	F	0.199459	0.179819	0.180308
F109	F	0.824690	0.220211	0.671210
H110	H	0.457504	0.376510	0.376297
H111	H	0.305389	0.416842	0.416502
H112	H	0.457451	0.230213	0.230477
F113	F	0.199521	0.426930	0.426570
H114	H	0.305337	0.189890	0.190346
H115	H	0.816206	0.542981	0.230414
F116	F	0.686626	1.071350	0.386496
F117	F	0.686559	0.386397	0.671112
H118	H	0.694948	0.943861	0.376414
F119	F	0.686550	0.386442	0.535404
