data_functionalizedCrystal
_audit_creation_method	'MofGen! by Chris Wilmer'
_symmetry_space_group_name_H-M	'P1'
_symmetry_Int_Tables_number	1
_symmetry_cell_setting	triclinic
loop_
_symmetry_equiv_pos_as_xyz
  x,y,z
_cell_length_a	17.699083
_cell_length_b	14.044220
_cell_length_c	16.776229
_cell_angle_alpha	89.992645
_cell_angle_beta	89.998886
_cell_angle_gamma	88.235946
loop_
_atom_site_label
_atom_site_type_symbol
_atom_site_fract_x
_atom_site_fract_y
_atom_site_fract_z
O1	O	1.012346	0.119850	-0.066178
O2	O	0.793043	0.135443	-0.066204
O3	O	0.899403	-0.010330	-0.066183
O4	O	0.905986	0.265624	-0.066198
O5	O	0.899387	-0.010339	0.066393
O6	O	0.793027	0.135434	0.066372
O7	O	1.012330	0.119841	0.066399
Zn8	Zn	0.902676	0.127636	0.087435
Zn9	Zn	0.902697	0.127648	-0.087240
O10	O	0.905970	0.265615	0.066378
C11	C	0.764800	0.134880	0.000081
C12	C	0.680666	0.133204	0.000071
C13	C	0.637948	0.218769	0.000067
C14	C	0.558895	0.217189	0.000077
C15	C	0.522563	0.130041	0.000086
C16	C	0.565287	0.044469	0.000093
C17	C	0.644338	0.046050	0.000088
C18	C	0.246484	0.038089	0.000113
C19	C	0.167427	0.036514	0.000115
C20	C	0.161041	0.209227	0.000102
C21	C	0.240092	0.210809	0.000097
C22	C	0.282809	0.125237	0.000108
C23	C	0.368527	0.126952	0.000098
C24	C	0.436847	0.128325	0.000090
C25	C	0.896513	-0.045643	0.000105
C26	C	0.887917	-0.150849	0.000105
C27	C	0.872202	-0.343474	0.000091
C28	C	0.933168	-0.401248	0.000096
C29	C	0.924424	-0.508431	0.000089
C30	C	0.880945	-0.236281	0.000099
C31	C	1.040574	0.120404	0.000112
C32	C	1.124707	0.122081	0.000117
C33	C	0.908860	0.300927	0.000088
C34	C	0.917456	0.406133	0.000083
N35	N	0.902667	0.127628	0.206646
N36	N	0.902712	0.127649	-0.206452
C37	C	0.949781	0.063106	0.248372
C38	C	0.949785	0.063105	0.331825
C39	C	0.902679	0.127631	0.373549
C40	C	0.855560	0.192156	0.331817
C41	C	0.855552	0.192152	0.248366
C42	C	0.855589	0.192175	0.668364
C43	C	0.855601	0.192176	0.751821
C44	C	0.949821	0.063128	0.751822
C45	C	0.949813	0.063123	0.668372
C46	C	0.902692	0.127645	0.626647
C47	C	0.902687	0.127644	0.536159
C48	C	0.902687	0.127638	0.464036
H49	H	0.679119	-0.023626	0.000091
O50	O	0.809724	0.254761	0.792318
C51	C	0.681890	0.310519	0.817836
C52	C	0.733753	0.239580	0.771937
H53	H	0.620458	0.298283	0.801362
H54	H	0.689928	0.299439	0.884656
H55	H	0.696901	0.386408	0.801426
H56	H	0.718775	0.163663	0.788280
H57	H	0.725707	0.250743	0.705128
O58	O	1.003217	-0.364073	0.000148
C59	C	1.075910	-0.221792	0.000127
C60	C	0.996541	-0.263771	0.000084
H61	H	1.070540	-0.140693	0.000059
H62	H	1.107976	-0.246760	0.055629
H63	H	1.107979	-0.246858	-0.055337
H64	H	0.964409	-0.238724	0.055511
H65	H	0.964533	-0.238808	-0.055454
H66	H	0.817222	0.244712	0.634398
O67	O	0.809871	0.254802	0.372469
C68	C	0.768094	0.311971	0.501026
C69	C	0.819885	0.240985	0.455090
H70	H	0.776161	0.300811	0.567832
H71	H	0.783076	0.387886	0.484662
H72	H	0.706656	0.299725	0.484581
H73	H	0.881339	0.253144	0.471510
H74	H	0.804839	0.165095	0.471457
O75	O	0.275505	0.295381	0.000043
C76	C	0.394456	0.374361	0.000059
C77	C	0.354450	0.278516	0.000104
H78	H	0.458289	0.360759	0.000125
H79	H	0.377388	0.416645	-0.055443
H80	H	0.377299	0.416642	0.055523
H81	H	0.371586	0.236158	-0.055323
H82	H	0.371519	0.236304	0.055642
H83	H	0.813445	-0.374508	0.000082
H84	H	0.281255	-0.031590	0.000123
O85	O	0.673358	0.303343	0.000020
C86	C	0.792305	0.382332	0.000050
C87	C	0.752303	0.286484	0.000084
H88	H	0.856139	0.368735	0.000119
H89	H	0.775238	0.424623	-0.055448
H90	H	0.775143	0.424604	0.055519
H91	H	0.769444	0.244135	-0.055347
H92	H	0.769371	0.244265	0.055618
H93	H	0.137848	-0.034456	0.000124
H94	H	0.988143	0.010565	0.214406
O95	O	0.995631	0.000403	0.372234
C96	C	1.089075	-0.127614	0.363429
C97	C	1.037199	-0.056642	0.317567
H98	H	1.122685	-0.173767	0.319251
H99	H	1.129686	-0.086788	0.402462
H100	H	1.053212	-0.174874	0.402535
H101	H	1.073001	-0.009364	0.278418
H102	H	0.996584	-0.097527	0.278584
H103	H	0.817187	0.244691	0.214394
O104	O	0.995594	0.000350	0.627965
C105	C	1.089079	-0.127621	0.636777
C106	C	1.037260	-0.056592	0.682634
H107	H	1.122792	-0.173664	0.680956
H108	H	1.053242	-0.174982	0.597741
H109	H	1.129607	-0.086746	0.597673
H110	H	0.996723	-0.097389	0.721781
H111	H	1.073144	-0.009232	0.721619
H112	H	0.988187	0.010588	0.785804
O113	O	0.517513	0.300395	0.000036
C114	C	0.519521	0.471876	0.000067
C115	C	0.566477	0.377712	0.000092
H116	H	0.559088	0.534411	0.000129
H117	H	0.482365	0.475522	-0.055425
H118	H	0.482338	0.475401	0.055542
H119	H	0.603703	0.374124	-0.055345
H120	H	0.603584	0.374105	0.055621
H121	H	0.126251	0.278904	0.000097
H122	H	0.535699	-0.026488	0.000112
