data_functionalizedCrystal
_audit_creation_method	'MofGen! by Chris Wilmer'
_symmetry_space_group_name_H-M	'P1'
_symmetry_Int_Tables_number	1
_symmetry_cell_setting	triclinic
loop_
_symmetry_equiv_pos_as_xyz
  x,y,z
_cell_length_a	10.685904
_cell_length_b	10.686285
_cell_length_c	18.215399
_cell_angle_alpha	85.606976
_cell_angle_beta	85.608965
_cell_angle_gamma	89.665902
loop_
_atom_site_label
_atom_site_type_symbol
_atom_site_fract_x
_atom_site_fract_y
_atom_site_fract_z
Zn1	Zn	1.956281	-0.352428	-0.487970
Zn2	Zn	1.972297	-0.562226	-0.356261
Zn3	Zn	1.746510	-0.368550	-0.354807
Zn4	Zn	1.762591	-0.578214	-0.469184
O5	O	1.859420	-0.465355	-0.417056
O6	O	2.133958	-0.366819	-0.478969
O7	O	1.942318	-0.536591	-0.253080
O8	O	1.760903	-0.190865	-0.379725
O9	O	2.145725	-0.520957	-0.382202
O10	O	1.915021	-0.179020	-0.477559
O11	O	1.776433	-0.394298	-0.252012
O12	O	1.573090	-0.409801	-0.361509
O13	O	1.788312	-0.548207	-0.574664
O14	O	1.584905	-0.563840	-0.445542
O15	O	1.930615	-0.382323	-0.588466
O16	O	1.957912	-0.739893	-0.363987
O17	O	1.803842	-0.751640	-0.446951
C18	C	1.533479	-0.490306	-0.401330
C19	C	1.394043	-0.501011	-0.394618
C20	C	1.884394	-0.791281	-0.403606
C21	C	1.895193	-0.930705	-0.397882
C22	C	2.186633	-0.440307	-0.432843
C23	C	2.326072	-0.429633	-0.439571
C24	C	1.859471	-0.465250	-0.609016
C25	C	1.859493	-0.465205	-0.690818
C26	C	1.834382	-0.138153	-0.430576
C27	C	1.823712	0.001281	-0.436337
C28	C	1.773181	-0.391054	-0.878462
C29	C	1.773200	-0.391027	-0.955323
C30	C	1.945944	-0.539195	-0.956424
C31	C	1.945918	-0.539228	-0.879564
C32	C	1.859537	-0.465150	-0.840586
C33	C	1.859584	-0.465090	-0.994306
C34	C	1.859606	-0.465062	-1.077642
C35	C	1.859513	-0.465180	-0.757244
C36	C	1.859434	-0.465363	-0.225850
C37	C	1.859628	-0.465036	-0.144074
H38	H	1.754254	-0.950286	-0.473640
H39	H	2.016243	-0.599571	-0.848725
Br40	Br	2.010953	-1.011432	-0.335691
H41	H	1.374559	-0.360327	-0.483190
H42	H	2.016273	-0.599506	-0.988171
H43	H	1.702879	-0.330692	-0.986158
Br44	Br	1.313242	-0.616503	-0.321908
Br45	Br	1.655948	-0.290523	-0.825564
