data_functionalizedCrystal
_audit_creation_method	'MofGen! by Chris Wilmer'
_symmetry_space_group_name_H-M	'P1'
_symmetry_Int_Tables_number	1
_symmetry_cell_setting	triclinic
loop_
_symmetry_equiv_pos_as_xyz
  x,y,z
_cell_length_a	18.101395
_cell_length_b	16.625548
_cell_length_c	16.625539
_cell_angle_alpha	90.020568
_cell_angle_beta	89.972352
_cell_angle_gamma	89.967828
loop_
_atom_site_label
_atom_site_type_symbol
_atom_site_fract_x
_atom_site_fract_y
_atom_site_fract_z
Zn1	Zn	-0.294807	-1.232632	-0.455913
Zn2	Zn	-0.418656	-1.232515	-0.321082
Zn3	Zn	-0.294835	-1.097794	-0.321094
Zn4	Zn	-0.418614	-1.097744	-0.455872
O5	O	-0.356728	-1.165171	-0.388490
O6	O	-0.311242	-1.345449	-0.438040
O7	O	-0.402261	-1.214616	-0.208251
O8	O	-0.191199	-1.115750	-0.339000
O9	O	-0.402233	-1.345363	-0.338980
O10	O	-0.191178	-1.214815	-0.438051
O11	O	-0.311290	-1.115637	-0.208260
O12	O	-0.311249	-0.984955	-0.338960
O13	O	-0.402161	-1.115665	-0.568710
O14	O	-0.402188	-0.984918	-0.437981
O15	O	-0.311201	-1.214767	-0.568740
O16	O	-0.522284	-1.214567	-0.338940
O17	O	-0.522252	-1.115552	-0.437969
C18	C	-0.356718	-0.955680	-0.388467
C19	C	-0.356731	-0.866059	-0.388477
C20	C	-0.549139	-1.165063	-0.388466
C21	C	-0.631453	-1.165091	-0.388483
C22	C	-0.356673	-1.165224	-0.598799
C23	C	-0.356649	-1.165246	-0.688420
C24	C	-0.930544	-1.165268	-0.388527
C25	C	-0.899230	-1.103114	-0.450988
C26	C	-0.813612	-1.102819	-0.450793
C27	C	-0.782161	-1.165180	-0.388506
C28	C	-0.813313	-1.142173	-0.303528
C29	C	-0.898959	-1.141772	-0.303901
C30	C	-0.898886	-1.250565	-0.410295
C31	C	-0.813235	-1.250063	-0.412159
C32	C	-0.698302	-1.165132	-0.388489
C33	C	-1.014403	-1.165314	-0.388538
C34	C	-0.163566	-1.165302	-0.388531
C35	C	-0.081252	-1.165357	-0.388549
C36	C	-0.356739	-1.375480	-0.388513
C37	C	-0.356744	-1.465101	-0.388523
C38	C	-0.356736	-0.537884	-0.388511
C39	C	-0.356732	-0.629192	-0.388499
C40	C	-0.356734	-0.701969	-0.388494
C41	C	-0.356729	-0.793283	-0.388483
C42	C	-0.356567	-1.165283	-1.016596
C43	C	-0.356592	-1.165271	-0.925287
C44	C	-0.356609	-1.165265	-0.852511
C45	C	-0.356633	-1.165252	-0.761197
C46	C	-0.356730	-1.165165	-0.178999
C47	C	-0.356545	-1.165299	-0.089378
H48	H	-0.792547	-1.117214	-0.513803
H49	H	-0.919003	-1.079421	-0.285461
N50	N	-0.926298	-1.024274	-0.433146
N51	N	-0.963808	-0.986988	-0.484067
H52	H	-0.982924	-0.931306	-0.471466
H53	H	-0.919777	-1.117366	-0.514202
N54	N	-0.787666	-1.271844	-0.490600
N55	N	-0.749709	-1.333980	-0.499965
H56	H	-0.731644	-1.349362	-0.555363
H57	H	-0.919675	-1.185078	-0.255776
N58	N	-0.787759	-1.197182	-0.243559
N59	N	-0.746202	-1.254091	-0.262828
H60	H	-0.728153	-1.292944	-0.220476
H61	H	-0.791822	-1.298821	-0.369981
N62	N	-0.787998	-1.023502	-0.432706
N63	N	-0.833374	-0.968193	-0.420182
H64	H	-0.815286	-0.912171	-0.407406
N65	N	-0.924287	-1.308648	-0.353218
N66	N	-0.965524	-1.287427	-0.296730
H67	H	-0.983467	-1.328441	-0.256415
N68	N	-0.786484	-1.064783	-0.279985
N69	N	-0.744429	-1.026440	-0.325644
H70	H	-0.725480	-0.971781	-0.309021
N71	N	-0.925924	-1.276873	-0.486704
N72	N	-0.968861	-1.233071	-0.526046
H73	H	-0.987960	-1.251644	-0.580013
