data_functionalizedCrystal
_audit_creation_method	'MofGen! by Chris Wilmer'
_symmetry_space_group_name_H-M	'P1'
_symmetry_Int_Tables_number	1
_symmetry_cell_setting	triclinic
loop_
_symmetry_equiv_pos_as_xyz
  x,y,z
_cell_length_a	13.032831
_cell_length_b	16.625546
_cell_length_c	13.034356
_cell_angle_alpha	82.786847
_cell_angle_beta	74.815040
_cell_angle_gamma	82.826778
loop_
_atom_site_label
_atom_site_type_symbol
_atom_site_fract_x
_atom_site_fract_y
_atom_site_fract_z
Zn1	Zn	1.700143	-0.408762	-0.806413
Zn2	Zn	1.677440	-0.558798	-0.628773
Zn3	Zn	1.499948	-0.408769	-0.606296
Zn4	Zn	1.522474	-0.528336	-0.783828
O5	O	1.600001	-0.476167	-0.706328
O6	O	1.845768	-0.441411	-0.801708
O7	O	1.634967	-0.551648	-0.477151
O8	O	1.526579	-0.295939	-0.632887
O9	O	1.829088	-0.551642	-0.671196
O10	O	1.673661	-0.295934	-0.779913
O11	O	1.504564	-0.441423	-0.460637
O12	O	1.354300	-0.411884	-0.610987
O13	O	1.564970	-0.499722	-0.935465
O14	O	1.370849	-0.499729	-0.741419
O15	O	1.695503	-0.411872	-0.952058
O16	O	1.656809	-0.667587	-0.649296
O17	O	1.542956	-0.645206	-0.763215
C18	C	1.324035	-0.452502	-0.671314
C19	C	1.205978	-0.442396	-0.656360
C20	C	1.161549	-0.481441	-0.714132
C21	C	1.039531	-0.470997	-0.698678
C22	C	1.599895	-0.685653	-0.706270
C23	C	1.599951	-0.775277	-0.706294
C24	C	1.600151	-1.103459	-0.706428
C25	C	1.600092	-1.012148	-0.706393
C26	C	1.600050	-0.939371	-0.706360
C27	C	1.599993	-0.848054	-0.706327
C28	C	1.877045	-0.499924	-0.741479
C29	C	1.995105	-0.510047	-0.756458
C30	C	1.635282	-0.452399	-0.983380
C31	C	1.650317	-0.442270	-1.101444
C32	C	1.600140	-0.265863	-0.706412
C33	C	1.600199	-0.176244	-0.706448
C34	C	1.607970	-0.470758	-1.267894
C35	C	1.592429	-0.481226	-1.145870
C36	C	1.564919	-0.499789	-0.430361
C37	C	1.550090	-0.509708	-0.312324
H38	H	1.153684	-0.401232	-0.595463
H39	H	1.213844	-0.522598	-0.775037
C40	C	1.408199	-0.508022	-1.088685
C41	C	1.509997	-0.536717	-1.075287
H42	H	1.357316	-0.542285	-1.045116
H43	H	1.390397	-0.454070	-1.068595
H44	H	1.407844	-0.508264	-1.161432
H45	H	1.510355	-0.536470	-1.002541
H46	H	1.527804	-0.590683	-1.095372
H47	H	1.489035	-0.550808	-1.260024
C48	C	0.861733	-0.415855	-0.617038
C49	C	0.968946	-0.415440	-0.616440
H50	H	0.818158	-0.381564	-0.566259
H51	H	0.852717	-0.396463	-0.686143
H52	H	0.841610	-0.469821	-0.599097
H53	H	0.989072	-0.361475	-0.634388
H54	H	0.977968	-0.434828	-0.547319
C55	C	1.172900	-0.565209	-0.838081
C56	C	1.065686	-0.565616	-0.838683
H57	H	1.216470	-0.599517	-0.888839
H58	H	1.193034	-0.511255	-0.856037
H59	H	1.181906	-0.584591	-0.768959
H60	H	1.056678	-0.546228	-0.907803
H61	H	1.045545	-0.619581	-0.820734
C62	C	1.689841	-0.415645	-1.445707
C63	C	1.690401	-0.415276	-1.338488
H64	H	1.740729	-0.381388	-1.489284
H65	H	1.707645	-0.469602	-1.465776
H66	H	1.620772	-0.396180	-1.454775
H67	H	1.759470	-0.434747	-1.329418
H68	H	1.672604	-0.361308	-1.318412
H69	H	1.711383	-0.401173	-1.153740
