data_functionalizedCrystal
_audit_creation_method	'MofGen! by Chris Wilmer'
_symmetry_space_group_name_H-M	'P1'
_symmetry_Int_Tables_number	1
_symmetry_cell_setting	triclinic
loop_
_symmetry_equiv_pos_as_xyz
  x,y,z
_cell_length_a	14.519709
_cell_length_b	19.188924
_cell_length_c	12.996460
_cell_angle_alpha	89.991787
_cell_angle_beta	90.000034
_cell_angle_gamma	83.411055
loop_
_atom_site_label
_atom_site_type_symbol
_atom_site_fract_x
_atom_site_fract_y
_atom_site_fract_z
O1	O	1.223297	0.091525	-0.085438
O2	O	0.954753	0.102303	-0.085470
O3	O	1.096778	-0.004714	-0.085441
O4	O	1.081272	0.198542	-0.085467
O5	O	1.096763	-0.004720	0.085693
O6	O	0.954738	0.102297	0.085664
O7	O	1.223282	0.091519	0.085696
Cu8	Cu	1.089009	0.096907	0.101306
Cu9	Cu	1.089026	0.096914	-0.101080
O10	O	1.081257	0.198536	0.085667
C11	C	0.920389	0.101798	0.000093
C12	C	0.818017	0.100292	0.000081
C13	C	0.443156	0.094751	0.000129
C14	C	0.547454	0.096290	0.000115
C15	C	0.630583	0.097522	0.000104
C16	C	0.734888	0.099061	0.000093
C17	C	1.096270	-0.030730	0.000127
C18	C	1.094765	-0.108240	0.000130
C19	C	1.094071	-0.144639	-0.093156
C20	C	1.092645	-0.217466	-0.093164
C21	C	1.091931	-0.253895	0.000119
C22	C	1.092620	-0.217488	0.093417
C23	C	1.094037	-0.144660	0.093422
N24	N	1.142181	-0.373382	0.069553
N25	N	1.140836	-0.442565	0.069542
C26	C	1.087660	-0.473319	0.000109
N27	N	1.035889	-0.432279	-0.069328
N28	N	1.037238	-0.363089	-0.069320
C29	C	1.090394	-0.332864	0.000124
C30	C	1.085418	-0.588686	-0.093192
C31	C	1.083985	-0.661514	-0.093196
C32	C	1.083970	-0.661535	0.093387
C33	C	1.085393	-0.588707	0.093388
C34	C	1.086121	-0.552287	0.000096
C35	C	1.257646	0.092024	0.000131
C36	C	1.360018	0.093529	0.000136
C37	C	1.081766	0.224552	0.000097
C38	C	1.083270	0.302062	0.000088
N39	N	1.089004	0.096902	0.243653
N40	N	1.089039	0.096914	-0.243427
C41	C	1.089025	0.096915	0.663467
C42	C	1.089016	0.096914	0.546662
C43	C	1.089015	0.096909	0.453564
C44	C	1.089005	0.096907	0.336751
H45	H	1.094662	-0.114990	-0.169122
H46	H	1.083416	-0.691148	-0.169163
H47	H	1.083381	-0.691194	0.169340
H48	H	1.092036	-0.247152	0.169368
O49	O	1.086165	-0.549449	0.194008
H50	H	1.023054	-0.557289	0.238743
O51	O	1.091899	-0.256739	-0.193781
H52	H	1.092647	-0.219179	-0.258651
O53	O	1.086187	-0.549400	-0.193812
H54	H	1.087302	-0.492644	-0.178137
O55	O	1.094802	-0.105397	0.194040
H56	H	1.094073	-0.142960	0.258908
