data_functionalizedCrystal
_audit_creation_method	'MofGen! by Chris Wilmer'
_symmetry_space_group_name_H-M	'P1'
_symmetry_Int_Tables_number	1
_symmetry_cell_setting	triclinic
loop_
_symmetry_equiv_pos_as_xyz
  x,y,z
_cell_length_a	27.780901
_cell_length_b	27.780865
_cell_length_c	27.780936
_cell_angle_alpha	120.004110
_cell_angle_beta	90.000189
_cell_angle_gamma	60.000211
loop_
_atom_site_label
_atom_site_type_symbol
_atom_site_fract_x
_atom_site_fract_y
_atom_site_fract_z
O1	O	-0.330206	-0.424600	-0.014326
O2	O	-0.260209	-0.326029	0.014248
O3	O	-0.260206	-0.424598	-0.084326
O4	O	-0.330208	-0.326031	0.084248
O5	O	-0.340269	-0.344534	-0.084318
O6	O	-0.340271	-0.245964	0.014256
O7	O	-0.410268	-0.344536	-0.014318
Zn8	Zn	-0.387981	-0.282538	-0.000030
Zn9	Zn	-0.282496	-0.388027	-0.000040
O10	O	-0.410271	-0.245966	0.084256
C11	C	-0.207592	-0.090572	0.029861
C12	C	-0.237293	-0.031169	0.025768
C13	C	-0.236696	-0.119398	0.030271
C14	C	-0.120428	-0.177735	0.029866
C15	C	-0.056933	-0.211527	0.025779
C16	C	-0.149664	-0.206428	0.030277
C17	C	-0.207595	-0.177733	0.029869
C18	C	-0.237300	-0.211522	0.025784
C19	C	-0.149661	-0.119400	0.030269
C20	C	-0.261298	-0.238821	0.022484
C21	C	-0.261288	0.016822	0.022460
C22	C	-0.005635	-0.238828	0.022476
C23	C	-0.291405	-0.273069	0.018343
C24	C	-0.291391	0.077030	0.018311
C25	C	0.058720	-0.273078	0.018333
C26	C	-0.207593	-0.492842	-0.372408
C27	C	-0.237298	-0.459048	-0.402108
C28	C	-0.149660	-0.551183	-0.401515
C29	C	-0.207593	-0.492841	-0.285241
C30	C	-0.237298	-0.459048	-0.221743
C31	C	-0.149661	-0.551183	-0.314481
C32	C	-0.120424	-0.580012	-0.372415
C33	C	-0.056928	-0.639423	-0.402123
C34	C	-0.236697	-0.464144	-0.314474
C35	C	-0.005629	-0.687419	-0.426124
C36	C	-0.261295	-0.431746	-0.426103
C37	C	-0.261296	-0.431746	-0.170443
C38	C	0.058728	-0.747634	-0.456235
C39	C	-0.291402	-0.397495	-0.456206
C40	C	-0.291402	-0.397494	-0.106085
C41	C	-0.462869	-0.580020	-0.029970
C42	C	-0.433163	-0.639431	-0.025888
C43	C	-0.520800	-0.551191	-0.030374
C44	C	-0.462873	-0.492847	-0.029961
C45	C	-0.433171	-0.459053	-0.025870
C46	C	-0.520804	-0.464150	-0.030366
C47	C	-0.550038	-0.492848	-0.029961
C48	C	-0.613534	-0.459056	-0.025870
C49	C	-0.433767	-0.551189	-0.030374
C50	C	-0.664833	-0.431754	-0.022564
C51	C	-0.409163	-0.687428	-0.022589
C52	C	-0.409175	-0.431749	-0.022563
C53	C	-0.729189	-0.397503	-0.018417
C54	C	-0.379055	-0.747644	-0.018451
C55	C	-0.379071	-0.397497	-0.018416
O56	O	0.249050	-0.344548	-0.014327
O57	O	0.080484	-0.245979	0.014236
O58	O	0.179055	-0.344561	-0.084333
O59	O	0.150480	-0.245965	0.084242
O60	O	0.179051	-0.424615	-0.084325
O61	O	0.080481	-0.326033	0.014243
O62	O	0.249047	-0.424602	-0.014319
Zn63	Zn	0.164763	-0.388028	-0.000037
Zn64	Zn	0.164768	-0.282553	-0.000046
O65	O	0.150476	-0.326020	0.084250
O66	O	-0.410250	0.234686	-0.014359
O67	O	-0.340256	0.094698	0.014218
O68	O	-0.340247	0.094676	-0.084357
O69	O	-0.410258	0.234708	0.084216
O70	O	-0.260187	0.094675	-0.084359
O71	O	-0.260195	0.094697	0.014215
O72	O	-0.330189	0.234685	-0.014362
Zn73	Zn	-0.282481	0.164690	-0.000074
Zn74	Zn	-0.387964	0.164692	-0.000070
O75	O	-0.330198	0.234706	0.084213
O76	O	0.249059	-0.905312	-0.495050
O77	O	0.080490	-0.765303	-0.425041
O78	O	0.179053	-0.765302	-0.425038
O79	O	0.150495	-0.905313	-0.495052
O80	O	0.179056	-0.765304	-0.505099
O81	O	0.080492	-0.765305	-0.505101
O82	O	0.249061	-0.905314	-0.575110
Zn83	Zn	0.164777	-0.835310	-0.552817
Zn84	Zn	0.164774	-0.835307	-0.447334
O85	O	0.150497	-0.905315	-0.575113
O86	O	-0.330213	-0.326025	-0.575062
O87	O	-0.260207	-0.424598	-0.505073
O88	O	-0.260211	-0.326026	-0.505063
O89	O	-0.330208	-0.424597	-0.575073
O90	O	-0.340272	-0.245963	-0.424995
O91	O	-0.340268	-0.344535	-0.425006
O92	O	-0.410274	-0.245963	-0.494995
Zn93	Zn	-0.387982	-0.282537	-0.447288
Zn94	Zn	-0.282498	-0.388023	-0.552780
O95	O	-0.410270	-0.344534	-0.495006
C96	C	-0.550055	-0.090550	0.372344
C97	C	-0.613551	-0.031140	0.402052
C98	C	-0.520819	-0.119379	0.401445
C99	C	-0.462885	-0.177721	0.285171
C100	C	-0.433180	-0.211515	0.221673
C101	C	-0.433782	-0.206418	0.314404
C102	C	-0.462886	-0.177720	0.372338
C103	C	-0.433182	-0.211513	0.402039
C104	C	-0.520818	-0.119380	0.314411
C105	C	-0.409185	-0.238815	0.426034
C106	C	-0.664850	0.016857	0.426053
C107	C	-0.409182	-0.238818	0.170373
C108	C	-0.379079	-0.273066	0.456138
C109	C	-0.729207	0.077071	0.456163
C110	C	-0.379075	-0.273070	0.106015
C111	C	0.194667	-0.580054	-0.372411
C112	C	0.190576	-0.639462	-0.402111
C113	C	0.195075	-0.551232	-0.401519
C114	C	0.194672	-0.492881	-0.285246
C115	C	0.190587	-0.459082	-0.221749
C116	C	0.195080	-0.464191	-0.314486
C117	C	0.194670	-0.492894	-0.372419
C118	C	0.190583	-0.459108	-0.402127
C119	C	0.195077	-0.551220	-0.314478
C120	C	0.187280	-0.431812	-0.426128
C121	C	0.187269	-0.687456	-0.426104
C122	C	0.187286	-0.431775	-0.170450
C123	C	0.183136	-0.397569	-0.456238
C124	C	0.183122	-0.747667	-0.456206
C125	C	0.183145	-0.397518	-0.106092
C126	C	0.134860	-0.177687	0.372336
C127	C	0.138947	-0.211472	0.402044
C128	C	0.134457	-0.119348	0.401435
C129	C	0.134859	-0.177700	0.285163
C130	C	0.138944	-0.211498	0.221666
C131	C	0.134455	-0.119361	0.314395
C132	C	0.134865	-0.090527	0.372328
C133	C	0.138956	-0.031120	0.402027
C134	C	0.134451	-0.206389	0.314403
C135	C	0.142263	0.016874	0.426021
C136	C	0.142251	-0.238768	0.426045
C137	C	0.142245	-0.238805	0.170367
C138	C	0.146410	0.077086	0.456123
C139	C	0.146394	-0.273011	0.456155
C140	C	0.146386	-0.273062	0.106009
C141	C	-0.120389	-0.177823	-0.372446
C142	C	-0.056892	-0.211619	-0.402151
C143	C	-0.149623	-0.206523	-0.401550
C144	C	-0.207562	-0.090642	-0.285277
C145	C	-0.237270	-0.031223	-0.221779
C146	C	-0.236663	-0.119474	-0.314512
C147	C	-0.207556	-0.177822	-0.372445
C148	C	-0.237258	-0.211618	-0.402149
C149	C	-0.149628	-0.119475	-0.314513
C150	C	-0.261253	-0.238923	-0.426146
C151	C	-0.005593	-0.238924	-0.426150
C152	C	-0.261270	0.016780	-0.170479
C153	C	-0.291357	-0.273177	-0.456251
C154	C	0.058765	-0.273179	-0.456257
C155	C	-0.291381	0.077002	-0.106121
O156	O	0.150452	-0.246043	-0.495046
O157	O	0.179033	-0.344602	-0.425040
O158	O	0.080460	-0.246054	-0.425047
O159	O	0.249025	-0.344591	-0.495039
O160	O	0.080481	-0.326136	-0.505115
O161	O	0.179054	-0.424684	-0.505108
O162	O	0.150473	-0.326126	-0.575114
Zn163	Zn	0.164767	-0.388120	-0.552824
Zn164	Zn	0.164739	-0.282608	-0.447331
O165	O	0.249046	-0.424674	-0.575107
C166	C	-0.462892	0.507205	0.372302
C167	C	-0.433190	0.541002	0.402006
C168	C	-0.520825	0.535906	0.401406
C169	C	-0.462885	0.420024	0.285133
C170	C	-0.433176	0.360606	0.221635
C171	C	-0.520818	0.448857	0.314369
C172	C	-0.550058	0.507205	0.372302
C173	C	-0.613555	0.541001	0.402007
C174	C	-0.433784	0.448857	0.314369
C175	C	-0.664854	0.568306	0.426004
C176	C	-0.409195	0.568307	0.426003
C177	C	-0.409175	0.312603	0.170336
C178	C	-0.729212	0.602560	0.456111
C179	C	-0.379091	0.602561	0.456109
C180	C	-0.379064	0.252380	0.105978
H181	H	-0.126192	-0.095269	0.030926
H182	H	-0.126193	-0.253367	0.030938
O183	O	-0.293470	-0.090551	0.031023
C184	C	-0.313004	-0.032771	0.031295
H185	H	-0.273359	-0.037396	0.012267
H186	H	-0.338484	0.014918	0.078474
C187	C	-0.402171	-0.022148	0.016934
C188	C	-0.353478	-0.027831	-0.006441
H189	H	-0.427139	-0.019098	-0.006341
H190	H	-0.389012	-0.061074	0.016753
H191	H	-0.423397	0.017592	0.056249
H192	H	-0.332249	-0.067575	-0.045753
H193	H	-0.366634	0.011088	-0.006268
H194	H	-0.284266	-0.095335	-0.291040
H195	H	-0.126143	-0.253480	-0.449147
H196	H	-0.126191	-0.575310	-0.449116
H197	H	-0.544269	-0.575322	-0.031031
H198	H	-0.544277	-0.417201	-0.031013
O199	O	-0.121674	-0.579853	-0.286400
C200	C	-0.118723	-0.532271	-0.235611
H201	H	-0.155084	-0.478530	-0.220980
H202	H	-0.073958	-0.541622	-0.246036
C203	C	-0.082194	-0.606265	-0.203782
C204	C	-0.126857	-0.540259	-0.185809
H205	H	-0.087209	-0.611194	-0.173062
H206	H	-0.084180	-0.638324	-0.238001
H207	H	-0.044894	-0.614050	-0.212470
H208	H	-0.164156	-0.532479	-0.177129
H209	H	-0.124877	-0.508200	-0.151588
O210	O	-0.377007	0.419999	0.286269
C211	C	-0.357471	0.362198	0.228768
H212	H	-0.397114	0.366815	0.214365
H213	H	-0.331999	0.314528	0.228279
C214	C	-0.268295	0.351550	0.203761
C215	C	-0.316986	0.357223	0.186069
H216	H	-0.243320	0.348479	0.177422
H217	H	-0.281456	0.390490	0.242501
H218	H	-0.247076	0.311825	0.203353
H219	H	-0.338209	0.396952	0.186483
H220	H	-0.303828	0.318290	0.147328
O221	O	-0.121553	-0.090757	-0.286603
C222	C	-0.064033	-0.128755	-0.324841
H223	H	-0.062221	-0.158294	-0.372471
H224	H	-0.031608	-0.165912	-0.315100
C225	C	-0.049673	-0.043889	-0.256926
C226	C	-0.047449	-0.080164	-0.315427
H227	H	-0.039442	-0.013917	-0.251117
H228	H	-0.088425	-0.018289	-0.231163
H229	H	-0.022653	-0.074860	-0.248815
H230	H	-0.074474	-0.049195	-0.323534
H231	H	-0.008701	-0.105758	-0.341191
H232	H	-0.544286	0.424724	0.290895
H233	H	-0.284291	-0.417186	-0.290995
H234	H	-0.386169	-0.575316	-0.031028
H235	H	-0.544297	0.582856	0.449007
O236	O	-0.376988	-0.262405	0.286325
C237	C	-0.357461	-0.281687	0.228806
H238	H	-0.385187	-0.235865	0.227002
H239	H	-0.362187	-0.323858	0.196374
C240	C	-0.258237	-0.363958	0.214442
C241	C	-0.292288	-0.307678	0.212227
H242	H	-0.218035	-0.379994	0.204213
H243	H	-0.271393	-0.350970	0.253193
H244	H	-0.262182	-0.399094	0.187415
H245	H	-0.288348	-0.272541	0.239259
H246	H	-0.279130	-0.320661	0.173481
O247	O	-0.548894	-0.090495	0.286504
C248	C	-0.606412	-0.032729	0.324745
H249	H	-0.608222	-0.012826	0.372375
H250	H	-0.638840	-0.047198	0.315004
C251	C	-0.620771	-0.001416	0.256838
C252	C	-0.622992	0.023034	0.315337
H253	H	-0.631000	0.032981	0.251034
H254	H	-0.582020	-0.040335	0.231073
H255	H	-0.647794	-0.013473	0.248727
H256	H	-0.595964	0.035082	0.323445
H257	H	-0.661738	0.061956	0.341104
H258	H	-0.544290	-0.095241	0.449049
O259	O	0.195973	-0.408262	-0.286505
C260	C	0.247013	-0.423474	-0.270162
H261	H	0.282036	-0.480798	-0.299585
H262	H	0.235671	-0.405432	-0.222206
C263	C	0.227760	-0.316621	-0.241208
C264	C	0.270778	-0.387027	-0.277350
H265	H	0.242419	-0.294137	-0.245639
H266	H	0.193373	-0.306371	-0.252217
H267	H	0.218313	-0.301595	-0.201248
H268	H	0.280219	-0.402052	-0.317310
H269	H	0.305168	-0.397278	-0.266348
O270	O	0.195833	-0.580092	-0.458297
C271	C	0.196112	-0.637877	-0.477831
H272	H	0.177078	-0.633246	-0.438184
H273	H	0.243292	-0.685559	-0.503302
C274	C	0.181771	-0.648530	-0.567013
C275	C	0.158389	-0.642839	-0.518318
H276	H	0.158505	-0.651593	-0.591989
H277	H	0.181586	-0.609600	-0.553854
H278	H	0.221087	-0.688265	-0.588232
H279	H	0.119077	-0.603100	-0.497096
H280	H	0.158567	-0.681762	-0.531474
O281	O	0.195885	-0.580098	-0.286566
C282	C	0.196128	-0.637863	-0.324800
H283	H	0.214220	-0.657772	-0.372431
H284	H	0.149231	-0.623391	-0.315054
C285	C	0.213085	-0.669167	-0.256886
C286	C	0.235311	-0.693622	-0.315388
H287	H	0.237252	-0.703561	-0.251079
H288	H	0.212919	-0.630248	-0.231125
H289	H	0.174004	-0.657107	-0.248771
H290	H	0.274388	-0.705674	-0.323499
H291	H	0.235484	-0.732545	-0.341149
O292	O	0.133651	-0.090653	0.286313
C293	C	0.133404	-0.128651	0.228795
H294	H	0.115304	-0.158177	0.226993
H295	H	0.180302	-0.165818	0.196363
C296	C	0.116465	-0.043800	0.214426
C297	C	0.094229	-0.080060	0.212213
H298	H	0.092302	-0.013828	0.204195
H299	H	0.116633	-0.018201	0.253176
H300	H	0.155545	-0.074779	0.187399
H301	H	0.055152	-0.049082	0.239245
H302	H	0.094053	-0.105653	0.173467
H303	H	0.133799	-0.095215	0.449037
O304	O	0.133645	-0.262378	0.286496
C305	C	0.133402	-0.281653	0.324736
H306	H	0.115305	-0.235827	0.372366
H307	H	0.180301	-0.323819	0.314996
C308	C	0.116459	-0.363937	0.256825
C309	C	0.094227	-0.307652	0.315325
H310	H	0.092296	-0.379977	0.251018
H311	H	0.116624	-0.350953	0.231060
H312	H	0.155540	-0.399068	0.248715
H313	H	0.055149	-0.272519	0.323431
H314	H	0.094053	-0.320630	0.341090
