data_functionalizedCrystal
_audit_creation_method	'MofGen! by Chris Wilmer'
_symmetry_space_group_name_H-M	'P1'
_symmetry_Int_Tables_number	1
_symmetry_cell_setting	triclinic
loop_
_symmetry_equiv_pos_as_xyz
  x,y,z
_cell_length_a	10.967926
_cell_length_b	10.654545
_cell_length_c	10.065875
_cell_angle_alpha	98.876977
_cell_angle_beta	93.120479
_cell_angle_gamma	84.600222
loop_
_atom_site_label
_atom_site_type_symbol
_atom_site_fract_x
_atom_site_fract_y
_atom_site_fract_z
O1	O	1.614716	0.219080	0.266287
O2	O	1.264702	0.222667	0.183964
O3	O	1.447756	0.038438	0.227019
O4	O	1.431663	0.403309	0.223232
O5	O	1.412851	0.073716	0.445798
O6	O	1.229797	0.257945	0.402743
O7	O	1.579812	0.254357	0.485066
Zn8	Zn	1.399263	0.261752	0.478640
Zn9	Zn	1.445251	0.215272	0.190390
O10	O	1.396758	0.438586	0.442011
C11	C	1.202432	0.237379	0.282812
C12	C	1.068889	0.228644	0.251402
C13	C	1.429122	0.009234	0.336128
C14	C	1.425587	-0.130344	0.335289
C15	C	0.991269	0.243024	0.350733
C16	C	0.853245	0.233996	0.318272
C17	C	1.463655	-0.168813	0.096772
C18	C	1.481033	-0.253619	-0.022875
C19	C	1.477711	-0.384764	-0.023658
C20	C	1.457005	-0.431102	0.095219
C21	C	1.439628	-0.346296	0.214866
C22	C	1.442956	-0.215150	0.215637
C23	C	1.401551	-0.307827	0.453377
C24	C	1.404882	-0.176682	0.454165
C25	C	1.380846	-0.354165	0.572253
C26	C	1.363477	-0.269359	0.691905
C27	C	1.366802	-0.138207	0.692684
C28	C	1.387504	-0.091876	0.573812
C29	C	1.642082	0.239645	0.386215
C30	C	1.775627	0.248379	0.417616
C31	C	1.415392	0.467790	0.332899
C32	C	1.418929	0.607367	0.333730
N33	N	1.367886	0.293473	0.675366
N34	N	1.476638	0.183542	-0.006334
C35	C	1.434326	0.226301	0.758772
C36	C	1.410187	0.250724	0.910262
H37	H	1.027001	0.262012	0.459805
C38	C	0.823883	0.274030	0.564981
N39	N	0.860231	0.293348	0.675974
C40	C	0.804988	0.208332	0.170909
N41	N	0.768638	0.189003	0.059917
H42	H	1.033159	0.209645	0.142330
C43	C	1.453321	-0.575363	0.094343
N44	N	1.450539	-0.684022	0.093683
C45	C	1.467346	-0.024555	0.097631
N46	N	1.470133	0.084101	0.098276
H47	H	1.497889	-0.215876	-0.119662
C48	C	1.496830	-0.478054	-0.155274
N49	N	1.511234	-0.548321	-0.254406
C50	C	1.377171	-0.498426	0.571383
N51	N	1.374400	-0.607085	0.570730
C52	C	1.340696	-0.320340	0.822652
N53	N	1.323538	-0.358745	0.921134
C54	C	1.347683	-0.044928	0.824308
N55	N	1.333284	0.025325	0.923450
H56	H	1.390219	0.014906	0.574436
H57	H	1.293128	0.369058	0.716108
C58	C	1.535297	0.124158	0.703730
N59	N	1.611344	0.047215	0.662272
C60	C	1.577639	0.081421	0.938640
N61	N	1.653716	0.004509	0.897193
C62	C	1.309187	0.352845	0.965292
N63	N	1.233115	0.429762	1.006743
