data_functionalizedCrystal
_audit_creation_method	'MofGen! by Chris Wilmer'
_symmetry_space_group_name_H-M	'P1'
_symmetry_Int_Tables_number	1
_symmetry_cell_setting	triclinic
loop_
_symmetry_equiv_pos_as_xyz
  x,y,z
_cell_length_a	18.101389
_cell_length_b	12.759401
_cell_length_c	12.759399
_cell_angle_alpha	90.012458
_cell_angle_beta	90.011274
_cell_angle_gamma	90.016824
loop_
_atom_site_label
_atom_site_type_symbol
_atom_site_fract_x
_atom_site_fract_y
_atom_site_fract_z
Zn1	Zn	-0.418727	-1.606231	0.418427
Zn2	Zn	0.081273	-1.106231	0.918427
Zn3	Zn	-0.294901	-1.606135	0.594095
Zn4	Zn	0.205099	-1.106135	1.094095
Zn5	Zn	-0.294905	-1.430541	0.418425
Zn6	Zn	0.205095	-0.930541	0.918425
Zn7	Zn	-0.418706	-1.430523	0.594059
Zn8	Zn	0.081294	-0.930523	1.094059
O9	O	-0.356810	-1.518357	0.506251
O10	O	0.143190	-1.018357	1.006251
O11	O	-0.402309	-1.753239	0.441745
O12	O	0.097691	-1.253239	0.941745
O13	O	-0.191269	-1.582809	0.570806
O14	O	0.308731	-1.082809	1.070806
O15	O	-0.311340	-1.453894	0.271404
O16	O	0.188660	-0.953894	0.771404
O17	O	-0.311334	-1.753169	0.570808
O18	O	0.188666	-1.253169	1.070808
O19	O	-0.402312	-1.582973	0.271405
O20	O	0.097688	-1.082973	0.771405
O21	O	-0.191271	-1.453801	0.441742
O22	O	0.308729	-0.953801	0.941742
O23	O	-0.311320	-1.283518	0.441707
O24	O	0.188680	-0.783518	0.941707
O25	O	-0.522342	-1.453863	0.570746
O26	O	-0.022342	-0.953863	1.070746
O27	O	-0.402276	-1.283504	0.570745
O28	O	0.097724	-0.783504	1.070745
O29	O	-0.522357	-1.582955	0.441710
O30	O	-0.022357	-1.082955	0.941710
O31	O	-0.311314	-1.582792	0.741111
O32	O	0.188686	-1.082792	1.241111
O33	O	-0.402273	-1.453770	0.741085
O34	O	0.097727	-0.953770	1.241085
C35	C	-0.356796	-1.245390	0.506223
C36	C	0.143204	-0.745390	1.006223
C37	C	-0.356808	-1.128613	0.506236
C38	C	0.143192	-0.628613	1.006236
C39	C	-0.404251	-1.073789	0.439152
C40	C	0.095749	-0.573789	0.939152
C41	C	-0.404255	-0.964065	0.439159
C42	C	0.095745	-0.464065	0.939159
C43	C	-0.309371	-0.964000	0.573341
C44	C	0.190629	-0.464000	1.073341
C45	C	-0.309364	-1.073722	0.573329
C46	C	0.190636	-0.573722	1.073329
C47	C	-0.549972	-1.518418	0.506225
C48	C	-0.049972	-1.018418	1.006225
C49	C	-0.632286	-1.518444	0.506213
C50	C	-0.132286	-1.018444	1.006213
C51	C	-0.931377	-1.518505	0.506016
C52	C	-0.431377	-1.018505	1.006016
C53	C	-0.900042	-1.437004	0.586944
C54	C	-0.400042	-0.937004	1.086944
C55	C	-0.814424	-1.437225	0.587320
C56	C	-0.314424	-0.937225	1.087320
C57	C	-0.782994	-1.518474	0.506114
C58	C	-0.282994	-1.018474	1.006114
C59	C	-0.814093	-1.629175	0.536171
C60	C	-0.314093	-1.129175	1.036171
C61	C	-0.899738	-1.628721	0.536702
C62	C	-0.399738	-1.128721	1.036702
C63	C	-0.899794	-1.490267	0.394852
C64	C	-0.399794	-0.990267	0.894852
C65	C	-0.814143	-1.487804	0.395494
C66	C	-0.314143	-0.987804	0.895494
C67	C	-0.699135	-1.518463	0.506168
C68	C	-0.199135	-1.018463	1.006168
C69	C	-1.015237	-1.518523	0.505966
C70	C	-0.515237	-1.018523	1.005966
C71	C	-0.164399	-1.518357	0.506202
C72	C	0.335601	-1.018357	1.006202
C73	C	-0.082086	-1.518535	0.505917
C74	C	0.417914	-1.018535	1.005917
C75	C	-0.356807	-1.518297	0.779219
C76	C	0.143193	-1.018297	1.279219
C77	C	-0.356830	-1.518367	0.895995
C78	C	0.143170	-1.018367	1.395995
C79	C	-0.356821	-0.792391	0.506271
C80	C	0.143179	-0.292391	1.006271
C81	C	-0.356819	-0.909167	0.506255
C82	C	0.143181	-0.409167	1.006255
C83	C	-0.309524	-1.585626	0.950836
C84	C	0.190476	-1.085626	1.450836
C85	C	-0.309555	-1.585695	1.060560
C86	C	0.190445	-1.085695	1.560560
C87	C	-0.404199	-1.451238	1.060593
C88	C	0.095801	-0.951238	1.560593
C89	C	-0.404171	-1.451175	0.950871
C90	C	0.095829	-0.951175	1.450871
C91	C	-0.356842	-1.518450	1.232218
C92	C	0.143158	-1.018450	1.732218
C93	C	-0.356888	-1.518500	1.115441
C94	C	0.143112	-1.018500	1.615441
H95	H	-0.270726	-1.118361	0.627957
H96	H	0.229274	-0.618361	1.127957
H97	H	-0.270744	-0.919293	0.627967
H98	H	0.229256	-0.419293	1.127967
H99	H	-0.921573	-1.455464	0.668840
H100	H	-0.421573	-0.955464	1.168840
O101	O	-0.455423	-0.904928	0.366803
O102	O	0.044577	-0.404928	0.866803
H103	H	-0.513524	-0.926005	0.384948
H104	H	-0.013524	-0.426005	0.884948
O105	O	-0.455189	-1.378609	0.891720
O106	O	0.044811	-0.878609	1.391720
H107	H	-0.513330	-1.396578	0.912724
H108	H	-0.013330	-0.896578	1.412724
H109	H	-0.442741	-1.396530	1.105286
H110	H	0.057259	-0.896530	1.605286
H111	H	-0.793397	-1.355136	0.568511
H112	H	-0.293397	-0.855136	1.068511
O113	O	-0.455410	-1.132993	0.366774
O114	O	0.044590	-0.632993	0.866774
H115	H	-0.513514	-1.111958	0.384903
H116	H	-0.013514	-0.611958	0.884903
O117	O	-0.927305	-1.327932	0.562288
O118	O	-0.427305	-0.827932	1.062288
H119	H	-0.963485	-1.330641	0.492096
H120	H	-0.463485	-0.830641	0.992096
O121	O	-0.787288	-1.461786	0.696493
O122	O	-0.287288	-0.961786	1.196493
H123	H	-0.835339	-1.473586	0.749218
H124	H	-0.335339	-0.973586	1.249218
O125	O	-0.785816	-1.560696	0.311376
O126	O	-0.285816	-1.060696	0.811376
H127	H	-0.748933	-1.620191	0.347261
H128	H	-0.248933	-1.120191	0.847261
H129	H	-0.920467	-1.691505	0.480317
H130	H	-0.420467	-1.191505	0.980317
O131	O	-0.928384	-1.385194	0.358571
O132	O	-0.428384	-0.885194	0.858571
H133	H	-0.881153	-1.331286	0.345423
H134	H	-0.381153	-0.831286	0.845423
H135	H	-0.793736	-1.691532	0.479079
H136	H	-0.293736	-1.191532	0.979079
O137	O	-0.926224	-1.660407	0.644344
O138	O	-0.426224	-1.160407	1.144344
H139	H	-0.877861	-1.675905	0.695531
H140	H	-0.377861	-1.175905	1.195531
O141	O	-0.926636	-1.568896	0.314983
O142	O	-0.426636	-1.068896	0.814983
H143	H	-0.904099	-1.548437	0.236719
H144	H	-0.404099	-1.048437	0.736719
H145	H	-0.792655	-1.653523	0.616570
H146	H	-0.292655	-1.153523	1.116570
H147	H	-0.270977	-1.640340	0.906159
H148	H	0.229023	-1.140340	1.406159
O149	O	-0.787210	-1.379904	0.365446
O150	O	-0.287210	-0.879904	0.865446
H151	H	-0.751783	-1.348242	0.429023
H152	H	-0.251783	-0.848242	0.929023
H153	H	-0.271035	-1.640466	1.105207
H154	H	0.228965	-1.140466	1.605207
