data_functionalizedCrystal
_audit_creation_method	'MofGen! by Chris Wilmer'
_symmetry_space_group_name_H-M	'P1'
_symmetry_Int_Tables_number	1
_symmetry_cell_setting	triclinic
loop_
_symmetry_equiv_pos_as_xyz
  x,y,z
_cell_length_a	8.559649
_cell_length_b	14.853567
_cell_length_c	7.681481
_cell_angle_alpha	84.253558
_cell_angle_beta	94.913240
_cell_angle_gamma	76.706797
loop_
_atom_site_label
_atom_site_type_symbol
_atom_site_fract_x
_atom_site_fract_y
_atom_site_fract_z
O1	O	2.104976	-0.021001	-0.146403
O2	O	1.639875	0.025551	-0.146407
O3	O	1.884849	-0.129824	-0.146410
O4	O	1.860003	0.134373	-0.146400
O5	O	1.915001	-0.148986	0.146447
O6	O	1.670027	0.006388	0.146451
O7	O	2.135128	-0.040164	0.146455
Zn8	Zn	1.907365	-0.019930	0.192950
Zn9	Zn	1.867638	0.005317	-0.192902
O10	O	1.890155	0.115211	0.146458
C11	C	1.595429	0.019498	0.000021
C12	C	1.418072	0.029999	0.000019
C13	C	1.898798	-0.172914	0.000014
C14	C	1.895423	-0.272761	-0.000002
C15	C	1.735645	-0.674122	0.000030
C16	C	2.026680	-0.715759	0.000033
C17	C	2.029851	-0.621946	0.000022
C18	C	1.885917	-0.554217	0.000019
C19	C	1.738812	-0.580300	0.000025
C20	C	2.176955	-0.595857	0.000034
C21	C	2.180132	-0.502039	0.000025
C22	C	2.036196	-0.434307	0.000009
C23	C	1.889085	-0.460395	0.000014
C24	C	1.745151	-0.392666	0.000010
C25	C	1.598037	-0.418751	0.000002
C26	C	1.594876	-0.512568	0.000009
C27	C	2.039357	-0.340490	0.000002
C28	C	1.748318	-0.298844	0.000005
C29	C	2.179574	-0.034110	0.000023
C30	C	2.356930	-0.044611	0.000013
C31	C	1.876205	0.158302	0.000030
C32	C	1.879579	0.258149	0.000034
N33	N	1.934489	-0.037162	0.456284
N34	N	1.840527	0.022541	-0.456236
H35	H	1.440266	-0.116520	0.000002
C36	C	1.305492	0.127151	0.000021
H37	H	1.197058	0.121704	0.000029
H38	H	1.314463	0.166524	-0.102100
H39	H	1.335490	0.153153	0.102165
C40	C	1.589988	-0.224349	0.000002
H41	H	1.501929	-0.253325	0.000010
H42	H	1.574659	-0.180202	-0.102120
H43	H	1.595689	-0.193572	0.102145
C44	C	2.341942	-0.473347	0.000028
H45	H	2.323220	-0.407774	0.000034
H46	H	2.390705	-0.490600	-0.102091
H47	H	2.411722	-0.503955	0.102173
H48	H	2.143865	-0.770909	0.000050
H49	H	1.475103	-0.533816	0.000004
C50	C	1.573833	-0.702812	0.000029
H51	H	1.592553	-0.768385	0.000042
H52	H	1.504045	-0.672198	-0.102094
H53	H	1.525086	-0.685564	0.102171
H54	H	2.294139	-0.651008	0.000053
C55	C	1.710947	0.104866	0.442190
H56	H	1.713887	0.102983	0.319229
H57	H	1.731657	0.161841	0.472318
H58	H	1.607342	0.100551	0.472331
C59	C	2.201156	-0.311793	0.000016
H60	H	2.182432	-0.246220	0.000021
H61	H	2.249926	-0.329046	-0.102099
H62	H	2.270931	-0.342401	0.102166
H63	H	1.480848	-0.363595	0.000011
H64	H	2.030423	-0.098101	0.531488
