data_functionalizedCrystal
_audit_creation_method	'MofGen! by Chris Wilmer'
_symmetry_space_group_name_H-M	'P1'
_symmetry_Int_Tables_number	1
_symmetry_cell_setting	triclinic
loop_
_symmetry_equiv_pos_as_xyz
  x,y,z
_cell_length_a	17.640112
_cell_length_b	18.050589
_cell_length_c	17.639306
_cell_angle_alpha	101.190077
_cell_angle_beta	87.804122
_cell_angle_gamma	101.252307
loop_
_atom_site_label
_atom_site_type_symbol
_atom_site_fract_x
_atom_site_fract_y
_atom_site_fract_z
Zn1	Zn	1.247732	-0.095461	-0.195075
Zn2	Zn	1.221978	-0.200438	-0.068110
Zn3	Zn	1.095083	-0.105261	-0.093729
Zn4	Zn	1.120685	-0.248636	-0.220686
O5	O	1.171370	-0.162449	-0.144400
O6	O	1.350592	-0.085113	-0.156793
O7	O	1.183652	-0.171742	0.034759
O8	O	1.115396	-0.000025	-0.107176
O9	O	1.331670	-0.162239	-0.063512
O10	O	1.227547	0.007175	-0.181635
O11	O	1.090423	-0.101817	0.015937
O12	O	0.992204	-0.148553	-0.132010
O13	O	1.159031	-0.244387	-0.323556
O14	O	1.011014	-0.253890	-0.225284
O15	O	1.252372	-0.131849	-0.304740
O16	O	1.208478	-0.310767	-0.088346
O17	O	1.134058	-0.346178	-0.200443
C18	C	0.974053	-0.207515	-0.184207
C19	C	0.889643	-0.226816	-0.201254
C20	C	0.563035	-0.015814	-0.014898
C21	C	0.483721	-0.033967	-0.030927
C22	C	0.503329	-0.143759	-0.127887
C23	C	0.582646	-0.125614	-0.111869
C24	C	0.612492	-0.061641	-0.055373
C25	C	0.632103	-0.171441	-0.152344
C26	C	0.711413	-0.153299	-0.136324
C27	C	0.741265	-0.089331	-0.079829
C28	C	0.691802	-0.043500	-0.039353
C29	C	0.602254	-0.235417	-0.208835
C30	C	0.651712	-0.281243	-0.249310
C31	C	0.731024	-0.263099	-0.233294
C32	C	0.760876	-0.199131	-0.176799
C33	C	0.780487	-0.308930	-0.273770
C34	C	0.859797	-0.290789	-0.257750
C35	C	0.840186	-0.180989	-0.160779
C36	C	1.171275	-0.355420	-0.144406
C37	C	1.171310	-0.437962	-0.144420
C38	C	1.130887	-0.656682	-0.205350
C39	C	1.098375	-0.699852	-0.139789
C40	C	1.171386	-0.589077	-0.144415
C41	C	1.203937	-0.692981	-0.209976
C42	C	1.171460	-0.735048	-0.144416
C43	C	1.138831	-0.631162	-0.078824
C44	C	1.244434	-0.624287	-0.149052
C45	C	1.211939	-0.667421	-0.083437
C46	C	1.171342	-0.504987	-0.144415
C47	C	1.171503	-0.819135	-0.144408
C48	C	1.369457	-0.117207	-0.104438
C49	C	1.453870	-0.097927	-0.087409
C50	C	1.211430	-0.192401	-0.342472
C51	C	1.228502	-0.205165	-0.426879
C52	C	1.171488	0.031278	-0.144406
C53	C	1.171539	0.113833	-0.144409
C54	C	1.041975	-0.065138	-0.753500
C55	C	1.058033	-0.077144	-0.832809
C56	C	1.155103	-0.149950	-0.813192
C57	C	1.139055	-0.137947	-0.733878
C58	C	1.082490	-0.095542	-0.704039
C59	C	1.179570	-0.168351	-0.684418
C60	C	1.163520	-0.156353	-0.605112
C61	C	1.106956	-0.113951	-0.575267
C62	C	1.066440	-0.083544	-0.624733
C63	C	1.236131	-0.210761	-0.714259
C64	C	1.276646	-0.241164	-0.664799
C65	C	1.260601	-0.229162	-0.585491
C66	C	1.204036	-0.186760	-0.555646
C67	C	1.301117	-0.259569	-0.536024
C68	C	1.285067	-0.247571	-0.456719
C69	C	1.187987	-0.174762	-0.476340
C70	C	1.131509	-0.132549	0.052911
C71	C	1.114584	-0.119543	0.137347
H72	H	0.716106	0.008603	0.006640
N73	N	0.621219	-0.346595	-0.307007
N74	N	0.571527	-0.399957	-0.289151
H75	H	0.549992	-0.446112	-0.329901
N76	N	1.334443	-0.284460	-0.695267
N77	N	1.370621	-0.311589	-0.651092
H78	H	1.411447	-0.342161	-0.672606
H79	H	1.036637	-0.732629	-0.135872
H80	H	1.141934	-0.140221	-0.452042
N81	N	0.984208	-0.021812	-0.722992
N82	N	1.002014	0.038309	-0.673346
H83	H	0.961219	0.068907	-0.651796
H84	H	1.306166	-0.591519	-0.153004
N85	N	1.087846	-0.649964	-0.269943
N86	N	1.107868	-0.675595	-0.337136
H87	H	1.077471	-0.670848	-0.382753
H88	H	1.231437	-0.719933	-0.265420
N89	N	0.870693	-0.115647	-0.103069
N90	N	0.941506	-0.099463	-0.088773
H91	H	0.963053	-0.053319	-0.048016
N92	N	1.008681	-0.040203	-0.594237
N93	N	1.015568	0.028145	-0.602077
H94	H	0.974780	0.058757	-0.580536
N95	N	1.104234	-0.597478	-0.009274
N96	N	1.098588	-0.528233	0.001935
H97	H	1.074148	-0.504443	0.051050
N98	N	1.016635	-0.046082	-0.883323
N99	N	0.966133	-0.008226	-0.856667
H100	H	0.936894	0.013710	-0.892342
H101	H	1.246210	-0.672621	-0.031857
H102	H	0.805844	-0.074562	-0.066785
H103	H	1.093885	-0.104189	-0.510692
H104	H	1.201155	-0.184479	-0.837499
N105	N	0.593520	0.049548	0.042798
N106	N	0.549357	0.090471	0.078924
H107	H	0.570888	0.136633	0.119668
H108	H	0.443455	0.003360	0.002031
H109	H	0.537675	-0.250185	-0.221876
N110	N	0.472824	-0.209103	-0.185587
N111	N	0.402011	-0.225296	-0.199883
H112	H	0.380467	-0.271446	-0.240636
H113	H	1.249198	-0.220526	-0.778836
H114	H	0.756173	-0.361021	-0.319763
N115	N	1.358894	-0.302875	-0.566527
N116	N	1.416252	-0.272382	-0.601024
H117	H	1.457059	-0.302967	-0.622569
N118	N	1.326454	-0.278635	-0.406202
N119	N	1.376955	-0.316495	-0.432853
H120	H	1.406184	-0.338438	-0.397177
N121	N	0.910310	-0.337610	-0.299094
N122	N	0.883652	-0.394725	-0.349532
H123	H	0.919326	-0.427797	-0.378730
