data_functionalizedCrystal
_audit_creation_method	'MofGen! by Chris Wilmer'
_symmetry_space_group_name_H-M	'P1'
_symmetry_Int_Tables_number	1
_symmetry_cell_setting	triclinic
loop_
_symmetry_equiv_pos_as_xyz
  x,y,z
_cell_length_a	12.827892
_cell_length_b	12.594517
_cell_length_c	12.827885
_cell_angle_alpha	89.972568
_cell_angle_beta	90.029786
_cell_angle_gamma	89.989553
loop_
_atom_site_label
_atom_site_type_symbol
_atom_site_fract_x
_atom_site_fract_y
_atom_site_fract_z
Zn1	Zn	-0.416120	-1.627274	0.591076
Zn2	Zn	0.083880	-1.127274	1.091076
Zn3	Zn	-0.590898	-1.627167	0.416336
Zn4	Zn	-0.090898	-1.127167	0.916336
Zn5	Zn	-0.416156	-1.449278	0.416325
Zn6	Zn	0.083844	-0.949278	0.916325
Zn7	Zn	-0.590805	-1.449263	0.591012
Zn8	Zn	-0.090805	-0.949263	1.091012
O9	O	-0.503495	-1.538245	0.503687
O10	O	-0.003495	-1.038245	1.003687
O11	O	-0.439329	-1.776206	0.567928
O12	O	0.060671	-1.276206	1.067928
O13	O	-0.567772	-1.603530	0.270099
O14	O	-0.067772	-1.103530	0.770099
O15	O	-0.269915	-1.472941	0.439528
O16	O	0.230085	-0.972941	0.939528
O17	O	-0.567737	-1.776127	0.439548
O18	O	-0.067737	-1.276127	0.939548
O19	O	-0.269889	-1.603714	0.567917
O20	O	0.230111	-1.103714	1.067917
O21	O	-0.439390	-1.472836	0.270090
O22	O	0.060610	-0.972836	0.770090
O23	O	-0.439300	-1.300330	0.439466
O24	O	0.060700	-0.800330	0.939466
O25	O	-0.567579	-1.472915	0.737256
O26	O	-0.067579	-0.972915	1.237256
O27	O	-0.567614	-1.300319	0.567807
O28	O	-0.067614	-0.800319	1.067807
O29	O	-0.439239	-1.603700	0.737304
O30	O	0.060761	-1.103700	1.237304
O31	O	-0.737121	-1.603516	0.439485
O32	O	-0.237121	-1.103516	0.939485
O33	O	-0.737053	-1.472811	0.567818
O34	O	-0.237053	-0.972811	1.067818
C35	C	-0.503451	-1.261704	0.503629
C36	C	-0.003451	-0.761704	1.003629
C37	C	-0.503458	-1.143399	0.503628
C38	C	-0.003458	-0.643399	1.003628
C39	C	-0.433581	-1.003357	0.433971
C40	C	0.066419	-0.503357	0.933971
C41	C	-0.408122	-1.074216	0.529336
C42	C	0.091878	-0.574216	1.029336
C43	C	-0.528870	-1.074112	0.408274
C44	C	-0.028870	-0.574112	0.908274
C45	C	-0.477975	-1.003472	0.599102
C46	C	0.022025	-0.503472	1.099102
C47	C	-0.598767	-1.003362	0.477976
C48	C	-0.098767	-0.503362	0.977976
C49	C	-0.573344	-1.074188	0.573407
C50	C	-0.073344	-0.574188	1.073407
C51	C	-0.775005	-1.538179	0.503669
C52	C	-0.275005	-1.038179	1.003669
C53	C	-0.891158	-1.538248	0.503696
C54	C	-0.391158	-1.038248	1.003696
C55	C	-0.942942	-1.603002	0.440263
C56	C	-0.442942	-1.103002	0.940263
C57	C	-1.062992	-1.603074	0.440290
C58	C	-0.562992	-1.103074	0.940290
C59	C	-0.230925	-1.538341	0.503729
C60	C	0.269075	-1.038341	1.003729
C61	C	-0.114771	-1.538382	0.503746
C62	C	0.385229	-1.038382	1.003746
C63	C	-0.503394	-1.538318	0.776258
C64	C	-0.003394	-1.038318	1.276258
C65	C	-0.503352	-1.538349	0.892411
C66	C	-0.003352	-1.038349	1.392411
C67	C	-0.503520	-0.815866	0.503725
C68	C	-0.003520	-0.315866	1.003725
C69	C	-0.503483	-0.934172	0.503687
C70	C	-0.003483	-0.434172	1.003687
C71	C	-0.503519	-1.538234	0.232177
C72	C	-0.003519	-1.038234	0.732177
C73	C	-0.503268	-1.538410	0.116025
C74	C	-0.003268	-1.038410	0.616025
C75	C	-0.439832	-1.603072	0.944219
C76	C	0.060168	-1.103072	1.444219
C77	C	-0.439787	-1.603105	1.064269
C78	C	0.060213	-1.103105	1.564269
H79	H	-0.679335	-0.972216	0.456219
H80	H	-0.179335	-0.472216	0.956219
C81	C	-0.653199	-1.115929	0.653108
C82	C	-0.153199	-0.615929	1.153108
N83	N	-0.713344	-1.147364	0.713141
N84	N	-0.213344	-0.647364	1.213141
C85	C	-0.882771	-1.677825	0.366866
C86	C	-0.382771	-1.177825	0.866866
N87	N	-0.837453	-1.734183	0.311580
N88	N	-0.337453	-1.234183	0.811580
H89	H	-0.385409	-1.658521	1.108823
H90	H	0.114591	-1.158521	1.608823
C91	C	-0.353676	-0.961333	0.354462
C92	C	0.146324	-0.461333	0.854462
N93	N	-0.293489	-0.929678	0.294582
N94	N	0.206511	-0.429678	0.794582
H95	H	-0.557692	-1.482954	0.936933
H96	H	-0.057692	-0.982954	1.436933
C97	C	-1.123151	-1.677969	0.366918
C98	C	-0.623151	-1.177969	0.866918
N99	N	-1.168465	-1.734383	0.311652
N100	N	-0.668465	-1.234383	0.811652
C101	C	-0.299248	-1.116266	0.558689
C102	C	0.200752	-0.616266	1.058689
N103	N	-0.217243	-1.147935	0.580791
N104	N	0.282757	-0.647935	1.080791
H105	H	-0.456397	-0.972571	0.679790
H106	H	0.043603	-0.472571	1.179790
C107	C	-1.054619	-1.463482	0.577119
C108	C	-0.554619	-0.963482	1.077119
N109	N	-1.009305	-1.407068	0.632385
N110	N	-0.509305	-0.907068	1.132385
C111	C	-0.366406	-1.677898	0.884077
C112	C	0.133594	-1.177898	1.384077
N113	N	-0.311099	-1.734259	0.838779
N114	N	0.188901	-1.234259	1.338779
H115	H	-0.550353	-1.105145	0.327609
H116	H	-0.050353	-0.605145	0.827609
H117	H	-0.935700	-1.482868	0.558027
H118	H	-0.435700	-0.982868	1.058027
C119	C	-0.576739	-1.463544	1.055845
C120	C	-0.076739	-0.963544	1.555845
N121	N	-0.632076	-1.407153	1.010509
N122	N	-0.132076	-0.907153	1.510509
