data_functionalizedCrystal
_audit_creation_method	'MofGen! by Chris Wilmer'
_symmetry_space_group_name_H-M	'P1'
_symmetry_Int_Tables_number	1
_symmetry_cell_setting	triclinic
loop_
_symmetry_equiv_pos_as_xyz
  x,y,z
_cell_length_a	17.077404
_cell_length_b	15.297327
_cell_length_c	17.077396
_cell_angle_alpha	99.647268
_cell_angle_beta	89.981638
_cell_angle_gamma	99.704720
loop_
_atom_site_label
_atom_site_type_symbol
_atom_site_fract_x
_atom_site_fract_y
_atom_site_fract_z
Zn1	Zn	1.145945	-0.359212	-0.497880
Zn2	Zn	1.479278	-0.025879	-0.164546
Zn3	Zn	1.812611	0.307454	0.168787
Zn4	Zn	1.123125	-0.510086	-0.389320
Zn5	Zn	1.456458	-0.176752	-0.055987
Zn6	Zn	1.789792	0.156581	0.277347
Zn7	Zn	1.014673	-0.359238	-0.366634
Zn8	Zn	1.348006	-0.025905	-0.033301
Zn9	Zn	1.681339	0.307428	0.300033
Zn10	Zn	0.991927	-0.510026	-0.520537
Zn11	Zn	1.325260	-0.176693	-0.187204
Zn12	Zn	1.658593	0.156640	0.146129
O13	O	1.068917	-0.434641	-0.443593
O14	O	1.402251	-0.101307	-0.110259
O15	O	1.735584	0.232026	0.223074
O16	O	1.252762	-0.379240	-0.483491
O17	O	1.586096	-0.045907	-0.150158
O18	O	1.919429	0.287426	0.183176
O19	O	1.108708	-0.490111	-0.276469
O20	O	1.442041	-0.156778	0.056864
O21	O	1.775375	0.176555	0.390198
O22	O	1.051156	-0.232988	-0.365068
O23	O	1.384489	0.100345	-0.031735
O24	O	1.717822	0.433678	0.301599
O25	O	1.235997	-0.490086	-0.403732
O26	O	1.569330	-0.156753	-0.070399
O27	O	1.902664	0.176580	0.262934
O28	O	1.147601	-0.232970	-0.461493
O29	O	1.480934	0.100364	-0.128160
O30	O	1.814267	0.433697	0.205173
O31	O	1.029028	-0.379284	-0.259802
O32	O	1.362362	-0.045951	0.073531
O33	O	1.695695	0.287383	0.406865
O34	O	0.901811	-0.379226	-0.387038
O35	O	1.235144	-0.045893	-0.053705
O36	O	1.568477	0.287440	0.279629
O37	O	1.012388	-0.489985	-0.627373
O38	O	1.345722	-0.156652	-0.294040
O39	O	1.679055	0.176682	0.039293
O40	O	0.885099	-0.490010	-0.500110
O41	O	1.218433	-0.156677	-0.166776
O42	O	1.551766	0.176657	0.166557
O43	O	1.125545	-0.379183	-0.610727
O44	O	1.458878	-0.045849	-0.277394
O45	O	1.792211	0.287484	0.055940
O46	O	1.086652	-0.636324	-0.425702
O47	O	1.419985	-0.302991	-0.092369
O48	O	1.753319	0.030342	0.240964
O49	O	0.990261	-0.636281	-0.522107
O50	O	1.323595	-0.302947	-0.188774
O51	O	1.656928	0.030386	0.144559
C52	C	0.864973	-0.434615	-0.443571
C53	C	1.198307	-0.101282	-0.110238
C54	C	1.531640	0.232052	0.223095
C55	C	0.777722	-0.434626	-0.443584
C56	C	1.111055	-0.101293	-0.110251
C57	C	1.444389	0.232041	0.223083
C58	C	0.745447	-0.377011	-0.485206
C59	C	1.078780	-0.043678	-0.151873
C60	C	1.412114	0.289656	0.181460
C61	C	0.663466	-0.377017	-0.485211
C62	C	0.996799	-0.043684	-0.151877
C63	C	1.330132	0.289650	0.181456
C64	C	0.613760	-0.434643	-0.443597
C65	C	0.947093	-0.101309	-0.110264
C66	C	1.280427	0.232024	0.223069
C67	C	0.646040	-0.492260	-0.401970
C68	C	0.979374	-0.158927	-0.068636
C69	C	1.312707	0.174406	0.264697
C70	C	0.728021	-0.492249	-0.401961
C71	C	1.061354	-0.158916	-0.068628
C72	C	1.394688	0.174417	0.264706
C73	C	0.475167	-0.492281	-0.401992
C74	C	0.808501	-0.158947	-0.068659
C75	C	1.141834	0.174386	0.264674
C76	C	0.393181	-0.492293	-0.402002
C77	C	0.726514	-0.158960	-0.068669
C78	C	1.059847	0.174374	0.264665
C79	C	0.410612	-0.377048	-0.485242
C80	C	0.743945	-0.043715	-0.151909
C81	C	1.077278	0.289618	0.181425
C82	C	0.492592	-0.377037	-0.485233
C83	C	0.825926	-0.043704	-0.151900
C84	C	1.159259	0.289629	0.181433
C85	C	0.524867	-0.434656	-0.443607
C86	C	0.858200	-0.101323	-0.110274
C87	C	1.191534	0.232010	0.223060
C88	C	1.033533	-0.669037	-0.478842
C89	C	1.366867	-0.335703	-0.145509
C90	C	1.700200	-0.002370	0.187824
C91	C	1.018468	-0.769312	-0.493948
C92	C	1.351801	-0.435979	-0.160615
C93	C	1.685135	-0.102646	0.172718
C94	C	1.176917	-1.051938	-0.335895
C95	C	1.510250	-0.718605	-0.002561
C96	C	1.843584	-0.385272	0.330772
C97	C	1.191071	-0.957724	-0.321698
C98	C	1.524405	-0.624391	0.011636
C99	C	1.857738	-0.291058	0.344969
C100	C	1.147922	-0.910617	-0.364759
C101	C	1.481255	-0.577283	-0.031426
C102	C	1.814589	-0.243950	0.301907
C103	C	1.090615	-0.957732	-0.422020
C104	C	1.423949	-0.624399	-0.088687
C105	C	1.757282	-0.291066	0.244647
C106	C	1.076455	-1.051955	-0.436214
C107	C	1.409788	-0.718622	-0.102881
C108	C	1.743122	-0.385289	0.230453
C109	C	1.047460	-0.910634	-0.465079
C110	C	1.380793	-0.577301	-0.131745
C111	C	1.714127	-0.243967	0.201588
C112	C	0.990153	-0.957749	-0.522339
C113	C	1.323487	-0.624416	-0.189006
C114	C	1.656820	-0.291083	0.144327
C115	C	0.975996	-1.051963	-0.536531
C116	C	1.309329	-0.718630	-0.203198
C117	C	1.642663	-0.385297	0.130135
C118	C	1.019145	-1.099071	-0.493470
C119	C	1.352479	-0.765738	-0.160136
C120	C	1.685812	-0.432404	0.173197
C121	C	1.061620	-0.816411	-0.450885
C122	C	1.394954	-0.483077	-0.117551
C123	C	1.728287	-0.149744	0.215782
C124	C	0.961158	-0.816428	-0.551204
C125	C	1.294492	-0.483095	-0.217871
C126	C	1.627825	-0.149761	0.115463
C127	C	0.947004	-0.910642	-0.565401
C128	C	1.280337	-0.577308	-0.232068
C129	C	1.613671	-0.243975	0.101266
C130	C	1.273658	-0.434667	-0.443615
C131	C	1.606991	-0.101334	-0.110282
C132	C	1.940324	0.232000	0.223052
C133	C	1.360906	-0.434678	-0.443624
C134	C	1.694239	-0.101345	-0.110291
C135	C	2.027572	0.231988	0.223042
C136	C	1.068975	-0.434574	-0.648327
C137	C	1.402308	-0.101241	-0.314994
C138	C	1.735642	0.232092	0.018340
C139	C	1.068999	-0.434546	-0.735573
C140	C	1.402333	-0.101213	-0.402239
C141	C	1.735666	0.232121	-0.068906
C142	C	1.104461	-0.199329	-0.408223
C143	C	1.437794	0.134004	-0.074889
C144	C	1.771128	0.467337	0.258444
C145	C	1.119607	-0.099054	-0.393150
C146	C	1.452941	0.234280	-0.059817
C147	C	1.786274	0.567613	0.273517
C148	C	1.127922	-0.376846	-0.767896
C149	C	1.461256	-0.043513	-0.434562
C150	C	1.794589	0.289820	-0.101229
C151	C	1.127936	-0.376816	-0.849872
C152	C	1.461270	-0.043483	-0.516538
C153	C	1.794603	0.289850	-0.183205
C154	C	1.069030	-0.434491	-0.899524
C155	C	1.402363	-0.101158	-0.566191
C156	C	1.735697	0.232176	-0.232857
C157	C	1.010101	-0.492193	-0.867196
C158	C	1.343434	-0.158860	-0.533862
C159	C	1.676768	0.174473	-0.200529
C160	C	1.010084	-0.492218	-0.785220
C161	C	1.343418	-0.158885	-0.451887
C162	C	1.676751	0.174449	-0.118554
C163	C	1.010141	-0.492139	-1.038058
C164	C	1.343474	-0.158806	-0.704724
C165	C	1.676807	0.174528	-0.371391
C166	C	1.010158	-0.492116	-1.120039
C167	C	1.343491	-0.158782	-0.786705
C168	C	1.676825	0.174551	-0.453372
C169	C	1.127993	-0.376737	-1.102709
C170	C	1.461326	-0.043404	-0.769376
C171	C	1.794659	0.289929	-0.436042
C172	C	1.127976	-0.376762	-1.020734
C173	C	1.461310	-0.043429	-0.687400
C174	C	1.794643	0.289905	-0.354067
C175	C	1.069048	-0.434466	-0.988411
C176	C	1.402381	-0.101132	-0.655078
C177	C	1.735714	0.232201	-0.321745
C178	C	1.068915	-0.434642	-0.239645
C179	C	1.402248	-0.101308	0.093688
C180	C	1.735582	0.232025	0.427022
C181	C	1.069081	-0.434416	-0.152362
C182	C	1.402414	-0.101083	0.180972
C183	C	1.735748	0.232251	0.514305
H184	H	0.754298	-0.539165	-0.368067
H185	H	1.087631	-0.205831	-0.034734
H186	H	1.420964	0.127502	0.298599
H187	H	0.785912	-0.330088	-0.519095
H188	H	1.119245	0.003246	-0.185762
H189	H	1.452579	0.336579	0.147571
H190	H	1.175919	-0.329834	-0.876185
H191	H	1.509252	0.003500	-0.542852
H192	H	1.842586	0.336833	-0.209518
H193	H	1.108280	-0.778058	-0.404262
H194	H	1.441613	-0.444724	-0.070929
H195	H	1.774946	-0.111391	0.262404
Br196	Br	0.930163	-0.570448	-0.994191
Br197	Br	1.263497	-0.237115	-0.660858
Br198	Br	1.596830	0.096218	-0.327525
H199	H	0.962190	-0.539077	-1.160464
H200	H	1.295523	-0.205744	-0.827131
H201	H	1.628856	0.127589	-0.493797
H202	H	0.605564	-0.539176	-0.368083
H203	H	0.938897	-0.205843	-0.034749
H204	H	1.272231	0.127491	0.298584
H205	H	0.926021	-0.778073	-0.586267
H206	H	1.259354	-0.444740	-0.252934
H207	H	1.592687	-0.111407	0.080400
H208	H	1.159449	-0.833903	-0.353196
H209	H	1.492783	-0.500570	-0.019862
H210	H	1.826116	-0.167237	0.313471
Br211	Br	0.619667	-0.298822	-0.541701
Br212	Br	0.953000	0.034511	-0.208368
Br213	Br	1.286333	0.367844	0.124965
Br214	Br	1.268848	-0.893788	-0.243997
Br215	Br	1.602181	-0.560455	0.089336
Br216	Br	1.935514	-0.227121	0.422670
Br217	Br	0.930110	-0.570522	-0.741352
Br218	Br	1.263444	-0.237189	-0.408019
Br219	Br	1.596777	0.096145	-0.074685
H220	H	1.175973	-0.329751	-1.129029
H221	H	1.509307	0.003582	-0.795696
H222	H	1.842640	0.336915	-0.462363
Br223	Br	1.235466	-1.115873	-0.277457
Br224	Br	1.568799	-0.782539	0.055876
Br225	Br	1.902133	-0.449206	0.389210
Br226	Br	0.366812	-0.298851	-0.541735
Br227	Br	0.700145	0.034482	-0.208402
Br228	Br	1.033479	0.367816	0.124932
H229	H	1.175893	-0.329884	-0.727474
H230	H	1.509226	0.003450	-0.394141
H231	H	1.842560	0.336783	-0.060807
Br232	Br	0.898217	-1.115905	-0.614237
Br233	Br	1.231551	-0.782571	-0.280903
Br234	Br	1.564884	-0.449238	0.052430
Br235	Br	0.560049	-0.298840	-0.541720
Br236	Br	0.893382	0.034493	-0.208387
Br237	Br	1.226715	0.367826	0.124947
H238	H	1.007626	-1.175788	-0.505028
H239	H	1.340959	-0.842454	-0.171694
H240	H	1.674292	-0.509121	0.161639
Br241	Br	0.930151	-0.570462	-0.934579
Br242	Br	1.263484	-0.237128	-0.601246
Br243	Br	1.596818	0.096205	-0.267913
H244	H	0.352712	-0.539218	-0.368117
H245	H	0.686045	-0.205885	-0.034784
H246	H	1.019379	0.127449	0.298550
Br247	Br	0.869234	-0.974595	-0.643111
Br248	Br	1.202568	-0.641261	-0.309778
Br249	Br	1.535901	-0.307928	0.023555
H250	H	1.175947	-0.329803	-0.980309
H251	H	1.509280	0.003530	-0.646976
H252	H	1.842613	0.336863	-0.313642
H253	H	0.501442	-0.539198	-0.368093
H254	H	0.834775	-0.205864	-0.034760
H255	H	1.168109	0.127469	0.298573
