data_functionalizedCrystal
_audit_creation_method	'MofGen! by Chris Wilmer'
_symmetry_space_group_name_H-M	'P1'
_symmetry_Int_Tables_number	1
_symmetry_cell_setting	triclinic
loop_
_symmetry_equiv_pos_as_xyz
  x,y,z
_cell_length_a	16.625548
_cell_length_b	14.908178
_cell_length_c	14.908694
_cell_angle_alpha	90.159098
_cell_angle_beta	86.683146
_cell_angle_gamma	93.314952
loop_
_atom_site_label
_atom_site_type_symbol
_atom_site_fract_x
_atom_site_fract_y
_atom_site_fract_z
Zn1	Zn	1.237872	-0.387291	-0.487731
Zn2	Zn	1.737872	0.112709	0.012269
Zn3	Zn	1.222280	-0.529002	-0.328690
Zn4	Zn	1.722280	-0.029002	0.171310
Zn5	Zn	1.095730	-0.378654	-0.337387
Zn6	Zn	1.595730	0.121346	0.162613
Zn7	Zn	1.094812	-0.537620	-0.479002
Zn8	Zn	1.594812	-0.037620	0.020998
O9	O	1.162673	-0.458142	-0.408202
O10	O	1.662673	0.041858	0.091798
O11	O	1.348636	-0.406097	-0.466647
O12	O	1.848636	0.093903	0.033353
O13	O	1.199351	-0.501837	-0.204017
O14	O	1.699351	-0.001837	0.295983
O15	O	1.121495	-0.253965	-0.364623
O16	O	1.621495	0.246035	0.135377
O17	O	1.337181	-0.510212	-0.349800
O18	O	1.837181	-0.010212	0.150200
O19	O	1.225926	-0.260311	-0.475080
O20	O	1.725926	0.239689	0.024920
O21	O	1.106375	-0.391377	-0.210407
O22	O	1.606375	0.108623	0.289593
O23	O	0.982775	-0.399733	-0.356159
O24	O	1.482775	0.100267	0.143841
O25	O	1.119931	-0.524899	-0.605986
O26	O	1.619931	-0.024899	-0.105986
O27	O	0.982101	-0.516524	-0.460203
O28	O	1.482101	-0.016524	0.039797
O29	O	1.225036	-0.414454	-0.612399
O30	O	1.725036	0.085546	-0.112399
O31	O	1.198461	-0.655979	-0.341336
O32	O	1.698461	-0.155979	0.158664
O33	O	1.104811	-0.662311	-0.451770
O34	O	1.604811	-0.162311	0.048230
C35	C	1.149867	-0.691773	-0.394682
C36	C	1.649867	-0.191773	0.105318
C37	C	1.144464	-0.791724	-0.388928
C38	C	1.644464	-0.291724	0.111072
C39	C	0.953182	-0.458127	-0.408178
C40	C	1.453182	0.041873	0.091822
C41	C	0.863560	-0.458144	-0.408188
C42	C	1.363560	0.041856	0.091812
C43	C	1.242983	-0.986006	-0.493258
C44	C	1.742983	-0.486006	0.006742
C45	C	1.237909	-1.079918	-0.487854
C46	C	1.737909	-0.579918	0.012146
C47	C	1.129240	-1.073463	-0.372723
C48	C	1.629240	-0.573463	0.127277
C49	C	1.134313	-0.979551	-0.378126
C50	C	1.634313	-0.479551	0.121874
C51	C	1.191188	-0.935825	-0.438395
C52	C	1.691188	-0.435825	0.061605
C53	C	1.196265	-0.841911	-0.443793
C54	C	1.696265	-0.341911	0.056207
C55	C	1.087592	-0.835458	-0.328666
C56	C	1.587592	-0.335458	0.171334
C57	C	1.082518	-0.929370	-0.323263
C58	C	1.582518	-0.429370	0.176737
C59	C	0.535386	-0.458152	-0.408226
C60	C	1.035386	0.041848	0.091774
C61	C	0.626694	-0.458147	-0.408212
C62	C	1.126694	0.041853	0.091788
C63	C	0.699470	-0.458148	-0.408206
C64	C	1.199470	0.041852	0.091794
C65	C	0.790784	-0.458143	-0.408194
C66	C	1.290784	0.041857	0.091806
C67	C	1.372983	-0.458157	-0.408227
C68	C	1.872983	0.041843	0.091773
C69	C	1.462604	-0.458163	-0.408238
C70	C	1.962604	0.041837	0.091762
C71	C	1.174120	-0.471601	-0.642730
C72	C	1.674120	0.028399	-0.142730
C73	C	1.178998	-0.477337	-0.742671
C74	C	1.678998	0.022663	-0.242671
C75	C	1.175552	-0.223599	-0.421795
C76	C	1.675552	0.276401	0.078205
C77	C	1.181040	-0.123650	-0.427588
C78	C	1.681040	0.376350	0.072412
C79	C	1.091330	-0.373095	-0.937127
C80	C	1.591330	0.126905	-0.437127
C81	C	1.095911	-0.378481	-1.031032
C82	C	1.595911	0.121519	-0.531032
C83	C	1.192736	-0.493499	-1.024386
C84	C	1.692736	0.006501	-0.524386
C85	C	1.188155	-0.488113	-0.930482
C86	C	1.688155	0.011887	-0.430482
C87	C	1.137451	-0.427908	-0.886856
C88	C	1.637451	0.072092	-0.386856
C89	C	1.132876	-0.422518	-0.792950
C90	C	1.632876	0.077482	-0.292950
C91	C	1.229695	-0.537540	-0.786306
C92	C	1.729695	-0.037540	-0.286306
C93	C	1.234276	-0.542926	-0.880210
C94	C	1.734276	-0.042926	-0.380210
C95	C	1.151321	-0.444669	-0.174591
C96	C	1.651321	0.055331	0.325409
C97	C	1.146613	-0.438680	-0.074664
C98	C	1.646613	0.061320	0.425336
H99	H	1.289298	-0.950404	-0.542325
H100	H	1.789298	-0.450404	-0.042325
H101	H	1.280083	-1.120772	-0.532534
H102	H	1.780083	-0.620772	-0.032534
H103	H	1.234004	-0.542527	-1.059922
H104	H	1.734004	-0.042527	-0.559922
O105	O	1.279458	-0.596656	-0.732089
O106	O	1.779458	-0.096656	-0.232089
H107	H	1.262649	-0.668267	-0.746024
H108	H	1.762649	-0.168267	-0.246024
H109	H	1.082932	-1.109081	-0.323659
H110	H	1.582932	-0.609081	0.176341
H111	H	1.036211	-0.964984	-0.274196
H112	H	1.536211	-0.464984	0.225804
H113	H	1.275554	-0.591946	-0.915743
H114	H	1.775554	-0.091946	-0.415743
H115	H	1.058354	-0.333847	-1.071960
H116	H	1.558354	0.166153	-0.571960
O117	O	1.031721	-0.781341	-0.269481
O118	O	1.531721	-0.281341	0.230519
H119	H	0.994931	-0.740887	-0.312132
H120	H	1.494931	-0.240887	0.187868
O121	O	1.257610	-0.794743	-0.508787
O122	O	1.757610	-0.294743	-0.008787
H123	H	1.292770	-0.845419	-0.546032
H124	H	1.792770	-0.345419	-0.046032
H125	H	1.091593	-0.373492	-0.757432
H126	H	1.591593	0.126508	-0.257432
O127	O	1.036650	-0.308157	-0.890071
O128	O	1.536650	0.191843	-0.390071
H129	H	1.073169	-0.259954	-0.849952
H130	H	1.573169	0.240046	-0.349952
