data_functionalizedCrystal
_audit_creation_method	'MofGen! by Chris Wilmer'
_symmetry_space_group_name_H-M	'P1'
_symmetry_Int_Tables_number	1
_symmetry_cell_setting	triclinic
loop_
_symmetry_equiv_pos_as_xyz
  x,y,z
_cell_length_a	9.065218
_cell_length_b	15.072220
_cell_length_c	9.065215
_cell_angle_alpha	90.000049
_cell_angle_beta	85.015291
_cell_angle_gamma	90.012623
loop_
_atom_site_label
_atom_site_type_symbol
_atom_site_fract_x
_atom_site_fract_y
_atom_site_fract_z
O1	O	1.960417	0.073783	0.216348
O2	O	1.531132	0.073784	0.234094
O3	O	1.754650	0.073780	0.010578
O4	O	1.736899	0.073787	0.439863
O5	O	1.754595	-0.073786	0.010590
O6	O	1.531077	-0.073781	0.234106
O7	O	1.960362	-0.073782	0.216359
Zn8	Zn	1.745710	-0.097211	0.225235
Zn9	Zn	1.745784	0.097213	0.225219
O10	O	1.736844	-0.073778	0.439875
C11	C	1.476118	0.000002	0.232394
C12	C	1.312275	0.000002	0.227295
N13	N	1.745671	-0.229900	0.225244
C14	C	1.745781	-0.589101	0.225213
C15	C	1.625768	-0.551492	0.344400
C16	C	1.626053	-0.448666	0.344845
C17	C	1.745725	-0.410897	0.225229
C18	C	1.900135	-0.448188	0.260913
C19	C	1.899464	-0.551046	0.261763
C20	C	1.712752	-0.551204	0.070002
C21	C	1.709233	-0.448341	0.070987
C22	C	1.745703	-0.310184	0.225235
C23	C	1.745813	-0.689815	0.225210
C24	C	2.015376	0.000002	0.218059
C25	C	2.179219	0.000008	0.223159
C26	C	1.752917	-0.000002	-0.044403
C27	C	1.747819	0.000001	-0.208246
N28	N	1.745835	0.229901	0.225197
C29	C	1.738576	0.000006	0.494856
C30	C	1.743674	0.000009	0.658699
H31	H	1.511344	-0.423455	0.323281
H32	H	1.929560	-0.422417	0.372892
F33	F	1.475348	-0.583839	0.316622
F34	F	1.827112	-0.582992	-0.045962
F35	F	1.653260	-0.585247	0.494049
H36	H	1.647358	-0.424050	0.459982
F37	F	1.560754	-0.416487	0.035649
F38	F	1.937096	-0.582392	0.409797
H39	H	1.991668	-0.575922	0.178485
H40	H	1.602490	-0.577195	0.036199
H41	H	1.991658	-0.423721	0.176499
H42	H	1.790808	-0.422634	-0.022021
