data_functionalizedCrystal
_audit_creation_method	'MofGen! by Chris Wilmer'
_symmetry_space_group_name_H-M	'P1'
_symmetry_Int_Tables_number	1
_symmetry_cell_setting	triclinic
loop_
_symmetry_equiv_pos_as_xyz
  x,y,z
_cell_length_a	10.654550
_cell_length_b	16.992695
_cell_length_c	9.730223
_cell_angle_alpha	89.995280
_cell_angle_beta	89.999957
_cell_angle_gamma	87.576577
loop_
_atom_site_label
_atom_site_type_symbol
_atom_site_fract_x
_atom_site_fract_y
_atom_site_fract_z
O1	O	1.677361	0.110190	-0.114188
O2	O	1.312790	0.120688	-0.114214
O3	O	1.493614	0.001288	-0.114190
O4	O	1.496537	0.229590	-0.114212
O5	O	1.493601	0.001285	0.114390
O6	O	1.312777	0.120685	0.114366
O7	O	1.677349	0.110187	0.114391
Zn8	Zn	1.495061	0.115435	0.150671
Zn9	Zn	1.495078	0.115439	-0.150493
O10	O	1.496525	0.229586	0.114368
C11	C	1.265919	0.119916	0.000073
C12	C	1.126277	0.117609	0.000064
C13	C	1.052866	0.187910	0.000061
C14	C	0.921658	0.185738	0.000085
C15	C	0.937282	0.042959	0.000109
C16	C	1.068488	0.045132	0.000095
C17	C	1.489848	-0.027946	0.000099
C18	C	1.478628	-0.115051	0.000098
C19	C	1.586879	-0.164703	0.000107
C20	C	1.576330	-0.246547	0.000093
C21	C	1.457529	-0.278738	0.000080
C22	C	1.349270	-0.229080	0.000067
C23	C	1.359820	-0.147237	0.000071
C24	C	1.413802	-0.522573	0.000058
C25	C	1.403260	-0.604422	0.000059
C26	C	1.630321	-0.621884	0.000082
C27	C	1.640861	-0.540039	0.000094
C28	C	1.532602	-0.490388	0.000074
N29	N	1.446743	-0.362395	0.000071
N30	N	1.543389	-0.406733	0.000074
C31	C	1.724220	0.110959	0.000102
C32	C	1.863862	0.113265	0.000102
C33	C	1.500291	0.258821	0.000075
C34	C	1.511510	0.345926	0.000068
N35	N	1.495059	0.115432	0.356207
N36	N	1.495089	0.115437	-0.356030
C37	C	1.575159	0.062584	0.428144
C38	C	1.575171	0.062584	0.572026
C39	C	1.414980	0.168287	0.572024
C40	C	1.414962	0.168282	0.428144
H41	H	0.890215	-0.016050	0.000142
H42	H	1.718458	-0.662318	0.000096
C43	C	1.272576	-0.639834	0.000044
H44	H	1.281802	-0.695688	0.000063
H45	H	1.227660	-0.622835	-0.079671
H46	H	1.227653	-0.622836	0.079760
H47	H	1.683620	-0.138501	0.000126
C48	C	1.663286	0.004455	0.651151
H49	H	1.710989	-0.027015	0.587697
H50	H	1.614826	-0.028468	0.707293
H51	H	1.718428	0.032990	0.707262
H52	H	1.349770	0.211318	0.630609
C53	C	1.116436	0.267629	0.000038
H54	H	1.205092	0.258857	0.000016
H55	H	1.091731	0.296606	0.079747
H56	H	1.091714	0.296603	-0.079685
C57	C	1.663248	0.004444	0.349017
H58	H	1.710945	-0.027034	0.412473
H59	H	1.718377	0.032965	0.292872
H60	H	1.614757	-0.028481	0.292909
H61	H	1.349729	0.211317	0.369569
C62	C	0.840906	0.263067	0.000075
H63	H	0.754487	0.251396	0.000102
H64	H	0.859190	0.292753	-0.079645
H65	H	0.859210	0.292755	0.079787
C66	C	1.149245	-0.032203	0.000091
H67	H	1.096039	-0.075679	0.000091
H68	H	1.200762	-0.034323	0.079796
H69	H	1.200744	-0.034319	-0.079636
H70	H	1.664480	-0.286971	0.000104
C71	C	1.771542	-0.504635	0.000090
H72	H	1.834503	-0.545929	0.000079
H73	H	1.780378	-0.473074	0.079799
H74	H	1.780373	-0.473070	-0.079633
H75	H	1.325649	-0.482157	0.000042
H76	H	1.252539	-0.255296	0.000048
C77	C	1.240749	-0.092617	0.000061
H78	H	1.264046	-0.039265	0.000050
H79	H	1.192361	-0.102443	0.079764
H80	H	1.192385	-0.102439	-0.079668
