data_functionalizedCrystal
_audit_creation_method	'MofGen! by Chris Wilmer'
_symmetry_space_group_name_H-M	'P1'
_symmetry_Int_Tables_number	1
_symmetry_cell_setting	triclinic
loop_
_symmetry_equiv_pos_as_xyz
  x,y,z
_cell_length_a	17.699083
_cell_length_b	10.654550
_cell_length_c	9.730223
_cell_angle_alpha	90.000193
_cell_angle_beta	89.994169
_cell_angle_gamma	83.883959
loop_
_atom_site_label
_atom_site_type_symbol
_atom_site_fract_x
_atom_site_fract_y
_atom_site_fract_z
O1	O	-1.005081	-0.158800	-0.114094
O2	O	-0.784834	-0.179462	-0.114138
O3	O	-0.900021	0.013697	-0.114110
O4	O	-0.889894	-0.351959	-0.114122
O5	O	-0.900020	0.013692	0.114470
O6	O	-0.784833	-0.179467	0.114442
O7	O	-1.005080	-0.158805	0.114486
Zn8	Zn	-0.894956	-0.169137	0.150756
Zn9	Zn	-0.894958	-0.169130	-0.150408
O10	O	-0.889892	-0.351964	0.114458
C11	C	-0.756632	-0.178724	0.000146
C12	C	-0.672599	-0.176503	0.000129
C13	C	-0.899277	0.060479	0.000178
C14	C	-0.897052	0.199884	0.000173
C15	C	-1.033282	-0.159543	0.000199
C16	C	-1.117314	-0.161764	0.000207
C17	C	-0.624699	-0.289883	0.000126
C18	C	-0.545743	-0.287788	0.000144
C19	C	-0.514688	-0.172313	0.000155
C20	C	-0.562594	-0.058924	0.000162
C21	C	-0.641549	-0.061020	0.000154
C22	C	-0.244177	-0.050470	0.000197
C23	C	-0.165216	-0.048383	0.000201
C24	C	-0.148371	-0.277239	0.000186
C25	C	-0.227326	-0.279334	0.000178
C26	C	-0.275225	-0.165946	0.000193
C27	C	-0.360839	-0.168219	0.000176
C28	C	-0.429076	-0.170039	0.000162
C29	C	-0.890637	-0.398746	0.000167
C30	C	-0.892861	-0.538151	0.000163
N31	N	-0.894960	-0.169140	0.356292
C32	C	-0.964873	0.280557	0.000191
C33	C	-0.962778	0.411541	0.000181
C34	C	-0.825036	0.381166	0.000141
C35	C	-0.827132	0.250185	0.000141
C36	C	-1.044397	0.298094	0.000220
C37	C	-1.042302	0.429078	0.000210
N38	N	-0.894959	-0.169117	-0.355944
C39	C	-0.945979	-0.083638	0.428231
C40	C	-0.945977	-0.083623	0.572114
C41	C	-0.843936	-0.254623	0.572107
C42	C	-0.843935	-0.254631	0.428227
C43	C	-1.004893	0.015084	0.428236
C44	C	-1.004891	0.015099	0.572119
H45	H	-0.649978	-0.383916	0.000115
H46	H	-0.283168	0.041858	0.000210
H47	H	-1.075503	0.269283	-0.095427
H48	H	-0.109361	-0.369564	0.000181
H49	H	-0.771905	0.184504	0.000108
C50	C	-0.693522	0.062119	-0.000133
C51	C	-0.679405	0.131654	-0.117745
C52	C	-0.727275	0.245091	-0.118060
H53	H	-0.684095	0.109629	0.079488
H54	H	-0.745003	0.044385	-0.000211
H55	H	-0.627936	0.149392	-0.117654
H56	H	-0.688837	0.084183	-0.197384
H57	H	-0.778756	0.227356	-0.118138
H58	H	-0.717844	0.292589	-0.038435
H59	H	-0.717708	0.292279	-0.197864
H60	H	-1.072265	0.471361	0.095875
H61	H	-0.139935	0.045657	0.000212
H62	H	-0.768108	0.422138	0.000114
C63	C	-1.078005	0.251372	0.132066
C64	C	-1.098171	0.353944	0.219381
C65	C	-1.129042	0.310931	0.340922
H66	H	-1.041442	0.193240	0.176300
H67	H	-1.121843	0.210763	0.111046
H68	H	-1.054338	0.394532	0.240403
H69	H	-1.134740	0.412085	0.175190
H70	H	-1.172880	0.270322	0.319902
H71	H	-1.092475	0.252799	0.385143
H72	H	-1.142735	0.380519	0.400174
H73	H	-1.066336	0.475144	-0.098480
C74	C	-0.788504	-0.347594	0.350369
C75	C	-0.743834	-0.422478	0.444166
C76	C	-0.692767	-0.508142	0.372494
H77	H	-0.756697	-0.302625	0.294229
H78	H	-0.815976	-0.399895	0.294278
H79	H	-0.716364	-0.370184	0.500233
H80	H	-0.775621	-0.467475	0.500309
H81	H	-0.720240	-0.560443	0.316403
H82	H	-0.660965	-0.463163	0.316356
H83	H	-0.662458	-0.558969	0.436124
H84	H	-1.063052	-0.005401	0.611181
C85	C	-1.078151	-0.024248	0.368513
C86	C	-1.113218	0.073856	0.287544
C87	C	-1.180689	0.037640	0.232477
H88	H	-1.111299	-0.042060	0.441070
H89	H	-1.066980	-0.097547	0.313500
H90	H	-1.124392	0.147133	0.342554
H91	H	-1.080091	0.091681	0.214967
H92	H	-1.169518	-0.035659	0.177464
H93	H	-1.213831	0.019828	0.305042
H94	H	-1.204487	0.104193	0.177523
C95	C	-0.788504	-0.347240	0.650389
C96	C	-0.741841	-0.280427	0.732998
C97	C	-0.690775	-0.365706	0.805142
H98	H	-0.758045	-0.398202	0.587094
H99	H	-0.815979	-0.399439	0.706609
H100	H	-0.714368	-0.228251	0.676783
H101	H	-0.772279	-0.229471	0.796318
H102	H	-0.718250	-0.417905	0.861362
H103	H	-0.660321	-0.416663	0.741837
H104	H	-0.659113	-0.320387	0.861210
H105	H	-0.986503	0.106000	0.616733
H106	H	-0.991971	0.111390	0.389182
H107	H	-0.506745	-0.380114	0.000139
C108	C	-0.260933	-0.404805	-0.000051
C109	C	-0.236615	-0.473340	-0.117634
C110	C	-0.267547	-0.588939	-0.117878
H111	H	-0.314815	-0.390001	-0.000128
H112	H	-0.244515	-0.451547	0.079618
H113	H	-0.253037	-0.426607	-0.197282
H114	H	-0.182738	-0.488177	-0.117582
H115	H	-0.251129	-0.635682	-0.038209
H116	H	-0.321428	-0.574123	-0.117952
H117	H	-0.251047	-0.635459	-0.197649
C118	C	-0.528734	0.066325	0.000107
C119	C	-0.449336	0.043896	0.000073
C120	C	-0.418121	0.159247	-0.000001
H121	H	-0.545056	0.113092	0.079798
H122	H	-0.545087	0.113012	-0.079634
H123	H	-0.432989	-0.002772	0.079806
H124	H	-0.432992	-0.002852	-0.079612
H125	H	-0.434474	0.205935	-0.079742
H126	H	-0.434449	0.206006	0.079691
H127	H	-0.364246	0.144045	-0.000036
