data_functionalizedCrystal
_audit_creation_method	'MofGen! by Chris Wilmer'
_symmetry_space_group_name_H-M	'P1'
_symmetry_Int_Tables_number	1
_symmetry_cell_setting	triclinic
loop_
_symmetry_equiv_pos_as_xyz
  x,y,z
_cell_length_a	8.597366
_cell_length_b	8.597304
_cell_length_c	16.176319
_cell_angle_alpha	82.293375
_cell_angle_beta	97.694587
_cell_angle_gamma	86.359176
loop_
_atom_site_label
_atom_site_type_symbol
_atom_site_fract_x
_atom_site_fract_y
_atom_site_fract_z
O1	O	2.085985	0.234282	0.063152
O2	O	1.629340	0.252263	0.029343
O3	O	1.866646	0.014942	0.063152
O4	O	1.848678	0.471603	0.029343
O5	O	1.866613	0.014926	0.200644
O6	O	1.629306	0.252247	0.166835
O7	O	2.085951	0.234266	0.200644
Cu8	Cu	1.857626	0.243255	0.196294
Cu9	Cu	1.857665	0.243274	0.033693
O10	O	1.848645	0.471587	0.166835
C11	C	1.570823	0.250325	0.094060
C12	C	1.396513	0.244557	0.082054
C13	C	1.864699	-0.043568	0.135926
C14	C	1.858926	-0.217884	0.147927
C15	C	2.144468	0.236203	0.135925
C16	C	2.318778	0.241972	0.147926
C17	C	1.850592	0.530096	0.094059
C18	C	1.856365	0.704413	0.082053
N19	N	1.857609	0.243241	0.310659
N20	N	1.857694	0.243275	-0.080670
C21	C	1.962722	0.138199	0.368893
C22	C	1.962730	0.138198	0.455440
C23	C	1.857632	0.243247	0.483752
C24	C	1.752508	0.348293	0.425511
C25	C	1.752494	0.348286	0.338965
C26	C	1.752562	0.348324	0.774541
C27	C	1.752588	0.348326	0.861094
C28	C	1.962798	0.138235	0.891016
C29	C	1.962784	0.138228	0.804470
C30	C	1.857655	0.243268	0.746237
C31	C	1.857646	0.243267	0.652392
C32	C	1.857648	0.243257	0.577595
H33	H	1.329713	0.242344	0.016470
H34	H	1.856684	-0.284722	0.213513
H35	H	2.048311	0.052663	0.345848
C36	C	1.638368	0.462548	0.711456
C37	C	1.546369	0.554575	0.754779
C38	C	1.441168	0.659835	0.696689
H39	H	1.572004	0.405218	0.677061
H40	H	1.695787	0.528881	0.677065
H41	H	1.488955	0.488250	0.789155
H42	H	1.612691	0.611938	0.789170
H43	H	1.498586	0.726168	0.662298
H44	H	1.374814	0.602492	0.662297
H45	H	1.378744	0.722298	0.726074
H46	H	1.385587	0.244173	0.213515
H47	H	2.048319	0.052664	0.502855
C48	C	1.859048	-0.206279	-0.005381
C49	C	1.727469	-0.096643	-0.026858
C50	C	1.729875	-0.014329	-0.107397
H51	H	1.856575	-0.278228	-0.045177
H52	H	1.952408	-0.152834	-0.005645
H53	H	1.634133	-0.150085	-0.026601
H54	H	1.729914	-0.024661	0.012916
H55	H	1.823235	0.039116	-0.107660
H56	H	1.727406	-0.086290	-0.147185
H57	H	1.640609	0.060078	-0.121976
H58	H	2.048369	0.052693	0.781423
C59	C	2.077096	0.024098	0.954111
C60	C	2.169159	-0.067868	0.910791
C61	C	2.274476	-0.173010	0.968883
H62	H	2.019813	-0.042297	0.988532
H63	H	2.143396	0.081566	0.988476
H64	H	2.102867	-0.125332	0.876440
H65	H	2.226475	-0.001516	0.876374
H66	H	2.340776	-0.115543	1.003248
H67	H	2.217180	-0.239395	1.003300
H68	H	2.336963	-0.235412	0.939498
H69	H	1.666999	0.433872	0.884142
C70	C	1.638574	0.462282	0.456414
C71	C	1.661113	0.439841	0.544671
C72	C	1.556201	0.544840	0.573165
H73	H	1.533480	0.443668	0.436186
H74	H	1.657237	0.567357	0.436111
H75	H	1.642438	0.334791	0.564965
H76	H	1.766185	0.458468	0.564921
H77	H	1.574864	0.649915	0.552863
H78	H	1.451114	0.526217	0.552932
H79	H	1.571489	0.529638	0.633050
H80	H	1.666899	0.433819	0.291550
