data_functionalizedCrystal
_audit_creation_method	'MofGen! by Chris Wilmer'
_symmetry_space_group_name_H-M	'P1'
_symmetry_Int_Tables_number	1
_symmetry_cell_setting	triclinic
loop_
_symmetry_equiv_pos_as_xyz
  x,y,z
_cell_length_a	17.019330
_cell_length_b	17.038272
_cell_length_c	15.500227
_cell_angle_alpha	93.033254
_cell_angle_beta	96.715470
_cell_angle_gamma	92.753247
loop_
_atom_site_label
_atom_site_type_symbol
_atom_site_fract_x
_atom_site_fract_y
_atom_site_fract_z
O1	O	-1.060551	0.092032	-0.150968
O2	O	-0.560551	0.592032	0.349032
O3	O	-0.830924	0.105585	-0.133860
O4	O	-0.330924	0.605585	0.366140
O5	O	-0.944373	-0.015000	-0.142306
O6	O	-0.444373	0.485000	0.357694
O7	O	-0.947103	0.212617	-0.142523
O8	O	-0.447103	0.712617	0.357477
O9	O	-0.937486	-0.007711	0.002096
O10	O	-0.437486	0.492289	0.502096
O11	O	-0.824038	0.112874	0.010541
O12	O	-0.324038	0.612874	0.510541
O13	O	-1.053665	0.099321	-0.006567
O14	O	-0.553665	0.599321	0.493433
Cu15	Cu	-0.938223	0.106763	0.015172
Cu16	Cu	-0.438223	0.606763	0.515172
Cu17	Cu	-0.946366	0.098143	-0.155599
Cu18	Cu	-0.446366	0.598143	0.344401
O19	O	-0.940216	0.219906	0.001878
O20	O	-0.440216	0.719906	0.501878
C21	C	-0.797955	0.108857	-0.059460
C22	C	-0.297955	0.608857	0.440540
C23	C	-0.709976	0.107739	-0.052905
C24	C	-0.209976	0.607739	0.447095
C25	C	-0.212192	0.101642	-0.011884
C26	C	0.287808	0.601642	0.488116
C27	C	-0.294858	0.102692	-0.018045
C28	C	0.205142	0.602692	0.481955
C29	C	-0.339946	0.099238	-0.099840
C30	C	0.160054	0.599238	0.400160
C31	C	-0.302362	0.094741	-0.175479
C32	C	0.197638	0.594741	0.324521
C33	C	-0.219698	0.093697	-0.169318
C34	C	0.280302	0.593697	0.330682
C35	C	-0.589728	0.102198	-0.122382
C36	C	-0.089728	0.602198	0.377618
C37	C	-0.672398	0.103241	-0.128538
C38	C	-0.172398	0.603241	0.371462
C39	C	-0.664888	0.111193	0.028897
C40	C	-0.164888	0.611193	0.528897
C41	C	-0.582222	0.110143	0.035051
C42	C	-0.082222	0.610143	0.535051
C43	C	-0.544646	0.105651	-0.040588
C44	C	-0.044646	0.605651	0.459412
C45	C	-0.424444	0.100309	-0.106139
C46	C	0.075556	0.600309	0.393861
C47	C	-0.460149	0.104585	-0.034288
C48	C	0.039851	0.604585	0.465712
C49	C	-0.938447	-0.040473	-0.069920
C50	C	-0.438447	0.459527	0.430080
C51	C	-0.931040	-0.127232	-0.069369
C52	C	-0.431040	0.372768	0.430631
C53	C	-0.999042	-0.177656	-0.074434
C54	C	-0.499042	0.322344	0.425566
C55	C	-0.992078	-0.259176	-0.073924
C56	C	-0.492078	0.240824	0.426076
C57	C	-0.917112	-0.290268	-0.068341
C58	C	-0.417112	0.209732	0.431659
C59	C	-0.849106	-0.239837	-0.063278
C60	C	-0.349106	0.260163	0.436722
C61	C	-0.856071	-0.158320	-0.063795
C62	C	-0.356071	0.341680	0.436205
C63	C	-0.892508	-0.535914	-0.066520
C64	C	-0.392508	-0.035914	0.433480
C65	C	-0.885548	-0.617438	-0.066001
C66	C	-0.385548	-0.117438	0.433999
C67	C	-1.028521	-0.636771	-0.076648
C68	C	-0.528521	-0.136771	0.423352
C69	C	-1.035479	-0.555251	-0.077159
C70	C	-0.535479	-0.055251	0.422841
C71	C	-0.967473	-0.504827	-0.072101
C72	C	-0.467473	-0.004827	0.427899
C73	C	-0.909992	-0.373594	-0.067816
C74	C	-0.409992	0.126406	0.432184
C75	C	-0.974593	-0.421504	-0.072632
C76	C	-0.474593	0.078496	0.427368
C77	C	-0.086635	0.096043	-0.080966
C78	C	0.413365	0.596043	0.419034
C79	C	-0.174615	0.097143	-0.087518
C80	C	0.325385	0.597143	0.412482
C81	C	-0.946142	0.245379	-0.070509
C82	C	-0.446142	0.745379	0.429491
C83	C	-0.953549	0.332137	-0.071066
C84	C	-0.453549	0.832137	0.428934
N85	N	-0.932500	0.112825	0.135283
N86	N	-0.432500	0.612825	0.635283
N87	N	-0.952094	0.092075	-0.275711
N88	N	-0.452094	0.592075	0.224289
C89	C	-0.980592	0.061748	0.176979
C90	C	-0.480592	0.561748	0.676979
C91	C	-0.976272	0.066340	0.267874
C92	C	-0.476272	0.566340	0.767874
C93	C	-0.923864	0.122013	0.317070
C94	C	-0.423864	0.622013	0.817070
C95	C	-0.875768	0.173093	0.275367
C96	C	-0.375768	0.673093	0.775367
C97	C	-0.880084	0.168497	0.184475
C98	C	-0.380084	0.668497	0.684475
C99	C	-0.908314	0.138558	0.591694
C100	C	-0.408314	0.638558	1.091694
C101	C	-0.904003	0.143152	0.682593
C102	C	-0.404003	0.643152	1.182593
C103	C	-1.004507	0.036397	0.675093
C104	C	-0.504507	0.536397	1.175093
C105	C	-1.008822	0.031809	0.584199
C106	C	-0.508822	0.531809	1.084199
C107	C	-0.960722	0.082886	0.542505
C108	C	-0.460722	0.582886	1.042505
C109	C	-0.919449	0.126710	0.409978
C110	C	-0.419449	0.626710	0.909978
C111	C	-0.965134	0.078185	0.449598
C112	C	-0.465134	0.578185	0.949598
H113	H	-0.325450	0.106353	0.043544
H114	H	0.174550	0.606353	0.543544
H115	H	-0.695492	0.114852	0.090477
H116	H	-0.195492	0.614852	0.590477
Br117	Br	-1.079950	-0.043746	0.517431
Br118	Br	-0.579950	0.456254	1.017431
Br119	Br	-0.804635	0.248647	0.342130
Br120	Br	-0.304635	0.748647	0.842130
Br121	Br	-0.814809	0.237815	0.127887
Br122	Br	-0.314809	0.737815	0.627887
H123	H	-0.423435	0.107402	0.032309
H124	H	0.076565	0.607402	0.532309
Br125	Br	-0.363551	0.090057	-0.286488
Br126	Br	0.136449	0.590057	0.213512
Br127	Br	-1.137223	-0.513061	-0.084763
Br128	Br	-0.637223	-0.013061	0.415237
Br129	Br	-1.051726	-0.013808	0.110222
Br130	Br	-0.551726	0.486192	0.610222
H131	H	-1.007801	0.032852	0.409540
H132	H	-0.507801	0.532852	0.909540
Br133	Br	-0.168698	0.087599	-0.271967
Br134	Br	0.331302	0.587599	0.228033
Br135	Br	-0.848325	0.202267	0.476748
Br136	Br	-0.348325	0.702267	0.976748
H137	H	-0.788067	-0.265160	-0.058738
H138	H	-0.288067	0.234840	0.441262
H139	H	-0.545519	0.112939	0.101657
H140	H	-0.045519	0.612939	0.601657
H141	H	-0.559143	0.098537	-0.183973
H142	H	-0.059143	0.598537	0.316027
H143	H	-0.175488	0.104458	0.054722
H144	H	0.324512	0.604458	0.554722
H145	H	-0.861325	0.188492	0.722645
H146	H	-0.361325	0.688492	1.222645
H147	H	-1.083887	-0.677834	-0.080768
H148	H	-0.583887	-0.177834	0.419232
Br149	Br	-0.485641	0.095613	-0.217144
Br150	Br	0.014359	0.595613	0.282856
H151	H	-0.709106	0.100434	-0.195149
H152	H	-0.209106	0.600434	0.304851
H153	H	-0.800696	-0.117264	-0.059670
H154	H	-0.300696	0.382736	0.440330
Br155	Br	-1.100785	-0.135467	-0.081998
Br156	Br	-0.600785	0.364533	0.418002
H157	H	-1.035631	-0.396186	-0.077196
H158	H	-0.535631	0.103814	0.422804
H159	H	-1.047452	-0.300229	-0.078046
H160	H	-0.547452	0.199771	0.421954
H161	H	-0.824498	-0.642749	-0.061441
H162	H	-0.324498	-0.142749	0.438559
H163	H	-0.837132	-0.494869	-0.062401
H164	H	-0.337132	0.005131	0.437599
Br165	Br	-0.808256	-0.415798	-0.060249
Br166	Br	-0.308256	0.084202	0.439751
H167	H	-1.015431	0.024748	0.301823
H168	H	-0.515431	0.524748	0.801823
Br169	Br	-1.069780	-0.032920	0.731682
Br170	Br	-0.569780	0.467080	1.231682
H171	H	-0.869151	0.180149	0.557754
H172	H	-0.369151	0.680149	1.057754
