data_functionalizedCrystal
_audit_creation_method	'MofGen! by Chris Wilmer'
_symmetry_space_group_name_H-M	'P1'
_symmetry_Int_Tables_number	1
_symmetry_cell_setting	triclinic
loop_
_symmetry_equiv_pos_as_xyz
  x,y,z
_cell_length_a	16.793024
_cell_length_b	16.793047
_cell_length_c	33.586455
_cell_angle_alpha	113.253857
_cell_angle_beta	66.219990
_cell_angle_gamma	112.758327
loop_
_atom_site_label
_atom_site_type_symbol
_atom_site_fract_x
_atom_site_fract_y
_atom_site_fract_z
O1	O	0.005016	-0.570216	-0.583573
O2	O	-0.034529	-0.474528	-0.453458
O3	O	0.114723	-0.474535	-0.528082
O4	O	-0.144235	-0.570209	-0.508949
O5	O	0.108729	-0.346329	-0.530229
O6	O	-0.040523	-0.346322	-0.455605
O7	O	-0.000977	-0.442010	-0.585721
Zn8	Zn	-0.021701	-0.373810	-0.521004
Zn9	Zn	-0.013805	-0.542728	-0.518175
O10	O	-0.150229	-0.442003	-0.511097
C11	C	0.005100	-0.790970	-0.238461
C12	C	-0.040584	-0.395375	-0.435637
C13	C	-0.044693	-0.353446	-0.386631
C14	C	-0.039275	-0.401741	-0.363054
C15	C	-0.040566	-0.125547	-0.300731
C16	C	-0.044689	-0.223451	-0.321635
C17	C	-0.039266	-0.270752	-0.297563
C18	C	0.005118	-0.521142	-0.103554
C19	C	-0.046224	-0.263935	-0.366370
C20	C	-0.036476	-0.360146	-0.318399
C21	C	-0.030850	-0.408530	-0.294565
C22	C	-0.028014	-0.367522	-0.249895
C23	C	-0.030804	-0.278128	-0.229058
C24	C	-0.036430	-0.229743	-0.252892
C25	C	-0.027971	-0.237122	-0.184383
C26	C	-0.022345	-0.285507	-0.160550
C27	C	-0.019555	-0.374900	-0.181386
C28	C	-0.022391	-0.415909	-0.226057
C29	C	-0.019601	-0.505302	-0.246894
C30	C	-0.013975	-0.553687	-0.223060
C31	C	-0.011142	-0.512684	-0.178391
C32	C	-0.013932	-0.423291	-0.157554
C33	C	-0.005516	-0.561069	-0.154557
C34	C	-0.002726	-0.650463	-0.175394
C35	C	-0.005562	-0.691471	-0.220064
C36	C	-0.011185	-0.643081	-0.243897
C37	C	-0.022434	-0.546309	-0.291568
C38	C	-0.019644	-0.635702	-0.312405
C39	C	-0.014021	-0.684089	-0.288567
C40	C	-0.022480	-0.676711	-0.357076
C41	C	-0.028106	-0.628326	-0.380910
C42	C	-0.030896	-0.538933	-0.360073
C43	C	-0.028060	-0.497924	-0.315402
C44	C	-0.036522	-0.490548	-0.383907
C45	C	0.815184	-0.521162	-0.508596
C46	C	0.415541	-0.125553	-0.528781
C47	C	0.375032	-0.223457	-0.531493
C48	C	0.423813	-0.270761	-0.529101
C49	C	0.149318	-0.395376	-0.530584
C50	C	0.246774	-0.353455	-0.532364
C51	C	0.294574	-0.401748	-0.529976
C52	C	0.548961	-0.790984	-0.510398
C53	C	0.286104	-0.263940	-0.532530
C54	C	0.383336	-0.360149	-0.528302
C55	C	0.432207	-0.407971	-0.525810
C56	C	0.392316	-0.497392	-0.524993
C57	C	0.303554	-0.538991	-0.526667
C58	C	0.254683	-0.491169	-0.529159
C59	C	0.263666	-0.628421	-0.525851
C60	C	0.312537	-0.676243	-0.523359
C61	C	0.401299	-0.634644	-0.521685
C62	C	0.441190	-0.545223	-0.522502
C63	C	0.529952	-0.503624	-0.520828
C64	C	0.578823	-0.551446	-0.518336
C65	C	0.538939	-0.640864	-0.517520
C66	C	0.450177	-0.682463	-0.519194
C67	C	0.587810	-0.688687	-0.515028
C68	C	0.676572	-0.647088	-0.513354
C69	C	0.716463	-0.557666	-0.514172
C70	C	0.667586	-0.509847	-0.516662
C71	C	0.569840	-0.414195	-0.521644
C72	C	0.658602	-0.372596	-0.519970
C73	C	0.707476	-0.420426	-0.517480
C74	C	0.698493	-0.283174	-0.520788
C75	C	0.649622	-0.235352	-0.523280
C76	C	0.560860	-0.276951	-0.524954
C77	C	0.520969	-0.366372	-0.524136
C78	C	0.511989	-0.229129	-0.527446
C79	C	-0.040530	-0.395407	-0.935652
C80	C	0.005063	-0.791004	-0.738448
C81	C	0.009186	-0.693099	-0.717543
C82	C	0.003779	-0.645796	-0.741620
C83	C	0.005077	-0.521171	-0.603544
C84	C	0.009198	-0.563096	-0.652550
C85	C	0.003786	-0.514804	-0.676131
C86	C	-0.040516	-0.125574	-0.800747
C87	C	0.010719	-0.652613	-0.672809
C88	C	0.000994	-0.556406	-0.720789
C89	C	-0.004621	-0.508585	-0.744908
C90	C	-0.007444	-0.419162	-0.724369
C91	C	-0.004651	-0.377560	-0.679711
C92	C	0.000964	-0.425381	-0.655592
C93	C	-0.007471	-0.288129	-0.659174
C94	C	-0.013086	-0.240308	-0.683293
C95	C	-0.015878	-0.281910	-0.727951
C96	C	-0.013056	-0.371333	-0.748490
C97	C	-0.015848	-0.412935	-0.793148
C98	C	-0.021463	-0.365114	-0.817267
C99	C	-0.024282	-0.275694	-0.796731
C100	C	-0.021490	-0.234092	-0.752073
C101	C	-0.029897	-0.227873	-0.820850
C102	C	-0.032690	-0.269476	-0.865508
C103	C	-0.029867	-0.358899	-0.886047
C104	C	-0.024255	-0.406717	-0.861925
C105	C	-0.013028	-0.502367	-0.813685
C106	C	-0.015821	-0.543969	-0.858343
C107	C	-0.021433	-0.496140	-0.882464
C108	C	-0.012998	-0.633392	-0.878882
C109	C	-0.007383	-0.681213	-0.854763
C110	C	-0.004591	-0.639611	-0.810105
C111	C	-0.007414	-0.550188	-0.789566
C112	C	0.001024	-0.687432	-0.785986
O113	O	-0.000965	0.173549	-0.277957
O114	O	-0.040516	-0.085616	-0.325254
O115	O	0.108737	0.059592	-0.327284
O116	O	-0.150219	0.028341	-0.275927
O117	O	0.114753	0.055151	-0.263265
O118	O	-0.034500	-0.090057	-0.261234
O119	O	0.005051	0.169108	-0.213937
Zn120	Zn	-0.013769	0.038820	-0.227421
Zn121	Zn	-0.021696	0.044672	-0.311770
O122	O	-0.144202	0.023900	-0.211907
O123	O	-0.034458	-0.474571	0.046517
O124	O	0.005076	-0.570190	-0.083599
O125	O	-0.144170	-0.570237	-0.008972
O126	O	0.114787	-0.474523	-0.028110
O127	O	-0.150200	-0.442024	-0.011093
O128	O	-0.000954	-0.441976	-0.085720
O129	O	-0.040488	-0.346357	0.044396
Zn130	Zn	-0.021679	-0.373810	-0.020999
Zn131	Zn	-0.013734	-0.542737	-0.018204
O132	O	0.108757	-0.346309	-0.030231
C133	C	-0.850734	0.086244	-0.289716
C134	C	-0.450996	0.035117	-0.097351
C135	C	-0.410501	0.028587	-0.146852
C136	C	-0.459292	0.034683	-0.169840
C137	C	-0.184802	0.024283	-0.235878
C138	C	-0.282257	0.023363	-0.213592
C139	C	-0.330068	0.029423	-0.237088
C140	C	-0.584541	0.075410	-0.428242
C141	C	-0.321573	0.024104	-0.168302
C142	C	-0.418828	0.035176	-0.215083
C143	C	-0.467711	0.041476	-0.238329
C144	C	-0.427833	0.042022	-0.283580
C145	C	-0.339073	0.036269	-0.305586
C146	C	-0.290190	0.029970	-0.282340
C147	C	-0.299198	0.036812	-0.350842
C148	C	-0.348081	0.043111	-0.374088
C149	C	-0.436841	0.048864	-0.352082
C150	C	-0.476719	0.048318	-0.306830
C151	C	-0.565480	0.054071	-0.284825
C152	C	-0.614362	0.060370	-0.308071
C153	C	-0.574491	0.060913	-0.353321
C154	C	-0.485730	0.055160	-0.375326
C155	C	-0.623374	0.067212	-0.376567
C156	C	-0.712134	0.072965	-0.354561
C157	C	-0.752012	0.072419	-0.309309
C158	C	-0.703123	0.066123	-0.286065
C159	C	-0.605355	0.053528	-0.239569
C160	C	-0.694115	0.059281	-0.217564
C161	C	-0.743001	0.065577	-0.240813
C162	C	-0.733993	0.058735	-0.172312
C163	C	-0.685110	0.052436	-0.149066
C164	C	-0.596350	0.046683	-0.171072
C165	C	-0.556472	0.047229	-0.216323
C166	C	-0.547467	0.040383	-0.147826
O167	O	0.585213	0.169090	-0.504004
O168	O	0.494056	-0.090076	-0.525516
O169	O	0.488081	0.055124	-0.449918
O170	O	0.591189	0.023889	-0.579602
O171	O	0.359978	0.059584	-0.452885
O172	O	0.365953	-0.085616	-0.528483
O173	O	0.457110	0.173550	-0.506971
Zn174	Zn	0.391193	0.044675	-0.518198
Zn175	Zn	0.559974	0.038798	-0.514289
O176	O	0.463086	0.028349	-0.582569
C177	C	0.815354	-0.521094	-0.008709
C178	C	0.415547	-0.125494	-0.028771
C179	C	0.375059	-0.223405	-0.031498
C180	C	0.423859	-0.270708	-0.029121
C181	C	0.149365	-0.395355	-0.030599
C182	C	0.246820	-0.353421	-0.032381
C183	C	0.294640	-0.401713	-0.030008
C184	C	0.549171	-0.790955	-0.010537
C185	C	0.286131	-0.263897	-0.032533
C186	C	0.383402	-0.360104	-0.028335
C187	C	0.432293	-0.407926	-0.025859
C188	C	0.392422	-0.497356	-0.025055
C189	C	0.303660	-0.538965	-0.026727
C190	C	0.254769	-0.491143	-0.029204
C191	C	0.263791	-0.628403	-0.025925
C192	C	0.312683	-0.676224	-0.023448
C193	C	0.401445	-0.634615	-0.021775
C194	C	0.441316	-0.545185	-0.022579
C195	C	0.530078	-0.503576	-0.020906
C196	C	0.578969	-0.551398	-0.018429
C197	C	0.539104	-0.640825	-0.017627
C198	C	0.450342	-0.682434	-0.019300
C199	C	0.587995	-0.688646	-0.015150
C200	C	0.676757	-0.647037	-0.013477
C201	C	0.716628	-0.557607	-0.014281
C202	C	0.667731	-0.509789	-0.016757
C203	C	0.569946	-0.414138	-0.021709
C204	C	0.658708	-0.372530	-0.020036
C205	C	0.707602	-0.420359	-0.017561
C206	C	0.698579	-0.283100	-0.020840
C207	C	0.649688	-0.235278	-0.023317
C208	C	0.560926	-0.276887	-0.024990
C209	C	0.521055	-0.366317	-0.024186
C210	C	0.512035	-0.229066	-0.027467
O211	O	-0.620614	0.089309	0.052274
O212	O	-0.529507	0.043784	-0.078544
O213	O	-0.523494	0.194833	-0.006033
O214	O	-0.626628	-0.061740	-0.020236
O215	O	-0.395386	0.185419	-0.005549
O216	O	-0.401400	0.034370	-0.078059
O217	O	-0.492507	0.079895	0.052758
Zn218	Zn	-0.426614	0.055638	-0.012574
Zn219	Zn	-0.595401	0.068041	-0.013212
O220	O	-0.498521	-0.071154	-0.019752
C221	C	-0.437537	0.048335	0.402491
C222	C	-0.837226	0.099430	0.210091
C223	C	-0.739773	0.100339	0.187806
C224	C	-0.691967	0.094287	0.211308
C225	C	-0.571027	0.088563	0.071568
C226	C	-0.611521	0.095108	0.121070
C227	C	-0.562739	0.089011	0.144061
C228	C	-0.171338	0.037467	0.263967
C229	C	-0.700452	0.099593	0.142516
C230	C	-0.603213	0.088528	0.189308
C231	C	-0.554892	0.082255	0.212848
C232	C	-0.466098	0.076466	0.191141
C233	C	-0.425624	0.076949	0.145894
C234	C	-0.473945	0.083222	0.122354
C235	C	-0.336822	0.071163	0.124188
C236	C	-0.288502	0.064890	0.147728
C237	C	-0.328975	0.064407	0.192975
C238	C	-0.417770	0.070196	0.214682
C239	C	-0.458244	0.069713	0.259929
C240	C	-0.409923	0.063441	0.283469
C241	C	-0.321132	0.057655	0.261765
C242	C	-0.280658	0.058138	0.216518
C243	C	-0.272811	0.051382	0.285305
C244	C	-0.313285	0.050899	0.330552
C245	C	-0.402079	0.056688	0.352259
C246	C	-0.450397	0.062957	0.328716
C247	C	-0.547046	0.075500	0.281635
C248	C	-0.587520	0.075016	0.326882
C249	C	-0.539191	0.068747	0.350423
C250	C	-0.676314	0.080806	0.348589
C251	C	-0.724634	0.087078	0.325049
C252	C	-0.684160	0.087561	0.279802
C253	C	-0.595366	0.081772	0.258095
C254	C	-0.732481	0.093834	0.256262
O255	O	-0.040608	-1.085661	-0.825229
O256	O	-0.001018	-0.826491	-0.777938
O257	O	-0.150287	-0.971682	-0.775894
O258	O	0.108661	-0.940470	-0.827272
O259	O	-0.144253	-0.976123	-0.711878
O260	O	0.005016	-0.830932	-0.713922
O261	O	-0.034575	-1.090102	-0.761213
Zn262	Zn	-0.013821	-0.961222	-0.727403
Zn263	Zn	-0.021771	-0.955371	-0.811747
O264	O	0.114695	-0.944911	-0.763256
C265	C	-0.049547	-0.210620	-0.392935
C266	C	0.026656	-0.136368	-0.395287
C267	C	0.023636	-0.087239	-0.419760
H268	H	-0.102650	-0.190329	-0.378152
H269	H	-0.050169	-0.247954	-0.422731
H270	H	0.027269	-0.099041	-0.365496
H271	H	0.079771	-0.156633	-0.410074
H272	H	0.023014	-0.124573	-0.449556
H273	H	-0.029470	-0.066954	-0.404974
H274	H	0.075342	-0.036858	-0.421362
C275	C	0.157914	-0.536665	-0.530959
C276	C	0.133333	-0.625571	-0.529695
C277	C	0.044190	-0.667505	-0.531344
H278	H	0.153367	-0.536524	-0.558218
H279	H	0.118659	-0.504948	-0.505668
H280	H	0.172577	-0.657280	-0.554984
H281	H	0.137859	-0.625738	-0.502437
H282	H	0.004936	-0.635788	-0.506053
H283	H	0.039652	-0.667358	-0.558604
H284	H	0.027498	-0.727829	-0.530483
H285	H	0.417564	-0.755580	-0.518528
C286	C	-0.429680	0.083684	0.073022
C287	C	-0.341220	0.077223	0.058990
C288	C	-0.300421	0.077627	0.013545
H289	H	-0.428420	0.138084	0.069985
H290	H	-0.463265	0.033926	0.054748
H291	H	-0.307643	0.126977	0.077259
H292	H	-0.342453	0.022826	0.062016
H293	H	-0.334007	0.027869	-0.004729
H294	H	-0.299168	0.132028	0.010513
H295	H	-0.240400	0.073235	0.004018
H296	H	-0.315470	0.043557	-0.411085
H297	H	0.191099	-0.662437	-0.527221
C298	C	0.232322	-0.210581	-0.533851
C299	C	0.226507	-0.136413	-0.495216
C300	C	0.176974	-0.087233	-0.496415
H301	H	0.173259	-0.247885	-0.534474
H302	H	0.261743	-0.190211	-0.560248
H303	H	0.197084	-0.156784	-0.468826
H304	H	0.285555	-0.099088	-0.494585
H305	H	0.206395	-0.066864	-0.522812
H306	H	0.117915	-0.124545	-0.497039
H307	H	0.173029	-0.036901	-0.470205
H308	H	0.013347	-0.692513	-0.652885
H309	H	-0.709407	0.080425	0.385586
C310	C	-0.754136	0.103974	0.116602
C311	C	-0.710665	0.180800	0.101167
C312	C	-0.760086	0.184858	0.077288
H313	H	-0.813208	0.106796	0.136047
H314	H	-0.758062	0.051791	0.091420
H315	H	-0.706749	0.232970	0.126345
H316	H	-0.651597	0.177995	0.081716
H317	H	-0.764013	0.132675	0.052107
H318	H	-0.819156	0.187677	0.096736
H319	H	-0.730594	0.236979	0.066809
C320	C	0.795284	-0.237635	-0.018925
C321	C	0.796644	-0.163043	0.019501
C322	C	0.885706	-0.121144	0.021286
H323	H	0.831250	-0.218398	-0.045394
H324	H	0.818807	-0.279052	-0.017302
H325	H	0.773133	-0.121634	0.017874
H326	H	0.760697	-0.182256	0.045976
H327	H	0.909229	-0.162561	0.022909
H328	H	0.921664	-0.101912	-0.005185
H329	H	0.886639	-0.070534	0.047360
C330	C	0.232166	-0.210681	-0.033820
C331	C	0.155818	-0.208081	0.004301
C332	C	0.106087	-0.159059	0.003137
H333	H	0.213685	-0.238798	-0.060558
H334	H	0.268703	-0.151062	-0.033722
H335	H	0.119287	-0.267690	0.004199
H336	H	0.174273	-0.179958	0.031044
H337	H	0.142624	-0.099439	0.003234
H338	H	0.087612	-0.187180	-0.023603
H339	H	0.054283	-0.157281	0.029003
C340	C	0.268908	-0.773737	-0.522499
C341	C	0.180359	-0.800049	-0.524518
C342	C	0.140146	-0.889858	-0.523733
H343	H	0.267882	-0.779553	-0.495277
H344	H	0.302718	-0.811000	-0.547826
H345	H	0.146558	-0.762797	-0.499194
H346	H	0.181359	-0.794255	-0.551739
H347	H	0.173955	-0.927121	-0.549060
H348	H	0.139126	-0.895665	-0.496510
H349	H	0.080064	-0.907724	-0.525107
C350	C	-0.728756	0.051807	-0.099740
C351	C	-0.817321	0.058197	-0.085388
C352	C	-0.857562	0.057605	-0.039956
H353	H	-0.695005	0.101511	-0.081535
H354	H	-0.729741	-0.002648	-0.096864
H355	H	-0.816332	0.112646	-0.088261
H356	H	-0.851096	0.008498	-0.103581
H357	H	-0.858547	0.003151	-0.037079
H358	H	-0.823804	0.107311	-0.021754
H359	H	-0.917660	0.061933	-0.030213
H360	H	-0.038719	-0.156659	-0.235851
C361	C	-0.019591	-0.774206	-0.379823
C362	C	-0.098182	-0.825138	-0.392820
C363	C	-0.095542	-0.914948	-0.413782
H364	H	-0.015862	-0.797366	-0.359186
H365	H	0.031781	-0.777419	-0.405871
H366	H	-0.149540	-0.821930	-0.366775
H367	H	-0.101926	-0.802007	-0.413461
H368	H	-0.044170	-0.918161	-0.439830
H369	H	-0.091811	-0.938099	-0.393142
H370	H	-0.148860	-0.949515	-0.422606
C371	C	-0.191692	0.058637	0.123991
C372	C	-0.166477	0.060432	0.079147
C373	C	-0.077299	0.054683	0.057270
H374	H	-0.187352	0.004005	0.124125
H375	H	-0.152637	0.108168	0.139434
H376	H	-0.205520	0.010906	0.063709
H377	H	-0.170795	0.115060	0.079000
H378	H	-0.038244	0.104213	0.072713
H379	H	-0.072968	0.000050	0.057407
H380	H	-0.060176	0.055908	0.026843
H381	H	0.710767	-0.684484	-0.506030
H382	H	-0.011748	-0.757184	-0.305606
C383	C	0.158000	-0.536650	-0.031003
C384	C	0.133441	-0.625564	-0.029754
C385	C	0.044298	-0.667508	-0.031402
H386	H	0.153443	-0.536495	-0.058257
H387	H	0.118740	-0.504949	-0.005706
H388	H	0.172689	-0.657257	-0.055049
H389	H	0.137976	-0.625745	-0.002502
H390	H	0.005038	-0.635806	-0.006105
H391	H	0.039750	-0.667346	-0.058657
H392	H	0.027621	-0.727837	-0.030551
C393	C	0.804221	-0.374902	-0.515635
C394	C	0.828793	-0.285983	-0.516878
C395	C	0.917900	-0.244021	-0.515174
H396	H	0.843538	-0.406560	-0.540906
H397	H	0.808677	-0.375083	-0.488357
H398	H	0.824345	-0.285808	-0.544153
H399	H	0.789500	-0.254301	-0.491610
H400	H	0.922356	-0.244201	-0.487896
H401	H	0.957208	-0.275686	-0.540445
H402	H	0.934580	-0.183683	-0.516013
H403	H	0.280077	-0.749342	-0.022791
C404	C	0.693263	-0.137867	-0.524161
C405	C	0.781818	-0.111563	-0.522151
C406	C	0.822045	-0.021765	-0.522956
H407	H	0.659493	-0.100571	-0.498844
H408	H	0.694264	-0.132097	-0.551394
H409	H	0.780811	-0.117325	-0.494921
H410	H	0.815611	-0.148835	-0.547465
H411	H	0.823046	-0.015995	-0.550190
H412	H	0.788268	0.015523	-0.497639
H413	H	0.882136	-0.003909	-0.521597
H414	H	0.771070	-0.249160	-0.519423
H415	H	-0.011621	-0.389765	-0.121028
C416	C	0.722397	-0.696736	-0.003633
C417	C	0.747357	-0.644986	0.036037
C418	C	0.789404	-0.690724	0.045127
H419	H	0.774724	-0.706629	-0.028263
H420	H	0.681650	-0.752973	0.000264
H421	H	0.788102	-0.588766	0.032138
H422	H	0.695047	-0.635092	0.060675
H423	H	0.748657	-0.746961	0.049024
H424	H	0.841727	-0.700615	0.020495
H425	H	0.806337	-0.655623	0.072046
H426	H	0.012418	-0.684570	-0.156900
C427	C	-0.757597	0.093862	-0.378890
C428	C	-0.708386	0.177263	-0.387519
C429	C	-0.750233	0.196540	-0.409933
H430	H	-0.817381	0.095949	-0.360383
H431	H	-0.759565	0.048280	-0.406755
H432	H	-0.706429	0.222834	-0.359658
H433	H	-0.648603	0.175197	-0.406030
H434	H	-0.752200	0.150958	-0.437797
H435	H	-0.810016	0.198622	-0.391423
H436	H	-0.716845	0.253124	-0.415794
C437	C	-0.004302	-0.242818	-0.610508
C438	C	0.076130	-0.243274	-0.607338
C439	C	0.079060	-0.201549	-0.562509
H440	H	-0.054396	-0.274567	-0.591092
H441	H	-0.006763	-0.182444	-0.601666
H442	H	0.078583	-0.303637	-0.616174
H443	H	0.126238	-0.211521	-0.626744
H444	H	0.076598	-0.141175	-0.553668
H445	H	0.028963	-0.233302	-0.543097
H446	H	0.133636	-0.201845	-0.560354
C447	C	-0.263327	0.029829	0.352545
C448	C	-0.250345	-0.056104	0.328815
C449	C	-0.204318	-0.075539	0.349058
H450	H	-0.297903	0.031591	0.383145
H451	H	-0.206323	0.073172	0.351766
H452	H	-0.307340	-0.099436	0.329598
H453	H	-0.215761	-0.057887	0.298216
H454	H	-0.147314	-0.032195	0.348280
H455	H	-0.238899	-0.073772	0.379657
H456	H	-0.195497	-0.133842	0.332958
H457	H	-0.030422	-0.661858	-0.417434
C458	C	-0.583491	0.068182	0.399742
C459	C	-0.671968	0.074596	0.413770
C460	C	-0.712805	0.074063	0.459196
H461	H	-0.549971	0.117898	0.418054
H462	H	-0.584710	0.013739	0.402728
H463	H	-0.670744	0.129032	0.410788
H464	H	-0.705511	0.024884	0.395471
H465	H	-0.714023	0.019620	0.462182
H466	H	-0.679277	0.123780	0.477503
H467	H	-0.772842	0.078407	0.468718
H468	H	-0.030255	-0.164038	-0.167345
H469	H	-0.303725	0.071562	0.087197
H470	H	-0.023718	-0.530163	-0.918978
C471	C	-0.016104	-0.142812	-0.660831
C472	C	-0.012420	-0.116498	-0.616380
C473	C	-0.015190	-0.026689	-0.595677
H474	H	-0.070625	-0.136997	-0.660281
H475	H	0.034056	-0.105551	-0.677487
H476	H	-0.062575	-0.153749	-0.599728
H477	H	0.042098	-0.122292	-0.616917
H478	H	0.034970	0.010573	-0.612333
H479	H	-0.069712	-0.020882	-0.595130
H480	H	-0.012683	-0.008821	-0.565517
C481	C	-0.052687	-0.219494	-0.887991
C482	C	0.013665	-0.137391	-0.888858
C483	C	-0.004718	-0.091331	-0.909571
H484	H	-0.110271	-0.208526	-0.871315
H485	H	-0.052567	-0.254911	-0.918136
H486	H	0.013536	-0.101981	-0.858719
H487	H	0.071256	-0.148333	-0.905537
H488	H	-0.004598	-0.126747	-0.939716
H489	H	-0.062303	-0.080369	-0.892893
H490	H	0.040303	-0.035622	-0.910167
H491	H	0.544602	-0.156012	-0.528109
C492	C	-0.019463	-0.240794	-0.111818
C493	C	-0.098055	-0.212760	-0.085134
C494	C	-0.095441	-0.171571	-0.040239
H495	H	0.031893	-0.190117	-0.110754
H496	H	-0.015751	-0.282559	-0.100525
H497	H	-0.101758	-0.170997	-0.096424
H498	H	-0.149423	-0.263420	-0.086185
H499	H	-0.091729	-0.213336	-0.028946
H500	H	-0.044082	-0.120898	-0.039180
H501	H	-0.148767	-0.152552	-0.022128
C502	C	-0.267790	0.020001	-0.142353
C503	C	-0.261965	0.097113	-0.105349
C504	C	-0.212435	0.093362	-0.081431
H505	H	-0.208729	0.017149	-0.161805
H506	H	-0.297217	-0.031997	-0.131770
H507	H	-0.232535	0.149097	-0.115932
H508	H	-0.321010	0.099980	-0.085886
H509	H	-0.241862	0.041363	-0.070848
H510	H	-0.153378	0.090507	-0.100887
H511	H	-0.208483	0.145676	-0.056319
C512	C	-0.016064	-0.678913	-0.927559
C513	C	-0.012391	-0.767831	-0.940435
C514	C	-0.015226	-0.809795	-0.985270
H515	H	0.034061	-0.647255	-0.947004
H516	H	-0.070617	-0.678734	-0.929792
H517	H	0.042156	-0.768004	-0.938206
H518	H	-0.062512	-0.799513	-0.921002
H519	H	-0.069779	-0.809617	-0.987502
H520	H	0.034900	-0.778130	-1.004710
H521	H	-0.012742	-0.870133	-0.994010
H522	H	0.191224	-0.662427	-0.027294
H523	H	0.003251	-0.391359	-0.619081
C524	C	-0.821363	0.093613	0.348758
C525	C	-0.823016	0.170545	0.386045
C526	C	-0.912096	0.176621	0.407892
H527	H	-0.857595	0.041682	0.358854
H528	H	-0.844433	0.097496	0.328188
H529	H	-0.799958	0.166654	0.406611
H530	H	-0.786803	0.222490	0.375962
H531	H	-0.935166	0.180504	0.387322
H532	H	-0.948321	0.124685	0.417984
H533	H	-0.913228	0.228823	0.433190
C534	C	-0.004340	-0.778724	-0.877066
C535	C	0.001178	-0.811842	-0.846255
C536	C	0.003974	-0.901666	-0.866784
H537	H	0.047070	-0.782236	-0.903070
H538	H	-0.057612	-0.813685	-0.885880
H539	H	0.054444	-0.776891	-0.837448
H540	H	-0.050227	-0.808353	-0.820250
H541	H	-0.049299	-0.936627	-0.875598
H542	H	0.055385	-0.905169	-0.892788
H543	H	0.007710	-0.924150	-0.845881
C544	C	0.693100	-0.137813	-0.024259
C545	C	0.694344	-0.129601	-0.064415
C546	C	0.734326	-0.039829	-0.065293
H547	H	0.753229	-0.119725	-0.022925
H548	H	0.659235	-0.100573	0.001050
H549	H	0.728210	-0.166828	-0.089716
H550	H	0.634227	-0.147670	-0.065757
H551	H	0.700461	-0.002589	-0.039984
H552	H	0.794452	-0.021749	-0.063957
H553	H	0.735168	-0.034244	-0.092536
H554	H	-0.806568	0.063430	-0.154318
H555	H	0.003321	-0.760550	-0.802778
C556	C	-0.829202	0.100394	0.279968
C557	C	-0.830836	0.177338	0.317248
C558	C	-0.919906	0.183449	0.339089
H559	H	-0.865456	0.048473	0.290069
H560	H	-0.852256	0.104283	0.259393
H561	H	-0.807794	0.173442	0.337819
H562	H	-0.794600	0.229272	0.307159
H563	H	-0.942960	0.187337	0.318515
H564	H	-0.956153	0.131524	0.349188
H565	H	-0.921025	0.235659	0.364384
H566	H	-0.023809	-0.160979	-0.735279
C567	C	-0.202443	0.030478	-0.374760
C568	C	-0.168032	0.024796	-0.344598
C569	C	-0.078909	0.018941	-0.366620
H570	H	-0.166449	0.082487	-0.384822
H571	H	-0.201328	-0.021664	-0.400094
H572	H	-0.169141	0.076933	-0.319272
H573	H	-0.204002	-0.027212	-0.334533
H574	H	-0.077794	-0.033201	-0.391954
H575	H	-0.042923	0.070952	-0.376682
H576	H	-0.055553	0.015077	-0.346160
C577	C	-0.839712	0.071984	-0.216723
C578	C	-0.864255	0.070216	-0.171924
C579	C	-0.953316	0.076172	-0.149713
H580	H	-0.879093	0.022538	-0.231994
H581	H	-0.844092	0.126683	-0.216767
H582	H	-0.859883	0.015523	-0.171882
H583	H	-0.824897	0.119659	-0.156641
H584	H	-0.957695	0.130871	-0.149757
H585	H	-0.992689	0.026725	-0.164987
H586	H	-0.969977	0.074982	-0.119313
H587	H	-0.217624	0.025258	-0.300336
H588	H	-0.038841	-0.524079	-0.420431
H589	H	-0.453130	0.055597	-0.412328
H590	H	-0.580066	0.039960	-0.110823
H591	H	0.417746	-0.755558	-0.018645
H592	H	-0.208057	0.053400	0.198770
H593	H	0.780178	-0.386331	-0.016193
H594	H	0.544632	-0.155941	-0.028119
