data_functionalizedCrystal
_audit_creation_method	'MofGen! by Chris Wilmer'
_symmetry_space_group_name_H-M	'P1'
_symmetry_Int_Tables_number	1
_symmetry_cell_setting	triclinic
loop_
_symmetry_equiv_pos_as_xyz
  x,y,z
_cell_length_a	25.639242
_cell_length_b	12.827892
_cell_length_c	12.827885
_cell_angle_alpha	90.029786
_cell_angle_beta	89.969977
_cell_angle_gamma	89.989080
loop_
_atom_site_label
_atom_site_type_symbol
_atom_site_fract_x
_atom_site_fract_y
_atom_site_fract_z
Zn1	Zn	0.799350	0.416107	-0.591148
Zn2	Zn	1.299350	0.916107	-0.091148
Zn3	Zn	0.799297	0.590884	-0.416409
Zn4	Zn	1.299297	1.090884	0.083591
Zn5	Zn	0.711915	0.416144	-0.416389
Zn6	Zn	1.211915	0.916144	0.083611
Zn7	Zn	0.711907	0.590793	-0.591076
Zn8	Zn	1.211907	1.090793	-0.091076
O9	O	0.755617	0.503482	-0.503756
O10	O	1.255617	1.003482	-0.003756
O11	O	0.872508	0.439314	-0.568007
O12	O	1.372508	0.939314	-0.068007
O13	O	0.787687	0.567759	-0.270170
O14	O	1.287687	1.067759	0.229830
O15	O	0.723538	0.269903	-0.439594
O16	O	1.223538	0.769903	0.060406
O17	O	0.872470	0.567722	-0.439627
O18	O	1.372470	1.067722	0.060373
O19	O	0.787777	0.269876	-0.567988
O20	O	1.287777	0.769876	-0.067988
O21	O	0.723487	0.439378	-0.270156
O22	O	1.223487	0.939378	0.229844
O23	O	0.638748	0.439289	-0.439523
O24	O	1.138748	0.939289	0.060477
O25	O	0.723526	0.567567	-0.737322
O26	O	1.223526	1.067567	-0.237322
O27	O	0.638743	0.567603	-0.567865
O28	O	1.138743	1.067603	-0.067865
O29	O	0.787770	0.439226	-0.737375
O30	O	1.287770	0.939226	-0.237375
O31	O	0.787680	0.737108	-0.439556
O32	O	1.287680	1.237108	0.060444
O33	O	0.723474	0.737041	-0.567884
O34	O	1.223474	1.237041	-0.067884
C35	C	0.619775	0.503441	-0.503685
C36	C	1.119775	1.003441	-0.003685
C37	C	0.561661	0.503449	-0.503679
C38	C	1.061661	1.003449	-0.003679
C39	C	0.755585	0.774992	-0.503737
C40	C	1.255585	1.274992	-0.003737
C41	C	0.755619	0.891145	-0.503764
C42	C	1.255619	1.391145	-0.003764
C43	C	0.755653	0.503382	-0.776326
C44	C	1.255653	1.003382	-0.276326
C45	C	0.755668	0.503339	-0.892479
C46	C	1.255668	1.003339	-0.392479
C47	C	0.201304	0.570407	-0.570520
C48	C	0.701304	1.070407	-0.070520
C49	C	0.146699	0.570413	-0.570536
C50	C	0.646699	1.070413	-0.070536
O51	O	0.118468	0.627292	-0.627306
O52	O	0.618468	1.127292	-0.127306
N53	N	0.119378	0.503511	-0.503824
N54	N	0.619378	1.003511	-0.003824
C55	C	0.146664	0.436590	-0.437098
C56	C	0.646664	0.936590	0.062902
O57	O	0.118412	0.379685	-0.380356
O58	O	0.618412	0.879685	0.119644
C59	C	0.201268	0.436580	-0.437088
C60	C	0.701268	0.936580	0.062912
C61	C	0.228586	0.503494	-0.503797
C62	C	0.728586	1.003494	-0.003797
C63	C	0.228622	0.637315	-0.637224
C64	C	0.728622	1.137315	-0.137224
C65	C	0.283223	0.637309	-0.637206
C66	C	0.783223	1.137309	-0.137206
C67	C	0.310505	0.570396	-0.570483
C68	C	0.810505	1.070396	-0.070483
C69	C	0.283186	0.503488	-0.503779
C70	C	0.783186	1.003488	-0.003779
C71	C	0.228553	0.369655	-0.370368
C72	C	0.728553	0.869655	0.129632
C73	C	0.283160	0.369649	-0.370364
C74	C	0.783160	0.869649	0.129636
C75	C	0.310478	0.436563	-0.437073
C76	C	0.810478	0.936563	0.062927
C77	C	0.365069	0.436570	-0.437038
C78	C	0.865069	0.936570	0.062962
N79	N	0.392390	0.503472	-0.503750
N80	N	0.892390	1.003472	-0.003750
C81	C	0.365108	0.570385	-0.570473
C82	C	0.865108	1.070385	-0.070473
C83	C	0.031994	0.436617	-0.437126
C84	C	0.531994	0.936617	0.062874
C85	C	-0.022609	0.436632	-0.437131
C86	C	0.477391	0.936632	0.062869
C87	C	-0.022570	0.570454	-0.570570
C88	C	0.477430	1.070454	-0.070570
C89	C	0.032034	0.570443	-0.570560
C90	C	0.532034	1.070443	-0.070560
C91	C	0.059315	0.503519	-0.503839
C92	C	0.559315	1.003519	-0.003839
C93	C	0.479773	0.570370	-0.570429
C94	C	0.979773	1.070370	-0.070429
C95	C	0.534379	0.570362	-0.570402
C96	C	1.034379	1.070362	-0.070402
C97	C	0.534335	0.436537	-0.436967
C98	C	1.034335	0.936537	0.063033
C99	C	0.479734	0.436548	-0.436989
C100	C	0.979734	0.936548	0.063011
C101	C	0.452455	0.503468	-0.503729
C102	C	0.952455	1.003468	-0.003729
O103	O	0.393335	0.379717	-0.380300
O104	O	0.893335	0.879717	0.119700
O105	O	0.393368	0.627272	-0.627215
O106	O	0.893368	1.127272	-0.127215
C107	C	0.891990	0.503524	-0.503827
C108	C	1.391990	1.003524	-0.003827
C109	C	0.950104	0.503542	-0.503858
C110	C	1.450104	1.003542	-0.003858
C111	C	0.755664	0.230912	-0.503797
C112	C	1.255664	0.730912	-0.003797
C113	C	0.755685	0.114759	-0.503815
C114	C	1.255685	0.614759	-0.003815
C115	C	0.787427	0.942929	-0.440334
C116	C	1.287427	1.442929	0.059666
C117	C	0.787463	1.062979	-0.440361
C118	C	1.287463	1.562979	0.059639
C119	C	0.787462	0.439819	-0.944290
C120	C	1.287462	0.939819	-0.444290
C121	C	0.787478	0.439774	-1.064341
C122	C	1.287478	0.939774	-0.564341
C123	C	0.755612	0.503507	-0.232246
C124	C	1.255612	1.003507	0.267754
C125	C	0.755698	0.503255	-0.116093
C126	C	1.255698	1.003255	0.383907
H127	H	0.556619	0.624855	-0.624726
H128	H	1.056619	1.124855	-0.124726
N129	N	0.719630	0.575339	-0.951440
N130	N	1.219630	1.075339	-0.451440
H131	H	0.698411	0.617736	-0.900371
H132	H	1.198411	1.117736	-0.400371
H133	H	0.695468	0.532737	-0.996721
H134	H	1.195468	1.032737	-0.496721
H135	H	0.457569	0.624860	-0.624777
H136	H	0.957569	1.124860	-0.124777
H137	H	0.305461	0.691796	-0.691530
H138	H	0.805461	1.191796	-0.191530
H139	H	0.814667	0.385468	-0.899771
H140	H	1.314667	0.885468	-0.399771
H141	H	0.054273	0.624929	-0.624882
H142	H	0.554273	1.124929	-0.124882
N143	N	0.199201	0.709499	-0.709186
N144	N	0.699201	1.209499	-0.209186
H145	H	0.208730	0.693366	-0.783879
H146	H	0.708730	1.193366	-0.283879
H147	H	0.208715	0.784107	-0.692721
H148	H	0.708715	1.284107	-0.192721
N149	N	-0.052001	0.642627	-0.642539
N150	N	0.447999	1.142627	-0.142539
H151	H	-0.090736	0.632473	-0.632420
H152	H	0.409264	1.132473	-0.132420
H153	H	-0.042433	0.626448	-0.717199
H154	H	0.457567	1.126448	-0.217199
H155	H	0.206319	0.315169	-0.316043
H156	H	0.706319	0.815169	0.183957
N157	N	0.719637	0.575282	-1.057077
N158	N	1.219637	1.075282	-0.557077
H159	H	0.682278	0.559042	-1.076001
H160	H	1.182278	1.059042	-0.576001
H161	H	0.727777	0.649936	-1.076024
H162	H	1.227777	1.149936	-0.576024
H163	H	-0.044847	0.382155	-0.382799
H164	H	0.455153	0.882155	0.117201
N165	N	0.061420	0.364449	-0.365146
N166	N	0.561420	0.864449	0.134854
H167	H	0.084091	0.316063	-0.407686
H168	H	0.584091	0.816063	0.092314
H169	H	0.035793	0.322142	-0.322899
H170	H	0.535793	0.822142	0.177101
N171	N	0.823539	0.367740	-1.123348
N172	N	1.323539	0.867740	-0.623348
H173	H	0.818440	0.377920	-1.200744
H174	H	1.318440	0.877920	-0.700744
H175	H	0.815420	0.293093	-1.104333
H176	H	1.315420	0.793093	-0.604333
N177	N	0.450261	0.364415	-0.365013
N178	N	0.950261	0.864415	0.134987
H179	H	0.427618	0.316036	-0.407554
H180	H	0.927618	0.816036	0.092446
H181	H	0.427621	0.406934	-0.316552
H182	H	0.927621	0.906934	0.183448
H183	H	0.556558	0.382061	-0.382639
H184	H	1.056558	0.882061	0.117361
H185	H	0.814635	0.898388	-0.386013
H186	H	1.314635	1.398388	0.113987
N187	N	0.312579	0.297457	-0.298399
N188	N	0.812579	0.797457	0.201601
H189	H	0.303049	0.313596	-0.223708
H190	H	0.803049	0.813596	0.276292
H191	H	0.351307	0.307629	-0.308592
H192	H	0.851307	0.807629	0.191408
N193	N	0.823532	1.121955	-0.368413
N194	N	1.323532	1.621955	0.131587
H195	H	0.818443	1.199355	-0.378626
H196	H	1.318443	1.699355	0.121374
H197	H	0.860873	1.102865	-0.384732
H198	H	1.360873	1.602865	0.115268
N199	N	0.719575	0.950138	-0.575718
N200	N	1.219575	1.450138	-0.075718
H201	H	0.698342	0.899087	-0.618042
H202	H	1.198342	1.399087	-0.118042
H203	H	0.740876	0.995356	-0.624096
H204	H	1.240876	1.495356	-0.124096
H205	H	0.728448	1.070234	-0.558118
H206	H	1.228448	1.570234	-0.058118
