data_functionalizedCrystal
_audit_creation_method	'MofGen! by Chris Wilmer'
_symmetry_space_group_name_H-M	'P1'
_symmetry_Int_Tables_number	1
_symmetry_cell_setting	triclinic
loop_
_symmetry_equiv_pos_as_xyz
  x,y,z
_cell_length_a	15.944545
_cell_length_b	14.044220
_cell_length_c	13.101039
_cell_angle_alpha	86.332523
_cell_angle_beta	86.641250
_cell_angle_gamma	91.657475
loop_
_atom_site_label
_atom_site_type_symbol
_atom_site_fract_x
_atom_site_fract_y
_atom_site_fract_z
O1	O	1.127909	-0.116989	-0.085240
O2	O	1.627909	0.383011	0.414760
O3	O	0.884488	-0.132068	-0.085238
O4	O	1.384488	0.367932	0.414762
O5	O	1.002544	0.013456	-0.085229
O6	O	1.502544	0.513456	0.414771
O7	O	1.009853	-0.262512	-0.085249
O8	O	1.509853	0.237488	0.414751
O9	O	0.994075	0.002997	0.085201
O10	O	1.494075	0.502997	0.585201
O11	O	0.876019	-0.142526	0.085192
O12	O	1.376019	0.357474	0.585192
O13	O	1.119440	-0.127448	0.085189
O14	O	1.619440	0.372552	0.585189
Zn15	Zn	0.996385	-0.136647	0.112250
Zn16	Zn	1.496385	0.363353	0.612250
Zn17	Zn	1.007543	-0.122868	-0.112298
Zn18	Zn	1.507543	0.377132	0.387702
O19	O	1.001384	-0.272971	0.085180
O20	O	1.501384	0.227029	0.585180
C21	C	0.848912	-0.136672	-0.000023
C22	C	1.348912	0.363328	0.499977
C23	C	0.755526	-0.134799	-0.000021
C24	C	1.255526	0.365201	0.499979
C25	C	1.155016	-0.122843	-0.000028
C26	C	1.655016	0.377157	0.499972
C27	C	1.248403	-0.124716	-0.000036
C28	C	1.748403	0.375284	0.499964
C29	C	0.995111	0.043541	-0.000014
C30	C	1.495111	0.543541	0.499986
C31	C	0.985569	0.148767	-0.000012
C32	C	1.485569	0.648767	0.499988
C33	C	1.526209	-0.220517	-0.000037
C34	C	2.026209	0.279483	0.499963
C35	C	1.467996	-0.179486	0.084000
C36	C	1.967996	0.320514	0.584000
C37	C	1.584546	-0.131398	-0.000024
C38	C	2.084546	0.368602	0.499976
C39	C	1.476356	-0.169151	-0.084029
C40	C	1.976356	0.330849	0.415971
C41	C	1.419387	-0.128120	-0.000032
C42	C	1.919387	0.371880	0.499968
C43	C	1.527560	-0.090396	0.084082
C44	C	2.027560	0.409604	0.584082
C45	C	1.535929	-0.080069	-0.084023
C46	C	2.035929	0.419931	0.415977
C47	C	1.477743	-0.038975	0.000035
C48	C	1.977743	0.461025	0.500035
C49	C	1.679690	-0.133289	-0.000019
C50	C	2.179690	0.366711	0.499981
C51	C	1.324246	-0.126222	-0.000030
C52	C	1.824246	0.373778	0.499970
C53	C	1.008817	-0.303056	-0.000037
C54	C	1.508817	0.196944	0.499963
C55	C	1.018359	-0.408282	-0.000045
C56	C	1.518359	0.091718	0.499955
N57	N	0.988775	-0.146051	0.265498
N58	N	1.488775	0.353949	0.765498
C59	C	0.968127	0.341430	-0.000027
C60	C	1.468127	0.841430	0.499973
C61	C	1.035798	0.399061	-0.000031
C62	C	1.535798	0.899061	0.499969
C63	C	1.026092	0.506265	-0.000039
C64	C	1.526092	1.006265	0.499961
C65	C	0.977831	0.234216	-0.000019
C66	C	1.477831	0.734216	0.499981
N67	N	1.015158	-0.113457	-0.265546
N68	N	1.515158	0.386543	0.234454
C69	C	0.978423	-0.158853	0.474539
C70	C	1.478423	0.341147	0.974539
C71	C	1.025508	-0.100658	0.525419
C72	C	1.525508	0.399342	1.025419
C73	C	1.019748	-0.107781	0.641737
C74	C	1.519748	0.392219	1.141737
C75	C	0.984182	-0.151731	0.358211
C76	C	1.484182	0.348269	0.858211
H77	H	1.547601	-0.297273	0.000035
H78	H	2.047601	0.202727	0.500035
C79	C	1.123909	0.356954	-0.000009
C80	C	1.623909	0.856954	0.499991
H81	H	1.118960	0.289378	0.000008
H82	H	1.618960	0.789378	0.500008
H83	H	1.156526	0.381382	-0.059435
H84	H	1.656526	0.881382	0.440565
H85	H	1.150593	0.374109	0.059437
H86	H	1.650593	0.874109	0.559437
C87	C	1.445864	-0.214116	-0.180003
C88	C	1.945864	0.285884	0.319997
H89	H	1.416821	-0.168148	-0.219572
H90	H	1.916821	0.331852	0.280428
H91	H	1.492837	-0.234648	-0.219836
H92	H	1.992837	0.265352	0.280164
H93	H	1.409107	-0.267293	-0.159800
H94	H	1.909107	0.232707	0.340200
C95	C	0.918108	-0.233365	0.533695
C96	C	1.418108	0.266635	1.033695
H97	H	0.889311	-0.268935	0.486479
H98	H	1.389311	0.231065	0.986479
H99	H	0.949284	-0.275304	0.575557
H100	H	1.449284	0.224696	1.075557
H101	H	0.878500	-0.201810	0.575543
H102	H	1.378500	0.298190	1.075543
C103	C	0.880020	0.383536	-0.000018
C104	C	1.380020	0.883536	0.499982
H105	H	0.884974	0.451110	-0.000012
H106	H	1.384974	0.951110	0.499988
H107	H	0.853312	0.366388	-0.059443
H108	H	1.353312	0.866388	0.440557
H109	H	0.847422	0.359104	0.059429
H110	H	1.347422	0.859104	0.559429
H111	H	1.565580	-0.038100	-0.155066
H112	H	2.065580	0.461900	0.344934
H113	H	1.438355	-0.221484	0.155040
H114	H	1.938355	0.278516	0.655040
C115	C	1.085836	-0.026152	0.466258
C116	C	1.585836	0.473848	0.966258
H117	H	1.081860	-0.031092	0.394707
H118	H	1.581860	0.468908	0.894707
H119	H	1.071055	0.036044	0.483768
H120	H	1.571055	0.536044	0.983768
H121	H	1.141825	-0.037469	0.483787
H122	H	1.641825	0.462531	0.983787
H123	H	1.550023	-0.057147	0.155202
H124	H	2.050023	0.442853	0.655202
H125	H	1.456498	0.037832	0.000090
H126	H	1.956498	0.537832	0.500090
