data_functionalizedCrystal
_audit_creation_method	'MofGen! by Chris Wilmer'
_symmetry_space_group_name_H-M	'P1'
_symmetry_Int_Tables_number	1
_symmetry_cell_setting	triclinic
loop_
_symmetry_equiv_pos_as_xyz
  x,y,z
_cell_length_a	12.645331
_cell_length_b	12.645330
_cell_length_c	13.897441
_cell_angle_alpha	90.027301
_cell_angle_beta	90.015143
_cell_angle_gamma	90.016927
loop_
_atom_site_label
_atom_site_type_symbol
_atom_site_fract_x
_atom_site_fract_y
_atom_site_fract_z
Zn1	Zn	1.620725	-0.422027	0.545259
Zn2	Zn	2.120725	0.077973	1.045259
Zn3	Zn	1.620608	-0.599323	0.383970
Zn4	Zn	2.120608	-0.099323	0.883970
Zn5	Zn	1.443441	-0.422071	0.383993
Zn6	Zn	1.943441	0.077929	0.883993
Zn7	Zn	1.443421	-0.599247	0.545238
Zn8	Zn	1.943421	-0.099247	1.045238
O9	O	1.532049	-0.510667	0.464615
O10	O	2.032049	-0.010667	0.964615
O11	O	1.769057	-0.445559	0.523863
O12	O	2.269057	0.054441	1.023863
O13	O	1.597067	-0.575860	0.248991
O14	O	2.097067	-0.075860	0.748991
O15	O	1.467016	-0.273718	0.405404
O16	O	1.967016	0.226282	0.905404
O17	O	1.768971	-0.575817	0.405364
O18	O	2.268971	-0.075817	0.905364
O19	O	1.597265	-0.273686	0.523886
O20	O	2.097265	0.226314	1.023886
O21	O	1.466903	-0.445634	0.249009
O22	O	1.966903	0.054366	0.749009
O23	O	1.295091	-0.445561	0.405384
O24	O	1.795091	0.054439	0.905384
O25	O	1.466981	-0.575688	0.680223
O26	O	1.966981	-0.075688	1.180223
O27	O	1.295077	-0.575731	0.523850
O28	O	1.795077	-0.075731	1.023850
O29	O	1.597246	-0.445486	0.680238
O30	O	2.097246	0.054514	1.180238
O31	O	1.597047	-0.747660	0.405344
O32	O	2.097047	-0.247660	0.905344
O33	O	1.466868	-0.747604	0.523827
O34	O	1.966868	-0.247604	1.023827
C35	C	1.256619	-0.510643	0.464618
C36	C	1.756619	-0.010643	0.964618
C37	C	1.138789	-0.510658	0.464642
C38	C	1.638789	-0.010658	0.964642
C39	C	1.531972	-0.786097	0.464602
C40	C	2.031972	-0.286097	0.964602
C41	C	1.532036	-0.903927	0.464628
C42	C	2.032036	-0.403927	0.964628
C43	C	0.971251	-0.592997	0.538780
C44	C	1.471251	-0.092997	1.038780
C45	C	1.093811	-0.592732	0.539090
C46	C	1.593811	-0.092732	1.039090
C47	C	1.094311	-0.399002	0.492413
C48	C	1.594311	0.100998	0.992413
C49	C	0.971713	-0.399505	0.492935
C50	C	1.471713	0.100495	0.992935
C51	C	0.971545	-0.539076	0.362497
C52	C	1.471545	-0.039076	0.862497
C53	C	1.094151	-0.541518	0.363048
C54	C	1.594151	-0.041518	0.863048
C55	C	1.450478	-1.071500	0.539396
C56	C	1.950478	-0.571500	1.039396
C57	C	1.450061	-0.948940	0.539156
C58	C	1.950061	-0.448940	1.039156
C59	C	1.501791	-0.948525	0.362975
C60	C	2.001791	-0.448525	0.862975
C61	C	1.501294	-1.071124	0.363429
C62	C	2.001294	-0.571124	0.863429
C63	C	1.644336	-1.071016	0.490689
C64	C	2.144336	-0.571016	0.990689
C65	C	1.643648	-0.948409	0.492912
C66	C	2.143648	-0.448409	0.992912
C67	C	1.808554	-0.510692	0.464613
C68	C	2.308554	-0.010692	0.964613
C69	C	1.926384	-0.510702	0.464613
C70	C	2.426384	-0.010702	0.964613
C71	C	1.532124	-0.510573	0.716208
C72	C	2.032124	-0.010573	1.216208
C73	C	1.532156	-0.510533	0.823422
C74	C	2.032156	-0.010533	1.323422
C75	C	1.532156	-0.234162	0.464650
C76	C	2.032156	0.265838	0.964650
C77	C	1.532201	-0.116332	0.464665
C78	C	2.032201	0.383668	0.964665
C79	C	1.532035	-0.510684	0.214001
C80	C	2.032035	-0.010684	0.714001
C81	C	1.532208	-0.510425	0.106788
C82	C	2.032208	-0.010425	0.606788
C83	C	1.532185	-0.510462	1.019718
C84	C	2.032185	-0.010462	1.519718
C85	C	1.532166	-0.510505	0.910485
C86	C	2.032166	-0.010505	1.410485
H87	H	1.123884	-0.675531	0.521685
H88	H	1.623884	-0.175531	1.021685
H89	H	1.468983	-0.918783	0.614531
H90	H	1.968983	-0.418783	1.114531
H91	H	1.123444	-0.336020	0.440081
H92	H	1.623444	0.163980	0.940081
H93	H	0.942032	-0.335991	0.441392
H94	H	1.442032	0.164009	0.941392
H95	H	1.671925	-1.101857	0.563554
H96	H	2.171925	-0.601857	1.063554
H97	H	1.123234	-0.623681	0.342102
H98	H	1.623234	-0.123681	0.842102
H99	H	0.940623	-0.619108	0.337254
H100	H	1.440623	-0.119108	0.837254
H101	H	1.125035	-0.374498	0.566255
H102	H	1.625035	0.125502	1.066255
H103	H	1.366929	-0.919705	0.521915
H104	H	1.866929	-0.419705	1.021915
H105	H	0.941760	-0.676071	0.521567
H106	H	1.441760	-0.176071	1.021567
H107	H	1.705222	-1.100008	0.436259
H108	H	2.205222	-0.600008	0.936259
H109	H	1.666456	-0.919256	0.567723
H110	H	2.166456	-0.419256	1.067723
H111	H	0.943137	-0.375439	0.567587
H112	H	1.443137	0.124561	1.067587
H113	H	0.940459	-0.574462	0.614004
H114	H	1.440459	-0.074462	1.114004
H115	H	1.124768	-0.485927	0.304823
H116	H	1.624768	0.014073	0.804823
H117	H	1.123159	-0.573953	0.614754
H118	H	1.623159	-0.073953	1.114754
H119	H	1.419322	-1.099815	0.341382
H120	H	1.919322	-0.599815	0.841382
H121	H	1.367865	-1.102400	0.522376
H122	H	1.867865	-0.602400	1.022376
H123	H	1.469227	-1.100908	0.615018
H124	H	1.969227	-0.600908	1.115018
H125	H	0.942528	-0.479133	0.307235
H126	H	1.442528	0.020867	0.807235
H127	H	1.558234	-1.100784	0.305851
H128	H	2.058234	-0.600784	0.805851
H129	H	1.707742	-0.917762	0.442445
H130	H	2.207742	-0.417762	0.942445
H131	H	1.559427	-0.919370	0.305774
H132	H	2.059427	-0.419370	0.805774
H133	H	1.420674	-0.917914	0.340529
H134	H	1.920674	-0.417914	0.840529
