data_functionalizedCrystal
_audit_creation_method	'MofGen! by Chris Wilmer'
_symmetry_space_group_name_H-M	'P1'
_symmetry_Int_Tables_number	1
_symmetry_cell_setting	triclinic
loop_
_symmetry_equiv_pos_as_xyz
  x,y,z
_cell_length_a	16.120490
_cell_length_b	16.120444
_cell_length_c	12.759393
_cell_angle_alpha	87.135249
_cell_angle_beta	92.918609
_cell_angle_gamma	90.165174
loop_
_atom_site_label
_atom_site_type_symbol
_atom_site_fract_x
_atom_site_fract_y
_atom_site_fract_z
Zn1	Zn	1.254499	-0.395628	0.699339
Zn2	Zn	1.754499	0.104372	1.199339
Zn3	Zn	1.247332	-0.534700	0.532073
Zn4	Zn	1.747332	-0.034700	1.032073
Zn5	Zn	1.115430	-0.388601	0.514348
Zn6	Zn	1.615430	0.111399	1.014348
Zn7	Zn	1.108349	-0.527574	0.698384
Zn8	Zn	1.608349	-0.027574	1.198384
O9	O	1.181403	-0.461626	0.611036
O10	O	1.681403	0.038374	1.111036
O11	O	1.369914	-0.420000	0.684969
O12	O	1.869914	0.080000	1.184969
O13	O	1.229800	-0.515361	0.382701
O14	O	1.729800	-0.015361	0.882701
O15	O	1.139841	-0.273170	0.531870
O16	O	1.639841	0.226830	1.031870
O17	O	1.364649	-0.522175	0.562079
O18	O	1.864649	-0.022175	1.062079
O19	O	1.242014	-0.278333	0.667782
O20	O	1.742014	0.221667	1.167782
O21	O	1.132892	-0.408022	0.369679
O22	O	1.632892	0.091978	0.869679
O23	O	0.998125	-0.401112	0.530943
O24	O	1.498125	0.098888	1.030943
O25	O	1.127771	-0.510030	0.845531
O26	O	1.627771	-0.010030	1.345531
O27	O	0.992922	-0.503216	0.666153
O28	O	1.492922	-0.003216	1.166153
O29	O	1.235147	-0.413090	0.846233
O30	O	1.735147	0.086910	1.346233
O31	O	1.222933	-0.650117	0.561153
O32	O	1.722933	-0.150117	1.061153
O33	O	1.120822	-0.644882	0.683340
O34	O	1.620822	-0.144882	1.183340
C35	C	0.965351	-0.450629	0.596522
C36	C	1.465351	0.049371	1.096522
C37	C	0.872922	-0.445944	0.590339
C38	C	1.372922	0.054056	1.090339
C39	C	0.659954	-0.485919	0.643110
C40	C	1.159954	0.014081	1.143110
C41	C	0.703699	-0.437399	0.579049
C42	C	1.203699	0.062601	1.079049
C43	C	0.797863	-0.442155	0.585333
C44	C	1.297863	0.057845	1.085333
C45	C	0.565781	-0.481164	0.636828
C46	C	1.065781	0.018836	1.136828
C47	C	1.170354	-0.677672	0.624091
C48	C	1.670354	-0.177672	1.124091
C49	C	1.165703	-0.770102	0.629716
C50	C	1.665703	-0.270102	1.129716
C51	C	1.205731	-0.983081	0.582096
C52	C	1.705731	-0.483081	1.082096
C53	C	1.157228	-0.939327	0.639998
C54	C	1.657228	-0.439327	1.139998
C55	C	1.161945	-0.845162	0.634275
C56	C	1.661945	-0.345162	1.134275
C57	C	1.201015	-1.077255	0.587817
C58	C	1.701015	-0.577255	1.087817
C59	C	1.398298	-0.472666	0.625608
C60	C	1.898298	0.027334	1.125608
C61	C	1.490725	-0.477371	0.631817
C62	C	1.990725	0.022629	1.131817
C63	C	1.181469	-0.461549	0.885069
C64	C	1.681469	0.038451	1.385069
C65	C	1.181497	-0.461516	1.001845
C66	C	1.681497	0.038484	1.501845
C67	C	1.192517	-0.244737	0.597955
C68	C	1.692517	0.255263	1.097955
C69	C	1.197253	-0.152312	0.592381
C70	C	1.697253	0.347688	1.092381
C71	C	1.181387	-0.461645	0.338069
C72	C	1.681387	0.038355	0.838069
C73	C	1.181532	-0.461451	0.221290
C74	C	1.681532	0.038549	0.721290
C75	C	1.237412	-0.411032	1.057074
C76	C	1.737412	0.088968	1.557074
C77	C	1.237428	-0.410996	1.166797
C78	C	1.737428	0.089004	1.666797
C79	C	1.125611	-0.511938	1.166053
C80	C	1.625611	-0.011938	1.666053
C81	C	1.125592	-0.511968	1.056332
C82	C	1.625592	-0.011968	1.556332
H83	H	0.693221	-0.531027	0.702668
H84	H	1.193221	-0.031027	1.202668
N85	N	1.262273	-0.941377	0.514514
N86	N	1.762273	-0.441377	1.014514
N87	N	1.338534	-0.954817	0.527273
N88	N	1.838534	-0.454817	1.027273
H89	H	1.378466	-0.925356	0.479541
H90	H	1.878466	-0.425356	0.979541
H91	H	1.112159	-0.972590	0.693867
H92	H	1.612159	-0.472590	1.193867
N93	N	1.294520	-0.359493	1.001433
N94	N	1.794520	0.140507	1.501433
N95	N	1.344439	-0.314420	1.050763
N96	N	1.844439	0.185580	1.550763
H97	H	1.384773	-0.278017	1.011470
H98	H	1.884773	0.221983	1.511470
N99	N	1.294546	-0.359418	1.223195
N100	N	1.794546	0.140582	1.723195
N101	N	1.344450	-0.314375	1.174529
N102	N	1.844450	0.185625	1.674529
H103	H	1.384791	-0.277943	1.214358
H104	H	1.884791	0.222057	1.714358
H105	H	1.080097	-0.553016	1.210429
H106	H	1.580097	-0.053016	1.710429
N107	N	1.068461	-0.563539	0.999925
N108	N	1.568461	-0.063539	1.499925
N109	N	1.018554	-0.608584	1.048583
N110	N	1.518554	-0.108584	1.548583
H111	H	0.978204	-0.645002	1.008746
H112	H	1.478204	-0.145002	1.508746
H113	H	0.670429	-0.392288	0.519486
H114	H	1.170429	0.107712	1.019486
