data_functionalizedCrystal
_audit_creation_method	'MofGen! by Chris Wilmer'
_symmetry_space_group_name_H-M	'P1'
_symmetry_Int_Tables_number	1
_symmetry_cell_setting	triclinic
loop_
_symmetry_equiv_pos_as_xyz
  x,y,z
_cell_length_a	29.839135
_cell_length_b	29.839131
_cell_length_c	29.839125
_cell_angle_alpha	89.974637
_cell_angle_beta	89.984512
_cell_angle_gamma	90.037758
loop_
_atom_site_label
_atom_site_type_symbol
_atom_site_fract_x
_atom_site_fract_y
_atom_site_fract_z
Zn1	Zn	0.686739	-0.178886	-0.254023
Zn2	Zn	0.936739	0.071114	-0.004023
Zn3	Zn	1.186739	0.321114	0.245977
Zn4	Zn	1.436739	0.571114	0.495977
Zn5	Zn	0.686679	-0.253998	-0.178883
Zn6	Zn	0.936679	-0.003998	0.071117
Zn7	Zn	1.186679	0.246002	0.321117
Zn8	Zn	1.436679	0.496002	0.571117
Zn9	Zn	0.611622	-0.178886	-0.178901
Zn10	Zn	0.861622	0.071114	0.071099
Zn11	Zn	1.111622	0.321114	0.321099
Zn12	Zn	1.361622	0.571114	0.571099
Zn13	Zn	0.611578	-0.253993	-0.253980
Zn14	Zn	0.861578	-0.003993	-0.003980
Zn15	Zn	1.111578	0.246007	0.246020
Zn16	Zn	1.361578	0.496007	0.496020
O17	O	0.649154	-0.216441	-0.216447
O18	O	0.899154	0.033559	0.033553
O19	O	1.149154	0.283559	0.283553
O20	O	1.399154	0.533559	0.533553
O21	O	0.749598	-0.188852	-0.244066
O22	O	0.999598	0.061148	0.005934
O23	O	1.249598	0.311148	0.255934
O24	O	1.499598	0.561148	0.505934
O25	O	0.676716	-0.244036	-0.116019
O26	O	0.926716	0.005964	0.133981
O27	O	1.176716	0.255964	0.383981
O28	O	1.426716	0.505964	0.633981
O29	O	0.621630	-0.116019	-0.188892
O30	O	0.871630	0.133981	0.061108
O31	O	1.121630	0.383981	0.311108
O32	O	1.371630	0.633981	0.561108
O33	O	0.749554	-0.244036	-0.188861
O34	O	0.999554	0.005964	0.061139
O35	O	1.249554	0.255964	0.311139
O36	O	1.499554	0.505964	0.561139
O37	O	0.676818	-0.116019	-0.244084
O38	O	0.926818	0.133981	0.005916
O39	O	1.176818	0.383981	0.255916
O40	O	1.426818	0.633981	0.505916
O41	O	0.621572	-0.188852	-0.116032
O42	O	0.871572	0.061148	0.133968
O43	O	1.121572	0.311148	0.383968
O44	O	1.371572	0.561148	0.633968
O45	O	0.548749	-0.188847	-0.188850
O46	O	0.798749	0.061153	0.061150
O47	O	1.048749	0.311153	0.311150
O48	O	1.298749	0.561153	0.561150
O49	O	0.621554	-0.244028	-0.316853
O50	O	0.871554	0.005972	-0.066853
O51	O	1.121554	0.255972	0.183147
O52	O	1.371554	0.505972	0.433147
O53	O	0.548716	-0.244028	-0.244010
O54	O	0.798716	0.005972	0.005990
O55	O	1.048716	0.255972	0.255990
O56	O	1.298716	0.505972	0.505990
O57	O	0.676775	-0.188847	-0.316885
O58	O	0.926775	0.061153	-0.066885
O59	O	1.176775	0.311153	0.183115
O60	O	1.426775	0.561153	0.433115
O61	O	0.676673	-0.316864	-0.188819
O62	O	0.926673	-0.066864	0.061181
O63	O	1.176673	0.183136	0.311181
O64	O	1.426673	0.433136	0.561181
O65	O	0.621497	-0.316861	-0.243993
O66	O	0.871497	-0.066861	0.006007
O67	O	1.121497	0.183139	0.256007
O68	O	1.371497	0.433139	0.506007
C69	C	0.532432	-0.216437	-0.216428
C70	C	0.782432	0.033563	0.033572
C71	C	1.032432	0.283563	0.283572
C72	C	1.282432	0.533563	0.533572
C73	C	0.482497	-0.216447	-0.216430
C74	C	0.732497	0.033553	0.033570
C75	C	0.982497	0.283553	0.283570
C76	C	1.232497	0.533553	0.533570
C77	C	0.172874	-0.187750	-0.245235
C78	C	0.422874	0.062250	0.004765
C79	C	0.672874	0.312250	0.254765
C80	C	0.922874	0.562250	0.504765
C81	C	-0.014799	-0.187753	-0.245247
C82	C	0.235201	0.062247	0.004753
C83	C	0.485201	0.312247	0.254753
C84	C	0.735201	0.562247	0.504753
O85	O	-0.039047	-0.163344	-0.269717
O86	O	0.210953	0.086656	-0.019717
O87	O	0.460953	0.336656	0.230283
O88	O	0.710953	0.586656	0.480283
N89	N	-0.038288	-0.216441	-0.216464
N90	N	0.211712	0.033559	0.033536
N91	N	0.461712	0.283559	0.283536
N92	N	0.711712	0.533559	0.533536
C93	C	-0.014855	-0.245129	-0.187672
C94	C	0.235145	0.004871	0.062328
C95	C	0.485145	0.254871	0.312328
C96	C	0.735145	0.504871	0.562328
O97	O	-0.039140	-0.269527	-0.163187
O98	O	0.210860	-0.019527	0.086813
O99	O	0.460860	0.230473	0.336813
O100	O	0.710860	0.480473	0.586813
C101	C	0.172817	-0.245123	-0.187658
C102	C	0.422817	0.004877	0.062342
C103	C	0.672817	0.254877	0.312342
C104	C	0.922817	0.504877	0.562342
C105	C	0.196303	-0.216436	-0.216447
C106	C	0.446303	0.033564	0.033553
C107	C	0.696303	0.283564	0.283553
C108	C	0.946303	0.533564	0.533553
C109	C	0.196360	-0.159065	-0.274021
C110	C	0.446360	0.090935	-0.024021
C111	C	0.696360	0.340935	0.225979
C112	C	0.946360	0.590935	0.475979
C113	C	0.243275	-0.159066	-0.274019
C114	C	0.493275	0.090934	-0.024019
C115	C	0.743275	0.340934	0.225981
C116	C	0.993275	0.590934	0.475981
C117	C	0.266705	-0.187752	-0.245231
C118	C	0.516705	0.062248	0.004769
C119	C	0.766705	0.312248	0.254769
C120	C	1.016705	0.562248	0.504769
C121	C	0.243219	-0.216437	-0.216445
C122	C	0.493219	0.033563	0.033555
C123	C	0.743219	0.283563	0.283555
C124	C	0.993219	0.533563	0.533555
C125	C	0.196249	-0.273808	-0.158864
C126	C	0.446249	-0.023808	0.091136
C127	C	0.696249	0.226192	0.341136
C128	C	0.946249	0.476192	0.591136
C129	C	0.243170	-0.273803	-0.158862
C130	C	0.493170	-0.023803	0.091138
C131	C	0.743170	0.226197	0.341138
C132	C	0.993170	0.476197	0.591138
C133	C	0.266656	-0.245116	-0.187651
C134	C	0.516656	0.004884	0.062349
C135	C	0.766656	0.254884	0.312349
C136	C	1.016656	0.504884	0.562349
C137	C	0.313563	-0.245125	-0.187655
C138	C	0.563563	0.004875	0.062345
C139	C	0.813563	0.254875	0.312345
C140	C	1.063563	0.504875	0.562345
N141	N	0.337052	-0.216437	-0.216439
N142	N	0.587052	0.033563	0.033561
N143	N	0.837052	0.283563	0.283561
N144	N	1.087052	0.533563	0.533561
C145	C	0.313623	-0.187750	-0.245227
C146	C	0.563623	0.062250	0.004773
C147	C	0.813623	0.312250	0.254773
C148	C	1.063623	0.562250	0.504773
C149	C	-0.113386	-0.245130	-0.187683
C150	C	0.136614	0.004870	0.062317
C151	C	0.386614	0.254870	0.312317
C152	C	0.636614	0.504870	0.562317
C153	C	-0.160304	-0.245133	-0.187687
C154	C	0.089696	0.004867	0.062313
C155	C	0.339696	0.254867	0.312313
C156	C	0.589696	0.504867	0.562313
C157	C	-0.160244	-0.187756	-0.245262
C158	C	0.089756	0.062244	0.004738
C159	C	0.339756	0.312244	0.254738
C160	C	0.589756	0.562244	0.504738
C161	C	-0.113326	-0.187756	-0.245259
C162	C	0.136674	0.062244	0.004741
C163	C	0.386674	0.312244	0.254741
C164	C	0.636674	0.562244	0.504741
C165	C	-0.089897	-0.216442	-0.216467
C166	C	0.160103	0.033558	0.033533
C167	C	0.410103	0.283558	0.283533
C168	C	0.660103	0.533558	0.533533
C169	C	0.412148	-0.187755	-0.245221
C170	C	0.662148	0.062245	0.004779
C171	C	0.912148	0.312245	0.254779
C172	C	1.162148	0.562245	0.504779
C173	C	0.459068	-0.187760	-0.245218
C174	C	0.709068	0.062240	0.004782
C175	C	0.959068	0.312240	0.254782
C176	C	1.209068	0.562240	0.504782
C177	C	0.459005	-0.245135	-0.187642
C178	C	0.709005	0.004865	0.062358
C179	C	0.959005	0.254865	0.312358
C180	C	1.209005	0.504865	0.562358
C181	C	0.412089	-0.245132	-0.187647
C182	C	0.662089	0.004868	0.062353
C183	C	0.912089	0.254868	0.312353
C184	C	1.162089	0.504868	0.562353
C185	C	0.388662	-0.216438	-0.216438
C186	C	0.638662	0.033562	0.033562
C187	C	0.888662	0.283562	0.283562
C188	C	1.138662	0.533562	0.533562
O189	O	0.337840	-0.269518	-0.163195
O190	O	0.587840	-0.019518	0.086805
O191	O	0.837840	0.230482	0.336805
O192	O	1.087840	0.480482	0.586805
O193	O	0.337915	-0.163349	-0.269702
O194	O	0.587915	0.086651	-0.019702
O195	O	0.837915	0.336651	0.230298
O196	O	1.087915	0.586651	0.480298
C197	C	0.125958	-0.187749	-0.245236
C198	C	0.375958	0.062251	0.004764
C199	C	0.625958	0.312251	0.254764
C200	C	0.875958	0.562251	0.504764
C201	C	0.102472	-0.216434	-0.216450
C202	C	0.352472	0.033566	0.033550
C203	C	0.602472	0.283566	0.283550
C204	C	0.852472	0.533566	0.533550
C205	C	0.125902	-0.245120	-0.187662
C206	C	0.375902	0.004880	0.062338
C207	C	0.625902	0.254880	0.312338
C208	C	0.875902	0.504880	0.562338
C209	C	0.055554	-0.216436	-0.216454
C210	C	0.305554	0.033564	0.033546
C211	C	0.555554	0.283564	0.283546
C212	C	0.805554	0.533564	0.533546
C213	C	0.032125	-0.187749	-0.245242
C214	C	0.282125	0.062251	0.004758
C215	C	0.532125	0.312251	0.254758
C216	C	0.782125	0.562251	0.504758
C217	C	0.055614	-0.159061	-0.274026
C218	C	0.305614	0.090939	-0.024026
C219	C	0.555614	0.340939	0.225974
C220	C	0.805614	0.590939	0.475974
C221	C	0.102529	-0.159062	-0.274025
C222	C	0.352529	0.090938	-0.024025
C223	C	0.602529	0.340938	0.225975
C224	C	0.852529	0.590938	0.475975
C225	C	0.102413	-0.273808	-0.158878
C226	C	0.352413	-0.023808	0.091122
C227	C	0.602413	0.226192	0.341122
C228	C	0.852413	0.476192	0.591122
C229	C	0.055498	-0.273805	-0.158883
C230	C	0.305498	-0.023805	0.091117
C231	C	0.555498	0.226195	0.341117
C232	C	0.805498	0.476195	0.591117
C233	C	0.032068	-0.245119	-0.187671
C234	C	0.282068	0.004881	0.062329
C235	C	0.532068	0.254881	0.312329
C236	C	0.782068	0.504881	0.562329
C237	C	0.649086	-0.333163	-0.216409
C238	C	0.899086	-0.083163	0.033591
C239	C	1.149086	0.166837	0.283591
C240	C	1.399086	0.416837	0.533591
C241	C	0.649098	-0.383098	-0.216408
C242	C	0.899098	-0.133098	0.033592
C243	C	1.149098	0.116902	0.283592
C244	C	1.399098	0.366902	0.533592
C245	C	0.677885	-0.692706	-0.245226
C246	C	0.927885	-0.442706	0.004774
C247	C	1.177885	-0.192706	0.254774
C248	C	1.427885	0.057294	0.504774
C249	C	0.677933	-0.880379	-0.245253
C250	C	0.927933	-0.630379	0.004747
C251	C	1.177933	-0.380379	0.254747
C252	C	1.427933	-0.130379	0.504747
O253	O	0.702342	-0.904614	-0.269728
O254	O	0.952342	-0.654614	-0.019728
O255	O	1.202342	-0.404614	0.230272
O256	O	1.452342	-0.154614	0.480272
N257	N	0.649231	-0.903883	-0.216497
N258	N	0.899231	-0.653883	0.033503
N259	N	1.149231	-0.403883	0.283503
N260	N	1.399231	-0.153883	0.533503
C261	C	0.620512	-0.880465	-0.187734
C262	C	0.870512	-0.630465	0.062266
C263	C	1.120512	-0.380465	0.312266
C264	C	1.370512	-0.130465	0.562266
O265	O	0.596096	-0.904763	-0.163279
O266	O	0.846096	-0.654763	0.086721
O267	O	1.096096	-0.404763	0.336721
O268	O	1.346096	-0.154763	0.586721
C269	C	0.620461	-0.692793	-0.187709
C270	C	0.870461	-0.442793	0.062291
C271	C	1.120461	-0.192793	0.312291
C272	C	1.370461	0.057207	0.562291
C273	C	0.649169	-0.669292	-0.216464
C274	C	0.899169	-0.419292	0.033536
C275	C	1.149169	-0.169292	0.283536
C276	C	1.399169	0.080708	0.533536
C277	C	0.706590	-0.669205	-0.273979
C278	C	0.956590	-0.419205	-0.023979
C279	C	1.206590	-0.169205	0.226021
C280	C	1.456590	0.080795	0.476021
C281	C	0.706579	-0.622290	-0.273971
C282	C	0.956579	-0.372290	-0.023971
C283	C	1.206579	-0.122290	0.226029
C284	C	1.456579	0.127710	0.476029
C285	C	0.677863	-0.598875	-0.245209
C286	C	0.927863	-0.348875	0.004791
C287	C	1.177863	-0.098875	0.254791
C288	C	1.427863	0.151125	0.504791
C289	C	0.649158	-0.622377	-0.216456
C290	C	0.899158	-0.372377	0.033544
C291	C	1.149158	-0.122377	0.283544
C292	C	1.399158	0.127623	0.533544
C293	C	0.591740	-0.669376	-0.158949
C294	C	0.841740	-0.419376	0.091051
C295	C	1.091740	-0.169376	0.341051
C296	C	1.341740	0.080624	0.591051
C297	C	0.591729	-0.622455	-0.158946
C298	C	0.841729	-0.372455	0.091054
C299	C	1.091729	-0.122455	0.341054
C300	C	1.341729	0.127545	0.591054
C301	C	0.620437	-0.598954	-0.187701
C302	C	0.870437	-0.348954	0.062299
C303	C	1.120437	-0.098954	0.312299
C304	C	1.370437	0.151046	0.562299
C305	C	0.620431	-0.552047	-0.187685
C306	C	0.870431	-0.302047	0.062315
C307	C	1.120431	-0.052047	0.312315
C308	C	1.370431	0.197953	0.562315
N309	N	0.649134	-0.528543	-0.216441
N310	N	0.899134	-0.278543	0.033559
N311	N	1.149134	-0.028543	0.283559
N312	N	1.399134	0.221457	0.533559
C313	C	0.677850	-0.551957	-0.245203
C314	C	0.927850	-0.301957	0.004797
C315	C	1.177850	-0.051957	0.254797
C316	C	1.427850	0.198043	0.504797
C317	C	0.620541	-0.978996	-0.187748
C318	C	0.870541	-0.728996	0.062252
C319	C	1.120541	-0.478996	0.312252
C320	C	1.370541	-0.228996	0.562252
C321	C	0.620554	-1.025914	-0.187753
C322	C	0.870554	-0.775914	0.062247
C323	C	1.120554	-0.525914	0.312247
C324	C	1.370554	-0.275914	0.562247
C325	C	0.677975	-1.025824	-0.245274
C326	C	0.927975	-0.775824	0.004726
C327	C	1.177975	-0.525824	0.254726
C328	C	1.427975	-0.275824	0.504726
C329	C	0.677964	-0.978906	-0.245266
C330	C	0.927964	-0.728906	0.004734
C331	C	1.177964	-0.478906	0.254734
C332	C	1.427964	-0.228906	0.504734
C333	C	0.649244	-0.955492	-0.216504
C334	C	0.899244	-0.705492	0.033496
C335	C	1.149244	-0.455492	0.283496
C336	C	1.399244	-0.205492	0.533496
C337	C	0.677826	-0.453432	-0.245183
C338	C	0.927826	-0.203432	0.004817
C339	C	1.177826	0.046568	0.254817
C340	C	1.427826	0.296568	0.504817
C341	C	0.677814	-0.406512	-0.245170
C342	C	0.927814	-0.156512	0.004830
C343	C	1.177814	0.093488	0.254830
C344	C	1.427814	0.343488	0.504830
C345	C	0.620391	-0.406605	-0.187651
C346	C	0.870391	-0.156605	0.062349
C347	C	1.120391	0.093395	0.312349
C348	C	1.370391	0.343395	0.562349
C349	C	0.620404	-0.453521	-0.187662
C350	C	0.870404	-0.203521	0.062338
C351	C	1.120404	0.046479	0.312338
C352	C	1.370404	0.296479	0.562338
C353	C	0.649123	-0.476933	-0.216431
C354	C	0.899123	-0.226933	0.033569
C355	C	1.149123	0.023067	0.283569
C356	C	1.399123	0.273067	0.533569
O357	O	0.596032	-0.527783	-0.163227
O358	O	0.846032	-0.277783	0.086773
O359	O	1.096032	-0.027783	0.336773
O360	O	1.346032	0.222217	0.586773
O361	O	0.702255	-0.527652	-0.269662
O362	O	0.952255	-0.277652	-0.019662
O363	O	1.202255	-0.027652	0.230338
O364	O	1.452255	0.222348	0.480338
C365	C	0.677895	-0.739622	-0.245235
C366	C	0.927895	-0.489622	0.004765
C367	C	1.177895	-0.239622	0.254765
C368	C	1.427895	0.010378	0.504765
C369	C	0.649190	-0.763123	-0.216482
C370	C	0.899190	-0.513123	0.033518
C371	C	1.149190	-0.263123	0.283518
C372	C	1.399190	-0.013123	0.533518
C373	C	0.620474	-0.739709	-0.187720
C374	C	0.870474	-0.489709	0.062280
C375	C	1.120474	-0.239709	0.312280
C376	C	1.370474	0.010291	0.562280
C377	C	0.649203	-0.810041	-0.216487
C378	C	0.899203	-0.560041	0.033513
C379	C	1.149203	-0.310041	0.283513
C380	C	1.399203	-0.060041	0.533513
C381	C	0.677919	-0.833455	-0.245249
C382	C	0.927919	-0.583455	0.004751
C383	C	1.177919	-0.333455	0.254751
C384	C	1.427919	-0.083455	0.504751
C385	C	0.706622	-0.809951	-0.274006
C386	C	0.956622	-0.559951	-0.024006
C387	C	1.206622	-0.309951	0.225994
C388	C	1.456622	-0.059951	0.475994
C389	C	0.706611	-0.763036	-0.273997
C390	C	0.956611	-0.513036	-0.023997
C391	C	1.206611	-0.263036	0.226003
C392	C	1.456611	-0.013036	0.476003
C393	C	0.591772	-0.763212	-0.158964
C394	C	0.841772	-0.513212	0.091036
C395	C	1.091772	-0.263212	0.341036
C396	C	1.341772	-0.013212	0.591036
C397	C	0.591785	-0.810128	-0.158974
C398	C	0.841785	-0.560128	0.091026
C399	C	1.091785	-0.310128	0.341026
C400	C	1.341785	-0.060128	0.591026
C401	C	0.620501	-0.833542	-0.187736
C402	C	0.870501	-0.583542	0.062264
C403	C	1.120501	-0.333542	0.312264
C404	C	1.370501	-0.083542	0.562264
C405	C	0.766333	-0.216445	-0.216467
C406	C	1.016333	0.033555	0.033533
C407	C	1.266333	0.283555	0.283533
C408	C	1.516333	0.533555	0.533533
C409	C	0.816267	-0.216446	-0.216475
C410	C	1.066267	0.033554	0.033525
C411	C	1.316267	0.283554	0.283525
C412	C	1.566267	0.533554	0.533525
C413	C	0.649167	-0.216437	-0.333625
C414	C	0.899167	0.033563	-0.083625
C415	C	1.149167	0.283563	0.166375
C416	C	1.399167	0.533563	0.416375
C417	C	0.649172	-0.216435	-0.383560
C418	C	0.899172	0.033565	-0.133560
C419	C	1.149172	0.283565	0.116440
C420	C	1.399172	0.533565	0.366440
C421	C	0.649235	-0.099262	-0.216495
C422	C	0.899235	0.150738	0.033505
C423	C	1.149235	0.400738	0.283505
C424	C	1.399235	0.650738	0.533505
C425	C	0.649270	-0.049328	-0.216515
C426	C	0.899270	0.200672	0.033485
C427	C	1.149270	0.450672	0.283485
C428	C	1.399270	0.700672	0.533485
C429	C	0.677955	-0.187627	-0.693223
C430	C	0.927955	0.062373	-0.443223
C431	C	1.177955	0.312373	-0.193223
C432	C	1.427955	0.562373	0.056777
C433	C	0.677978	-0.187589	-0.880896
C434	C	0.927978	0.062411	-0.630896
C435	C	1.177978	0.312411	-0.380896
C436	C	1.427978	0.562411	-0.130896
O437	O	0.702417	-0.163138	-0.905177
O438	O	0.952417	0.086862	-0.655177
O439	O	1.202417	0.336862	-0.405177
O440	O	1.452417	0.586862	-0.155177
N441	N	0.649231	-0.216315	-0.904345
N442	N	0.899231	0.033685	-0.654345
N443	N	1.149231	0.283685	-0.404345
N444	N	1.399231	0.533685	-0.154345
C445	C	0.620475	-0.245050	-0.880873
C446	C	0.870475	0.004950	-0.630873
C447	C	1.120475	0.254950	-0.380873
C448	C	1.370475	0.504950	-0.130873
O449	O	0.596022	-0.269479	-0.905124
O450	O	0.846022	-0.019479	-0.655124
O451	O	1.096022	0.230521	-0.405124
O452	O	1.346022	0.480521	-0.155124
C453	C	0.620451	-0.245086	-0.693201
C454	C	0.870451	0.004914	-0.443201
C455	C	1.120451	0.254914	-0.193201
C456	C	1.370451	0.504914	0.056799
C457	C	0.649202	-0.216361	-0.669754
C458	C	0.899202	0.033639	-0.419754
C459	C	1.149202	0.283639	-0.169754
C460	C	1.399202	0.533639	0.080246
C461	C	0.706704	-0.158905	-0.669776
C462	C	0.956704	0.091095	-0.419776
C463	C	1.206704	0.341095	-0.169776
C464	C	1.456704	0.591095	0.080224
C465	C	0.706700	-0.158916	-0.622861
C466	C	0.956700	0.091084	-0.372861
C467	C	1.206700	0.341084	-0.122861
C468	C	1.456700	0.591084	0.127139
C469	C	0.677947	-0.187650	-0.599392
C470	C	0.927947	0.062350	-0.349392
C471	C	1.177947	0.312350	-0.099392
C472	C	1.427947	0.562350	0.150608
C473	C	0.649198	-0.216373	-0.622839
C474	C	0.899198	0.033627	-0.372839
C475	C	1.149198	0.283627	-0.122839
C476	C	1.399198	0.533627	0.127161
C477	C	0.591693	-0.273819	-0.669730
C478	C	0.841693	-0.023819	-0.419730
C479	C	1.091693	0.226181	-0.169730
C480	C	1.341693	0.476181	0.080270
C481	C	0.591689	-0.273824	-0.622809
C482	C	0.841689	-0.023824	-0.372809
C483	C	1.091689	0.226176	-0.122809
C484	C	1.341689	0.476176	0.127191
C485	C	0.620440	-0.245100	-0.599362
C486	C	0.870440	0.004900	-0.349362
C487	C	1.120440	0.254900	-0.099362
C488	C	1.370440	0.504900	0.150638
C489	C	0.620441	-0.245119	-0.552455
C490	C	0.870441	0.004881	-0.302455
C491	C	1.120441	0.254881	-0.052455
C492	C	1.370441	0.504881	0.197545
N493	N	0.649188	-0.216393	-0.529005
N494	N	0.899188	0.033607	-0.279005
N495	N	1.149188	0.283607	-0.029005
N496	N	1.399188	0.533607	0.220995
C497	C	0.677941	-0.187659	-0.552474
C498	C	0.927941	0.062341	-0.302474
C499	C	1.177941	0.312341	-0.052474
C500	C	1.427941	0.562341	0.197526
C501	C	0.620491	-0.245030	-0.979404
C502	C	0.870491	0.004970	-0.729404
C503	C	1.120491	0.254970	-0.479404
C504	C	1.370491	0.504970	-0.229404
C505	C	0.620497	-0.245022	-1.026322
C506	C	0.870497	0.004978	-0.776322
C507	C	1.120497	0.254978	-0.526322
C508	C	1.370497	0.504978	-0.276322
C509	C	0.677999	-0.187560	-1.026341
C510	C	0.927999	0.062440	-0.776341
C511	C	1.177999	0.312440	-0.526341
C512	C	1.427999	0.562440	-0.276341
C513	C	0.677994	-0.187571	-0.979423
C514	C	0.927994	0.062429	-0.729423
C515	C	1.177994	0.312429	-0.479423
C516	C	1.427994	0.562429	-0.229423
C517	C	0.649237	-0.216304	-0.955955
C518	C	0.899237	0.033696	-0.705955
C519	C	1.149237	0.283696	-0.455955
C520	C	1.399237	0.533696	-0.205955
C521	C	0.677930	-0.187685	-0.453948
C522	C	0.927930	0.062315	-0.203948
C523	C	1.177930	0.312315	0.046052
C524	C	1.427930	0.562315	0.296052
C525	C	0.677925	-0.187701	-0.407029
C526	C	0.927925	0.062299	-0.157029
C527	C	1.177925	0.312299	0.092971
C528	C	1.427925	0.562299	0.342971
C529	C	0.620421	-0.245161	-0.407013
C530	C	0.870421	0.004839	-0.157013
C531	C	1.120421	0.254839	0.092987
C532	C	1.370421	0.504839	0.342987
C533	C	0.620428	-0.245147	-0.453929
C534	C	0.870428	0.004853	-0.203929
C535	C	1.120428	0.254853	0.046071
C536	C	1.370428	0.504853	0.296071
C537	C	0.649184	-0.216406	-0.477395
C538	C	0.899184	0.033594	-0.227395
C539	C	1.149184	0.283594	0.022605
C540	C	1.399184	0.533594	0.272605
O541	O	0.596011	-0.269553	-0.528144
O542	O	0.846011	-0.019553	-0.278144
O543	O	1.096011	0.230447	-0.028144
O544	O	1.346011	0.480447	0.221856
O545	O	0.702383	-0.163226	-0.528215
O546	O	0.952383	0.086774	-0.278215
O547	O	1.202383	0.336774	-0.028215
O548	O	1.452383	0.586774	0.221785
C549	C	0.677960	-0.187616	-0.740138
C550	C	0.927960	0.062384	-0.490138
C551	C	1.177960	0.312384	-0.240138
C552	C	1.427960	0.562384	0.009862
C553	C	0.649211	-0.216338	-0.763585
C554	C	0.899211	0.033662	-0.513585
C555	C	1.149211	0.283662	-0.263585
C556	C	1.399211	0.533662	-0.013585
C557	C	0.620458	-0.245072	-0.740116
C558	C	0.870458	0.004928	-0.490116
C559	C	1.120458	0.254928	-0.240116
C560	C	1.370458	0.504928	0.009884
C561	C	0.649217	-0.216330	-0.810503
C562	C	0.899217	0.033670	-0.560503
C563	C	1.149217	0.283670	-0.310503
C564	C	1.399217	0.533670	-0.060503
C565	C	0.677970	-0.187596	-0.833972
C566	C	0.927970	0.062404	-0.583972
C567	C	1.177970	0.312404	-0.333972
C568	C	1.427970	0.562404	-0.083972
C569	C	0.706717	-0.158870	-0.810523
C570	C	0.956717	0.091130	-0.560523
C571	C	1.206717	0.341130	-0.310523
C572	C	1.456717	0.591130	-0.060523
C573	C	0.706712	-0.158881	-0.763607
C574	C	0.956712	0.091119	-0.513607
C575	C	1.206712	0.341119	-0.263607
C576	C	1.456712	0.591119	-0.013607
C577	C	0.591711	-0.273798	-0.763566
C578	C	0.841711	-0.023798	-0.513566
C579	C	1.091711	0.226202	-0.263566
C580	C	1.341711	0.476202	-0.013566
C581	C	0.591718	-0.273785	-0.810481
C582	C	0.841718	-0.023785	-0.560481
C583	C	1.091718	0.226215	-0.310481
C584	C	1.341718	0.476215	-0.060481
C585	C	0.620471	-0.245050	-0.833950
C586	C	0.870471	0.004950	-0.583950
C587	C	1.120471	0.254950	-0.333950
C588	C	1.370471	0.504950	-0.083950
C589	C	0.649168	-0.216412	-0.099725
C590	C	0.899168	0.033588	0.150275
C591	C	1.149168	0.283588	0.400275
C592	C	1.399168	0.533588	0.650275
C593	C	0.649250	-0.216288	-0.049790
C594	C	0.899250	0.033712	0.200210
C595	C	1.149250	0.283712	0.450210
C596	C	1.399250	0.533712	0.700210
H597	H	-0.179329	-0.164398	-0.268702
H598	H	0.070671	0.085602	-0.018702
H599	H	0.320671	0.335602	0.231298
H600	H	0.570671	0.585602	0.481298
H601	H	0.729954	-0.603158	-0.297387
H602	H	0.979954	-0.353158	-0.047387
H603	H	1.229954	-0.103158	0.202613
H604	H	1.479954	0.146842	0.452613
H605	H	0.730112	-0.135525	-0.603775
H606	H	0.980112	0.114475	-0.353775
H607	H	1.230112	0.364475	-0.103775
H608	H	1.480112	0.614475	0.146225
N609	N	0.707312	-0.158335	-0.477913
N610	N	0.957312	0.091665	-0.227913
N611	N	1.207312	0.341665	0.022087
N612	N	1.457312	0.591665	0.272087
N613	N	0.735935	-0.174137	-0.504091
N614	N	0.985935	0.075863	-0.254091
N615	N	1.235935	0.325863	-0.004091
N616	N	1.485935	0.575863	0.245909
H617	H	0.756688	-0.153411	-0.521017
H618	H	1.006688	0.096589	-0.271017
H619	H	1.256688	0.346589	-0.021017
H620	H	1.506688	0.596589	0.228983
H621	H	0.177289	-0.135702	-0.297464
H622	H	0.427289	0.114298	-0.047464
H623	H	0.677289	0.364298	0.202536
H624	H	0.927289	0.614298	0.452536
N625	N	0.591137	-0.274367	-1.050276
N626	N	0.841137	-0.024367	-0.800276
N627	N	1.091137	0.225633	-0.550276
N628	N	1.341137	0.475633	-0.300276
N629	N	0.606924	-0.302992	-1.076451
N630	N	0.856924	-0.052992	-0.826451
N631	N	1.106924	0.197008	-0.576451
N632	N	1.356924	0.447008	-0.326451
H633	H	0.586187	-0.323716	-1.093368
H634	H	0.836187	-0.073716	-0.843368
H635	H	1.086187	0.176284	-0.593368
H636	H	1.336187	0.426284	-0.343368
N637	N	-0.089451	-0.274431	-0.158271
N638	N	0.160549	-0.024431	0.091729
N639	N	0.410549	0.225569	0.341729
N640	N	0.660549	0.475569	0.591729
N641	N	-0.063272	-0.258584	-0.129669
N642	N	0.186728	-0.008584	0.120331
N643	N	0.436728	0.241416	0.370331
N644	N	0.686728	0.491416	0.620331
H645	H	-0.046370	-0.279278	-0.108897
H646	H	0.203630	-0.029278	0.141103
H647	H	0.453630	0.220722	0.391103
H648	H	0.703630	0.470722	0.641103
N649	N	0.736078	-0.129546	-0.693737
N650	N	0.986078	0.120454	-0.443737
N651	N	1.236078	0.370454	-0.193737
N652	N	1.486078	0.620454	0.056263
N653	N	0.761741	-0.103905	-0.672788
N654	N	1.011741	0.146095	-0.422788
N655	N	1.261741	0.396095	-0.172788
N656	N	1.511741	0.646095	0.077212
H657	H	0.782490	-0.083169	-0.689707
H658	H	1.032490	0.166831	-0.439707
H659	H	1.282490	0.416831	-0.189707
H660	H	1.532490	0.666831	0.060293
H661	H	0.701411	-0.164164	-1.045458
H662	H	0.951411	0.085836	-0.795458
H663	H	1.201411	0.335836	-0.545458
H664	H	1.451411	0.585836	-0.295458
N665	N	0.126523	-0.129762	-0.303429
N666	N	0.376523	0.120238	-0.053429
N667	N	0.626523	0.370238	0.196571
N668	N	0.876523	0.620238	0.446571
N669	N	0.152703	-0.145608	-0.332027
N670	N	0.402703	0.104392	-0.082027
N671	N	0.652703	0.354392	0.167973
N672	N	0.902703	0.604392	0.417973
H673	H	0.169647	-0.124913	-0.352795
H674	H	0.419647	0.125087	-0.102795
H675	H	0.669647	0.375087	0.147205
H676	H	0.919647	0.625087	0.397205
H677	H	0.701406	-0.164180	-0.960335
H678	H	0.951406	0.085820	-0.710335
H679	H	1.201406	0.335820	-0.460335
H680	H	1.451406	0.585820	-0.210335
H681	H	0.597020	-0.268541	-0.473020
H682	H	0.847020	-0.018541	-0.223020
H683	H	1.097020	0.231459	0.026980
H684	H	1.347020	0.481459	0.276980
H685	H	0.701339	-0.164310	-0.387940
H686	H	0.951339	0.085690	-0.137940
H687	H	1.201339	0.335690	0.112060
H688	H	1.451339	0.585690	0.362060
N689	N	0.031683	-0.129755	-0.303436
N690	N	0.281683	0.120245	-0.053436
N691	N	0.531683	0.370245	0.196564
N692	N	0.781683	0.620245	0.446564
N693	N	0.052653	-0.104142	-0.329138
N694	N	0.302653	0.145858	-0.079138
N695	N	0.552653	0.395858	0.170862
N696	N	0.802653	0.645858	0.420862
H697	H	0.035751	-0.083446	-0.349908
H698	H	0.285751	0.166554	-0.099908
H699	H	0.535751	0.416554	0.150092
H700	H	0.785751	0.666554	0.400092
N701	N	0.562452	-0.834130	-0.129606
N702	N	0.812452	-0.584130	0.120394
N703	N	1.062452	-0.334130	0.370394
N704	N	1.312452	-0.084130	0.620394
N705	N	0.533816	-0.860322	-0.145392
N706	N	0.783816	-0.610322	0.104608
N707	N	1.033816	-0.360322	0.354608
N708	N	1.283816	-0.110322	0.604608
H709	H	0.513097	-0.877272	-0.124654
H710	H	0.763097	-0.627272	0.125346
H711	H	1.013097	-0.377272	0.375346
H712	H	1.263097	-0.127272	0.625346
H713	H	0.597153	-0.959936	-0.164326
H714	H	0.847153	-0.709936	0.085674
H715	H	1.097153	-0.459936	0.335674
H716	H	1.347153	-0.209936	0.585674
N717	N	0.562333	-0.303146	-0.739598
N718	N	0.812333	-0.053146	-0.489598
N719	N	1.062333	0.196854	-0.239598
N720	N	1.312333	0.446854	0.010402
N721	N	0.520882	-0.300164	-0.744836
N722	N	0.770882	-0.050164	-0.494836
N723	N	1.020882	0.199836	-0.244836
N724	N	1.270882	0.449836	0.005164
H725	H	0.500132	-0.320894	-0.727911
H726	H	0.750132	-0.070894	-0.477911
H727	H	1.000132	0.179106	-0.227911
H728	H	1.250132	0.429106	0.022089
N729	N	0.562391	-0.598533	-0.129571
N730	N	0.812391	-0.348533	0.120429
N731	N	1.062391	-0.098533	0.370429
N732	N	1.312391	0.151467	0.620429
N733	N	0.533746	-0.572369	-0.145347
N734	N	0.783746	-0.322369	0.104653
N735	N	1.033746	-0.072369	0.354653
N736	N	1.283746	0.177631	0.604653
H737	H	0.513027	-0.555473	-0.124601
H738	H	0.763027	-0.305473	0.125399
H739	H	1.013027	-0.055473	0.375399
H740	H	1.263027	0.194527	0.625399
H741	H	-0.094206	-0.164396	-0.268701
H742	H	0.155794	0.085604	-0.018701
H743	H	0.405794	0.335604	0.231299
H744	H	0.655794	0.585604	0.481299
H745	H	0.597073	-0.268431	-0.960301
H746	H	0.847073	-0.018431	-0.710301
H747	H	1.097073	0.231569	-0.460301
H748	H	1.347073	0.481569	-0.210301
N749	N	0.735940	-0.739041	-0.303372
N750	N	0.985940	-0.489041	-0.053372
N751	N	1.235940	-0.239041	0.196628
N752	N	1.485940	0.010959	0.446628
N753	N	0.761575	-0.759960	-0.329047
N754	N	1.011575	-0.509960	-0.079047
N755	N	1.261575	-0.259960	0.170953
N756	N	1.511575	-0.009960	0.420953
H757	H	0.782290	-0.743016	-0.349795
H758	H	1.032290	-0.493016	-0.099795
H759	H	1.282290	-0.243016	0.150205
H760	H	1.532290	0.006984	0.400205
H761	H	-0.179422	-0.268497	-0.164249
H762	H	0.070578	-0.018497	0.085751
H763	H	0.320578	0.231503	0.335751
H764	H	0.570578	0.481503	0.585751
H765	H	0.597032	-0.472657	-0.164244
H766	H	0.847032	-0.222657	0.085756
H767	H	1.097032	0.027343	0.335756
H768	H	1.347032	0.277343	0.585756
H769	H	0.177135	-0.297168	-0.135421
H770	H	0.427135	-0.047168	0.114579
H771	H	0.677135	0.202832	0.364579
H772	H	0.927135	0.452832	0.614579
H773	H	0.568306	-0.297180	-0.829567
H774	H	0.818306	-0.047180	-0.579567
H775	H	1.068306	0.202820	-0.329567
H776	H	1.318306	0.452820	-0.079567
H777	H	0.262243	-0.297163	-0.135415
H778	H	0.512243	-0.047163	0.114585
H779	H	0.762243	0.202837	0.364585
H780	H	1.012243	0.452837	0.614585
H781	H	0.597012	-0.387534	-0.164232
H782	H	0.847012	-0.137534	0.085768
H783	H	1.097012	0.112466	0.335768
H784	H	1.347012	0.362466	0.585768
N785	N	0.388103	-0.274442	-0.158242
N786	N	0.638103	-0.024442	0.091758
N787	N	0.888103	0.225558	0.341758
N788	N	1.138103	0.475558	0.591758
N789	N	0.409030	-0.300054	-0.132543
N790	N	0.659030	-0.050054	0.117457
N791	N	0.909030	0.199946	0.367457
N792	N	1.159030	0.449946	0.617457
H793	H	0.392093	-0.320753	-0.111772
H794	H	0.642093	-0.070753	0.138228
H795	H	0.892093	0.179247	0.388228
H796	H	1.142093	0.429247	0.638228
N797	N	0.562329	-0.303172	-0.693665
N798	N	0.812329	-0.053172	-0.443665
N799	N	1.062329	0.196828	-0.193665
N800	N	1.312329	0.446828	0.056335
N801	N	0.536664	-0.328824	-0.672696
N802	N	0.786664	-0.078824	-0.422696
N803	N	1.036664	0.171176	-0.172696
N804	N	1.286664	0.421176	0.077304
H805	H	0.515925	-0.349559	-0.689600
H806	H	0.765925	-0.099559	-0.439600
H807	H	1.015925	0.150441	-0.189600
H808	H	1.265925	0.400441	0.060400
H809	H	0.701340	-0.959774	-0.268681
H810	H	0.951340	-0.709774	-0.018681
H811	H	1.201340	-0.459774	0.231319
H812	H	1.451340	-0.209774	0.481319
N813	N	0.562307	-0.303176	-0.598845
N814	N	0.812307	-0.053176	-0.348845
N815	N	1.062307	0.196824	-0.098845
N816	N	1.312307	0.446824	0.151155
N817	N	0.536640	-0.328817	-0.619789
N818	N	0.786640	-0.078817	-0.369789
N819	N	1.036640	0.171183	-0.119789
N820	N	1.286640	0.421183	0.130211
H821	H	0.515889	-0.349547	-0.602865
H822	H	0.765889	-0.099547	-0.352865
H823	H	1.015889	0.150453	-0.102865
H824	H	1.265889	0.400453	0.147135
N825	N	0.591059	-0.274512	-0.383028
N826	N	0.841059	-0.024512	-0.133028
N827	N	1.091059	0.225488	0.116972
N828	N	1.341059	0.475488	0.366972
N829	N	0.591062	-0.274514	-0.341138
N830	N	0.841062	-0.024514	-0.091138
N831	N	1.091062	0.225486	0.158862
N832	N	1.341062	0.475486	0.408862
H833	H	0.570323	-0.295242	-0.324197
H834	H	0.820323	-0.045242	-0.074197
H835	H	1.070323	0.204758	0.175803
H836	H	1.320323	0.454758	0.425803
N837	N	0.482949	-0.274436	-0.158243
N838	N	0.732949	-0.024436	0.091757
N839	N	0.982949	0.225564	0.341757
N840	N	1.232949	0.475564	0.591757
N841	N	0.524840	-0.274429	-0.158248
N842	N	0.774840	-0.024429	0.091752
N843	N	1.024840	0.225571	0.341752
N844	N	1.274840	0.475571	0.591752
H845	H	0.541752	-0.295121	-0.137483
H846	H	0.791752	-0.045121	0.112517
H847	H	1.041752	0.204879	0.362517
H848	H	1.291752	0.454879	0.612517
H849	H	0.701208	-0.472488	-0.268612
H850	H	0.951208	-0.222488	-0.018612
H851	H	1.201208	0.027512	0.231388
H852	H	1.451208	0.277512	0.481388
N853	N	0.736086	-0.129538	-0.739668
N854	N	0.986086	0.120462	-0.489668
N855	N	1.236086	0.370462	-0.239668
N856	N	1.486086	0.620462	0.010332
N857	N	0.761754	-0.103887	-0.760635
N858	N	1.011754	0.146113	-0.510635
N859	N	1.261754	0.396113	-0.260635
N860	N	1.511754	0.646113	-0.010635
H861	H	0.782500	-0.083161	-0.743731
H862	H	1.032500	0.166839	-0.493731
H863	H	1.282500	0.416839	-0.243731
H864	H	1.532500	0.666839	0.006269
H865	H	0.730130	-0.135475	-0.829639
H866	H	0.980130	0.114525	-0.579639
H867	H	1.230130	0.364525	-0.329639
H868	H	1.480130	0.614525	-0.079639
H869	H	0.036379	-0.297170	-0.135440
H870	H	0.286379	-0.047170	0.114560
H871	H	0.536379	0.202830	0.364560
H872	H	0.786379	0.452830	0.614560
H873	H	0.478188	-0.164399	-0.268663
H874	H	0.728188	0.085601	-0.018663
H875	H	0.978188	0.335601	0.231337
H876	H	1.228188	0.585601	0.481337
H877	H	0.393080	-0.164389	-0.268665
H878	H	0.643080	0.085611	-0.018665
H879	H	0.893080	0.335611	0.231335
H880	H	1.143080	0.585611	0.481335
N881	N	0.735956	-0.833880	-0.303380
N882	N	0.985956	-0.583880	-0.053380
N883	N	1.235956	-0.333880	0.196620
N884	N	1.485956	-0.083880	0.446620
N885	N	0.735958	-0.875771	-0.303377
N886	N	0.985958	-0.625771	-0.053377
N887	N	1.235958	-0.375771	0.196623
N888	N	1.485958	-0.125771	0.446623
H889	H	0.756672	-0.892673	-0.324122
H890	H	1.006672	-0.642673	-0.074122
H891	H	1.256672	-0.392673	0.175878
H892	H	1.506672	-0.142673	0.425878
H893	H	0.262394	-0.135705	-0.297462
H894	H	0.512394	0.114295	-0.047462
H895	H	0.762394	0.364295	0.202538
H896	H	1.012394	0.614295	0.452538
N897	N	0.126335	-0.303114	-0.129466
N898	N	0.376335	-0.053114	0.120534
N899	N	0.626335	0.196886	0.370534
N900	N	0.876335	0.446886	0.620534
N901	N	0.105352	-0.328723	-0.103770
N902	N	0.355352	-0.078723	0.146230
N903	N	0.605352	0.171277	0.396230
N904	N	0.855352	0.421277	0.646230
H905	H	0.122245	-0.349424	-0.082997
H906	H	0.372245	-0.099424	0.167003
H907	H	0.622245	0.150576	0.417003
H908	H	0.872245	0.400576	0.667003
H909	H	0.701192	-0.387379	-0.268586
H910	H	0.951192	-0.137379	-0.018586
H911	H	1.201192	0.112621	0.231414
H912	H	1.451192	0.362621	0.481414
N913	N	0.735926	-0.693110	-0.303367
N914	N	0.985926	-0.443110	-0.053367
N915	N	1.235926	-0.193110	0.196633
N916	N	1.485926	0.056890	0.446633
N917	N	0.761549	-0.672113	-0.329035
N918	N	1.011549	-0.422113	-0.079035
N919	N	1.261549	-0.172113	0.170965
N920	N	1.511549	0.077887	0.420965
H921	H	0.782272	-0.688992	-0.349791
H922	H	1.032272	-0.438992	-0.099791
H923	H	1.282272	-0.188992	0.150209
H924	H	1.532272	0.061008	0.400209
H925	H	0.701358	-1.044896	-0.268692
H926	H	0.951358	-0.794896	-0.018692
H927	H	1.201358	-0.544896	0.231308
H928	H	1.451358	-0.294896	0.481308
N929	N	0.591235	-1.049910	-0.158370
N930	N	0.841235	-0.799910	0.091630
N931	N	1.091235	-0.549910	0.341630
N932	N	1.341235	-0.299910	0.591630
N933	N	0.565600	-1.028993	-0.132693
N934	N	0.815600	-0.778993	0.117307
N935	N	1.065600	-0.528993	0.367307
N936	N	1.315600	-0.278993	0.617307
H937	H	0.544891	-1.045938	-0.111940
H938	H	0.794891	-0.795938	0.138060
H939	H	1.044891	-0.545938	0.388060
H940	H	1.294891	-0.295938	0.638060
N941	N	0.562413	-0.693371	-0.129575
N942	N	0.812413	-0.443371	0.120425
N943	N	1.062413	-0.193371	0.370425
N944	N	1.312413	0.056629	0.620425
N945	N	0.565410	-0.688149	-0.088122
N946	N	0.815410	-0.438149	0.161878
N947	N	1.065410	-0.188149	0.411878
N948	N	1.315410	0.061851	0.661878
H949	H	0.544694	-0.705094	-0.067377
H950	H	0.794694	-0.455094	0.182623
H951	H	1.044694	-0.205094	0.432623
H952	H	1.294694	0.044906	0.682623
N953	N	0.562433	-0.739306	-0.129581
N954	N	0.812433	-0.489306	0.120419
N955	N	1.062433	-0.239306	0.370419
N956	N	1.312433	0.010694	0.620419
N957	N	0.536809	-0.760302	-0.103911
N958	N	0.786809	-0.510302	0.146089
N959	N	1.036809	-0.260302	0.396089
N960	N	1.286809	-0.010302	0.646089
H961	H	0.516088	-0.743420	-0.083156
H962	H	0.766088	-0.493420	0.166844
H963	H	1.016088	-0.243420	0.416844
H964	H	1.266088	0.006580	0.666844
