data_functionalizedCrystal
_audit_creation_method	'MofGen! by Chris Wilmer'
_symmetry_space_group_name_H-M	'P1'
_symmetry_Int_Tables_number	1
_symmetry_cell_setting	triclinic
loop_
_symmetry_equiv_pos_as_xyz
  x,y,z
_cell_length_a	16.959455
_cell_length_b	16.625546
_cell_length_c	16.959447
_cell_angle_alpha	89.967784
_cell_angle_beta	89.985299
_cell_angle_gamma	90.021896
loop_
_atom_site_label
_atom_site_type_symbol
_atom_site_fract_x
_atom_site_fract_y
_atom_site_fract_z
Zn1	Zn	1.208371	-0.320998	-0.446906
Zn2	Zn	1.541704	0.012335	-0.113573
Zn3	Zn	1.875037	0.345669	0.219760
Zn4	Zn	1.208288	-0.455845	-0.314723
Zn5	Zn	1.541621	-0.122512	0.018610
Zn6	Zn	1.874954	0.210821	0.351943
Zn7	Zn	1.076199	-0.321029	-0.314743
Zn8	Zn	1.409532	0.012304	0.018590
Zn9	Zn	1.742866	0.345638	0.351924
Zn10	Zn	1.076158	-0.455791	-0.446861
Zn11	Zn	1.409492	-0.122458	-0.113528
Zn12	Zn	1.742825	0.210876	0.219806
O13	O	1.142254	-0.388416	-0.380808
O14	O	1.475587	-0.055083	-0.047475
O15	O	1.808921	0.278251	0.285858
O16	O	1.318970	-0.338896	-0.429383
O17	O	1.652304	-0.005562	-0.096049
O18	O	1.985637	0.327771	0.237284
O19	O	1.190748	-0.437998	-0.204115
O20	O	1.524081	-0.104664	0.129218
O21	O	1.857415	0.228669	0.462552
O22	O	1.093784	-0.208193	-0.332302
O23	O	1.427117	0.125141	0.001032
O24	O	1.760450	0.458474	0.334365
O25	O	1.318909	-0.437967	-0.332268
O26	O	1.652243	-0.104634	0.001065
O27	O	1.985576	0.228699	0.334398
O28	O	1.190890	-0.208170	-0.429402
O29	O	1.524223	0.125164	-0.096068
O30	O	1.857556	0.458497	0.237265
O31	O	1.093703	-0.338949	-0.204129
O32	O	1.427037	-0.005615	0.129204
O33	O	1.760370	0.327718	0.462537
O34	O	0.965583	-0.338896	-0.332258
O35	O	1.298916	-0.005563	0.001075
O36	O	1.632249	0.327771	0.334409
O37	O	1.093714	-0.437875	-0.557478
O38	O	1.427047	-0.104541	-0.224145
O39	O	1.760381	0.228792	0.109189
O40	O	0.965553	-0.437905	-0.429325
O41	O	1.298886	-0.104571	-0.095991
O42	O	1.632219	0.228762	0.237342
O43	O	1.190850	-0.338843	-0.557511
O44	O	1.524183	-0.005509	-0.224178
O45	O	1.857517	0.327824	0.109155
O46	O	1.190709	-0.568671	-0.332225
O47	O	1.524042	-0.235337	0.001109
O48	O	1.857375	0.097996	0.334442
O49	O	1.093634	-0.568631	-0.429306
O50	O	1.426967	-0.235297	-0.095972
O51	O	1.760300	0.098036	0.237361
C52	C	0.936888	-0.388398	-0.380789
C53	C	1.270221	-0.055065	-0.047456
C54	C	1.603554	0.278268	0.285878
C55	C	0.849031	-0.388410	-0.380799
C56	C	1.182364	-0.055077	-0.047466
C57	C	1.515698	0.278256	0.285867
C58	C	1.142179	-0.597907	-0.380775
C59	C	1.475512	-0.264573	-0.047442
C60	C	1.808846	0.068760	0.285891
C61	C	1.142219	-0.687528	-0.380788
C62	C	1.475553	-0.354195	-0.047454
C63	C	1.808886	-0.020861	0.285879
C64	C	0.807723	-0.439919	-0.330165
C65	C	1.141057	-0.106586	0.003169
C66	C	1.474390	0.226748	0.336502
C67	C	0.807785	-0.336908	-0.431440
C68	C	1.141118	-0.003575	-0.098107
C69	C	1.474452	0.329759	0.235226
C70	C	0.725239	-0.336914	-0.431450
C71	C	1.058573	-0.003581	-0.098117
C72	C	1.391906	0.329752	0.235217
C73	C	0.683932	-0.388423	-0.380815
C74	C	1.017265	-0.055090	-0.047482
C75	C	1.350598	0.278244	0.285852
C76	C	0.725170	-0.439925	-0.330171
C77	C	1.058503	-0.106592	0.003163
C78	C	1.391837	0.226741	0.336496
C79	C	0.683995	-0.285407	-0.482088
C80	C	1.017328	0.047926	-0.148754
C81	C	1.350661	0.381259	0.184579
C82	C	0.601444	-0.285411	-0.482098
C83	C	0.934777	0.047922	-0.148765
C84	C	1.268110	0.381256	0.184568
C85	C	0.560135	-0.336924	-0.431467
C86	C	0.893468	-0.003591	-0.098134
C87	C	1.226801	0.329742	0.235200
C88	C	0.601378	-0.388429	-0.380821
C89	C	0.934711	-0.055096	-0.047488
C90	C	1.268045	0.278237	0.285845
C91	C	0.560070	-0.439938	-0.330186
C92	C	0.893404	-0.106605	0.003147
C93	C	1.226737	0.226729	0.336480
C94	C	0.601312	-0.491448	-0.279544
C95	C	0.934646	-0.158114	0.053789
C96	C	1.267979	0.175219	0.387123
C97	C	0.683861	-0.491439	-0.279539
C98	C	1.017194	-0.158105	0.053794
C99	C	1.350527	0.175228	0.387127
C100	C	0.477586	-0.336933	-0.431472
C101	C	0.810920	-0.003600	-0.098138
C102	C	1.144253	0.329733	0.235195
C103	C	0.477517	-0.439944	-0.330193
C104	C	0.810850	-0.106611	0.003141
C105	C	1.144184	0.226723	0.336474
C106	C	1.142357	-1.015703	-0.380870
C107	C	1.475691	-0.682370	-0.047537
C108	C	1.809024	-0.349037	0.285797
C109	C	1.142316	-0.924395	-0.380849
C110	C	1.475650	-0.591062	-0.047516
C111	C	1.808983	-0.257728	0.285817
C112	C	1.142288	-0.851619	-0.380828
C113	C	1.475621	-0.518285	-0.047495
C114	C	1.808954	-0.184952	0.285838
C115	C	1.142248	-0.760304	-0.380808
C116	C	1.475581	-0.426971	-0.047475
C117	C	1.808915	-0.093638	0.285858
C118	C	1.348422	-0.388434	-0.380828
C119	C	1.681755	-0.055101	-0.047495
C120	C	2.015089	0.278233	0.285838
C121	C	1.436279	-0.388442	-0.380837
C122	C	1.769612	-0.055109	-0.047504
C123	C	2.102945	0.278225	0.285830
C124	C	1.142287	-0.388349	-0.586977
C125	C	1.475620	-0.055016	-0.253643
C126	C	1.808953	0.278317	0.079690
C127	C	1.142301	-0.388321	-0.674833
C128	C	1.475634	-0.054987	-0.341500
C129	C	1.808967	0.278346	-0.008167
C130	C	1.142351	-0.178107	-0.380859
C131	C	1.475684	0.155226	-0.047526
C132	C	1.809017	0.488560	0.285808
C133	C	1.142392	-0.088486	-0.380880
C134	C	1.475725	0.244847	-0.047547
C135	C	1.809058	0.578181	0.285786
C136	C	1.091821	-0.439797	-1.046294
C137	C	1.425154	-0.106464	-0.712961
C138	C	1.758488	0.226870	-0.379628
C139	C	1.192970	-0.336674	-1.046324
C140	C	1.526303	-0.003341	-0.712991
C141	C	1.859636	0.329992	-0.379657
C142	C	1.192948	-0.336691	-0.963778
C143	C	1.526282	-0.003358	-0.630445
C144	C	1.859615	0.329975	-0.297111
C145	C	1.142364	-0.388263	-0.922486
C146	C	1.475697	-0.054930	-0.589153
C147	C	1.809030	0.278404	-0.255820
C148	C	1.091800	-0.439817	-0.963741
C149	C	1.425133	-0.106484	-0.630407
C150	C	1.758467	0.226849	-0.297074
C151	C	1.243517	-0.285144	-0.922518
C152	C	1.576850	0.048189	-0.589184
C153	C	1.910184	0.381523	-0.255851
C154	C	1.243498	-0.285159	-0.839967
C155	C	1.576832	0.048174	-0.506633
C156	C	1.910165	0.381507	-0.173300
C157	C	1.192909	-0.336728	-0.798674
C158	C	1.526242	-0.003394	-0.465340
C159	C	1.859576	0.329939	-0.132007
C160	C	1.142343	-0.388283	-0.839933
C161	C	1.475676	-0.054950	-0.506600
C162	C	1.809009	0.278383	-0.173266
C163	C	1.091758	-0.439855	-0.798641
C164	C	1.425091	-0.106521	-0.465308
C165	C	1.758425	0.226812	-0.131975
C166	C	1.041187	-0.491407	-0.839899
C167	C	1.374520	-0.158074	-0.506566
C168	C	1.707854	0.175260	-0.173232
C169	C	1.041211	-0.491385	-0.922448
C170	C	1.374544	-0.158052	-0.589114
C171	C	1.707877	0.175281	-0.255781
C172	C	1.192886	-0.336749	-0.716125
C173	C	1.526219	-0.003416	-0.382792
C174	C	1.859552	0.329917	-0.049458
C175	C	1.091737	-0.439875	-0.716088
C176	C	1.425070	-0.106542	-0.382754
C177	C	1.758404	0.226792	-0.049421
C178	C	1.142267	-0.388424	-0.175442
C179	C	1.475600	-0.055091	0.157891
C180	C	1.808933	0.278242	0.491225
C181	C	1.142406	-0.388226	-0.087586
C182	C	1.475739	-0.054892	0.245747
C183	C	1.809072	0.278441	0.579081
H184	H	0.443890	-0.481893	-0.288962
H185	H	0.777223	-0.148559	0.044371
H186	H	1.110557	0.184774	0.377704
H187	H	0.567872	-0.243470	-0.523336
H188	H	0.901205	0.089864	-0.190002
H189	H	1.234538	0.423197	0.143331
H190	H	1.000041	-0.533359	-0.956047
H191	H	1.333375	-0.200026	-0.622714
H192	H	1.666708	0.133308	-0.289381
H193	H	1.234158	-0.294692	-1.079949
H194	H	1.567491	0.038642	-0.746615
H195	H	1.900824	0.371975	-0.413282
Cl196	Cl	1.307069	-0.220349	-0.788107
Cl197	Cl	1.640402	0.112984	-0.454774
Cl198	Cl	1.973736	0.446317	-0.121440
H199	H	0.717633	-0.243469	-0.523309
H200	H	1.050967	0.089865	-0.189975
H201	H	1.384300	0.423198	0.143358
Cl202	Cl	1.028137	-0.504707	-0.664185
Cl203	Cl	1.361470	-0.171374	-0.330852
Cl204	Cl	1.694803	0.161959	0.002482
H205	H	0.717447	-0.533373	-0.238307
H206	H	1.050781	-0.200040	0.095026
H207	H	1.384114	0.133294	0.428359
H208	H	1.050645	-0.481767	-1.079890
H209	H	1.383979	-0.148434	-0.746557
H210	H	1.717312	0.184899	-0.413224
Cl211	Cl	0.425743	-0.272178	-0.495125
Cl212	Cl	0.759076	0.061156	-0.161791
Cl213	Cl	1.092410	0.394489	0.171542
Cl214	Cl	1.307110	-0.220322	-0.974430
Cl215	Cl	1.640444	0.113012	-0.641097
Cl216	Cl	1.973777	0.446345	-0.307763
Cl217	Cl	0.859715	-0.272156	-0.495090
Cl218	Cl	1.193049	0.061178	-0.161756
Cl219	Cl	1.526382	0.394511	0.171577
Cl220	Cl	0.859567	-0.504673	-0.266506
Cl221	Cl	1.192901	-0.171340	0.066827
Cl222	Cl	1.526234	0.161993	0.400161
H223	H	1.000005	-0.533400	-0.806269
H224	H	1.333338	-0.200067	-0.472935
H225	H	1.666671	0.133266	-0.139602
Cl226	Cl	0.549373	-0.556193	-0.215886
Cl227	Cl	0.882706	-0.222859	0.117447
Cl228	Cl	1.216040	0.110474	0.450781
Cl229	Cl	1.256460	-0.271952	-0.664262
Cl230	Cl	1.589793	0.061382	-0.330928
Cl231	Cl	1.923127	0.394715	0.002405
