data_functionalizedCrystal
_audit_creation_method	'MofGen! by Chris Wilmer'
_symmetry_space_group_name_H-M	'P1'
_symmetry_Int_Tables_number	1
_symmetry_cell_setting	triclinic
loop_
_symmetry_equiv_pos_as_xyz
  x,y,z
_cell_length_a	10.686285
_cell_length_b	10.685980
_cell_length_c	11.169409
_cell_angle_alpha	94.396777
_cell_angle_beta	94.400340
_cell_angle_gamma	89.665709
loop_
_atom_site_label
_atom_site_type_symbol
_atom_site_fract_x
_atom_site_fract_y
_atom_site_fract_z
Zn1	Zn	-0.352328	1.956353	0.795803
Zn2	Zn	-0.562155	1.972346	0.581003
Zn3	Zn	-0.368479	1.746560	0.578634
Zn4	Zn	-0.578118	1.762662	0.765167
O5	O	-0.465270	1.859480	0.680152
O6	O	-0.366723	2.134028	0.781122
O7	O	-0.536543	1.942349	0.412730
O8	O	-0.190789	1.760958	0.619271
O9	O	-0.520882	2.145777	0.623310
O10	O	-0.178923	1.915092	0.778825
O11	O	-0.394249	1.776465	0.410989
O12	O	-0.409728	1.573143	0.589565
O13	O	-0.548088	1.788401	0.937189
O14	O	-0.563749	1.584973	0.726610
O15	O	-0.382201	1.930706	0.959698
O16	O	-0.739821	1.957962	0.593603
O17	O	-0.751549	1.803908	0.728907
C18	C	-0.490224	1.533539	0.654506
C19	C	-0.500930	1.394102	0.643561
C20	C	-0.791200	1.884452	0.658217
C21	C	-0.930625	1.895250	0.648882
C22	C	-0.138065	1.834445	0.702201
C23	C	0.001370	1.823776	0.711597
C24	C	-0.465124	1.859566	0.993211
C25	C	-0.465061	1.859602	1.126618
C26	C	-0.440220	2.186694	0.705898
C27	C	-0.429545	2.326133	0.716869
C28	C	-0.465320	1.859460	0.368322
C29	C	-0.465011	1.859639	0.234958
H30	H	-0.950189	1.754325	0.772433
H31	H	-0.570239	1.345614	0.572416
H32	H	-0.979074	1.964697	0.588034
O33	O	-0.346757	1.383758	0.801774
C34	C	-0.282562	1.292575	0.867757
H35	H	-0.285252	1.198773	0.811649
H36	H	-0.180859	1.322953	0.890315
H37	H	-0.329663	1.282264	0.954662
