data_functionalizedCrystal
_audit_creation_method	'MofGen! by Chris Wilmer'
_symmetry_space_group_name_H-M	'P1'
_symmetry_Int_Tables_number	1
_symmetry_cell_setting	triclinic
loop_
_symmetry_equiv_pos_as_xyz
  x,y,z
_cell_length_a	10.654550
_cell_length_b	16.992695
_cell_length_c	9.130313
_cell_angle_alpha	89.995176
_cell_angle_beta	89.999724
_cell_angle_gamma	87.576577
loop_
_atom_site_label
_atom_site_type_symbol
_atom_site_fract_x
_atom_site_fract_y
_atom_site_fract_z
O1	O	1.677362	0.110190	-0.121691
O2	O	1.312790	0.120688	-0.121718
O3	O	1.493615	0.001288	-0.121693
O4	O	1.496538	0.229590	-0.121716
O5	O	1.493601	0.001285	0.121906
O6	O	1.312777	0.120685	0.121881
O7	O	1.677348	0.110186	0.121908
Cu8	Cu	1.495061	0.115435	0.144137
Cu9	Cu	1.495077	0.115439	-0.143947
O10	O	1.496524	0.229586	0.121883
C11	C	1.265919	0.119916	0.000078
C12	C	1.126277	0.117609	0.000068
C13	C	1.052866	0.187910	0.000065
C14	C	0.921658	0.185738	0.000091
C15	C	0.937282	0.042959	0.000116
C16	C	1.068488	0.045132	0.000101
C17	C	1.489848	-0.027946	0.000106
C18	C	1.478628	-0.115051	0.000105
C19	C	1.586879	-0.164703	0.000114
C20	C	1.576330	-0.246547	0.000099
C21	C	1.457529	-0.278738	0.000086
C22	C	1.349270	-0.229080	0.000072
C23	C	1.359820	-0.147237	0.000076
C24	C	1.413802	-0.522573	0.000062
C25	C	1.403260	-0.604422	0.000062
C26	C	1.630321	-0.621884	0.000087
C27	C	1.640861	-0.540039	0.000100
C28	C	1.532602	-0.490388	0.000079
N29	N	1.446743	-0.362395	0.000075
N30	N	1.543389	-0.406733	0.000079
C31	C	1.724220	0.110959	0.000108
C32	C	1.863862	0.113265	0.000109
C33	C	1.500291	0.258821	0.000080
C34	C	1.511510	0.345926	0.000072
N35	N	1.495059	0.115432	0.346759
N36	N	1.495089	0.115437	-0.346570
C37	C	1.575159	0.062584	0.423422
C38	C	1.575171	0.062584	0.576759
C39	C	1.414980	0.168287	0.576756
C40	C	1.414963	0.168282	0.423422
H41	H	0.890215	-0.016050	0.000152
O42	O	1.702381	-0.133567	0.000059
C43	C	1.926478	-0.159534	0.000149
C44	C	1.795749	-0.194897	0.000187
H45	H	2.002002	-0.209103	0.000284
H46	H	1.937180	-0.121678	-0.101820
H47	H	1.937029	-0.121633	0.102072
H48	H	1.785109	-0.232834	-0.101667
H49	H	1.785106	-0.232708	0.102223
H50	H	1.128262	-0.012119	0.000107
O51	O	1.337004	0.219546	0.651168
C52	C	1.123141	0.264274	0.698049
C53	C	1.211304	0.206165	0.613716
H54	H	1.021496	0.253486	0.667777
H55	H	1.136806	0.255200	0.820827
H56	H	1.145869	0.327200	0.667900
H57	H	1.188630	0.143215	0.643742
H58	H	1.197624	0.215308	0.490958
O59	O	1.653101	0.011221	0.651002
C60	C	1.811936	-0.093652	0.634812
C61	C	1.723764	-0.035509	0.550552
H62	H	1.869071	-0.131459	0.553635
H63	H	1.878189	-0.059453	0.706544
H64	H	1.753748	-0.133126	0.706654
H65	H	1.781850	0.003980	0.478630
H66	H	1.657507	-0.069756	0.478913
H67	H	1.664480	-0.286971	0.000110
H68	H	1.349730	0.211318	0.360999
O69	O	1.756361	-0.508902	0.000054
C70	C	1.980461	-0.534861	0.000190
C71	C	1.849735	-0.570229	0.000193
H72	H	2.055988	-0.584427	0.000334
H73	H	1.991176	-0.497001	-0.101771
H74	H	1.990991	-0.496963	0.102120
H75	H	1.839115	-0.608163	-0.101668
H76	H	1.839079	-0.608044	0.102222
H77	H	1.718458	-0.662318	0.000102
H78	H	1.271671	-0.106811	0.000068
H79	H	1.099913	0.246926	0.000049
H80	H	0.861892	0.242984	0.000091
O81	O	1.308549	-0.474433	-0.000137
C82	C	1.117741	-0.434439	-0.126384
C83	C	1.236881	-0.489019	-0.126328
H84	H	1.059778	-0.446201	-0.228414
H85	H	1.059596	-0.446244	-0.024509
H86	H	1.145701	-0.370418	-0.126311
H87	H	1.209034	-0.553058	-0.126453
H88	H	1.294997	-0.477146	-0.228195
H89	H	1.306513	-0.630628	0.000075
H90	H	1.252539	-0.255296	0.000051
H91	H	1.640377	0.019549	0.361007
