data_functionalizedCrystal
_audit_creation_method	'MofGen! by Chris Wilmer'
_symmetry_space_group_name_H-M	'P1'
_symmetry_Int_Tables_number	1
_symmetry_cell_setting	triclinic
loop_
_symmetry_equiv_pos_as_xyz
  x,y,z
_cell_length_a	10.654541
_cell_length_b	10.868271
_cell_length_c	10.654545
_cell_angle_alpha	90.000939
_cell_angle_beta	95.515322
_cell_angle_gamma	90.003021
loop_
_atom_site_label
_atom_site_type_symbol
_atom_site_fract_x
_atom_site_fract_y
_atom_site_fract_z
O1	O	1.667845	0.102278	-0.176378
O2	O	1.302366	0.102288	-0.193188
O3	O	1.493508	0.102282	-0.002044
O4	O	1.476703	0.102284	-0.367522
O5	O	1.493490	-0.102363	-0.002050
O6	O	1.302349	-0.102357	-0.193194
O7	O	1.667828	-0.102367	-0.176384
Zn8	Zn	1.485085	-0.134854	-0.184790
Zn9	Zn	1.485108	0.134774	-0.184782
O10	O	1.476686	-0.102361	-0.367528
C11	C	1.255559	-0.000033	-0.191957
C12	C	1.116116	-0.000029	-0.188266
N13	N	1.485079	-0.318868	-0.184795
C14	C	1.088146	-0.000012	-0.416831
C15	C	1.008652	0.000001	-0.529374
C16	C	0.877634	0.000002	-0.525898
C17	C	0.826108	-0.000014	-0.409867
C18	C	0.905602	-0.000027	-0.297324
C19	C	1.036622	-0.000025	-0.300812
C20	C	0.933572	-0.000053	-0.068763
C21	C	1.064590	-0.000045	-0.072235
C22	C	0.882046	-0.000069	0.047269
C23	C	0.961540	-0.000073	0.159814
C24	C	1.092565	-0.000073	0.156334
C25	C	1.144084	-0.000058	0.040308
C26	C	1.485089	-0.430206	-0.184795
C27	C	1.485105	-0.569883	-0.184784
C28	C	1.714634	-0.000043	-0.177615
C29	C	1.854078	-0.000039	-0.181306
C30	C	1.492265	-0.000038	0.044751
C31	C	1.488572	-0.000031	0.184195
N32	N	1.485125	0.318788	-0.184767
C33	C	1.477929	-0.000038	-0.414323
C34	C	1.481621	-0.000037	-0.553766
C35	C	1.488606	0.223079	0.184210
C36	C	1.486893	0.334633	0.249727
C37	C	1.483424	0.334635	0.380746
C38	C	1.481664	0.223070	0.446250
C39	C	1.483377	0.111515	0.380732
C40	C	1.486850	0.111526	0.249711
C41	C	1.483334	-0.111592	0.380716
C42	C	1.486812	-0.111596	0.249698
C43	C	1.481574	-0.223157	0.446220
C44	C	1.483296	-0.334714	0.380703
C45	C	1.486767	-0.334711	0.249677
C46	C	1.488525	-0.223151	0.184181
H47	H	1.194826	0.000014	-0.419672
H48	H	1.491446	0.223089	0.077529
H49	H	1.488325	0.425467	0.196379
C50	C	1.139774	0.105222	-0.665880
C51	C	1.065291	0.000020	-0.656912
H52	H	1.174730	0.105231	-0.744620
H53	H	1.205861	0.105205	-0.599361
H54	H	1.089235	0.176577	-0.659762
H55	H	1.115833	-0.071336	-0.663021
H56	H	0.999196	0.000025	-0.723450
H57	H	1.157283	-0.000088	0.247981
C58	C	1.339373	-0.105265	0.097529
C59	C	1.288100	-0.000058	0.036484
H60	H	1.428283	-0.105260	0.095169
H61	H	1.304565	-0.176609	0.056092
H62	H	1.320058	-0.105264	0.182734
H63	H	1.307407	-0.000063	-0.048725
H64	H	1.322921	0.071305	0.077918
H65	H	1.482018	0.425472	0.434089
H66	H	1.488143	-0.425552	0.196338
H67	H	1.478824	0.223081	0.552930
H68	H	0.812909	0.000004	-0.617541
C69	C	0.630812	0.105181	-0.467095
C70	C	0.682092	-0.000021	-0.406045
H71	H	0.541903	0.105177	-0.464725
H72	H	0.650120	0.105178	-0.552290
H73	H	0.665625	0.176536	-0.425656
H74	H	0.647286	-0.071377	-0.447490
H75	H	0.662773	-0.000030	-0.320834
C76	C	0.701994	0.105127	0.114499
C77	C	0.738030	-0.000065	0.051095
H78	H	0.613085	0.105127	0.116868
H79	H	0.726473	0.176481	0.071510
H80	H	0.741973	0.105100	0.198127
H81	H	0.698058	-0.000033	-0.032536
H82	H	0.713538	-0.071437	0.094082
C83	C	0.945037	0.105105	0.355717
C84	C	0.904904	-0.000090	0.287346
H85	H	0.910074	0.105090	0.434453
H86	H	0.917813	0.176457	0.309337
H87	H	1.034444	0.105098	0.369746
H88	H	0.815497	-0.000079	0.273308
H89	H	0.932121	-0.071460	0.333736
H90	H	1.478743	-0.223148	0.552901
C91	C	1.477945	-0.433775	0.581538
C92	C	1.481362	-0.457335	0.452706
H93	H	1.476760	-0.509479	0.625991
H94	H	1.404278	-0.387940	0.594055
H95	H	1.550496	-0.387944	0.611944
H96	H	1.408806	-0.503158	0.422297
H97	H	1.555038	-0.503189	0.440181
C98	C	1.493471	-0.344617	-0.003518
C99	C	1.492340	-0.223146	0.040163
H100	H	1.495830	-0.344607	-0.092428
H101	H	1.419573	-0.385795	0.017176
H102	H	1.565791	-0.385821	0.035063
H103	H	1.420014	-0.181945	0.001590
H104	H	1.566246	-0.181950	0.019457
