data_functionalizedCrystal
_audit_creation_method	'MofGen! by Chris Wilmer'
_symmetry_space_group_name_H-M	'P1'
_symmetry_Int_Tables_number	1
_symmetry_cell_setting	triclinic
loop_
_symmetry_equiv_pos_as_xyz
  x,y,z
_cell_length_a	21.295417
_cell_length_b	16.959455
_cell_length_c	16.959447
_cell_angle_alpha	89.985678
_cell_angle_beta	90.035193
_cell_angle_gamma	89.972546
loop_
_atom_site_label
_atom_site_type_symbol
_atom_site_fract_x
_atom_site_fract_y
_atom_site_fract_z
Zn1	Zn	-0.250648	-1.208326	0.446882
Zn2	Zn	-0.355925	-1.208225	0.314692
Zn3	Zn	-0.250668	-1.076155	0.314719
Zn4	Zn	-0.355878	-1.076096	0.446831
O5	O	-0.303280	-1.142200	0.380781
O6	O	-0.264625	-1.318924	0.429357
O7	O	-0.341990	-1.190688	0.204085
O8	O	-0.162576	-1.093755	0.332284
O9	O	-0.341971	-1.318849	0.332237
O10	O	-0.162561	-1.190861	0.429383
O11	O	-0.264658	-1.093657	0.204105
O12	O	-0.264613	-0.965536	0.332234
O13	O	-0.341891	-1.093654	0.557448
O14	O	-0.341910	-0.965493	0.429296
O15	O	-0.264579	-1.190803	0.557486
O16	O	-0.444008	-1.190630	0.332188
O17	O	-0.443973	-1.093555	0.429269
C18	C	-0.466831	-1.142097	0.380737
C19	C	-0.536799	-1.142125	0.380745
C20	C	-0.303259	-0.936834	0.380763
C21	C	-0.303265	-0.848978	0.380774
C22	C	-0.303228	-1.142233	0.586949
C23	C	-0.303205	-1.142247	0.674806
C24	C	-0.569663	-1.192717	0.330246
C25	C	-0.635406	-1.192754	0.330264
C26	C	-0.668282	-1.142185	0.380772
C27	C	-0.635410	-1.091589	0.431281
C28	C	-0.569669	-1.091559	0.431267
N29	N	-0.771544	-1.073038	0.386792
N30	N	-0.833996	-1.073069	0.386800
C31	C	-0.866357	-1.142273	0.380818
N32	N	-0.833907	-1.211448	0.374811
N33	N	-0.771449	-1.211416	0.374798
C34	C	-0.739567	-1.142212	0.380793
C35	C	-0.970506	-1.192910	0.330335
C36	C	-1.036249	-1.192948	0.330359
C37	C	-1.036253	-1.091777	0.431371
C38	C	-0.970510	-1.091745	0.431352
C39	C	-0.937641	-1.142311	0.380830
C40	C	-0.139089	-1.142326	0.380842
C41	C	-0.069121	-1.142379	0.380868
C42	C	-0.303301	-1.348369	0.380800
C43	C	-0.303310	-1.436225	0.380808
C44	C	-0.262998	-0.477500	0.330347
C45	C	-0.343613	-0.477504	0.431261
C46	C	-0.343604	-0.560050	0.431256
C47	C	-0.303292	-0.601325	0.380795
C48	C	-0.262989	-0.560054	0.330339
C49	C	-0.383911	-0.601327	0.481705
C50	C	-0.383904	-0.683877	0.481702
C51	C	-0.343588	-0.725154	0.431244
C52	C	-0.303283	-0.683878	0.380787
C53	C	-0.262971	-0.725153	0.330326
C54	C	-0.222662	-0.683879	0.279871
C55	C	-0.222673	-0.601330	0.279881
C56	C	-0.343577	-0.807702	0.431235
C57	C	-0.262962	-0.807707	0.330318
C58	C	-0.303286	-1.142213	0.175415
C59	C	-0.303131	-1.142352	0.087559
C60	C	-0.343392	-1.091760	1.046265
C61	C	-0.262886	-1.192923	1.046299
C62	C	-0.262900	-1.192902	0.963753
C63	C	-0.303160	-1.142310	0.922459
C64	C	-0.343407	-1.091740	0.963711
C65	C	-0.222658	-1.243478	0.922495
C66	C	-0.222670	-1.243459	0.839944
C67	C	-0.262928	-1.192863	0.798648
C68	C	-0.303176	-1.142289	0.839906
C69	C	-0.343437	-1.091698	0.798612
C70	C	-0.383682	-1.041120	0.839867
C71	C	-0.383665	-1.041143	0.922416
C72	C	-0.262945	-1.192839	0.716100
C73	C	-0.343453	-1.091677	0.716058
H74	H	-0.662168	-1.233954	0.289142
O75	O	-0.670864	-1.037036	0.485751
H76	H	-0.722100	-1.045548	0.477268
H77	H	-0.189843	-0.717496	0.238783
O78	O	-0.534210	-1.247256	0.275761
H79	H	-0.504207	-1.287431	0.311168
O80	O	-0.387090	-0.432992	0.485687
H81	H	-0.380323	-0.368656	0.477219
O82	O	-1.071693	-1.247524	0.275889
H83	H	-1.101587	-1.287740	0.311309
O84	O	-0.386793	-1.037206	1.090758
H85	H	-0.436204	-1.050713	1.074890
H86	H	-1.063020	-1.050606	0.472499
H87	H	-0.542911	-1.050361	0.472390
H88	H	-0.376398	-0.841304	0.472312
H89	H	-0.376232	-1.050471	0.682442
O90	O	-0.935058	-1.037158	0.485798
H91	H	-0.968961	-1.001990	0.520915
O92	O	-0.219490	-0.852225	0.275882
H93	H	-0.191471	-0.809655	0.240796
H94	H	-0.230178	-0.443891	0.289270
H95	H	-0.189857	-0.567717	0.238803
H96	H	-0.230179	-1.234021	0.682513
O97	O	-0.219454	-1.247465	1.090846
H98	H	-0.247616	-1.287665	1.128456
O99	O	-0.935046	-1.247454	0.275858
H100	H	-0.968946	-1.282652	0.240755
H101	H	-0.416465	-0.999931	0.806235
O102	O	-0.427387	-0.556813	0.536131
H103	H	-0.420614	-0.492478	0.527667
O104	O	-0.427369	-0.728394	0.536126
H105	H	-0.455398	-0.685824	0.571220
O106	O	-0.427071	-0.986594	0.966910
H107	H	-0.420299	-0.995114	1.031248
O108	O	-0.179212	-1.298014	0.967029
H109	H	-0.185949	-1.289512	1.031361
O110	O	-0.179263	-1.298004	0.795447
H111	H	-0.151263	-1.333184	0.838031
