data_functionalizedCrystal
_audit_creation_method	'MofGen! by Chris Wilmer'
_symmetry_space_group_name_H-M	'P1'
_symmetry_Int_Tables_number	1
_symmetry_cell_setting	triclinic
loop_
_symmetry_equiv_pos_as_xyz
  x,y,z
_cell_length_a	6.394989
_cell_length_b	8.559649
_cell_length_c	7.088929
_cell_angle_alpha	95.344185
_cell_angle_beta	83.614363
_cell_angle_gamma	78.138188
loop_
_atom_site_label
_atom_site_type_symbol
_atom_site_fract_x
_atom_site_fract_y
_atom_site_fract_z
O1	O	-2.705644	-0.276866	-0.158957
O2	O	-2.205644	0.223134	0.341043
O3	O	-2.095406	-0.290011	-0.158965
O4	O	-1.595406	0.209989	0.341035
O5	O	-2.454288	-0.051919	-0.158958
O6	O	-1.954288	0.448081	0.341042
O7	O	-2.346762	-0.514958	-0.158964
O8	O	-1.846762	-0.014958	0.341036
O9	O	-2.502260	-0.020027	0.159018
O10	O	-2.002260	0.479973	0.659018
O11	O	-2.143378	-0.258119	0.159011
O12	O	-1.643378	0.241881	0.659011
O13	O	-2.753617	-0.244973	0.159019
O14	O	-2.253617	0.255027	0.659019
Cu15	Cu	-2.452878	-0.248634	0.188049
Cu16	Cu	-1.952878	0.251366	0.688049
Cu17	Cu	-2.396144	-0.286351	-0.187995
Cu18	Cu	-1.896144	0.213649	0.312005
O19	O	-2.394735	-0.483066	0.159012
O20	O	-1.894735	0.016934	0.659012
C21	C	-2.486422	0.023393	0.000026
C22	C	-1.986422	0.523393	0.500026
C23	C	-2.510676	0.200283	0.000016
C24	C	-2.010676	0.700283	0.500016
C25	C	-2.362600	-0.558378	0.000024
C26	C	-1.862600	-0.058378	0.500024
C27	C	-2.338344	-0.735270	0.000022
C28	C	-1.838344	-0.235270	0.500022
N29	N	-2.492796	-0.222106	0.452538
N30	N	-1.992796	0.277894	0.952538
C31	C	-2.041989	-0.271465	0.000033
C32	C	-1.541989	0.228535	0.500033
C33	C	-1.807029	-0.263521	0.000041
C34	C	-1.307029	0.236479	0.500041
N35	N	-2.356244	-0.312867	-0.452483
N36	N	-1.856244	0.187133	0.047517
H37	H	-2.172248	0.184579	0.000026
H38	H	-1.672248	0.684579	0.500026
Cl39	Cl	-2.767143	0.324038	0.000044
Cl40	Cl	-2.267143	0.824038	0.500044
H41	H	-2.214726	-0.406922	0.465868
H42	H	-1.714726	0.093078	0.965868
H43	H	-2.634338	-0.128056	0.534196
H44	H	-2.134338	0.371944	1.034196
