data_functionalizedCrystal
_audit_creation_method	'MofGen! by Chris Wilmer'
_symmetry_space_group_name_H-M	'P1'
_symmetry_Int_Tables_number	1
_symmetry_cell_setting	triclinic
loop_
_symmetry_equiv_pos_as_xyz
  x,y,z
_cell_length_a	13.032831
_cell_length_b	12.759400
_cell_length_c	13.032268
_cell_angle_alpha	82.849813
_cell_angle_beta	89.113023
_cell_angle_gamma	82.819639
loop_
_atom_site_label
_atom_site_type_symbol
_atom_site_fract_x
_atom_site_fract_y
_atom_site_fract_z
Zn1	Zn	1.498516	-0.709532	0.780845
Zn2	Zn	1.520267	-0.866067	0.608867
Zn3	Zn	1.348373	-0.665643	0.587085
Zn4	Zn	1.326515	-0.860387	0.758992
O5	O	1.423418	-0.775407	0.683947
O6	O	1.645323	-0.751042	0.776293
O7	O	1.515715	-0.823490	0.462060
O8	O	1.368334	-0.524453	0.612817
O9	O	1.661303	-0.866048	0.649941
O10	O	1.478644	-0.556699	0.755172
O11	O	1.389425	-0.676239	0.446057
O12	O	1.201551	-0.670731	0.591628
O13	O	1.331081	-0.856366	0.905808
O14	O	1.185493	-0.813808	0.717927
O15	O	1.457450	-0.745534	0.921863
O16	O	1.494520	-1.012325	0.628751
O17	O	1.352172	-1.008152	0.739048
C18	C	1.156205	-0.736891	0.650043
C19	C	1.041887	-0.720442	0.635563
C20	C	0.983014	-0.783992	0.691504
C21	C	0.864860	-0.766993	0.676540
C22	C	1.423359	-1.048363	0.683918
C23	C	1.423424	-1.165153	0.683952
C24	C	1.497609	-1.222171	0.626602
C25	C	1.497668	-1.331908	0.626642
C26	C	1.349348	-1.327596	0.741382
C27	C	1.349295	-1.217863	0.741348
C28	C	1.571738	-1.169461	0.569206
C29	C	1.645929	-1.226480	0.511852
C30	C	1.645988	-1.336216	0.511891
C31	C	1.571857	-1.388934	0.569286
C32	C	1.691674	-0.814074	0.717984
C33	C	1.805989	-0.830552	0.732489
C34	C	1.389401	-0.805212	0.952195
C35	C	1.374905	-0.817913	1.066506
C36	C	1.423501	-0.501392	0.684002
C37	C	1.423537	-0.384623	0.684026
C38	C	1.457361	-0.745651	0.416751
C39	C	1.472056	-0.732683	0.302465
C40	C	1.430967	-0.768738	1.125413
C41	C	1.415986	-0.781864	1.243560
H42	H	1.004816	-0.653445	0.576595
C43	C	0.856047	-0.921067	0.812163
C44	C	0.935579	-1.009067	0.776749
C45	C	0.985636	-1.099580	0.856422
C46	C	0.956161	-1.102094	0.971509
C47	C	0.876624	-1.014091	1.006929
C48	C	0.826567	-0.923577	0.927256
H49	H	0.957402	-1.007209	0.691550
H50	H	1.044514	-1.164726	0.830201
H51	H	0.993216	-1.169098	1.030487
H52	H	0.854801	-1.015949	1.092128
H53	H	0.767689	-0.858432	0.953477
H54	H	1.706289	-1.183553	0.465129
C55	C	1.727597	-1.398941	0.448810
C56	C	1.809135	-1.340957	0.385683
C57	C	1.890745	-1.403678	0.322597
C58	C	1.890818	-1.524382	0.322637
C59	C	1.809277	-1.582372	0.385767
C60	C	1.727667	-1.519652	0.448853
H61	H	1.809084	-1.251599	0.385651
H62	H	1.951107	-1.360749	0.275864
H63	H	1.951230	-1.570812	0.275937
H64	H	1.809327	-1.671731	0.385799
H65	H	1.667305	-1.562580	0.495586
C66	C	1.267804	-1.385581	0.804506
C67	C	1.267859	-1.506283	0.804542
C68	C	1.186310	-1.564266	0.867664
C69	C	1.104707	-1.501547	0.930750
C70	C	1.104649	-1.380839	0.930717
C71	C	1.186197	-1.322856	0.867595
H72	H	1.328269	-1.552717	0.757839
H73	H	1.186354	-1.653622	0.867688
H74	H	1.044340	-1.544469	0.977477
H75	H	1.044238	-1.334404	0.977419
H76	H	1.186154	-1.233499	0.867570
H77	H	1.356888	-0.833678	1.280589
C78	C	1.510793	-0.698733	1.075391
C79	C	1.500591	-0.579712	1.089018
C80	C	1.580419	-0.509704	1.038998
C81	C	1.670449	-0.558718	0.975352
C82	C	1.680655	-0.677745	0.961723
C83	C	1.600827	-0.747752	1.011743
H84	H	1.433943	-0.543424	1.136134
H85	H	1.572864	-0.421592	1.049088
H86	H	1.729543	-0.506894	0.938325
H87	H	1.747304	-0.714033	0.914606
H88	H	1.608383	-0.835864	1.001653
C89	C	1.267691	-1.155130	0.804427
C90	C	1.192611	-1.063184	0.749530
C91	C	1.111009	-1.000449	0.812614
C92	C	1.104487	-1.029660	0.930593
C93	C	1.179569	-1.121610	0.985496
C94	C	1.261171	-1.184345	0.922413
H95	H	1.197437	-1.041556	0.662189
H96	H	1.055428	-0.932381	0.771971
H97	H	1.044080	-0.983220	0.977292
H98	H	1.174743	-1.143238	1.072837
H99	H	1.316752	-1.252413	0.963056
H100	H	1.571918	-1.478291	0.569323
C101	C	1.551889	-0.662672	1.252455
C102	C	1.541686	-0.543653	1.266088
C103	C	1.621517	-0.473644	1.216079
C104	C	1.711551	-0.522654	1.152436
C105	C	1.721758	-0.641679	1.138800
C106	C	1.641927	-0.711688	1.188810
H107	H	1.475033	-0.507367	1.313203
H108	H	1.613961	-0.385533	1.226173
H109	H	1.770647	-0.470829	1.115416
H110	H	1.788411	-0.677965	1.091686
H111	H	1.649483	-0.799799	1.178715
C112	C	1.295078	-0.887919	1.116525
C113	C	1.330318	-0.984970	1.196044
C114	C	1.250489	-1.054978	1.246060
C115	C	1.135420	-1.027935	1.216558
C116	C	1.100174	-0.930879	1.137035
C117	C	1.180003	-0.860871	1.087019
H118	H	1.415504	-1.004994	1.217887
H119	H	1.276581	-1.126825	1.304928
H120	H	1.076325	-1.079759	1.253582
H121	H	1.014988	-0.910856	1.115192
H122	H	1.153911	-0.789024	1.028151
H123	H	1.020083	-0.850982	0.750480
H124	H	0.827794	-0.699991	0.617568
H125	H	1.571696	-1.080107	0.569164
