data_functionalizedCrystal
_audit_creation_method	'MofGen! by Chris Wilmer'
_symmetry_space_group_name_H-M	'P1'
_symmetry_Int_Tables_number	1
_symmetry_cell_setting	triclinic
loop_
_symmetry_equiv_pos_as_xyz
  x,y,z
_cell_length_a	12.759401
_cell_length_b	18.050590
_cell_length_c	12.759393
_cell_angle_alpha	90.034679
_cell_angle_beta	90.020938
_cell_angle_gamma	90.020077
loop_
_atom_site_label
_atom_site_type_symbol
_atom_site_fract_x
_atom_site_fract_y
_atom_site_fract_z
Zn1	Zn	1.606238	-0.295593	0.593990
Zn2	Zn	1.606118	-0.419801	0.418297
Zn3	Zn	1.430537	-0.295633	0.418325
Zn4	Zn	1.430517	-0.419749	0.593934
O5	O	1.518352	-0.357694	0.506136
O6	O	1.753243	-0.312075	0.570695
O7	O	1.582784	-0.403368	0.271279
O8	O	1.453903	-0.191703	0.441662
O9	O	1.753155	-0.403330	0.441614
O10	O	1.582990	-0.191674	0.570722
O11	O	1.453786	-0.312142	0.271300
O12	O	1.283513	-0.312092	0.441608
O13	O	1.453869	-0.403241	0.740963
O14	O	1.283499	-0.403280	0.570628
O15	O	1.582971	-0.312025	0.741003
O16	O	1.582765	-0.523719	0.441561
O17	O	1.453752	-0.523681	0.570601
C18	C	1.245385	-0.357685	0.506115
C19	C	1.128608	-0.357699	0.506131
C20	C	1.073766	-0.405253	0.573206
C21	C	0.964042	-0.405256	0.573227
C22	C	0.964012	-0.310149	0.439089
C23	C	1.073734	-0.310143	0.439075
C24	C	0.814144	-0.431904	0.697085
C25	C	0.759298	-0.479469	0.764150
C26	C	0.794889	-0.551945	0.780090
C27	C	0.885324	-0.576870	0.728950
C28	C	0.940164	-0.529309	0.661877
C29	C	0.904575	-0.456822	0.645956
C30	C	1.223635	-0.283503	0.315215
C31	C	1.278477	-0.235944	0.248136
C32	C	1.242888	-0.163467	0.232185
C33	C	1.152450	-0.138545	0.283307
C34	C	1.097608	-0.186103	0.350386
C35	C	1.133204	-0.258579	0.366339
C36	C	1.518272	-0.550646	0.506094
C37	C	1.518333	-0.633192	0.506112
C38	C	1.588636	-0.832636	0.436038
C39	C	1.614306	-0.881961	0.531925
C40	C	1.518393	-0.784322	0.506154
C41	C	1.492831	-0.882079	0.410310
C42	C	1.518452	-0.930307	0.506186
C43	C	1.544111	-0.832560	0.602091
C44	C	1.422592	-0.832674	0.480411
C45	C	1.448224	-0.881976	0.576364
C46	C	1.518361	-0.700224	0.506134
C47	C	1.518484	-1.014404	0.506216
C48	C	1.792386	-0.357704	0.506158
C49	C	1.909162	-0.357708	0.506167
C50	C	1.518431	-0.357623	0.780170
C51	C	1.518465	-0.357592	0.896947
C52	C	1.518462	-0.163989	0.506201
C53	C	1.518509	-0.081443	0.506229
C54	C	1.518335	-0.357712	0.233169
C55	C	1.518505	-0.357533	0.116393
C56	C	1.585693	-0.310088	0.951831
C57	C	1.585711	-0.310056	1.061556
C58	C	1.451269	-0.405039	1.061500
C59	C	1.451247	-0.405067	0.951778
C60	C	1.623331	-0.222435	1.211543
C61	C	1.690576	-0.174938	1.266431
C62	C	1.793089	-0.163549	1.230841
C63	C	1.828380	-0.199670	1.140364
C64	C	1.761141	-0.247173	1.085481
C65	C	1.658612	-0.258547	1.121070
C66	C	1.413637	-0.492689	0.801789
C67	C	1.346403	-0.540196	0.746904
C68	C	1.243887	-0.551592	0.782492
C69	C	1.208601	-0.515485	0.872973
C70	C	1.275835	-0.467977	0.927858
C71	C	1.378350	-0.456580	0.892262
H72	H	1.118442	-0.443974	0.627811
H73	H	1.661833	-0.145528	1.340098
H74	H	1.252626	-0.342518	0.328207
H75	H	1.539854	-0.231697	1.240524
Br76	Br	1.749385	-0.918029	0.568273
Br77	Br	1.687671	-0.796524	0.337307
H78	H	1.471186	-0.903830	0.329242
Br79	Br	0.765849	-0.333533	0.675477
Br80	Br	1.580360	-0.796466	0.737246
H81	H	1.388847	-0.903504	0.635741
H82	H	1.396545	-0.443693	1.106158
Br83	Br	1.287546	-0.796563	0.444046
Br84	Br	1.104135	-0.040183	0.261650
Br85	Br	1.676914	-0.245658	0.877420
Br86	Br	1.809024	-0.296194	0.962701
H87	H	0.919320	-0.271431	0.384493
Br88	Br	0.933608	-0.675242	0.750568
H89	H	1.911861	-0.190399	1.111399
H90	H	1.189149	-0.590283	0.737800
Br91	Br	1.227947	-0.418973	1.050655
H92	H	0.750226	-0.590673	0.834698
Br93	Br	1.069471	-0.530952	0.921282
Br94	Br	0.636571	-0.445643	0.833555
H95	H	1.013794	-0.549602	0.620239
Br96	Br	1.394297	-0.589210	0.624117
H97	H	1.023973	-0.165803	0.392020
H98	H	1.847840	-0.124875	1.275539
Br99	Br	1.317306	-0.098929	0.141129
Br100	Br	1.401203	-0.269774	0.178735
Br101	Br	1.552757	-0.477198	0.753457
