data_functionalizedCrystal
_audit_creation_method	'MofGen! by Chris Wilmer'
_symmetry_space_group_name_H-M	'P1'
_symmetry_Int_Tables_number	1
_symmetry_cell_setting	triclinic
loop_
_symmetry_equiv_pos_as_xyz
  x,y,z
_cell_length_a	23.096457
_cell_length_b	14.560432
_cell_length_c	23.096457
_cell_angle_alpha	59.998832
_cell_angle_beta	90.003973
_cell_angle_gamma	59.999119
loop_
_atom_site_label
_atom_site_type_symbol
_atom_site_fract_x
_atom_site_fract_y
_atom_site_fract_z
Zr1	Zr	0.557749	1.005310	-0.075993
O2	O	0.465284	1.196933	-0.168444
O3	O	0.586095	0.813703	-0.047654
O4	O	0.586073	1.005336	-0.168451
O5	O	0.465323	1.005275	0.047643
O6	O	0.681353	1.005338	-0.168455
O7	O	0.465306	1.005300	-0.047647
O8	O	0.681393	0.662542	0.047630
O9	O	0.465283	1.348071	-0.168442
O10	O	0.669291	0.892510	-0.035568
O11	O	0.598197	0.892489	0.035548
O12	O	0.598171	1.118112	-0.106675
O13	O	0.527077	1.118091	-0.035559
Zr14	Zr	0.709738	1.005273	0.075977
Zr15	Zr	0.709711	1.005314	-0.075999
Zr16	Zr	0.557777	1.005269	0.075982
Zr17	Zr	0.557749	1.246358	-0.075990
Zr18	Zr	0.709739	0.764226	0.075973
O19	O	0.681392	1.196881	0.047637
O20	O	0.681353	1.196939	-0.168452
O21	O	0.465323	1.196875	0.047645
O22	O	0.802204	0.813650	0.168427
O23	O	0.802164	0.813708	-0.047662
O24	O	0.586135	0.813645	0.168435
O25	O	0.802164	1.005309	-0.047659
O26	O	0.681415	1.005248	0.168435
O27	O	0.586134	1.005245	0.168438
O28	O	0.802182	1.005284	0.047630
O29	O	0.586072	1.348075	-0.168446
O30	O	0.681415	0.662509	0.168430
O31	O	0.802204	0.662512	0.168425
O32	O	0.802182	0.662545	0.047625
O33	O	0.465305	1.348039	-0.047642
O34	O	0.586094	1.348042	-0.047646
O35	O	0.669317	0.892472	0.106659
O36	O	0.740410	0.892493	0.035543
O37	O	0.669290	1.118095	-0.035565
O38	O	0.598197	1.118074	0.035551
C39	C	0.633744	0.703778	-0.000013
C40	C	0.633744	0.601447	-0.000014
C41	C	0.707960	0.601463	-0.074267
C42	C	0.745064	0.553399	-0.111394
C43	C	0.745062	0.457250	-0.111393
C44	C	0.707954	0.409159	-0.074258
C45	C	0.670849	0.457223	-0.037131
C46	C	0.670854	0.553377	-0.037138
C47	C	0.596639	0.457200	0.037125
C48	C	0.596636	0.553356	0.037120
C49	C	0.559530	0.409109	0.074260
C50	C	0.522421	0.457180	0.111384
C51	C	0.522424	0.553336	0.111380
C52	C	0.559531	0.601420	0.074248
C53	C	0.443663	1.005287	-0.000001
C54	C	0.379152	1.005285	0.000001
C55	C	0.385970	0.887527	0.037112
C56	C	0.325355	0.887525	0.037115
C57	C	0.257921	1.005288	-0.000007
C58	C	0.251106	1.123062	-0.037119
C59	C	0.311721	1.123061	-0.037115
N60	N	0.135114	1.092955	-0.060421
N61	N	0.077535	1.092948	-0.060424
C62	C	0.075289	1.005300	-0.000019
N63	N	0.132803	0.917638	0.060387
N64	N	0.190389	0.917641	0.060388
C65	C	0.192190	1.005303	-0.000015
C66	C	0.016383	0.887531	0.037098
C67	C	-0.044235	0.887534	0.037103
C68	C	-0.118484	1.123075	-0.037137
C69	C	-0.057866	1.123069	-0.037135
C70	C	0.009565	1.005293	-0.000019
C71	C	0.823824	1.005297	-0.000015
C72	C	0.888336	1.005299	-0.000018
C73	C	0.633709	1.005343	-0.190106
C74	C	0.633697	1.005360	-0.254624
C75	C	0.633743	1.306806	-0.000004
C76	C	0.633743	1.409137	-0.000002
C77	C	0.686190	1.005364	-0.284919
C78	C	0.686206	1.005338	-0.345527
C79	C	0.633718	1.005334	-0.375845
C80	C	0.581221	1.005323	-0.345540
C81	C	0.581211	1.005336	-0.284929
N82	N	0.571482	1.078847	-0.494200
N83	N	0.571494	1.078837	-0.551779
C84	C	0.633747	1.005291	-0.558461
N85	N	0.695991	0.931771	-0.505394
N86	N	0.695978	0.931787	-0.447812
C87	C	0.633724	1.005318	-0.441567
C88	C	0.686261	1.005264	-0.654473
C89	C	0.686278	1.005230	-0.715080
C90	C	0.581287	1.005228	-0.715095
C91	C	0.581277	1.005249	-0.654486
C92	C	0.633763	1.005273	-0.624181
C93	C	0.633778	1.005241	0.190090
C94	C	0.633790	1.005223	0.254607
C95	C	0.823825	0.703783	-0.000020
C96	C	0.888336	0.601454	-0.000024
C97	C	0.633779	0.703727	0.190085
C98	C	0.633791	0.601379	0.254601
C99	C	0.823859	0.703732	0.190078
C100	C	0.888383	0.601385	0.254592
C101	C	0.443628	1.306852	-0.190095
C102	C	0.379105	1.409198	-0.254608
C103	C	0.443663	1.306801	0.000003
C104	C	0.379151	1.409130	0.000007
C105	C	0.633709	1.306857	-0.190102
C106	C	0.633697	1.409205	-0.254618
C107	C	0.881508	0.553408	-0.037151
C108	C	0.942118	0.457272	-0.037169
C109	C	1.009555	0.409177	-0.000055
C110	C	1.016382	0.457233	0.037074
C111	C	0.955773	0.553373	0.037087
C112	C	0.670920	0.553306	0.322024
C113	C	0.670929	0.457152	0.382650
C114	C	0.633811	0.409066	0.375851
C115	C	0.596678	0.457149	0.308421
C116	C	0.596665	0.553307	0.247797
C117	C	0.955800	0.553333	0.247766
C118	C	1.016432	0.457181	0.308378
C119	C	1.009646	0.409076	0.375814
C120	C	0.942221	0.457138	0.382639
C121	C	0.881590	0.553295	0.322028
C122	C	0.311688	1.457262	-0.247783
C123	C	0.251055	1.553444	-0.308395
C124	C	0.257842	1.601554	-0.375831
C125	C	0.325266	1.553486	-0.382655
C126	C	0.385897	1.457313	-0.322044
C127	C	0.385980	1.457186	0.037128
C128	C	0.325370	1.553348	0.037129
C129	C	0.257933	1.601447	0.000013
C130	C	0.251106	1.553387	-0.037113
C131	C	0.311715	1.457232	-0.037117
C132	C	0.670821	1.457260	-0.247796
C133	C	0.670824	1.553415	-0.308410
C134	C	0.633698	1.601519	-0.375845
C135	C	0.596572	1.553454	-0.382665
C136	C	0.596574	1.457295	-0.322052
H137	H	0.707958	0.679764	-0.074279
H138	H	0.071289	0.791631	0.067335
H139	H	0.306145	1.418108	-0.067344
H140	H	1.058901	0.330892	-0.000071
H141	H	0.729027	1.005224	-0.739744
N142	N	0.178341	1.605249	-0.301022
H143	H	0.140956	1.673478	-0.349648
H144	H	0.172736	1.645038	-0.274202
N145	N	0.524680	1.005208	-0.747784
H146	H	0.476479	1.085290	-0.762489
H147	H	0.527046	0.925066	-0.711953
N148	N	0.192439	1.705272	-0.441197
H149	H	0.192399	1.671821	-0.470375
H150	H	0.192433	1.785041	-0.470323
N151	N	-0.065214	1.250080	-0.077174
H152	H	-0.091991	1.301565	-0.057707
H153	H	-0.091976	1.301462	-0.129093
H154	H	-0.038677	0.791637	0.067328
N155	N	0.332692	0.760517	0.077136
H156	H	0.359474	0.709004	0.129067
H157	H	0.359442	0.709153	0.057601
N158	N	0.785079	0.405395	-0.151433
H159	H	0.837009	0.365495	-0.131972
H160	H	0.765540	0.478819	-0.203354
H161	H	0.936545	0.418157	-0.067403
H162	H	0.330942	1.592463	0.067364
H163	H	0.729001	1.005278	-0.629796
N164	N	0.710869	1.405376	-0.175065
H165	H	0.691408	1.478727	-0.169381
H166	H	0.762786	1.365459	-0.169436
N167	N	0.482398	0.405320	0.151431
H168	H	0.501881	0.365421	0.203357
H169	H	0.488042	0.337161	0.145747
H170	H	0.701055	1.592539	-0.302843
N171	N	0.808877	0.605112	0.329395
H172	H	0.813785	0.560037	0.381314
H173	H	0.782109	0.588370	0.305868
N174	N	0.633706	1.705221	-0.441217
H175	H	0.662861	1.728356	-0.426657
H176	H	0.583415	1.784956	-0.470372
N177	N	0.458708	1.405339	0.077159
H178	H	0.485503	1.422080	0.043109
H179	H	0.485466	1.308830	0.114518
H180	H	0.196197	1.218946	-0.067343
H181	H	0.701170	0.418015	0.437548
H182	H	0.566340	1.418179	-0.327616
N183	N	0.556530	1.605344	-0.455400
H184	H	0.562164	1.673555	-0.492757
H185	H	0.504620	1.645179	-0.461018
H186	H	0.538530	1.005254	-0.629820
H187	H	0.196190	1.592563	-0.067331
N188	N	0.785082	0.605274	-0.151450
H189	H	0.779452	0.673484	-0.145823
H190	H	0.765571	0.645105	-0.203358
H191	H	0.306164	1.218957	-0.067333
N192	N	-0.191210	1.250091	-0.077169
H193	H	-0.218021	1.255356	-0.114527
H194	H	-0.186270	1.324620	-0.100636
H195	H	0.961343	0.592480	0.067324
H196	H	0.566433	0.592435	0.192900
H197	H	0.728929	1.005379	-0.260245
N198	N	0.742826	1.005337	-0.378212
H199	H	0.776075	1.005351	-0.349815
H200	H	0.719864	1.085421	-0.428610
N201	N	1.089147	0.405332	0.301006
H202	H	1.126532	0.337117	0.349631
H203	H	1.094755	0.478771	0.274188
H204	H	0.961339	0.592486	0.192862
H205	H	0.538464	1.005333	-0.260262
H206	H	0.707963	0.330858	-0.074253
H207	H	0.208586	1.679742	0.000023
N208	N	0.482410	0.605163	0.151431
H209	H	0.458906	0.560103	0.174955
H210	H	0.445084	0.701690	0.117354
H211	H	0.826602	0.592566	-0.067382
H212	H	1.071298	0.418060	0.067290
H213	H	0.330784	1.592670	-0.437569
H214	H	0.559535	0.330814	0.074262
H215	H	0.633827	0.330768	0.425220
N216	N	0.559530	0.705131	0.074240
H217	H	0.588668	0.728299	0.045083
H218	H	0.580653	0.671579	0.124532
H219	H	0.701145	0.592446	0.327574
H220	H	0.566458	0.417983	0.302895
H221	H	1.059021	0.330779	0.425162
H222	H	0.440872	0.791624	0.067330
N223	N	0.524612	1.005308	-0.378232
H224	H	0.532582	1.005303	-0.421228
H225	H	0.476439	1.085394	-0.392890
H226	H	0.936706	0.417957	0.437553
H227	H	0.306148	1.418096	-0.192878
N228	N	0.458611	1.405472	-0.329411
H229	H	0.453703	1.450547	-0.381330
H230	H	0.485378	1.308950	-0.305888
