data_functionalizedCrystal
_audit_creation_method	'MofGen! by Chris Wilmer'
_symmetry_space_group_name_H-M	'P1'
_symmetry_Int_Tables_number	1
_symmetry_cell_setting	triclinic
loop_
_symmetry_equiv_pos_as_xyz
  x,y,z
_cell_length_a	25.639240
_cell_length_b	21.395362
_cell_length_c	21.395355
_cell_angle_alpha	90.043940
_cell_angle_beta	89.973484
_cell_angle_gamma	89.951367
loop_
_atom_site_label
_atom_site_type_symbol
_atom_site_fract_x
_atom_site_fract_y
_atom_site_fract_z
Zn1	Zn	-0.207990	-0.957851	-0.354551
Zn2	Zn	0.292010	-0.457851	0.145449
Zn3	Zn	-0.295409	-0.957749	-0.249759
Zn4	Zn	0.204591	-0.457749	0.250241
Zn5	Zn	-0.208014	-0.853066	-0.249752
Zn6	Zn	0.291986	-0.353066	0.250248
Zn7	Zn	-0.295420	-0.853031	-0.354463
Zn8	Zn	0.204580	-0.353031	0.145537
O9	O	-0.251708	-0.905424	-0.302131
O10	O	0.248292	-0.405424	0.197869
O11	O	-0.219571	-1.045515	-0.340689
O12	O	0.280429	-0.545515	0.159311
O13	O	-0.283822	-0.943835	-0.162080
O14	O	0.216178	-0.443835	0.337920
O15	O	-0.134846	-0.867022	-0.263688
O16	O	0.365154	-0.367022	0.236312
O17	O	-0.283798	-1.045441	-0.263699
O18	O	0.216202	-0.545441	0.236301
O19	O	-0.134828	-0.944007	-0.340683
O20	O	0.365172	-0.444007	0.159317
O21	O	-0.219613	-0.866924	-0.162075
O22	O	0.280387	-0.366924	0.337925
O23	O	-0.219623	-0.765383	-0.263603
O24	O	0.280377	-0.265383	0.236397
O25	O	-0.283817	-0.866963	-0.442153
O26	O	0.216183	-0.366963	0.057847
O27	O	-0.283840	-0.765358	-0.340534
O28	O	0.216160	-0.265358	0.159466
O29	O	-0.219582	-0.943974	-0.442217
O30	O	0.280418	-0.443974	0.057783
O31	O	-0.368576	-0.943801	-0.263614
O32	O	0.131424	-0.443801	0.236386
O33	O	-0.368584	-0.866865	-0.340540
O34	O	0.131416	-0.366865	0.159460
C35	C	-0.251736	-0.742636	-0.302059
C36	C	0.248264	-0.242636	0.197941
C37	C	-0.251760	-0.672995	-0.302042
C38	C	0.248240	-0.172995	0.197958
C39	C	-0.387551	-0.905336	-0.302082
C40	C	0.112449	-0.405336	0.197918
C41	C	-0.445665	-0.905355	-0.302082
C42	C	0.054335	-0.405355	0.197918
C43	C	-0.251698	-0.905476	-0.465555
C44	C	0.248302	-0.405476	0.034445
C45	C	-0.251693	-0.905498	-0.535196
C46	C	0.248307	-0.405498	-0.035196
C47	C	-0.805980	-0.945530	-0.342295
C48	C	-0.305980	-0.445530	0.157705
C49	C	-0.860585	-0.945549	-0.342308
C50	C	-0.360585	-0.445549	0.157692
O51	O	-0.888781	-0.979602	-0.376448
O52	O	-0.388781	-0.479602	0.123552
N53	N	-0.887947	-0.905511	-0.302192
N54	N	-0.387947	-0.405511	0.197808
C55	C	-0.860703	-0.865448	-0.262065
C56	C	-0.360703	-0.365448	0.237935
O57	O	-0.888991	-0.831394	-0.227945
O58	O	-0.388991	-0.331394	0.272055
C59	C	-0.806100	-0.865427	-0.262056
C60	C	-0.306100	-0.365427	0.237944
C61	C	-0.778740	-0.905471	-0.302170
C62	C	-0.278740	-0.405471	0.197830
C63	C	-0.778620	-0.985571	-0.382406
C64	C	-0.278620	-0.485571	0.117594
C65	C	-0.724020	-0.985553	-0.382392
C66	C	-0.224020	-0.485553	0.117608
C67	C	-0.696779	-0.945495	-0.342267
C68	C	-0.196779	-0.445495	0.157733
C69	C	-0.724139	-0.905454	-0.302156
C70	C	-0.224139	-0.405454	0.197844
C71	C	-0.778857	-0.825361	-0.221933
C72	C	-0.278857	-0.325361	0.278067
C73	C	-0.724250	-0.825343	-0.221928
C74	C	-0.224250	-0.325343	0.278072
C75	C	-0.696890	-0.865387	-0.262042
C76	C	-0.196890	-0.365387	0.237958
C77	C	-0.642298	-0.865377	-0.262018
C78	C	-0.142298	-0.365377	0.237982
N79	N	-0.614935	-0.905415	-0.302133
N80	N	-0.114935	-0.405415	0.197867
C81	C	-0.642176	-0.945473	-0.342258
C82	C	-0.142176	-0.445473	0.157742
C83	C	-0.975374	-0.865495	-0.262088
C84	C	-0.475374	-0.365495	0.237912
C85	C	-1.029976	-0.865518	-0.262094
C86	C	-0.529976	-0.365518	0.237906
C87	C	-1.029854	-0.945619	-0.342337
C88	C	-0.529854	-0.445619	0.157663
C89	C	-0.975250	-0.945597	-0.342328
C90	C	-0.475250	-0.445597	0.157672
C91	C	-0.948011	-0.905532	-0.302204
C92	C	-0.448011	-0.405532	0.197796
C93	C	-0.527511	-0.945433	-0.342226
C94	C	-0.027511	-0.445433	0.157774
C95	C	-0.472905	-0.945414	-0.342207
C96	C	0.027095	-0.445414	0.157793
C97	C	-0.473033	-0.865312	-0.261966
C98	C	0.026967	-0.365312	0.238034
C99	C	-0.527633	-0.865333	-0.261983
C100	C	-0.027633	-0.365333	0.238017
C101	C	-0.554871	-0.905396	-0.302118
C102	C	-0.054871	-0.405396	0.197882
O103	O	-0.614067	-0.831340	-0.227897
O104	O	-0.114067	-0.331340	0.272103
O105	O	-0.613881	-0.979516	-0.376378
O106	O	-0.113881	-0.479516	0.123622
C107	C	-0.115335	-0.905530	-0.302194
C108	C	0.384665	-0.405530	0.197806
C109	C	-0.057221	-0.905575	-0.302221
C110	C	0.442779	-0.405575	0.197779
C111	C	-0.251681	-1.068847	-0.302205
C112	C	0.248319	-0.568847	0.197795
C113	C	-0.251669	-1.138489	-0.302236
C114	C	0.248331	-0.638489	0.197764
C115	C	-0.285243	-0.640285	-0.342040
C116	C	0.214757	-0.140285	0.157960
C117	C	-0.285230	-0.574850	-0.342068
C118	C	0.214770	-0.074850	0.157932
C119	C	-0.251740	-0.542127	-0.302087
C120	C	0.248260	-0.042127	0.197913
C121	C	-0.218252	-0.574845	-0.262086
C122	C	0.281748	-0.074845	0.237914
C123	C	-0.218262	-0.640279	-0.262064
C124	C	0.281738	-0.140279	0.237936
C125	C	-0.247528	-0.438402	-0.245682
C126	C	0.252472	0.061598	0.254318
C127	C	-0.247522	-0.372969	-0.245704
C128	C	0.252478	0.127031	0.254296
C129	C	-0.251706	-0.340306	-0.302156
C130	C	0.248294	0.159694	0.197844
C131	C	-0.255908	-0.373084	-0.358589
C132	C	0.244092	0.126916	0.141411
C133	C	-0.255918	-0.438518	-0.358567
C134	C	0.244082	0.061482	0.141433
C135	C	-0.251725	-0.471174	-0.302107
C136	C	0.248275	0.028826	0.197893
C137	C	-0.285176	-0.236644	-0.342188
C138	C	0.214824	0.263356	0.157812
C139	C	-0.285160	-0.171207	-0.342217
C140	C	0.214840	0.328793	0.157783
C141	C	-0.218184	-0.171203	-0.262229
C142	C	0.281816	0.328797	0.237771
C143	C	-0.218198	-0.236639	-0.262206
C144	C	0.281802	0.263361	0.237794
C145	C	-0.251697	-0.269355	-0.302184
C146	C	0.248303	0.230645	0.197816
C147	C	-0.218245	-0.945596	-0.567943
C148	C	0.281755	-0.445596	-0.067943
C149	C	-0.218222	-0.945595	-0.633379
C150	C	0.281778	-0.445595	-0.133379
C151	C	-0.251658	-0.905503	-0.666064
C152	C	0.248342	-0.405503	-0.166064
C153	C	-0.285108	-0.865398	-0.633309
C154	C	0.214892	-0.365398	-0.133309
C155	C	-0.285126	-0.865395	-0.567875
C156	C	0.214874	-0.365395	-0.067875
C157	C	-0.298736	-0.900525	-0.769720
C158	C	0.201264	-0.400525	-0.269720
C159	C	-0.298719	-0.900532	-0.835153
C160	C	0.201281	-0.400532	-0.335153
C161	C	-0.251602	-0.905507	-0.867885
C162	C	0.248398	-0.405507	-0.367885
C163	C	-0.204501	-0.910488	-0.835176
C164	C	0.295499	-0.410488	-0.335176
C165	C	-0.204519	-0.910486	-0.769742
C166	C	0.295481	-0.410486	-0.269742
C167	C	-0.251642	-0.905501	-0.737017
C168	C	0.248358	-0.405501	-0.237017
C169	C	-0.218127	-0.945606	-0.971585
C170	C	0.281873	-0.445606	-0.471585
C171	C	-0.218103	-0.945601	-1.037022
C172	C	0.281897	-0.445601	-0.537022
C173	C	-0.284994	-0.865407	-1.036951
C174	C	0.215006	-0.365407	-0.536951
C175	C	-0.285013	-0.865409	-0.971515
C176	C	0.214987	-0.365409	-0.471515
C177	C	-0.251580	-0.905512	-0.938836
C178	C	0.248420	-0.405512	-0.438836
C179	C	-0.251681	-0.905408	-0.139344
C180	C	0.248319	-0.405408	0.360656
C181	C	-0.251538	-0.905508	-0.069703
C182	C	0.248462	-0.405508	0.430297
H183	H	-0.450631	-0.978025	-0.374873
H184	H	0.049369	-0.478025	0.125127
H185	H	-0.244119	-0.464991	-0.199709
H186	H	0.255881	0.035009	0.300291
N187	N	-0.183941	-0.986561	-1.070485
N188	N	0.316059	-0.486561	-0.570485
N189	N	-0.183927	-0.986557	-1.128907
N190	N	0.316073	-0.486557	-0.628907
H191	H	-0.159800	-1.015486	-1.152542
H192	H	0.340200	-0.515486	-0.652542
H193	H	-0.952977	-0.978205	-0.374993
H194	H	-0.452977	-0.478205	0.125007
H195	H	-0.312253	-0.832760	-0.944852
H196	H	0.187747	-0.332760	-0.444852
N197	N	-0.184081	-0.986544	-0.534567
N198	N	0.315919	-0.486544	-0.034567
N199	N	-0.150774	-0.964522	-0.498049
N200	N	0.349226	-0.464522	0.001951
H201	H	-0.126644	-0.993440	-0.474475
H202	H	0.373356	-0.493440	0.025525
N203	N	-0.260198	-0.339719	-0.416252
N204	N	0.239802	0.160281	0.083748
N205	N	-0.260194	-0.281296	-0.416266
N206	N	0.239806	0.218704	0.083734
H207	H	-0.263230	-0.257729	-0.456988
H208	H	0.236770	0.242271	0.043012
H209	H	-0.312450	-0.263283	-0.374744
H210	H	0.187550	0.236717	0.125256
N211	N	-0.184036	-0.541422	-0.221255
N212	N	0.315964	-0.041422	0.278745
N213	N	-0.150741	-0.504976	-0.243392
N214	N	0.349259	-0.004976	0.256608
H215	H	-0.126572	-0.481372	-0.214556
H216	H	0.373428	0.018628	0.285444
H217	H	-0.244104	-0.346287	-0.199753
H218	H	0.255896	0.153713	0.300247
H219	H	-0.801124	-0.792752	-0.189267
H220	H	-0.301124	-0.292752	0.310733
N221	N	-0.555600	-0.824450	-0.221004
N222	N	-0.055600	-0.324450	0.278996
N223	N	-0.586075	-0.846536	-0.181124
N224	N	-0.086075	-0.346536	0.318876
H225	H	-0.605828	-0.817662	-0.152185
H226	H	-0.105828	-0.317662	0.347815
N227	N	-0.319361	-0.137802	-0.383086
N228	N	0.180639	0.362198	0.116914
N229	N	-0.349264	-0.167024	-0.418776
N230	N	0.150736	0.332976	0.081224
H231	H	-0.373420	-0.143432	-0.447642
H232	H	0.126580	0.356568	0.052358
N233	N	-0.696426	-0.784426	-0.180930
N234	N	-0.196426	-0.284426	0.319070
N235	N	-0.665961	-0.806477	-0.141021
N236	N	-0.165961	-0.306477	0.358979
H237	H	-0.646311	-0.777582	-0.112065
H238	H	-0.146311	-0.277582	0.387935
H239	H	-0.337072	-0.896480	-0.861780
H240	H	0.162928	-0.396480	-0.361780
H241	H	-0.190914	-0.144561	-0.229679
H242	H	0.309086	0.355439	0.270321
N243	N	-1.057676	-0.986544	-0.383329
N244	N	-0.557676	-0.486544	0.116671
N245	N	-1.051527	-1.044359	-0.379250
N246	N	-0.551527	-0.544359	0.120750
H247	H	-1.071176	-1.073263	-0.408198
H248	H	-0.571176	-0.573263	0.091802
N249	N	-0.555328	-0.986369	-0.383210
N250	N	-0.055328	-0.486369	0.116790
N251	N	-0.585767	-1.026320	-0.361221
N252	N	-0.085767	-0.526320	0.138779
H253	H	-0.605413	-1.055234	-0.390162
H254	H	-0.105413	-0.555234	0.109838
H255	H	-0.190995	-0.666911	-0.229493
H256	H	0.309005	-0.166911	0.270507
N257	N	-0.806431	-1.026505	-0.423394
N258	N	-0.306431	-0.526505	0.076606
N259	N	-0.800266	-1.084317	-0.419303
N260	N	-0.300266	-0.584317	0.080697
H261	H	-0.819903	-1.113234	-0.448250
H262	H	-0.319903	-0.613234	0.051750
N263	N	-0.445193	-0.824405	-0.220978
N264	N	0.054807	-0.324405	0.279022
N265	N	-0.396441	-0.824401	-0.220976
N266	N	0.103559	-0.324401	0.279024
H267	H	-0.376777	-0.795510	-0.192030
H268	H	0.123223	-0.295510	0.307970
H269	H	-0.312330	-0.832753	-0.659925
H270	H	0.187670	-0.332753	-0.159925
N271	N	-0.319462	-0.673693	-0.382880
N272	N	0.180538	-0.173693	0.117120
N273	N	-0.349354	-0.644475	-0.418592
N274	N	0.150646	-0.144475	0.081408
H275	H	-0.373522	-0.668069	-0.447436
H276	H	0.126478	-0.168069	0.052564
N277	N	-0.319435	-0.541438	-0.382932
N278	N	0.180565	-0.041438	0.117068
N279	N	-0.349339	-0.570656	-0.418624
N280	N	0.150661	-0.070656	0.081376
H281	H	-0.373497	-0.547061	-0.447484
H282	H	0.126503	-0.047061	0.052516
N283	N	-0.319140	-0.824451	-1.070339
N284	N	0.180860	-0.324451	-0.570339
N285	N	-0.319118	-0.824454	-1.128762
N286	N	0.180882	-0.324454	-0.628762
H287	H	-0.343232	-0.795526	-1.152347
H288	H	0.156768	-0.295526	-0.652347
H289	H	-0.337094	-0.896306	-0.743075
H290	H	0.162906	-0.396306	-0.243075
N291	N	-0.947550	-0.824580	-0.221087
N292	N	-0.447550	-0.324580	0.278913
N293	N	-0.917081	-0.846630	-0.181181
N294	N	-0.417081	-0.346630	0.318819
H295	H	-0.897432	-0.817733	-0.152226
H296	H	-0.397432	-0.317733	0.347774
H297	H	-0.312363	-0.832740	-0.541212
H298	H	0.187637	-0.332740	-0.041212
N299	N	-0.184047	-0.986555	-0.666829
N300	N	0.315953	-0.486555	-0.166829
N301	N	-0.154197	-1.022353	-0.637644
N302	N	0.345803	-0.522353	-0.137644
H303	H	-0.130059	-1.051281	-0.661267
H304	H	0.369941	-0.551281	-0.161267
H305	H	-0.190936	-0.263271	-0.229632
H306	H	0.309064	0.236729	0.270368
N307	N	-0.156406	-0.915574	-0.736340
N308	N	0.343594	-0.415574	-0.236340
N309	N	-0.114339	-0.920019	-0.765565
N310	N	0.385661	-0.420019	-0.265565
H311	H	-0.080358	-0.923611	-0.741975
H312	H	0.419642	-0.423611	-0.241975
H313	H	-0.701746	-1.018159	-0.415058
H314	H	-0.201746	-0.518159	0.084942
N315	N	-0.260210	-0.471990	-0.416212
N316	N	0.239790	0.028010	0.083788
N317	N	-0.263948	-0.442826	-0.466614
N318	N	0.236052	0.057174	0.033386
H319	H	-0.266978	-0.466466	-0.507328
H320	H	0.233022	0.033534	-0.007328
H321	H	-1.052248	-0.832917	-0.229422
H322	H	-0.552248	-0.332917	0.270578
H323	H	-0.166134	-0.914540	-0.861825
H324	H	0.333866	-0.414540	-0.361825
N325	N	-0.183972	-0.986569	-0.938210
N326	N	0.316028	-0.486569	-0.438210
N327	N	-0.154104	-1.022364	-0.967460
N328	N	0.345896	-0.522364	-0.467460
H329	H	-0.129981	-1.051294	-0.943891
H330	H	0.370019	-0.551294	-0.443891
