data_functionalizedCrystal
_audit_creation_method	'MofGen! by Chris Wilmer'
_symmetry_space_group_name_H-M	'P1'
_symmetry_Int_Tables_number	1
_symmetry_cell_setting	triclinic
loop_
_symmetry_equiv_pos_as_xyz
  x,y,z
_cell_length_a	27.440280
_cell_length_b	14.446369
_cell_length_c	14.446369
_cell_angle_alpha	59.995450
_cell_angle_beta	89.994590
_cell_angle_gamma	59.995166
loop_
_atom_site_label
_atom_site_type_symbol
_atom_site_fract_x
_atom_site_fract_y
_atom_site_fract_z
Zr1	Zr	0.469500	1.013161	-0.121559
O2	O	0.391682	1.206303	-0.269372
O3	O	0.493355	0.820035	-0.076240
O4	O	0.493354	1.013165	-0.269370
O5	O	0.391684	1.013165	0.076095
O6	O	0.573556	1.013150	-0.269376
O7	O	0.391683	1.013173	-0.076242
O8	O	0.573558	0.667676	0.076098
O9	O	0.391682	1.358639	-0.269379
O10	O	0.563384	0.899454	-0.056924
O11	O	0.503531	0.899459	0.056768
O12	O	0.503530	1.126844	-0.170618
O13	O	0.443677	1.126849	-0.056926
Zr14	Zr	0.597416	1.013124	0.121392
Zr15	Zr	0.597413	1.013138	-0.121568
Zr16	Zr	0.469503	1.013148	0.121401
Zr17	Zr	0.469502	1.256119	-0.121570
Zr18	Zr	0.597414	0.770167	0.121403
O19	O	0.573561	1.206251	0.076074
O20	O	0.573557	1.206269	-0.269384
O21	O	0.391685	1.206284	0.076086
O22	O	0.675234	0.819983	0.269205
O23	O	0.675231	0.820002	-0.076253
O24	O	0.493359	0.820016	0.269218
O25	O	0.675232	1.013121	-0.076262
O26	O	0.573562	1.013121	0.269203
O27	O	0.493360	1.013136	0.269209
O28	O	0.675233	1.013113	0.076075
O29	O	0.493356	1.358620	-0.269386
O30	O	0.573560	0.667666	0.269219
O31	O	0.675234	0.667647	0.269212
O32	O	0.675232	0.667658	0.076091
O33	O	0.391684	1.358628	-0.076258
O34	O	0.493358	1.358609	-0.076265
O35	O	0.563386	0.899442	0.170451
O36	O	0.623239	0.899437	0.056759
O37	O	0.563385	1.126827	-0.056934
O38	O	0.503532	1.126832	0.056757
C39	C	0.533457	0.709240	-0.000069
C40	C	0.533456	0.606098	-0.000065
C41	C	0.373458	1.013173	-0.000072
C42	C	0.319156	1.013183	-0.000069
C43	C	0.495888	0.459091	0.071969
C44	C	0.495684	0.566711	0.071678
C45	C	0.505917	0.655106	-0.123604
C46	C	0.505634	0.547873	-0.123230
C47	C	0.598590	0.372625	0.050378
C48	C	0.598495	0.478776	0.052899
C49	C	-0.017542	1.013118	-0.084009
C50	C	-0.068560	1.013109	-0.084009
O51	O	-0.094936	1.013064	-0.155360
N52	N	-0.094077	1.013107	-0.000087
C53	C	-0.068570	1.013101	0.083848
O54	O	-0.094959	1.013097	0.155231
C55	C	-0.017551	1.013101	0.083852
C56	C	0.007960	1.013116	-0.000082
C57	C	0.007969	1.013132	-0.167936
C58	C	0.058983	1.013144	-0.167936
C59	C	0.084485	1.013142	-0.084009
C60	C	0.058974	1.013128	-0.000082
C61	C	0.007958	1.013085	0.167791
C62	C	0.058981	1.013084	0.167789
C63	C	0.084492	1.013100	0.083854
C64	C	0.135490	1.013137	0.083844
N65	N	0.161007	1.013140	-0.000078
C66	C	0.135505	1.013142	-0.084005
C67	C	-0.175714	1.013099	0.083834
C68	C	-0.226735	1.013108	0.083826
C69	C	-0.226721	1.013114	-0.084031
C70	C	-0.175701	1.013114	-0.084027
C71	C	-0.150197	1.013101	-0.000089
C72	C	0.242637	1.013168	-0.084000
C73	C	0.293654	1.013185	-0.083995
C74	C	0.293637	1.013172	0.083864
C75	C	0.242623	1.013162	0.083857
C76	C	0.217125	1.013155	-0.000080
O77	O	0.161899	1.013177	0.155161
O78	O	0.161904	1.013129	-0.155368
C79	C	0.693458	1.013113	-0.000094
C80	C	0.747760	1.013103	-0.000098
C81	C	0.533455	1.013160	-0.303989
C82	C	0.533454	1.013165	-0.407132
C83	C	0.533459	1.317046	-0.000097
C84	C	0.533460	1.420188	-0.000102
C85	C	0.495522	1.156565	-0.625505
C86	C	0.495682	1.156662	-0.518273
C87	C	0.598491	0.941922	-0.410457
C88	C	0.598288	0.942832	-0.518226
C89	C	0.506887	0.939896	-0.516856
C90	C	0.505567	0.942598	-0.410887
C91	C	0.533461	1.013126	0.303823
C92	C	0.533462	1.013121	0.406966
C93	C	0.693456	0.709210	-0.000080
C94	C	0.747758	0.606058	-0.000079
C95	C	0.533459	0.709223	0.303837
C96	C	0.533460	0.606075	0.406984
C97	C	0.693459	0.709193	0.303826
C98	C	0.747762	0.606036	0.406970
C99	C	0.373457	1.317093	-0.303992
C100	C	0.319154	1.420250	-0.407136
C101	C	0.373460	1.317076	-0.000086
C102	C	0.319158	1.420228	-0.000087
C103	C	0.533457	1.317063	-0.304003
C104	C	0.533456	1.420211	-0.407151
C105	C	0.742015	0.557626	-0.059431
C106	C	0.793033	0.460717	-0.059452
C107	C	0.849792	0.412235	-0.000116
C108	C	0.855534	0.460677	0.059237
C109	C	0.804517	0.557591	0.059252
C110	C	0.804511	0.557589	0.396061
C111	C	0.855539	0.460675	0.492967
C112	C	0.849817	0.412202	0.600779
C113	C	0.793062	0.460659	0.611685
C114	C	0.742035	0.557578	0.514781
C115	C	0.262405	1.468709	-0.396228
C116	C	0.211377	1.565653	-0.493133
C117	C	0.217099	1.614130	-0.600946
C118	C	0.273854	1.565668	-0.611852
C119	C	0.324881	1.468732	-0.514948
C120	C	0.324901	1.468670	0.059254
C121	C	0.273883	1.565606	0.059249
C122	C	0.217124	1.614091	-0.000091
C123	C	0.211382	1.565645	-0.059440
C124	C	0.262399	1.468717	-0.059441
C125	C	0.495528	0.459760	0.481980
C126	C	0.495688	0.566692	0.374641
C127	C	0.598497	0.479202	0.481543
C128	C	0.598294	0.371815	0.588413
C129	C	0.506895	0.546805	0.589997
C130	C	0.505574	0.655287	0.481315
H131	H	0.514156	0.529992	0.162648
H132	H	0.788412	0.421178	0.699479
H133	H	0.534398	0.522005	0.668215
H134	H	0.278506	1.605151	-0.699645
H135	H	0.314422	1.013201	-0.152349
H136	H	0.891329	0.333321	-0.000136
H137	H	0.530336	0.687406	0.506836
H138	H	0.619916	0.991389	-0.408320
H139	H	-0.247508	1.013116	0.152163
H140	H	0.619561	0.993452	-0.568575
H141	H	0.809202	0.597012	0.107589
H142	H	-0.012806	1.013072	0.236139
H143	H	0.901747	0.421232	0.484066
H144	H	0.371087	1.429278	-0.523843
H145	H	0.079745	1.013069	0.236145
H146	H	0.513789	0.370090	0.480948
H147	H	-0.154953	1.013098	0.152185
H148	H	0.314407	1.013176	0.152194
H149	H	0.788346	0.421287	-0.107785
H150	H	0.221883	1.013160	-0.152348
H151	H	0.809182	0.597041	0.308283
H152	H	0.627985	0.836413	-0.332186
H153	H	0.901755	0.421189	0.107547
H154	H	0.221846	1.013168	0.152195
H155	H	0.175587	1.693015	-0.000081
H156	H	0.695829	0.597010	0.523679
H157	H	0.514120	0.529226	0.320853
H158	H	0.079752	1.013151	-0.236280
H159	H	0.695803	0.597098	-0.107764
H160	H	0.278570	1.605035	0.107582
H161	H	0.891371	0.333285	0.679676
H162	H	0.165169	1.605094	-0.484231
H163	H	0.371113	1.429201	0.107583
H164	H	-0.012789	1.013130	-0.236280
H165	H	0.257734	1.429243	-0.308450
H166	H	0.165161	1.605136	-0.107753
H167	H	0.257714	1.429278	-0.107760
H168	H	0.175545	1.693061	-0.679842
H169	H	0.447796	0.656055	0.320369
H170	H	0.447514	0.497008	0.479647
H171	H	0.619568	0.281058	0.588141
H172	H	0.448129	0.494864	0.037265
H173	H	0.628099	0.341849	0.666996
H174	H	0.457653	0.994545	-0.411405
H175	H	0.447790	1.212572	-0.519896
H176	H	0.627991	0.501442	0.508772
H177	H	0.619920	0.440643	0.429934
H178	H	0.459727	0.586385	0.594116
H179	H	0.457661	0.745794	0.429892
H180	H	0.514115	1.212902	-0.520730
H181	H	0.514263	0.370215	0.163166
H182	H	0.447507	1.212867	-0.679456
H183	H	0.447642	0.655523	0.036682
H184	H	0.534390	0.834224	-0.489405
H185	H	0.457708	0.588582	-0.163642
H186	H	0.513783	1.212581	-0.680489
H187	H	0.531968	0.683889	-0.179624
H188	H	0.531233	0.525903	-0.179846
H189	H	0.458448	0.747424	-0.164292
H190	H	0.619068	0.439166	0.143912
H191	H	0.621599	0.278869	0.139948
H192	H	0.626716	0.346648	-0.001866
H193	H	-0.154933	1.013125	-0.152373
H194	H	0.628847	0.500275	0.005866
H195	H	0.628091	0.837588	-0.491569
H196	H	-0.247493	1.013113	-0.152368
H197	H	0.459722	0.985801	-0.566878
H198	H	0.530329	0.837908	-0.331726
