data_functionalizedCrystal
_audit_creation_method	'MofGen! by Chris Wilmer'
_symmetry_space_group_name_H-M	'P1'
_symmetry_Int_Tables_number	1
_symmetry_cell_setting	triclinic
loop_
_symmetry_equiv_pos_as_xyz
  x,y,z
_cell_length_a	14.971496
_cell_length_b	14.971486
_cell_length_c	13.448316
_cell_angle_alpha	90.001801
_cell_angle_beta	90.007882
_cell_angle_gamma	83.616123
loop_
_atom_site_label
_atom_site_type_symbol
_atom_site_fract_x
_atom_site_fract_y
_atom_site_fract_z
O1	O	-0.116564	-1.186951	-0.082580
O2	O	0.383436	-0.686951	0.417420
O3	O	-0.130523	-0.926552	-0.082608
O4	O	0.369477	-0.426552	0.417392
O5	O	0.006656	-1.063726	-0.082584
O6	O	0.506656	-0.563726	0.417416
O7	O	-0.253743	-1.049777	-0.082605
O8	O	0.246257	-0.549777	0.417395
O9	O	0.006664	-1.063709	0.082800
O10	O	0.506664	-0.563709	0.582800
O11	O	-0.130515	-0.926535	0.082776
O12	O	0.369485	-0.426535	0.582776
O13	O	-0.116556	-1.186934	0.082803
O14	O	0.383444	-0.686934	0.582803
Cu15	Cu	-0.123534	-1.056733	0.097891
Cu16	Cu	0.376466	-0.556733	0.597891
Cu17	Cu	-0.123544	-1.056753	-0.097695
Cu18	Cu	0.376456	-0.556753	0.402305
O19	O	-0.253735	-1.049760	0.082779
O20	O	0.246265	-0.549760	0.582779
C21	C	0.039985	-1.063092	0.000109
C22	C	0.539985	-0.563092	0.500109
C23	C	0.139281	-1.061218	0.000110
C24	C	0.639281	-0.561218	0.500110
C25	C	-0.129895	-0.893218	0.000081
C26	C	0.370105	-0.393218	0.500081
C27	C	-0.128024	-0.793921	0.000071
C28	C	0.371976	-0.293921	0.500071
C29	C	0.566981	-1.053160	-0.090065
C30	C	1.066981	-0.553160	0.409935
C31	C	0.473682	-1.054926	-0.090061
C32	C	0.973682	-0.554926	0.409939
C33	C	0.427043	-1.055793	0.000093
C34	C	0.927043	-0.555793	0.500093
C35	C	0.473709	-1.054904	0.090250
C36	C	0.973709	-0.554904	0.590250
C37	C	0.567007	-1.053144	0.090245
C38	C	1.067007	-0.553144	0.590245
C39	C	0.279246	-1.058569	0.090254
C40	C	0.779246	-0.558569	0.590254
C41	C	0.185941	-1.060326	0.090259
C42	C	0.685941	-0.560326	0.590259
C43	C	0.185920	-1.060350	-0.090052
C44	C	0.685920	-0.560350	0.409948
C45	C	0.279218	-1.058590	-0.090057
C46	C	0.779218	-0.558590	0.409943
C47	C	0.325878	-1.057700	0.000100
C48	C	0.825878	-0.557700	0.500100
C49	C	-0.117184	-1.220268	0.000113
C50	C	0.382816	-0.720268	0.500113
C51	C	-0.119055	-1.319565	0.000116
C52	C	0.380945	-0.819565	0.500116
C53	C	0.712937	-1.050394	0.000087
C54	C	1.212937	-0.550394	0.500087
C55	C	0.613640	-1.052268	0.000084
C56	C	1.113640	-0.552268	0.500084
N57	N	-0.123527	-1.056725	0.235455
N58	N	0.376473	-0.556725	0.735455
C59	C	-0.208613	-0.736699	0.000065
C60	C	0.291387	-0.236699	0.500065
C61	C	-0.206850	-0.643399	0.000080
C62	C	0.293150	-0.143399	0.500080
C63	C	-0.124497	-0.607324	0.000093
C64	C	0.375503	-0.107324	0.500093
C65	C	-0.043902	-0.664554	0.000101
C66	C	0.456098	-0.164554	0.500101
C67	C	-0.045666	-0.757852	0.000094
C68	C	0.454334	-0.257852	0.500094
C69	C	-0.040231	-0.470091	0.000115
C70	C	0.459769	0.029909	0.500115
C71	C	-0.038466	-0.376787	0.000121
C72	C	0.461534	0.123213	0.500121
C73	C	-0.201414	-0.355639	0.000102
C74	C	0.298586	0.144361	0.500102
C75	C	-0.203179	-0.448937	0.000094
C76	C	0.296821	0.051063	0.500094
C77	C	-0.122583	-0.506160	0.000101
C78	C	0.377417	-0.006160	0.500101
N79	N	-0.123545	-1.056768	-0.235259
N80	N	0.376455	-0.556768	0.264741
C81	C	-0.062809	-1.117485	0.287506
C82	C	0.437191	-0.617485	0.787506
C83	C	-0.062808	-1.117490	0.391609
C84	C	0.437192	-0.617490	0.891609
C85	C	-0.123530	-1.056740	0.443659
C86	C	0.376470	-0.556740	0.943659
C87	C	-0.184251	-0.995973	0.391601
C88	C	0.315749	-0.495973	0.891601
C89	C	-0.184247	-0.995964	0.287500
C90	C	0.315753	-0.495964	0.787500
C91	C	-0.184257	-0.995998	0.608581
C92	C	0.315743	-0.495998	1.108581
C93	C	-0.184263	-0.996008	0.712690
C94	C	0.315737	-0.496008	1.212690
C95	C	-0.062819	-1.117524	0.712691
C96	C	0.437181	-0.617524	1.212691
C97	C	-0.062814	-1.117515	0.608589
C98	C	0.437186	-0.617515	1.108589
C99	C	-0.123536	-1.056750	0.556538
C100	C	0.376464	-0.556750	1.056538
H101	H	0.604946	-1.052445	-0.163479
H102	H	1.104946	-0.552445	0.336521
Cl103	Cl	-0.306709	-0.494287	0.000067
Cl104	Cl	0.193291	0.005713	0.500067
Cl105	Cl	0.415078	-1.055999	0.203587
Cl106	Cl	0.915078	-0.555999	0.703587
Cl107	Cl	-0.308166	-0.571466	0.000068
Cl108	Cl	0.191834	-0.071466	0.500068
Cl109	Cl	0.065065	-0.331437	0.000171
Cl110	Cl	0.565065	0.168563	0.500171
H111	H	-0.013366	-1.166959	0.245133
H112	H	0.486634	-0.666959	0.745133
H113	H	0.435696	-1.055654	-0.163470
H114	H	0.935696	-0.555654	0.336530
Cl115	Cl	0.013517	-1.193893	0.543153
Cl116	Cl	0.513517	-0.693893	1.043153
Cl117	Cl	0.337902	-1.057453	0.203595
Cl118	Cl	0.837902	-0.557453	0.703595
Cl119	Cl	0.013525	-1.193875	0.457047
Cl120	Cl	0.513525	-0.693875	0.957047
Cl121	Cl	0.625666	-1.052029	0.203580
Cl122	Cl	1.125666	-0.552029	0.703580
H123	H	0.147966	-1.061004	0.163670
H124	H	0.647966	-0.561004	0.663670
H125	H	-0.267038	-0.309043	0.000102
H126	H	0.232962	0.190957	0.500102
H127	H	0.025399	-0.516681	0.000122
H128	H	0.525399	-0.016681	0.500122
H129	H	0.023152	-0.635174	0.000126
H130	H	0.523152	-0.135174	0.500126
H131	H	0.019958	-0.804442	0.000097
H132	H	0.519958	-0.304442	0.500097
H133	H	-0.013377	-1.167001	0.755077
H134	H	0.486623	-0.667001	1.255077
Cl135	Cl	-0.260601	-0.919630	0.778116
Cl136	Cl	0.239399	-0.419630	1.278116
Cl137	Cl	-0.260593	-0.919603	0.543149
Cl138	Cl	0.239407	-0.419603	1.043149
H139	H	-0.275674	-0.766063	0.000054
H140	H	0.224326	-0.266063	0.500054
Cl141	Cl	-0.260585	-0.919595	0.457033
Cl142	Cl	0.239415	-0.419595	0.957033
H143	H	0.317188	-1.057879	-0.163469
H144	H	0.817188	-0.557879	0.336531
Cl145	Cl	0.127257	-1.061425	-0.203392
Cl146	Cl	0.627257	-0.561425	0.296608
H147	H	-0.233688	-0.946486	0.245121
H148	H	0.266312	-0.446486	0.745121
