data_functionalizedCrystal
_audit_creation_method	'MofGen! by Chris Wilmer'
_symmetry_space_group_name_H-M	'P1'
_symmetry_Int_Tables_number	1
_symmetry_cell_setting	triclinic
loop_
_symmetry_equiv_pos_as_xyz
  x,y,z
_cell_length_a	12.759401
_cell_length_b	18.050589
_cell_length_c	12.759393
_cell_angle_alpha	89.969175
_cell_angle_beta	89.982620
_cell_angle_gamma	90.028382
loop_
_atom_site_label
_atom_site_type_symbol
_atom_site_fract_x
_atom_site_fract_y
_atom_site_fract_z
Zn1	Zn	1.606145	-0.295611	-0.593988
Zn2	Zn	2.106145	0.204389	-0.093988
Zn3	Zn	1.606001	-0.419822	-0.418311
Zn4	Zn	2.106001	0.080178	0.081689
Zn5	Zn	1.430450	-0.295650	-0.418328
Zn6	Zn	1.930450	0.204350	0.081672
Zn7	Zn	1.430394	-0.419764	-0.593953
Zn8	Zn	1.930394	0.080236	-0.093953
O9	O	1.518248	-0.357712	-0.506145
O10	O	2.018248	0.142288	-0.006145
O11	O	1.753147	-0.312095	-0.570692
O12	O	2.253147	0.187905	-0.070692
O13	O	1.582678	-0.403391	-0.271292
O14	O	2.082678	0.096609	0.228708
O15	O	1.453840	-0.191720	-0.441651
O16	O	1.953840	0.308280	0.058349
O17	O	1.753041	-0.403352	-0.441623
O18	O	2.253041	0.096648	0.058377
O19	O	1.582923	-0.191692	-0.570708
O20	O	2.082923	0.308308	-0.070708
O21	O	1.453701	-0.312162	-0.271304
O22	O	1.953701	0.187838	0.228696
O23	O	1.283422	-0.312107	-0.441617
O24	O	1.783422	0.187893	0.058383
O25	O	1.453745	-0.403254	-0.740979
O26	O	1.953745	0.096746	-0.240979
O27	O	1.283381	-0.403292	-0.570648
O28	O	1.783381	0.096708	-0.070648
O29	O	1.582868	-0.312040	-0.741005
O30	O	2.082868	0.187960	-0.241005
O31	O	1.582623	-0.523739	-0.441589
O32	O	2.082623	-0.023739	0.058411
O33	O	1.453605	-0.523696	-0.570632
O34	O	1.953605	-0.023696	-0.070632
C35	C	1.245280	-0.357698	-0.506131
C36	C	1.745280	0.142302	-0.006131
C37	C	1.128504	-0.357710	-0.506149
C38	C	1.628504	0.142290	-0.006149
C39	C	1.073648	-0.405267	-0.573225
C40	C	1.573648	0.094733	-0.073225
C41	C	0.963924	-0.405276	-0.573236
C42	C	1.463924	0.094724	-0.073236
C43	C	0.963921	-0.310170	-0.439088
C44	C	1.463921	0.189830	0.060912
C45	C	1.073644	-0.310158	-0.439083
C46	C	1.573644	0.189842	0.060917
C47	C	1.128508	-0.452819	-0.640292
C48	C	1.628508	0.047181	-0.140292
C49	C	1.073652	-0.500380	-0.707372
C50	C	1.573652	-0.000380	-0.207372
C51	C	0.963928	-0.500389	-0.707383
C52	C	1.463928	-0.000389	-0.207383
C53	C	0.909060	-0.452838	-0.640314
C54	C	1.409060	0.047162	-0.140314
C55	C	1.518121	-0.550664	-0.506127
C56	C	2.018121	-0.050664	-0.006127
C57	C	1.518163	-0.633210	-0.506155
C58	C	2.018163	-0.133210	-0.006155
C59	C	1.448072	-0.832664	-0.576304
C60	C	1.948072	-0.332664	-0.076304
C61	C	1.422460	-0.882113	-0.480436
C62	C	1.922460	-0.382113	0.019564
C63	C	1.518266	-0.784340	-0.506169
C64	C	2.018266	-0.284340	-0.006169
C65	C	1.543930	-0.881973	-0.602048
C66	C	2.043930	-0.381973	-0.102048
C67	C	1.518364	-0.930325	-0.506191
C68	C	2.018364	-0.430325	-0.006191
C69	C	1.492603	-0.832702	-0.410250
C70	C	1.992603	-0.332702	0.089750
C71	C	1.614118	-0.832557	-0.531927
C72	C	2.114118	-0.332557	-0.031927
C73	C	1.588542	-0.881984	-0.435992
C74	C	2.088542	-0.381984	0.064008
C75	C	1.518207	-0.700242	-0.506158
C76	C	2.018207	-0.200242	-0.006158
C77	C	1.518423	-1.014422	-0.506191
C78	C	2.018423	-0.514422	-0.006191
C79	C	1.792281	-0.357726	-0.506160
C80	C	2.292281	0.142274	-0.006160
C81	C	1.909058	-0.357732	-0.506166
C82	C	2.409058	0.142268	-0.006166
C83	C	1.518316	-0.357636	-0.780178
C84	C	2.018316	0.142364	-0.280178
C85	C	1.518345	-0.357604	-0.896955
C86	C	2.018345	0.142396	-0.396955
C87	C	1.518404	-0.164006	-0.506185
C88	C	2.018404	0.335994	-0.006185
C89	C	1.518470	-0.081460	-0.506203
C90	C	2.018470	0.418540	-0.006203
C91	C	1.451216	-0.310093	-0.951829
C92	C	1.951216	0.189907	-0.451829
C93	C	1.451247	-0.310071	-1.061554
C94	C	1.951247	0.189929	-0.561554
C95	C	1.585547	-0.405073	-1.061519
C96	C	2.085547	0.094927	-0.561519
C97	C	1.585510	-0.405098	-0.951797
C98	C	2.085510	0.094902	-0.451797
C99	C	1.384051	-0.262598	-0.896987
C100	C	1.884051	0.237402	-0.396987
C101	C	1.316917	-0.215082	-0.951862
C102	C	1.816917	0.284918	-0.451862
C103	C	1.316949	-0.215060	-1.061586
C104	C	1.816949	0.284940	-0.561586
C105	C	1.384115	-0.262554	-1.116436
C106	C	1.884115	0.237446	-0.616436
C107	C	1.518240	-0.357733	-0.233178
C108	C	2.018240	0.142267	0.266822
C109	C	1.518415	-0.357556	-0.116401
C110	C	2.018415	0.142444	0.383599
H111	H	1.118308	-0.271428	-0.384472
H112	H	1.618308	0.228572	0.115528
H113	H	1.262278	-0.176376	-1.106262
H114	H	1.762278	0.323624	-0.606262
C115	C	1.243027	-0.162851	-0.891537
C116	C	1.743027	0.337149	-0.391537
H117	H	1.203041	-0.134559	-0.939936
H118	H	1.703041	0.365441	-0.439936
H119	H	1.283221	-0.130502	-0.848741
H120	H	1.783221	0.369498	-0.348741
H121	H	1.197212	-0.191276	-0.848731
H122	H	1.697212	0.308724	-0.348731
H123	H	1.384020	-0.262609	-0.807644
H124	H	1.884020	0.237391	-0.307644
H125	H	0.819715	-0.452843	-0.640338
H126	H	1.319715	0.047157	-0.140338
C127	C	0.903569	-0.257874	-0.365314
C128	C	1.403569	0.242126	0.134686
H129	H	0.830366	-0.264697	-0.374917
H130	H	1.330366	0.235303	0.125083
H131	H	0.921578	-0.207986	-0.380807
H132	H	1.421578	0.292014	0.119193
H133	H	0.921521	-0.268687	-0.294692
H134	H	1.421521	0.231313	0.205308
H135	H	1.384133	-0.262534	-1.205780
H136	H	1.884133	0.237466	-0.705780
H137	H	1.388624	-0.811008	-0.635531
H138	H	1.888624	-0.311008	-0.135531
H139	H	1.565598	-0.903616	-0.683124
H140	H	2.065598	-0.403616	-0.183124
H141	H	1.217851	-0.452818	-0.640288
H142	H	1.717851	0.047182	-0.140288
H143	H	1.341446	-0.903897	-0.458669
H144	H	1.841446	-0.403897	0.041331
H145	H	1.470842	-0.811148	-0.329152
H146	H	1.970842	-0.311148	0.170848
C147	C	1.659436	-0.457304	-1.121847
C148	C	2.159436	0.042696	-0.621847
H149	H	1.699408	-0.485607	-1.073450
H150	H	2.199408	0.014393	-0.573450
H151	H	1.705248	-0.428885	-1.164654
H152	H	2.205248	0.071115	-0.664654
H153	H	1.619232	-0.489653	-1.164643
H154	H	2.119232	0.010347	-0.664643
H155	H	1.118333	-0.539090	-0.761983
H156	H	1.618333	-0.039090	-0.261983
H157	H	1.640186	-0.443776	-0.907117
H158	H	2.140186	0.056224	-0.407117
H159	H	0.919267	-0.539110	-0.762010
H160	H	1.419267	-0.039110	-0.262010
H161	H	1.695113	-0.810775	-0.553739
H162	H	2.195113	-0.310775	-0.053739
H163	H	1.647945	-0.903502	-0.376622
H164	H	2.147945	-0.403502	0.123378
