data_functionalizedCrystal
_audit_creation_method	'MofGen! by Chris Wilmer'
_symmetry_space_group_name_H-M	'P1'
_symmetry_Int_Tables_number	1
_symmetry_cell_setting	triclinic
loop_
_symmetry_equiv_pos_as_xyz
  x,y,z
_cell_length_a	16.959455
_cell_length_b	17.637651
_cell_length_c	16.959447
_cell_angle_alpha	78.752498
_cell_angle_beta	89.985678
_cell_angle_gamma	101.215983
loop_
_atom_site_label
_atom_site_type_symbol
_atom_site_fract_x
_atom_site_fract_y
_atom_site_fract_z
Zn1	Zn	1.144780	-0.314810	-0.383201
Zn2	Zn	1.644780	0.185190	0.116799
Zn3	Zn	1.117987	-0.447037	-0.224264
Zn4	Zn	1.617987	0.052963	0.275736
Zn5	Zn	1.012603	-0.314835	-0.251033
Zn6	Zn	1.512603	0.185165	0.248967
Zn7	Zn	0.985870	-0.446977	-0.356414
Zn8	Zn	1.485870	0.053023	0.143586
O9	O	1.065310	-0.380915	-0.303728
O10	O	1.565310	0.119085	0.196272
O11	O	1.251833	-0.332365	-0.362125
O12	O	1.751833	0.167635	0.137875
O13	O	1.103983	-0.429535	-0.117197
O14	O	1.603983	0.070465	0.382803
O15	O	1.052537	-0.204193	-0.290979
O16	O	1.552537	0.295807	0.209021
O17	O	1.232149	-0.429511	-0.245354
O18	O	1.732149	0.070489	0.254646
O19	O	1.149647	-0.204175	-0.388082
O20	O	1.649647	0.295825	0.111918
O21	O	1.026558	-0.332407	-0.136864
O22	O	1.526558	0.167593	0.363136
O23	O	0.898449	-0.332350	-0.265005
O24	O	1.398449	0.167650	0.234995
O25	O	1.006974	-0.429410	-0.470586
O26	O	1.506974	0.070590	0.029414
O27	O	0.878808	-0.429434	-0.342428
O28	O	1.378808	0.070566	0.157572
O29	O	1.123725	-0.332308	-0.490266
O30	O	1.623725	0.167692	0.009734
O31	O	1.078061	-0.557668	-0.219381
O32	O	1.578061	-0.057668	0.280619
O33	O	0.980995	-0.557624	-0.316471
O34	O	1.480995	-0.057624	0.183529
C35	C	0.859949	-0.380889	-0.303715
C36	C	1.359949	0.119111	0.196285
C37	C	0.772091	-0.380897	-0.303725
C38	C	1.272091	0.119103	0.196275
C39	C	0.410822	-0.330322	-0.263528
C40	C	0.910822	0.169678	0.236472
C41	C	0.390387	-0.431573	-0.343960
C42	C	0.890387	0.068427	0.156040
C43	C	0.472935	-0.431562	-0.343958
C44	C	0.972935	0.068438	0.156042
C45	C	0.524431	-0.380931	-0.303739
C46	C	1.024431	0.119069	0.196261
C47	C	0.493378	-0.330311	-0.263522
C48	C	0.993378	0.169689	0.236478
C49	C	0.503993	-0.482187	-0.384167
C50	C	1.003993	0.017813	0.115833
C51	C	0.586546	-0.482178	-0.384165
C52	C	1.086546	0.017822	0.115835
C53	C	0.638044	-0.431542	-0.343950
C54	C	1.138044	0.068458	0.156050
C55	C	0.606987	-0.380919	-0.303733
C56	C	1.106987	0.119081	0.196267
C57	C	0.658482	-0.330288	-0.263514
C58	C	1.158482	0.169712	0.236486
C59	C	0.627427	-0.279661	-0.223301
C60	C	1.127427	0.220339	0.276699
C61	C	0.544876	-0.279675	-0.223307
C62	C	1.044876	0.220325	0.276693
C63	C	0.720595	-0.431528	-0.343944
C64	C	1.220595	0.068472	0.156056
C65	C	0.741038	-0.330277	-0.263508
C66	C	1.241038	0.169723	0.236492
C67	C	1.023741	-0.586334	-0.262131
C68	C	1.523741	-0.086334	0.237869
C69	C	1.006030	-0.674212	-0.244363
C70	C	1.506030	-0.174212	0.255637
C71	C	1.200372	-0.962893	-0.438965
C72	C	1.700372	-0.462893	0.061035
C73	C	1.183705	-1.045469	-0.422254
C74	C	1.683705	-0.545469	0.077746
C75	C	1.082652	-1.045595	-0.321043
C76	C	1.582652	-0.545595	0.178957
C77	C	1.099314	-0.963018	-0.337742
C78	C	1.599314	-0.463018	0.162258
C79	C	1.158174	-0.921674	-0.396704
C80	C	1.658174	-0.421674	0.103296
C81	C	1.057116	-0.921798	-0.295482
C82	C	1.557116	-0.421798	0.204518
C83	C	1.073773	-0.839228	-0.312183
C84	C	1.573773	-0.339228	0.187817
C85	C	1.132629	-0.797878	-0.371144
C86	C	1.632629	-0.297878	0.128856
C87	C	1.174832	-0.839103	-0.413405
C88	C	1.674832	-0.339103	0.086595
C89	C	0.998251	-0.963144	-0.236525
C90	C	1.498251	-0.463144	0.263475
C91	C	0.956053	-0.921924	-0.194264
C92	C	1.456053	-0.421924	0.305736
C93	C	0.972715	-0.839353	-0.210961
C94	C	1.472715	-0.339353	0.289039
C95	C	1.031570	-0.798002	-0.269922
C96	C	1.531570	-0.298002	0.230078
C97	C	0.930512	-0.798127	-0.168700
C98	C	1.430512	-0.298127	0.331300
C99	C	0.947169	-0.715557	-0.185401
C100	C	1.447169	-0.215557	0.314599
C101	C	1.048228	-0.715432	-0.286623
C102	C	1.548228	-0.215432	0.213377
C103	C	1.271473	-0.380942	-0.303741
C104	C	1.771473	0.119058	0.196259
C105	C	1.359327	-0.380953	-0.303747
C106	C	1.859327	0.119047	0.196253
C107	C	1.065356	-0.380850	-0.509910
C108	C	1.565356	0.119150	-0.009910
C109	C	1.065376	-0.380822	-0.597772
C110	C	1.565376	0.119178	-0.097772
C111	C	1.107063	-0.174694	-0.345504
C112	C	1.607063	0.325306	0.154496
C113	C	1.124855	-0.086815	-0.363307
C114	C	1.624855	0.413185	0.136693
C115	C	1.004700	-0.431295	-0.959021
C116	C	1.504700	0.068705	-0.459021
C117	C	1.126273	-0.330181	-0.979509
C118	C	1.626273	0.169819	-0.479509
C119	C	1.126249	-0.330198	-0.896959
C120	C	1.626249	0.169802	-0.396959
C121	C	1.065450	-0.380765	-0.845437
C122	C	1.565450	0.119235	-0.345437
C123	C	1.004675	-0.431315	-0.876463
C124	C	1.504675	0.068685	-0.376463
C125	C	1.187027	-0.279655	-0.865925
C126	C	1.687027	0.220345	-0.365925
C127	C	1.187006	-0.279670	-0.783371
C128	C	1.687006	0.220330	-0.283371
C129	C	1.126203	-0.330234	-0.731848
C130	C	1.626203	0.169766	-0.231848
C131	C	1.065425	-0.380785	-0.762879
C132	C	1.565425	0.119215	-0.262879
C133	C	1.004626	-0.431352	-0.711356
C134	C	1.504626	0.068648	-0.211356
C135	C	0.943844	-0.481900	-0.742387
C136	C	1.443844	0.018100	-0.242387
C137	C	0.943872	-0.481878	-0.824939
C138	C	1.443872	0.018122	-0.324939
C139	C	1.126175	-0.330255	-0.649295
C140	C	1.626175	0.169745	-0.149295
C141	C	1.004601	-0.431372	-0.628798
C142	C	1.504601	0.068628	-0.128798
C143	C	1.065321	-0.380923	-0.098360
C144	C	1.565321	0.119077	0.401640
C145	C	1.065499	-0.380728	-0.010543
C146	C	1.565499	0.119272	0.489457
H147	H	0.782962	-0.289041	-0.230762
H148	H	1.282962	0.210959	0.269238
H149	H	0.519583	-0.238458	-0.190567
H150	H	1.019583	0.261542	0.309433
H151	H	0.385534	-0.289100	-0.230790
H152	H	0.885534	0.210900	0.269210
Cl153	Cl	0.882055	-0.973908	-0.120149
Cl154	Cl	1.382055	-0.473908	0.379851
Cl155	Cl	1.248839	-0.787121	-0.487521
Cl156	Cl	1.748839	-0.287121	0.012479
H157	H	1.236497	-0.238510	-0.758114
H158	H	1.736497	0.261490	-0.258114
H159	H	0.348454	-0.472800	-0.376699
H160	H	0.848454	0.027200	0.123301
Cl161	Cl	0.928291	-0.494836	-0.998029
Cl162	Cl	1.428291	0.005164	-0.498029
H163	H	1.175664	-0.289102	-0.624033
H164	H	1.675664	0.210898	-0.124033
H165	H	0.669365	-0.238440	-0.190550
H166	H	1.169365	0.261560	0.309450
H167	H	0.462059	-0.523414	-0.416904
H168	H	0.962059	-0.023414	0.083096
Cl169	Cl	0.928159	-0.494941	-0.564034
Cl170	Cl	1.428159	0.005059	-0.064034
H171	H	1.175777	-0.289017	-1.021462
H172	H	1.675777	0.210983	-0.521462
H173	H	0.894345	-0.523075	-0.700425
H174	H	1.394345	-0.023075	-0.200425
Cl175	Cl	0.856507	-0.850113	-0.094591
Cl176	Cl	1.356507	-0.350113	0.405409
H177	H	0.611824	-0.523401	-0.416910
H178	H	1.111824	-0.023401	0.083090
H179	H	0.745876	-0.472750	-0.376682
H180	H	1.245876	0.027250	0.123318
H181	H	0.912806	-0.681995	-0.150989
H182	H	1.412806	-0.181995	0.349011
Cl183	Cl	1.008654	-1.097579	-0.246928
Cl184	Cl	1.508654	-0.597579	0.253072
H185	H	0.894389	-0.523034	-0.850212
H186	H	1.394389	-0.023034	-0.350212
Cl187	Cl	1.122235	-0.663450	-0.360738
Cl188	Cl	1.622235	-0.163450	0.139262
H189	H	1.236530	-0.238491	-0.907880
H190	H	1.736530	0.261509	-0.407880
Cl191	Cl	1.274379	-0.910911	-0.513080
Cl192	Cl	1.774379	-0.410911	-0.013080
Cl193	Cl	1.153323	-0.694075	-0.392390
Cl194	Cl	1.653323	-0.194075	0.107610
Cl195	Cl	1.236767	-1.097286	-0.475383
Cl196	Cl	1.736767	-0.597286	0.024617
H197	H	0.984684	-1.030378	-0.222936
H198	H	1.484684	-0.530378	0.277064
