data_functionalizedCrystal
_audit_creation_method	'MofGen! by Chris Wilmer'
_symmetry_space_group_name_H-M	'P1'
_symmetry_Int_Tables_number	1
_symmetry_cell_setting	triclinic
loop_
_symmetry_equiv_pos_as_xyz
  x,y,z
_cell_length_a	12.811457
_cell_length_b	12.837942
_cell_length_c	13.448316
_cell_angle_alpha	89.994234
_cell_angle_beta	95.425199
_cell_angle_gamma	89.411937
loop_
_atom_site_label
_atom_site_type_symbol
_atom_site_fract_x
_atom_site_fract_y
_atom_site_fract_z
O1	O	1.406626	0.139672	0.044159
O2	O	1.102566	0.154864	0.016737
O3	O	1.247854	-0.003664	0.029846
O4	O	1.261338	0.298200	0.031050
O5	O	1.247832	-0.003673	0.195228
O6	O	1.102545	0.154854	0.182118
O7	O	1.406605	0.139662	0.209541
Cu8	Cu	1.254573	0.147257	0.210930
Cu9	Cu	1.254598	0.147269	0.015347
O10	O	1.261317	0.298190	0.196431
C11	C	1.063367	0.154009	0.095893
C12	C	0.946596	0.151461	0.085362
C13	C	0.727147	0.146644	0.245893
C14	C	0.617430	0.144250	0.236003
C15	C	0.617444	0.144272	0.055693
C16	C	0.727161	0.146666	0.065583
C17	C	0.782008	0.147853	0.160686
C18	C	0.891726	0.150255	0.170575
C19	C	0.891739	0.150269	-0.009733
C20	C	0.782022	0.147875	-0.019623
C21	C	1.243288	-0.042309	0.112125
C22	C	1.229702	-0.157444	0.110898
C23	C	1.393029	-0.397700	0.125608
C24	C	1.380269	-0.505881	0.124455
C25	C	1.191422	-0.481989	0.107434
C26	C	1.204182	-0.373808	0.108586
C27	C	1.304989	-0.331668	0.117675
C28	C	1.317748	-0.223485	0.118834
C29	C	1.128903	-0.199595	0.101806
C30	C	1.116142	-0.307776	0.100654
C31	C	1.445804	0.140518	0.130382
C32	C	1.562575	0.143065	0.140906
C33	C	1.265883	0.336835	0.114150
C34	C	1.279469	0.451971	0.115370
N35	N	1.254563	0.147249	0.348494
N36	N	1.254615	0.147270	-0.122216
C37	C	1.318921	0.077082	0.406341
C38	C	1.318928	0.077081	0.510445
C39	C	1.254580	0.147253	0.556700
C40	C	1.190215	0.217423	0.498844
C41	C	1.190203	0.217418	0.394742
C42	C	1.190244	0.217430	0.715827
C43	C	1.190257	0.217437	0.819937
C44	C	1.318969	0.077093	0.831530
C45	C	1.318957	0.077088	0.727428
C46	C	1.254593	0.147260	0.669580
H47	H	0.572766	0.143271	0.305387
H48	H	1.475110	-0.363389	0.133018
Cl49	Cl	1.444475	-0.170510	0.130266
Cl50	Cl	0.960676	0.151750	0.290131
Cl51	Cl	0.713062	0.146348	-0.139174
H52	H	1.137828	0.274568	0.668730
H53	H	0.771804	0.147624	0.323329
Cl54	Cl	0.989421	-0.360763	0.089220
H55	H	1.137857	0.274577	0.857592
H56	H	1.371359	0.019954	0.689768
Cl57	Cl	1.399826	-0.011136	0.348204
H58	H	1.371332	0.019945	0.557544
H59	H	0.936418	0.151260	-0.079115
Cl60	Cl	1.490953	-0.588890	0.134425
Cl61	Cl	1.064704	-0.534984	0.095980
Cl62	Cl	1.018217	-0.116576	0.091846
Cl63	Cl	1.399884	-0.011120	0.904256
Cl64	Cl	1.109314	0.305636	0.556991
Cl65	Cl	1.109287	0.305629	0.322020
H66	H	0.572769	0.143287	-0.021735
