data_functionalizedCrystal
_audit_creation_method	'MofGen! by Chris Wilmer'
_symmetry_space_group_name_H-M	'P1'
_symmetry_Int_Tables_number	1
_symmetry_cell_setting	triclinic
loop_
_symmetry_equiv_pos_as_xyz
  x,y,z
_cell_length_a	20.016444
_cell_length_b	23.196402
_cell_length_c	23.196402
_cell_angle_alpha	60.000700
_cell_angle_beta	89.996615
_cell_angle_gamma	59.997996
loop_
_atom_site_label
_atom_site_type_symbol
_atom_site_fract_x
_atom_site_fract_y
_atom_site_fract_z
Zr1	Zr	-0.087685	0.631018	0.555380
O2	O	-0.194356	0.751287	0.463334
O3	O	-0.054987	0.510750	0.583595
O4	O	-0.194363	0.631022	0.583599
O5	O	0.054965	0.631012	0.463328
O6	O	-0.194367	0.631023	0.678469
O7	O	-0.054980	0.631016	0.463329
O8	O	0.054952	0.415880	0.678461
O9	O	-0.194355	0.846156	0.463337
O10	O	-0.041042	0.560219	0.666431
O11	O	0.041011	0.560215	0.595630
O12	O	-0.123087	0.701819	0.595635
O13	O	-0.041034	0.701815	0.524834
Zr14	Zr	0.087657	0.631015	0.706684
Zr15	Zr	-0.087692	0.631020	0.706686
Zr16	Zr	0.087663	0.631012	0.555378
Zr17	Zr	-0.087683	0.782323	0.555384
Zr18	Zr	0.087655	0.479710	0.706680
O19	O	0.054958	0.751282	0.678470
O20	O	-0.194365	0.751290	0.678473
O21	O	0.054967	0.751279	0.463331
O22	O	0.194328	0.510746	0.798730
O23	O	-0.054995	0.510754	0.798733
O24	O	0.194337	0.510742	0.583592
O25	O	-0.054993	0.631021	0.798736
O26	O	0.194335	0.631011	0.678465
O27	O	0.194339	0.631009	0.583595
O28	O	0.054951	0.631017	0.798735
O29	O	-0.194360	0.846158	0.583605
O30	O	0.194331	0.415875	0.678459
O31	O	0.194327	0.415877	0.798728
O32	O	0.054948	0.415882	0.798729
O33	O	-0.054976	0.846151	0.463335
O34	O	-0.054981	0.846153	0.583604
O35	O	0.123059	0.560213	0.666429
O36	O	0.041006	0.560217	0.737230
O37	O	-0.041039	0.701818	0.666435
O38	O	0.041014	0.701814	0.595633
C39	C	-0.000017	0.441757	0.631027
C40	C	-0.000019	0.377525	0.631025
C41	C	-0.060581	-0.033056	0.578781
C42	C	-0.060581	0.027301	0.578775
C43	C	-0.000014	0.005218	0.631038
C44	C	0.060568	-0.077232	0.683301
C45	C	0.060570	-0.137587	0.683301
C46	C	0.018859	0.060797	0.694831
C47	C	0.018851	0.121153	0.694831
C48	C	-0.000018	0.191370	0.631037
C49	C	-0.018895	0.201234	0.567240
C50	C	-0.018893	0.140879	0.567240
C51	C	-0.000010	0.070657	0.631043
C52	C	-0.060592	0.339256	0.578769
C53	C	-0.060586	0.399613	0.578762
C54	C	0.060559	0.295077	0.683293
C55	C	0.060556	0.234723	0.683294
C56	C	-0.000024	0.256818	0.631032
C57	C	-0.219349	0.631024	0.631035
C58	C	-0.293789	0.631026	0.631035
C59	C	-0.465047	0.631017	0.683299
C60	C	-0.534987	0.631011	0.683300
C61	C	-0.534975	0.631014	0.578762
C62	C	-0.465033	0.631013	0.578765
C63	C	-0.430073	0.631019	0.631033
C64	C	-0.569955	0.631014	0.631031
C65	C	-0.645787	0.631008	0.631031
C66	C	-0.354235	0.631023	0.631034
C67	C	0.219321	0.631009	0.631030
C68	C	0.293761	0.631007	0.631029
C69	C	-0.000006	0.631013	0.441771
C70	C	-0.000004	0.631012	0.377537
C71	C	-0.000011	0.820275	0.631037
C72	C	-0.000009	0.884508	0.631039
C73	C	0.042815	0.557101	0.384316
C74	C	0.042818	0.557100	0.323962
C75	C	-0.000013	0.631014	0.256829
C76	C	-0.042834	0.704936	0.250052
C77	C	-0.042829	0.704935	0.310406
C78	C	-0.071759	0.687645	0.132902
C79	C	-0.071766	0.687643	0.072551
C80	C	-0.000026	0.631021	0.070675
C81	C	0.071721	0.574387	0.129165
C82	C	0.071726	0.574386	0.189519
C83	C	-0.000022	0.631024	0.191381
C84	C	0.042801	0.557103	0.012014
C85	C	0.042806	0.557105	-0.048343
C86	C	-0.042854	0.704943	-0.122253
C87	C	-0.042851	0.704939	-0.061897
C88	C	-0.000026	0.631016	0.005235
C89	C	-0.000022	0.631019	0.820294
C90	C	-0.000024	0.631020	0.884527
C91	C	-0.000025	0.441760	0.820289
C92	C	-0.000029	0.377529	0.884520
C93	C	0.219317	0.441750	0.631025
C94	C	0.293756	0.377515	0.631022
C95	C	0.219310	0.441753	0.820286
C96	C	0.293746	0.377519	0.884517
C97	C	-0.219338	0.820280	0.441778
C98	C	-0.293774	0.884514	0.377547
C99	C	-0.000003	0.820272	0.441776
C100	C	0.000001	0.884504	0.377544
C101	C	-0.219345	0.820282	0.631040
C102	C	-0.293785	0.884518	0.631042
C103	C	-0.042866	0.347366	0.877728
C104	C	-0.042886	0.287021	0.938075
C105	C	-0.000063	0.256837	1.005213
C106	C	0.042775	0.287006	1.012005
C107	C	0.042790	0.347353	0.951659
C108	C	0.371549	0.347349	0.667977
C109	C	0.441499	0.287001	0.667972
C110	C	0.433655	0.256817	0.631016
C111	C	0.355854	0.286990	0.594056
C112	C	0.285906	0.347340	0.594057
C113	C	0.285871	0.347356	0.951645
C114	C	0.355806	0.287009	1.012002
C115	C	0.433614	0.256823	1.005231
C116	C	0.441487	0.286992	0.938096
C117	C	0.371554	0.347341	0.877740
C118	C	-0.285899	0.914684	0.310420
C119	C	-0.355834	0.975049	0.250062
C120	C	-0.433642	1.005239	0.256833
C121	C	-0.441515	0.975066	0.323968
C122	C	-0.371582	0.914706	0.384324
C123	C	0.042831	0.914673	0.384337
C124	C	0.042831	0.975034	0.323990
C125	C	0.000006	1.005220	0.256851
C126	C	-0.042829	0.975049	0.250060
C127	C	-0.042834	0.914693	0.310406
C128	C	-0.285914	0.914683	0.668006
C129	C	-0.355851	0.975030	0.668022
C130	C	-0.433657	1.005216	0.631070
C131	C	-0.441526	0.975045	0.594105
C132	C	-0.371590	0.914695	0.594093
H133	H	-0.109908	-0.015059	0.536224
H134	H	-0.349407	0.999606	0.195404
H135	H	-0.077747	0.371941	0.823065
Cl136	Cl	0.096609	0.249048	1.096413
H137	H	0.077677	0.371904	0.957199
Cl138	Cl	-0.096740	0.249104	0.929521
H139	H	0.222522	0.371925	0.957171
H140	H	0.077709	0.890100	0.438999
H141	H	0.034228	0.003623	0.746783
Cl142	Cl	0.381432	0.385279	0.714445
H143	H	-0.563460	0.631008	0.725860
Cl144	Cl	0.000023	1.081095	0.180993
H145	H	-0.504886	0.999632	0.564019
Cl146	Cl	0.521524	0.180952	1.081115
Cl147	Cl	-0.161958	0.758844	-0.000976
H148	H	-0.222550	0.890107	0.304893
H149	H	0.109883	-0.095209	0.725852
H150	H	-0.130180	0.733765	0.134415
H151	H	-0.378010	0.890141	0.563990
H152	H	-0.436583	0.631020	0.725860
H153	H	0.504841	0.262442	0.698072
H154	H	0.077681	0.496907	0.438974
Cl155	Cl	-0.042616	0.153275	0.487042
H156	H	-0.077707	0.765118	0.195388
H157	H	-0.034261	0.258408	0.515293
Cl158	Cl	-0.136736	0.130948	0.513077
Cl159	Cl	-0.578931	0.631011	0.513054
Cl160	Cl	0.161918	0.503198	0.263044
H161	H	-0.077709	0.890131	0.304865
H162	H	-0.490580	1.054388	0.207682
Cl163	Cl	-0.136746	0.367029	0.513068
H164	H	-0.077695	0.765125	0.304881
Cl165	Cl	-0.421058	0.631010	0.513057
H166	H	-0.000081	0.207698	1.054345
Cl167	Cl	-0.096658	1.013002	0.165651
Cl168	Cl	0.096689	1.012948	0.332544
Cl169	Cl	0.096647	0.464175	0.332480
H170	H	-0.504875	0.999654	0.329473
Cl171	Cl	0.521599	0.180946	0.631022
Cl172	Cl	0.346006	0.249033	0.547601
Cl173	Cl	0.161913	0.503194	0.126820
H174	H	0.504848	0.262405	0.932594
Cl175	Cl	0.096642	0.464174	0.096409
H176	H	0.077680	0.496914	-0.042817
Cl177	Cl	0.345889	0.249091	1.096391
Cl178	Cl	0.188112	0.385251	0.547599
Cl179	Cl	-0.136735	0.503253	0.513056
H180	H	-0.077728	0.765126	-0.176914
H181	H	0.377977	0.371892	0.823084
H182	H	-0.378003	0.890142	0.438981
H183	H	-0.222566	0.890114	0.698097
H184	H	-0.349428	0.999589	0.698123
Cl185	Cl	0.136724	-0.241228	0.749002
H186	H	-0.490597	1.054358	0.631085
H187	H	-0.077725	0.765126	-0.067420
H188	H	0.109878	0.167598	0.725851
Cl189	Cl	0.042574	0.108752	0.775031
Cl190	Cl	0.136705	0.267308	0.748993
