data_functionalizedCrystal
_audit_creation_method	'MofGen! by Chris Wilmer'
_symmetry_space_group_name_H-M	'P1'
_symmetry_Int_Tables_number	1
_symmetry_cell_setting	triclinic
loop_
_symmetry_equiv_pos_as_xyz
  x,y,z
_cell_length_a	15.944480
_cell_length_b	23.532357
_cell_length_c	22.610064
_cell_angle_alpha	90.005049
_cell_angle_beta	90.000861
_cell_angle_gamma	96.850931
loop_
_atom_site_label
_atom_site_type_symbol
_atom_site_fract_x
_atom_site_fract_y
_atom_site_fract_z
O1	O	-1.113923	0.073247	-0.049179
O2	O	-0.613923	0.573247	0.450821
O3	O	-0.869287	0.082345	-0.049184
O4	O	-0.369287	0.582345	0.450816
O5	O	-0.999004	-0.005110	-0.049169
O6	O	-0.499004	0.494890	0.450831
O7	O	-0.984206	0.160703	-0.049194
O8	O	-0.484206	0.660703	0.450806
O9	O	-0.998995	-0.005088	0.049200
O10	O	-0.498995	0.494912	0.549200
O11	O	-0.869278	0.082368	0.049185
O12	O	-0.369278	0.582368	0.549185
O13	O	-1.113914	0.073270	0.049190
O14	O	-0.613914	0.573270	0.549190
Zn15	Zn	-0.991595	0.077822	0.064806
Zn16	Zn	-0.491595	0.577822	0.564806
Zn17	Zn	-0.991606	0.077793	-0.064800
Zn18	Zn	-0.491606	0.577793	0.435200
O19	O	-0.984197	0.160725	0.049175
O20	O	-0.484197	0.660725	0.549175
C21	C	-0.837990	0.081986	0.000000
C22	C	-0.337990	0.581986	0.500000
C23	C	-0.744751	0.080875	-0.000001
C24	C	-0.244751	0.580875	0.499999
C25	C	-0.998629	-0.026317	0.000017
C26	C	-0.498629	0.473683	0.500017
C27	C	-0.997516	-0.089539	0.000023
C28	C	-0.497516	0.410461	0.500023
C29	C	-0.508542	0.132358	-0.000010
C30	C	-0.008542	0.632358	0.499990
C31	C	-0.458220	0.104612	0.048497
C32	C	0.041780	0.604612	0.548497
C33	C	-0.574047	0.078816	-0.000001
C34	C	-0.074047	0.578816	0.499999
C35	C	-0.458234	0.104577	-0.048487
C36	C	0.041766	0.604577	0.451513
C37	C	-0.409153	0.076832	-0.000002
C38	C	0.090847	0.576832	0.499998
C39	C	-0.524953	0.051084	0.048547
C40	C	-0.024953	0.551084	0.548547
C41	C	-0.524970	0.051057	-0.048481
C42	C	-0.024970	0.551057	0.451519
C43	C	-0.474681	0.023272	0.000039
C44	C	0.025319	0.523272	0.500039
C45	C	-0.669037	0.079961	0.000001
C46	C	-0.169037	0.579961	0.500001
C47	C	-0.314166	0.075683	0.000000
C48	C	0.185834	0.575683	0.500000
C49	C	-0.990535	-0.481589	-0.053630
C50	C	-0.490535	0.018411	0.446370
C51	C	-0.989477	-0.540992	-0.053634
C52	C	-0.489477	-0.040992	0.446366
O53	O	-0.988906	-0.571721	-0.099236
O54	O	-0.488906	-0.071721	0.400764
N55	N	-0.988948	-0.570693	-0.000014
N56	N	-0.488948	-0.070693	0.499986
C57	C	-0.989468	-0.540987	0.053614
C58	C	-0.489468	-0.040987	0.553614
O59	O	-0.988919	-0.571704	0.099222
O60	O	-0.488919	-0.071704	0.599222
C61	C	-0.990519	-0.481584	0.053616
C62	C	-0.490519	0.018416	0.553616
C63	C	-0.991057	-0.451887	-0.000007
C64	C	-0.491057	0.048113	0.499993
C65	C	-0.991072	-0.451892	-0.107250
C66	C	-0.491072	0.048108	0.392750
C67	C	-0.992131	-0.392492	-0.107246
C68	C	-0.492131	0.107508	0.392754
C69	C	-0.992654	-0.362791	-0.053623
C70	C	-0.492654	0.137209	0.446377
C71	C	-0.992117	-0.392488	-0.000004
C72	C	-0.492117	0.107512	0.499996
C73	C	-0.991033	-0.451878	0.107243
C74	C	-0.491033	0.048122	0.607243
C75	C	-0.992084	-0.392471	0.107241
C76	C	-0.492084	0.107529	0.607241
C77	C	-0.992622	-0.362774	0.053617
C78	C	-0.492622	0.137226	0.553617
C79	C	-0.993698	-0.303387	0.053623
C80	C	-0.493698	0.196613	0.553623
N81	N	-0.994228	-0.273686	0.000003
N82	N	-0.494228	0.226314	0.500003
C83	C	-0.993706	-0.303388	-0.053620
C84	C	-0.493706	0.196612	0.446380
C85	C	-0.987257	-0.665737	0.053604
C86	C	-0.487257	-0.165737	0.553604
C87	C	-0.986211	-0.725139	0.053602
C88	C	-0.486211	-0.225139	0.553602
C89	C	-0.986219	-0.725140	-0.053646
C90	C	-0.486219	-0.225140	0.446354
C91	C	-0.987271	-0.665737	-0.053643
C92	C	-0.487271	-0.165737	0.446357
C93	C	-0.987787	-0.636036	-0.000017
C94	C	-0.487787	-0.136036	0.499983
C95	C	-0.995931	-0.178645	-0.053609
C96	C	-0.495931	0.321355	0.446391
C97	C	-0.996994	-0.119241	-0.053600
C98	C	-0.496994	0.380759	0.446400
C99	C	-0.996981	-0.119245	0.053647
C100	C	-0.496981	0.380755	0.553647
C101	C	-0.995923	-0.178644	0.053639
C102	C	-0.495923	0.321356	0.553639
C103	C	-0.995395	-0.208343	0.000006
C104	C	-0.495395	0.291657	0.500006
O105	O	-0.994267	-0.272620	0.099202
O106	O	-0.494267	0.227380	0.599202
O107	O	-0.994243	-0.272662	-0.099221
O108	O	-0.494243	0.227338	0.400779
C109	C	-0.145209	0.073637	0.000003
C110	C	0.354791	0.573637	0.500003
C111	C	-0.238444	0.074771	-0.000002
C112	C	0.261556	0.574771	0.499998
C113	C	-0.984572	0.181932	-0.000012
C114	C	-0.484572	0.681932	0.499988
C115	C	-0.985685	0.245154	-0.000022
C116	C	-0.485685	0.745154	0.499978
N117	N	-0.991593	0.077842	0.153258
N118	N	-0.491593	0.577842	0.653258
N119	N	-0.991615	0.077768	-0.153252
N120	N	-0.491615	0.577768	0.346748
C121	C	-0.934135	0.116520	0.438100
C122	C	-0.434135	0.616520	0.938100
C123	C	-0.934133	0.116526	0.376180
C124	C	-0.434133	0.616526	0.876180
O125	O	-0.885255	0.149436	0.344156
O126	O	-0.385255	0.649436	0.844156
N127	N	-0.991587	0.077819	0.345211
N128	N	-0.491587	0.577819	0.845211
C129	C	-1.049041	0.039101	0.376164
C130	C	-0.549041	0.539101	0.876164
O131	O	-1.097909	0.006178	0.344137
O132	O	-0.597909	0.506178	0.844137
C133	C	-1.049039	0.039093	0.438083
C134	C	-0.549039	0.539093	0.938083
C135	C	-0.991587	0.077806	0.469049
C136	C	-0.491587	0.577806	0.969049
C137	C	-0.876687	0.155229	0.469066
C138	C	-0.376687	0.655229	0.969066
C139	C	-0.876691	0.155224	0.530982
C140	C	-0.376691	0.655224	1.030982
C141	C	-0.934142	0.116510	0.561931
C142	C	-0.434142	0.616510	1.061931
C143	C	-0.991590	0.077801	0.530965
C144	C	-0.491590	0.577801	1.030965
C145	C	-1.106488	0.000372	0.469036
C146	C	-0.606488	0.500372	0.969036
C147	C	-1.106480	0.000368	0.530959
C148	C	-0.606480	0.500368	1.030959
C149	C	-1.049028	0.039081	0.561925
C150	C	-0.549028	0.539081	1.061925
C151	C	-1.049045	0.039082	0.623830
C152	C	-0.549045	0.539082	1.123830
N153	N	-0.991592	0.077788	0.654799
N154	N	-0.491592	0.577788	1.154799
C155	C	-0.934140	0.116502	0.623850
C156	C	-0.434140	0.616502	1.123850
C157	C	-1.049040	0.039120	0.246131
C158	C	-0.549040	0.539120	0.746131
C159	C	-1.049048	0.039130	0.184213
C160	C	-0.549048	0.539130	0.684213
C161	C	-0.934138	0.116554	0.184233
C162	C	-0.434138	0.616554	0.684233
C163	C	-0.934136	0.116546	0.246152
C164	C	-0.434136	0.616546	0.746152
C165	C	-0.991587	0.077826	0.277100
C166	C	-0.491587	0.577826	0.777100
C167	C	-0.934152	0.116489	0.753877
C168	C	-0.434152	0.616489	1.253877
C169	C	-0.934164	0.116483	0.815798
C170	C	-0.434164	0.616483	1.315798
C171	C	-1.049069	0.039057	0.815773
C172	C	-0.549069	0.539057	1.315773
C173	C	-1.049062	0.039065	0.753857
C174	C	-0.549062	0.539065	1.253857
C175	C	-0.991596	0.077784	0.722911
C176	C	-0.491596	0.577784	1.222911
O177	O	-1.097896	0.006187	0.655893
O178	O	-0.597896	0.506187	1.155893
O179	O	-0.885273	0.149415	0.655885
O180	O	-0.385273	0.649415	1.155885
H181	H	-0.429082	0.127233	0.089499
H182	H	0.070918	0.627233	0.589499
H183	H	-0.553974	0.028496	0.089597
H184	H	-0.053974	0.528496	0.589597
C185	C	-0.813496	0.197824	0.435028
C186	C	-0.313496	0.697824	0.935028
H187	H	-0.821714	0.192291	0.393715
H188	H	-0.321714	0.692291	0.893715
H189	H	-0.822299	0.235830	0.445194
H190	H	-0.322299	0.735830	0.945194
H191	H	-0.757487	0.191624	0.445174
H192	H	-0.257487	0.691624	0.945174
C193	C	-0.870920	0.159116	0.280209
C194	C	-0.370920	0.659116	0.780209
H195	H	-0.836701	0.182167	0.252903
H196	H	-0.336701	0.682167	0.752903
H197	H	-0.900908	0.182835	0.304377
H198	H	-0.400908	0.682835	0.804377
H199	H	-0.836132	0.138604	0.304349
H200	H	-0.336132	0.638604	0.804349
C201	C	-0.454319	-0.039073	0.000085
C202	C	0.045681	0.460927	0.500085
H203	H	-0.477390	-0.057994	0.034571
H204	H	0.022610	0.442006	0.534571
H205	H	-0.478186	-0.058231	-0.034039
H206	H	0.021814	0.441769	0.465961
H207	H	-0.394808	-0.039454	-0.000235
H208	H	0.105192	0.460546	0.499765
C209	C	-0.418892	0.135119	-0.103884
C210	C	0.081108	0.635119	0.396116
H211	H	-0.430219	0.173849	-0.103827
H212	H	0.069781	0.673849	0.396173
H213	H	-0.359560	0.133882	-0.103681
H214	H	0.140440	0.633882	0.396319
H215	H	-0.442642	0.116475	-0.138323
H216	H	0.057358	0.616475	0.361677
H217	H	-0.995497	-0.202819	-0.097282
H218	H	-0.495497	0.297181	0.402718
C219	C	-0.997551	-0.086565	0.112628
C220	C	-0.497551	0.413435	0.612628
H221	H	-0.998249	-0.046934	0.104945
H222	H	-0.498249	0.453066	0.604945
H223	H	-1.046362	-0.100647	0.134668
H224	H	-0.546362	0.399353	0.634668
H225	H	-0.948375	-0.091944	0.134654
H226	H	-0.448375	0.408056	0.634654
C227	C	-1.112257	-0.003528	0.849825
C228	C	-0.612257	0.496472	1.349825
H229	H	-1.104019	0.002012	0.891136
H230	H	-0.604019	0.502012	1.391136
H231	H	-1.168265	0.002666	0.839683
H232	H	-0.668265	0.502666	1.339683
H233	H	-1.103454	-0.041541	0.839672
H234	H	-0.603454	0.458459	1.339672
C235	C	-0.987855	-0.633075	-0.112629
C236	C	-0.487855	-0.133075	0.387371
H237	H	-0.987389	-0.659277	-0.144562
H238	H	-0.487389	-0.159277	0.355438
H239	H	-1.037253	-0.614251	-0.114859
H240	H	-0.537253	-0.114251	0.385141
H241	H	-0.939266	-0.605553	-0.114860
H242	H	-0.439266	-0.105553	0.385140
C243	C	-0.564362	0.020529	-0.103872
C244	C	-0.064362	0.520529	0.396128
H245	H	-0.541399	0.039608	-0.138304
H246	H	-0.041399	0.539608	0.361696
H247	H	-0.552179	-0.018011	-0.104215
H248	H	-0.052179	0.481989	0.395785
H249	H	-0.623818	0.021169	-0.103276
H250	H	-0.123818	0.521169	0.396724
H251	H	-0.997434	-0.095065	-0.097269
H252	H	-0.497434	0.404935	0.402731
H253	H	-0.995493	-0.202826	0.097304
H254	H	-0.495493	0.297174	0.597304
H255	H	-0.990597	-0.476048	0.150909
H256	H	-0.490597	0.023952	0.650909
C257	C	-0.813496	0.197810	0.565037
C258	C	-0.313496	0.697810	1.065037
H259	H	-0.779281	0.220863	0.537729
H260	H	-0.279281	0.720863	1.037729
H261	H	-0.843504	0.221525	0.589194
H262	H	-0.343504	0.721525	1.089194
H263	H	-0.778699	0.177314	0.589188
H264	H	-0.278699	0.677314	1.089188
C265	C	-1.112263	-0.003439	0.150154
C266	C	-0.612263	0.496561	0.650154
H267	H	-1.104048	0.002110	0.108844
H268	H	-0.604048	0.502110	0.608844
H269	H	-1.103487	-0.041456	0.160293
H270	H	-0.603487	0.458544	0.660293
H271	H	-1.168263	0.002775	0.160310
H272	H	-0.668263	0.502775	0.660310
H273	H	-0.992566	-0.368318	-0.150912
H274	H	-0.492566	0.131682	0.349088
H275	H	-1.095831	0.007590	0.271326
H276	H	-0.595831	0.507590	0.771326
C277	C	-0.529123	0.194654	0.000043
C278	C	-0.029123	0.694654	0.500043
H279	H	-0.506144	0.213601	0.034546
H280	H	-0.006144	0.713601	0.534546
H281	H	-0.505281	0.213850	-0.034064
H282	H	-0.005281	0.713850	0.465936
H283	H	-0.588651	0.194942	-0.000306
H284	H	-0.088651	0.694942	0.499694
H285	H	-1.153270	-0.031151	0.443832
H286	H	-0.653270	0.468849	0.943832
H287	H	-1.153263	-0.031165	0.556154
H288	H	-0.653263	0.468835	1.056154
C289	C	-0.990506	-0.484555	-0.166241
C290	C	-0.490506	0.015445	0.333759
H291	H	-0.990984	-0.458354	-0.198168
H292	H	-0.490984	0.041646	0.301832
H293	H	-0.941110	-0.503380	-0.168484
H294	H	-0.441110	-0.003380	0.331516
H295	H	-1.039097	-0.512077	-0.168469
H296	H	-0.539097	-0.012077	0.331531
H297	H	-0.992492	-0.368290	0.150912
H298	H	-0.492492	0.131710	0.650912
H299	H	-0.887357	0.148076	0.159023
H300	H	-0.387357	0.648076	0.659023
H301	H	-0.985791	-0.749334	-0.097309
H302	H	-0.485791	-0.249334	0.402691
H303	H	-0.887358	0.148017	0.728688
H304	H	-0.387358	0.648017	1.228688
H305	H	-0.985786	-0.749314	0.097267
H306	H	-0.485786	-0.249314	0.597267
H307	H	-1.095852	0.007547	0.728644
H308	H	-0.595852	0.507547	1.228644
C309	C	-0.870964	0.159066	0.849861
C310	C	-0.370964	0.659066	1.349861
H311	H	-0.879196	0.153525	0.891170
H312	H	-0.379196	0.653525	1.391170
H313	H	-0.814961	0.152867	0.839712
H314	H	-0.314961	0.652867	1.339712
H315	H	-0.879762	0.197081	0.839717
H316	H	-0.379762	0.697081	1.339717
C317	C	-0.987840	-0.633071	0.112597
C318	C	-0.487840	-0.133071	0.612597
H319	H	-0.987382	-0.659273	0.144527
H320	H	-0.487382	-0.159273	0.644527
H321	H	-0.939262	-0.605545	0.114833
H322	H	-0.439262	-0.105545	0.614833
H323	H	-1.037249	-0.614254	0.114829
H324	H	-0.537249	-0.114254	0.614829
