data_functionalizedCrystal
_audit_creation_method	'MofGen! by Chris Wilmer'
_symmetry_space_group_name_H-M	'P1'
_symmetry_Int_Tables_number	1
_symmetry_cell_setting	triclinic
loop_
_symmetry_equiv_pos_as_xyz
  x,y,z
_cell_length_a	27.732064
_cell_length_b	27.732048
_cell_length_c	7.681481
_cell_angle_alpha	84.300807
_cell_angle_beta	95.683562
_cell_angle_gamma	82.646040
loop_
_atom_site_label
_atom_site_type_symbol
_atom_site_fract_x
_atom_site_fract_y
_atom_site_fract_z
O1	O	0.636326	0.062156	-0.146138
O2	O	1.136326	0.562156	0.353862
O3	O	0.495532	0.070896	-0.146213
O4	O	0.995532	0.570896	0.353787
O5	O	0.570303	-0.003872	-0.146140
O6	O	1.070303	0.496128	0.353860
O7	O	0.561555	0.136924	-0.146211
O8	O	1.061555	0.636924	0.353789
O9	O	0.579506	-0.013095	0.146727
O10	O	1.079506	0.486905	0.646727
O11	O	0.504735	0.061673	0.146654
O12	O	1.004735	0.561673	0.646654
O13	O	0.645530	0.052933	0.146729
O14	O	1.145530	0.552933	0.646729
Zn15	Zn	0.576593	0.055838	0.193190
Zn16	Zn	1.076593	0.555838	0.693190
Zn17	Zn	0.564468	0.067990	-0.192674
Zn18	Zn	1.064468	0.567990	0.307326
O19	O	0.570758	0.127700	0.146655
O20	O	1.070758	0.627700	0.646655
C21	C	0.482126	0.066100	0.000211
C22	C	0.982126	0.566100	0.500211
C23	C	0.428471	0.065545	0.000184
C24	C	0.928471	0.565545	0.500184
C25	C	0.051402	0.017574	0.000309
C26	C	0.551402	0.517574	0.500309
C27	C	0.253061	0.019621	0.000262
C28	C	0.753061	0.519621	0.500262
O29	O	0.284316	-0.017602	0.000347
O30	O	0.784316	0.482398	0.500347
N31	N	0.272187	0.063957	0.000232
N32	N	0.772187	0.563957	0.500232
C33	C	0.240896	0.107783	0.000224
C34	C	0.740896	0.607783	0.500224
O35	O	0.261792	0.145539	0.000216
O36	O	0.761792	0.645539	0.500216
C37	C	0.039239	0.105734	0.000284
C38	C	0.539239	0.605734	0.500284
C39	C	0.020115	0.061396	0.000296
C40	C	0.520115	0.561396	0.500296
C41	C	0.032278	-0.026760	0.000323
C42	C	0.532278	0.473240	0.500323
C43	C	-0.018134	-0.027272	0.000325
C44	C	0.481866	0.472728	0.500325
C45	C	-0.049422	0.016551	0.000313
C46	C	0.450578	0.516551	0.500313
C47	C	-0.030297	0.060885	0.000299
C48	C	0.469703	0.560885	0.500299
C49	C	0.007949	0.149559	0.000289
C50	C	0.507949	0.649559	0.500289
C51	C	-0.042468	0.149043	0.000309
C52	C	0.457532	0.649043	0.500309
C53	C	-0.061592	0.104705	0.000321
C54	C	0.438408	0.604705	0.500321
C55	C	-0.111997	0.104197	0.000288
C56	C	0.388003	0.604197	0.500288
N57	N	-0.131123	0.059862	0.000319
N58	N	0.368877	0.559862	0.500319
C59	C	-0.099836	0.016039	0.000331
C60	C	0.400164	0.516039	0.500331
C61	C	0.346769	0.108855	0.000190
C62	C	0.846769	0.608855	0.500190
C63	C	0.397183	0.109368	0.000172
C64	C	0.897183	0.609368	0.500172
C65	C	0.409345	0.021206	0.000213
C66	C	0.909345	0.521206	0.500213
C67	C	0.358930	0.020694	0.000218
C68	C	0.858930	0.520694	0.500218
C69	C	0.327643	0.064520	0.000220
C70	C	0.827643	0.564520	0.500220
C71	C	-0.205705	0.014969	0.000334
C72	C	0.294295	0.514969	0.500334
C73	C	-0.256123	0.014462	0.000329
C74	C	0.243877	0.514462	0.500329
C75	C	-0.268279	0.102623	0.000297
C76	C	0.231721	0.602623	0.500297
C77	C	-0.217867	0.103131	0.000293
C78	C	0.282133	0.603131	0.500293
C79	C	-0.186580	0.059299	0.000317
C80	C	0.313420	0.559299	0.500317
O81	O	-0.143280	0.141400	0.000223
O82	O	0.356720	0.641400	0.500223
O83	O	-0.120740	-0.021713	0.000379
O84	O	0.379260	0.478287	0.500379
C85	C	0.101814	0.018085	0.000307
C86	C	0.601814	0.518085	0.500307
C87	C	0.120939	0.062419	0.000292
C88	C	0.620939	0.562419	0.500292
C89	C	0.089651	0.106242	0.000280
C90	C	0.589651	0.606242	0.500280
C91	C	0.171353	0.062931	0.000274
C92	C	0.671353	0.562931	0.500274
C93	C	0.202640	0.019108	0.000287
C94	C	0.702640	0.519108	0.500287
C95	C	0.183514	-0.025227	0.000317
C96	C	0.683514	0.474773	0.500317
C97	C	0.133102	-0.025738	0.000319
C98	C	0.633102	0.474262	0.500319
C99	C	0.108778	0.150577	0.000249
C100	C	0.608778	0.650577	0.500249
C101	C	0.159190	0.151085	0.000245
C102	C	0.659190	0.651085	0.500245
C103	C	0.190478	0.107262	0.000258
C104	C	0.690478	0.607262	0.500258
C105	C	0.574721	-0.026490	0.000299
C106	C	1.074721	0.473510	0.500299
C107	C	0.574169	-0.080146	0.000313
C108	C	1.074169	0.419854	0.500313
C109	C	0.614870	-0.418956	0.000244
C110	C	1.114870	0.081044	0.500244
C111	C	0.612818	-0.620615	0.000218
C112	C	1.112818	-0.120615	0.500218
O113	O	0.650037	-0.651867	0.000161
O114	O	1.150037	-0.151867	0.500161
N115	N	0.568483	-0.639741	0.000196
N116	N	1.068483	-0.139741	0.500196
C117	C	0.524657	-0.608448	0.000169
C118	C	1.024657	-0.108448	0.500169
O119	O	0.486899	-0.629342	0.000132
O120	O	0.986899	-0.129342	0.500132
C121	C	0.526708	-0.406789	0.000182
C122	C	1.026708	0.093211	0.500182
C123	C	0.571047	-0.387667	0.000222
C124	C	1.071047	0.112333	0.500222
C125	C	0.659205	-0.399833	0.000282
C126	C	1.159205	0.100167	0.500282
C127	C	0.659718	-0.349422	0.000298
C128	C	1.159718	0.150578	0.500298
C129	C	0.615896	-0.318133	0.000276
C130	C	1.115896	0.181867	0.500276
C131	C	0.571560	-0.337256	0.000238
C132	C	1.071560	0.162744	0.500238
C133	C	0.482883	-0.375497	0.000143
C134	C	0.982883	0.124503	0.500143
C135	C	0.483399	-0.325080	0.000141
C136	C	0.983399	0.174920	0.500141
C137	C	0.527738	-0.305958	0.000181
C138	C	1.027738	0.194042	0.500181
C139	C	0.528250	-0.255556	0.000232
C140	C	1.028250	0.244444	0.500232
N141	N	0.572586	-0.236430	0.000254
N142	N	1.072586	0.263570	0.500254
C143	C	0.616409	-0.267719	0.000276
C144	C	1.116409	0.232281	0.500276
C145	C	0.523583	-0.714322	0.000166
C146	C	1.023583	-0.214322	0.500166
C147	C	0.523070	-0.764736	0.000166
C148	C	1.023070	-0.264736	0.500166
C149	C	0.611231	-0.776900	0.000212
C150	C	1.111231	-0.276900	0.500212
C151	C	0.611744	-0.726485	0.000224
C152	C	1.111744	-0.226485	0.500224
C153	C	0.567918	-0.695196	0.000188
C154	C	1.067918	-0.195196	0.500188
C155	C	0.617482	-0.161851	0.000311
C156	C	1.117482	0.338149	0.500311
C157	C	0.617991	-0.111434	0.000335
C158	C	1.117991	0.388566	0.500335
C159	C	0.529830	-0.099275	0.000280
C160	C	1.029830	0.400725	0.500280
C161	C	0.529320	-0.149687	0.000265
C162	C	1.029320	0.350313	0.500265
C163	C	0.573150	-0.180974	0.000275
C164	C	1.073150	0.319026	0.500275
O165	O	0.491051	-0.224275	0.000270
O166	O	0.991051	0.275725	0.500270
O167	O	0.654160	-0.246814	0.000275
O168	O	1.154160	0.253186	0.500275
C169	C	0.614357	-0.469368	0.000228
C170	C	1.114357	0.030632	0.500228
C171	C	0.570022	-0.488490	0.000190
C172	C	1.070022	0.011510	0.500190
C173	C	0.526199	-0.457202	0.000168
C174	C	1.026199	0.042798	0.500168
C175	C	0.569509	-0.538905	0.000190
C176	C	1.069509	-0.038905	0.500190
C177	C	0.613331	-0.570193	0.000212
C178	C	1.113331	-0.070193	0.500212
C179	C	0.657667	-0.551068	0.000234
C180	C	1.157667	-0.051068	0.500234
C181	C	0.658180	-0.500656	0.000250
C182	C	1.158180	-0.000656	0.500250
C183	C	0.481864	-0.476327	0.000146
C184	C	0.981864	0.023673	0.500146
C185	C	0.481355	-0.526739	0.000132
C186	C	0.981355	-0.026739	0.500132
C187	C	0.525177	-0.558028	0.000154
C188	C	1.025177	-0.058028	0.500154
C189	C	0.658935	0.057729	0.000301
C190	C	1.158935	0.557729	0.500301
C191	C	0.712590	0.058285	0.000316
C192	C	1.212590	0.558285	0.500316
C193	C	0.566340	0.150319	0.000213
C194	C	1.066340	0.650319	0.500213
C195	C	0.566892	0.203975	0.000188
C196	C	1.066892	0.703975	0.500188
N197	N	0.584872	0.047545	0.456533
N198	N	1.084872	0.547545	0.956533
N199	N	0.556193	0.076280	-0.456017
N200	N	1.056193	0.576280	0.043983
H201	H	-0.180237	-0.020723	0.000353
H202	H	0.319763	0.479277	0.500353
O203	O	0.475249	-0.785361	0.000156
O204	O	0.975249	-0.285361	0.500156
H205	H	0.450461	-0.769005	-0.119230
H206	H	0.950461	-0.269005	0.380770
H207	H	0.695823	-0.333857	0.000323
H208	H	1.195823	0.166143	0.500323
H209	H	0.646913	-0.802384	0.000230
H210	H	1.146913	-0.302384	0.500230
H211	H	0.526916	0.105611	0.468758
H212	H	1.026916	0.605611	0.968758
H213	H	0.614154	0.018216	0.531767
H214	H	1.114154	0.518216	1.031767
H215	H	-0.271690	-0.021644	0.000334
H216	H	0.228310	0.478356	0.500334
H217	H	0.057748	-0.062448	0.000339
H218	H	0.557748	0.437552	0.500339
O219	O	-0.038753	-0.075096	0.000385
O220	O	0.461247	0.424904	0.500385
H221	H	-0.029912	-0.092381	-0.118959
H222	H	0.470088	0.407619	0.381041
O223	O	0.338304	-0.027127	0.000262
O224	O	0.838304	0.472873	0.500262
H225	H	0.368535	-0.057511	0.000280
H226	H	0.868535	0.442489	0.500280
H227	H	0.434828	-0.014476	0.000216
H228	H	0.934828	0.485524	0.500216
O229	O	0.704932	-0.584823	0.000257
O230	O	1.204932	-0.084823	0.500257
H231	H	0.729919	-0.581836	0.119646
H232	H	1.229919	-0.081836	0.619646
H233	H	0.412749	0.145472	0.000137
H234	H	0.912749	0.645472	0.500137
O235	O	0.476309	-0.680581	0.000165
O236	O	0.976309	-0.180581	0.500165
H237	H	0.451318	-0.683582	-0.119197
H238	H	0.951318	-0.183582	0.380803
O239	O	0.313026	0.156127	0.000179
O240	O	0.813026	0.656127	0.500179
H241	H	0.334800	0.187038	0.000138
H242	H	0.834800	0.687038	0.500138
O243	O	0.435059	-0.396115	0.000093
O244	O	0.935059	0.103885	0.500093
H245	H	0.404677	-0.365880	0.000056
H246	H	0.904677	0.134120	0.500056
H247	H	0.023510	0.185664	0.000271
H248	H	0.523510	0.685664	0.500271
H249	H	0.174755	0.187193	0.000222
H250	H	0.674755	0.687193	0.500222
O251	O	-0.076215	0.196313	0.000301
O252	O	0.423785	0.696313	0.500301
H253	H	-0.054443	0.227226	0.000276
H254	H	0.445557	0.727226	0.500276
H255	H	0.446177	-0.450856	0.000125
H256	H	0.946177	0.049144	0.500125
O257	O	-0.197235	0.150950	0.000273
O258	O	0.302765	0.650950	0.500273
H259	H	-0.227463	0.181336	0.000273
H260	H	0.272537	0.681336	0.500273
O261	O	0.659566	-0.705861	0.000256
O262	O	1.159566	-0.205861	0.500256
H263	H	0.658157	-0.679419	-0.119108
H264	H	1.158157	-0.179419	0.380892
H265	H	0.117536	-0.061842	0.000330
H266	H	0.617536	0.438158	0.500330
O267	O	-0.302028	0.149887	0.000312
O268	O	0.197972	0.649887	0.500312
H269	H	-0.340295	0.142078	0.000346
H270	H	0.159705	0.642078	0.500346
O271	O	0.706005	-0.480039	0.000269
O272	O	1.206005	0.019961	0.500269
H273	H	0.712108	-0.461130	0.119646
H274	H	1.212108	0.038870	0.619646
H275	H	0.208997	-0.060909	0.000317
H276	H	0.708997	0.439091	0.500317
O277	O	0.075034	0.197845	0.000228
O278	O	0.575034	0.697845	0.500228
H279	H	0.096808	0.228757	0.000195
H280	H	0.596808	0.728757	0.500195
O281	O	0.665815	-0.090808	0.000350
O282	O	1.165815	0.409192	0.500350
H283	H	0.696199	-0.121037	0.000336
H284	H	1.196199	0.378963	0.500336
O285	O	0.664755	-0.195593	0.000348
O286	O	1.164755	0.304407	0.500348
H287	H	0.695667	-0.173820	0.000398
H288	H	1.195667	0.326180	0.500398
H289	H	0.694893	-0.425304	0.000293
H290	H	1.194893	0.074696	0.500293
O291	O	0.436130	-0.291332	0.000123
O292	O	0.936130	0.208668	0.500123
H293	H	0.405216	-0.313103	0.000113
H294	H	0.905216	0.186897	0.500113
O295	O	0.481502	-0.170320	0.000243
O296	O	0.981502	0.329680	0.500243
H297	H	0.456713	-0.153962	-0.119139
H298	H	0.956713	0.346038	0.380861
H299	H	0.494151	-0.073791	0.000268
H300	H	0.994151	0.426209	0.500268
H301	H	0.445246	-0.542304	0.000115
H302	H	0.945246	-0.042304	0.500115
