data_functionalizedCrystal
_audit_creation_method	'MofGen! by Chris Wilmer'
_symmetry_space_group_name_H-M	'P1'
_symmetry_Int_Tables_number	1
_symmetry_cell_setting	triclinic
loop_
_symmetry_equiv_pos_as_xyz
  x,y,z
_cell_length_a	18.215407
_cell_length_b	25.639239
_cell_length_c	25.639234
_cell_angle_alpha	90.021106
_cell_angle_beta	90.011142
_cell_angle_gamma	90.039134
loop_
_atom_site_label
_atom_site_type_symbol
_atom_site_fract_x
_atom_site_fract_y
_atom_site_fract_z
Zn1	Zn	1.124938	-0.208196	0.295622
Zn2	Zn	1.458272	0.125137	0.628955
Zn3	Zn	1.791605	0.458471	0.962289
Zn4	Zn	1.124836	-0.295618	0.208186
Zn5	Zn	1.458169	0.037715	0.541520
Zn6	Zn	1.791502	0.371048	0.874853
Zn7	Zn	1.001889	-0.208199	0.208199
Zn8	Zn	1.335223	0.125134	0.541533
Zn9	Zn	1.668556	0.458467	0.874866
Zn10	Zn	1.001807	-0.295603	0.295589
Zn11	Zn	1.335140	0.037730	0.628923
Zn12	Zn	1.668474	0.371064	0.962256
O13	O	1.063368	-0.251904	0.251899
O14	O	1.396701	0.081429	0.585233
O15	O	1.730034	0.414762	0.918566
O16	O	1.227909	-0.219798	0.284032
O17	O	1.561242	0.113536	0.617365
O18	O	1.894576	0.446869	0.950698
O19	O	1.108518	-0.284030	0.135023
O20	O	1.441851	0.049303	0.468356
O21	O	1.775185	0.382637	0.801689
O22	O	1.018290	-0.135034	0.219815
O23	O	1.351623	0.198300	0.553148
O24	O	1.684956	0.531633	0.886482
O25	O	1.227834	-0.284027	0.219793
O26	O	1.561167	0.049307	0.553126
O27	O	1.894500	0.382640	0.886460
O28	O	1.108693	-0.135031	0.284044
O29	O	1.442026	0.198302	0.617378
O30	O	1.775360	0.531635	0.950711
O31	O	1.018190	-0.219804	0.135032
O32	O	1.351523	0.113530	0.468366
O33	O	1.684857	0.446863	0.801699
O34	O	0.898894	-0.219789	0.219783
O35	O	1.232228	0.113545	0.553117
O36	O	1.565561	0.446878	0.886450
O37	O	1.018149	-0.284000	0.368759
O38	O	1.351482	0.049333	0.702092
O39	O	1.684816	0.382666	1.035426
O40	O	0.898834	-0.284004	0.283989
O41	O	1.232167	0.049330	0.617322
O42	O	1.565500	0.382663	0.950655
O43	O	1.108613	-0.219783	0.368783
O44	O	1.441946	0.113551	0.702116
O45	O	1.775280	0.446884	1.035450
O46	O	1.108438	-0.368782	0.219761
O47	O	1.441772	-0.035448	0.553095
O48	O	1.775105	0.297885	0.886428
O49	O	1.018050	-0.368770	0.283976
O50	O	1.351383	-0.035437	0.617309
O51	O	1.684716	0.297896	0.950643
C52	C	0.872161	-0.251895	0.251884
C53	C	1.205495	0.081438	0.585218
C54	C	1.538828	0.414771	0.918551
C55	C	0.790362	-0.251904	0.251890
C56	C	1.123696	0.081429	0.585224
C57	C	1.457029	0.414763	0.918557
C58	C	0.602156	-0.285393	0.285280
C59	C	0.935490	0.047940	0.618613
C60	C	1.268823	0.381273	0.951947
C61	C	0.525297	-0.285395	0.285286
C62	C	0.858631	0.047938	0.618620
C63	C	1.191964	0.381272	0.951953
C64	C	0.525331	-0.218425	0.218530
C65	C	0.858664	0.114909	0.551863
C66	C	1.191998	0.448242	0.885197
C67	C	0.602188	-0.218421	0.218526
C68	C	0.935522	0.114913	0.551860
C69	C	1.268855	0.448246	0.885193
C70	C	0.640599	-0.251908	0.251901
C71	C	0.973932	0.081425	0.585234
C72	C	1.307266	0.414759	0.918567
C73	C	0.486883	-0.251914	0.251911
C74	C	0.820216	0.081420	0.585244
C75	C	1.153550	0.414753	0.918577
C76	C	0.403549	-0.251915	0.251917
C77	C	0.736883	0.081418	0.585251
C78	C	1.070216	0.414752	0.918584
C79	C	0.723938	-0.251906	0.251895
C80	C	1.057271	0.081427	0.585228
C81	C	1.390605	0.414761	0.918561
C82	C	1.063244	-0.387747	0.251875
C83	C	1.396577	-0.054413	0.585209
C84	C	1.729910	0.278920	0.918542
C85	C	1.063258	-0.445861	0.251883
C86	C	1.396592	-0.112528	0.585216
C87	C	1.729925	0.220806	0.918549
C88	C	1.110556	-0.806217	0.218520
C89	C	1.443889	-0.472884	0.551853
C90	C	1.777222	-0.139551	0.885186
C91	C	1.110584	-0.860821	0.218527
C92	C	1.443918	-0.527488	0.551860
C93	C	1.777251	-0.194155	0.885193
O94	O	1.150670	-0.889053	0.190134
O95	O	1.484003	-0.555719	0.523467
O96	O	1.817337	-0.222386	0.856801
N97	N	1.063497	-0.888143	0.251934
N98	N	1.396830	-0.554810	0.585267
N99	N	1.730164	-0.221477	0.918601
C100	C	1.016383	-0.860858	0.285340
C101	C	1.349717	-0.527525	0.618673
C102	C	1.683050	-0.194191	0.952007
O103	O	0.976335	-0.889111	0.313757
O104	O	1.309668	-0.555778	0.647090
O105	O	1.643002	-0.222444	0.980423
C106	C	1.016359	-0.806255	0.285335
C107	C	1.349692	-0.472921	0.618669
C108	C	1.683026	-0.139588	0.952002
C109	C	1.063444	-0.778936	0.251922
C110	C	1.396778	-0.445602	0.585255
C111	C	1.730111	-0.112269	0.918589
C112	C	1.157638	-0.778898	0.185110
C113	C	1.490971	-0.445565	0.518443
C114	C	1.824304	-0.112232	0.851776
C115	C	1.157608	-0.724298	0.185102
C116	C	1.490941	-0.390964	0.518435
C117	C	1.824275	-0.057631	0.851769
C118	C	1.110496	-0.697016	0.218505
C119	C	1.443830	-0.363683	0.551838
C120	C	1.777163	-0.030349	0.885171
C121	C	1.063414	-0.724335	0.251915
C122	C	1.396748	-0.391002	0.585248
C123	C	1.730081	-0.057668	0.918581
C124	C	0.969250	-0.778970	0.318744
C125	C	1.302583	-0.445637	0.652077
C126	C	1.635916	-0.112303	0.985410
C127	C	0.969230	-0.724363	0.318736
C128	C	1.302563	-0.391030	0.652070
C129	C	1.635897	-0.057696	0.985403
C130	C	1.016315	-0.697044	0.285323
C131	C	1.349648	-0.363711	0.618657
C132	C	1.682982	-0.030378	0.951990
C133	C	1.016273	-0.642453	0.285310
C134	C	1.349607	-0.309120	0.618643
C135	C	1.682940	0.024214	0.951976
N136	N	1.063361	-0.615131	0.251902
N137	N	1.396694	-0.281798	0.585236
N138	N	1.730027	0.051535	0.918569
C139	C	1.110472	-0.642413	0.218500
C140	C	1.443805	-0.309079	0.551833
C141	C	1.777139	0.024254	0.885166
C142	C	1.016439	-0.975528	0.285348
C143	C	1.349772	-0.642195	0.618681
C144	C	1.683105	-0.308862	0.952015
C145	C	1.016459	-1.030131	0.285351
C146	C	1.349792	-0.696797	0.618684
C147	C	1.683125	-0.363464	0.952017
C148	C	1.110661	-1.030091	0.218538
C149	C	1.443994	-0.696757	0.551871
C150	C	1.777328	-0.363424	0.885204
C151	C	1.110637	-0.975487	0.218533
C152	C	1.443970	-0.642154	0.551866
C153	C	1.777303	-0.308821	0.885200
C154	C	1.063526	-0.948207	0.251941
C155	C	1.396859	-0.614873	0.585274
C156	C	1.730193	-0.281540	0.918608
C157	C	1.110406	-0.527748	0.218486
C158	C	1.443739	-0.194414	0.551819
C159	C	1.777072	0.138919	0.885153
C160	C	1.110370	-0.473142	0.218480
C161	C	1.443703	-0.139809	0.551813
C162	C	1.777036	0.193524	0.885147
C163	C	1.016171	-0.473187	0.285295
C164	C	1.349504	-0.139854	0.618628
C165	C	1.682837	0.193479	0.951961
C166	C	1.016204	-0.527788	0.285299
C167	C	1.349537	-0.194455	0.618632
C168	C	1.682870	0.138879	0.951966
C169	C	1.063327	-0.555067	0.251893
C170	C	1.396660	-0.221733	0.585226
C171	C	1.729994	0.111600	0.918560
O172	O	0.976210	-0.614187	0.313689
O173	O	1.309543	-0.280854	0.647022
O174	O	1.642877	0.052479	0.980356
O175	O	1.150521	-0.614153	0.190093
O176	O	1.483854	-0.280820	0.523426
O177	O	1.817187	0.052514	0.856760
C178	C	1.255320	-0.251914	0.251915
C179	C	1.588654	0.081420	0.585248
C180	C	1.921987	0.414753	0.918581
C181	C	1.337119	-0.251918	0.251921
C182	C	1.670453	0.081416	0.585254
C183	C	2.003786	0.414749	0.918588
C184	C	1.063383	-0.251889	0.388272
C185	C	1.396717	0.081444	0.721606
C186	C	1.730050	0.414777	1.054939
C187	C	1.063390	-0.251883	0.446386
C188	C	1.396723	0.081450	0.779720
C189	C	1.730057	0.414784	1.113053
C190	C	1.063512	-0.115531	0.251935
C191	C	1.396845	0.217802	0.585268
C192	C	1.730179	0.551136	0.918601
C193	C	1.063573	-0.057417	0.251950
C194	C	1.396907	0.275916	0.585283
C195	C	1.730240	0.609250	0.918616
C196	C	1.063394	-0.251881	0.116057
C197	C	1.396728	0.081452	0.449390
C198	C	1.730061	0.414785	0.782723
C199	C	1.063530	-0.251740	0.057943
C200	C	1.396864	0.081593	0.391276
C201	C	1.730197	0.414926	0.724610
C202	C	1.016335	-0.285255	0.697562
C203	C	1.349668	0.048078	1.030895
C204	C	1.683001	0.381411	1.364228
C205	C	1.016322	-0.285267	0.642957
C206	C	1.349655	0.048066	0.976291
C207	C	1.682988	0.381399	1.309624
O208	O	0.976243	-0.313694	0.614705
O209	O	1.309576	0.019640	0.948039
O210	O	1.642910	0.352973	1.281372
N211	N	1.063418	-0.251841	0.615660
N212	N	1.396751	0.081492	0.948994
N213	N	1.730085	0.414826	1.282327
C214	C	1.110525	-0.218397	0.642970
C215	C	1.443859	0.114936	0.976304
C216	C	1.777192	0.448270	1.309637
O217	O	1.150583	-0.189966	0.614738
O218	O	1.483916	0.143367	0.948071
O219	O	1.817249	0.476701	1.281405
C220	C	1.110534	-0.218383	0.697574
C221	C	1.443867	0.114950	1.030907
C222	C	1.777200	0.448284	1.364240
C223	C	1.063440	-0.251815	0.724868
C224	C	1.396773	0.081518	1.058201
C225	C	1.730106	0.414852	1.391535
C226	C	0.969244	-0.318685	0.724856
C227	C	1.302577	0.014649	1.058189
C228	C	1.635910	0.347982	1.391523
C229	C	0.969258	-0.318673	0.779457
C230	C	1.302591	0.014660	1.112790
C231	C	1.635924	0.347993	1.446123
C232	C	1.016363	-0.285233	0.806763
C233	C	1.349696	0.048100	1.140096
C234	C	1.683029	0.381434	1.473430
C235	C	1.063454	-0.251804	0.779469
C236	C	1.396787	0.081529	1.112802
C237	C	1.730120	0.414863	1.446135
C238	C	1.157637	-0.184937	0.724883
C239	C	1.490970	0.148397	1.058216
C240	C	1.824303	0.481730	1.391550
C241	C	1.157641	-0.184925	0.779490
C242	C	1.490974	0.148408	1.112823
C243	C	1.824308	0.481741	1.446157
C244	C	1.110547	-0.218357	0.806784
C245	C	1.443880	0.114976	1.140117
C246	C	1.777213	0.448309	1.473451
C247	C	1.110573	-0.218352	0.861375
C248	C	1.443906	0.114981	1.194709
C249	C	1.777239	0.448314	1.528042
N250	N	1.063476	-0.251779	0.888672
N251	N	1.396810	0.081555	1.222006
N252	N	1.730143	0.414888	1.555339
C253	C	1.016371	-0.285219	0.861366
C254	C	1.349705	0.048114	1.194700
C255	C	1.683038	0.381448	1.528033
C256	C	1.110502	-0.218428	0.528300
C257	C	1.443836	0.114905	0.861633
C258	C	1.777169	0.448238	1.194966
C259	C	1.110498	-0.218445	0.473697
C260	C	1.443831	0.114889	0.807031
C261	C	1.777165	0.448222	1.140364
C262	C	1.016293	-0.285314	0.473688
C263	C	1.349627	0.048019	0.807021
C264	C	1.682960	0.381352	1.140355
C265	C	1.016302	-0.285300	0.528291
C266	C	1.349635	0.048033	0.861625
C267	C	1.682969	0.381366	1.194958
C268	C	1.063406	-0.251855	0.555597
C269	C	1.396739	0.081479	0.888930
C270	C	1.730073	0.414812	1.222263
C271	C	1.016405	-0.285193	0.976031
C272	C	1.349738	0.048140	1.309365
C273	C	1.683071	0.381473	1.642698
C274	C	1.016425	-0.285181	1.030637
C275	C	1.349759	0.048153	1.363970
C276	C	1.683092	0.381486	1.697303
C277	C	1.110627	-0.218309	1.030641
C278	C	1.443960	0.115024	1.363975
C279	C	1.777294	0.448358	1.697308
C280	C	1.110610	-0.218323	0.976041
C281	C	1.443943	0.115010	1.309374
C282	C	1.777276	0.448343	1.642707
C283	C	1.063493	-0.251767	0.948737
C284	C	1.396826	0.081566	1.282070
C285	C	1.730159	0.414899	1.615404
O286	O	1.150629	-0.189939	0.889662
O287	O	1.483962	0.143395	1.222996
O288	O	1.817296	0.476728	1.556329
O289	O	0.976314	-0.313640	0.889605
O290	O	1.309647	0.019693	1.222938
O291	O	1.642980	0.353026	1.556272
H292	H	0.494001	-0.312661	0.312468
H293	H	0.827334	0.020672	0.645801
H294	H	1.160667	0.354005	0.979135
H295	H	0.978075	-0.312407	1.052857
H296	H	1.311408	0.020926	1.386191
H297	H	1.644742	0.354260	1.719524
H298	H	0.633489	-0.191150	0.191345
H299	H	0.966823	0.142184	0.524678
H300	H	1.300156	0.475517	0.858012
H301	H	0.494048	-0.191161	0.191357
H302	H	0.827381	0.142172	0.524690
H303	H	1.160714	0.475505	0.858024
H304	H	0.977953	-0.312523	0.550511
H305	H	1.311286	0.020810	0.883844
H306	H	1.644620	0.354143	1.217177
H307	H	1.148712	-0.450901	0.191269
H308	H	1.482045	-0.117568	0.524603
H309	H	1.815379	0.215766	0.857936
N310	N	1.208432	-0.148877	0.695453
N311	N	1.541765	0.184456	1.028786
N312	N	1.875099	0.517789	1.362120
H313	H	1.238266	-0.127692	0.721045
H314	H	1.571600	0.205641	1.054378
H315	H	1.904933	0.538974	1.387711
H316	H	1.178497	-0.124684	0.672801
H317	H	1.511830	0.208650	1.006135
H318	H	1.845163	0.541983	1.339468
N319	N	1.161224	-0.557170	0.182456
N320	N	1.494557	-0.223836	0.515789
N321	N	1.827891	0.109497	0.849122
H322	H	1.213793	-0.547622	0.190606
H323	H	1.547127	-0.214288	0.523940
H324	H	1.880460	0.119045	0.857273
H325	H	1.149759	-0.547680	0.145106
H326	H	1.483092	-0.214346	0.478439
H327	H	1.816426	0.118987	0.811773
H328	H	0.930868	-0.702154	0.345943
H329	H	1.264201	-0.368820	0.679276
H330	H	1.597534	-0.035487	1.012609
H331	H	1.148978	-0.953247	0.191325
H332	H	1.482311	-0.619914	0.524659
H333	H	1.815644	-0.286581	0.857992
H334	H	0.978031	-0.312422	0.953807
H335	H	1.311364	0.020912	1.287140
H336	H	1.644698	0.354245	1.620474
H337	H	1.195951	-0.702058	0.157896
H338	H	1.529284	-0.368724	0.491229
H339	H	1.862617	-0.035391	0.824562
N340	N	1.208451	-0.808321	0.149079
N341	N	1.541784	-0.474988	0.482412
N342	N	1.875117	-0.141655	0.815746
H343	H	1.261020	-0.798775	0.157230
H344	H	1.594353	-0.465442	0.490564
H345	H	1.927687	-0.132108	0.823897
H346	H	1.196985	-0.798827	0.111731
H347	H	1.530318	-0.465493	0.445064
H348	H	1.863652	-0.132160	0.778397
H349	H	1.149024	-1.052313	0.191341
H350	H	1.482358	-0.718980	0.524675
H351	H	1.815691	-0.385647	0.858008
N352	N	0.965662	-1.059593	0.321380
N353	N	1.298995	-0.726260	0.654713
N354	N	1.632328	-0.392927	0.988046
H355	H	0.935814	-1.034020	0.342536
H356	H	1.269147	-0.700687	0.675869
H357	H	1.602480	-0.367353	1.009203
H358	H	0.995599	-1.082215	0.345602
H359	H	1.328932	-0.748882	0.678935
H360	H	1.662266	-0.415548	1.012268
N361	N	1.161411	-0.182272	0.946598
N362	N	1.494744	0.151061	1.279931
N363	N	1.828078	0.484394	1.613264
H364	H	1.191256	-0.161088	0.972184
H365	H	1.524589	0.172245	1.305517
H366	H	1.857923	0.505578	1.638851
H367	H	1.131474	-0.158077	0.923949
H368	H	1.464808	0.175256	1.257282
H369	H	1.798141	0.508589	1.590615
H370	H	0.930880	-0.345915	0.702629
H371	H	1.264214	-0.012582	1.035962
H372	H	1.597547	0.320751	1.369296
N373	N	0.965618	-0.946106	0.321379
N374	N	1.298951	-0.612773	0.654712
N375	N	1.632284	-0.279439	0.988045
H376	H	0.935794	-0.971704	0.342539
H377	H	1.269127	-0.638370	0.675873
H378	H	1.602461	-0.305037	1.009206
H379	H	0.931570	-0.923486	0.300071
H380	H	1.264904	-0.590153	0.633405
H381	H	1.598237	-0.256820	0.966738
H382	H	0.930904	-0.801204	0.345950
H383	H	1.264238	-0.467871	0.679283
H384	H	1.597571	-0.134537	1.012617
H385	H	0.633428	-0.312660	0.312457
H386	H	0.966761	0.020674	0.645790
H387	H	1.300095	0.354007	0.979123
H388	H	1.148855	-0.191226	0.451479
H389	H	1.482188	0.142107	0.784812
H390	H	1.815522	0.475440	1.118146
H391	H	0.930907	-0.345896	0.801675
H392	H	1.264240	-0.012563	1.135008
H393	H	1.597573	0.320771	1.468341
N394	N	0.965485	-0.321383	0.444231
N395	N	1.298818	0.011950	0.777564
N396	N	1.632152	0.345283	1.110898
H397	H	0.972628	-0.316315	0.405499
H398	H	1.305961	0.017018	0.738833
H399	H	1.639294	0.350351	1.072166
H400	H	0.912935	-0.313240	0.453772
H401	H	1.246269	0.020093	0.787106
H402	H	1.579602	0.353427	1.120439
H403	H	0.977865	-0.550032	0.312508
H404	H	1.311199	-0.216699	0.645842
H405	H	1.644532	0.116635	0.979175
N406	N	0.965355	-0.443757	0.321317
N407	N	1.298688	-0.110424	0.654650
N408	N	1.632021	0.222910	0.987984
H409	H	0.972486	-0.405021	0.316240
H410	H	1.305820	-0.071688	0.649573
H411	H	1.639153	0.261645	0.982907
H412	H	0.976776	-0.453272	0.358667
H413	H	1.310109	-0.119938	0.692000
H414	H	1.643443	0.213395	1.025334
H415	H	1.148866	-0.191193	0.550528
H416	H	1.482199	0.142140	0.883862
H417	H	1.815533	0.475473	1.217195
H418	H	1.195996	-0.157687	0.801719
H419	H	1.529330	0.175647	1.135052
H420	H	1.862663	0.508980	1.468386
N421	N	1.161433	-0.182244	1.060098
N422	N	1.494766	0.151090	1.393432
N423	N	1.828099	0.484423	1.726765
H424	H	1.154289	-0.187311	1.098830
H425	H	1.487622	0.146023	1.432163
H426	H	1.820955	0.479356	1.765497
H427	H	1.150012	-0.144905	1.050560
H428	H	1.483345	0.188429	1.383894
H429	H	1.816679	0.521762	1.717227
