data_functionalizedCrystal
_audit_creation_method	'MofGen! by Chris Wilmer'
_symmetry_space_group_name_H-M	'P1'
_symmetry_Int_Tables_number	1
_symmetry_cell_setting	triclinic
loop_
_symmetry_equiv_pos_as_xyz
  x,y,z
_cell_length_a	11.169417
_cell_length_b	14.908520
_cell_length_c	11.169409
_cell_angle_alpha	86.739668
_cell_angle_beta	90.019513
_cell_angle_gamma	93.321755
loop_
_atom_site_label
_atom_site_type_symbol
_atom_site_fract_x
_atom_site_fract_y
_atom_site_fract_z
Zn1	Zn	1.807299	-0.359054	0.706049
Zn2	Zn	1.795563	-0.509946	0.516930
Zn3	Zn	1.606581	-0.359110	0.505389
Zn4	Zn	1.594972	-0.509873	0.717571
O5	O	1.701104	-0.434496	0.611485
O6	O	1.973691	-0.379077	0.680971
O7	O	1.770440	-0.489991	0.347453
O8	O	1.642976	-0.232858	0.522356
O9	O	1.965069	-0.489937	0.542025
O10	O	1.790443	-0.232817	0.669780
O11	O	1.631596	-0.379172	0.338974
O12	O	1.437092	-0.379102	0.533527
O13	O	1.623192	-0.489813	0.883988
O14	O	1.428563	-0.489867	0.689416
O15	O	1.779187	-0.379007	0.875523
O16	O	1.759184	-0.636180	0.553197
O17	O	1.611812	-0.636127	0.700607
C18	C	1.389280	-0.434484	0.611470
C19	C	1.255879	-0.434500	0.611494
C20	C	1.682997	-0.668887	0.629431
C21	C	1.675361	-0.769161	0.637148
C22	C	1.814629	-0.957580	0.498276
C23	C	1.807459	-1.051796	0.505523
C24	C	1.653856	-1.051811	0.658895
C25	C	1.661027	-0.957595	0.651648
C26	C	1.741415	-0.910483	0.571334
C27	C	1.748579	-0.816265	0.564082
C28	C	1.594983	-0.816281	0.717459
C29	C	1.587812	-0.910497	0.724706
C30	C	2.014145	-0.434509	0.611500
C31	C	2.147545	-0.434514	0.611507
C32	C	1.701204	-0.434395	0.924520
C33	C	1.701246	-0.434353	1.057917
C34	C	1.719313	-0.199189	0.593495
C35	C	1.727073	-0.098915	0.585829
C36	C	1.701078	-0.434530	0.299663
C37	C	1.701288	-0.434319	0.166247
H38	H	1.814032	-0.777907	0.498683
O39	O	1.892807	-0.911950	0.420228
C40	C	2.044328	-0.921875	0.268793
C41	C	1.955868	-0.973661	0.357154
H42	H	2.095319	-0.971746	0.217756
H43	H	2.110499	-0.877712	0.320488
H44	H	1.992583	-0.877817	0.202658
H45	H	2.007513	-1.017768	0.423310
H46	H	1.889698	-1.017767	0.305381
O47	O	1.878740	-1.097571	0.434746
C48	C	2.032718	-1.203833	0.426989
C49	C	1.952052	-1.152044	0.507273
H50	H	2.091993	-1.247901	0.485594
H51	H	2.091486	-1.153996	0.368397
H52	H	1.974320	-1.247992	0.367528
H53	H	2.010357	-1.107884	0.566807
H54	H	1.893276	-1.201930	0.565785
O55	O	1.523681	-0.770569	0.788306
C56	C	1.321675	-0.741891	0.844202
C57	C	1.402286	-0.793701	0.763889
H58	H	1.223511	-0.760588	0.824508
H59	H	1.340501	-0.666448	0.825217
H60	H	1.341348	-0.760327	0.942411
H61	H	1.382660	-0.775339	0.665654
H62	H	1.383446	-0.869130	0.782976
H63	H	1.588416	-1.090186	0.724290
H64	H	1.522365	-0.948869	0.790098
