data_functionalizedCrystal
_audit_creation_method	'MofGen! by Chris Wilmer'
_symmetry_space_group_name_H-M	'P1'
_symmetry_Int_Tables_number	1
_symmetry_cell_setting	triclinic
loop_
_symmetry_equiv_pos_as_xyz
  x,y,z
_cell_length_a	19.121112
_cell_length_b	21.295417
_cell_length_c	19.120904
_cell_angle_alpha	92.409419
_cell_angle_beta	90.088845
_cell_angle_gamma	87.583854
loop_
_atom_site_label
_atom_site_type_symbol
_atom_site_fract_x
_atom_site_fract_y
_atom_site_fract_z
Zn1	Zn	1.054818	-0.307921	-0.442026
Zn2	Zn	1.388152	0.025412	-0.108692
Zn3	Zn	1.721485	0.358746	0.224641
Zn4	Zn	1.059729	-0.408895	-0.324781
Zn5	Zn	1.393062	-0.075562	0.008552
Zn6	Zn	1.726396	0.257772	0.341886
Zn7	Zn	0.942588	-0.298967	-0.319812
Zn8	Zn	1.275921	0.034366	0.013522
Zn9	Zn	1.609255	0.367699	0.346855
Zn10	Zn	0.937541	-0.408472	-0.436985
Zn11	Zn	1.270874	-0.075139	-0.103652
Zn12	Zn	1.604207	0.258195	0.229682
O13	O	0.998669	-0.356064	-0.380901
O14	O	1.332002	-0.022730	-0.047567
O15	O	1.665336	0.310603	0.285766
O16	O	1.153575	-0.325239	-0.430662
O17	O	1.486908	0.008094	-0.097329
O18	O	1.820241	0.341427	0.236004
O19	O	1.048358	-0.390743	-0.226017
O20	O	1.381691	-0.057410	0.107316
O21	O	1.715024	0.275924	0.440650
O22	O	0.957533	-0.212069	-0.336053
O23	O	1.290866	0.121264	-0.002720
O24	O	1.624200	0.454598	0.330613
O25	O	1.157183	-0.399425	-0.344523
O26	O	1.490516	-0.066091	-0.011190
O27	O	1.823849	0.267242	0.322144
O28	O	1.039988	-0.218647	-0.425844
O29	O	1.373321	0.114686	-0.092510
O30	O	1.706655	0.448020	0.240823
O31	O	0.962295	-0.309980	-0.222366
O32	O	1.295628	0.023354	0.110967
O33	O	1.628961	0.356687	0.444301
O34	O	0.843813	-0.309569	-0.331165
O35	O	1.177147	0.023764	0.002168
O36	O	1.510480	0.357097	0.335501
O37	O	0.948930	-0.398704	-0.535758
O38	O	1.282264	-0.065370	-0.202425
O39	O	1.615597	0.267963	0.130908
O40	O	0.840105	-0.390022	-0.417252
O41	O	1.173438	-0.056689	-0.083919
O42	O	1.506772	0.276645	0.249414
O43	O	1.035094	-0.324829	-0.539462
O44	O	1.368427	0.008504	-0.206128
O45	O	1.701760	0.341838	0.127205
O46	O	1.043463	-0.496925	-0.339635
O47	O	1.376797	-0.163592	-0.006302
O48	O	1.710130	0.169742	0.327031
O49	O	0.953692	-0.496614	-0.422071
O50	O	1.287025	-0.163281	-0.088738
O51	O	1.620359	0.170053	0.244596
C52	C	0.816522	-0.348779	-0.373123
C53	C	1.149855	-0.015445	-0.039790
C54	C	1.483188	0.317888	0.293544
C55	C	0.738598	-0.345678	-0.369812
C56	C	1.071931	-0.012344	-0.036479
C57	C	1.405264	0.320989	0.296854
C58	C	0.297970	-0.326006	-0.348843
C59	C	0.631304	0.007327	-0.015510
C60	C	0.964637	0.340661	0.317824
C61	C	0.371188	-0.328923	-0.351958
C62	C	0.704521	0.004410	-0.018624
C63	C	1.037855	0.337743	0.314709
C64	C	0.405885	-0.372333	-0.398263
C65	C	0.739219	-0.038999	-0.064929
C66	C	1.072552	0.294334	0.268404
C67	C	0.367361	-0.412823	-0.441461
C68	C	0.700694	-0.079490	-0.108128
C69	C	1.034027	0.253843	0.225205
C70	C	0.294144	-0.409903	-0.438350
C71	C	0.627477	-0.076569	-0.105017
C72	C	0.960811	0.256764	0.228317
C73	C	0.626856	-0.383247	-0.409899
C74	C	0.960190	-0.049914	-0.076566
C75	C	1.293523	0.283419	0.256767
C76	C	0.700078	-0.386166	-0.413006
C77	C	1.033412	-0.052833	-0.079673
C78	C	1.366745	0.280500	0.253661
C79	C	0.703901	-0.302265	-0.323503
C80	C	1.037234	0.031068	0.009831
C81	C	1.370567	0.364401	0.343164
C82	C	0.630683	-0.299351	-0.320393
C83	C	0.964016	0.033982	0.012941
C84	C	1.297349	0.367316	0.346274
C85	C	0.592164	-0.339839	-0.363594
C86	C	0.925498	-0.006506	-0.030260
C87	C	1.258831	0.326827	0.303073
C88	C	0.480726	-0.375317	-0.401446
C89	C	0.814059	-0.041984	-0.068113
C90	C	1.147392	0.291350	0.265221
C91	C	0.517325	-0.336851	-0.360414
C92	C	0.850658	-0.003518	-0.027080
C93	C	1.183992	0.329815	0.306253
C94	C	0.998581	-0.519611	-0.380861
C95	C	1.331914	-0.186277	-0.047528
C96	C	1.665248	0.147056	0.285805
C97	C	0.998607	-0.589580	-0.380871
C98	C	1.331940	-0.256247	-0.047538
C99	C	1.665273	0.077087	0.285796
C100	C	1.041514	-0.625815	-0.427656
C101	C	1.374847	-0.292481	-0.094322
C102	C	1.708181	0.040852	0.239011
C103	C	1.041538	-0.691559	-0.427674
C104	C	1.374871	-0.358226	-0.094341
C105	C	1.708205	-0.024892	0.238993
C106	C	0.998663	-0.721066	-0.380895
C107	C	1.331996	-0.387732	-0.047562
C108	C	1.665329	-0.054399	0.285771
C109	C	0.955747	-0.684822	-0.334107
C110	C	1.289080	-0.351489	-0.000774
C111	C	1.622413	-0.018156	0.332560
C112	C	0.955719	-0.619080	-0.334095
C113	C	1.289052	-0.285746	-0.000762
C114	C	1.622385	0.047587	0.332572
N115	N	0.995988	-0.821870	-0.319316
N116	N	1.329321	-0.488537	0.014018
N117	N	1.662655	-0.155203	0.347351
N118	N	0.996018	-0.884323	-0.319330
N119	N	1.329352	-0.550990	0.014004
N120	N	1.662685	-0.217656	0.347337
C121	C	0.998743	-0.919145	-0.380930
C122	C	1.332076	-0.585811	-0.047597
C123	C	1.665410	-0.252478	0.285736
N124	N	1.001450	-0.889154	-0.442519
N125	N	1.334783	-0.555821	-0.109186
N126	N	1.668116	-0.222488	0.224148
N127	N	1.001423	-0.826696	-0.442504
N128	N	1.334756	-0.493362	-0.109171
N129	N	1.668090	-0.160029	0.224162
C130	C	0.998688	-0.792352	-0.380904
C131	C	1.332021	-0.459019	-0.047570
C132	C	1.665355	-0.125686	0.285763
C133	C	1.041679	-1.026667	-0.427739
C134	C	1.375012	-0.693334	-0.094406
C135	C	1.708345	-0.360000	0.238928
C136	C	1.041698	-1.092412	-0.427758
C137	C	1.375031	-0.759079	-0.094425
C138	C	1.708364	-0.425746	0.238908
C139	C	0.955910	-1.085674	-0.334185
C140	C	1.289244	-0.752341	-0.000852
C141	C	1.622577	-0.419008	0.332481
C142	C	0.955887	-1.019930	-0.334172
C143	C	1.289221	-0.686597	-0.000839
C144	C	1.622554	-0.353264	0.332494
C145	C	0.998775	-0.990431	-0.380948
C146	C	1.332109	-0.657098	-0.047615
C147	C	1.665442	-0.323764	0.285718
C148	C	1.181527	-0.363378	-0.388709
C149	C	1.514861	-0.030045	-0.055376
C150	C	1.848194	0.303289	0.277957
C151	C	1.259451	-0.366495	-0.392037
C152	C	1.592784	-0.033161	-0.058704
C153	C	1.926118	0.300172	0.274630
C154	C	0.990901	-0.362718	-0.563759
C155	C	1.324234	-0.029385	-0.230425
C156	C	1.657568	0.303949	0.102908
C157	C	0.987591	-0.365553	-0.641682
C158	C	1.320924	-0.032220	-0.308348
C159	C	1.654258	0.301113	0.024985
C160	C	0.998776	-0.191880	-0.380956
C161	C	1.332109	0.141454	-0.047623
C162	C	1.665442	0.474787	0.285710
C163	C	0.998821	-0.121914	-0.380980
C164	C	1.332154	0.211419	-0.047647
C165	C	1.665488	0.544752	0.285687
C166	C	1.030894	-0.328425	-0.680219
C167	C	1.364227	0.004908	-0.346886
C168	C	1.697561	0.338242	-0.013553
C169	C	1.027775	-0.331086	-0.753436
C170	C	1.361109	0.002247	-0.420103
C171	C	1.694442	0.335580	-0.086769
C172	C	0.981356	-0.370880	-0.788114
C173	C	1.314690	-0.037547	-0.454781
C174	C	1.648023	0.295786	-0.121447
C175	C	0.938048	-0.408010	-0.749571
C176	C	1.271382	-0.074677	-0.416238
C177	C	1.604715	0.258656	-0.082904
C178	C	0.941164	-0.405345	-0.676355
C179	C	1.274497	-0.072012	-0.343022
C180	C	1.607831	0.261322	-0.009689
C181	C	0.969701	-0.380849	-1.009081
C182	C	1.303034	-0.047516	-0.675747
C183	C	1.636368	0.285818	-0.342414
C184	C	0.966590	-0.383513	-1.082301
C185	C	1.299923	-0.050180	-0.748968
C186	C	1.633257	0.283154	-0.415635
C187	C	1.056316	-0.306588	-1.086162
C188	C	1.389650	0.026745	-0.752828
C189	C	1.722983	0.360079	-0.419495
C190	C	1.059431	-0.303929	-1.012945
C191	C	1.392764	0.029404	-0.679611
C192	C	1.726098	0.362738	-0.346278
C193	C	1.016120	-0.341056	-0.974408
C194	C	1.349454	-0.007723	-0.641075
C195	C	1.682787	0.325610	-0.307741
C196	C	0.978169	-0.373603	-0.862953
C197	C	1.311502	-0.040270	-0.529620
C198	C	1.644835	0.293063	-0.196286
C199	C	1.019305	-0.338330	-0.899570
C200	C	1.352638	-0.004996	-0.566237
C201	C	1.685972	0.328337	-0.232903
C202	C	1.006447	-0.349392	-0.198756
C203	C	1.339780	-0.016058	0.134577
C204	C	1.673114	0.317275	0.467911
C205	C	1.009893	-0.346384	-0.120839
C206	C	1.343226	-0.013051	0.212494
C207	C	1.676560	0.320282	0.545828
H208	H	0.735270	-0.269301	-0.288332
H209	H	1.068603	0.064032	0.045001
H210	H	1.401937	0.397365	0.378335
H211	H	1.091576	-0.276360	-1.117546
H212	H	1.424910	0.056973	-0.784213
H213	H	1.758243	0.390307	-0.450879
Br214	Br	0.241866	-0.464849	-0.496977
Br215	Br	0.575200	-0.131516	-0.163644
Br216	Br	0.908533	0.201817	0.169689
H217	H	0.508984	-0.410663	-0.439146
H218	H	0.842318	-0.077330	-0.105813
H219	H	1.175651	0.256004	0.227521
Br220	Br	1.099923	-1.141590	-0.491268
Br221	Br	1.433256	-0.808257	-0.157935
Br222	Br	1.766590	-0.474923	0.175398
Br223	Br	0.910921	-0.431235	-0.956790
Br224	Br	1.244254	-0.097902	-0.623457
Br225	Br	1.577587	0.235431	-0.290123
Br226	Br	0.875046	-0.462013	-0.796633
Br227	Br	1.208379	-0.128680	-0.463299
Br228	Br	1.541712	0.204654	-0.129966
Br229	Br	0.897551	-0.724865	-0.270628
Br230	Br	1.230885	-0.391532	0.062706
Br231	Br	1.564218	-0.058198	0.396039
Br232	Br	0.897717	-1.125712	-0.270703
Br233	Br	1.231050	-0.792378	0.062631
Br234	Br	1.564383	-0.459045	0.395964
Br235	Br	1.099880	-0.986628	-0.491220
Br236	Br	1.433214	-0.653295	-0.157887
Br237	Br	1.766547	-0.319961	0.175446
Br238	Br	0.470235	-0.277936	-0.297577
Br239	Br	0.803568	0.055397	0.035756
Br240	Br	1.136901	0.388730	0.369089
H241	H	1.076434	-0.601798	-0.465745
H242	H	1.409767	-0.268465	-0.132412
H243	H	1.743101	0.064868	0.200922
H244	H	0.920778	-0.589576	-0.295996
H245	H	1.254111	-0.256243	0.037337
H246	H	1.587444	0.077090	0.370670
Br247	Br	1.122433	-0.249923	-0.965887
Br248	Br	1.455766	0.083410	-0.632554
Br249	Br	1.789100	0.416744	-0.299220
H250	H	1.076472	-0.721067	-0.465779
H251	H	1.409805	-0.387734	-0.132446
H252	H	1.743139	-0.054400	0.200887
Br253	Br	0.574591	-0.438198	-0.468527
Br254	Br	0.907924	-0.104865	-0.135194
Br255	Br	1.241257	0.228469	0.198139
Br256	Br	0.897651	-0.970751	-0.270677
Br257	Br	1.230984	-0.637418	0.062657
Br258	Br	1.564318	-0.304084	0.395990
H259	H	0.928788	-0.415919	-1.110534
H260	H	1.262121	-0.082586	-0.777200
H261	H	1.595454	0.250747	-0.443867
H262	H	0.905895	-0.435572	-0.644978
H263	H	1.239228	-0.102239	-0.311645
H264	H	1.572561	0.231094	0.021688
H265	H	1.068696	-0.296022	-0.651990
H266	H	1.402029	0.037311	-0.318657
H267	H	1.735362	0.370644	0.014676
H268	H	1.063039	-0.300854	-0.784810
H269	H	1.396372	0.032479	-0.451477
H270	H	1.729706	0.365813	-0.118144
Br271	Br	1.082291	-0.284317	-0.852506
Br272	Br	1.415624	0.049017	-0.519173
Br273	Br	1.748958	0.382350	-0.185839
H274	H	0.402548	-0.295956	-0.316781
H275	H	0.735881	0.037378	0.016552
H276	H	1.069214	0.370711	0.349885
H277	H	0.728326	-0.421516	-0.450717
H278	H	1.061660	-0.088183	-0.117384
H279	H	1.394993	0.245151	0.215950
H280	H	0.269725	-0.290658	-0.311136
H281	H	0.603058	0.042675	0.022198
H282	H	0.936392	0.376009	0.355531
H283	H	0.940377	-0.406007	-0.891196
H284	H	1.273711	-0.072673	-0.557863
H285	H	1.607044	0.260660	-0.224529
Br286	Br	0.583598	-0.240433	-0.257551
Br287	Br	0.916931	0.092900	0.075783
Br288	Br	1.250265	0.426234	0.409116
H289	H	0.395617	-0.448166	-0.479167
H290	H	0.728950	-0.114832	-0.145834
H291	H	1.062283	0.218501	0.187500
