data_functionalizedCrystal
_audit_creation_method	'MofGen! by Chris Wilmer'
_symmetry_space_group_name_H-M	'P1'
_symmetry_Int_Tables_number	1
_symmetry_cell_setting	triclinic
loop_
_symmetry_equiv_pos_as_xyz
  x,y,z
_cell_length_a	10.967819
_cell_length_b	14.853559
_cell_length_c	10.065875
_cell_angle_alpha	98.803502
_cell_angle_beta	69.228723
_cell_angle_gamma	84.183641
loop_
_atom_site_label
_atom_site_type_symbol
_atom_site_fract_x
_atom_site_fract_y
_atom_site_fract_z
O1	O	1.739922	0.065959	-0.522708
O2	O	1.362373	0.088337	-0.433912
O3	O	1.561238	-0.054305	-0.480682
O4	O	1.541057	0.208602	-0.475939
O5	O	1.523317	-0.026999	-0.244775
O6	O	1.324452	0.115643	-0.198005
O7	O	1.702002	0.093265	-0.286801
Zn8	Zn	1.507206	0.108790	-0.204948
Zn9	Zn	1.557168	0.072813	-0.515766
O10	O	1.503136	0.235908	-0.240031
C11	C	1.295095	0.102424	-0.304595
C12	C	1.151124	0.103707	-0.270735
C13	C	0.957790	0.091465	-0.342877
C14	C	1.106591	0.090134	-0.377865
C15	C	1.541366	-0.074221	-0.362517
C16	C	1.538633	-0.174246	-0.361881
C17	C	1.547703	-0.612048	-0.487746
C18	C	1.506361	-0.582273	-0.230551
C19	C	1.508940	-0.488297	-0.231157
C20	C	1.530900	-0.456192	-0.360059
C21	C	1.550280	-0.518063	-0.488355
C22	C	1.489547	-0.426417	-0.102860
C23	C	1.492125	-0.332434	-0.103460
C24	C	1.514094	-0.300329	-0.232366
C25	C	1.533476	-0.362207	-0.360667
C26	C	1.555436	-0.330102	-0.489569
C27	C	1.574828	-0.391980	-0.617875
C28	C	1.572249	-0.485958	-0.617261
C29	C	1.516673	-0.206351	-0.232980
C30	C	1.558013	-0.236117	-0.490178
C31	C	1.769280	0.079178	-0.416122
C32	C	1.913252	0.077894	-0.449991
C33	C	1.523009	0.255823	-0.358200
C34	C	1.525744	0.355847	-0.358845
N35	N	1.473118	0.133342	0.007175
N36	N	1.591267	0.048253	-0.727891
C37	C	1.545300	0.081350	0.057978
C38	C	1.519074	0.100253	0.221313
H39	H	0.985282	0.065296	-0.567598
H40	H	1.437851	0.158760	0.298736
H41	H	1.672481	-0.010261	0.194688
O42	O	1.365564	0.210859	0.109722
H43	H	1.316682	0.246072	0.047661
O44	O	1.598497	-0.357345	-0.756898
H45	H	1.696234	-0.392431	-0.839230
O46	O	1.465871	-0.461059	0.036148
H47	H	1.368123	-0.425986	0.118472
H48	H	1.178618	0.077535	-0.495479
O49	O	0.862290	0.108738	-0.187063
H50	H	0.760349	0.107368	-0.184022
O51	O	1.581686	-0.201488	-0.629206
H52	H	1.594724	-0.260303	-0.718311
O53	O	1.055646	0.120445	-0.114967
H54	H	1.082970	0.065733	-0.061944
O55	O	1.593142	-0.552690	-0.755635
H56	H	1.587640	-0.623431	-0.733547
H57	H	1.563497	-0.662433	-0.592211
H58	H	1.488473	-0.608418	-0.125603
H59	H	1.476340	-0.282061	0.001013
O60	O	1.495769	-0.139611	-0.094615
H61	H	1.480070	-0.177725	-0.004882
O62	O	1.652844	0.003822	-0.044556
H63	H	1.656551	0.001132	-0.156752
