data_functionalizedCrystal
_audit_creation_method	'MofGen! by Chris Wilmer'
_symmetry_space_group_name_H-M	'P1'
_symmetry_Int_Tables_number	1
_symmetry_cell_setting	triclinic
loop_
_symmetry_equiv_pos_as_xyz
  x,y,z
_cell_length_a	19.805407
_cell_length_b	19.077068
_cell_length_c	19.805399
_cell_angle_alpha	92.269429
_cell_angle_beta	89.980427
_cell_angle_gamma	92.327086
loop_
_atom_site_label
_atom_site_type_symbol
_atom_site_fract_x
_atom_site_fract_y
_atom_site_fract_z
Zn1	Zn	1.023904	-0.280218	-0.393534
Zn2	Zn	1.019269	-0.397917	-0.284888
Zn3	Zn	0.910718	-0.280237	-0.280359
Zn4	Zn	0.906134	-0.397880	-0.398033
O5	O	0.965006	-0.339063	-0.339204
O6	O	1.118005	-0.295839	-0.379134
O7	O	1.004848	-0.382330	-0.189571
O8	O	0.929590	-0.181744	-0.291594
O9	O	1.114600	-0.382312	-0.299312
O10	O	1.012748	-0.181729	-0.374743
O11	O	0.925096	-0.295872	-0.186244
O12	O	0.815394	-0.295835	-0.295957
O13	O	0.921778	-0.382248	-0.492152
O14	O	0.812026	-0.382267	-0.382411
O15	O	1.008303	-0.295802	-0.488846
O16	O	1.000404	-0.496403	-0.303675
O17	O	0.917284	-0.496376	-0.386802
C18	C	0.789151	-0.339050	-0.339181
C19	C	0.713918	-0.339061	-0.339188
C20	C	0.676836	-0.384133	-0.384138
C21	C	0.606147	-0.384135	-0.384147
C22	C	0.572543	-0.339066	-0.339204
C23	C	0.609630	-0.293989	-0.294252
C24	C	0.680318	-0.293985	-0.294246
C25	C	0.324556	-0.294004	-0.294275
C26	C	0.253864	-0.294014	-0.294283
C27	C	0.250386	-0.384154	-0.384176
C28	C	0.321073	-0.384150	-0.384170
C29	C	0.358155	-0.339070	-0.339221
C30	C	0.434804	-0.339069	-0.339212
C31	C	0.495895	-0.339071	-0.339209
C32	C	0.957862	-0.521927	-0.346233
C33	C	0.954867	-0.600157	-0.349263
C34	C	0.996770	-0.636901	-0.307443
C35	C	0.993957	-0.710406	-0.310296
C36	C	0.949238	-0.747167	-0.354968
C37	C	0.907333	-0.710418	-0.396793
C38	C	0.910150	-0.636914	-0.393942
C39	C	0.936174	-0.967002	-0.368135
C40	C	0.933359	-1.040511	-0.370981
C41	C	1.019984	-1.040494	-0.284485
C42	C	1.022794	-0.966989	-0.281635
C43	C	0.980892	-0.930246	-0.323463
N44	N	0.946361	-0.822301	-0.357884
N45	N	0.983773	-0.855113	-0.320549
C46	C	1.141548	-0.339077	-0.339226
C47	C	1.216780	-0.339083	-0.339236
C48	C	0.965046	-0.339019	-0.515745
C49	C	0.965063	-0.339000	-0.590976
C50	C	0.972197	-0.155485	-0.332161
C51	C	0.975262	-0.077255	-0.329160
C52	C	1.010118	-0.293985	-0.624600
C53	C	1.010125	-0.293965	-0.695288
C54	C	0.965081	-0.338963	-0.732350
C55	C	0.920022	-0.383980	-0.698721
C56	C	0.920011	-0.383996	-0.628035
C57	C	0.920062	-0.383914	-0.983792
C58	C	0.920078	-0.383896	-1.054484
C59	C	1.010177	-0.293883	-1.051045
C60	C	1.010166	-0.293899	-0.980358
C61	C	0.965104	-0.338913	-0.946736
C62	C	0.965096	-0.338934	-0.870088
C63	C	0.965093	-0.338947	-0.808997
C64	C	0.965008	-0.339056	-0.163347
C65	C	0.965130	-0.338877	-0.088109
H66	H	0.226505	-0.257309	-0.257684
Cl67	Cl	1.066797	-0.237404	-0.737556
Cl68	Cl	0.863445	-0.440468	-1.101076
H69	H	1.028079	-0.740320	-0.276241
Cl70	Cl	0.883495	-0.920821	-0.420717
Cl71	Cl	0.857472	-0.590722	-0.446521
Cl72	Cl	1.072662	-1.086689	-0.231909
H73	H	1.059207	-0.937060	-0.245260
Cl74	Cl	0.863414	-0.440503	-0.941533
H75	H	0.896951	-1.070439	-0.407369
H76	H	1.046848	-0.257260	-0.950185
Cl77	Cl	0.851118	-0.756632	-0.452956
H78	H	0.354740	-0.257303	-0.257670
Cl79	Cl	0.863366	-0.440586	-0.585765
H80	H	0.704191	-0.420836	-0.420734
H81	H	0.582264	-0.257290	-0.257661
Cl82	Cl	1.052987	-0.590695	-0.251277
Cl83	Cl	0.726936	-0.237318	-0.237738
Cl84	Cl	1.066751	-0.237416	-0.578014
H85	H	1.046866	-0.257228	-1.078429
H86	H	0.883343	-0.420615	-0.728903
H87	H	0.575957	-0.420838	-0.420749
H88	H	0.348430	-0.420852	-0.420766
Cl89	Cl	0.203765	-0.440827	-0.440685
