data_functionalizedCrystal
_audit_creation_method	'MofGen! by Chris Wilmer'
_symmetry_space_group_name_H-M	'P1'
_symmetry_Int_Tables_number	1
_symmetry_cell_setting	triclinic
loop_
_symmetry_equiv_pos_as_xyz
  x,y,z
_cell_length_a	17.038272
_cell_length_b	19.188930
_cell_length_c	16.098538
_cell_angle_alpha	92.708456
_cell_angle_beta	87.069734
_cell_angle_gamma	87.128169
loop_
_atom_site_label
_atom_site_type_symbol
_atom_site_fract_x
_atom_site_fract_y
_atom_site_fract_z
O1	O	1.040399	0.148677	-0.069168
O2	O	0.812777	0.146269	-0.069192
O3	O	0.933156	0.046226	-0.069163
O4	O	0.920020	0.248720	-0.069197
O5	O	0.926124	0.052046	0.069348
O6	O	0.805745	0.152089	0.069319
O7	O	1.033367	0.154497	0.069343
Zn8	Zn	0.918440	0.154217	0.091323
Zn9	Zn	0.927705	0.146549	-0.091172
O10	O	0.912989	0.254540	0.069314
C11	C	0.780140	0.146990	0.000061
C12	C	0.693368	0.140458	0.000052
C13	C	0.643067	0.200424	0.000043
C14	C	0.561535	0.194283	0.000055
C15	C	0.530306	0.128176	0.000071
C16	C	0.580613	0.068205	0.000083
C17	C	0.662144	0.074347	0.000077
C18	C	0.284615	0.106479	0.000097
C19	C	0.203078	0.100342	0.000101
C20	C	0.184005	0.226420	0.000075
C21	C	0.265538	0.232556	0.000063
C22	C	0.315838	0.172586	0.000080
C23	C	0.446968	0.121897	0.000081
C24	C	0.399175	0.178865	0.000075
C25	C	0.929215	0.023099	0.000095
C26	C	0.927937	-0.054485	0.000102
C27	C	0.998572	-0.095020	0.000113
C28	C	0.997373	-0.167919	0.000100
C29	C	0.925534	-0.200279	0.000092
C30	C	0.854890	-0.159735	0.000076
C31	C	0.856092	-0.086838	0.000081
N32	N	0.868229	-0.309715	0.047224
N33	N	0.867092	-0.378964	0.047221
C34	C	0.921910	-0.419913	0.000075
N35	N	0.977918	-0.388997	-0.047058
N36	N	0.979057	-0.319742	-0.047051
C37	C	0.924223	-0.279323	0.000086
C38	C	0.991249	-0.539494	0.000070
C39	C	0.990047	-0.612395	0.000052
C40	C	0.847562	-0.604208	0.000036
C41	C	0.848767	-0.531310	0.000046
C42	C	0.920612	-0.498957	0.000067
C43	C	1.066005	0.153776	0.000089
C44	C	1.152777	0.160308	0.000092
C45	C	0.916930	0.277667	0.000054
C46	C	0.918208	0.355250	0.000042
N47	N	0.912123	0.159449	0.215871
N48	N	0.934028	0.141311	-0.215719
C49	C	0.963235	0.117004	0.259468
C50	C	0.958823	0.120672	0.346656
C51	C	0.903302	0.166789	0.390245
C52	C	0.852184	0.209235	0.346641
C53	C	0.856593	0.205564	0.259455
C54	C	0.887319	0.180086	0.653491
C55	C	0.882916	0.183756	0.740683
C56	C	0.989554	0.095192	0.740692
C57	C	0.993961	0.091527	0.653504
C58	C	0.942841	0.133971	0.609908
C59	C	0.898792	0.170540	0.479365
C60	C	0.947347	0.130216	0.520790
H61	H	0.424604	0.232690	0.000067
H62	H	0.806974	0.246782	0.382136
O63	O	1.065934	-0.207373	0.000228
C64	C	1.065856	-0.246765	0.071975
H65	H	1.002606	-0.253129	0.095875
H66	H	1.095981	-0.300435	0.055849
H67	H	1.098919	-0.218587	0.122217
O68	O	0.844829	0.215246	0.521804
C69	C	0.794176	0.177091	0.572237
H70	H	0.824836	0.124879	0.585298
H71	H	0.778618	0.208061	0.633546
H72	H	0.738117	0.167480	0.538651
H73	H	0.845697	0.214647	0.618002
H74	H	0.325560	0.057646	0.000111
H75	H	0.421531	0.068073	0.000118
H76	H	0.791248	-0.498305	0.000041
O77	O	0.295972	0.296734	0.000139
C78	C	0.338930	0.307093	0.071868
H79	H	0.358200	0.254291	0.095816
H80	H	0.393051	0.337392	0.055698
H81	H	0.300276	0.337972	0.122090
H82	H	1.057074	-0.068683	0.000128
H83	H	0.668487	0.254256	0.000029
H84	H	1.008449	0.079455	0.223984
H85	H	0.520582	0.243114	0.000047
H86	H	0.555180	0.014379	0.000108
O87	O	0.787548	-0.047356	0.000037
C88	C	0.804012	0.023924	0.000070
H89	H	0.866733	0.029266	-0.026143
H90	H	0.761015	0.052562	-0.040146
H91	H	0.797602	0.047583	0.066523
O92	O	0.785161	-0.191250	-0.000042
C93	C	0.783839	-0.236164	-0.071790
H94	H	0.846727	-0.251638	-0.095698
H95	H	0.752025	-0.285018	-0.055663
H96	H	0.751698	-0.208155	-0.122027
H97	H	1.000442	0.086110	0.382152
H98	H	0.177655	0.046506	0.000113
O99	O	0.829047	0.228539	0.783156
C100	C	0.836111	0.222666	0.869457
H101	H	0.897747	0.200804	0.881357
H102	H	0.825556	0.276403	0.902579
H103	H	0.790743	0.186043	0.894221
H104	H	1.049750	-0.513152	0.000084
H105	H	1.047569	-0.645398	0.000056
O106	O	0.135030	0.284602	0.000103
C107	C	0.056374	0.265010	0.000091
H108	H	0.052107	0.211096	0.026323
H109	H	0.017262	0.304625	0.040301
H110	H	0.036148	0.263464	-0.066358
O111	O	0.806909	0.246868	0.217231
C112	C	0.756946	0.288347	0.274397
H113	H	0.785848	0.293675	0.336541
H114	H	0.746100	0.342319	0.249189
H115	H	0.698490	0.262592	0.283686
H116	H	1.039171	0.053976	0.618016
H117	H	0.703099	0.025516	0.000084
H118	H	0.789070	-0.630555	0.000025
O119	O	1.039122	0.053987	0.783171
C120	C	1.023342	0.067126	0.869470
H121	H	0.960506	0.089996	0.881381
H122	H	1.030545	0.016177	0.902619
H123	H	1.066215	0.105828	0.894195
H124	H	0.992550	0.092665	0.485297
