data_functionalizedCrystal
_audit_creation_method	'MofGen! by Chris Wilmer'
_symmetry_space_group_name_H-M	'P1'
_symmetry_Int_Tables_number	1
_symmetry_cell_setting	triclinic
loop_
_symmetry_equiv_pos_as_xyz
  x,y,z
_cell_length_a	17.019383
_cell_length_b	9.065215
_cell_length_c	8.140239
_cell_angle_alpha	90.000105
_cell_angle_beta	86.121305
_cell_angle_gamma	95.794236
loop_
_atom_site_label
_atom_site_type_symbol
_atom_site_fract_x
_atom_site_fract_y
_atom_site_fract_z
O1	O	1.048005	-0.188055	-0.284715
O2	O	1.548005	0.311945	0.215285
O3	O	0.818514	-0.211998	-0.252283
O4	O	1.318514	0.288002	0.247717
O5	O	0.938004	0.014744	-0.269173
O6	O	1.438004	0.514744	0.230827
O7	O	0.928515	-0.414797	-0.267825
O8	O	1.428515	0.085203	0.232175
O9	O	0.937997	0.014747	0.004055
O10	O	1.437997	0.514747	0.504055
O11	O	0.818507	-0.211996	0.020945
O12	O	1.318507	0.288004	0.520945
O13	O	1.047998	-0.188052	-0.011487
O14	O	1.547998	0.311948	0.488513
Zn15	Zn	0.933252	-0.200024	0.048110
Zn16	Zn	1.433252	0.299976	0.548110
Zn17	Zn	0.933261	-0.200027	-0.311880
Zn18	Zn	1.433261	0.299973	0.188120
O19	O	0.928508	-0.414795	0.005403
O20	O	1.428508	0.085205	0.505403
C21	C	0.789116	-0.211085	-0.111515
C22	C	1.289116	0.288915	0.388485
C23	C	0.701527	-0.208351	-0.099137
C24	C	1.201527	0.291649	0.400863
C25	C	0.937089	0.069708	-0.132434
C26	C	1.437089	0.569708	0.367566
C27	C	0.934364	0.233477	-0.132062
C28	C	1.434364	0.733477	0.367938
C29	C	0.660374	-0.207071	-0.242247
C30	C	1.160374	0.292929	0.257753
C31	C	0.578074	-0.204525	-0.230592
C32	C	1.078074	0.295475	0.269408
C33	C	0.536929	-0.203249	-0.075827
C34	C	1.036929	0.296751	0.424173
C35	C	0.578087	-0.204533	0.067293
C36	C	1.078087	0.295467	0.567293
C37	C	0.660385	-0.207089	0.055637
C38	C	1.160385	0.292911	0.555637
C39	C	0.288442	-0.195540	-0.033183
C40	C	0.788442	0.304460	0.466817
C41	C	0.206138	-0.192979	-0.021538
C42	C	0.706138	0.307021	0.478462
C43	C	0.206130	-0.192974	-0.319424
C44	C	0.706130	0.307026	0.180576
C45	C	0.288431	-0.195522	-0.331067
C46	C	0.788431	0.304478	0.168933
C47	C	0.329581	-0.196814	-0.187947
C48	C	0.829581	0.303186	0.312053
C49	C	0.452805	-0.200642	-0.063911
C50	C	0.952805	0.299358	0.436089
C51	C	0.413703	-0.199431	-0.199864
C52	C	0.913703	0.300569	0.300136
C53	C	1.077397	-0.188965	-0.152259
C54	C	1.577397	0.311035	0.347741
C55	C	1.164985	-0.191700	-0.164647
C56	C	1.664985	0.308300	0.335353
N57	N	0.933252	-0.200020	0.293793
N58	N	1.433252	0.299980	0.793793
C59	C	0.929423	0.530242	-0.131351
C60	C	1.429423	1.030242	0.368649
C61	C	0.932148	0.366472	-0.131770
C62	C	1.432148	0.866472	0.368230
N63	N	0.933267	-0.200018	-0.557563
N64	N	1.433267	0.299982	-0.057563
H65	H	0.693869	-0.208106	-0.368273
H66	H	1.193869	0.291894	0.131727
H67	H	0.447206	-0.200479	-0.325873
H68	H	0.947206	0.299521	0.174127
H69	H	0.693891	-0.208138	0.172172
H70	H	1.193891	0.291862	0.672172
H71	H	0.172637	-0.191982	0.104498
H72	H	0.672637	0.308018	0.604498
H73	H	0.321937	-0.196582	0.083356
H74	H	0.821937	0.303418	0.583356
H75	H	0.419296	-0.199598	0.062100
H76	H	0.919296	0.300402	0.562100
F77	F	0.332215	-0.196873	-0.495789
F78	F	0.832215	0.303127	0.004211
F79	F	0.534295	-0.203186	0.232007
F80	F	1.034295	0.296814	0.732007
H81	H	0.544571	-0.203483	-0.347127
H82	H	1.044571	0.296517	0.152873
H83	H	0.172616	-0.191926	-0.435944
H84	H	0.672616	0.308074	0.064056
