data_functionalizedCrystal
_audit_creation_method	'MofGen! by Chris Wilmer'
_symmetry_space_group_name_H-M	'P1'
_symmetry_Int_Tables_number	1
_symmetry_cell_setting	triclinic
loop_
_symmetry_equiv_pos_as_xyz
  x,y,z
_cell_length_a	12.759401
_cell_length_b	16.959454
_cell_length_c	12.759393
_cell_angle_alpha	89.970360
_cell_angle_beta	89.979062
_cell_angle_gamma	90.021600
loop_
_atom_site_label
_atom_site_type_symbol
_atom_site_fract_x
_atom_site_fract_y
_atom_site_fract_z
Zn1	Zn	1.606227	-0.314611	-0.594026
Zn2	Zn	1.606102	-0.446810	-0.418349
Zn3	Zn	1.430526	-0.314653	-0.418362
Zn4	Zn	1.430501	-0.446755	-0.593986
O5	O	1.518339	-0.380707	-0.506181
O6	O	1.753232	-0.332153	-0.570734
O7	O	1.582769	-0.429320	-0.271330
O8	O	1.453896	-0.204037	-0.441686
O9	O	1.753139	-0.429279	-0.441665
O10	O	1.582983	-0.204006	-0.570746
O11	O	1.453774	-0.332225	-0.271339
O12	O	1.283502	-0.332171	-0.441647
O13	O	1.453854	-0.429185	-0.741013
O14	O	1.283484	-0.429226	-0.570678
O15	O	1.582959	-0.332100	-0.741042
O16	O	1.582745	-0.557414	-0.441626
O17	O	1.453732	-0.557373	-0.570666
C18	C	1.245372	-0.380698	-0.506160
C19	C	1.128595	-0.380713	-0.506176
C20	C	1.073751	-0.431326	-0.573257
C21	C	0.964027	-0.431329	-0.573277
C22	C	0.964000	-0.330103	-0.439128
C23	C	1.073722	-0.330097	-0.439113
C24	C	0.814128	-0.459691	-0.697138
C25	C	0.759280	-0.510317	-0.764210
C26	C	0.794868	-0.587456	-0.780159
C27	C	0.885302	-0.613985	-0.729022
C28	C	0.940144	-0.563363	-0.661943
C29	C	0.904557	-0.486213	-0.646013
C30	C	1.223624	-0.301743	-0.315251
C31	C	1.278468	-0.251125	-0.248166
C32	C	1.242882	-0.173984	-0.232205
C33	C	1.152445	-0.147458	-0.283324
C34	C	1.097601	-0.198076	-0.350409
C35	C	1.133194	-0.275216	-0.366371
C36	C	1.518251	-0.586074	-0.506163
C37	C	1.518309	-0.673930	-0.506190
C38	C	1.451259	-1.045415	-0.573365
C39	C	1.585711	-1.045397	-0.439104
C40	C	1.585675	-0.962851	-0.439094
C41	C	1.518428	-0.921583	-0.506220
C42	C	1.451218	-0.962861	-0.573355
C43	C	1.652875	-0.921567	-0.371953
C44	C	1.652841	-0.839016	-0.371940
C45	C	1.585599	-0.797747	-0.439071
C46	C	1.518387	-0.839030	-0.506210
C47	C	1.451141	-0.797762	-0.573335
C48	C	1.383934	-0.839043	-0.640480
C49	C	1.383977	-0.921592	-0.640486
C50	C	1.585556	-0.715198	-0.439065
C51	C	1.451100	-0.715208	-0.573326
C52	C	1.792372	-0.380718	-0.506202
C53	C	1.909149	-0.380722	-0.506212
C54	C	1.518418	-0.380632	-0.780214
C55	C	1.518451	-0.380599	-0.896991
C56	C	1.518456	-0.174539	-0.506222
C57	C	1.518506	-0.086683	-0.506239
C58	C	1.585681	-0.330039	-0.951870
C59	C	1.585699	-0.330005	-1.061594
C60	C	1.451254	-0.431098	-1.061551
C61	C	1.451232	-0.431128	-0.951829
C62	C	1.623323	-0.236746	-1.211570
C63	C	1.690569	-0.186193	-1.266453
C64	C	1.793083	-0.174072	-1.230861
C65	C	1.828372	-0.212516	-1.140389
C66	C	1.761131	-0.263076	-1.085512
C67	C	1.658602	-0.275181	-1.121102
C68	C	1.413619	-0.524387	-0.801850
C69	C	1.346382	-0.574951	-0.746971
C70	C	1.243866	-0.587080	-0.782561
C71	C	1.208581	-0.548650	-0.873037
C72	C	1.275818	-0.498086	-0.927916
C73	C	1.378333	-0.485956	-0.892319
C74	C	1.518321	-0.380726	-0.233213
C75	C	1.518491	-0.380536	-0.116437
H76	H	0.785150	-0.396876	-0.684169
H77	H	0.685649	-0.488709	-0.805847
O78	O	1.385926	-0.675087	-0.638646
C79	C	1.445682	-0.627254	-0.706528
H80	H	1.528439	-0.652079	-0.713092
H81	H	1.407644	-0.626300	-0.787349
H82	H	1.449283	-0.564705	-0.674036
H83	H	1.118425	-0.472539	-0.627866
H84	H	1.847836	-0.132909	-1.275555
O85	O	1.009815	-0.172367	-0.400239
C86	C	1.024631	-0.177230	-0.509554
H87	H	1.087897	-0.222714	-0.527493
H88	H	0.948086	-0.195680	-0.548547
H89	H	1.049888	-0.117230	-0.541017
O90	O	1.656108	-0.148879	-1.354285
C91	C	1.551205	-0.170421	-1.373942
H92	H	1.513106	-0.191230	-1.297974
H93	H	1.506556	-0.117333	-1.405706
H94	H	1.549124	-0.220118	-1.434038
O95	O	1.318837	-0.961780	-0.705749
C96	C	1.378638	-1.009456	-0.773679
H97	H	1.458286	-1.021791	-0.736700
H98	H	1.335866	-1.067524	-0.787716
H99	H	1.390120	-0.977607	-0.851550
O100	O	1.318764	-0.798915	-0.705796
C101	C	1.378526	-0.751080	-0.773669
H102	H	1.461279	-0.775910	-0.780238
H103	H	1.340487	-0.750115	-0.854491
H104	H	1.382135	-0.688534	-0.741166
O105	O	1.386010	-1.085632	-0.638486
C106	C	1.400483	-1.167342	-0.624130
H107	H	1.434939	-1.178639	-0.543083
H108	H	1.321798	-1.198756	-0.631193
H109	H	1.456410	-1.190704	-0.686503
H110	H	1.123457	-0.084649	-0.270313
H111	H	1.497094	-0.514510	-0.772859
H112	H	1.125106	-0.558528	-0.902018
O113	O	1.296303	-0.124906	-0.167032
C114	C	1.383735	-0.164864	-0.125299
H115	H	1.406206	-0.215601	-0.179388
H116	H	1.452448	-0.122211	-0.118281
H117	H	1.363252	-0.189091	-0.044483
O118	O	1.650820	-0.280910	-0.898486
C119	C	1.591016	-0.229860	-0.835042
H120	H	1.511381	-0.257742	-0.818582
H121	H	1.633802	-0.219283	-0.757897
H122	H	1.579508	-0.171274	-0.877344
H123	H	1.640454	-1.079002	-0.384447
O124	O	1.386064	-0.480158	-1.114984
C125	C	1.400481	-0.469278	-1.223597
H126	H	1.481580	-0.443392	-1.238601
H127	H	1.393327	-0.528474	-1.265282
H128	H	1.338196	-0.427173	-1.254733
O129	O	1.027983	-0.589243	-0.612375
C130	C	1.047613	-0.668197	-0.640798
H131	H	1.008447	-0.681308	-0.719167
H132	H	1.135725	-0.677895	-0.648034
H133	H	1.014542	-0.709231	-0.578178
O134	O	1.795407	-0.300543	-0.997729
C135	C	1.788958	-0.382791	-1.012448
H136	H	1.789943	-0.396587	-1.099876
H137	H	1.858648	-0.412534	-0.972942
H138	H	1.713072	-0.405760	-0.976430
H139	H	1.252614	-0.364555	-0.328250
O140	O	1.718296	-0.961602	-0.306799
C141	C	1.823018	-0.941427	-0.329808
H142	H	1.825223	-0.881457	-0.370149
H143	H	1.870135	-0.938666	-0.254003
H144	H	1.858376	-0.987842	-0.383876
H145	H	0.919310	-0.288895	-0.384526
H146	H	1.352107	-0.272729	-0.206541
O147	O	1.718078	-0.799007	-0.306579
C148	C	1.695168	-0.819220	-0.201846
H149	H	1.654804	-0.879177	-0.199634
H150	H	1.771021	-0.822027	-0.154808
H151	H	1.641156	-0.772803	-0.166405
H152	H	1.640270	-0.681591	-0.384392
H153	H	1.911853	-0.202649	-1.111423
H154	H	1.539845	-0.246604	-1.240553
O155	O	1.241361	-0.460786	-1.015759
C156	C	1.136468	-0.482348	-1.035426
H157	H	1.098366	-0.503159	-0.959461
H158	H	1.091806	-0.429270	-1.067202
H159	H	1.134411	-0.532049	-1.095517
H160	H	1.189127	-0.628261	-0.737873
O161	O	0.919748	-0.688935	-0.744661
C162	C	0.851937	-0.727933	-0.814810
H163	H	0.808686	-0.682516	-0.864482
H164	H	0.899531	-0.768341	-0.868006
H165	H	0.792762	-0.764475	-0.768670
O166	O	1.380496	-0.612244	-0.658989
C167	C	1.317372	-0.590046	-0.573225
H168	H	1.238019	-0.568801	-0.602986
H169	H	1.305636	-0.642908	-0.519251
H170	H	1.357414	-0.540482	-0.528088
O171	O	0.741495	-0.636520	-0.845384
C172	C	0.654033	-0.596574	-0.887072
H173	H	0.668346	-0.530267	-0.883769
H174	H	0.641710	-0.615355	-0.971954
H175	H	0.581319	-0.611796	-0.839205
