data_functionalizedCrystal
_audit_creation_method	'MofGen! by Chris Wilmer'
_symmetry_space_group_name_H-M	'P1'
_symmetry_Int_Tables_number	1
_symmetry_cell_setting	triclinic
loop_
_symmetry_equiv_pos_as_xyz
  x,y,z
_cell_length_a	9.065215
_cell_length_b	13.262508
_cell_length_c	11.804365
_cell_angle_alpha	62.674773
_cell_angle_beta	102.025519
_cell_angle_gamma	84.713724
loop_
_atom_site_label
_atom_site_type_symbol
_atom_site_fract_x
_atom_site_fract_y
_atom_site_fract_z
O1	O	1.974270	0.142746	0.052776
O2	O	1.543511	0.156299	0.048392
O3	O	1.785605	-0.014370	0.103662
O4	O	1.732177	0.313415	-0.002494
O5	O	1.721875	0.030514	-0.108929
O6	O	1.479781	0.201184	-0.164200
O7	O	1.910541	0.187631	-0.159815
Cu8	Cu	1.689342	0.198506	-0.181419
Cu9	Cu	1.764710	0.145424	0.069996
O10	O	1.668447	0.358300	-0.215085
C11	C	1.456802	0.177439	-0.057481
C12	C	1.293383	0.173546	-0.056219
C13	C	1.756606	-0.033914	0.010967
C14	C	1.765127	-0.159020	0.051491
C15	C	1.650179	-0.413816	-0.297827
C16	C	1.642161	-0.296272	-0.335904
C17	C	1.672902	-0.261953	-0.239058
C18	C	1.711662	-0.345190	-0.104130
C19	C	1.719670	-0.462746	-0.066051
C20	C	1.742393	-0.310882	-0.007282
C21	C	1.781153	-0.394120	0.127646
C22	C	1.789160	-0.511663	0.165719
C23	C	1.758418	-0.545982	0.068874
C24	C	1.734385	-0.193327	-0.045361
C25	C	1.803876	-0.242256	0.186416
C26	C	1.811894	-0.359801	0.224492
C27	C	1.997251	0.166490	-0.053939
C28	C	2.160672	0.170381	-0.055193
C29	C	1.697447	0.377843	-0.122387
C30	C	1.688928	0.502948	-0.162903
N31	N	1.636343	0.235840	-0.358250
C32	C	1.944993	0.018407	-0.661784
C33	C	1.985086	-0.009841	-0.527974
C34	C	1.897903	0.051576	-0.485536
C35	C	1.770622	0.141247	-0.576922
C36	C	1.730533	0.169504	-0.710746
C37	C	1.683442	0.202674	-0.534499
C38	C	1.556161	0.292345	-0.625884
C39	C	1.516078	0.320596	-0.759695
C40	C	1.603261	0.259179	-0.802133
C41	C	1.723532	0.174417	-0.400674
C42	C	1.509071	0.325514	-0.449636
C43	C	1.468979	0.353762	-0.583446
N44	N	1.817721	0.108081	0.246829
H45	H	1.702813	-0.125564	-0.155221
H46	H	1.827164	0.101407	-0.326279
H47	H	1.365344	0.426775	-0.657868
O48	O	2.029866	-0.041337	-0.702796
C49	C	2.150767	-0.126572	-0.593439
H50	H	2.176803	-0.100505	-0.513012
H51	H	2.114814	-0.213779	-0.551944
C52	C	2.264252	-0.169106	-0.737460
C53	C	2.296238	-0.137084	-0.638683
H54	H	2.353984	-0.175596	-0.765368
H55	H	2.182796	-0.111685	-0.811136
H56	H	2.234289	-0.241775	-0.702868
H57	H	2.326182	-0.064410	-0.673281
H58	H	2.377703	-0.194494	-0.565013
H59	H	1.820708	-0.579433	0.275586
O60	O	1.392356	0.407581	-0.848558
C61	C	1.283744	0.362611	-0.906098
H62	H	1.344503	0.279306	-0.897792
H63	H	1.190968	0.342905	-0.851685
C64	C	1.133728	0.554957	-1.063878
C65	C	1.208356	0.452645	-1.053686
H66	H	1.087218	0.610495	-1.154915
H67	H	1.206897	0.585255	-1.025109
H68	H	1.056425	0.538520	-1.018526
H69	H	1.285669	0.469081	-1.099023
H70	H	1.135197	0.422352	-1.092466
H71	H	1.764953	-0.641695	0.099869
H72	H	2.088717	-0.082849	-0.453574
O73	O	1.424483	0.385352	-0.408538
C74	C	1.428418	0.504048	-0.477456
H75	H	1.535348	0.513621	-0.514810
H76	H	1.320432	0.552674	-0.565577
C77	C	1.302808	0.543332	-0.337362
C78	C	1.434149	0.555088	-0.383231
H79	H	1.306336	0.574819	-0.279243
H80	H	1.300151	0.463365	-0.290933
H81	H	1.212834	0.583853	-0.410807
H82	H	1.524119	0.514556	-0.309788
H83	H	1.436821	0.635050	-0.429645
O84	O	1.664877	-0.147721	-0.276209
C85	C	1.514397	-0.083575	-0.356169
H86	H	1.455795	-0.133212	-0.403127
H87	H	1.444803	-0.070158	-0.292260
C88	C	1.595171	0.096383	-0.408740
C89	C	1.523199	0.035423	-0.466422
H90	H	1.600597	0.169789	-0.476746
H91	H	1.696550	0.053168	-0.354865
H92	H	1.537166	0.107552	-0.355484
H93	H	1.581214	0.024242	-0.519663
H94	H	1.421828	0.078639	-0.520309
H95	H	1.625143	-0.441771	-0.376664
H96	H	1.610618	-0.228509	-0.445761
H97	H	1.843452	-0.427589	0.334352
O98	O	1.833447	-0.208800	0.280400
C99	C	1.702099	-0.130860	0.261593
H100	H	1.627877	-0.088171	0.154016
H101	H	1.632144	-0.180239	0.330803
C102	C	1.844541	-0.089117	0.425008
C103	C	1.753387	-0.036678	0.292876
H104	H	1.876175	-0.031023	0.444310
H105	H	1.933032	-0.141629	0.437683
H106	H	1.786231	-0.130265	0.482667
H107	H	1.811703	0.004456	0.235219
H108	H	1.664907	0.015844	0.280192
O109	O	1.937009	0.023951	-0.355495
C110	C	2.068065	-0.068345	-0.283941
H111	H	2.076817	-0.118902	-0.339412
H112	H	2.176231	-0.032024	-0.273563
C113	C	2.042534	-0.087839	-0.076739
C114	C	2.053276	-0.149940	-0.144863
H115	H	2.033417	-0.138169	0.009054
H116	H	1.954242	-0.025654	-0.124945
H117	H	2.132676	-0.057575	-0.068104
H118	H	1.963127	-0.180191	-0.153511
H119	H	2.141552	-0.212132	-0.096655
H120	H	1.570615	0.282174	-0.911090
