data_functionalizedCrystal
_audit_creation_method	'MofGen! by Chris Wilmer'
_symmetry_space_group_name_H-M	'P1'
_symmetry_Int_Tables_number	1
_symmetry_cell_setting	triclinic
loop_
_symmetry_equiv_pos_as_xyz
  x,y,z
_cell_length_a	10.685980
_cell_length_b	12.827892
_cell_length_c	10.686551
_cell_angle_alpha	94.405282
_cell_angle_beta	98.408259
_cell_angle_gamma	94.382001
loop_
_atom_site_label
_atom_site_type_symbol
_atom_site_fract_x
_atom_site_fract_y
_atom_site_fract_z
Zn1	Zn	1.995787	-0.234228	0.866707
Zn2	Zn	1.979364	-0.423541	0.654445
Zn3	Zn	1.767214	-0.263313	0.638171
Zn4	Zn	1.783487	-0.423440	0.850356
O5	O	1.881463	-0.336130	0.752420
O6	O	2.171242	-0.247211	0.852203
O7	O	1.937538	-0.414501	0.474655
O8	O	1.797597	-0.113213	0.668519
O9	O	2.159176	-0.386299	0.696256
O10	O	1.965529	-0.091844	0.836423
O11	O	1.781672	-0.296782	0.462698
O12	O	1.591739	-0.296684	0.652664
O13	O	1.825333	-0.386126	1.030157
O14	O	1.603695	-0.414328	0.808555
O15	O	1.981309	-0.247112	1.042170
O16	O	1.953317	-0.569770	0.680401
O17	O	1.809408	-0.569695	0.824336
C18	C	1.551659	-0.358652	0.727070
C19	C	1.410569	-0.368310	0.716256
C20	C	1.881383	-0.607647	0.752390
C21	C	1.881468	-0.723793	0.752429
C22	C	1.810235	-0.775580	0.823594
C23	C	1.810321	-0.895622	0.823636
C24	C	2.212555	-0.313522	0.777869
C25	C	2.353647	-0.303887	0.788714
C26	C	1.906968	-0.313363	1.083509
C27	C	1.917837	-0.303661	1.224599
C28	C	1.881580	-0.063549	0.752480
C29	C	1.881630	0.052609	0.752505
C30	C	1.856130	-0.358729	0.422624
C31	C	1.845507	-0.368119	0.281554
H32	H	1.412851	-0.241338	0.859019
C33	C	2.029919	-0.958115	0.604486
C34	C	1.963968	-0.887286	0.670247
H35	H	2.080755	-0.921000	0.553710
H36	H	1.970981	-1.007854	0.551613
H37	H	2.082765	-0.993514	0.663544
H38	H	1.911114	-0.851893	0.611188
H39	H	2.022913	-0.837529	0.723124
C40	C	1.259938	-0.520199	0.687013
C41	C	1.330652	-0.452756	0.621332
H42	H	1.210609	-0.572334	0.628411
H43	H	1.205326	-0.481078	0.731004
H44	H	1.315929	-0.552937	0.746156
H45	H	1.274660	-0.420012	0.562195
H46	H	1.385269	-0.491882	0.577320
H47	H	1.749179	-0.731050	0.884487
H48	H	1.942513	-0.768327	0.691529
H49	H	1.749341	-0.940157	0.884569
H50	H	1.775271	-0.430730	1.222376
H51	H	1.988086	-0.241053	1.283784
