data_functionalizedCrystal
_audit_creation_method	'MofGen! by Chris Wilmer'
_symmetry_space_group_name_H-M	'P1'
_symmetry_Int_Tables_number	1
_symmetry_cell_setting	triclinic
loop_
_symmetry_equiv_pos_as_xyz
  x,y,z
_cell_length_a	14.395555
_cell_length_b	12.970454
_cell_length_c	12.970454
_cell_angle_alpha	60.000396
_cell_angle_beta	89.999695
_cell_angle_gamma	60.001497
loop_
_atom_site_label
_atom_site_type_symbol
_atom_site_fract_x
_atom_site_fract_y
_atom_site_fract_z
Zr1	Zr	0.894878	1.128555	-0.135313
O2	O	0.746556	1.343636	-0.299931
O3	O	0.940346	0.913469	-0.084850
O4	O	0.940348	1.128557	-0.299938
O5	O	0.746553	1.128549	0.084823
O6	O	1.093216	1.128565	-0.299942
O7	O	0.746554	1.128548	-0.084843
O8	O	1.093212	0.743812	0.084811
O9	O	0.746557	1.513302	-0.299930
O10	O	1.073822	1.001945	-0.063330
O11	O	0.959738	1.001940	0.063294
O12	O	0.959740	1.255178	-0.189945
O13	O	0.845656	1.255173	-0.063322
Zr14	Zr	1.138682	1.128569	0.135279
Zr15	Zr	1.138684	1.128568	-0.135319
Zr16	Zr	0.894877	1.128557	0.135285
Zr17	Zr	0.894879	1.399153	-0.135311
Zr18	Zr	1.138681	0.857971	0.135277
O19	O	1.093214	1.343656	0.084816
O20	O	1.093216	1.343654	-0.299940
O21	O	0.746554	1.343638	0.084825
O22	O	1.287004	0.913488	0.299897
O23	O	1.287007	0.913486	-0.084859
O24	O	0.940344	0.913471	0.299906
O25	O	1.287007	1.128575	-0.084857
O26	O	1.093212	1.128568	0.299904
O27	O	0.940345	1.128560	0.299908
O28	O	1.287006	1.128576	0.084809
O29	O	0.940350	1.513312	-0.299935
O30	O	1.093211	0.743813	0.299901
O31	O	1.287004	0.743822	0.299896
O32	O	1.287005	0.743821	0.084806
O33	O	0.746555	1.513303	-0.084840
O34	O	0.940348	1.513313	-0.084845
O35	O	1.073820	1.001946	0.189911
O36	O	1.187904	1.001951	0.063288
O37	O	1.073823	1.255185	-0.063328
O38	O	0.959739	1.255180	0.063296
C39	C	1.016779	0.790086	-0.000020
C40	C	1.016779	0.675210	-0.000021
C41	C	0.711817	1.128547	-0.000009
C42	C	0.608315	1.128542	-0.000006
C43	C	0.609928	0.990468	0.069028
C44	C	0.516912	1.059492	0.119068
C45	C	0.516902	1.059523	-0.050010
C46	C	0.516662	1.197566	0.050104
C47	C	0.516666	1.197578	-0.119041
C48	C	0.423633	1.266703	-0.069030
C49	C	1.321744	1.128578	-0.000025
C50	C	1.425246	1.128583	-0.000028
C51	C	1.016782	1.128560	-0.338495
C52	C	1.016783	1.128560	-0.453371
C53	C	1.016781	1.467039	-0.000014
C54	C	1.016782	1.581914	-0.000013
C55	C	1.016778	1.128564	0.338461
C56	C	1.016777	1.128565	0.453337
C57	C	1.321743	0.790101	-0.000028
C58	C	1.425244	0.675231	-0.000032
C59	C	1.016777	0.790088	0.338458
C60	C	1.016776	0.675213	0.453333
C61	C	1.321741	0.790103	0.338450
C62	C	1.425241	0.675233	0.453322
C63	C	0.711820	1.467022	-0.338484
C64	C	0.608319	1.581892	-0.453356
C65	C	0.711818	1.467023	-0.000006
C66	C	0.608316	1.581894	-0.000002
C67	C	1.016783	1.467037	-0.338492
C68	C	1.016785	1.581912	-0.453367
C69	C	1.473850	0.527802	0.093442
C70	C	1.571090	0.419854	0.093442
C71	C	1.619729	0.459337	-0.000026
C72	C	1.571114	0.606781	-0.093509
C73	C	1.473871	0.714726	-0.093513
C74	C	1.473854	0.527805	0.507266
C75	C	1.571115	0.419855	0.615189
C76	C	1.619757	0.459338	0.669171
C77	C	1.571139	0.606781	0.615218
C78	C	1.473885	0.714727	0.507292
C79	C	0.559715	1.729320	-0.507309
C80	C	0.462476	1.837269	-0.615256
C81	C	0.413838	1.797786	-0.669242
C82	C	0.462451	1.650343	-0.615284
C83	C	0.559693	1.542397	-0.507344
C84	C	0.559709	1.542365	0.093482
C85	C	0.462468	1.650283	0.093512
C86	C	0.413831	1.797729	0.000050
C87	C	0.462448	1.837258	-0.093440
C88	C	0.559692	1.729341	-0.093463
H89	H	0.689683	0.873713	0.127485
Br90	Br	1.637136	0.660342	-0.220353
Br91	Br	0.625692	1.342268	0.220338
H92	H	0.517636	1.255883	-0.219678
H93	H	0.422896	1.618070	0.169642
Br94	Br	1.751746	0.312818	0.815644
Br95	Br	0.518030	1.294765	0.120767
Br96	Br	0.281856	1.944172	0.000100
H97	H	0.422835	1.618215	-0.659255
Br98	Br	0.396425	2.037372	-0.220276
Br99	Br	0.281864	1.944305	-0.815734
H100	H	0.344006	1.383553	-0.127406
Br101	Br	0.515379	0.962220	-0.120484
Br102	Br	0.625642	1.783015	-0.220355
H103	H	0.599254	1.422355	-0.463418
H104	H	1.434261	0.495625	0.169558
Br105	Br	0.515367	0.962239	0.286839
Br106	Br	1.637048	0.219766	0.220323
Br107	Br	1.751704	0.312820	-0.000001
Br108	Br	1.637163	0.660340	0.688500
H109	H	1.434262	0.495629	0.463328
Br110	Br	1.407912	0.914808	-0.220390
H111	H	1.434308	0.834769	0.463383
Br112	Br	1.637072	0.219768	0.688390
H113	H	0.599300	1.761496	-0.463365
Br114	Br	0.396519	2.037357	-0.688460
