data_functionalizedCrystal
_audit_creation_method	'MofGen! by Chris Wilmer'
_symmetry_space_group_name_H-M	'P1'
_symmetry_Int_Tables_number	1
_symmetry_cell_setting	triclinic
loop_
_symmetry_equiv_pos_as_xyz
  x,y,z
_cell_length_a	14.971486
_cell_length_b	16.109301
_cell_length_c	13.448316
_cell_angle_alpha	89.991973
_cell_angle_beta	89.998199
_cell_angle_gamma	83.537805
loop_
_atom_site_label
_atom_site_type_symbol
_atom_site_fract_x
_atom_site_fract_y
_atom_site_fract_z
O1	O	1.186791	0.108348	-0.082581
O2	O	0.926372	0.121323	-0.082608
O3	O	1.063736	-0.006187	-0.082584
O4	O	1.049428	0.235857	-0.082605
O5	O	1.063718	-0.006195	0.082800
O6	O	0.926355	0.121315	0.082776
O7	O	1.186774	0.108340	0.082803
Cu8	Cu	1.056563	0.114827	0.097890
Cu9	Cu	1.056583	0.114836	-0.097695
O10	O	1.049410	0.235850	0.082778
C11	C	0.893040	0.120739	0.000080
C12	C	0.793745	0.119000	0.000070
C13	C	1.063147	-0.037166	0.000109
C14	C	1.061410	-0.129464	0.000110
C15	C	0.736412	0.193908	0.000065
C16	C	0.643115	0.192269	0.000080
C17	C	0.607153	0.115721	0.000093
C18	C	0.664494	0.040807	0.000101
C19	C	0.757789	0.042447	0.000093
C20	C	0.470036	0.037395	0.000115
C21	C	0.376734	0.035755	0.000121
C22	C	0.355362	0.187217	0.000102
C23	C	0.448657	0.188857	0.000094
C24	C	0.505991	0.113942	0.000100
C25	C	1.138878	-0.351640	0.000102
C26	C	1.137239	-0.438362	0.000094
C27	C	0.974262	-0.418691	0.000081
C28	C	0.975902	-0.331970	0.000082
C29	C	1.058213	-0.298447	0.000098
C30	C	1.054933	-0.471890	0.000088
C31	C	1.053155	-0.565918	0.000079
C32	C	1.059992	-0.204413	0.000105
C33	C	1.220106	0.108924	0.000112
C34	C	1.319401	0.110663	0.000116
C35	C	1.049999	0.266829	0.000084
C36	C	1.051736	0.359127	0.000076
N37	N	1.056555	0.114820	0.235454
N38	N	1.056598	0.114837	-0.235260
C39	C	1.117398	0.058382	0.287506
C40	C	1.117404	0.058381	0.391609
C41	C	1.056570	0.114823	0.443659
C42	C	0.995720	0.171264	0.391601
C43	C	0.995711	0.171260	0.287499
C44	C	0.995745	0.171269	0.608581
C45	C	0.995755	0.171275	0.712689
C46	C	1.117438	0.058391	0.712690
C47	C	1.117429	0.058387	0.608589
C48	C	1.056580	0.114829	0.556538
H49	H	0.765684	0.256242	0.000053
O50	O	1.176511	0.003446	0.763135
C51	C	1.228960	-0.141038	0.795046
C52	C	1.162020	-0.078914	0.737835
H53	H	1.217255	-0.207639	0.774628
H54	H	1.300607	-0.130154	0.774542
H55	H	1.218533	-0.131304	0.878386
H56	H	1.172365	-0.088610	0.654482
H57	H	1.090397	-0.089813	0.758422
H58	H	1.166940	0.012424	0.245133
H59	H	0.910211	-0.288658	0.000075
H60	H	0.635206	-0.021520	0.000126
H61	H	1.166947	0.012425	0.433989
H62	H	0.516716	-0.023609	0.000122
O63	O	0.483705	0.263159	0.000197
C64	C	0.576621	0.352924	0.085855
C65	C	0.537001	0.268742	0.085857
H66	H	0.619703	0.357473	0.155114
H67	H	0.619817	0.357474	0.016678
H68	H	0.519611	0.406178	0.085799
H69	H	0.593953	0.215440	0.085948
H70	H	0.493781	0.264266	0.155027
O71	O	1.218909	-0.319212	0.000062
C72	C	1.380387	-0.347881	0.000118
C73	C	1.289813	-0.384712	0.000147
H74	H	1.437736	-0.400819	0.000208
H75	H	1.385291	-0.307795	-0.069112
H76	H	1.385182	-0.307751	0.069314
H77	H	1.284956	-0.424879	-0.069002
H78	H	1.284947	-0.424750	0.069422
H79	H	0.946216	0.217235	0.755063
H80	H	0.347458	-0.026577	0.000133
O81	O	1.176307	0.003357	0.558031
C82	C	1.195032	-0.110478	0.440930
C83	C	1.128318	-0.048078	0.498031
H84	H	1.156260	-0.152091	0.392422
H85	H	1.239832	-0.074811	0.391995
H86	H	1.238404	-0.150766	0.496164
H87	H	1.084888	-0.007773	0.442869
H88	H	1.083580	-0.083796	0.546981
O89	O	1.215574	-0.490066	-0.000076
C90	C	1.308294	-0.599410	-0.085726
C91	C	1.219552	-0.540890	-0.085666
H92	H	1.311532	-0.640528	-0.154908
H93	H	1.367436	-0.560590	-0.085780
H94	H	1.311585	-0.640475	-0.016485
H95	H	1.216174	-0.499813	-0.154895
H96	H	1.160453	-0.579759	-0.085560
H97	H	0.308675	0.248215	0.000101
H98	H	0.804470	-0.018551	0.000097
O99	O	0.936605	0.226178	0.558171
C100	C	0.815886	0.338119	0.569149
C101	C	0.882820	0.275991	0.626362
H102	H	0.772371	0.378397	0.624257
H103	H	0.854440	0.379767	0.520425
H104	H	0.771252	0.302140	0.520398
H105	H	0.927471	0.311903	0.675168
H106	H	0.844210	0.234344	0.675023
O107	O	0.936576	0.226166	0.237087
C108	C	0.815849	0.338098	0.248066
C109	C	0.882789	0.275977	0.305279
H110	H	0.772332	0.378375	0.303174
H111	H	0.854397	0.379749	0.199339
H112	H	0.771217	0.302114	0.199318
H113	H	0.927438	0.311894	0.354081
H114	H	0.844185	0.234327	0.353944
H115	H	0.946183	0.217217	0.433986
H116	H	0.596437	0.253267	0.000074
H117	H	0.907247	-0.445996	0.000070
