data_functionalizedCrystal
_audit_creation_method	'MofGen! by Chris Wilmer'
_symmetry_space_group_name_H-M	'P1'
_symmetry_Int_Tables_number	1
_symmetry_cell_setting	triclinic
loop_
_symmetry_equiv_pos_as_xyz
  x,y,z
_cell_length_a	14.395555
_cell_length_b	20.875859
_cell_length_c	20.875641
_cell_angle_alpha	60.668769
_cell_angle_beta	90.003252
_cell_angle_gamma	58.327818
loop_
_atom_site_label
_atom_site_type_symbol
_atom_site_fract_x
_atom_site_fract_y
_atom_site_fract_z
Zr1	Zr	0.846494	0.731268	-0.117744
O2	O	0.693823	0.864231	-0.223196
O3	O	0.900325	0.593027	-0.080541
O4	O	0.897761	0.723650	-0.216158
O5	O	0.690413	0.741458	0.013850
O6	O	1.050635	0.723646	-0.216152
O7	O	0.696386	0.733608	-0.087580
O8	O	1.055221	0.489985	0.026441
O9	O	0.685827	0.975118	-0.228743
O10	O	1.028879	0.651840	-0.070561
O11	O	0.910332	0.657702	0.005131
O12	O	0.907314	0.811493	-0.154540
O13	O	0.788768	0.817355	-0.078849
Zr14	Zr	1.080783	0.743781	0.044034
Zr15	Zr	1.090310	0.731261	-0.117735
Zr16	Zr	0.836966	0.743789	0.044025
Zr17	Zr	0.833741	0.908121	-0.126590
Zr18	Zr	1.093536	0.566928	0.052880
O19	O	1.026952	0.882022	0.006832
O20	O	1.040498	0.864220	-0.223184
O21	O	0.680276	0.882033	0.006819
O22	O	1.233454	0.610819	0.149487
O23	O	1.247001	0.593017	-0.080528
O24	O	0.886778	0.610829	0.149474
O25	O	1.236864	0.733592	-0.087560
O26	O	1.029516	0.751399	0.142448
O27	O	0.876642	0.751404	0.142442
O28	O	1.230890	0.741442	0.013870
O29	O	0.879628	0.975112	-0.228736
O30	O	1.047648	0.499937	0.155026
O31	O	1.241450	0.499931	0.155033
O32	O	1.249023	0.489979	0.026448
O33	O	0.678254	0.985070	-0.100158
O34	O	0.872055	0.985064	-0.100151
O35	O	1.019963	0.663557	0.080831
O36	O	1.138509	0.657695	0.005139
O37	O	1.016944	0.817348	-0.078840
O38	O	0.898398	0.823210	-0.003148
C39	C	0.979590	0.516309	-0.025790
C40	C	0.985004	0.441230	-0.022034
C41	C	1.025031	0.012361	0.005491
C42	C	1.019881	0.082934	0.001949
C43	C	0.931966	0.174965	-0.058757
C44	C	0.849203	0.196423	-0.115929
C45	C	0.854359	0.125850	-0.112389
C46	C	0.907398	0.392115	-0.075666
C47	C	0.902245	0.462688	-0.079200
C48	C	1.072925	0.349194	0.038677
C49	C	1.078070	0.278626	0.042214
C50	C	0.995311	0.300090	-0.014960
N51	N	0.926697	0.247103	-0.062378
N52	N	1.000585	0.227952	-0.011342
C53	C	0.658661	0.737534	-0.036866
C54	C	0.555154	0.737537	-0.036870
C55	C	0.428283	0.824588	-0.082652
C56	C	0.402462	0.777159	-0.110304
C57	C	0.396553	0.784961	-0.009224
C58	C	0.530699	0.690105	-0.064563
C59	C	0.524784	0.697923	0.036556
C60	C	0.499040	0.650430	0.008926
C61	C	1.268616	0.737516	-0.036844
C62	C	1.372122	0.737513	-0.036840
C63	C	0.975555	0.721864	-0.239203
C64	C	0.979600	0.716549	-0.307879
C65	C	0.947687	0.958741	-0.047920
C66	C	0.942273	1.033820	-0.051675
C67	C	0.918047	0.797387	-0.383979
C68	C	0.921862	0.792387	-0.448504
C69	C	0.987225	0.706549	-0.436927
C70	C	1.048785	0.625704	-0.360819
C71	C	1.044976	0.630705	-0.296296
C72	C	1.005428	0.682657	-0.625200
C73	C	1.009230	0.677663	-0.689731
C74	C	0.882308	0.844346	-0.777411
C75	C	0.878499	0.849339	-0.712883
C76	C	0.940064	0.768495	-0.636781
N77	N	0.991123	0.701436	-0.502880
N78	N	0.936172	0.773608	-0.570829
C79	C	0.951721	0.753186	0.165494
C80	C	0.947677	0.758501	0.234169
C81	C	1.284567	0.516299	-0.025778
C82	C	1.393488	0.441218	-0.022019
C83	C	0.967673	0.531969	0.176559
C84	C	0.969042	0.462206	0.248990
C85	C	1.272650	0.531960	0.176570
C86	C	1.377526	0.462194	0.249005
C87	C	0.654626	0.943089	-0.250280
C88	C	0.549750	1.012856	-0.322714
C89	C	0.642709	0.958750	-0.047931
C90	C	0.533789	1.033832	-0.051690
C91	C	0.959604	0.943080	-0.250269
C92	C	0.958234	1.012844	-0.322699
C93	C	1.387413	0.402901	-0.059775
C94	C	1.489746	0.332363	-0.056259
C95	C	1.598153	0.300137	-0.014981
C96	C	1.604226	0.338460	0.022776
C97	C	1.501893	0.409002	0.019255
C98	C	1.026911	0.432501	0.322526
C99	C	1.028192	0.366961	0.390588
C100	C	0.971611	0.331122	0.385112
C101	C	0.913735	0.360833	0.311569
C102	C	0.912448	0.426377	0.243508
C103	C	1.488667	0.426370	0.243510
C104	C	1.587218	0.360827	0.311564
C105	C	1.574626	0.331102	0.385111
C106	C	1.463473	0.366932	0.390603
C107	C	1.364924	0.432480	0.322551
C108	C	0.438609	1.048688	-0.317221
C109	C	0.340056	1.114254	-0.385275
C110	C	0.352648	1.143982	-0.458822
C111	C	0.463801	1.108147	-0.464314
C112	C	0.562351	1.042588	-0.396261
C113	C	0.539864	1.072155	-0.013941
C114	C	0.437530	1.142712	-0.017477
C115	C	0.329123	1.174940	-0.058757
C116	C	0.323051	1.136614	-0.096511
C117	C	0.425383	1.066063	-0.092980
C118	C	1.014827	1.048662	-0.317199
C119	C	1.013563	1.114204	-0.385249
C120	C	0.955699	1.143930	-0.458798
C121	C	0.899105	1.108105	-0.464297
C122	C	0.900376	1.042560	-0.396248
H123	H	1.087274	0.065454	0.048498
H124	H	1.498942	0.450562	0.183631
H125	H	0.588299	0.650030	-0.088003
Cl126	Cl	1.176961	0.322220	0.110546
H127	H	1.692505	0.312211	0.056383
H128	H	0.338807	0.825076	0.014145
Cl129	Cl	0.479612	1.145526	-0.556780
H130	H	1.061947	1.024469	-0.257317
H131	H	1.059647	1.143366	-0.380756
Cl132	Cl	1.130958	0.517792	-0.346265
H133	H	0.234772	1.162865	-0.130121
Cl134	Cl	1.251142	0.443402	-0.111677
Cl135	Cl	1.726939	0.315792	0.304641
H136	H	0.954672	1.197302	-0.514202
H137	H	0.972668	0.277753	0.440538
H138	H	0.245806	1.232388	-0.061626
H139	H	1.274432	0.461638	0.327035
H140	H	1.506856	0.440190	0.050005
H141	H	0.871741	0.858214	-0.510466
Cl142	Cl	0.803347	0.419108	-0.147537
Cl143	Cl	0.835870	0.905305	-0.398542
Cl144	Cl	0.422748	1.011329	-0.224770
Cl145	Cl	0.417725	1.017888	-0.140435
H146	H	0.249560	1.143419	-0.380788
H147	H	0.272393	1.197365	-0.514229
H148	H	0.777625	0.271361	-0.165360
H149	H	0.851993	1.132319	-0.524190
H150	H	0.652845	1.013413	-0.400743
H151	H	1.654880	0.277729	0.440518
Cl152	Cl	0.791718	0.578389	-0.155524
H153	H	1.072986	0.461674	0.326999
H154	H	0.786970	0.143329	-0.158941
H155	H	0.399395	0.898193	-0.121422
Cl156	Cl	0.829210	0.997548	-0.403177
Cl157	Cl	1.100960	0.329620	0.483032
H158	H	1.484779	0.301168	-0.087005
H159	H	0.628125	1.045921	0.019678
H160	H	0.528149	0.576759	0.047649
H161	H	1.062456	0.607759	-0.680296
H162	H	0.349738	0.810643	-0.172386
Cl163	Cl	0.804919	0.945972	-0.873082
Cl164	Cl	1.135555	-0.103332	0.081813
Cl165	Cl	0.839699	0.463706	0.151066
Cl166	Cl	1.188589	0.162932	0.118538
Cl167	Cl	0.606184	0.646276	0.132384
H168	H	0.825277	0.919238	-0.722318
Cl169	Cl	1.726790	0.211452	-0.010559
H170	H	0.867669	0.331644	0.307122
H171	H	1.055560	0.616828	-0.563243
H172	H	1.095099	0.564878	-0.234332
H173	H	1.453237	0.342721	0.450495
H174	H	0.442497	1.173906	0.013271
