data_functionalizedCrystal
_audit_creation_method	'MofGen! by Chris Wilmer'
_symmetry_space_group_name_H-M	'P1'
_symmetry_Int_Tables_number	1
_symmetry_cell_setting	triclinic
loop_
_symmetry_equiv_pos_as_xyz
  x,y,z
_cell_length_a	12.759401
_cell_length_b	12.759400
_cell_length_c	12.759393
_cell_angle_alpha	89.969552
_cell_angle_beta	89.980324
_cell_angle_gamma	90.016209
loop_
_atom_site_label
_atom_site_type_symbol
_atom_site_fract_x
_atom_site_fract_y
_atom_site_fract_z
Zn1	Zn	1.606253	-0.418173	-0.594020
Zn2	Zn	2.106253	0.081827	-0.094020
Zn3	Zn	1.606148	-0.593889	-0.418340
Zn4	Zn	2.106148	-0.093889	0.081660
Zn5	Zn	1.430556	-0.418229	-0.418355
Zn6	Zn	1.930556	0.081771	0.081645
Zn7	Zn	1.430544	-0.593815	-0.593978
Zn8	Zn	1.930544	-0.093815	-0.093978
O9	O	1.518375	-0.506026	-0.506173
O10	O	2.018375	-0.006026	-0.006173
O11	O	1.753260	-0.441490	-0.570727
O12	O	2.253260	0.058510	-0.070727
O13	O	1.582817	-0.570641	-0.271321
O14	O	2.082817	-0.070641	0.228679
O15	O	1.453912	-0.271200	-0.441682
O16	O	1.953912	0.228800	0.058318
O17	O	1.753183	-0.570587	-0.441656
O18	O	2.253183	-0.070587	0.058344
O19	O	1.582996	-0.271160	-0.570742
O20	O	2.082996	0.228840	-0.070742
O21	O	1.453810	-0.441585	-0.271332
O22	O	1.953810	0.058415	0.228668
O23	O	1.283533	-0.441514	-0.441640
O24	O	1.783533	0.058486	0.058360
O25	O	1.453891	-0.570462	-0.741004
O26	O	1.953891	-0.070462	-0.241004
O27	O	1.283525	-0.570516	-0.570669
O28	O	1.783525	-0.070516	-0.070669
O29	O	1.582984	-0.441418	-0.741036
O30	O	2.082984	0.058582	-0.241036
O31	O	1.582805	-0.740900	-0.441615
O32	O	2.082805	-0.240900	0.058385
O33	O	1.453789	-0.740846	-0.570655
O34	O	1.953789	-0.240846	-0.070655
C35	C	1.245408	-0.506014	-0.506152
C36	C	1.745408	-0.006014	-0.006152
C37	C	1.128631	-0.506033	-0.506168
C38	C	1.628631	-0.006033	-0.006168
C39	C	1.518313	-0.778994	-0.506151
C40	C	2.018313	-0.278994	-0.006151
C41	C	1.518383	-0.895770	-0.506177
C42	C	2.018383	-0.395770	-0.006177
C43	C	1.073792	-0.573307	-0.573248
C44	C	1.573792	-0.073307	-0.073248
C45	C	0.964068	-0.573311	-0.573269
C46	C	1.464068	-0.073311	-0.073269
C47	C	0.964032	-0.438765	-0.439122
C48	C	1.464032	0.061235	0.060878
C49	C	1.073754	-0.438756	-0.439107
C50	C	1.573754	0.061244	0.060893
C51	C	1.585636	-0.950626	-0.439060
C52	C	2.085636	-0.450626	0.060940
C53	C	1.585700	-1.060350	-0.439093
C54	C	2.085700	-0.560350	0.060907
C55	C	1.451250	-1.060354	-0.573362
C56	C	1.951250	-0.560354	-0.073362
C57	C	1.451191	-0.950632	-0.573334
C58	C	1.951191	-0.450632	-0.073334
C59	C	1.652827	-0.895764	-0.371904
C60	C	2.152827	-0.395764	0.128096
C61	C	1.720085	-0.950620	-0.304781
C62	C	2.220085	-0.450620	0.195219
C63	C	1.720149	-1.060344	-0.304813
C64	C	2.220149	-0.560344	0.195187
C65	C	1.652956	-1.115212	-0.371969
C66	C	2.152956	-0.615212	0.128031
C67	C	1.792409	-0.506040	-0.506195
C68	C	2.292409	-0.006040	-0.006195
C69	C	1.909185	-0.506046	-0.506204
C70	C	2.409185	-0.006046	-0.006204
C71	C	1.518448	-0.505926	-0.780207
C72	C	2.018448	-0.005926	-0.280207
C73	C	1.518479	-0.505883	-0.896984
C74	C	2.018479	-0.005883	-0.396984
C75	C	1.518467	-0.231993	-0.506218
C76	C	2.018467	0.268007	-0.006218
C77	C	1.518506	-0.115217	-0.506237
C78	C	2.018506	0.384783	-0.006237
C79	C	1.585656	-0.573057	-0.951837
C80	C	2.085656	-0.073057	-0.451837
C81	C	1.585688	-0.573012	-1.061561
C82	C	2.085688	-0.073012	-0.561561
C83	C	1.451356	-0.438616	-1.061568
C84	C	1.951356	0.061384	-0.561568
C85	C	1.451330	-0.438657	-0.951846
C86	C	1.951330	0.061343	-0.451846
C87	C	1.652805	-0.640283	-0.896974
C88	C	2.152805	-0.140283	-0.396974
C89	C	1.719987	-0.707464	-0.951828
C90	C	2.219987	-0.207464	-0.451828
C91	C	1.720018	-0.707419	-1.061552
C92	C	2.220018	-0.207419	-0.561552
C93	C	1.652868	-0.640194	-1.116423
C94	C	2.152868	-0.140194	-0.616423
C95	C	1.518364	-0.506051	-0.233206
C96	C	2.018364	-0.006051	0.266794
C97	C	1.518536	-0.505798	-0.116430
C98	C	2.018536	-0.005798	0.383570
H99	H	1.118470	-0.628086	-0.627857
H100	H	1.618470	-0.128086	-0.127857
O101	O	1.378652	-0.891463	-0.645724
O102	O	1.878652	-0.391463	-0.145724
H103	H	1.389910	-0.805950	-0.634429
H104	H	1.889910	-0.305950	-0.134429
O105	O	0.904985	-0.645930	-0.645614
O106	O	1.404985	-0.145930	-0.145614
H107	H	0.855028	-0.599039	-0.699209
H108	H	1.355028	-0.099039	-0.199209
O109	O	1.378773	-1.119539	-0.645774
O110	O	1.878773	-0.619539	-0.145774
H111	H	1.396738	-1.098416	-0.728245
H112	H	1.896738	-0.598416	-0.228245
H113	H	1.774664	-0.762190	-0.907146
H114	H	2.274664	-0.262190	-0.407146
O115	O	0.904827	-0.366240	-0.366769
O116	O	1.404827	0.133760	0.133231
H117	H	0.854849	-0.312854	-0.413875
H118	H	1.354849	0.187146	0.086125
H119	H	1.118405	-0.383967	-0.384482
H120	H	1.618405	0.116033	0.115518
O121	O	1.652760	-0.777420	-0.371876
O122	O	2.152760	-0.277420	0.128124
H123	H	1.710785	-0.748485	-0.313911
H124	H	2.210785	-0.248485	0.186089
H125	H	1.774797	-0.905940	-0.250111
H126	H	2.274797	-0.405940	0.249889
O127	O	1.378942	-0.366102	-1.120742
O128	O	1.878942	0.133898	-0.620742
H129	H	1.390245	-0.377361	-1.206255
H130	H	1.890245	0.122639	-0.706255
H131	H	1.774921	-1.105004	-0.250166
H132	H	2.274921	-0.605004	0.249834
H133	H	1.652784	-0.640330	-0.807632
H134	H	2.152784	-0.140330	-0.307632
O135	O	1.653019	-1.233559	-0.372007
O136	O	2.153019	-0.733559	0.127993
H137	H	1.711071	-1.262489	-0.314050
H138	H	2.211071	-0.762489	0.185950
H139	H	1.774728	-0.762113	-1.106211
H140	H	2.274728	-0.262113	-0.606211
O141	O	1.652967	-0.640117	-1.234769
O142	O	2.152967	-0.140117	-0.734769
H143	H	1.631730	-0.719338	-1.263726
H144	H	2.131730	-0.219338	-0.763726
O145	O	1.378874	-0.366211	-0.892670
O146	O	1.878874	0.133789	-0.392670
H147	H	1.332174	-0.319469	-0.949251
H148	H	1.832174	0.180531	-0.449251
