data_functionalizedCrystal
_audit_creation_method	'MofGen! by Chris Wilmer'
_symmetry_space_group_name_H-M	'P1'
_symmetry_Int_Tables_number	1
_symmetry_cell_setting	triclinic
loop_
_symmetry_equiv_pos_as_xyz
  x,y,z
_cell_length_a	21.295419
_cell_length_b	21.295416
_cell_length_c	21.395356
_cell_angle_alpha	90.028650
_cell_angle_beta	89.983518
_cell_angle_gamma	89.954868
loop_
_atom_site_label
_atom_site_type_symbol
_atom_site_fract_x
_atom_site_fract_y
_atom_site_fract_z
Zn1	Zn	0.962306	0.250373	-0.354259
Zn2	Zn	0.962224	0.355643	-0.249481
Zn3	Zn	0.857044	0.250419	-0.249496
Zn4	Zn	0.856999	0.355636	-0.354221
O5	O	0.909643	0.303018	-0.301864
O6	O	1.050385	0.264322	-0.340370
O7	O	0.948256	0.341706	-0.161805
O8	O	0.871061	0.162323	-0.263415
O9	O	1.050324	0.341663	-0.263390
O10	O	0.948396	0.162290	-0.340385
O11	O	0.870981	0.264398	-0.161816
O12	O	0.768949	0.264392	-0.263378
O13	O	0.870984	0.341651	-0.441904
O14	O	0.768916	0.341695	-0.340320
O15	O	0.948353	0.264315	-0.441932
O16	O	0.948212	0.443731	-0.263353
O17	O	0.870904	0.443726	-0.340305
C18	C	0.746092	0.303048	-0.301847
C19	C	0.676124	0.303076	-0.301854
C20	C	0.909561	0.466569	-0.301837
C21	C	0.909584	0.536537	-0.301846
C22	C	0.643311	0.262870	-0.342000
C23	C	0.577569	0.262853	-0.342002
C24	C	0.544641	0.303053	-0.301866
C25	C	0.577462	0.343262	-0.261712
C26	C	0.643203	0.343273	-0.261707
N27	N	0.441367	0.358131	-0.296971
N28	N	0.378915	0.358119	-0.296980
C29	C	0.346566	0.303021	-0.301879
N30	N	0.379028	0.247934	-0.306781
N31	N	0.441486	0.247948	-0.306776
C32	C	0.473356	0.303045	-0.301867
C33	C	0.242468	0.262794	-0.342030
C34	C	0.176725	0.262776	-0.342028
C35	C	0.176619	0.343189	-0.261741
C36	C	0.242362	0.343202	-0.261740
C37	C	0.275282	0.303005	-0.301887
C38	C	0.949874	0.569386	-0.261819
C39	C	0.949904	0.635128	-0.261836
C40	C	0.909632	0.668020	-0.301873
C41	C	0.869339	0.635164	-0.341907
C42	C	0.869315	0.569422	-0.341894
N43	N	0.854565	0.771300	-0.306648
N44	N	0.854589	0.833751	-0.306657
C45	C	0.909703	0.866095	-0.301918
N46	N	0.964793	0.833627	-0.297156
N47	N	0.964767	0.771170	-0.297143
C48	C	0.909654	0.739305	-0.301893
C49	C	0.950029	0.970228	-0.261907
C50	C	0.950060	1.035972	-0.261929
C51	C	0.869489	1.036006	-0.341996
C52	C	0.869464	0.970264	-0.341978
C53	C	0.909733	0.937379	-0.301930
C54	C	1.073834	0.302988	-0.301882
C55	C	1.143802	0.302975	-0.301890
C56	C	0.909673	0.302977	-0.465288
C57	C	0.909685	0.302960	-0.534929
C58	C	0.909744	1.138827	-0.301917
C59	C	0.909788	1.068859	-0.301967
C60	C	0.950030	0.262591	-1.036741
C61	C	0.950025	0.262606	-0.971306
C62	C	0.909739	0.302876	-0.938568
C63	C	0.869466	0.343145	-0.971270
C64	C	0.869477	0.343134	-1.036705
C65	C	0.853005	0.307876	-0.834891
C66	C	0.852993	0.307883	-0.769458
C67	C	0.909707	0.302916	-0.736747
C68	C	0.966433	0.297929	-0.769476
C69	C	0.966444	0.297917	-0.834910
C70	C	0.909723	0.302894	-0.867615
C71	C	0.949975	0.262669	-0.633099
C72	C	0.949971	0.262689	-0.567663
C73	C	0.869406	0.343225	-0.567629
C74	C	0.869416	0.343209	-0.633064
C75	C	0.909699	0.302927	-0.665795
C76	C	0.909651	0.303013	-0.139077
C77	C	0.909760	0.302852	-0.069436
H78	H	0.550847	0.230110	-0.374692
H79	H	0.550648	0.375992	-0.229032
N80	N	0.676733	0.384348	-0.220708
N81	N	0.735430	0.384355	-0.220713
H82	H	0.759114	0.413365	-0.191758
H83	H	0.982817	0.229818	-0.944680
H84	H	0.269274	0.230059	-0.374716
H85	H	0.982665	0.542613	-0.229212
H86	H	0.836551	0.661948	-0.374507
H87	H	0.836683	0.375920	-1.063324
H88	H	0.150010	0.230032	-0.374718
N89	N	0.142983	0.384242	-0.220738
N90	N	0.084286	0.384223	-0.220744
H91	H	0.060527	0.413214	-0.191781
N92	N	0.275873	0.384277	-0.220729
N93	N	0.246469	0.420165	-0.184893
H94	H	0.270136	0.449175	-0.155925
N95	N	0.991061	0.668682	-0.220940
N96	N	1.027008	0.639313	-0.185186
H97	H	1.056074	0.663007	-0.156300
H98	H	0.836505	0.542677	-0.374489
H99	H	0.982820	0.943452	-0.229300
N100	N	0.828244	0.384352	-0.534197
N101	N	0.770162	0.380184	-0.541500
H102	H	0.741090	0.409232	-0.517888
N103	N	0.991229	1.069518	-0.221044
N104	N	1.027180	1.040146	-0.185295
H105	H	1.056259	1.063838	-0.156420
H106	H	1.012633	0.293857	-0.861556
H107	H	0.836702	1.062786	-0.374598
H108	H	0.836621	0.375991	-0.659684
H109	H	0.836654	0.943517	-0.374569
N110	N	0.828313	0.384270	-0.937822
N111	N	0.788207	0.362135	-0.901313
H112	H	0.759142	0.391182	-0.877690
H113	H	0.982835	0.229794	-1.063387
N114	N	1.024364	0.292845	-0.736061
N115	N	1.024349	0.292855	-0.677639
H116	H	1.065260	0.289261	-0.654036
N117	N	0.991123	0.221519	-0.666528
N118	N	1.027079	0.185575	-0.637325
H119	H	1.056139	0.156511	-0.660932
H120	H	0.982768	0.229905	-0.541043
H121	H	0.806803	0.311944	-0.742815
H122	H	0.806819	0.311921	-0.861520
H123	H	0.670111	0.230138	-0.374691
