data_functionalizedCrystal
_audit_creation_method	'MofGen! by Chris Wilmer'
_symmetry_space_group_name_H-M	'P1'
_symmetry_Int_Tables_number	1
_symmetry_cell_setting	triclinic
loop_
_symmetry_equiv_pos_as_xyz
  x,y,z
_cell_length_a	23.532355
_cell_length_b	23.532407
_cell_length_c	12.996460
_cell_angle_alpha	89.993706
_cell_angle_beta	90.000362
_cell_angle_gamma	97.161916
loop_
_atom_site_label
_atom_site_type_symbol
_atom_site_fract_x
_atom_site_fract_y
_atom_site_fract_z
O1	O	0.755281	-0.068990	0.085440
O2	O	0.589413	-0.079024	0.085475
O3	O	0.677349	0.008925	0.085434
O4	O	0.667345	-0.156940	0.085481
O5	O	0.677337	0.008920	-0.085700
O6	O	0.589402	-0.079029	-0.085659
O7	O	0.755269	-0.068995	-0.085694
Cu8	Cu	0.672334	-0.074013	-0.101302
Cu9	Cu	0.672348	-0.074007	0.101083
O10	O	0.667334	-0.156945	-0.085653
C11	C	0.568191	-0.078776	-0.000088
C12	C	0.504972	-0.078022	-0.000076
C13	C	0.112952	-0.073287	-0.093405
C14	C	0.053553	-0.072569	-0.093409
O15	O	0.022829	-0.072181	-0.172744
N16	N	0.023850	-0.072211	-0.000125
C17	C	0.053551	-0.072564	0.093170
O18	O	0.022833	-0.072192	0.172515
C19	C	0.112950	-0.073277	0.093173
C20	C	0.142649	-0.073641	-0.000118
C21	C	0.142651	-0.073650	-0.186688
C22	C	0.202046	-0.074369	-0.186684
C23	C	0.231742	-0.074724	-0.093396
C24	C	0.202044	-0.074360	-0.000113
C25	C	0.142651	-0.073626	0.186467
C26	C	0.202054	-0.074339	0.186462
C27	C	0.231752	-0.074703	0.093171
C28	C	0.291136	-0.075433	0.093179
N29	N	0.320838	-0.075792	-0.000105
C30	C	0.291141	-0.075437	-0.093393
C31	C	-0.071190	-0.071065	0.093156
C32	C	-0.130589	-0.070356	0.093154
C33	C	-0.130583	-0.070360	-0.093425
C34	C	-0.071184	-0.071073	-0.093422
C35	C	-0.041488	-0.071423	-0.000128
C36	C	0.415875	-0.076946	-0.093376
C37	C	0.475276	-0.077667	-0.093363
C38	C	0.475265	-0.077660	0.093216
C39	C	0.415870	-0.076942	0.093204
C40	C	0.386177	-0.076583	-0.000101
O41	O	0.321897	-0.075819	0.172473
O42	O	0.321868	-0.075801	-0.172725
C43	C	0.776491	-0.069244	-0.000129
C44	C	0.839710	-0.069998	-0.000134
C45	C	0.677088	0.030139	-0.000136
C46	C	0.676322	0.093356	-0.000147
N47	N	0.672329	-0.074017	-0.243649
C48	C	0.723557	0.492468	-0.000117
C49	C	0.722845	0.551868	-0.000112
O50	O	0.766632	0.588620	-0.000084
N51	N	0.670568	0.574484	-0.000102
C52	C	0.618998	0.537697	-0.000088
O53	O	0.574467	0.562388	-0.000079
C54	C	0.619710	0.478298	-0.000086
C55	C	0.671991	0.455685	-0.000106
C56	C	0.775834	0.469854	-0.000135
C57	C	0.776545	0.410458	-0.000143
C58	C	0.724979	0.373676	-0.000132
C59	C	0.672703	0.396289	-0.000113
C60	C	0.568141	0.441512	-0.000065
C61	C	0.568858	0.382110	-0.000062
C62	C	0.621139	0.359497	-0.000082
C63	C	0.621848	0.300110	-0.000110
N64	N	0.674126	0.277494	-0.000119
C65	C	0.725691	0.314277	-0.000130
C66	C	0.617507	0.662439	-0.000091
C67	C	0.616794	0.721837	-0.000100
C68	C	0.720642	0.736004	-0.000121
C69	C	0.721354	0.676605	-0.000119
C70	C	0.669784	0.639823	-0.000100
C71	C	0.727181	0.189540	-0.000146
C72	C	0.727888	0.130138	-0.000158
C73	C	0.624041	0.115977	-0.000131
C74	C	0.623334	0.175373	-0.000125
C75	C	0.674909	0.212154	-0.000129
O76	O	0.578084	0.263323	-0.000133
O77	O	0.770216	0.289577	-0.000125
C78	C	0.667594	0.821842	-0.000091
C79	C	0.668360	0.758625	-0.000106
C80	C	0.672332	-0.074018	-0.336755
C81	C	0.672337	-0.074014	-0.453560
C82	C	0.672344	-0.074008	-0.546659
C83	C	0.672350	-0.074005	-0.663471
N84	N	0.672358	-0.073998	0.243430
H85	H	-0.154772	-0.070070	-0.169386
H86	H	0.499454	-0.077951	0.169168
H87	H	0.118478	-0.073360	-0.262659
O88	O	-0.159344	-0.069984	0.183869
C89	C	-0.120390	-0.070468	0.266200
H90	H	-0.075588	-0.052947	0.238840
H91	H	-0.133773	-0.042606	0.331441
H92	H	-0.120311	-0.116240	0.294895
H93	H	0.526863	0.352164	-0.000045
O94	O	0.770749	0.771718	-0.000304
C95	C	0.802517	0.761517	-0.088926
H96	H	0.772334	0.741044	-0.150875
H97	H	0.825594	0.803800	-0.118674
H98	H	0.835312	0.731461	-0.068894
O99	O	0.778726	0.108268	-0.000127
C100	C	0.824085	0.153475	-0.000157
H101	H	0.808355	0.193736	0.032250
H102	H	0.860609	0.141266	0.049519
H103	H	0.839969	0.161979	-0.082261
O104	O	0.572499	0.197248	-0.000064
C105	C	0.527139	0.152043	-0.000086
H106	H	0.542874	0.111773	0.032292
H107	H	0.490625	0.164241	0.049619
H108	H	0.511241	0.143559	-0.082184
H109	H	0.574222	0.740243	-0.000102
O110	O	0.230937	-0.074581	0.277066
C111	C	0.272042	-0.025673	0.282630
H112	H	0.258855	0.009021	0.229675
H113	H	0.274972	-0.009119	0.365133
H114	H	0.315537	-0.037372	0.257582
H115	H	0.582057	0.086018	-0.000126
H116	H	0.769178	0.219481	-0.000145
H117	H	0.819117	0.392053	-0.000154
O118	O	0.387107	-0.076574	0.183916
C119	C	0.426056	-0.077063	0.266253
H120	H	0.470860	-0.059542	0.238903
H121	H	0.412671	-0.049204	0.331496
H122	H	0.426132	-0.122837	0.294941
O123	O	0.825981	0.505499	-0.000195
C124	C	0.872267	0.472789	-0.000183
H125	H	0.857539	0.428373	-0.032571
H126	H	0.908374	0.494900	-0.049885
H127	H	0.888316	0.468647	0.081912
H128	H	0.763925	0.658198	-0.000134
H129	H	0.575510	0.632494	-0.000084
O130	O	0.517390	0.463534	0.000102
C131	C	0.513871	0.497447	0.088754
H132	H	0.558848	0.512506	0.118279
H133	H	0.491381	0.536213	0.068841
H134	H	0.488539	0.471048	0.150828
H135	H	0.499453	-0.077966	-0.169335
H136	H	-0.047008	-0.071370	-0.169388
H137	H	0.391706	-0.076659	-0.169354
O138	O	-0.042294	-0.071491	0.183724
C139	C	-0.014683	-0.121244	0.189336
H140	H	-0.008022	-0.137796	0.108346
H141	H	0.028597	-0.110653	0.228831
H142	H	-0.042295	-0.155511	0.235371
H143	H	0.118480	-0.073329	0.262434
O144	O	0.230807	-0.074691	-0.277399
C145	C	0.191847	-0.074236	-0.359726
H146	H	0.151969	-0.055695	-0.332370
H147	H	0.212778	-0.046789	-0.424981
H148	H	0.179291	-0.119857	-0.388401
