data_functionalizedCrystal
_audit_creation_method	'MofGen! by Chris Wilmer'
_symmetry_space_group_name_H-M	'P1'
_symmetry_Int_Tables_number	1
_symmetry_cell_setting	triclinic
loop_
_symmetry_equiv_pos_as_xyz
  x,y,z
_cell_length_a	26.455835
_cell_length_b	26.455273
_cell_length_c	26.451828
_cell_angle_alpha	60.005170
_cell_angle_beta	60.010757
_cell_angle_gamma	59.993435
loop_
_atom_site_label
_atom_site_type_symbol
_atom_site_fract_x
_atom_site_fract_y
_atom_site_fract_z
O1	O	0.069940	-0.738516	0.617604
O2	O	0.569940	-0.238516	1.117604
O3	O	0.026299	-0.574986	0.497618
O4	O	0.526299	-0.074986	0.997618
O5	O	0.129847	-0.678463	0.497546
O6	O	0.629847	-0.178463	0.997546
O7	O	-0.033607	-0.635040	0.617676
O8	O	0.466393	-0.135040	1.117676
O9	O	0.164197	-0.644116	0.531822
O10	O	0.664197	-0.144116	1.031822
O11	O	0.060649	-0.540639	0.531894
O12	O	0.560649	-0.040639	1.031894
O13	O	0.104290	-0.704170	0.651880
O14	O	0.604290	-0.204170	1.151880
Cu15	Cu	0.085606	-0.619268	0.595016
Cu16	Cu	0.585606	-0.119268	1.095016
Cu17	Cu	0.044984	-0.659887	0.554481
Cu18	Cu	0.544984	-0.159887	1.054481
O19	O	0.000742	-0.600693	0.651952
O20	O	0.500742	-0.100693	1.151952
N21	N	0.114179	-0.590703	0.623530
N22	N	0.614179	-0.090703	1.123530
N23	N	0.016416	-0.688458	0.525968
N24	N	0.516416	-0.188458	1.025968
C25	C	0.157553	-0.547535	0.933368
C26	C	0.657553	-0.047535	1.433368
C27	C	0.424104	-0.547506	0.666656
C28	C	0.924104	-0.047506	1.166656
C29	C	0.157413	-0.547503	0.666729
C30	C	0.657413	-0.047503	1.166729
C31	C	0.157397	-0.280846	0.666749
C32	C	0.657397	0.219154	1.166749
C33	C	0.200330	-0.409550	0.709625
C34	C	0.700330	0.090450	1.209625
C35	C	0.200339	-0.504608	0.709615
C36	C	0.700339	-0.004608	1.209615
C37	C	0.224118	-0.480848	0.733375
C38	C	0.724118	0.019152	1.233375
C39	C	0.327800	-0.462984	0.678792
C40	C	0.827800	0.037016	1.178792
C41	C	0.392611	-0.484588	0.657175
C42	C	0.892611	0.015412	1.157175
C43	C	0.392630	-0.589450	0.697162
C44	C	0.892630	-0.089450	1.197162
C45	C	0.327821	-0.567844	0.718781
C46	C	0.827821	-0.067844	1.218781
C47	C	0.215955	-0.377135	0.645910
C48	C	0.715955	0.122865	1.145910
C49	C	0.194327	-0.312320	0.624323
C50	C	0.694327	0.187680	1.124323
C51	C	0.141457	-0.312339	0.730169
C52	C	0.641457	0.187661	1.230169
C53	C	0.163084	-0.377154	0.751756
C54	C	0.663084	0.122846	1.251756
C55	C	0.136618	-0.488954	0.725292
C56	C	0.636618	0.011046	1.225292
C57	C	0.115007	-0.510553	0.703686
C58	C	0.615007	-0.010553	1.203686
C59	C	0.220833	-0.563461	0.650740
C60	C	0.720833	-0.063461	1.150740
C61	C	0.242447	-0.541861	0.672339
C62	C	0.742447	-0.041861	1.172339
C63	C	0.136680	-0.488971	0.837094
C64	C	0.636680	0.011029	1.337094
C65	C	0.115112	-0.510589	0.901907
C66	C	0.615112	-0.010589	1.401907
C67	C	0.220969	-0.563508	0.901868
C68	C	0.720969	-0.063508	1.401868
C69	C	0.242535	-0.541892	0.837053
C70	C	0.742535	-0.041892	1.337053
C71	C	0.200389	-0.504622	0.804668
C72	C	0.700389	-0.004622	1.304668
C73	C	0.295409	-0.504610	0.709593
C74	C	0.795409	-0.004610	1.209593
C75	C	0.132990	-0.570876	1.004655
C76	C	0.632990	-0.070876	1.504655
C77	C	0.495389	-0.570440	0.642547
C78	C	0.995389	-0.070440	1.142547
C79	C	0.132802	-0.570856	0.643399
C80	C	0.632802	-0.070856	1.143399
C81	C	0.133212	-0.209553	0.643833
C82	C	0.633212	0.290447	1.143833
C83	C	-0.097217	-0.706972	0.506986
C84	C	0.402783	-0.206972	1.006986
C85	C	-0.002040	-0.707108	0.412067
C86	C	0.497960	-0.207108	0.912067
C87	C	-0.002230	-0.802124	0.507163
C88	C	0.497770	-0.302124	1.007163
C89	C	-0.002214	-0.707101	0.507221
C90	C	0.497786	-0.207101	1.007221
C91	C	-0.025925	-0.730827	0.483360
C92	C	0.474075	-0.230827	0.983360
N93	N	0.553723	-0.590712	0.623415
N94	N	1.053723	-0.090712	1.123415
O95	O	0.751638	-0.596429	0.475603
O96	O	1.251638	-0.096429	0.975603
O97	O	0.751819	-0.716773	0.638980
O98	O	1.251819	-0.216773	1.138980
O99	O	0.751753	-0.716500	0.535361
O100	O	1.251753	-0.216500	1.035361
O101	O	0.751705	-0.596703	0.579222
O102	O	1.251705	-0.096703	1.079222
O103	O	0.648791	-0.682239	0.569747
O104	O	1.148791	-0.182239	1.069747
O105	O	0.648858	-0.682512	0.673366
O106	O	1.148858	-0.182512	1.173366
O107	O	0.648676	-0.562169	0.509989
O108	O	1.148676	-0.062169	1.009989
Cu109	Cu	0.639366	-0.619212	0.594817
Cu110	Cu	1.139366	-0.119212	1.094817
Cu111	Cu	0.761130	-0.659729	0.554152
Cu112	Cu	1.261130	-0.159729	1.054152
O113	O	0.648743	-0.562442	0.613609
O114	O	1.148743	-0.062442	1.113609
N115	N	0.846773	-0.688230	0.525548
N116	N	1.346773	-0.188230	1.025548
N117	N	0.114157	-0.151217	0.623565
N118	N	0.614157	0.348783	1.123565
O119	O	-0.033591	0.046803	0.617717
O120	O	0.466409	0.546803	1.117717
O121	O	0.129795	0.046806	0.497390
O122	O	0.629795	0.546806	0.997390
O123	O	0.026157	0.046789	0.497680
O124	O	0.526157	0.546789	0.997680
O125	O	0.070046	0.046819	0.617427
O126	O	0.570046	0.546819	1.117427
O127	O	0.060509	-0.056181	0.532004
O128	O	0.560509	0.443819	1.032004
O129	O	0.164146	-0.056164	0.531714
O130	O	0.664146	0.443836	1.031714
O131	O	0.000760	-0.056167	0.652041
O132	O	0.500760	0.443833	1.152041
Cu133	Cu	0.085590	-0.065568	0.595012
Cu134	Cu	0.585590	0.434432	1.095012
Cu135	Cu	0.044965	0.056206	0.554419
Cu136	Cu	0.544965	0.556206	1.054419
O137	O	0.104397	-0.056151	0.651751
O138	O	0.604397	0.443849	1.151751
N139	N	0.016390	0.141855	0.525867
N140	N	0.516390	0.641855	1.025867
N141	N	0.114410	-0.590756	1.062992
N142	N	0.614410	-0.090756	1.562992
O143	O	0.108565	-0.738494	1.260998
O144	O	0.608565	-0.238494	1.760998
O145	O	-0.011747	-0.575059	1.261012
O146	O	0.488253	-0.075059	1.761012
O147	O	-0.011470	-0.678679	1.260970
O148	O	0.488530	-0.178679	1.760970
O149	O	0.108287	-0.634874	1.261040
O150	O	0.608287	-0.134874	1.761040
O151	O	0.022849	-0.644347	1.158004
O152	O	0.522849	-0.144347	1.658004
O153	O	0.022572	-0.540726	1.158046
O154	O	0.522572	-0.040726	1.658046
O155	O	0.142884	-0.704162	1.158033
O156	O	0.642884	-0.204162	1.658033
Cu157	Cu	0.085861	-0.619309	1.148638
Cu158	Cu	0.585861	-0.119309	1.648638
Cu159	Cu	0.045275	-0.659911	1.270406
Cu160	Cu	0.545275	-0.159911	1.770406
O161	O	0.142606	-0.600541	1.158074
O162	O	0.642606	-0.100541	1.658074
N163	N	0.016726	-0.688471	1.356052
N164	N	0.516726	-0.188471	1.856052
C165	C	0.039385	-0.537207	0.498225
C166	C	0.539385	-0.037207	0.998225
C167	C	0.167616	-0.665350	0.498136
C168	C	0.667616	-0.165350	0.998136
C169	C	0.091204	-0.741950	0.651272
C170	C	0.591204	-0.241950	1.151272
C171	C	-0.037027	-0.613806	0.651361
C172	C	0.462973	-0.113806	1.151361
C173	C	0.700360	-0.716215	0.676756
C174	C	1.200360	-0.216215	1.176756
C175	C	0.700279	-0.715877	0.548436
C176	C	1.200279	-0.215877	1.048436
C177	C	0.700133	-0.562725	0.472214
C178	C	1.200133	-0.062725	0.972214
C179	C	0.700218	-0.563065	0.600533
C180	C	1.200218	-0.063065	1.100533
C181	C	0.167511	-0.004552	0.497940
C182	C	0.667511	0.495448	0.997940
C183	C	0.039211	-0.004699	0.498341
C184	C	0.539211	0.495301	0.998341
C185	C	-0.036999	-0.004682	0.651449
C186	C	0.463001	0.495318	1.151449
C187	C	0.091344	-0.004663	0.651090
C188	C	0.591344	0.495337	1.151090
C189	C	-0.011156	-0.537302	1.209530
C190	C	0.488844	-0.037302	1.709530
C191	C	-0.010806	-0.665617	1.209458
C192	C	0.489194	-0.165617	1.709458
C193	C	0.142293	-0.741918	1.209514
C194	C	0.642293	-0.241918	1.709514
C195	C	0.141950	-0.613596	1.209563
C196	C	0.641950	-0.113596	1.709563
H197	H	0.063231	-0.497836	0.928300
H198	H	0.563231	0.002164	1.428300
C199	C	0.242077	-0.727594	0.432941
C200	C	0.742077	-0.227594	0.932941
C201	C	0.230991	-0.677842	0.447207
C202	C	0.730991	-0.177842	0.947207
H203	H	0.281204	-0.735308	0.401502
H204	H	0.781204	-0.235308	0.901502
H205	H	0.210591	-0.717793	0.418723
H206	H	0.710591	-0.217793	0.918723
H207	H	0.241962	-0.763426	0.468923
H208	H	0.741962	-0.263426	0.968923
H209	H	0.231101	-0.642009	0.411226
H210	H	0.731101	-0.142009	0.911226
H211	H	0.262485	-0.687641	0.461423
H212	H	0.762485	-0.187641	0.961423
H213	H	0.179573	-0.604224	1.209577
H214	H	0.679573	-0.104224	1.709577
H215	H	0.102355	-0.458618	0.810728
H216	H	0.602355	0.041382	1.310728
C217	C	-0.114677	-0.625474	1.209355
C218	C	0.385323	-0.125474	1.709355
C219	C	-0.061578	-0.678240	1.209373
C220	C	0.438422	-0.178240	1.709373
H221	H	-0.146022	-0.633270	1.209307
H222	H	0.353978	-0.133270	1.709307
H223	H	-0.105025	-0.591710	1.173470
H224	H	0.394975	-0.091710	1.673470
H225	H	-0.128999	-0.615663	1.245283
H226	H	0.371001	-0.115663	1.745283
H227	H	-0.047253	-0.688048	1.173443
H228	H	0.452747	-0.188048	1.673443
H229	H	-0.071230	-0.712014	1.245262
H230	H	0.428770	-0.212014	1.745262
H231	H	-0.083976	-0.604550	0.689083
H232	H	0.416024	-0.104550	1.189083
C233	C	0.277374	-0.056974	0.467508
C234	C	0.777374	0.443026	0.967508
C235	C	0.230726	-0.004164	0.446816
C236	C	0.730726	0.495836	0.946816
H237	H	0.316401	-0.056732	0.435949
H238	H	0.816401	0.443268	0.935949
H239	H	0.270023	-0.092957	0.477133
H240	H	0.770023	0.407043	0.977133
H241	H	0.277339	-0.057040	0.503471
H242	H	0.777339	0.442960	1.003471
H243	H	0.230757	-0.004100	0.410856
H244	H	0.730757	0.495900	0.910856
H245	H	0.238078	0.031828	0.437183
H246	H	0.738078	0.531828	0.937183
C247	C	-0.127624	0.048261	0.719015
C248	C	0.372376	0.548261	1.219015
C249	C	-0.100341	-0.004678	0.702452
C250	C	0.399659	0.495322	1.202452
H251	H	-0.166727	0.048261	0.750506
H252	H	0.333273	0.548261	1.250506
H253	H	-0.133061	0.084157	0.683833
H254	H	0.366939	0.584157	1.183833
H255	H	-0.101592	0.048261	0.733951
H256	H	0.398408	0.548261	1.233951
H257	H	-0.126371	-0.004676	0.687513
H258	H	0.373629	0.495324	1.187513
H259	H	-0.094907	-0.040583	0.737642
H260	H	0.405093	0.459417	1.237642
C261	C	-0.033878	-0.004750	0.469876
C262	C	0.466122	0.495250	0.969876
C263	C	0.026541	-0.004734	0.447562
C264	C	0.526541	0.495266	0.947562
H265	H	-0.041695	-0.004782	0.438530
H266	H	0.458305	0.495218	0.938530
H267	H	-0.062437	0.031165	0.481129
H268	H	0.437563	0.531165	0.981129
H269	H	-0.038473	-0.040651	0.505098
H270	H	0.461527	0.459349	1.005098
H271	H	0.031135	0.031170	0.412342
H272	H	0.531135	0.531170	0.912342
H273	H	0.055108	-0.040652	0.436300
H274	H	0.555108	0.459348	0.936300
C275	C	0.753096	-0.495618	0.571076
C276	C	1.253096	0.004382	1.071076
C277	C	0.700202	-0.512262	0.613200
C278	C	1.200202	-0.012262	1.113200
H279	H	0.753088	-0.464257	0.578900
H280	H	1.253088	0.035743	1.078900
H281	H	0.753053	-0.480487	0.530098
H282	H	1.253053	0.019513	1.030098
H283	H	0.789021	-0.530821	0.575671
H284	H	1.289021	-0.030821	1.075671
H285	H	0.664277	-0.477059	0.608602
H286	H	1.164277	0.022941	1.108602
H287	H	0.700240	-0.527391	0.654189
H288	H	1.200240	-0.027391	1.154189
C289	C	0.171248	-0.843612	1.209483
C290	C	0.671248	-0.343612	1.709483
C291	C	0.193288	-0.805282	1.209508
C292	C	0.693288	-0.305282	1.709508
H293	H	0.202731	-0.882730	1.209482
H294	H	0.702731	-0.382730	1.709482
H295	H	0.160005	-0.825081	1.173571
H296	H	0.660005	-0.325081	1.673571
H297	H	0.136067	-0.849026	1.245384
H298	H	0.636067	-0.349026	1.745384
H299	H	0.228467	-0.799865	1.173604
H300	H	0.728467	-0.299865	1.673604
H301	H	0.204540	-0.823817	1.245423
H302	H	0.704540	-0.323817	1.745423
H303	H	0.100526	-0.788925	0.688956
H304	H	0.600526	-0.288925	1.188956
H305	H	0.700405	-0.753994	0.723681
H306	H	1.200405	-0.253994	1.223681
C307	C	0.164452	-0.004670	0.679574
C308	C	0.664452	0.495330	1.179574
C309	C	0.104027	-0.004668	0.701883
C310	C	0.604027	0.495332	1.201883
H311	H	0.172283	-0.004680	0.710935
H312	H	0.672283	0.495320	1.210935
H313	H	0.169049	0.031239	0.644375
H314	H	0.669049	0.531239	1.144375
H315	H	0.193004	-0.040577	0.668293
H316	H	0.693004	0.459423	1.168293
H317	H	0.075474	0.031242	0.713159
H318	H	0.575474	0.531242	1.213159
H319	H	0.099424	-0.040580	0.737093
H320	H	0.599424	0.459420	1.237093
H321	H	0.255291	-0.593843	0.928229
H322	H	0.755291	-0.093843	1.428229
H323	H	0.294416	-0.554643	0.810656
H324	H	0.794416	-0.054643	1.310656
C325	C	0.012567	-0.456104	0.758209
C326	C	0.512567	0.043896	1.258209
C327	C	0.044964	-0.493357	0.720922
C328	C	0.544964	0.006643	1.220922
H329	H	-0.030674	-0.445494	0.768853
H330	H	0.469326	0.054506	1.268853
H331	H	0.023170	-0.419455	0.736224
H332	H	0.523170	0.080545	1.236224
H333	H	0.023226	-0.478106	0.794842
H334	H	0.523226	0.021894	1.294842
H335	H	0.034308	-0.471354	0.684286
H336	H	0.534308	0.028646	1.184286
H337	H	0.034356	-0.530013	0.742906
H338	H	0.534356	-0.030013	1.242906
H339	H	0.030065	-0.490230	0.460543
H340	H	0.530065	0.009770	0.960543
C341	C	0.700243	-0.744373	0.475354
C342	C	1.200243	-0.244373	0.975354
C343	C	0.700298	-0.766683	0.535770
C344	C	1.200298	-0.266683	1.035770
H345	H	0.700251	-0.775738	0.467538
H346	H	1.200251	-0.275738	0.967538
H347	H	0.736122	-0.733079	0.446787
H348	H	1.236122	-0.233079	0.946787
H349	H	0.664312	-0.709175	0.470770
H350	H	1.164312	-0.209175	0.970770
H351	H	0.736232	-0.801877	0.540353
H352	H	1.236232	-0.301877	1.040353
H353	H	0.664415	-0.777985	0.564345
H354	H	1.164415	-0.277985	1.064345
H355	H	0.102328	-0.458621	0.755642
H356	H	0.602328	0.041379	1.255642
H357	H	0.700073	-0.524942	0.425295
H358	H	1.200073	-0.024942	0.925295
C359	C	-0.040112	-0.435609	1.209562
C360	C	0.459888	0.064391	1.709562
C361	C	-0.062151	-0.473938	1.209536
C362	C	0.437849	0.026062	1.709536
H363	H	-0.071596	-0.396493	1.209569
H364	H	0.428404	0.103507	1.709569
H365	H	-0.004936	-0.430193	1.173665
H366	H	0.495064	0.069807	1.673665
H367	H	-0.028865	-0.454144	1.245478
H368	H	0.471135	0.045856	1.745478
H369	H	-0.073394	-0.455405	1.173618
H370	H	0.426606	0.044595	1.673618
H371	H	-0.097338	-0.479352	1.245437
H372	H	0.402662	0.020648	1.745437
H373	H	0.255124	-0.593799	0.620395
H374	H	0.755124	-0.093799	1.120395
H375	H	0.419022	-0.640939	0.704632
H376	H	0.919022	-0.140939	1.204632
H377	H	0.301449	-0.601745	0.743862
H378	H	0.801449	-0.101745	1.243862
C379	C	0.339266	-0.537048	0.590641
C380	C	0.839266	-0.037048	1.090641
C381	C	0.312488	-0.559045	0.655103
C382	C	0.812488	-0.059045	1.155103
H383	H	0.382506	-0.547655	0.580000
H384	H	0.882506	-0.047655	1.080000
H385	H	0.321032	-0.493323	0.575761
H386	H	0.821032	0.006677	1.075761
H387	H	0.332429	-0.555257	0.572446
H388	H	0.832429	-0.055257	1.072446
H389	H	0.319321	-0.540832	0.673298
H390	H	0.819321	-0.040832	1.173298
H391	H	0.330728	-0.602778	0.669990
H392	H	0.830728	-0.102778	1.169990
C393	C	0.412524	-0.395090	0.570230
C394	C	0.912524	0.104910	1.070230
C395	C	0.428217	-0.438830	0.623313
C396	C	0.928217	0.061170	1.123313
H397	H	0.434510	-0.366843	0.549323
H398	H	0.934510	0.133157	1.049323
H399	H	0.369292	-0.373177	0.581793
H400	H	0.869292	0.126823	1.081793
H401	H	0.423138	-0.415589	0.543569
H402	H	0.923138	0.084411	1.043569
H403	H	0.417599	-0.418331	0.649976
H404	H	0.917599	0.081669	1.149976
H405	H	0.471459	-0.460745	0.611751
H406	H	0.971459	0.039255	1.111751
C407	C	0.266027	-0.370605	0.539117
C408	C	0.766027	0.129395	1.039117
C409	C	0.256890	-0.412747	0.599603
C410	C	0.756890	0.087253	1.099603
H411	H	0.291295	-0.392591	0.510528
H412	H	0.791295	0.107409	1.010528
H413	H	0.285815	-0.345327	0.532886
H414	H	0.785815	0.154673	1.032886
H415	H	0.227165	-0.345325	0.532915
H416	H	0.727165	0.154675	1.032915
H417	H	0.295751	-0.438024	0.605806
H418	H	0.795751	0.061976	1.105806
H419	H	0.237102	-0.438036	0.605836
H420	H	0.737102	0.061964	1.105836
C421	C	0.157456	-0.239418	0.538649
C422	C	0.657456	0.260582	1.038649
C423	C	0.211498	-0.276685	0.554282
C424	C	0.711498	0.223315	1.054282
H425	H	0.168059	-0.217423	0.495409
H426	H	0.668059	0.282577	0.995409
H427	H	0.132186	-0.210852	0.560647
H428	H	0.632186	0.289148	1.060647
H429	H	0.135479	-0.264711	0.549279
H430	H	0.635479	0.235289	1.049279
H431	H	0.233473	-0.251392	0.543656
H432	H	0.733473	0.248608	1.043656
H433	H	0.236779	-0.305255	0.532276
H434	H	0.736779	0.194745	1.032276
C435	C	0.091383	-0.318863	0.836963
C436	C	0.591383	0.181137	1.336963
C437	C	0.100520	-0.276724	0.776477
C438	C	0.600520	0.223276	1.276477
H439	H	0.066107	-0.296876	0.865551
H440	H	0.566107	0.203124	1.365551
H441	H	0.130238	-0.344137	0.843168
H442	H	0.630238	0.155863	1.343168
H443	H	0.071597	-0.344149	0.843193
H444	H	0.571597	0.155851	1.343193
H445	H	0.120310	-0.251441	0.770245
H446	H	0.620310	0.248559	1.270245
H447	H	0.061658	-0.251440	0.770269
H448	H	0.561658	0.248560	1.270269
C449	C	0.254930	-0.384625	0.726102
C450	C	0.754930	0.115375	1.226102
C451	C	0.292173	-0.393477	0.668694
C452	C	0.792173	0.106523	1.168694
H453	H	0.232932	-0.341713	0.719866
H454	H	0.732932	0.158287	1.219866
H455	H	0.280230	-0.399825	0.749833
H456	H	0.780230	0.100175	1.249833
H457	H	0.226363	-0.406325	0.747536
H458	H	0.726363	0.093675	1.247536
H459	H	0.320744	-0.371780	0.647263
H460	H	0.820744	0.128220	1.147263
H461	H	0.266871	-0.378268	0.644954
H462	H	0.766871	0.121732	1.144954
H463	H	0.150353	-0.403547	0.803641
H464	H	0.650353	0.096453	1.303641
