data_functionalizedCrystal
_audit_creation_method	'MofGen! by Chris Wilmer'
_symmetry_space_group_name_H-M	'P1'
_symmetry_Int_Tables_number	1
_symmetry_cell_setting	triclinic
loop_
_symmetry_equiv_pos_as_xyz
  x,y,z
_cell_length_a	16.109302
_cell_length_b	16.109295
_cell_length_c	15.186229
_cell_angle_alpha	90.000628
_cell_angle_beta	89.994701
_cell_angle_gamma	96.539516
loop_
_atom_site_label
_atom_site_type_symbol
_atom_site_fract_x
_atom_site_fract_y
_atom_site_fract_z
O1	O	1.103128	-0.106869	-0.073262
O2	O	0.861066	-0.120168	-0.073254
O3	O	0.988749	0.007513	-0.073259
O4	O	0.975445	-0.234550	-0.073257
O5	O	0.988741	0.007514	0.073198
O6	O	0.861057	-0.120166	0.073203
O7	O	1.103120	-0.106867	0.073195
Zn8	Zn	0.982087	-0.113517	0.096452
Zn9	Zn	0.982098	-0.113519	-0.096511
O10	O	0.975436	-0.234548	0.073201
C11	C	0.830087	-0.119628	-0.000025
C12	C	0.737792	-0.118013	-0.000022
C13	C	0.525446	-0.114277	0.079803
C14	C	0.438726	-0.112750	0.079800
C15	C	0.438746	-0.112756	-0.079876
C16	C	0.525465	-0.114277	-0.079872
C17	C	0.568812	-0.115041	-0.000030
C18	C	0.395373	-0.111994	-0.000037
C19	C	0.301347	-0.110339	-0.000041
C20	C	0.662844	-0.116695	-0.000026
C21	C	1.134099	-0.107407	-0.000036
C22	C	1.226394	-0.109023	-0.000045
C23	C	0.988207	0.038489	-0.000033
C24	C	0.986593	0.130784	-0.000039
N25	N	0.982086	-0.113514	0.228145
C26	C	1.058606	0.353057	-0.000074
C27	C	1.057083	0.439778	-0.000089
C28	C	0.905594	0.419904	-0.000079
C29	C	0.907117	0.333185	-0.000071
C30	C	0.983626	0.299764	-0.000064
C31	C	0.980580	0.473203	-0.000087
C32	C	0.978929	0.567230	-0.000102
C33	C	0.985277	0.205732	-0.000050
C34	C	0.975984	0.734477	-0.000049
C35	C	0.977612	0.642183	-0.000111
N36	N	0.982107	-0.113514	-0.228204
C37	C	1.038643	-0.056996	0.453866
C38	C	1.038646	-0.056994	0.546055
C39	C	0.925543	-0.170035	0.546069
C40	C	0.925537	-0.170032	0.453881
C41	C	0.982092	-0.113514	0.407782
C42	C	0.982100	-0.113515	0.592159
C43	C	0.982103	-0.113513	0.692115
C44	C	0.982089	-0.113514	0.307819
H45	H	0.403442	-0.112135	-0.144880
H46	H	0.560737	-0.114899	0.144816
N47	N	1.099636	0.003961	0.404142
H48	H	1.135460	0.039765	0.447329
H49	H	1.067818	0.040726	0.365899
N50	N	1.141122	0.317011	-0.000067
H51	H	1.173973	0.336439	-0.054364
H52	H	1.130642	0.253994	-0.000024
N53	N	0.572248	-0.115092	-0.165981
H54	H	0.531629	-0.114381	-0.216561
H55	H	0.601476	-0.167230	-0.169457
N56	N	1.137954	0.497259	-0.000100
H57	H	1.186649	0.462925	-0.000094
H58	H	1.140618	0.533678	0.054189
N59	N	0.823078	0.455951	-0.000083
H60	H	0.833489	0.518974	-0.000087
H61	H	0.790268	0.436456	0.054214
H62	H	0.846056	0.289791	-0.000066
H63	H	1.084693	-0.010972	0.583574
N64	N	0.864548	-0.230992	0.595790
H65	H	0.873133	-0.222420	0.661184
H66	H	0.874131	-0.289976	0.579671
H67	H	0.879482	-0.216056	0.416357
H68	H	0.403421	-0.112128	0.144808
