data_functionalizedCrystal
_audit_creation_method	'MofGen! by Chris Wilmer'
_symmetry_space_group_name_H-M	'P1'
_symmetry_Int_Tables_number	1
_symmetry_cell_setting	triclinic
loop_
_symmetry_equiv_pos_as_xyz
  x,y,z
_cell_length_a	12.759401
_cell_length_b	12.594516
_cell_length_c	12.759393
_cell_angle_alpha	89.970826
_cell_angle_beta	89.980163
_cell_angle_gamma	90.017577
loop_
_atom_site_label
_atom_site_type_symbol
_atom_site_fract_x
_atom_site_fract_y
_atom_site_fract_z
Zn1	Zn	1.606245	-0.423635	-0.594038
Zn2	Zn	1.606135	-0.601655	-0.418366
Zn3	Zn	1.430547	-0.423696	-0.418373
Zn4	Zn	1.430532	-0.601577	-0.594003
O5	O	1.518365	-0.512641	-0.506195
O6	O	1.753252	-0.447258	-0.570746
O7	O	1.582804	-0.578106	-0.271345
O8	O	1.453906	-0.274742	-0.441693
O9	O	1.753171	-0.578048	-0.441680
O10	O	1.582991	-0.274698	-0.570754
O11	O	1.453800	-0.447360	-0.271351
O12	O	1.283524	-0.447285	-0.441659
O13	O	1.453880	-0.577915	-0.741029
O14	O	1.283513	-0.577973	-0.570694
O15	O	1.582976	-0.447182	-0.741054
O16	O	1.582789	-0.750590	-0.441646
O17	O	1.453773	-0.750533	-0.570686
C18	C	1.245397	-0.512628	-0.506174
C19	C	1.128621	-0.512648	-0.506190
C20	C	1.518296	-0.789182	-0.506185
C21	C	1.518363	-0.907487	-0.506215
C22	C	1.073780	-0.580801	-0.573272
C23	C	0.964056	-0.580805	-0.573293
C24	C	0.964023	-0.444500	-0.439140
C25	C	1.073745	-0.444491	-0.439125
C26	C	1.448184	-0.976748	-0.576351
C27	C	1.422585	-1.047619	-0.480484
C28	C	1.544058	-1.047415	-0.602099
C29	C	1.492713	-0.976800	-0.410297
C30	C	1.614230	-0.976590	-0.531977
C31	C	1.588667	-1.047429	-0.436044
C32	C	1.792398	-0.512655	-0.506216
C33	C	1.909175	-0.512661	-0.506226
C34	C	1.518438	-0.512533	-0.780228
C35	C	1.518469	-0.512487	-0.897005
C36	C	1.518463	-0.235020	-0.506228
C37	C	1.518504	-0.116714	-0.506242
C38	C	1.451321	-0.444395	-0.951869
C39	C	1.451346	-0.444363	-1.061594
C40	C	1.585676	-0.580517	-1.061579
C41	C	1.585645	-0.580554	-0.951857
C42	C	1.518352	-0.512671	-0.233228
C43	C	1.518524	-0.512417	-0.116451
H44	H	1.118457	-0.636296	-0.627883
H45	H	0.919410	-0.636301	-0.627920
H46	H	1.640368	-0.635933	-1.106253
H47	H	1.396622	-0.388971	-0.907212
Br48	Br	0.889542	-0.352006	-0.348128
Br49	Br	1.676774	-0.672979	-0.877391
Br50	Br	1.349098	-0.925016	-0.675067
H51	H	1.118397	-0.388986	-0.384499
H52	H	1.470943	-0.945909	-0.329198
Br53	Br	1.287561	-1.099615	-0.444169
H54	H	1.396666	-0.388916	-1.106259
H55	H	1.695219	-0.945370	-0.553791
H56	H	1.648075	-1.078268	-0.376676
Br57	Br	1.580183	-1.099124	-0.737228
