data_functionalizedCrystal
_audit_creation_method	'MofGen! by Chris Wilmer'
_symmetry_space_group_name_H-M	'P1'
_symmetry_Int_Tables_number	1
_symmetry_cell_setting	triclinic
loop_
_symmetry_equiv_pos_as_xyz
  x,y,z
_cell_length_a	16.992694
_cell_length_b	13.339070
_cell_length_c	15.455313
_cell_angle_alpha	93.394339
_cell_angle_beta	87.142206
_cell_angle_gamma	103.148759
loop_
_atom_site_label
_atom_site_type_symbol
_atom_site_fract_x
_atom_site_fract_y
_atom_site_fract_z
O1	O	1.090408	0.214131	-0.072012
O2	O	0.861603	0.211734	-0.072038
O3	O	0.949746	0.063546	-0.072026
O4	O	1.002265	0.362319	-0.072025
O5	O	0.944697	0.071983	0.072236
O6	O	0.856554	0.220171	0.072223
O7	O	1.085360	0.222568	0.072249
Cu8	Cu	0.970496	0.222140	0.085408
Cu9	Cu	0.976466	0.212163	-0.085197
O10	O	0.997216	0.370756	0.072237
C11	C	0.829195	0.212871	0.000089
C12	C	0.740151	0.203676	0.000079
C13	C	0.709211	0.292390	0.000080
C14	C	0.625543	0.283745	0.000092
C15	C	0.572817	0.186386	0.000097
C16	C	0.603762	0.097666	0.000099
C17	C	0.687429	0.106311	0.000093
C18	C	0.321423	0.150552	0.000120
C19	C	0.237751	0.141912	0.000123
C20	C	0.259538	0.327993	0.000118
C21	C	0.343205	0.336630	0.000107
C22	C	0.374143	0.247910	0.000114
N23	N	0.487295	0.177547	0.000107
N24	N	0.459663	0.256750	0.000110
C25	C	0.938350	0.029358	0.000103
C26	C	0.911906	-0.085082	0.000097
C27	C	1.117519	-0.433251	0.000120
C28	C	1.142367	-0.325728	0.000131
C29	C	1.084754	-0.265562	0.000122
C30	C	1.002289	-0.312927	0.000103
C31	C	0.977439	-0.420460	0.000099
C32	C	0.944673	-0.252771	0.000101
C33	C	0.862209	-0.300136	0.000081
C34	C	0.837363	-0.407658	0.000077
C35	C	0.894976	-0.467825	0.000086
C36	C	0.969524	-0.145238	0.000105
C37	C	0.829443	-0.132447	0.000083
C38	C	0.804596	-0.239969	0.000072
C39	C	1.117767	0.221431	0.000120
C40	C	1.206811	0.230626	0.000124
C41	C	1.008612	0.404944	0.000106
C42	C	1.035056	0.519384	0.000107
N43	N	0.966302	0.229157	0.205403
N44	N	0.980664	0.205137	-0.205192
C45	C	1.003772	0.166228	0.250803
C46	C	1.000610	0.171545	0.341610
C47	C	0.959983	0.239798	0.387017
C48	C	0.922508	0.302729	0.341611
C49	C	0.925665	0.297406	0.250805
C50	C	0.946347	0.262746	0.658596
C51	C	0.943195	0.268067	0.749408
C52	C	1.021296	0.136880	0.749401
C53	C	1.024454	0.131568	0.658594
C54	C	0.986976	0.194496	0.613196
N55	N	0.956752	0.245237	0.479836
N56	N	0.990202	0.189051	0.520378
H57	H	0.752136	0.371670	0.000076
H58	H	0.560826	0.018394	0.000115
C59	C	1.041366	0.103403	0.391018
C60	C	1.100328	0.165307	0.443156
C61	C	1.137883	0.102570	0.488693
H62	H	1.066088	0.061977	0.351074
H63	H	1.002119	0.060288	0.426498
H64	H	1.139569	0.208404	0.407678
H65	H	1.075627	0.206732	0.483115
H66	H	1.098636	0.059455	0.524174
H67	H	1.162600	0.061146	0.448743
H68	H	1.177887	0.144562	0.524080
H69	H	0.874749	-0.555379	0.000073
C70	C	1.061900	0.068377	0.798584
C71	C	1.027719	-0.035160	0.776486
C72	C	1.065107	-0.098303	0.821768
H73	H	1.054224	0.081180	0.859180
H74	H	1.118128	0.082964	0.783678
H75	H	0.971505	-0.049742	0.791398
H76	H	1.035394	-0.047995	0.715898
H77	H	1.121335	-0.083715	0.806862
H78	H	1.057429	-0.085490	0.882362
H79	H	1.041926	-0.168558	0.806775
C80	C	0.592110	0.380184	0.000048
C81	C	0.656193	0.467295	0.000014
C82	C	0.625426	0.556155	-0.000036
H83	H	0.558189	0.383771	0.050345
H84	H	0.561699	0.377790	-0.050276
H85	H	0.686590	0.469689	0.050333
H86	H	0.690119	0.463742	-0.050279
H87	H	0.595016	0.553762	-0.050359
H88	H	0.591506	0.559732	0.050262
H89	H	0.668902	0.615270	-0.000067
H90	H	0.386130	0.415910	0.000093
H91	H	0.889423	0.358298	0.378586
C92	C	0.898996	0.342190	0.798552
C93	C	0.866826	0.396137	0.739360
C94	C	0.826096	0.464411	0.784600
H95	H	0.935724	0.389571	0.833973
H96	H	0.856446	0.304520	0.833964
H97	H	0.909370	0.433805	0.703964
H98	H	0.830086	0.348783	0.703938
H99	H	0.783547	0.426741	0.820011
H100	H	0.862830	0.511785	0.820019
H101	H	0.804258	0.501015	0.744445
H102	H	0.770215	-0.446220	0.000068
C103	C	0.905813	0.331140	0.609209
C104	C	0.963858	0.394571	0.557053
C105	C	0.926548	0.457588	0.511536
H106	H	0.881176	0.372644	0.649164
H107	H	0.865773	0.289348	0.573742
H108	H	1.003884	0.436359	0.592517
H109	H	0.988499	0.353094	0.517082
H110	H	0.886508	0.415797	0.476069
H111	H	0.901912	0.499086	0.551497
H112	H	0.965924	0.500627	0.476137
C113	C	0.226105	0.424432	0.000075
C114	C	0.290189	0.511543	0.000049
C115	C	0.259423	0.600405	0.000001
H116	H	0.192181	0.428016	0.050371
H117	H	0.195697	0.422043	-0.050250
H118	H	0.320583	0.513933	0.050370
H119	H	0.324118	0.507994	-0.050242
H120	H	0.229016	0.598015	-0.050325
H121	H	0.225499	0.603978	0.050297
H122	H	0.302899	0.659519	-0.000025
C123	C	0.715028	-0.291211	0.000012
C124	C	0.669886	-0.215517	-0.000017
C125	C	0.587375	-0.262683	-0.000086
H126	H	0.700551	-0.329949	0.050301
H127	H	0.704154	-0.335804	-0.050319
H128	H	0.680754	-0.170942	0.050309
H129	H	0.684338	-0.176775	-0.050303
H130	H	0.576502	-0.307276	-0.050417
H131	H	0.572906	-0.301420	0.050204
H132	H	0.556737	-0.211333	-0.000114
C133	C	1.047888	0.092020	0.201665
C134	C	1.080006	0.038028	0.260865
C135	C	1.120640	-0.030355	0.215635
H136	H	1.090456	0.129581	0.166231
H137	H	1.011088	0.044681	0.166269
H138	H	1.116803	0.085360	0.296246
H139	H	1.037455	0.000447	0.296302
H140	H	1.083840	-0.077694	0.180238
H141	H	1.163204	0.007214	0.180201
H142	H	1.142430	-0.067004	0.255794
H143	H	0.346601	0.078309	0.000126
C144	C	0.884970	0.365855	0.201667
C145	C	0.848733	0.426788	0.260866
C146	C	0.811243	0.489864	0.215633
H147	H	0.844867	0.324138	0.166250
H148	H	0.924232	0.409043	0.166254
H149	H	0.809476	0.383605	0.296264
H150	H	0.888820	0.468526	0.296285
H151	H	0.850504	0.533052	0.180220
H152	H	0.771143	0.448139	0.180217
H153	H	0.786658	0.531221	0.255792
H154	H	0.782529	-0.083459	0.000080
H155	H	0.194822	0.062627	0.000126
H156	H	1.057536	0.075991	0.621626
H157	H	1.036667	-0.106684	0.000121
C158	C	1.111892	-0.148840	0.000082
C159	C	1.196441	-0.120237	0.000077
C160	C	1.221474	-0.012720	0.000024
H161	H	1.089964	-0.119085	0.050369
H162	H	1.093456	-0.125064	-0.050251
H163	H	1.214869	-0.144002	0.050406
H164	H	1.218389	-0.149965	-0.050206
H165	H	1.203038	0.011057	-0.050310
H166	H	1.199541	0.017026	0.050312
H167	H	1.278842	0.006701	0.000012
H168	H	0.712618	0.034071	0.000092
H169	H	1.209509	-0.287171	0.000148
H170	H	1.164418	-0.482247	0.000134
