data_functionalizedCrystal
_audit_creation_method	'MofGen! by Chris Wilmer'
_symmetry_space_group_name_H-M	'P1'
_symmetry_Int_Tables_number	1
_symmetry_cell_setting	triclinic
loop_
_symmetry_equiv_pos_as_xyz
  x,y,z
_cell_length_a	19.077212
_cell_length_b	19.076808
_cell_length_c	21.395356
_cell_angle_alpha	87.675140
_cell_angle_beta	87.679561
_cell_angle_gamma	94.518968
loop_
_atom_site_label
_atom_site_type_symbol
_atom_site_fract_x
_atom_site_fract_y
_atom_site_fract_z
Zn1	Zn	1.066444	-0.237507	-0.384009
Zn2	Zn	1.061626	-0.355401	-0.274840
Zn3	Zn	0.948559	-0.242246	-0.274848
Zn4	Zn	0.943785	-0.360091	-0.375186
O5	O	1.005103	-0.298811	-0.327221
O6	O	1.164457	-0.249200	-0.373216
O7	O	1.046609	-0.340411	-0.187162
O8	O	0.968212	-0.142961	-0.293024
O9	O	1.160917	-0.335816	-0.293010
O10	O	1.054821	-0.139479	-0.373224
O11	O	0.963540	-0.257277	-0.187168
O12	O	0.849274	-0.261825	-0.284469
O13	O	0.960074	-0.343809	-0.464036
O14	O	0.845766	-0.348405	-0.358187
O15	O	1.050191	-0.253748	-0.470518
O16	O	1.041979	-0.454680	-0.284456
O17	O	0.955402	-0.458126	-0.358179
C18	C	0.821941	-0.306139	-0.320372
C19	C	0.743582	-0.309290	-0.317457
C20	C	0.997669	-0.481983	-0.320374
C21	C	0.994553	-0.560342	-0.317468
C22	C	0.302309	-0.331864	-0.296576
C23	C	0.375935	-0.328899	-0.299311
C24	C	0.414590	-0.282394	-0.342499
C25	C	0.379616	-0.238846	-0.382952
C26	C	0.305991	-0.241808	-0.380213
C27	C	0.634983	-0.268704	-0.355171
C28	C	0.708613	-0.265747	-0.357907
C29	C	0.704927	-0.355800	-0.274265
C30	C	0.631301	-0.358760	-0.271533
C31	C	0.596333	-0.315210	-0.311983
N32	N	0.489848	-0.279364	-0.345297
N33	N	0.521076	-0.318237	-0.309182
C34	C	1.038148	-0.595283	-0.357889
C35	C	1.035217	-0.668910	-0.355160
C36	C	0.988694	-0.707594	-0.312005
C37	C	0.945094	-0.672648	-0.271582
C38	C	0.948022	-0.599022	-0.274315
C39	C	0.975103	-0.927990	-0.299354
C40	C	0.972180	-1.001621	-0.296623
C41	C	1.062302	-0.997878	-0.380202
C42	C	1.065229	-0.924251	-0.382928
C43	C	1.021626	-0.889311	-0.342507
N44	N	0.985699	-0.782852	-0.309213
N45	N	1.024618	-0.814055	-0.345303
C46	C	1.188981	-0.291456	-0.334096
C47	C	1.267339	-0.288321	-0.337026
C48	C	1.005137	-0.298773	-0.490647
C49	C	1.005152	-0.298757	-0.560289
C50	C	1.012586	-0.114924	-0.334109
C51	C	1.015775	-0.036562	-0.337044
C52	C	1.048491	-0.341893	-1.062091
C53	C	1.048477	-0.341916	-0.996655
C54	C	1.005223	-0.298642	-0.963934
C55	C	0.961966	-0.255355	-0.996655
C56	C	0.961976	-0.255339	-1.062090
C57	C	1.002226	-0.235373	-0.862435
C58	C	1.002221	-0.235388	-0.797002
C59	C	1.005190	-0.298693	-0.762110
C60	C	1.008177	-0.361985	-0.792661
C61	C	1.008187	-0.361969	-0.858096
C62	C	1.005208	-0.298655	-0.892981
C63	C	1.048425	-0.342006	-0.658443
C64	C	1.048407	-0.342030	-0.593005
C65	C	0.961900	-0.255463	-0.593007
C66	C	0.961914	-0.255445	-0.658444
C67	C	1.005181	-0.298715	-0.691158
C68	C	1.005112	-0.298797	-0.164434
C69	C	1.005242	-0.298609	-0.094805
H70	H	0.270840	-0.369737	-0.261410
H71	H	0.733406	-0.391255	-0.241332
H72	H	0.740084	-0.227872	-0.393076
H73	H	0.934292	-1.033116	-0.261481
O74	O	0.919912	-0.213417	-0.964799
C75	C	0.872733	-0.255391	-0.923751
H76	H	0.895425	-0.307825	-0.912879
H77	H	0.820177	-0.265224	-0.946721
C78	C	0.833667	-0.152727	-0.875921
C79	C	0.861540	-0.217125	-0.862564
H80	H	0.826759	-0.129123	-0.838180
H81	H	0.865450	-0.124448	-0.903578
H82	H	0.789873	-0.160931	-0.895064
H83	H	0.905337	-0.208920	-0.843429
H84	H	0.829764	-0.245402	-0.834903
O85	O	1.090523	-0.383940	-0.690262
C86	C	1.137684	-0.341972	-0.731330
H87	H	1.144299	-0.286278	-0.713850
H88	H	1.115993	-0.340400	-0.780196
C89	C	1.201444	-0.441892	-0.755260
C90	C	1.209572	-0.373489	-0.733788
H91	H	1.245787	-0.461334	-0.756779
H92	H	1.169669	-0.470168	-0.727593
H93	H	1.183365	-0.440573	-0.795980
H94	H	1.227642	-0.374810	-0.693066
H95	H	1.241352	-0.345214	-0.761448
H96	H	0.926700	-0.220195	-0.685079
O97	O	0.932731	-0.894166	-0.260019
C98	C	0.891036	-0.944100	-0.221352
H99	H	0.917829	-0.995402	-0.218344
H100	H	0.837162	-0.954108	-0.241957
C101	C	0.849166	-0.852818	-0.159039
C102	C	0.882076	-0.915826	-0.155340
H103	H	0.843636	-0.835377	-0.118320
H104	H	0.877255	-0.819176	-0.185090
H105	H	0.804275	-0.861166	-0.176212
H106	H	0.926970	-0.907475	-0.138174
H107	H	0.853995	-0.949466	-0.129283
H108	H	0.404404	-0.364356	-0.266371
H109	H	1.097800	-1.026334	-0.413111
H110	H	0.411095	-0.200978	-0.418115
O111	O	0.271937	-0.199614	-0.419533
C112	C	0.227753	-0.241528	-0.456864
H113	H	0.214553	-0.295365	-0.432281
H114	H	0.255831	-0.248204	-0.504049
C115	C	0.175603	-0.139446	-0.497307
C116	C	0.159386	-0.205568	-0.467110
H117	H	0.133432	-0.117263	-0.503630
H118	H	0.205372	-0.111207	-0.472158
H119	H	0.199003	-0.145019	-0.536625
H120	H	0.135995	-0.199993	-0.427791
H121	H	0.129611	-0.233805	-0.492253
H122	H	0.999793	-0.183852	-0.772133
H123	H	0.999856	-0.183812	-0.890841
O124	O	0.919946	-0.213447	-0.561135
C125	C	0.929194	-0.222759	-0.496364
H126	H	0.982659	-0.243670	-0.488597
H127	H	0.885849	-0.261984	-0.474826
C128	C	0.859955	-0.126011	-0.474734
C129	C	0.925626	-0.151689	-0.465195
H130	H	0.857751	-0.082174	-0.455506
H131	H	0.853722	-0.119739	-0.518371
H132	H	0.823842	-0.158706	-0.456786
H133	H	0.961736	-0.118999	-0.483150
H134	H	0.931865	-0.157954	-0.421560
H135	H	0.907211	-0.704150	-0.236447
O136	O	0.919946	-0.213222	-1.093776
C137	C	0.881748	-0.175046	-1.050867
H138	H	0.910712	-0.171461	-1.005393
H139	H	0.827155	-0.203010	-1.040940
C140	C	0.839067	-0.104814	-1.134685
C141	C	0.874645	-0.100407	-1.078835
H142	H	0.834682	-0.058775	-1.151937
H143	H	0.864799	-0.130536	-1.163594
H144	H	0.793577	-0.128121	-1.126405
H145	H	0.920136	-0.077109	-1.087117
H146	H	0.848920	-0.074679	-1.049928
O147	O	0.905646	-0.565188	-0.234986
C148	C	0.863942	-0.615118	-0.196322
H149	H	0.890735	-0.666419	-0.193301
H150	H	0.810074	-0.625130	-0.216937
C151	C	0.822053	-0.523827	-0.134030
C152	C	0.854964	-0.586834	-0.130315
H153	H	0.816511	-0.506380	-0.093314
H154	H	0.850147	-0.490188	-0.160080
H155	H	0.777167	-0.532179	-0.151212
H156	H	0.899852	-0.578480	-0.113141
H157	H	0.826876	-0.620471	-0.104260
O158	O	0.601131	-0.226377	-0.394529
C159	C	0.651040	-0.184687	-0.433224
H160	H	0.702352	-0.211461	-0.436222
H161	H	0.661032	-0.130793	-0.412653
C162	C	0.559724	-0.142898	-0.495550
C163	C	0.622744	-0.175785	-0.499236
H164	H	0.542269	-0.137403	-0.536269
H165	H	0.526098	-0.170983	-0.469479
H166	H	0.568059	-0.097990	-0.478405
H167	H	0.614406	-0.220695	-0.516374
H168	H	0.656368	-0.147707	-0.525312
H169	H	1.083621	-0.377284	-0.566371
H170	H	1.083706	-0.377155	-0.970015
H171	H	1.010617	-0.413503	-0.882968
H172	H	0.599832	-0.396629	-0.236363
O173	O	1.010937	-0.423487	-0.758749
C174	C	0.950555	-0.434986	-0.718303
H175	H	0.906538	-0.404440	-0.737532
H176	H	0.963438	-0.416262	-0.669846
C177	C	0.980718	-0.551617	-0.689987
C178	C	0.926654	-0.514105	-0.713607
H179	H	0.965976	-0.600422	-0.687087
H180	H	1.021400	-0.543870	-0.717234
H181	H	0.991449	-0.536006	-0.649608
H182	H	0.915931	-0.529711	-0.753988
H183	H	0.885970	-0.521857	-0.686366
H184	H	1.076034	-0.563791	-0.393028
H185	H	1.083720	-0.377130	-1.088723
H186	H	1.070722	-0.697355	-0.388071
H187	H	1.103111	-0.892756	-0.418068
