data_functionalizedCrystal
_audit_creation_method	'MofGen! by Chris Wilmer'
_symmetry_space_group_name_H-M	'P1'
_symmetry_Int_Tables_number	1
_symmetry_cell_setting	triclinic
loop_
_symmetry_equiv_pos_as_xyz
  x,y,z
_cell_length_a	10.967926
_cell_length_b	19.188930
_cell_length_c	10.065875
_cell_angle_alpha	98.754308
_cell_angle_beta	93.120479
_cell_angle_gamma	83.946584
loop_
_atom_site_label
_atom_site_type_symbol
_atom_site_fract_x
_atom_site_fract_y
_atom_site_fract_z
O1	O	1.612253	0.121734	0.265677
O2	O	1.262199	0.123728	0.183344
O3	O	1.447324	0.021359	0.226912
O4	O	1.427128	0.224103	0.222109
O5	O	1.412022	0.040961	0.445593
O6	O	1.226897	0.143330	0.402024
O7	O	1.576952	0.141337	0.484358
Zn8	Zn	1.396320	0.145446	0.477911
Zn9	Zn	1.442831	0.119619	0.189790
O10	O	1.391827	0.243706	0.440789
C11	C	1.199763	0.131903	0.282151
C12	C	1.066318	0.127049	0.250765
C13	C	0.988537	0.135039	0.350056
C14	C	0.850614	0.130023	0.317620
C15	C	1.429018	0.005131	0.336102
C16	C	1.427052	-0.072427	0.335652
C17	C	1.535679	-0.114328	0.361207
C18	C	1.533837	-0.187205	0.360752
C19	C	1.423358	-0.218176	0.334766
C20	C	1.314719	-0.176266	0.309200
C21	C	1.316566	-0.103392	0.309642
N22	N	1.326897	-0.321860	0.389325
N23	N	1.325149	-0.391087	0.388909
C24	C	1.417787	-0.437742	0.333429
N25	N	1.512255	-0.412553	0.278400
N26	N	1.514005	-0.343319	0.278823
C27	C	1.421343	-0.297195	0.334283
C28	C	1.524425	-0.558665	0.358491
C29	C	1.522580	-0.631544	0.358027
C30	C	1.303456	-0.620602	0.306487
C31	C	1.305306	-0.547726	0.306938
C32	C	1.415793	-0.516761	0.332948
C33	C	1.639388	0.133161	0.385548
C34	C	1.772834	0.138015	0.416925
C35	C	1.410133	0.259933	0.331596
C36	C	1.412100	0.337490	0.332038
N37	N	1.364586	0.163072	0.674548
N38	N	1.474574	0.101987	-0.006845
C39	C	1.431782	0.125747	0.758142
C40	C	1.407368	0.139318	0.909563
H41	H	1.030802	0.116492	0.141746
C42	C	0.717923	0.172130	0.143034
C43	C	0.802689	0.115775	0.170434
H44	H	0.688343	0.163336	0.052167
H45	H	0.651261	0.176486	0.201117
H46	H	0.756688	0.214788	0.157215
H47	H	0.763922	0.073119	0.156262
H48	H	0.869363	0.111412	0.112333
C49	C	1.741165	-0.111288	0.292862
C50	C	1.657128	-0.080294	0.389780
H51	H	1.816139	-0.090272	0.310498
H52	H	1.755601	-0.160679	0.296266
H53	H	1.708751	-0.103920	0.206093
H54	H	1.689537	-0.087667	0.476549
H55	H	1.642693	-0.030891	0.386389
C56	C	1.163822	0.151504	0.500877
C57	C	1.036469	0.149291	0.497233
H58	H	1.193407	0.160307	0.591742
H59	H	1.201593	0.107414	0.458915
H60	H	1.182833	0.188301	0.454463
H61	H	1.017459	0.112490	0.543639
H62	H	0.998686	0.193386	0.539215
C63	C	0.792701	0.098017	0.632491
C64	C	0.820757	0.152263	0.564111
H65	H	0.822294	0.106812	0.723353
H66	H	0.706312	0.096521	0.629997
H67	H	0.830490	0.053928	0.590505
H68	H	0.782960	0.196350	0.606091
H69	H	0.907163	0.153765	0.566613
H70	H	1.622298	-0.221327	0.381558
C71	C	1.509333	0.002865	0.732049
C72	C	1.533851	0.069055	0.703400
H73	H	1.572347	-0.032131	0.698238
H74	H	1.506347	0.004533	0.826619
H75	H	1.432684	-0.008702	0.690698
H76	H	1.610497	0.080624	0.744760
H77	H	1.536851	0.067388	0.608813
H78	H	1.224766	-0.201488	0.288039
C79	C	1.192413	-0.706269	0.163673
C80	C	1.182014	-0.654638	0.277917
H81	H	1.117440	-0.727286	0.146037
H82	H	1.209993	-0.684892	0.088675
H83	H	1.256849	-0.741654	0.178840
H84	H	1.117584	-0.619250	0.262746
H85	H	1.164419	-0.676016	0.352932
H86	H	1.228106	-0.069276	0.288832
H87	H	1.331756	0.181320	0.950089
C88	C	1.740837	-0.576799	0.409359
C89	C	1.645873	-0.524625	0.387047
H90	H	1.815814	-0.555786	0.426975
H91	H	1.723261	-0.598166	0.484372
H92	H	1.747851	-0.611825	0.331846
H93	H	1.638853	-0.489602	0.464563
H94	H	1.663453	-0.503247	0.312027
H95	H	1.550178	0.059979	0.952627
H96	H	1.216849	-0.513609	0.286135
C97	C	1.665785	-0.729897	0.275008
C98	C	1.641997	-0.677603	0.386111
H99	H	1.739514	-0.758329	0.292345
H100	H	1.599734	-0.758769	0.259470
H101	H	1.674260	-0.708056	0.197865
H102	H	1.633513	-0.699444	0.463252
H103	H	1.708063	-0.648727	0.401665
H104	H	1.288978	0.205071	0.715081
