data_functionalizedCrystal
_audit_creation_method	'MofGen! by Chris Wilmer'
_symmetry_space_group_name_H-M	'P1'
_symmetry_Int_Tables_number	1
_symmetry_cell_setting	triclinic
loop_
_symmetry_equiv_pos_as_xyz
  x,y,z
_cell_length_a	17.699083
_cell_length_b	8.559649
_cell_length_c	16.176319
_cell_angle_alpha	89.994559
_cell_angle_beta	89.998611
_cell_angle_gamma	76.530840
loop_
_atom_site_label
_atom_site_type_symbol
_atom_site_fract_x
_atom_site_fract_y
_atom_site_fract_z
O1	O	0.992507	0.202110	-0.068628
O2	O	0.770623	0.228405	-0.068655
O3	O	0.901113	-0.017421	-0.068638
O4	O	0.862017	0.447935	-0.068645
O5	O	0.901098	-0.017436	0.068855
O6	O	0.770608	0.228389	0.068838
O7	O	0.992492	0.202094	0.068865
Cu8	Cu	0.881549	0.215240	0.081406
Cu9	Cu	0.881566	0.215259	-0.081196
O10	O	0.862002	0.447920	0.068849
C11	C	0.742473	0.227455	0.000088
C12	C	0.658616	0.224628	0.000078
C13	C	0.601734	0.368922	0.000076
C14	C	0.522943	0.366257	0.000087
C15	C	0.501037	0.219296	0.000094
C16	C	0.557926	0.074990	0.000098
C17	C	0.636715	0.077657	0.000093
C18	C	0.240179	0.064231	0.000118
C19	C	0.161383	0.061575	0.000121
C20	C	0.126407	0.352831	0.000112
C21	C	0.205196	0.355498	0.000108
C22	C	0.262078	0.211193	0.000116
C23	C	0.347512	0.214085	0.000106
C24	C	0.415605	0.216402	0.000098
C25	C	0.904069	-0.076970	0.000107
C26	C	0.912888	-0.254384	0.000104
C27	C	1.020643	0.203044	0.000120
C28	C	1.104499	0.205871	0.000125
C29	C	0.859047	0.507469	0.000101
C30	C	0.850227	0.684883	0.000099
N31	N	0.881542	0.215226	0.195771
N32	N	0.881580	0.215260	-0.195561
C33	C	0.939336	0.106419	0.239043
C34	C	0.939340	0.106417	0.325590
C35	C	0.881552	0.215232	0.368864
C36	C	0.823752	0.324044	0.325586
C37	C	0.823746	0.324037	0.239041
C38	C	0.823776	0.324074	0.674614
C39	C	0.823789	0.324076	0.761166
C40	C	0.939370	0.106455	0.761164
C41	C	0.939364	0.106447	0.674618
C42	C	0.881562	0.215253	0.631348
C43	C	0.881558	0.215252	0.537504
C44	C	0.881559	0.215242	0.462706
H45	H	0.476631	0.483756	0.000085
H46	H	0.973285	-0.338124	0.000118
H47	H	0.789834	-0.231386	0.000095
N48	N	0.761448	0.441436	0.627943
H49	H	0.731480	0.380449	0.592046
H50	H	0.724895	0.510352	0.668538
H51	H	0.223027	0.475168	0.000099
N52	N	0.761453	0.441429	0.807845
H53	H	0.763561	0.554845	0.792776
H54	H	0.708836	0.423003	0.792777
H55	H	0.683029	-0.039842	0.000094
N56	N	0.137749	-0.096936	0.000143
H57	H	0.105839	-0.104538	-0.050824
H58	H	0.185773	-0.187860	0.000183
H59	H	0.776697	0.412637	0.360825
N60	N	0.761408	0.441384	0.192365
H61	H	0.724800	0.510320	0.232910
H62	H	0.786271	0.511963	0.156444
H63	H	0.986396	0.017817	0.203815
N64	N	0.301522	-0.091408	0.000108
H65	H	0.354760	-0.067430	0.000105
H66	H	0.295389	-0.155483	0.051077
N67	N	0.065055	0.508480	0.000106
H68	H	0.011817	0.484500	0.000113
H69	H	0.071193	0.572542	0.051071
H70	H	0.540084	-0.044668	0.000115
N71	N	1.001697	-0.010883	0.372262
H72	H	1.038314	-0.079791	0.331716
H73	H	1.031585	0.050285	0.408146
N74	N	1.001710	-0.010914	0.807836
H75	H	1.038319	-0.079837	0.767288
H76	H	1.031614	0.050198	0.843735
N77	N	0.625359	0.527432	0.000060
H78	H	0.577365	0.618436	0.000061
H79	H	0.657290	0.534883	0.051026
N80	N	1.001694	-0.010908	0.627944
H81	H	1.038307	-0.079842	0.668490
H82	H	0.976820	-0.081489	0.592045
