data_functionalizedCrystal
_audit_creation_method	'MofGen! by Chris Wilmer'
_symmetry_space_group_name_H-M	'P1'
_symmetry_Int_Tables_number	1
_symmetry_cell_setting	triclinic
loop_
_symmetry_equiv_pos_as_xyz
  x,y,z
_cell_length_a	23.532407
_cell_length_b	23.532407
_cell_length_c	22.610064
_cell_angle_alpha	90.000603
_cell_angle_beta	89.997161
_cell_angle_gamma	97.151322
loop_
_atom_site_label
_atom_site_type_symbol
_atom_site_fract_x
_atom_site_fract_y
_atom_site_fract_z
O1	O	0.755263	-0.069127	-0.049117
O2	O	1.255263	0.430873	0.450883
O3	O	0.589400	-0.079130	-0.049135
O4	O	1.089400	0.420870	0.450865
O5	O	0.677333	0.008803	-0.049114
O6	O	1.177333	0.508803	0.450886
O7	O	0.667330	-0.157060	-0.049137
O8	O	1.167330	0.342940	0.450863
O9	O	0.677318	0.008790	0.049255
O10	O	1.177318	0.508790	0.549255
O11	O	0.589385	-0.079143	0.049234
O12	O	1.089385	0.420857	0.549234
O13	O	0.755248	-0.069140	0.049252
O14	O	1.255248	0.430860	0.549252
Zn15	Zn	0.672314	-0.074144	0.064862
Zn16	Zn	1.172314	0.425856	0.564862
Zn17	Zn	0.672334	-0.074127	-0.064744
Zn18	Zn	1.172334	0.425873	0.435256
O19	O	0.667315	-0.157073	0.049232
O20	O	1.167315	0.342927	0.549232
C21	C	0.568176	-0.078882	0.000048
C22	C	1.068176	0.421118	0.500048
C23	C	0.504959	-0.078116	0.000041
C24	C	1.004959	0.421884	0.500041
C25	C	0.105856	-0.125350	0.000061
C26	C	0.605856	0.374650	0.500061
C27	C	0.046456	-0.124638	0.000065
C28	C	0.546456	0.375362	0.500065
O29	O	0.009711	-0.168424	0.000081
O30	O	0.509711	0.331576	0.500081
N31	N	0.023830	-0.072362	0.000071
N32	N	0.523830	0.427638	0.500071
C33	C	0.060607	-0.020794	0.000080
C34	C	0.560607	0.479206	0.500080
O35	O	0.035908	0.023737	0.000086
O36	O	0.535908	0.523737	0.500086
C37	C	0.120006	-0.021506	0.000080
C38	C	0.620006	0.478494	0.500080
C39	C	0.142629	-0.073785	0.000068
C40	C	0.642629	0.426215	0.500068
C41	C	0.128479	-0.177625	0.000050
C42	C	0.628479	0.322375	0.500050
C43	C	0.187876	-0.178336	0.000045
C44	C	0.687876	0.321664	0.500045
C45	C	0.224649	-0.126772	0.000052
C46	C	0.724649	0.373228	0.500052
C47	C	0.202025	-0.074497	0.000063
C48	C	0.702025	0.425503	0.500063
C49	C	0.156783	0.030062	0.000093
C50	C	0.656783	0.530062	0.500093
C51	C	0.216185	0.029345	0.000094
C52	C	0.716185	0.529345	0.500094
C53	C	0.238808	-0.022934	0.000082
C54	C	0.738808	0.477066	0.500082
C55	C	0.298194	-0.023643	0.000065
C56	C	0.798194	0.476357	0.500065
N57	N	0.320820	-0.075920	0.000059
N58	N	0.820820	0.424080	0.500059
C59	C	0.284048	-0.127484	0.000052
C60	C	0.784048	0.372516	0.500052
C61	C	-0.064135	-0.019302	0.000080
C62	C	0.435865	0.480698	0.500080
C63	C	-0.123533	-0.018589	0.000075
C64	C	0.376467	0.481411	0.500075
C65	C	-0.137680	-0.122434	0.000061
C66	C	0.362320	0.377566	0.500061
C67	C	-0.078281	-0.123146	0.000062
C68	C	0.421719	0.376854	0.500062
C69	C	-0.041509	-0.071578	0.000074
C70	C	0.458491	0.428422	0.500074
C71	C	0.408784	-0.128974	0.000042
C72	C	0.908784	0.371026	0.500042
C73	C	0.468186	-0.129680	0.000034
C74	C	0.968186	0.370320	0.500034
C75	C	0.482329	-0.025836	0.000051
C76	C	0.982329	0.474164	0.500051
C77	C	0.422932	-0.025129	0.000055
C78	C	0.922932	0.474871	0.500055
C79	C	0.386160	-0.076702	0.000052
C80	C	0.886160	0.423298	0.500052
O81	O	0.334974	0.020119	0.000052
O82	O	0.834974	0.520119	0.500052
O83	O	0.308755	-0.172007	0.000054
O84	O	0.808755	0.327993	0.500054
C85	C	0.677071	0.030013	0.000072
C86	C	1.177071	0.530013	0.500072
C87	C	0.676305	0.093230	0.000076
C88	C	1.176305	0.593230	0.500076
C89	C	0.776472	-0.069388	0.000069
C90	C	1.276472	0.430612	0.500069
C91	C	0.839689	-0.070154	0.000071
C92	C	1.339689	0.429846	0.500071
C93	C	0.667577	-0.178283	0.000045
C94	C	1.167577	0.321717	0.500045
C95	C	0.668343	-0.241500	0.000036
C96	C	1.168343	0.258500	0.500036
N97	N	0.672304	-0.074155	0.153314
N98	N	1.172304	0.425845	0.653314
C99	C	0.723539	0.492333	0.000049
C100	C	1.223539	0.992333	0.500049
C101	C	0.722827	0.551733	0.000044
C102	C	1.222827	1.051733	0.500044
O103	O	0.766613	0.588478	0.000027
O104	O	1.266613	1.088478	0.500027
N105	N	0.670551	0.574359	0.000039
N106	N	1.170551	1.074359	0.500039
C107	C	0.618983	0.537582	0.000032
C108	C	1.118983	1.037582	0.500032
O109	O	0.574452	0.562281	0.000027
O110	O	1.074452	1.062281	0.500027
C111	C	0.619695	0.478182	0.000033
C112	C	1.119695	0.978182	0.500033
C113	C	0.671974	0.455560	0.000044
C114	C	1.171974	0.955560	0.500044
C115	C	0.775814	0.469710	0.000060
C116	C	1.275814	0.969710	0.500060
C117	C	0.776525	0.410313	0.000065
C118	C	1.276525	0.910313	0.500065
C119	C	0.724961	0.373540	0.000060
C120	C	1.224961	0.873540	0.500060
C121	C	0.672685	0.396164	0.000050
C122	C	1.172685	0.896164	0.500050
C123	C	0.568127	0.441406	0.000022
C124	C	1.068127	0.941406	0.500022
C125	C	0.568844	0.382004	0.000021
C126	C	1.068844	0.882004	0.500021
C127	C	0.621123	0.359381	0.000033
C128	C	1.121123	0.859381	0.500033
C129	C	0.621832	0.299995	0.000050
C130	C	1.121832	0.799995	0.500050
N131	N	0.674109	0.277368	0.000056
N132	N	1.174109	0.777368	0.500056
C133	C	0.725673	0.314141	0.000061
C134	C	1.225673	0.814141	0.500061
C135	C	0.617491	0.662324	0.000031
C136	C	1.117491	1.162324	0.500031
C137	C	0.616778	0.721722	0.000034
C138	C	1.116778	1.221722	0.500034
C139	C	0.720623	0.735869	0.000045
C140	C	1.220623	1.235869	0.500045
C141	C	0.721335	0.676470	0.000046
C142	C	1.221335	1.176470	0.500046
C143	C	0.669767	0.639698	0.000036
C144	C	1.169767	1.139698	0.500036
C145	C	0.727163	0.189405	0.000073
C146	C	1.227163	0.689405	0.500073
C147	C	0.727869	0.130003	0.000081
C148	C	1.227869	0.630003	0.500081
C149	C	0.624025	0.115860	0.000067
C150	C	1.124025	0.615860	0.500067
C151	C	0.623318	0.175257	0.000062
C152	C	1.123318	0.675257	0.500062
C153	C	0.674891	0.212029	0.000063
C154	C	1.174891	0.712029	0.500063
O155	O	0.578070	0.263215	0.000065
O156	O	1.078070	0.763215	0.500065
O157	O	0.770196	0.289433	0.000058
O158	O	1.270196	0.789433	0.500058
N159	N	0.672349	-0.074111	-0.153196
N160	N	1.172349	0.425889	0.346804
C161	C	0.711273	-0.035196	0.561965
C162	C	1.211273	0.464804	1.061965
C163	C	0.711276	-0.035192	0.623884
C164	C	1.211276	0.464808	1.123884
O165	O	0.744384	-0.002076	0.655911
O166	O	1.244384	0.497924	1.155911
N167	N	0.672334	-0.074115	0.654851
N168	N	1.172334	0.425885	1.154851
C169	C	0.633383	-0.113041	0.623895
C170	C	1.133383	0.386959	1.123895
O171	O	0.600259	-0.146147	0.655920
O172	O	1.100259	0.353853	1.155920
C173	C	0.633377	-0.113042	0.561976
C174	C	1.133377	0.386958	1.061976
C175	C	0.672326	-0.074120	0.531013
C176	C	1.172326	0.425880	1.031013
C177	C	0.750218	0.003724	0.531001
C178	C	1.250218	0.503724	1.031001
C179	C	0.750215	0.003719	0.469085
C180	C	1.250215	0.503719	0.969085
C181	C	0.711268	-0.035206	0.438133
C182	C	1.211268	0.464794	0.938133
C183	C	0.672323	-0.074125	0.469097
C184	C	1.172323	0.425875	0.969097
C185	C	0.594424	-0.151965	0.531021
C186	C	1.094424	0.348035	1.031021
C187	C	0.594422	-0.151962	0.469098
C188	C	1.094422	0.348038	0.969098
C189	C	0.633370	-0.113040	0.438134
C190	C	1.133370	0.386960	0.938134
C191	C	0.633374	-0.113054	0.376229
C192	C	1.133374	0.386946	0.876229
N193	N	0.672316	-0.074131	0.345262
N194	N	1.172316	0.425869	0.845262
C195	C	0.711263	-0.035207	0.376214
C196	C	1.211263	0.464793	0.876214
C197	C	0.633396	-0.113035	0.753928
C198	C	1.133396	0.386965	1.253928
C199	C	0.633403	-0.113037	0.815846
C200	C	1.133403	0.386963	1.315846
C201	C	0.711296	-0.035187	0.815831
C202	C	1.211296	0.464813	1.315831
C203	C	0.711291	-0.035188	0.753913
C204	C	1.211291	0.464812	1.253913
C205	C	0.672338	-0.074112	0.722962
C206	C	1.172338	0.425888	1.222962
C207	C	0.711255	-0.035220	0.246187
C208	C	1.211255	0.464780	0.746187
C209	C	0.711251	-0.035230	0.184266
C210	C	1.211251	0.464770	0.684266
C211	C	0.633357	-0.113078	0.184286
C212	C	1.133357	0.386922	0.684286
C213	C	0.633363	-0.113071	0.246202
C214	C	1.133363	0.386929	0.746202
C215	C	0.672314	-0.074137	0.277151
C216	C	1.172314	0.425863	0.777151
O217	O	0.600281	-0.146152	0.344163
O218	O	1.100281	0.353848	0.844163
O219	O	0.744376	-0.002101	0.344182
O220	O	1.244376	0.497899	0.844182
H221	H	0.486602	-0.172255	0.000024
H222	H	0.986602	0.327745	0.500024
N223	N	-0.053880	-0.179531	0.000057
N224	N	0.446120	0.320469	0.500057
H225	H	-0.029548	-0.182139	-0.036408
H226	H	0.470452	0.317861	0.463592
H227	H	-0.086224	-0.212054	0.000074
H228	H	0.413776	0.287946	0.500074
H229	H	0.574207	0.740136	0.000035
H230	H	1.074207	1.240136	0.500035
H231	H	0.404512	0.017441	0.000056
H232	H	0.904512	0.517441	0.500056
H233	H	-0.167632	-0.164421	0.000059
H234	H	0.332368	0.335579	0.500059
H235	H	0.819097	0.391900	0.000072
H236	H	1.319097	0.891900	0.500072
N237	N	0.255842	0.084969	0.000104
N238	N	0.755842	0.584969	0.500104
H239	H	0.280804	0.086998	-0.036362
H240	H	0.780804	0.586998	0.463638
H241	H	0.280764	0.086951	0.036593
H242	H	0.780764	0.586951	0.536593
N243	N	0.088837	-0.233255	0.000067
N244	N	0.588837	0.266745	0.500067
H245	H	0.096087	-0.256080	-0.036396
H246	H	0.596087	0.243920	0.463604
H247	H	0.047784	-0.224850	0.000098
H248	H	0.547784	0.275150	0.500098
N249	N	0.521996	0.029778	0.000058
N250	N	1.021996	0.529778	0.500058
H251	H	0.563056	0.021390	0.000057
H252	H	1.063056	0.521390	0.500057
H253	H	0.514703	0.052567	0.036532
H254	H	1.014703	0.552567	0.536532
N255	N	0.753308	0.006792	0.849224
N256	N	1.253308	0.506792	1.349224
H257	H	0.777983	0.031449	0.820216
H258	H	1.277983	0.531449	1.320216
H259	H	0.778355	-0.014894	0.874907
H260	H	1.278355	0.485106	1.374907
N261	N	-0.147924	0.037800	0.000084
N262	N	0.352076	0.537800	0.500084
H263	H	-0.172252	0.040408	0.036552
H264	H	0.327748	0.540408	0.536552
H265	H	-0.172225	0.040387	-0.036403
H266	H	0.327775	0.540387	0.463597
H267	H	0.770443	0.111587	0.000092
H268	H	1.270443	0.611587	0.500092
N269	N	0.753272	0.006765	0.279563
N270	N	1.253272	0.506765	0.779563
H271	H	0.731664	0.031880	0.305254
H272	H	1.231664	0.531880	0.805254
H273	H	0.777931	0.031375	0.250507
H274	H	1.277931	0.531375	0.750507
H275	H	0.762610	0.765821	0.000047
H276	H	1.262610	1.265821	0.500047
H277	H	0.206289	-0.220908	0.000035
H278	H	0.706289	0.279092	0.500035
H279	H	0.817806	0.499645	0.000061
H280	H	1.317806	0.999645	0.500061
H281	H	0.138375	0.072634	0.000103
H282	H	0.638375	0.572634	0.500103
N283	N	-0.024475	0.036321	0.000089
N284	N	0.475525	0.536321	0.500089
H285	H	-0.047826	0.069542	0.000093
H286	H	0.452174	0.569542	0.500093
H287	H	0.000481	0.038296	-0.036377
H288	H	0.500481	0.538296	0.463623
H289	H	0.769159	0.219337	0.000071
H290	H	1.269159	0.719337	0.500071
N291	N	0.566930	0.199658	0.000054
N292	N	1.066930	0.699658	0.500054
H293	H	0.564326	0.223982	-0.036416
H294	H	1.064326	0.723982	0.463584
H295	H	0.564347	0.223964	0.036539
H296	H	1.064347	0.723964	0.536539
H297	H	0.763906	0.658056	0.000054
H298	H	1.263906	1.158056	0.500054
N299	N	0.552405	-0.193937	0.564405
N300	N	1.052405	0.306063	1.064405
H301	H	0.558720	-0.234328	0.553628
H302	H	1.058720	0.265672	1.053628
H303	H	0.512050	-0.187517	0.553608
H304	H	1.012050	0.312483	1.053608
H305	H	0.575496	0.632386	0.000028
H306	H	1.075496	1.132386	0.500028
H307	H	0.525555	0.459814	0.000009
H308	H	1.025555	0.959814	0.500009
H309	H	0.526850	0.352066	0.000013
H310	H	1.026850	0.852066	0.500013
H311	H	0.742969	-0.003535	0.159057
H312	H	1.242969	0.496465	0.659057
H313	H	0.601648	-0.144772	0.159075
H314	H	1.101648	0.355228	0.659075
H315	H	0.582043	0.085909	0.000065
H316	H	1.082043	0.585909	0.500065
H317	H	0.781929	0.035414	0.443878
H318	H	1.281929	0.535414	0.943878
N319	N	0.792237	0.045701	0.564379
N320	N	1.292237	0.545701	1.064379
H321	H	0.816907	0.070349	0.535359
H322	H	1.316907	0.570349	1.035359
H323	H	0.817289	0.024015	0.590058
H324	H	1.317289	0.524015	1.090058
N325	N	0.753298	0.006791	0.720518
N326	N	1.253298	0.506791	1.220518
H327	H	0.777971	0.031446	0.749528
H328	H	1.277971	0.531446	1.249528
H329	H	0.731640	0.031862	0.694832
H330	H	1.231640	0.531862	1.194832
H331	H	0.601677	-0.144736	0.728731
H332	H	1.101677	0.355264	1.228731
N333	N	0.369129	-0.184598	0.000053
N334	N	0.869129	0.315402	0.500053
H335	H	0.392482	-0.217818	0.000048
H336	H	0.892482	0.282182	0.500048
H337	H	0.344170	-0.186571	-0.036409
H338	H	0.844170	0.313429	0.463591
N339	N	0.591398	-0.155020	0.849239
N340	N	1.091398	0.344980	1.349239
H341	H	0.566726	-0.179676	0.820230
H342	H	1.066726	0.320324	1.320230
H343	H	0.566347	-0.133340	0.874928
H344	H	1.066347	0.366660	1.374928
N345	N	0.552405	-0.193943	0.435715
N346	N	1.052405	0.306057	0.935715
H347	H	0.527735	-0.218596	0.464730
H348	H	1.027735	0.281404	0.964730
H349	H	0.574058	-0.219015	0.410024
H350	H	1.074058	0.280985	0.910024
H351	H	0.601653	-0.144770	0.271413
H352	H	1.101653	0.355230	0.771413
