data_functionalizedCrystal
_audit_creation_method	'MofGen! by Chris Wilmer'
_symmetry_space_group_name_H-M	'P1'
_symmetry_Int_Tables_number	1
_symmetry_cell_setting	triclinic
loop_
_symmetry_equiv_pos_as_xyz
  x,y,z
_cell_length_a	21.295420
_cell_length_b	21.295416
_cell_length_c	16.625539
_cell_angle_alpha	89.969100
_cell_angle_beta	90.020640
_cell_angle_gamma	89.973887
loop_
_atom_site_label
_atom_site_type_symbol
_atom_site_fract_x
_atom_site_fract_y
_atom_site_fract_z
Zn1	Zn	0.962332	0.250679	0.455896
Zn2	Zn	0.962242	0.355952	0.321057
Zn3	Zn	0.857062	0.250693	0.321077
Zn4	Zn	0.857024	0.355906	0.455847
O5	O	0.909665	0.303308	0.388469
O6	O	1.050409	0.264657	0.438022
O7	O	0.948267	0.342015	0.208227
O8	O	0.871080	0.162602	0.338989
O9	O	1.050343	0.342001	0.338957
O10	O	0.948421	0.162591	0.438041
O11	O	0.870992	0.264681	0.208242
O12	O	0.768968	0.264637	0.338942
O13	O	0.871016	0.341923	0.568686
O14	O	0.768940	0.341936	0.437957
O15	O	0.948384	0.264612	0.568722
O16	O	0.948231	0.444036	0.338909
O17	O	0.870928	0.444002	0.437938
C18	C	0.746113	0.303284	0.388447
C19	C	0.676145	0.303288	0.388456
C20	C	0.176721	0.263130	0.440149
C21	C	0.242464	0.263125	0.440149
C22	C	0.275306	0.303327	0.388488
C23	C	0.242400	0.343548	0.336838
C24	C	0.176659	0.343556	0.336846
N25	N	0.378499	0.308074	0.317886
N26	N	0.440951	0.308063	0.317882
C27	C	0.473380	0.303306	0.388464
N28	N	0.440999	0.298549	0.459053
N29	N	0.378542	0.298557	0.459057
C30	C	0.346591	0.303323	0.388475
C31	C	0.577564	0.263086	0.440115
C32	C	0.643308	0.263085	0.440116
C33	C	0.643243	0.343505	0.336799
C34	C	0.577500	0.343509	0.336805
C35	C	0.544665	0.303296	0.388461
C36	C	0.909583	0.466859	0.388434
C37	C	0.909605	0.536827	0.388445
C38	C	0.949893	0.569691	0.336936
C39	C	0.949922	0.635433	0.336957
C40	C	0.909654	0.668310	0.388481
C41	C	0.869363	0.635439	0.440001
C42	C	0.869339	0.569697	0.439983
N43	N	0.854587	0.771572	0.394625
N44	N	0.854611	0.834023	0.394637
C45	C	0.909725	0.866385	0.388538
N46	N	0.964814	0.833936	0.382410
N47	N	0.964788	0.771478	0.382394
C48	C	0.909675	0.739595	0.388506
C49	C	0.950048	0.970533	0.337049
C50	C	0.950078	1.036277	0.337076
C51	C	0.869514	1.036281	0.440115
C52	C	0.869489	0.970539	0.440092
C53	C	0.909755	0.937669	0.388554
C54	C	1.073855	0.303332	0.388493
C55	C	1.143823	0.303343	0.388503
C56	C	0.909706	0.303261	0.598778
C57	C	0.909723	0.303241	0.688400
C58	C	0.909765	1.139117	0.388537
C59	C	0.909810	1.069149	0.388601
C60	C	0.909660	0.303309	0.178979
C61	C	0.909765	0.303152	0.089358
C62	C	0.909752	0.303170	1.016575
C63	C	0.909742	0.303192	0.925267
C64	C	0.909738	0.303206	0.852490
C65	C	0.909728	0.303227	0.761176
H66	H	0.550828	0.230342	0.482177
H67	H	0.670092	0.230341	0.482178
Br68	Br	1.004548	0.525084	0.267003
Br69	Br	0.286970	0.398113	0.266733
Br70	Br	0.287121	0.208546	0.510244
Br71	Br	1.004766	1.080879	0.267172
Br72	Br	0.814660	0.525094	0.509896
H73	H	0.982837	0.943770	0.295086
Br74	Br	0.532850	0.398078	0.266698
Br75	Br	0.687807	0.398073	0.266696
H76	H	0.982731	0.662196	0.295012
H77	H	0.836729	1.063049	0.482070
Br78	Br	0.814717	0.680055	0.509932
Br79	Br	0.132008	0.398133	0.266747
Br80	Br	0.814808	0.925935	0.510000
Br81	Br	0.132161	0.208560	0.510260
