data_functionalizedCrystal
_audit_creation_method	'MofGen! by Chris Wilmer'
_symmetry_space_group_name_H-M	'P1'
_symmetry_Int_Tables_number	1
_symmetry_cell_setting	triclinic
loop_
_symmetry_equiv_pos_as_xyz
  x,y,z
_cell_length_a	12.645330
_cell_length_b	12.759395
_cell_length_c	12.759387
_cell_angle_alpha	89.978972
_cell_angle_beta	89.970586
_cell_angle_gamma	90.018453
loop_
_atom_site_label
_atom_site_type_symbol
_atom_site_fract_x
_atom_site_fract_y
_atom_site_fract_z
Zn1	Zn	-0.421962	1.606247	-0.594030
Zn2	Zn	-0.599264	1.606128	-0.418354
Zn3	Zn	-0.422017	1.430545	-0.418365
Zn4	Zn	-0.599186	1.430528	-0.593992
O5	O	-0.510607	1.518362	-0.506185
O6	O	-0.445491	1.753252	-0.570737
O7	O	-0.575808	1.582794	-0.271335
O8	O	-0.273663	1.453909	-0.441688
O9	O	-0.575754	1.753165	-0.441670
O10	O	-0.273622	1.582996	-0.570748
O11	O	-0.445585	1.453794	-0.271342
O12	O	-0.445510	1.283522	-0.441651
O13	O	-0.575621	1.453880	-0.741018
O14	O	-0.575675	1.283509	-0.570683
O15	O	-0.445415	1.582980	-0.741046
O16	O	-0.747601	1.582778	-0.441633
O17	O	-0.747544	1.453765	-0.570673
C18	C	-0.510591	1.245395	-0.506165
C19	C	-0.510609	1.128618	-0.506181
C20	C	-0.375209	0.909274	-0.640831
C21	C	-0.307486	0.964185	-0.708127
C22	C	-0.307468	1.073907	-0.708108
C23	C	-0.375182	1.128719	-0.640790
C24	C	-0.442905	1.073808	-0.573494
C25	C	-0.442913	0.964084	-0.573518
C26	C	-0.578332	1.073706	-0.438886
C27	C	-0.578346	0.963985	-0.438897
C28	C	-0.646046	1.128519	-0.371567
C29	C	-0.713765	1.073607	-0.304265
C30	C	-0.713780	0.963879	-0.304285
C31	C	-0.646069	0.909073	-0.371602
C32	C	-0.786037	1.518285	-0.506171
C33	C	-0.903867	1.518349	-0.506199
C34	C	-1.071439	1.437522	-0.587629
C35	C	-0.948880	1.437108	-0.587367
C36	C	-0.948470	1.488373	-0.395477
C37	C	-1.071069	1.487880	-0.395972
C38	C	-1.070953	1.629646	-0.534594
C39	C	-0.948346	1.628964	-0.537015
C40	C	-0.234102	1.518468	-0.506223
C41	C	-0.116272	1.518513	-0.506239
C42	C	-0.510503	1.518441	-0.780219
C43	C	-0.510459	1.518475	-0.896996
C44	C	-0.510625	1.792395	-0.506207
C45	C	-0.510632	1.909172	-0.506216
C46	C	-0.374885	1.652916	-0.897044
C47	C	-0.307082	1.720151	-0.951930
C48	C	-0.307043	1.720176	-1.061651
C49	C	-0.374812	1.652958	-1.116490
C50	C	-0.442616	1.585723	-1.061605
C51	C	-0.442649	1.585707	-0.951881
C52	C	-0.578183	1.451278	-1.061556
C53	C	-0.578229	1.451256	-0.951835
C54	C	-0.645953	1.384059	-1.116395
C55	C	-0.713763	1.316828	-1.061510
C56	C	-0.713799	1.316806	-0.951782
C57	C	-0.646032	1.384021	-0.896950
C58	C	-0.510634	1.518344	-0.233218
C59	C	-0.510380	1.518513	-0.116442
H60	H	-0.768898	1.118244	-0.249465
O61	O	-0.910143	1.327984	-0.562457
H62	H	-0.978976	1.275304	-0.550543
H63	H	-1.100844	1.456104	-0.669998
H64	H	-0.917699	1.692484	-0.482052
O65	O	-0.375152	1.247062	-0.640769
H66	H	-0.396660	1.276035	-0.719971
H67	H	-1.099763	1.406640	-0.371951
O68	O	-0.786842	1.244331	-1.120661
H69	H	-0.833996	1.197571	-1.064066
H70	H	-0.252324	1.118616	-0.762908
O71	O	-0.646018	1.246862	-0.371526
H72	H	-0.587539	1.275839	-0.429616
O73	O	-0.786819	0.904652	-0.231696
H74	H	-0.833890	0.961204	-0.184881
H75	H	-0.375194	0.819933	-0.640830
O76	O	-0.909710	1.658914	-0.644947
H77	H	-0.978552	1.670879	-0.697535
H78	H	-1.101790	1.656990	-0.613960
O79	O	-1.109591	1.709635	-0.456250
H80	H	-1.160793	1.670491	-0.397377
H81	H	-0.252357	0.919545	-0.762938
H82	H	-0.374919	1.652912	-0.807703
H83	H	-0.646061	0.819732	-0.371612
H84	H	-0.645912	1.384081	-1.205737
H85	H	-0.918719	1.455863	-0.669467
H86	H	-1.102343	1.355647	-0.569084
O87	O	-1.110373	1.562607	-0.312895
H88	H	-1.041812	1.598931	-0.272540
H89	H	-0.919316	1.545493	-0.333179
H90	H	-0.917862	1.407980	-0.371022
O91	O	-0.786910	1.244267	-0.892584
H92	H	-0.834019	1.197532	-0.949154
H93	H	-0.646060	1.384014	-0.807608
H94	H	-0.251903	1.774877	-0.907268
O95	O	-0.233919	1.792694	-1.120860
H96	H	-0.186806	1.839436	-1.064299
H97	H	-0.374766	1.652975	-1.205831
