data_functionalizedCrystal
_audit_creation_method	'MofGen! by Chris Wilmer'
_symmetry_space_group_name_H-M	'P1'
_symmetry_Int_Tables_number	1
_symmetry_cell_setting	triclinic
loop_
_symmetry_equiv_pos_as_xyz
  x,y,z
_cell_length_a	14.519731
_cell_length_b	14.519709
_cell_length_c	12.996460
_cell_angle_alpha	89.998766
_cell_angle_beta	89.993690
_cell_angle_gamma	83.684499
loop_
_atom_site_label
_atom_site_type_symbol
_atom_site_fract_x
_atom_site_fract_y
_atom_site_fract_z
O1	O	1.223858	0.120978	-0.085571
O2	O	1.723858	0.620978	0.414429
O3	O	0.955384	0.135195	-0.085573
O4	O	1.455384	0.635195	0.414427
O5	O	1.096739	-0.006151	-0.085563
O6	O	1.596739	0.493849	0.414437
O7	O	1.082503	0.262324	-0.085582
O8	O	1.582503	0.762324	0.414418
O9	O	1.096721	-0.006143	0.085571
O10	O	1.596721	0.493857	0.585571
O11	O	0.955366	0.135203	0.085561
O12	O	1.455366	0.635203	0.585561
O13	O	1.223840	0.120987	0.085563
O14	O	1.723840	0.620987	0.585563
Cu15	Cu	1.089601	0.128095	0.101187
Cu16	Cu	1.589601	0.628095	0.601187
Cu17	Cu	1.089623	0.128086	-0.101198
Cu18	Cu	1.589623	0.628086	0.398802
O19	O	1.082485	0.262333	0.085552
O20	O	1.582485	0.762333	0.585552
C21	C	0.921016	0.134532	-0.000006
C22	C	1.421016	0.634532	0.499994
C23	C	0.818635	0.132536	-0.000007
C24	C	1.318635	0.632536	0.499993
C25	C	0.735491	0.130915	-0.000011
C26	C	1.235491	0.630915	0.499989
C27	C	0.631182	0.128888	-0.000011
C28	C	1.131182	0.628888	0.499989
C29	C	0.548043	0.127280	-0.000011
C30	C	1.048043	0.627280	0.499989
C31	C	0.443728	0.125253	-0.000013
C32	C	0.943728	0.625253	0.499987
C33	C	1.096067	-0.040507	0.000004
C34	C	1.596067	0.459493	0.500004
C35	C	1.094079	-0.142889	0.000005
C36	C	1.594079	0.357111	0.500005
C37	C	1.086759	-0.517785	-0.000022
C38	C	1.586759	-0.017785	0.499978
C39	C	1.088792	-0.413477	-0.000014
C40	C	1.588792	0.086523	0.499986
C41	C	1.090419	-0.330340	-0.000008
C42	C	1.590419	0.169660	0.499992
C43	C	1.092452	-0.226025	-0.000002
C44	C	1.592452	0.273975	0.499998
C45	C	1.258209	0.121649	-0.000007
C46	C	1.758209	0.621649	0.499993
C47	C	1.360589	0.123645	-0.000013
C48	C	1.860589	0.623645	0.499987
C49	C	1.083157	0.296688	-0.000017
C50	C	1.583157	0.796688	0.499983
C51	C	1.085146	0.399070	-0.000024
C52	C	1.585146	0.899070	0.499976
N53	N	1.089593	0.128102	0.243535
N54	N	1.589593	0.628102	0.743535
N55	N	1.089639	0.128072	-0.243545
N56	N	1.589639	0.628072	0.256455
C57	C	1.089597	0.128104	0.336640
C58	C	1.589597	0.628104	0.836640
C59	C	1.089606	0.128098	0.453446
C60	C	1.589606	0.628098	0.953446
C61	C	1.089617	0.128088	0.546544
C62	C	1.589617	0.628088	1.046544
C63	C	1.089627	0.128082	0.663356
C64	C	1.589627	0.628082	1.163356
