data_functionalizedCrystal
_audit_creation_method	'MofGen! by Chris Wilmer'
_symmetry_space_group_name_H-M	'P1'
_symmetry_Int_Tables_number	1
_symmetry_cell_setting	triclinic
loop_
_symmetry_equiv_pos_as_xyz
  x,y,z
_cell_length_a	16.109301
_cell_length_b	22.610064
_cell_length_c	23.532407
_cell_angle_alpha	90.009150
_cell_angle_beta	83.155079
_cell_angle_gamma	90.012563
loop_
_atom_site_label
_atom_site_type_symbol
_atom_site_fract_x
_atom_site_fract_y
_atom_site_fract_z
O1	O	1.102569	0.049153	0.073201
O2	O	0.860436	0.049163	0.082311
O3	O	0.988804	0.049147	-0.005148
O4	O	0.974201	0.049170	0.160661
O5	O	0.988767	-0.049222	-0.005149
O6	O	0.860398	-0.049206	0.082311
O7	O	1.102532	-0.049216	0.073201
Zn8	Zn	0.981459	-0.064829	0.077756
Zn9	Zn	0.981509	0.064777	0.077756
O10	O	0.974164	-0.049200	0.160661
C11	C	0.829445	-0.000020	0.081942
C12	C	0.737159	-0.000017	0.080836
C13	C	0.514498	-0.000017	0.130160
C14	C	0.427786	-0.000021	0.129116
C15	C	0.448476	-0.000032	0.025348
C16	C	0.535187	-0.000032	0.026393
C17	C	0.568195	-0.000022	0.078801
C18	C	0.394773	-0.000025	0.076712
C19	C	0.300755	-0.000030	0.075580
C20	C	0.662218	-0.000019	0.079933
N21	N	0.981432	-0.153281	0.077756
C22	C	1.031646	-0.561920	0.112302
C23	C	1.031657	-0.623840	0.112300
O24	O	1.074318	-0.655857	0.141669
N25	N	0.981525	-0.654819	0.077750
C26	C	0.931385	-0.623874	0.043194
O27	O	0.888745	-0.655909	0.013806
C28	C	0.931380	-0.561955	0.043193
C29	C	0.981509	-0.530980	0.077750
C30	C	1.081772	-0.530945	0.146856
C31	C	1.081760	-0.469029	0.146858
C32	C	1.031623	-0.438089	0.112306
C33	C	0.981497	-0.469064	0.077752
C34	C	0.881245	-0.531012	0.008634
C35	C	0.881245	-0.469089	0.008636
C36	C	0.931374	-0.438113	0.043193
C37	C	0.931348	-0.376208	0.043202
N38	N	0.981480	-0.345230	0.077753
C39	C	1.031617	-0.376170	0.112305
C40	C	0.931401	-0.753908	0.043199
C41	C	0.931402	-0.815825	0.043203
C42	C	1.031675	-0.815787	0.112308
C43	C	1.031669	-0.753868	0.112307
C44	C	0.981533	-0.722929	0.077749
C45	C	1.031588	-0.246143	0.112307
C46	C	1.031569	-0.184222	0.112307
C47	C	0.931300	-0.184265	0.043200
C48	C	0.931315	-0.246181	0.043201
C49	C	0.981466	-0.277118	0.077756
O50	O	0.888711	-0.344152	0.013847
O51	O	1.074258	-0.344127	0.141683
C52	C	1.133523	-0.000031	0.073570
C53	C	1.225809	-0.000031	0.074677
C54	C	0.988414	-0.000039	-0.026366
C55	C	0.987296	-0.000043	-0.089587
N56	N	0.981543	0.153229	0.077752
C57	C	1.056249	-0.000014	-0.488436
C58	C	1.055210	-0.000009	-0.547840
O59	O	1.119130	0.000010	-0.584349
N60	N	0.978895	-0.000006	-0.570748
C61	C	0.903614	-0.000002	-0.534248
O62	O	0.838607	0.000001	-0.559187
C63	C	0.904654	-0.000003	-0.474845
C64	C	0.980973	-0.000011	-0.451941
C65	C	1.132562	-0.000022	-0.465531
C66	C	1.133601	-0.000028	-0.406131
C67	C	1.058325	-0.000025	-0.369636
C68	C	0.982012	-0.000017	-0.392541
C69	C	0.829373	0.000006	-0.438346
C70	C	0.830419	0.000006	-0.378940
C71	C	0.906739	-0.000003	-0.356036
C72	C	0.907774	-0.000020	-0.296645
N73	N	0.984089	-0.000023	-0.273738
C74	C	1.059365	-0.000025	-0.310233
C75	C	0.901437	-0.000001	-0.658998
C76	C	0.900396	-0.000004	-0.718400
C77	C	1.051993	-0.000010	-0.731988
C78	C	1.053032	-0.000011	-0.672585
C79	C	0.977752	-0.000003	-0.636091
C80	C	1.061539	-0.000038	-0.185488
C81	C	1.062571	-0.000046	-0.126082
C82	C	0.910975	-0.000037	-0.112499
C83	C	0.909943	-0.000032	-0.171900
C84	C	0.985232	-0.000030	-0.208394
O85	O	0.843888	-0.000037	-0.260102
O86	O	1.124361	-0.000021	-0.285285
C87	C	0.974554	-0.000012	0.181878
C88	C	0.975672	-0.000004	0.245100
H89	H	0.578910	-0.000038	-0.015433
H90	H	1.122584	-0.443815	0.174995
O91	O	1.080505	-0.845783	0.145837
C92	C	1.220250	-0.864729	0.168075
C93	C	1.165050	-0.830711	0.130077
H94	H	1.288617	-0.852565	0.155340
H95	H	1.201397	-0.852544	0.214844
H96	H	1.211598	-0.914301	0.162147
H97	H	1.173674	-0.781131	0.135955
H98	H	1.183916	-0.842945	0.083322
O99	O	0.832577	-0.561184	-0.024885
C100	C	0.788187	-0.656580	-0.055560
C101	C	0.843330	-0.622484	-0.017558
H102	H	0.796875	-0.706147	-0.049659
H103	H	0.719795	-0.644461	-0.042882
H104	H	0.807114	-0.644366	-0.102311
H105	H	0.824477	-0.634679	0.029203
H106	H	0.911709	-0.634606	-0.030285
H107	H	0.769115	0.000013	-0.349228
O108	O	0.375660	0.000092	0.179023
C109	C	0.331500	0.051049	0.267409
C110	C	0.390565	0.051003	0.210903
H111	H	0.343542	0.092200	0.293205
H112	H	0.263838	0.051083	0.257698
H113	H	0.343434	0.009867	0.293175
H114	H	0.378707	0.092178	0.185108
H115	H	0.458208	0.050938	0.220654
H116	H	1.072390	-0.159005	0.140451
O117	O	1.080320	-0.723847	0.145954
C118	C	1.111953	-0.704859	0.241816
C119	C	1.056808	-0.738900	0.203776
H120	H	1.092952	-0.717007	0.288574
H121	H	1.180333	-0.717038	0.229180
H122	H	1.103363	-0.655291	0.235853
H123	H	1.065326	-0.788476	0.209719
H124	H	0.988449	-0.726672	0.216421
H125	H	0.890572	-0.841040	0.015069
O126	O	1.125140	-0.000112	-0.767423
C127	C	1.254395	-0.051052	-0.797216
C128	C	1.171586	-0.051018	-0.757062
H129	H	1.291978	-0.092199	-0.788845
H130	H	1.240582	-0.051086	-0.843617
H131	H	1.291955	-0.009867	-0.788887
H132	H	1.133985	-0.092197	-0.765340
H133	H	1.185458	-0.050954	-0.710675
H134	H	1.115179	-0.000017	-0.653941
H135	H	0.890485	-0.271402	0.015069
H136	H	0.541371	-0.000012	0.172834
O137	O	0.416271	-0.000012	-0.025508
C138	C	0.291860	-0.000049	-0.073107
C139	C	0.328217	-0.000060	-0.015471
H140	H	0.220663	-0.000100	-0.065012
H141	H	0.313964	0.041126	-0.098494
H142	H	0.314046	-0.041209	-0.098488
H143	H	0.306047	0.041072	0.009956
H144	H	0.306117	-0.041262	0.009872
H145	H	1.072426	-0.271325	0.140444
H146	H	0.847797	-0.000041	-0.190549
O147	O	0.832462	-0.439127	-0.024949
C148	C	0.733051	-0.445705	-0.093522
C149	C	0.788244	-0.479708	-0.055508
H150	H	0.697300	-0.478500	-0.118248
H151	H	0.686839	-0.416740	-0.065549
H152	H	0.774208	-0.416695	-0.124943
H153	H	0.747154	-0.508750	-0.024082
H154	H	0.834462	-0.508636	-0.083516
H155	H	0.890477	-0.159062	0.015070
H156	H	1.122604	-0.556130	0.174992
O157	O	1.205768	-0.000053	-0.500896
C158	C	1.356238	-0.000035	-0.508084
C159	C	1.273389	-0.000007	-0.467973
H160	H	1.410931	0.000015	-0.481482
H161	H	1.359587	-0.041213	-0.536227
H162	H	1.359526	0.041121	-0.536244
H163	H	1.270046	-0.041135	-0.439778
H164	H	1.270074	0.041199	-0.439869
O165	O	0.828227	-0.000028	-0.623630
C166	C	0.677756	0.000010	-0.616435
C167	C	0.760602	0.000026	-0.656549
H168	H	0.623060	0.000066	-0.643034
H169	H	0.674376	-0.041168	-0.588301
H170	H	0.674506	0.041166	-0.588266
H171	H	0.763908	-0.041103	-0.684754
H172	H	0.763948	0.041231	-0.684644
H173	H	0.838249	-0.000008	-0.737043
H174	H	1.124722	-0.000054	-0.107437
H175	H	0.890567	-0.728721	0.015060
O176	O	1.134750	-0.000065	-0.220851
C177	C	1.285221	-0.000043	-0.228043
C178	C	1.202374	-0.000022	-0.187930
H179	H	1.339916	0.000004	-0.201443
H180	H	1.288571	-0.041219	-0.256191
H181	H	1.288505	0.041116	-0.256198
H182	H	1.199034	-0.041153	-0.159739
H183	H	1.199059	0.041181	-0.159822
H184	H	1.195748	-0.000032	-0.387488
O185	O	0.755162	0.000043	-0.460491
C186	C	0.604911	0.000028	-0.440718
C187	C	0.688902	-0.000002	-0.415565
H188	H	0.551318	-0.000022	-0.404408
H189	H	0.600592	0.041208	-0.468160
H190	H	0.600649	-0.041127	-0.468215
H191	H	0.693221	0.041125	-0.388043
H192	H	0.693185	-0.041209	-0.388156
O193	O	0.837879	0.000072	-0.077018
C194	C	0.751140	0.051027	-0.002024
C195	C	0.833942	0.050978	-0.042185
H196	H	0.747938	0.092174	0.026158
H197	H	0.696376	0.051072	-0.028564
H198	H	0.747832	0.009841	0.026096
H199	H	0.837332	0.092157	-0.070312
H200	H	0.888667	0.050902	-0.015610
