data_functionalizedCrystal
_audit_creation_method	'MofGen! by Chris Wilmer'
_symmetry_space_group_name_H-M	'P1'
_symmetry_Int_Tables_number	1
_symmetry_cell_setting	triclinic
loop_
_symmetry_equiv_pos_as_xyz
  x,y,z
_cell_length_a	11.792241
_cell_length_b	10.268362
_cell_length_c	14.971486
_cell_angle_alpha	90.001555
_cell_angle_beta	83.903772
_cell_angle_gamma	90.000426
loop_
_atom_site_label
_atom_site_type_symbol
_atom_site_fract_x
_atom_site_fract_y
_atom_site_fract_z
O1	O	1.506119	0.108175	0.122593
O2	O	1.175696	0.108205	0.135228
O3	O	1.349764	0.108180	-0.001255
O4	O	1.332051	0.108200	0.259075
O5	O	1.349747	-0.108421	-0.001250
O6	O	1.175679	-0.108396	0.135232
O7	O	1.506102	-0.108426	0.122597
Cu8	Cu	1.340889	-0.128188	0.128915
Cu9	Cu	1.340909	0.127967	0.128910
O10	O	1.332034	-0.108401	0.259079
C11	C	1.133402	-0.000092	0.134436
C12	C	1.007404	-0.000080	0.132061
N13	N	1.340884	-0.308354	0.128918
C14	C	1.340892	-0.426196	0.128919
C15	C	1.340906	-0.574034	0.128911
C16	C	0.776720	-0.000118	0.127692
C17	C	0.905089	-0.000097	0.130120
C18	C	1.548396	-0.000127	0.123389
C19	C	1.674395	-0.000130	0.125764
C20	C	1.348963	-0.000120	-0.034580
C21	C	1.346589	-0.000119	-0.133887
N22	N	1.340923	0.308133	0.128899
C23	C	1.448849	-0.000129	-0.190702
C24	C	1.446612	-0.000116	-0.284011
C25	C	1.342114	-0.000102	-0.320502
C26	C	1.239846	-0.000087	-0.263679
C27	C	1.242084	-0.000091	-0.170372
C28	C	1.235188	-0.000082	-0.458160
C29	C	1.232949	-0.000081	-0.551473
C30	C	1.439715	-0.000107	-0.571798
C31	C	1.441954	-0.000111	-0.478492
C32	C	1.339685	-0.000099	-0.421675
C33	C	1.332835	-0.000098	0.292405
C34	C	1.335209	-0.000091	0.391711
H35	H	1.533944	-0.000149	-0.160999
Br36	Br	1.091128	-0.000067	-0.600997
H37	H	1.154761	-0.000067	-0.293397
Br38	Br	1.096394	-0.000061	-0.381052
H39	H	1.158814	-0.000083	-0.124113
H40	H	1.529883	-0.000127	-0.330267
Br41	Br	1.583774	-0.000127	-0.428968
Br42	Br	1.578509	-0.000120	-0.648905
