data_functionalizedCrystal
_audit_creation_method	'MofGen! by Chris Wilmer'
_symmetry_space_group_name_H-M	'P1'
_symmetry_Int_Tables_number	1
_symmetry_cell_setting	triclinic
loop_
_symmetry_equiv_pos_as_xyz
  x,y,z
_cell_length_a	6.817900
_cell_length_b	19.551823
_cell_length_c	10.992410
_cell_angle_alpha	94.485119
_cell_angle_beta	108.764651
_cell_angle_gamma	101.663376
loop_
_atom_site_label
_atom_site_type_symbol
_atom_site_fract_x
_atom_site_fract_y
_atom_site_fract_z
V1	V	-4.078420	-0.096675	-0.401194
O2	O	-4.074098	0.004646	-0.392939
O3	O	-4.020787	-0.191690	-0.399044
O4	O	-4.056564	-0.095188	-0.575897
O5	O	-4.038073	-0.092525	-0.214862
V6	V	-4.559806	-0.084556	-0.378835
O7	O	-4.344369	-0.123259	-0.450240
O8	O	-4.744055	-0.057972	-0.329788
O9	O	-4.394233	0.010459	-0.380984
O10	O	-4.681525	-0.185876	-0.387090
O11	O	-4.717550	-0.088706	-0.565167
O12	O	-4.358456	-0.086043	-0.204132
C13	C	-3.862682	-0.214853	-0.392869
C14	C	-3.897024	-0.292529	-0.392276
C15	C	-4.095899	-0.332575	-0.398422
C16	C	-4.128173	-0.405561	-0.397879
C17	C	-3.961548	-0.438496	-0.391162
C18	C	-3.762648	-0.398442	-0.385022
C19	C	-3.730386	-0.325458	-0.385579
C20	C	-3.835941	-0.544984	-0.309690
C21	C	-3.868206	-0.617965	-0.309125
C22	C	-4.061050	-0.663602	-0.389449
C23	C	-4.221650	-0.636247	-0.470323
C24	C	-4.189388	-0.563263	-0.470880
C25	C	-3.996510	-0.517634	-0.390558
C26	C	-4.294934	-0.782788	-0.395008
C27	C	-4.327205	-0.855776	-0.394472
C28	C	-3.961667	-0.848654	-0.381602
C29	C	-3.929408	-0.775669	-0.382152
C30	C	-4.096046	-0.742740	-0.388849
C31	C	-3.908318	-0.091754	-0.618460
C32	C	-3.971670	-0.091166	-0.761285
C33	C	-3.840776	-0.085817	-0.956375
C34	C	-3.774892	-0.086717	-0.807897
C35	C	-4.144154	-0.160061	-0.838817
C36	C	-4.208693	-0.159452	-0.987380
C37	C	-4.135899	-0.026047	-0.948519
C38	C	-4.065311	-0.025720	-0.799504
C39	C	-4.215678	0.033618	-0.387156
C40	C	-4.160576	0.111294	-0.387757
C41	C	-4.170042	-0.089479	-0.161562
C42	C	-4.085929	-0.090063	-0.018736
H43	H	-4.378528	-0.673414	-0.535907
H44	H	-4.430619	-0.755975	-0.400459
H45	H	-4.320154	-0.540994	-0.536731
H46	H	-4.175167	-0.207924	-1.033951
H47	H	-3.742058	-0.035938	-0.974894
C48	C	-3.599335	-0.019734	-0.735498
C49	C	-3.386055	-0.005109	-0.760400
C50	C	-3.210589	0.061906	-0.688049
C51	C	-3.248404	0.114296	-0.590796
C52	C	-3.461694	0.099672	-0.565889
C53	C	-3.637160	0.032657	-0.638240
H54	H	-3.358053	-0.043892	-0.832397
H55	H	-3.052698	0.072731	-0.706487
H56	H	-3.118514	0.163904	-0.537237
H57	H	-3.489695	0.138455	-0.493892
H58	H	-3.795051	0.021832	-0.619802
H59	H	-4.313955	-0.028551	-0.989375
C60	C	-3.691550	-0.648053	-0.220171
C61	C	-3.479407	-0.597860	-0.131838
C62	C	-3.302743	-0.627945	-0.042884
C63	C	-3.338222	-0.708224	-0.042263
C64	C	-3.550374	-0.758421	-0.130599
C65	C	-3.727037	-0.728336	-0.219553
H66	H	-3.453136	-0.538429	-0.132295
H67	H	-3.145695	-0.590785	0.022508
H68	H	-3.207445	-0.730495	0.023586
H69	H	-3.576645	-0.817853	-0.130142
H70	H	-3.884086	-0.765496	-0.284945
H71	H	-3.798792	-0.131813	-1.004653
H72	H	-4.489161	-0.888381	-0.399486
H73	H	-3.678891	-0.507832	-0.244285
H74	H	-3.626984	-0.425262	-0.379556
C75	C	-4.344429	-0.167829	-0.799955
C76	C	-4.562297	-0.170478	-0.903141
C77	C	-4.762569	-0.178244	-0.864276
C78	C	-4.744973	-0.183360	-0.722225
C79	C	-4.527096	-0.180711	-0.619030
C80	C	-4.326824	-0.172946	-0.657895
H81	H	-4.575330	-0.166691	-1.008304
H82	H	-4.923855	-0.180205	-0.940669
H83	H	-4.893226	-0.189109	-0.693455
H84	H	-4.514062	-0.184499	-0.513867
H85	H	-4.165538	-0.170984	-0.581503
C86	C	-4.451564	-0.167551	-1.045045
C87	C	-4.540455	-0.109439	-1.115453
C88	C	-4.783321	-0.117548	-1.173118
C89	C	-4.937296	-0.183768	-1.160376
C90	C	-4.848407	-0.241884	-1.089965
C91	C	-4.605541	-0.233775	-1.032300
H92	H	-4.426472	-0.060415	-1.124888
H93	H	-4.849122	-0.074526	-1.225241
H94	H	-5.117080	-0.189770	-1.203064
H95	H	-4.962390	-0.290908	-1.080530
H96	H	-4.539740	-0.276797	-0.980177
H97	H	-3.826001	-0.875470	-0.376141
H98	H	-3.700429	-0.133352	-0.783372
H99	H	-3.767460	-0.743062	-0.377138
C100	C	-4.058018	-0.225708	-0.804647
C101	C	-3.990627	-0.240211	-0.663190
C102	C	-3.904478	-0.305855	-0.629022
C103	C	-3.885720	-0.356997	-0.736311
C104	C	-3.953113	-0.342495	-0.877778
C105	C	-4.039262	-0.276851	-0.911946
H106	H	-4.004512	-0.202352	-0.583760
H107	H	-3.854590	-0.316590	-0.524298
H108	H	-3.821947	-0.405590	-0.711018
H109	H	-3.939228	-0.380354	-0.957208
H110	H	-4.089150	-0.266116	-1.016669
C111	C	-4.023018	0.044634	-0.975547
C112	C	-3.884019	0.045123	-1.061743
C113	C	-3.771096	0.115800	-1.088759
C114	C	-3.797172	0.185987	-1.029581
C115	C	-3.936177	0.185500	-0.943379
C116	C	-4.049100	0.114824	-0.916363
H117	H	-3.864710	-0.006836	-1.105555
H118	H	-3.668195	0.116160	-1.152571
H119	H	-3.713580	0.238306	-1.049580
H120	H	-3.955486	0.237459	-0.899567
H121	H	-4.152001	0.114464	-0.852551
H122	H	-3.568436	-0.292853	-0.380575
H123	H	-3.940945	0.025245	-0.746830
C124	C	-4.346951	-0.449620	-0.404632
C125	C	-4.364958	-0.491266	-0.293867
C126	C	-4.583733	-0.535321	-0.300618
C127	C	-4.784501	-0.537730	-0.418134
C128	C	-4.766501	-0.496083	-0.528907
C129	C	-4.547725	-0.452027	-0.522156
H130	H	-4.216332	-0.489484	-0.206867
H131	H	-4.597057	-0.566151	-0.218615
H132	H	-4.946452	-0.570343	-0.423131
H133	H	-4.915127	-0.497865	-0.615907
H134	H	-4.534401	-0.421197	-0.604159
H135	H	-4.231596	-0.305769	-0.403884
H136	H	-4.207724	-0.024911	-0.766987
