data_functionalizedCrystal
_audit_creation_method	'MofGen! by Chris Wilmer'
_symmetry_space_group_name_H-M	'P1'
_symmetry_Int_Tables_number	1
_symmetry_cell_setting	triclinic
loop_
_symmetry_equiv_pos_as_xyz
  x,y,z
_cell_length_a	25.639242
_cell_length_b	15.297327
_cell_length_c	25.639214
_cell_angle_alpha	99.568089
_cell_angle_beta	89.916953
_cell_angle_gamma	99.704018
loop_
_atom_site_label
_atom_site_type_symbol
_atom_site_fract_x
_atom_site_fract_y
_atom_site_fract_z
Zn1	Zn	0.763675	-0.358371	-0.331670
Zn2	Zn	1.263675	0.141629	0.168330
Zn3	Zn	0.748387	-0.509439	-0.259379
Zn4	Zn	1.248387	-0.009439	0.240621
Zn5	Zn	0.676133	-0.358627	-0.244260
Zn6	Zn	1.176133	0.141373	0.255740
Zn7	Zn	0.661108	-0.509137	-0.346739
Zn8	Zn	1.161108	-0.009137	0.153261
O9	O	0.712326	-0.433893	-0.295512
O10	O	1.212326	0.066107	0.204488
O11	O	0.834810	-0.378430	-0.322102
O12	O	1.334810	0.121570	0.177898
O13	O	0.738692	-0.489667	-0.184231
O14	O	1.238692	0.010333	0.315769
O15	O	0.700431	-0.232382	-0.243221
O16	O	1.200431	0.267618	0.256779
O17	O	0.823578	-0.489419	-0.268990
O18	O	1.323578	0.010581	0.231010
O19	O	0.764748	-0.232194	-0.307441
O20	O	1.264748	0.267806	0.192559
O21	O	0.685607	-0.378866	-0.173123
O22	O	1.185607	0.121134	0.326877
O23	O	0.600976	-0.378573	-0.257833
O24	O	1.100976	0.121427	0.242167
O25	O	0.674824	-0.488904	-0.417882
O26	O	1.174824	0.011096	0.082118
O27	O	0.589938	-0.489152	-0.333124
O28	O	1.089938	0.010848	0.166876
O29	O	0.750180	-0.378137	-0.406811
O30	O	1.250180	0.121863	0.093189
O31	O	0.724123	-0.635610	-0.283601
O32	O	1.224123	-0.135610	0.216399
O33	O	0.660000	-0.635388	-0.347784
O34	O	1.160000	-0.135388	0.152216
C35	C	0.688787	-0.668224	-0.318980
C36	C	1.188787	-0.168224	0.181020
C37	C	0.678764	-0.768472	-0.329037
C38	C	1.178764	-0.268472	0.170963
C39	C	0.576487	-0.433858	-0.295473
C40	C	1.076487	0.066142	0.204527
C41	C	0.518372	-0.433865	-0.295471
C42	C	1.018372	0.066135	0.204529
C43	C	0.784172	-1.051390	-0.223810
C44	C	1.284172	-0.551390	0.276190
C45	C	0.793588	-0.957203	-0.214358
C46	C	1.293588	-0.457203	0.285642
C47	C	0.764883	-0.910015	-0.243027
C48	C	1.264883	-0.410015	0.256973
C49	C	0.726760	-0.957025	-0.281150
C50	C	1.226760	-0.457025	0.218850
C51	C	0.717340	-1.051222	-0.290600
C52	C	1.217340	-0.551222	0.209400
C53	C	0.698051	-0.909847	-0.309817
C54	C	1.198051	-0.409847	0.190183
C55	C	0.659928	-0.956856	-0.347939
C56	C	1.159928	-0.456856	0.152061
C57	C	0.650510	-1.051044	-0.357387
C58	C	1.150510	-0.551044	0.142613
C59	C	0.679215	-1.098231	-0.328718
C60	C	1.179215	-0.598231	0.171282
C61	C	0.707471	-0.815650	-0.300367
C62	C	1.207471	-0.315650	0.199633
C63	C	0.640640	-0.815482	-0.367156
C64	C	1.140640	-0.315482	0.132844
C65	C	0.631223	-0.909669	-0.376608
C66	C	1.131223	-0.409669	0.123392
C67	C	0.152258	-0.491568	-0.334694
C68	C	0.652258	0.008432	0.165306
C69	C	0.097653	-0.491574	-0.334703
C70	C	0.597653	0.008426	0.165297
O71	O	0.064530	-0.540592	-0.368017
O72	O	0.564530	-0.040592	0.131983
N73	N	0.076084	-0.433918	-0.295549
N74	N	0.576084	0.066082	0.204451
C75	C	0.109124	-0.376247	-0.256386
C76	C	0.609124	0.123753	0.243614
O77	O	0.085765	-0.327206	-0.223084
O78	O	0.585765	0.172794	0.276916
C79	C	0.163729	-0.376237	-0.256380
C80	C	0.663729	0.123763	0.243620
C81	C	0.185293	-0.433903	-0.295534
C82	C	0.685293	0.066097	0.204466
C83	C	0.173823	-0.549229	-0.373845
C84	C	0.673823	-0.049229	0.126155
C85	C	0.228424	-0.549224	-0.373835
C86	C	0.728424	-0.049224	0.126165
C87	C	0.261460	-0.491559	-0.334675
C88	C	0.761460	0.008441	0.165325
C89	C	0.239894	-0.433899	-0.295524
C90	C	0.739894	0.066101	0.204476
C91	C	0.196768	-0.318562	-0.217220
C92	C	0.696768	0.181438	0.282780
C93	C	0.251376	-0.318557	-0.217218
C94	C	0.751376	0.181443	0.282782
C95	C	0.272940	-0.376223	-0.256371
C96	C	0.772940	0.123777	0.243629
C97	C	0.327531	-0.376229	-0.256354
C98	C	0.827531	0.123771	0.243646
N99	N	0.349100	-0.433885	-0.295509
N100	N	0.849100	0.066115	0.204491
C101	C	0.316064	-0.491550	-0.334669
C102	C	0.816064	0.008450	0.165331
C103	C	-0.005548	-0.376270	-0.256403
C104	C	0.494452	0.123730	0.243597
C105	C	-0.060152	-0.376283	-0.256406
C106	C	0.439848	0.123717	0.243594
C107	C	-0.071620	-0.491609	-0.334724
C108	C	0.428380	0.008391	0.165276
C109	C	-0.017016	-0.491600	-0.334717
C110	C	0.482984	0.008400	0.165283
C111	C	0.016020	-0.433925	-0.295557
C112	C	0.516020	0.066075	0.204443
C113	C	0.430730	-0.491537	-0.334646
C114	C	0.930730	0.008463	0.165354
C115	C	0.485336	-0.491530	-0.334631
C116	C	0.985336	0.008470	0.165369
C117	C	0.496800	-0.376201	-0.256316
C118	C	0.996800	0.123799	0.243684
C119	C	0.442198	-0.376211	-0.256328
C120	C	0.942198	0.123789	0.243672
C121	C	0.409164	-0.433882	-0.295498
C122	C	0.909164	0.066118	0.204502
O123	O	0.360686	-0.327234	-0.223058
O124	O	0.860686	0.172766	0.276942
O125	O	0.339432	-0.540574	-0.367970
O126	O	0.839432	-0.040574	0.132030
C127	C	0.848695	-0.433930	-0.295552
C128	C	1.348695	0.066070	0.204448
C129	C	0.906808	-0.433945	-0.295568
C130	C	1.406808	0.066055	0.204432
C131	C	0.712531	-0.433458	-0.431842
C132	C	1.212531	0.066542	0.068158
C133	C	0.712619	-0.433273	-0.489938
C134	C	1.212619	0.066727	0.010062
C135	C	0.735971	-0.198648	-0.271964
C136	C	1.235971	0.301352	0.228036
C137	C	0.746047	-0.098400	-0.261929
C138	C	1.246047	0.401600	0.238071
C139	C	0.712158	-0.434262	-0.159706
C140	C	1.212158	0.065738	0.340294
C141	C	0.712197	-0.434193	-0.101585
C142	C	1.212197	0.065807	0.398415
C143	C	0.684528	-0.376367	0.264555
C144	C	1.184528	0.123633	0.764555
C145	C	0.684566	-0.376284	0.319167
C146	C	1.184566	0.123716	0.819167
O147	O	0.660855	-0.327519	0.352276
O148	O	1.160855	0.172481	0.852276
N149	N	0.712506	-0.433514	0.340764
N150	N	1.212506	0.066486	0.840764
C151	C	0.740413	-0.490824	0.307747
C152	C	1.240413	0.009176	0.807747
O153	O	0.764182	-0.539494	0.331132
O154	O	1.264182	-0.039494	0.831132
C155	C	0.740377	-0.490901	0.253136
C156	C	1.240377	0.009099	0.753136
C157	C	0.712431	-0.433674	0.231541
C158	C	1.212431	0.066326	0.731541
C159	C	0.656585	-0.319144	0.242959
C160	C	1.156585	0.180856	0.742959
C161	C	0.656545	-0.319228	0.188351
C162	C	1.156545	0.180772	0.688351
C163	C	0.684449	-0.376535	0.155337
C164	C	1.184449	0.123465	0.655337
C165	C	0.712392	-0.433759	0.176932
C166	C	1.212392	0.066241	0.676932
C167	C	0.768287	-0.548206	0.220120
C168	C	1.268287	-0.048206	0.720120
C169	C	0.768249	-0.548278	0.165505
C170	C	1.268249	-0.048278	0.665505
C171	C	0.740303	-0.491051	0.143911
C172	C	1.240303	0.008949	0.643911
C173	C	0.740256	-0.491150	0.089310
C174	C	1.240256	0.008850	0.589310
N175	N	0.712317	-0.433920	0.067712
N176	N	1.212317	0.066080	0.567712
C177	C	0.684413	-0.376613	0.100726
C178	C	1.184413	0.123387	0.600726
C179	C	0.740487	-0.490656	0.422434
C180	C	1.240487	0.009344	0.922434
C181	C	0.740520	-0.490584	0.477043
C182	C	1.240520	0.009416	0.977043
C183	C	0.684674	-0.376043	0.488460
C184	C	1.184674	0.123957	0.988460
C185	C	0.684638	-0.376120	0.433849
C186	C	1.184638	0.123880	0.933849
C187	C	0.712548	-0.433426	0.400837
C188	C	1.212548	0.066574	0.900837
C189	C	0.684332	-0.376794	-0.013957
C190	C	1.184332	0.123206	0.486043
C191	C	0.684293	-0.376886	-0.068572
C192	C	1.184293	0.123114	0.431428
C193	C	0.740141	-0.491423	-0.079983
C194	C	1.240141	0.008577	0.420017
C195	C	0.740178	-0.491335	-0.025374
C196	C	1.240178	0.008665	0.474626
C197	C	0.712272	-0.434014	0.007639
C198	C	1.212272	0.065986	0.507639
O199	O	0.763957	-0.539888	0.056169
O200	O	1.263957	-0.039888	0.556169
O201	O	0.660654	-0.327942	0.077334
O202	O	1.160654	0.172058	0.577334
H203	H	0.772552	-0.833323	-0.235329
H204	H	1.272552	-0.333323	0.264671
H205	H	0.824627	-0.918931	-0.183319
H206	H	1.324627	-0.418931	0.316681
N207	N	0.005011	-0.550486	-0.374720
N208	N	0.505011	-0.050486	0.125280
N209	N	0.038715	-0.518732	-0.404889
N210	N	0.538715	-0.018732	0.095111
H211	H	0.054269	-0.560321	-0.433143
H212	H	0.554269	-0.060321	0.066857
H213	H	0.661535	-0.330284	-0.086151
H214	H	1.161535	0.169716	0.413849
N215	N	0.420158	-0.317325	-0.216332
N216	N	0.920158	0.182675	0.283668
N217	N	0.386445	-0.349072	-0.186171
N218	N	0.886445	0.150928	0.313829
H219	H	0.370883	-0.307479	-0.157925
H220	H	0.870883	0.192521	0.342075
N221	N	0.174739	-0.259662	-0.177230
N222	N	0.674739	0.240338	0.322770
N223	N	0.141030	-0.291398	-0.147061
N224	N	0.641030	0.208602	0.352939
H225	H	0.125471	-0.249796	-0.118817
H226	H	0.625471	0.250204	0.381183
H227	H	0.762938	-0.537927	-0.007790
H228	H	1.262938	-0.037927	0.492210
N229	N	0.746412	-0.767624	-0.261434
N230	N	1.246412	-0.267624	0.238566
N231	N	0.754820	-0.683525	-0.252999
N232	N	1.254820	-0.183525	0.247001
H233	H	0.782324	-0.649605	-0.225501
H234	H	1.282324	-0.149605	0.274499
N235	N	0.796769	-0.606798	0.131784
N236	N	1.296769	-0.106798	0.631784
N237	N	0.845653	-0.600200	0.138437
N238	N	1.345653	-0.100200	0.638437
H239	H	0.865796	-0.641527	0.114621
H240	H	1.365796	-0.141527	0.614621
H241	H	0.791039	-0.594812	0.237691
H242	H	1.291039	-0.094812	0.737691
H243	H	0.807536	-1.089819	-0.200469
H244	H	1.307536	-0.589819	0.299531
N245	N	0.611324	-0.767293	-0.396454
N246	N	1.111324	-0.267293	0.103546
N247	N	0.613781	-0.777625	-0.445739
N248	N	1.113781	-0.277625	0.054261
H249	H	0.593078	-0.743588	-0.466429
H250	H	1.093078	-0.243588	0.033571
H251	H	0.763212	-0.537329	0.395557
H252	H	1.263212	-0.037329	0.895557
N253	N	0.768637	-0.549958	-0.113719
N254	N	1.268637	-0.049958	0.386281
N255	N	0.768595	-0.550015	-0.162477
N256	N	1.268595	-0.050015	0.337523
H257	H	0.788723	-0.591353	-0.186305
H258	H	1.288723	-0.091353	0.313695
N259	N	0.592286	-0.957707	-0.415547
N260	N	1.092286	-0.457707	0.084453
N261	N	0.583885	-1.041806	-0.423979
N262	N	1.083885	-0.541806	0.076021
H263	H	0.556386	-1.075735	-0.451480
H264	H	1.056386	-0.575735	0.048520
N265	N	0.507361	-0.550449	-0.374622
N266	N	1.007361	-0.050449	0.125378
N267	N	0.492899	-0.633674	-0.379409
N268	N	0.992899	-0.133674	0.120591
H269	H	0.508452	-0.675286	-0.407652
H270	H	1.008452	-0.175286	0.092348
H271	H	0.619462	-1.089317	-0.388423
H272	H	1.119462	-0.589317	0.111577
N273	N	0.669610	-1.194445	-0.338373
N274	N	1.169610	-0.694445	0.161627
N275	N	0.695249	-1.236559	-0.312778
N276	N	1.195249	-0.736559	0.187222
H277	H	0.688468	-1.304511	-0.319597
H278	H	1.188468	-0.804511	0.180403
H279	H	0.278272	-0.271585	-0.185330
H280	H	0.778272	0.228415	0.314670
N281	N	-0.105371	-0.550526	-0.374722
N282	N	0.394629	-0.050526	0.125278
N283	N	-0.141639	-0.608010	-0.362030
N284	N	0.358361	-0.108010	0.137970
H285	H	-0.165476	-0.649621	-0.390276
H286	H	0.334524	-0.149621	0.109724
N287	N	0.397000	-0.550448	-0.374661
N288	N	0.897000	-0.050448	0.125339
N289	N	0.416271	-0.601922	-0.409611
N290	N	0.916271	-0.101922	0.090389
H291	H	0.392450	-0.643533	-0.437870
H292	H	0.892450	-0.143533	0.062130
H293	H	0.245976	-0.596180	-0.405719
H294	H	0.745976	-0.096180	0.094281
H295	H	0.021346	-0.329305	-0.224510
H296	H	0.521346	0.170695	0.275490
H297	H	0.661610	-0.330115	0.012916
H298	H	1.161610	0.169885	0.512916
N299	N	-0.082169	-0.317387	-0.216401
N300	N	0.417831	0.182613	0.283599
N301	N	-0.052661	-0.265911	-0.181440
N302	N	0.447339	0.234089	0.318560
H303	H	-0.068208	-0.224311	-0.153185
H304	H	0.431792	0.275689	0.346815
N305	N	0.530561	-0.317297	-0.216326
N306	N	1.030561	0.182703	0.283674
N307	N	0.566830	-0.259824	-0.229027
N308	N	1.066830	0.240176	0.270973
H309	H	0.590677	-0.218219	-0.200787
H310	H	1.090677	0.281781	0.299213
N311	N	0.140091	-0.608139	-0.413856
N312	N	0.640091	-0.108139	0.086144
N313	N	0.159363	-0.659610	-0.448806
N314	N	0.659363	-0.159610	0.051194
H315	H	0.135543	-0.701223	-0.477066
H316	H	0.635543	-0.201223	0.022934
N317	N	0.627996	-0.260765	0.166305
N318	N	1.127996	0.239235	0.666305
N319	N	0.603088	-0.209606	0.195796
N320	N	1.103088	0.290394	0.695796
H321	H	0.582924	-0.168312	0.180231
H322	H	1.082924	0.331688	0.680231
N323	N	0.656089	-0.317660	0.411802
N324	N	1.156089	0.182340	0.911802
N325	N	0.631176	-0.266504	0.441290
N326	N	1.131176	0.233496	0.941290
H327	H	0.611012	-0.225213	0.425722
H328	H	1.111012	0.274787	0.925722
N329	N	0.628079	-0.260591	0.276670
N330	N	1.128079	0.239409	0.776670
N331	N	0.603136	-0.209507	0.257371
N332	N	1.103136	0.290493	0.757371
H333	H	0.582999	-0.168153	0.281175
H334	H	1.082999	0.331847	0.781175
N335	N	0.656173	-0.317509	0.522196
N336	N	1.156173	0.182491	1.022196
N337	N	0.656214	-0.317452	0.570954
N338	N	1.156214	0.182548	1.070954
H339	H	0.636086	-0.276117	0.594782
H340	H	1.136086	0.223883	1.094782
H341	H	0.763271	-0.537192	0.494620
H342	H	1.263271	-0.037192	0.994620
