data_functionalizedCrystal
_audit_creation_method	'MofGen! by Chris Wilmer'
_symmetry_space_group_name_H-M	'P1'
_symmetry_Int_Tables_number	1
_symmetry_cell_setting	triclinic
loop_
_symmetry_equiv_pos_as_xyz
  x,y,z
_cell_length_a	19.805407
_cell_length_b	19.805404
_cell_length_c	12.759393
_cell_angle_alpha	89.964359
_cell_angle_beta	89.977649
_cell_angle_gamma	90.031534
loop_
_atom_site_label
_atom_site_type_symbol
_atom_site_fract_x
_atom_site_fract_y
_atom_site_fract_z
Zn1	Zn	1.034734	-0.269387	-0.594092
Zn2	Zn	1.034638	-0.382592	-0.418401
Zn3	Zn	0.921545	-0.269426	-0.418417
Zn4	Zn	0.921506	-0.382543	-0.594027
O5	O	0.978106	-0.325987	-0.506234
O6	O	1.129438	-0.284408	-0.570807
O7	O	1.019613	-0.367617	-0.271382
O8	O	0.936615	-0.174704	-0.441754
O9	O	1.129368	-0.367579	-0.441727
O10	O	1.019775	-0.174675	-0.570823
O11	O	0.936523	-0.284475	-0.271393
O12	O	0.826823	-0.284427	-0.441691
O13	O	0.936549	-0.367496	-0.741057
O14	O	0.826794	-0.367534	-0.570711
O15	O	1.019737	-0.284360	-0.741105
O16	O	1.019575	-0.477302	-0.441664
O17	O	0.936457	-0.477266	-0.570696
C18	C	0.802250	-0.325980	-0.506196
C19	C	0.727018	-0.325993	-0.506205
C20	C	0.265266	-0.282761	-0.573590
C21	C	0.335955	-0.282762	-0.573582
C22	C	0.371256	-0.325997	-0.506268
C23	C	0.335865	-0.369239	-0.438965
C24	C	0.265178	-0.369241	-0.438978
C25	C	0.620938	-0.369234	-0.438909
C26	C	0.691630	-0.369228	-0.438899
C27	C	0.691715	-0.282755	-0.573513
C28	C	0.621028	-0.282757	-0.573526
C29	C	0.585643	-0.326001	-0.506228
C30	C	0.508995	-0.326000	-0.506238
C31	C	0.447903	-0.325995	-0.506252
C32	C	0.978020	-0.501843	-0.506194
C33	C	0.978045	-0.577075	-0.506212
C34	C	1.021551	-1.038862	-0.439194
C35	C	1.021520	-0.968174	-0.439174
C36	C	0.978194	-0.932837	-0.506290
C37	C	0.934893	-0.968192	-0.573423
C38	C	0.934922	-1.038879	-0.573438
C39	C	0.934775	-0.683118	-0.573365
C40	C	0.934751	-0.612426	-0.573348
C41	C	1.021373	-0.612413	-0.439102
C42	C	1.021402	-0.683101	-0.439116
C43	C	0.978098	-0.718449	-0.506245
C44	C	0.978132	-0.795098	-0.506265
C45	C	0.978163	-0.856190	-0.506276
C46	C	1.154648	-0.325995	-0.506273
C47	C	1.229880	-0.325998	-0.506289
C48	C	0.978150	-0.325918	-0.780268
C49	C	0.978168	-0.325889	-0.897044
C50	C	0.978210	-0.149444	-0.506298
C51	C	0.978255	-0.074212	-0.506325
C52	C	0.934922	-0.282588	-0.951919
C53	C	0.934942	-0.282568	-1.061643
C54	C	1.021461	-0.369151	-1.061609
C55	C	1.021437	-0.369174	-0.951887
C56	C	0.884973	-0.232599	-0.951939
C57	C	0.884993	-0.232579	-1.061663
C58	C	0.978101	-0.326007	-0.233267
C59	C	0.978213	-0.325846	-0.116491
H60	H	0.236530	-0.247549	-0.628398
H61	H	1.056643	-0.404443	-0.907212
C62	C	1.069057	-0.416756	-1.121939
H63	H	1.062882	-0.410539	-1.195145
H64	H	1.059122	-0.462236	-1.103933
H65	H	1.114539	-0.406851	-1.103966
H66	H	0.832535	-0.246638	-0.922153
C67	C	1.069057	-0.721968	-0.365286
H68	H	1.094835	-0.690790	-0.325294
H69	H	1.098545	-0.749497	-0.405520
H70	H	1.043186	-0.749587	-0.319474
C71	C	0.374691	-0.416804	-0.364927
H72	H	0.343490	-0.442560	-0.324856
H73	H	0.402266	-0.390883	-0.319213
H74	H	0.402261	-0.446325	-0.405043
H75	H	1.056631	-0.583625	-0.384438
C76	C	0.910367	-0.165344	-0.905988
H77	H	0.921690	-0.135376	-0.961452
H78	H	0.949172	-0.173399	-0.864082
H79	H	0.875899	-0.145758	-0.864093
C80	C	0.817723	-0.257937	-1.107631
H81	H	0.820036	-0.257067	-1.181992
H82	H	0.782017	-0.229558	-1.084660
H83	H	0.809625	-0.302844	-1.084613
C84	C	0.887090	-0.573553	-0.647173
H85	H	0.893282	-0.526392	-0.637556
H86	H	0.841622	-0.585185	-0.631729
H87	H	0.896974	-0.585094	-0.717786
C88	C	0.582020	-0.416800	-0.364888
H89	H	0.534865	-0.410620	-0.374543
H90	H	0.593584	-0.406847	-0.294320
H91	H	0.593592	-0.462288	-0.380152
H92	H	0.899510	-0.711891	-0.628018
C93	C	0.887237	-0.929323	-0.647251
H94	H	0.893425	-0.882161	-0.637637
H95	H	0.841770	-0.940957	-0.631813
H96	H	0.897127	-0.940866	-0.717861
H97	H	1.056836	-1.067629	-0.384546
C98	C	0.904051	-0.161770	-1.101940
H99	H	0.904067	-0.161761	-1.176398
H100	H	0.947737	-0.150096	-1.077130
H101	H	0.872103	-0.129773	-1.077152
C102	C	0.374877	-0.235196	-0.647604
H103	H	0.343729	-0.209440	-0.687684
H104	H	0.402454	-0.261115	-0.693310
H105	H	0.402453	-0.205674	-0.607477
H106	H	0.899669	-1.067660	-0.628107
H107	H	0.720534	-0.247546	-0.628314
C108	C	0.582201	-0.235200	-0.647575
H109	H	0.613400	-0.209454	-0.687664
H110	H	0.554626	-0.205680	-0.607477
H111	H	0.554630	-0.261135	-0.693287
C112	C	0.730463	-0.416791	-0.364857
H113	H	0.777630	-0.410589	-0.374483
H114	H	0.718864	-0.462280	-0.380114
H115	H	0.718861	-0.406834	-0.294291
C116	C	0.226253	-0.416800	-0.364946
H117	H	0.257399	-0.442545	-0.324847
H118	H	0.198675	-0.446321	-0.405060
H119	H	0.198676	-0.390872	-0.319242
C120	C	1.069150	-0.929292	-0.365337
H121	H	1.094964	-0.960461	-0.325378
H122	H	1.043269	-0.901763	-0.319510
H123	H	1.098615	-0.901670	-0.405576
