data_functionalizedCrystal
_audit_creation_method	'MofGen! by Chris Wilmer'
_symmetry_space_group_name_H-M	'P1'
_symmetry_Int_Tables_number	1
_symmetry_cell_setting	triclinic
loop_
_symmetry_equiv_pos_as_xyz
  x,y,z
_cell_length_a	10.540539
_cell_length_b	14.044190
_cell_length_c	13.101039
_cell_angle_alpha	86.336293
_cell_angle_beta	93.389526
_cell_angle_gamma	88.858634
loop_
_atom_site_label
_atom_site_type_symbol
_atom_site_fract_x
_atom_site_fract_y
_atom_site_fract_z
O1	O	1.705799	0.128498	0.085178
O2	O	2.205799	0.628498	0.585178
O3	O	1.337661	0.141092	0.085192
O4	O	1.837661	0.641092	0.585192
O5	O	1.516198	-0.003226	0.085165
O6	O	2.016198	0.496774	0.585165
O7	O	1.527262	0.272816	0.085205
O8	O	2.027262	0.772816	0.585205
O9	O	1.503391	0.007146	-0.085263
O10	O	2.003391	0.507146	0.414737
O11	O	1.324853	0.151464	-0.085236
O12	O	1.824853	0.651464	0.414764
O13	O	1.692992	0.138870	-0.085250
O14	O	2.192992	0.638870	0.414750
Zn15	Zn	1.506889	0.146814	-0.112302
Zn16	Zn	2.006889	0.646814	0.387698
Zn17	Zn	1.523764	0.133148	0.112244
Zn18	Zn	2.023764	0.633148	0.612244
O19	O	1.514454	0.283188	-0.085223
O20	O	2.014454	0.783188	0.414777
C21	C	1.504955	-0.033387	-0.000052
C22	C	2.004955	0.466613	0.499948
C23	C	1.490521	-0.138710	-0.000060
C24	C	1.990521	0.361290	0.499940
C25	C	1.283859	0.145334	-0.000021
C26	C	1.783859	0.645334	0.499979
C27	C	1.142625	0.142507	-0.000016
C28	C	1.642625	0.642507	0.499984
C29	C	1.566502	-0.388485	-0.000023
C30	C	2.066502	0.111515	0.499977
C31	C	1.464157	-0.331548	-0.000026
C32	C	1.964157	0.168452	0.499974
C33	C	1.478830	-0.224244	-0.000045
C34	C	1.978830	0.275756	0.499955
C35	C	1.551831	-0.495800	-0.000004
C36	C	2.051831	0.004200	0.499996
C37	C	0.948216	0.034243	-0.000430
C38	C	1.448216	0.534243	0.499570
C39	C	1.095154	0.037084	-0.000035
C40	C	1.595154	0.537084	0.499965
C41	C	1.093398	0.187319	0.097310
C42	C	1.593398	0.687319	0.597310
C43	C	0.946495	0.183717	0.097381
C44	C	1.446495	0.683717	0.597381
C45	C	0.931658	0.197656	-0.096428
C46	C	1.431658	0.697656	0.403572
C47	C	1.078643	0.198705	-0.097703
C48	C	1.578643	0.698705	0.402297
C49	C	1.746794	0.134628	-0.000035
C50	C	2.246794	0.634628	0.499965
C51	C	1.888028	0.137454	-0.000033
C52	C	2.388028	0.637454	0.499967
C53	C	1.525698	0.313349	-0.000004
C54	C	2.025698	0.813349	0.499996
C55	C	1.540132	0.418672	0.000011
C56	C	2.040132	0.918672	0.500011
N57	N	1.495381	0.156139	-0.265549
N58	N	1.995381	0.656139	0.234451
C59	C	1.479726	0.168836	-0.474589
C60	C	1.979726	0.668836	0.025411
C61	C	1.550932	0.111121	-0.525475
C62	C	2.050932	0.611121	-0.025475
C63	C	1.542221	0.118186	-0.641793
C64	C	2.042221	0.618186	-0.141793
C65	C	1.488435	0.161773	-0.358261
C66	C	1.988435	0.661773	0.141739
N67	N	1.535281	0.123815	0.265491
N68	N	2.035281	0.623815	0.765491
H69	H	1.128487	0.001409	-0.069803
H70	H	1.628487	0.501409	0.430197
C71	C	1.330902	-0.374559	-0.000020
C72	C	1.830902	0.125441	0.499980
H73	H	1.338389	-0.442084	-0.000019
H74	H	1.838389	0.057916	0.499981
H75	H	1.290515	-0.357673	0.059407
H76	H	1.790515	0.142327	0.559407
H77	H	1.281600	-0.350468	-0.059465
H78	H	1.781600	0.149532	0.440535
C79	C	1.699746	-0.345472	-0.000051
C80	C	2.199746	0.154528	0.499949
H81	H	1.692249	-0.277947	-0.000072
H82	H	2.192249	0.222053	0.499928
H83	H	1.749074	-0.369556	0.059376
H84	H	2.249074	0.130444	0.559376
H85	H	1.740108	-0.362358	-0.059495
H86	H	2.240108	0.137642	0.440505
H87	H	1.412228	0.223551	-0.518376
H88	H	1.912228	0.723551	-0.018376
C89	C	0.896818	-0.016285	-0.094718
C90	C	1.396818	0.483715	0.405282
H91	H	0.838184	0.025105	-0.134686
H92	H	1.338184	0.525105	0.365314
H93	H	0.965355	-0.032419	-0.134790
H94	H	1.465355	0.467581	0.365210
H95	H	0.855174	-0.072712	-0.072845
H96	H	1.355174	0.427288	0.427155
C97	C	0.908786	-0.027495	0.093313
C98	C	1.408786	0.472505	0.593313
H99	H	0.855807	0.009356	0.132694
H100	H	1.355807	0.509356	0.632694
H101	H	0.863683	-0.080988	0.070922
H102	H	1.363683	0.419012	0.570922
H103	H	0.982550	-0.048927	0.134169
H104	H	1.482550	0.451073	0.634169
H105	H	1.138085	-0.007371	0.069843
H106	H	1.638085	0.492629	0.569843
C107	C	0.910640	0.127075	0.195640
C108	C	1.410640	0.627075	0.695640
H109	H	0.985814	0.106474	0.235136
H110	H	1.485814	0.606474	0.735136
H111	H	0.860751	0.166695	0.234555
H112	H	1.360751	0.666695	0.734555
H113	H	0.863253	0.073092	0.177845
H114	H	1.363253	0.573092	0.677845
H115	H	0.906526	0.259267	0.101809
H116	H	1.406526	0.759267	0.601809
H117	H	1.618437	0.056405	-0.481683
H118	H	2.118437	0.556405	0.018317
C119	C	1.134546	0.291605	0.102229
C120	C	1.634546	0.791605	0.602229
H121	H	1.182233	0.308782	0.044836
H122	H	1.682233	0.808782	0.544836
H123	H	1.061326	0.332266	0.101329
H124	H	1.561326	0.832266	0.601329
H125	H	1.185492	0.298100	0.163556
H126	H	1.685492	0.798100	0.663556
H127	H	1.137865	0.147668	0.169732
H128	H	1.637865	0.647668	0.669732
H129	H	0.891118	0.168028	-0.170200
H130	H	1.391118	0.668028	0.329800
H131	H	1.110446	0.166023	-0.169705
H132	H	1.610446	0.666023	0.330295
H133	H	1.110201	0.275923	-0.103568
H134	H	1.610201	0.775923	0.396432
C135	C	0.878205	0.300578	-0.097303
C136	C	1.378205	0.800578	0.402697
H137	H	0.829527	0.306870	-0.039244
H138	H	1.329527	0.806870	0.460756
H139	H	0.946438	0.343722	-0.095154
H140	H	1.446438	0.843722	0.404846
H141	H	0.825646	0.314627	-0.158042
H142	H	1.325646	0.814627	0.341958
