data_functionalizedCrystal
_audit_creation_method	'MofGen! by Chris Wilmer'
_symmetry_space_group_name_H-M	'P1'
_symmetry_Int_Tables_number	1
_symmetry_cell_setting	triclinic
loop_
_symmetry_equiv_pos_as_xyz
  x,y,z
_cell_length_a	8.559649
_cell_length_b	15.072220
_cell_length_c	8.597275
_cell_angle_alpha	82.297251
_cell_angle_beta	77.624622
_cell_angle_gamma	90.011665
loop_
_atom_site_label
_atom_site_type_symbol
_atom_site_fract_x
_atom_site_fract_y
_atom_site_fract_z
O1	O	2.119319	0.077832	-0.053156
O2	O	1.655376	0.071651	0.027745
O3	O	1.896486	0.092289	-0.242275
O4	O	1.878209	0.057194	0.216864
O5	O	1.896426	-0.055278	-0.242254
O6	O	1.655316	-0.075916	0.027766
O7	O	2.119259	-0.069735	-0.053135
Zn8	Zn	1.887278	-0.096255	-0.012681
Zn9	Zn	1.887357	0.098171	-0.012709
O10	O	1.878149	-0.090373	0.216885
C11	C	1.595912	-0.002600	0.033886
C12	C	1.418816	-0.003994	0.052136
N13	N	1.887235	-0.228945	-0.012665
C14	C	1.887354	-0.588142	-0.012714
C15	C	1.757894	-0.561549	0.131389
C16	C	1.758203	-0.458757	0.131821
C17	C	1.887294	-0.409940	-0.012690
C18	C	2.054259	-0.448428	0.002953
C19	C	2.053536	-0.551363	0.003953
C20	C	1.851327	-0.537989	-0.173020
C21	C	1.847526	-0.435245	-0.171463
C22	C	1.887270	-0.309228	-0.012680
C23	C	1.887389	-0.688855	-0.012722
C24	C	2.178723	0.004519	-0.059276
C25	C	2.355819	0.005918	-0.077526
C26	C	1.894497	0.022959	-0.300500
C27	C	1.888640	0.036228	-0.474022
N28	N	1.887412	0.230862	-0.012739
C29	C	1.880138	-0.021041	0.275110
C30	C	1.885995	-0.034304	0.448632
H31	H	1.437368	0.015475	-0.202496
O32	O	2.092293	-0.428283	0.140125
C33	C	1.974820	-0.466121	0.273942
H34	H	1.910988	-0.524827	0.240488
H35	H	2.034174	-0.490773	0.377836
H36	H	1.884308	-0.413360	0.311711
O37	O	1.321369	-0.015264	0.201156
C38	C	1.224183	0.059763	0.219636
H39	H	1.213999	0.094674	0.096261
H40	H	1.100001	0.036976	0.292928
H41	H	1.279958	0.108307	0.284663
H42	H	1.634177	-0.433059	0.125460
H43	H	1.633474	-0.585854	0.125426
H44	H	1.886427	0.106762	-0.540552
O45	O	1.888360	-0.118445	-0.471859
C46	C	1.753805	-0.133017	-0.343133
H47	H	1.655875	-0.085476	-0.368343
H48	H	1.707598	-0.205196	-0.329572
H49	H	1.789135	-0.120164	-0.227396
H50	H	1.780860	-0.596463	0.250116
H51	H	1.781474	-0.443268	0.251199
O52	O	2.172253	-0.409962	-0.119848
C53	C	2.320412	-0.446001	-0.102056
H54	H	2.299219	-0.514574	-0.025640
H55	H	2.396983	-0.453167	-0.225466
H56	H	2.384840	-0.399406	-0.040680
O57	O	2.171966	-0.571633	-0.117929
C58	C	2.145079	-0.528987	-0.265763
H59	H	2.066964	-0.468702	-0.244114
H60	H	2.264499	-0.505708	-0.349067
H61	H	2.082035	-0.578065	-0.323651
O62	O	2.091218	-0.590613	0.142539
C63	C	2.231214	-0.639861	0.105717
H64	H	2.302651	-0.612246	-0.019231
H65	H	2.306971	-0.633874	0.198113
H66	H	2.197227	-0.713285	0.108495
H67	H	1.724691	-0.409929	-0.183801
O68	O	1.708971	-0.567211	-0.196600
C69	C	1.639746	-0.633532	-0.068513
H70	H	1.690096	-0.625373	0.041404
H71	H	1.504454	-0.626185	-0.038403
H72	H	1.668710	-0.702663	-0.104965
H73	H	1.935497	-0.401075	-0.282170
O74	O	1.963693	-0.557274	-0.300821
C75	C	1.888886	-0.598471	-0.404761
H76	H	1.757855	-0.579571	-0.385322
H77	H	1.951487	-0.574850	-0.534764
H78	H	1.896826	-0.674301	-0.378250
