data_functionalizedCrystal
_audit_creation_method	'MofGen! by Chris Wilmer'
_symmetry_space_group_name_H-M	'P1'
_symmetry_Int_Tables_number	1
_symmetry_cell_setting	triclinic
loop_
_symmetry_equiv_pos_as_xyz
  x,y,z
_cell_length_a	17.699083
_cell_length_b	17.699104
_cell_length_c	16.176319
_cell_angle_alpha	89.992259
_cell_angle_beta	89.994260
_cell_angle_gamma	83.287266
loop_
_atom_site_label
_atom_site_type_symbol
_atom_site_fract_x
_atom_site_fract_y
_atom_site_fract_z
O1	O	1.004086	0.095712	-0.068716
O2	O	1.504086	0.595712	0.431284
O3	O	0.783708	0.108164	-0.068725
O4	O	1.283708	0.608164	0.431275
O5	O	0.900115	-0.008250	-0.068713
O6	O	1.400115	0.491750	0.431287
O7	O	0.887679	0.212126	-0.068728
O8	O	1.387679	0.712126	0.431272
O9	O	0.900099	-0.008257	0.068781
O10	O	1.400099	0.491743	0.568781
O11	O	0.783692	0.108157	0.068768
O12	O	1.283692	0.608157	0.568768
O13	O	1.004070	0.095705	0.068777
O14	O	1.504070	0.595705	0.568777
Cu15	Cu	0.893880	0.101930	0.081327
Cu16	Cu	1.393880	0.601930	0.581327
Cu17	Cu	0.893899	0.101939	-0.081275
Cu18	Cu	1.393899	0.601939	0.418725
O19	O	0.887663	0.212119	0.068765
O20	O	1.387663	0.712119	0.568765
C21	C	0.899659	-0.036450	0.000034
C22	C	1.399659	0.463550	0.500034
C23	C	0.898314	-0.120467	0.000034
C24	C	1.398314	0.379533	0.500034
C25	C	0.755503	0.107715	0.000021
C26	C	1.255503	0.607715	0.500021
C27	C	0.671485	0.106376	0.000017
C28	C	1.171485	0.606376	0.500017
C29	C	1.032275	0.096155	0.000030
C30	C	1.532275	0.596155	0.500030
C31	C	1.116293	0.097493	0.000028
C32	C	1.616293	0.597493	0.500028
C33	C	0.959058	-0.645338	0.000013
C34	C	1.459058	-0.145338	0.500013
C35	C	0.960317	-0.566395	0.000021
C36	C	1.460317	-0.066395	0.500021
C37	C	0.891982	-0.517777	0.000020
C38	C	1.391982	-0.017777	0.500020
C39	C	0.822383	-0.548107	0.000020
C40	C	1.322383	-0.048107	0.500020
C41	C	0.821125	-0.627049	0.000018
C42	C	1.321125	-0.127049	0.500018
C43	C	0.827456	-0.229741	0.000027
C44	C	1.327456	0.270259	0.500027
C45	C	0.828720	-0.150794	0.000026
C46	C	1.328720	0.349206	0.500026
C47	C	0.966648	-0.169086	0.000029
C48	C	1.466648	0.330914	0.500029
C49	C	0.965390	-0.248029	0.000028
C50	C	1.465390	0.251971	0.500028
C51	C	0.895792	-0.278352	0.000032
C52	C	1.395792	0.221648	0.500032
C53	C	0.894427	-0.363951	0.000026
C54	C	1.394427	0.136049	0.500026
C55	C	0.893345	-0.432179	0.000020
C56	C	1.393345	0.067821	0.500020
C57	C	1.164909	0.029161	0.000030
C58	C	1.664909	0.529161	0.500030
C59	C	1.243852	0.030423	0.000032
C60	C	1.743852	0.530423	0.500032
C61	C	1.274178	0.100019	0.000027
C62	C	1.774178	0.600019	0.500027
C63	C	1.225556	0.168357	0.000028
C64	C	1.725556	0.668357	0.500028
C65	C	1.146614	0.167093	0.000031
C66	C	1.646614	0.667093	0.500031
C67	C	1.543920	0.173452	0.000016
C68	C	2.043920	0.673452	0.500016
C69	C	1.622868	0.174710	0.000010
C70	C	2.122868	0.674710	0.500010
C71	C	1.641158	0.036781	0.000017
C72	C	2.141158	0.536781	0.500017
C73	C	1.562216	0.035518	0.000020
C74	C	2.062216	0.535518	0.500020
C75	C	1.513601	0.103856	0.000025
C76	C	2.013601	0.603856	0.500025
C77	C	1.428001	0.102486	0.000024
C78	C	1.928001	0.602486	0.500024
C79	C	1.359776	0.101389	0.000022
C80	C	1.859776	0.601389	0.500022
C81	C	0.888120	0.240319	0.000017
C82	C	1.388120	0.740319	0.500017
C83	C	0.889464	0.324337	0.000011
C84	C	1.389464	0.824337	0.500011
N85	N	0.893872	0.101924	0.195692
N86	N	1.393872	0.601924	0.695692
N87	N	0.893912	0.101940	-0.195640
N88	N	1.393912	0.601940	0.304360
C89	C	0.945432	0.050396	0.238962
C90	C	1.445432	0.550396	0.738962
C91	C	0.945436	0.050396	0.325509
C92	C	1.445436	0.550396	0.825509
C93	C	0.893883	0.101926	0.368785
C94	C	1.393883	0.601926	0.868785
C95	C	0.842317	0.153456	0.325509
C96	C	1.342317	0.653456	0.825509
C97	C	0.842310	0.153453	0.238964
C98	C	1.342310	0.653453	0.738964
C99	C	0.842343	0.153470	0.674538
C100	C	1.342343	0.653470	1.174538
C101	C	0.842355	0.153471	0.761089
C102	C	1.342355	0.653471	1.261089
C103	C	0.945469	0.050413	0.761083
C104	C	1.445469	0.550413	1.261083
C105	C	0.945462	0.050410	0.674537
C106	C	1.445462	0.550410	1.174537
C107	C	0.893894	0.101936	0.631269
C108	C	1.393894	0.601936	1.131269
C109	C	0.893889	0.101936	0.537425
C110	C	1.393889	0.601936	1.037425
C111	C	0.893890	0.101931	0.462627
C112	C	1.393890	0.601931	0.962627
H113	H	1.016987	-0.541708	0.000024
H114	H	1.516987	-0.041708	0.500024
H115	H	1.504346	0.229097	0.000015
H116	H	2.004346	0.729097	0.500015
C117	C	1.002160	-0.006277	0.373102
C118	C	1.502160	0.493723	0.873102
H119	H	1.032870	-0.036959	0.334933
H120	H	1.532870	0.463041	0.834933
H121	H	0.975003	-0.037754	0.406878
H122	H	1.475003	0.462246	0.906878
H123	H	1.033616	0.020922	0.406848
H124	H	1.533616	0.520922	0.906848
H125	H	0.987444	0.008451	0.639305
H126	H	1.487444	0.508451	1.139305
C127	C	1.002146	-0.006281	0.191362
C128	C	1.502146	0.493719	0.691362
H129	H	0.994765	0.001101	0.133621
H130	H	1.494765	0.501101	0.633621
H131	H	0.994026	-0.056786	0.205555
H132	H	1.494026	0.443214	0.705555
H133	H	1.052642	0.001887	0.205538
H134	H	1.552642	0.501887	0.705538
H135	H	1.107032	0.222737	0.000032
H136	H	1.607032	0.722737	0.500032
H137	H	0.766743	-0.508516	0.000024
H138	H	1.266743	-0.008516	0.500024
H139	H	0.987456	0.008455	0.796321
H140	H	1.487456	0.508455	1.296321
H141	H	1.283433	-0.025221	0.000037
H142	H	1.783433	0.474779	0.500037
H143	H	0.800371	0.195435	0.796323
H144	H	1.300371	0.695435	1.296323
H145	H	0.773070	-0.111210	0.000027
H146	H	1.273070	0.388790	0.500027
C147	C	1.694633	-0.038392	0.000016
C148	C	2.194633	0.461608	0.500016
H149	H	1.665264	-0.080020	0.000008
H150	H	2.165264	0.419980	0.500008
H151	H	1.725808	-0.040777	0.047960
H152	H	2.225808	0.459223	0.547960
H153	H	1.725808	-0.040760	-0.047940
H154	H	2.225808	0.459240	0.452060
H155	H	0.770785	-0.254420	0.000021
H156	H	1.270785	0.245580	0.500021
H157	H	0.800356	0.195426	0.639315
H158	H	1.300356	0.695426	1.139315
H159	H	1.647556	0.231386	0.000010
H160	H	2.147556	0.731386	0.500010
H161	H	0.800337	0.195411	0.360750
H162	H	1.300337	0.695411	0.860750
H163	H	1.014705	-0.684918	0.000007
H164	H	1.514705	-0.184918	0.500007
C165	C	1.040558	-0.301504	0.000033
C166	C	1.540558	0.198496	0.500033
H167	H	1.082187	-0.272136	0.000043
H168	H	1.582187	0.227864	0.500043
H169	H	1.042943	-0.332676	-0.047913
H170	H	1.542943	0.167324	0.452087
H171	H	1.042924	-0.332682	0.047987
H172	H	1.542924	0.167318	0.547987
C173	C	1.258913	0.244910	0.000020
C174	C	1.758913	0.744910	0.500020
H175	H	1.312891	0.235877	0.000010
H176	H	1.812891	0.735877	0.500010
H177	H	1.242216	0.273040	0.047965
H178	H	1.742216	0.773040	0.547965
H179	H	1.242217	0.273040	-0.047935
H180	H	1.742217	0.773040	0.452065
H181	H	1.023319	-0.144388	0.000015
H182	H	1.523319	0.355612	0.500015
C183	C	0.744572	-0.660407	0.000008
C184	C	1.244572	-0.160407	0.500008
H185	H	0.704054	-0.620147	-0.000001
H186	H	1.204054	-0.120147	0.499999
H187	H	0.741206	-0.690829	0.047953
H188	H	1.241206	-0.190829	0.547953
H189	H	0.741223	-0.690814	-0.047947
H190	H	1.241223	-0.190814	0.452053
H191	H	0.800323	0.195410	0.203734
H192	H	1.300323	0.695410	0.703734
H193	H	1.140224	-0.027512	0.000029
H194	H	1.640224	0.472488	0.500029
H195	H	1.537529	-0.021154	0.000020
H196	H	2.037529	0.478846	0.500020
