data_functionalizedCrystal
_audit_creation_method	'MofGen! by Chris Wilmer'
_symmetry_space_group_name_H-M	'P1'
_symmetry_Int_Tables_number	1
_symmetry_cell_setting	triclinic
loop_
_symmetry_equiv_pos_as_xyz
  x,y,z
_cell_length_a	17.038272
_cell_length_b	9.482900
_cell_length_c	11.026607
_cell_angle_alpha	101.386141
_cell_angle_beta	99.848786
_cell_angle_gamma	80.003315
loop_
_atom_site_label
_atom_site_type_symbol
_atom_site_fract_x
_atom_site_fract_y
_atom_site_fract_z
O1	O	1.065372	0.120704	0.285336
O2	O	1.565372	0.620704	0.785336
O3	O	0.837139	0.120747	0.281096
O4	O	1.337139	0.620747	0.781096
O5	O	0.932340	0.120723	0.104610
O6	O	1.432340	0.620723	0.604610
O7	O	0.970171	0.120727	0.461822
O8	O	1.470171	0.620727	0.961822
O9	O	0.951711	-0.121074	0.068682
O10	O	1.451711	0.378926	0.568682
O11	O	0.856510	-0.121051	0.245168
O12	O	1.356510	0.378949	0.745168
O13	O	1.084742	-0.121094	0.249408
O14	O	1.584742	0.378906	0.749408
Cu15	Cu	0.972395	-0.143150	0.244007
Cu16	Cu	1.472395	0.356850	0.744007
Cu17	Cu	0.949487	0.142803	0.286496
Cu18	Cu	1.449487	0.642803	0.786496
O19	O	0.989541	-0.121070	0.425894
O20	O	1.489541	0.378930	0.925894
C21	C	0.817152	-0.000146	0.259271
C22	C	1.317152	0.499854	0.759271
C23	C	0.728734	-0.000130	0.247752
C24	C	1.228734	0.499870	0.747752
N25	N	0.988513	-0.344274	0.214123
N26	N	1.488513	0.155726	0.714123
C27	C	0.935046	-0.000172	0.040715
C28	C	1.435046	0.499828	0.540715
C29	C	0.914240	-0.000163	-0.096146
C30	C	1.414240	0.499837	0.403854
C31	C	0.693526	-0.000130	0.353536
C32	C	1.193526	0.499870	0.853536
C33	C	0.610450	-0.000150	0.342699
C34	C	1.110450	0.499850	0.842699
C35	C	0.562584	-0.000160	0.226079
C36	C	1.062584	0.499840	0.726079
C37	C	0.597797	-0.000164	0.120287
C38	C	1.097797	0.499836	0.620287
C39	C	0.680872	-0.000154	0.131123
C40	C	1.180872	0.499846	0.631123
C41	C	0.311435	-0.000199	0.187797
C42	C	0.811435	0.499801	0.687797
C43	C	0.228355	-0.000204	0.176970
C44	C	0.728355	0.499796	0.676970
C45	C	0.241014	-0.000193	0.399383
C46	C	0.741014	0.499807	0.899383
C47	C	0.324089	-0.000175	0.410210
C48	C	0.824089	0.499825	0.910210
C49	C	0.359296	-0.000187	0.304416
C50	C	0.859296	0.499813	0.804416
C51	C	0.477667	-0.000176	0.215001
C52	C	0.977667	0.499824	0.715001
C53	C	0.444213	-0.000181	0.315494
C54	C	0.944213	0.499819	0.815494
C55	C	1.104730	-0.000197	0.271233
C56	C	1.604730	0.499803	0.771233
C57	C	1.193147	-0.000204	0.282754
C58	C	1.693147	0.499796	0.782754
N59	N	0.933374	0.343927	0.316372
N60	N	1.433374	0.843927	0.816372
C61	C	0.967648	0.416118	0.252828
C62	C	1.467648	0.916118	0.752828
C63	C	0.954234	0.583539	0.277676
C64	C	1.454234	1.083539	0.777676
C65	C	0.971687	-0.000172	-0.164022
C66	C	1.471687	0.499828	0.335978
C67	C	0.950185	-0.000162	-0.305475
C68	C	1.450185	0.499838	0.194525
C69	C	0.986835	-0.000172	0.489789
C70	C	1.486835	0.499828	0.989789
C71	C	1.007640	-0.000171	0.626651
C72	C	1.507640	0.499829	1.126651
H73	H	0.732494	-0.000121	0.448500
H74	H	1.232494	0.499879	0.948500
H75	H	0.581788	-0.000148	0.428840
H76	H	1.081788	0.499852	0.928840
H77	H	1.006925	0.353980	0.180035
H78	H	1.506925	0.853980	0.680035
H79	H	0.363056	-0.000150	0.505176
H80	H	0.863056	0.499850	1.005176
H81	H	0.914961	0.645673	0.350482
H82	H	1.414961	1.145673	0.850482
H83	H	0.849139	-0.000141	-0.142755
H84	H	1.349139	0.499859	0.357245
H85	H	0.709537	-0.000153	0.044982
H86	H	1.209537	0.499847	0.544982
H87	H	0.885079	-0.000141	-0.352079
H88	H	1.385079	0.499859	0.147921
H89	H	0.340091	-0.000210	0.101652
H90	H	0.840091	0.499790	0.601652
H91	H	0.189383	-0.000211	0.082000
H92	H	0.689383	0.499789	0.582000
H93	H	1.027793	0.593592	0.141325
H94	H	1.527793	1.093592	0.641325
H95	H	0.558819	-0.000193	0.025329
H96	H	1.058819	0.499807	0.525329
H97	H	0.212339	-0.000186	0.485513
H98	H	0.712339	0.499814	0.985513
H99	H	0.483190	-0.000181	0.410445
H100	H	0.983190	0.499819	0.910445
H101	H	0.438687	-0.000225	0.120042
H102	H	0.938687	0.499775	0.620042
H103	H	0.894103	0.406067	0.389174
H104	H	1.394103	0.906067	0.889174
H105	H	1.072737	-0.000074	-0.326729
H106	H	1.572737	0.499926	0.173271
H107	H	1.036789	-0.000193	-0.117413
H108	H	1.536789	0.499807	0.382587
