data_functionalizedCrystal
_audit_creation_method	'MofGen! by Chris Wilmer'
_symmetry_space_group_name_H-M	'P1'
_symmetry_Int_Tables_number	1
_symmetry_cell_setting	triclinic
loop_
_symmetry_equiv_pos_as_xyz
  x,y,z
_cell_length_a	10.654550
_cell_length_b	17.699083
_cell_length_c	9.730223
_cell_angle_alpha	89.997786
_cell_angle_beta	89.996251
_cell_angle_gamma	83.883958
loop_
_atom_site_label
_atom_site_type_symbol
_atom_site_fract_x
_atom_site_fract_y
_atom_site_fract_z
O1	O	1.665973	0.106299	-0.114406
O2	O	1.300318	0.116427	-0.114384
O3	O	1.493476	0.001240	-0.114384
O4	O	1.472815	0.221487	-0.114407
O5	O	1.493474	0.001243	0.114196
O6	O	1.300315	0.116430	0.114196
O7	O	1.665971	0.106302	0.114174
Zn8	Zn	1.483143	0.111366	0.150477
Zn9	Zn	1.483146	0.111363	-0.150687
O10	O	1.472813	0.221490	0.114173
C11	C	1.253531	0.115685	-0.000091
C12	C	1.114127	0.113460	-0.000083
C13	C	1.033454	0.181281	-0.000110
C14	C	0.902470	0.179185	-0.000133
C15	C	0.932845	0.041443	-0.000108
C16	C	1.063826	0.043539	-0.000075
C17	C	1.015917	0.260805	-0.000130
C18	C	0.884933	0.258710	-0.000154
C19	C	1.492735	-0.026961	-0.000093
C20	C	1.490514	-0.110993	-0.000093
C21	C	1.603894	-0.158893	-0.000097
C22	C	1.601799	-0.237850	-0.000109
C23	C	1.486324	-0.268905	-0.000107
C24	C	1.372935	-0.220998	-0.000106
C25	C	1.375031	-0.142043	-0.000104
C26	C	1.364481	-0.539415	-0.000117
C27	C	1.362394	-0.618376	-0.000115
C28	C	1.591249	-0.635222	-0.000122
C29	C	1.593345	-0.556266	-0.000120
C30	C	1.479957	-0.508367	-0.000127
C31	C	1.482229	-0.422753	-0.000116
C32	C	1.484050	-0.354517	-0.000107
C33	C	1.712757	0.107044	-0.000122
C34	C	1.852161	0.109269	-0.000140
C35	C	1.473554	0.249690	-0.000120
C36	C	1.475775	0.333722	-0.000130
N37	N	1.483150	0.111369	0.356013
N38	N	1.483149	0.111355	-0.356223
C39	C	1.568702	0.060381	0.427940
C40	C	1.568699	0.060372	0.571823
C41	C	1.397587	0.162345	0.571840
C42	C	1.397585	0.162349	0.427960
C43	C	1.667496	0.001510	0.427931
C44	C	1.667493	0.001501	0.571814
H45	H	1.694125	-0.276847	-0.000110
C46	C	1.239763	-0.486733	-0.000125
H47	H	1.257541	-0.435261	-0.000143
H48	H	1.192394	-0.496210	0.079584
H49	H	1.192415	-0.496215	-0.079848
C50	C	1.152568	-0.031061	-0.000032
H51	H	1.237781	-0.019801	-0.000002
H52	H	1.137365	-0.059709	-0.079738
H53	H	1.137318	-0.059693	0.079693
H54	H	1.327922	0.203851	0.630435
C55	C	1.715980	-0.687910	-0.000131
H56	H	1.785050	-0.658105	-0.000116
H57	H	1.719928	-0.719058	-0.079843
H58	H	1.719916	-0.719062	0.079589
H59	H	0.891873	-0.015484	-0.000123
H60	H	1.278912	-0.246289	-0.000113
C61	C	1.235365	-0.652535	-0.000130
H62	H	1.168134	-0.612701	-0.000149
H63	H	1.229780	-0.682988	0.079578
H64	H	1.229809	-0.682983	-0.079853
H65	H	1.647071	-0.056663	0.388884
C66	C	1.250313	-0.089353	-0.000095
H67	H	1.181239	-0.119155	-0.000082
H68	H	1.246376	-0.058200	-0.079805
H69	H	1.246372	-0.058205	0.079626
C70	C	1.303471	0.218431	0.348845
H71	H	1.252523	0.248795	0.412304
H72	H	1.251290	0.190910	0.292719
H73	H	1.348544	0.250199	0.292718
C74	C	1.627596	-0.072764	0.632107
H75	H	1.609836	-0.105832	0.559394
H76	H	1.554263	-0.061650	0.687068
H77	H	1.694098	-0.096634	0.687043
C78	C	1.054812	0.302829	0.129085
H79	H	0.981926	0.318682	0.182215
H80	H	1.094841	0.346012	0.102507
H81	H	1.111655	0.269710	0.182264
C82	C	1.720367	-0.522110	-0.000129
H83	H	1.787595	-0.561947	-0.000147
H84	H	1.725946	-0.491660	0.079579
H85	H	1.725935	-0.491660	-0.079853
C86	C	1.797556	0.019021	0.624568
H87	H	1.851043	0.026240	0.548627
H88	H	1.834017	-0.022247	0.678798
H89	H	1.787840	0.063892	0.678812
C90	C	1.790233	0.026410	0.367616
H91	H	1.786043	0.025571	0.270107
H92	H	1.860013	-0.007417	0.397753
H93	H	1.800349	0.076453	0.397763
C94	C	1.063495	0.295017	-0.133439
H95	H	0.994045	0.308806	-0.192825
H96	H	1.121755	0.258538	-0.177718
H97	H	1.104024	0.338826	-0.112014
H98	H	0.838840	0.282744	0.098528
H99	H	0.842676	0.288672	-0.095824
H100	H	1.697927	-0.133615	-0.000091
