data_functionalizedCrystal
_audit_creation_method	'MofGen! by Chris Wilmer'
_symmetry_space_group_name_H-M	'P1'
_symmetry_Int_Tables_number	1
_symmetry_cell_setting	triclinic
loop_
_symmetry_equiv_pos_as_xyz
  x,y,z
_cell_length_a	18.215407
_cell_length_b	16.959454
_cell_length_c	18.215398
_cell_angle_alpha	89.978830
_cell_angle_beta	89.980536
_cell_angle_gamma	90.020523
loop_
_atom_site_label
_atom_site_type_symbol
_atom_site_fract_x
_atom_site_fract_y
_atom_site_fract_z
Zn1	Zn	1.125094	-0.314700	-0.416138
Zn2	Zn	1.125013	-0.446879	-0.293080
Zn3	Zn	1.002027	-0.314720	-0.293085
Zn4	Zn	1.002003	-0.446841	-0.416105
O5	O	1.063534	-0.380785	-0.354602
O6	O	1.228067	-0.332241	-0.399825
O7	O	1.108676	-0.429373	-0.190097
O8	O	1.018396	-0.204106	-0.309424
O9	O	1.228008	-0.429353	-0.309416
O10	O	1.108813	-0.204092	-0.399830
O11	O	1.018318	-0.332276	-0.190100
O12	O	0.899040	-0.332239	-0.309392
O13	O	1.018354	-0.429288	-0.519094
O14	O	0.899022	-0.429308	-0.399775
O15	O	1.108789	-0.332204	-0.519118
O16	O	1.108652	-0.557485	-0.309385
O17	O	1.018276	-0.557457	-0.399770
C18	C	0.872328	-0.380772	-0.354581
C19	C	0.790529	-0.380785	-0.354589
C20	C	1.063473	-0.586151	-0.354590
C21	C	1.063514	-0.674008	-0.354609
C22	C	0.602345	-0.431408	-0.401593
C23	C	0.525486	-0.431411	-0.401602
C24	C	0.525476	-0.330176	-0.307628
C25	C	0.602333	-0.330171	-0.307623
C26	C	0.640766	-0.380791	-0.354604
C27	C	0.487050	-0.380799	-0.354618
C28	C	0.403716	-0.380802	-0.354628
C29	C	0.724105	-0.380788	-0.354596
C30	C	1.016544	-1.045499	-0.401661
C31	C	1.110729	-1.045468	-0.307618
C32	C	1.110704	-0.962922	-0.307611
C33	C	1.063597	-0.921661	-0.354629
C34	C	1.016515	-0.962945	-0.401654
C35	C	1.157779	-0.921632	-0.260582
C36	C	1.157755	-0.839081	-0.260573
C37	C	1.110651	-0.797818	-0.307595
C38	C	1.063568	-0.839107	-0.354622
C39	C	1.016461	-0.797846	-0.401640
C40	C	0.969381	-0.839134	-0.448672
C41	C	0.969411	-0.921683	-0.448676
C42	C	1.110621	-0.715269	-0.307591
C43	C	1.016432	-0.715292	-0.401634
C44	C	1.255487	-0.380799	-0.354624
C45	C	1.337286	-0.380805	-0.354633
C46	C	1.063578	-0.380740	-0.546555
C47	C	1.063596	-0.380720	-0.628354
C48	C	1.063616	-0.174617	-0.354631
C49	C	1.063651	-0.086760	-0.354643
C50	C	1.110679	-0.431181	-0.893414
C51	C	1.110668	-0.431209	-0.816556
C52	C	1.016569	-0.330107	-0.816542
C53	C	1.016577	-0.330084	-0.893400
C54	C	1.063636	-0.380620	-0.931834
C55	C	1.063617	-0.380670	-0.778118
C56	C	1.063605	-0.380700	-0.694784
C57	C	1.063648	-0.380592	-1.015173
C58	C	1.063533	-0.380773	-0.163396
C59	C	1.063657	-0.380570	-0.081597
H60	H	0.494208	-0.472627	-0.439866
H61	H	0.931081	-0.955307	-0.486966
H62	H	0.494174	-0.288964	-0.269376
H63	H	1.148975	-0.472381	-0.785278
C64	C	1.161811	-1.090406	-0.256620
C65	C	1.151755	-1.171536	-0.266687
C66	C	1.198794	-1.212959	-0.219711
H67	H	1.151083	-1.076986	-0.207143
H68	H	1.211274	-1.076900	-0.267413
H69	H	1.102303	-1.185035	-0.255888
H70	H	1.162488	-1.184979	-0.316154
H71	H	1.248258	-1.199454	-0.230505
H72	H	1.188063	-1.199533	-0.170237
H73	H	1.191983	-1.268010	-0.226540
H74	H	1.148949	-0.681656	-0.269295
H75	H	0.978256	-0.288961	-0.785240
C76	C	0.965330	-0.670597	-0.452804
C77	C	0.981312	-0.690641	-0.525633
C78	C	0.934246	-0.649491	-0.572791
H79	H	0.972006	-0.615508	-0.446165
H80	H	0.915881	-0.684188	-0.442037
H81	H	1.030748	-0.677044	-0.536397
H82	H	0.974631	-0.745723	-0.532296
H83	H	0.884798	-0.663083	-0.562024
H84	H	0.940927	-0.594405	-0.566145
H85	H	0.945079	-0.663091	-0.622211
H86	H	0.931023	-0.805530	-0.486951
C87	C	0.965458	-1.090463	-0.452641
C88	C	0.975550	-1.171588	-0.442577
C89	C	0.928495	-1.213033	-0.489519
H90	H	0.976147	-1.076993	-0.502125
H91	H	0.915997	-1.077025	-0.441815
H92	H	1.025000	-1.185021	-0.453408
H93	H	0.964856	-1.185081	-0.393102
H94	H	0.879034	-1.199595	-0.478693
H95	H	0.939189	-1.199557	-0.539001
H96	H	0.935332	-1.268081	-0.482693
C97	C	1.161793	-0.486139	-0.935011
C98	C	1.202973	-0.530439	-0.884910
C99	C	1.250059	-0.581085	-0.923200
H100	H	1.193938	-0.455984	-0.965006
H101	H	1.133648	-0.520612	-0.964968
H102	H	1.231116	-0.495971	-0.854966
H103	H	1.170847	-0.560611	-0.854914
H104	H	1.221914	-0.615558	-0.953156
H105	H	1.282200	-0.550924	-0.953193
H106	H	1.278001	-0.611154	-0.889212
C107	C	0.965472	-0.275099	-0.934985
C108	C	0.924276	-0.230827	-0.884878
C109	C	0.877197	-0.180164	-0.923160
H110	H	0.933335	-0.305240	-0.964960
H111	H	0.993623	-0.240608	-0.964962
H112	H	0.896127	-0.265313	-0.854914
H113	H	0.956392	-0.200669	-0.854903
H114	H	0.905348	-0.145674	-0.953137
H115	H	0.845066	-0.210312	-0.953133
H116	H	0.849245	-0.150115	-0.889169
H117	H	0.633616	-0.288947	-0.269359
C118	C	0.644034	-0.486261	-0.452729
C119	C	0.625386	-0.469133	-0.525570
C120	C	0.663781	-0.519639	-0.572700
H121	H	0.631452	-0.539385	-0.441978
H122	H	0.695318	-0.479003	-0.446047
H123	H	0.574114	-0.476397	-0.532249
H124	H	0.637971	-0.416018	-0.536344
H125	H	0.715065	-0.512381	-0.566018
H126	H	0.651195	-0.572760	-0.561943
H127	H	0.651139	-0.508020	-0.622128
C128	C	1.209004	-0.966371	-0.209576
C129	C	1.281822	-0.946261	-0.225612
C130	C	1.329017	-0.987474	-0.178632
H131	H	1.202344	-1.021450	-0.216297
H132	H	1.198289	-0.952876	-0.160104
H133	H	1.292533	-0.959761	-0.275072
H134	H	1.288505	-0.891188	-0.218887
H135	H	1.318302	-0.973979	-0.129160
H136	H	1.322351	-1.042551	-0.185356
H137	H	1.378429	-0.973830	-0.189501
C138	C	1.208831	-0.794360	-0.209399
C139	C	1.192871	-0.814500	-0.136571
C140	C	1.239916	-0.773326	-0.089412
H141	H	1.202119	-0.739275	-0.216028
H142	H	1.258287	-0.807867	-0.220175
H143	H	1.143427	-0.800988	-0.125799
H144	H	1.199587	-0.869578	-0.129918
H145	H	1.289372	-0.786833	-0.100188
H146	H	1.233200	-0.718243	-0.096048
H147	H	1.229098	-0.786991	-0.039994
