data_functionalizedCrystal
_audit_creation_method	'MofGen! by Chris Wilmer'
_symmetry_space_group_name_H-M	'P1'
_symmetry_Int_Tables_number	1
_symmetry_cell_setting	triclinic
loop_
_symmetry_equiv_pos_as_xyz
  x,y,z
_cell_length_a	14.971486
_cell_length_b	14.044220
_cell_length_c	14.048226
_cell_angle_alpha	89.992807
_cell_angle_beta	89.998499
_cell_angle_gamma	88.401503
loop_
_atom_site_label
_atom_site_type_symbol
_atom_site_fract_x
_atom_site_fract_y
_atom_site_fract_z
O1	O	1.196679	0.123538	-0.079053
O2	O	0.937444	0.138332	-0.079079
O3	O	1.063171	-0.007054	-0.079057
O4	O	1.070953	0.268924	-0.079075
O5	O	1.063153	-0.007063	0.079264
O6	O	0.937427	0.138323	0.079242
O7	O	1.196662	0.123529	0.079268
Zn8	Zn	1.067042	0.130925	0.104392
Zn9	Zn	1.067064	0.130936	-0.104203
O10	O	1.070936	0.268915	0.079246
C11	C	0.904059	0.137666	0.000078
C12	C	0.804606	0.135683	0.000069
C13	C	0.754109	0.221093	0.000064
C14	C	0.660662	0.219225	0.000079
C15	C	0.617714	0.131945	0.000090
C16	C	0.668218	0.046528	0.000097
C17	C	0.761663	0.048398	0.000090
C18	C	0.473449	0.042638	0.000111
C19	C	0.379997	0.040767	0.000117
C20	C	0.372448	0.213465	0.000100
C21	C	0.465893	0.215334	0.000092
C22	C	0.516390	0.129917	0.000097
C23	C	1.059755	-0.042377	0.000104
C24	C	1.049594	-0.147614	0.000104
C25	C	1.031018	-0.340297	0.000088
C26	C	1.103085	-0.397848	0.000093
C27	C	1.092748	-0.505063	0.000084
C28	C	1.041353	-0.233071	0.000097
C29	C	1.230047	0.124195	0.000109
C30	C	1.329501	0.126178	0.000112
C31	C	1.074351	0.304238	0.000083
C32	C	1.084512	0.409475	0.000077
N33	N	1.067033	0.130916	0.246753
N34	N	1.067080	0.130937	-0.246564
C35	C	1.122726	0.066566	0.296581
C36	C	1.122732	0.066566	0.396238
C37	C	1.067049	0.130921	0.446066
C38	C	1.011350	0.195274	0.396232
C39	C	1.011340	0.195269	0.296576
C40	C	1.011376	0.195281	0.603946
C41	C	1.011387	0.195287	0.703609
C42	C	1.122768	0.066577	0.703608
C43	C	1.122758	0.066573	0.603953
C44	C	1.067060	0.130927	0.554125
H45	H	0.789070	0.292167	0.000054
C46	C	0.513135	0.311339	0.000081
H47	H	0.469679	0.361943	0.000089
H48	H	0.549431	0.315661	-0.055130
H49	H	0.549430	0.315649	0.055297
H50	H	1.168080	0.014166	0.436808
C51	C	1.196923	-0.355644	0.000114
H52	H	1.240781	-0.405854	0.000111
H53	H	1.203931	-0.317534	0.055328
H54	H	1.203952	-0.317514	-0.055099
C55	C	1.184007	-0.004217	0.549143
H56	H	1.217173	-0.042550	0.593090
H57	H	1.223956	0.029948	0.510253
H58	H	1.148668	-0.043738	0.510282
H59	H	0.619551	0.288775	0.000074
C60	C	1.183976	-0.004227	0.241778
H61	H	1.217139	-0.042557	0.285731
H62	H	1.223929	0.029934	0.202889
H63	H	1.148640	-0.043750	0.202917
C64	C	0.950082	0.266055	0.241761
H65	H	0.958044	0.256829	0.175273
H66	H	0.964839	0.329342	0.258078
H67	H	0.889559	0.255647	0.258104
H68	H	0.961562	-0.371545	0.000079
H69	H	1.168119	0.014178	0.744184
C70	C	0.950076	0.266015	0.758418
H71	H	0.916877	0.304316	0.714471
H72	H	0.985351	0.305561	0.797312
H73	H	0.910145	0.231780	0.797275
C74	C	0.950114	0.266074	0.549137
H75	H	0.916960	0.304410	0.593084
H76	H	0.910153	0.231911	0.510269
H77	H	0.985446	0.305592	0.510253
H78	H	0.966007	0.247670	0.436807
H79	H	0.331329	0.283015	0.000099
H80	H	0.514561	-0.026919	0.000117
C81	C	0.332756	-0.055238	0.000135
H82	H	0.376212	-0.105841	0.000150
H83	H	0.296458	-0.059557	-0.055072
H84	H	0.296461	-0.059549	0.055355
H85	H	0.633242	-0.024537	0.000121
H86	H	0.802776	-0.021152	0.000093
