data_functionalizedCrystal
_audit_creation_method	'MofGen! by Chris Wilmer'
_symmetry_space_group_name_H-M	'P1'
_symmetry_Int_Tables_number	1
_symmetry_cell_setting	triclinic
loop_
_symmetry_equiv_pos_as_xyz
  x,y,z
_cell_length_a	18.215405
_cell_length_b	21.295419
_cell_length_c	18.215399
_cell_angle_alpha	90.017422
_cell_angle_beta	89.970050
_cell_angle_gamma	89.960709
loop_
_atom_site_label
_atom_site_type_symbol
_atom_site_fract_x
_atom_site_fract_y
_atom_site_fract_z
Zn1	Zn	-0.292649	-0.962341	-0.416130
Zn2	Zn	-0.415726	-0.962272	-0.293064
Zn3	Zn	-0.292713	-0.857078	-0.293076
Zn4	Zn	-0.415714	-0.857048	-0.416088
O5	O	-0.354200	-0.909685	-0.354590
O6	O	-0.308954	-1.050421	-0.399818
O7	O	-0.399439	-0.948302	-0.190082
O8	O	-0.189720	-0.871083	-0.309422
O9	O	-0.399377	-1.050370	-0.309402
O10	O	-0.189673	-0.948419	-0.399829
O11	O	-0.309062	-0.871017	-0.190090
O12	O	-0.309051	-0.768985	-0.309381
O13	O	-0.399358	-0.871031	-0.519078
O14	O	-0.399420	-0.768962	-0.399758
O15	O	-0.308942	-0.948389	-0.519109
O16	O	-0.518708	-0.948272	-0.309362
O17	O	-0.518700	-0.870964	-0.399746
C18	C	-0.354242	-0.746133	-0.354566
C19	C	-0.354277	-0.676165	-0.354574
C20	C	-0.545407	-0.909624	-0.354564
C21	C	-0.627206	-0.909656	-0.354578
C22	C	-0.307271	-0.643347	-0.401726
C23	C	-0.307254	-0.577605	-0.401728
C24	C	-0.354255	-0.544682	-0.354585
C25	C	-0.401264	-0.577508	-0.307425
C26	C	-0.401275	-0.643249	-0.307419
N27	N	-0.418651	-0.441415	-0.348837
N28	N	-0.418638	-0.378964	-0.348847
C29	C	-0.354224	-0.346608	-0.354599
N30	N	-0.289822	-0.379062	-0.360354
N31	N	-0.289835	-0.441520	-0.360349
C32	C	-0.354248	-0.473397	-0.354586
C33	C	-0.307196	-0.242504	-0.401755
C34	C	-0.307177	-0.176761	-0.401752
C35	C	-0.401194	-0.176665	-0.307452
C36	C	-0.401206	-0.242408	-0.307452
C37	C	-0.354208	-0.275323	-0.354607
C38	C	-0.815314	-0.949944	-0.401717
C39	C	-0.892173	-0.949967	-0.401731
C40	C	-0.892335	-0.869503	-0.307508
C41	C	-0.815477	-0.869478	-0.307498
C42	C	-0.776969	-0.909702	-0.354602
C43	C	-0.930685	-0.909750	-0.354625
C44	C	-1.014019	-0.909774	-0.354640
C45	C	-0.693630	-0.909676	-0.354588
C46	C	-0.162247	-0.909762	-0.354631
C47	C	-0.080449	-0.909795	-0.354649
C48	C	-0.354142	-0.909714	-0.546543
C49	C	-0.354117	-0.909727	-0.628342
C50	C	-0.354169	-0.073875	-0.354609
C51	C	-0.354178	-0.143843	-0.354608
C52	C	-0.307026	-0.869519	-0.816541
C53	C	-0.307011	-0.869530	-0.893400
C54	C	-0.401120	-0.950011	-0.893380
C55	C	-0.401138	-0.949996	-0.816523
C56	C	-0.354087	-0.909751	-0.778105
C57	C	-0.354054	-0.909777	-0.931821
C58	C	-0.354038	-0.909789	-1.015155
C59	C	-0.354103	-0.909738	-0.694766
C60	C	-0.354206	-0.909691	-0.163383
C61	C	-0.354024	-0.909801	-0.081585
H62	H	-0.268973	-0.550879	-0.440123
N63	N	-0.258933	-0.828446	-0.932672
N64	N	-0.258920	-0.828464	-1.001294
H65	H	-0.224963	-0.799448	-1.029031
N66	N	-0.449175	-0.991113	-0.932636
N67	N	-0.449153	-0.991122	-1.001258
H68	H	-0.483093	-1.020152	-1.028982
N69	N	-0.775990	-0.991035	-0.449833
N70	N	-0.810239	-1.026962	-0.491897
H71	H	-0.782469	-1.055983	-0.525882
H72	H	-0.268895	-0.150041	-0.440147
H73	H	-0.439463	-0.982760	-0.785228
H74	H	-0.268714	-0.836748	-0.785263
H75	H	-0.439532	-0.550699	-0.269041
H76	H	-0.269001	-0.670143	-0.440123
H77	H	-0.923390	-0.982735	-0.440098
H78	H	-0.923698	-0.836755	-0.269157
H79	H	-0.784255	-0.836704	-0.269132
H80	H	-0.439554	-0.669969	-0.269021
H81	H	-0.268923	-0.269306	-0.440147
H82	H	-0.439463	-0.149861	-0.269068
H83	H	-0.439486	-0.269129	-0.269059
