data_functionalizedCrystal
_audit_creation_method	'MofGen! by Chris Wilmer'
_symmetry_space_group_name_H-M	'P1'
_symmetry_Int_Tables_number	1
_symmetry_cell_setting	triclinic
loop_
_symmetry_equiv_pos_as_xyz
  x,y,z
_cell_length_a	15.995355
_cell_length_b	15.072220
_cell_length_c	14.971486
_cell_angle_alpha	90.001330
_cell_angle_beta	96.445833
_cell_angle_gamma	89.991677
loop_
_atom_site_label
_atom_site_type_symbol
_atom_site_fract_x
_atom_site_fract_y
_atom_site_fract_z
O1	O	-1.111109	0.073697	0.115307
O2	O	-0.867348	0.073718	0.129540
O3	O	-0.995762	0.073700	-0.007784
O4	O	-0.982695	0.073714	0.252631
O5	O	-0.995730	-0.073865	-0.007777
O6	O	-0.867317	-0.073847	0.129547
O7	O	-1.111077	-0.073868	0.115314
Zn8	Zn	-0.989192	-0.097287	0.122432
Zn9	Zn	-0.989234	0.097136	0.122422
O10	O	-0.982664	-0.073851	0.252638
C11	C	-0.836137	-0.000062	0.128954
C12	C	-0.743185	-0.000055	0.127188
C13	C	-0.572997	-0.000067	0.123982
C14	C	-0.549552	-0.000072	0.024850
C15	C	-0.452873	-0.000413	0.022980
C16	C	-0.405435	-0.000078	0.120825
C17	C	-0.434558	-0.084175	0.170675
C18	C	-0.531351	-0.084240	0.171855
C19	C	-0.531299	0.083575	0.173298
C20	C	-0.434801	0.084675	0.169634
C21	C	-0.310735	-0.000088	0.119045
C22	C	-0.667696	-0.000064	0.125765
N23	N	-0.989169	-0.229976	0.122438
C24	C	-0.989232	-0.589177	0.122418
C25	C	-0.920289	-0.551561	0.195651
C26	C	-0.920448	-0.448735	0.195919
C27	C	-0.989200	-0.410973	0.122428
C28	C	-1.076585	-0.448271	0.142814
C29	C	-1.076199	-0.551129	0.143335
C30	C	-0.971569	-0.551281	0.028583
C31	C	-0.969565	-0.448417	0.029209
C32	C	-0.989188	-0.310260	0.122432
C33	C	-0.989250	-0.689891	0.122417
C34	C	-0.142290	-0.000087	0.115888
C35	C	-0.235246	-0.000091	0.117619
C36	C	-0.995162	-0.000082	-0.041104
C37	C	-0.993411	-0.000081	-0.140400
N38	N	-0.989263	0.229825	0.122409
C39	C	-1.068850	-0.000088	-0.197710
C40	C	-1.067200	-0.000079	-0.291007
C41	C	-0.990109	-0.000069	-0.326993
C42	C	-0.914664	-0.000059	-0.269675
C43	C	-0.916315	-0.000062	-0.176380
C44	C	-0.911227	-0.000056	-0.464134
C45	C	-0.909575	-0.000055	-0.557436
C46	C	-1.062112	-0.000073	-0.578762
C47	C	-1.063763	-0.000075	-0.485466
C48	C	-0.988318	-0.000067	-0.428155
C49	C	-0.983264	-0.000067	0.285958
C50	C	-0.985015	-0.000062	0.385254
H51	H	-0.416221	0.146891	0.133331
H52	H	-0.401917	0.090017	0.241027
C53	C	-0.829863	-0.000042	-0.309253
H54	H	-0.785170	-0.000028	-0.261756
H55	H	-0.826032	-0.051498	-0.345206
H56	H	-0.826065	0.051427	-0.345201
H57	H	-0.559551	0.147338	0.142020
H58	H	-0.909226	-0.577267	0.008981
C59	C	-0.588629	-0.081426	-0.026209
H60	H	-0.619168	-0.115390	0.012627
H61	H	-0.625588	-0.062223	-0.076606
H62	H	-0.545233	-0.116867	-0.046130
H63	H	-0.545385	0.084390	0.246265
H64	H	-1.092505	-0.422500	0.210468
H65	H	-0.854884	-0.000056	-0.129718
C66	C	-1.150183	-0.000096	-0.354045
H67	H	-1.196332	-0.000115	-0.319251
H68	H	-1.152729	0.051363	-0.390884
H69	H	-1.152692	-0.051562	-0.390882
C70	C	-0.587349	0.081380	-0.027069
H71	H	-0.572471	0.080138	-0.086731
H72	H	-0.646869	0.080258	-0.028583
H73	H	-0.566012	0.134003	0.002071
H74	H	-1.123543	-0.000076	-0.625429
C75	C	-0.824778	-0.000024	-0.597020
H76	H	-0.780082	-0.000002	-0.549527
H77	H	-0.820940	-0.051477	-0.632975
H78	H	-0.820993	0.051448	-0.632967
H79	H	-0.931737	-0.424119	0.265553
H80	H	-0.434384	-0.061053	-0.015853
H81	H	-1.091750	-0.575108	0.211768
H82	H	-0.402783	-0.087063	0.242686
H83	H	-0.433827	0.059859	-0.016042
H84	H	-0.849791	-0.000047	-0.417473
C85	C	-1.147587	-0.584747	0.074020
H86	H	-1.176700	-0.535540	0.045674
H87	H	-1.124521	-0.619777	0.030066
H88	H	-1.185592	-0.619652	0.103567
H89	H	-1.131627	-0.000101	-0.168418
H90	H	-0.558089	-0.147346	0.137744
H91	H	-0.545996	-0.087832	0.244552
H92	H	-0.414418	-0.147001	0.136478
H93	H	-0.855496	-0.423520	0.183773
H94	H	-0.855128	-0.576318	0.183705
C95	C	-1.039478	-0.584147	-0.045041
H96	H	-1.078410	-0.620787	-0.018772
H97	H	-1.068232	-0.534685	-0.073285
H98	H	-1.013683	-0.617267	-0.088478
C99	C	-0.935343	-0.586425	0.289199
H100	H	-0.893420	-0.563375	0.333050
H101	H	-0.989304	-0.568019	0.302753
H102	H	-0.932584	-0.649388	0.289512
C103	C	-1.147559	-0.415226	0.072685
H104	H	-1.199831	-0.438566	0.086279
H105	H	-1.149560	-0.352254	0.073948
H106	H	-1.137074	-0.434489	0.014557
C107	C	-0.882726	-0.415493	0.008306
H108	H	-0.858533	-0.379074	0.056181
H109	H	-0.847103	-0.464941	0.001715
H110	H	-0.888971	-0.382131	-0.045870
C111	C	-1.032988	-0.413710	-0.047863
H112	H	-1.072452	-0.375764	-0.024091
H113	H	-1.003893	-0.381598	-0.089388
H114	H	-1.061766	-0.462364	-0.077647
H115	H	-1.126537	-0.000090	-0.456170
