data_functionalizedCrystal
_audit_creation_method	'MofGen! by Chris Wilmer'
_symmetry_space_group_name_H-M	'P1'
_symmetry_Int_Tables_number	1
_symmetry_cell_setting	triclinic
loop_
_symmetry_equiv_pos_as_xyz
  x,y,z
_cell_length_a	16.625548
_cell_length_b	19.805405
_cell_length_c	19.805399
_cell_angle_alpha	90.029301
_cell_angle_beta	89.981391
_cell_angle_gamma	89.972522
loop_
_atom_site_label
_atom_site_type_symbol
_atom_site_fract_x
_atom_site_fract_y
_atom_site_fract_z
Zn1	Zn	1.232643	0.269460	-0.382694
Zn2	Zn	1.482643	0.519460	-0.132694
Zn3	Zn	1.732643	0.769460	0.117306
Zn4	Zn	1.982643	1.019460	0.367306
Zn5	Zn	1.232541	0.382648	-0.269502
Zn6	Zn	1.482541	0.632648	-0.019502
Zn7	Zn	1.732541	0.882648	0.230498
Zn8	Zn	1.982541	1.132648	0.480498
Zn9	Zn	1.097809	0.269480	-0.269521
Zn10	Zn	1.347809	0.519480	-0.019521
Zn11	Zn	1.597809	0.769480	0.230479
Zn12	Zn	1.847809	1.019480	0.480479
Zn13	Zn	1.097766	0.382614	-0.382651
Zn14	Zn	1.347766	0.632614	-0.132651
Zn15	Zn	1.597766	0.882614	0.117349
Zn16	Zn	1.847766	1.132614	0.367349
O17	O	1.165190	0.326051	-0.326092
O18	O	1.415190	0.576051	-0.076092
O19	O	1.665190	0.826051	0.173908
O20	O	1.915190	1.076051	0.423908
O21	O	1.345462	0.284480	-0.367689
O22	O	1.595462	0.534480	-0.117689
O23	O	1.845462	0.784480	0.132311
O24	O	2.095462	1.034480	0.382311
O25	O	1.214645	0.367659	-0.174788
O26	O	1.464645	0.617659	0.075212
O27	O	1.714645	0.867659	0.325212
O28	O	1.964645	1.117659	0.575212
O29	O	1.115756	0.174761	-0.284559
O30	O	1.365756	0.424761	-0.034559
O31	O	1.615756	0.674761	0.215441
O32	O	1.865756	0.924761	0.465441
O33	O	1.345387	0.367639	-0.284528
O34	O	1.595387	0.617639	-0.034528
O35	O	1.845387	0.867639	0.215472
O36	O	2.095387	1.117639	0.465472
O37	O	1.214817	0.174746	-0.367707
O38	O	1.464817	0.424746	-0.117707
O39	O	1.714817	0.674746	0.132293
O40	O	1.964817	0.924746	0.382293
O41	O	1.115657	0.284515	-0.174802
O42	O	1.365657	0.534515	0.075198
O43	O	1.615657	0.784515	0.325198
O44	O	1.865657	1.034515	0.575198
O45	O	0.984971	0.284482	-0.284517
O46	O	1.234971	0.534482	-0.034517
O47	O	1.484971	0.784482	0.215483
O48	O	1.734971	1.034482	0.465483
O49	O	1.115682	0.367581	-0.477373
O50	O	1.365682	0.617581	-0.227373
O51	O	1.615682	0.867581	0.022627
O52	O	1.865682	1.117581	0.272627
O53	O	0.984939	0.367601	-0.367634
O54	O	1.234939	0.617601	-0.117634
O55	O	1.484939	0.867601	0.132366
O56	O	1.734939	1.117601	0.382366
O57	O	1.214775	0.284447	-0.477405
O58	O	1.464775	0.534447	-0.227405
O59	O	1.714775	0.784447	0.022595
O60	O	1.964775	1.034447	0.272595
O61	O	1.214602	0.477360	-0.284486
O62	O	1.464602	0.727360	-0.034486
O63	O	1.714602	0.977360	0.215514
O64	O	1.964602	1.227360	0.465514
O65	O	1.115583	0.477335	-0.367616
O66	O	1.365583	0.727335	-0.117616
O67	O	1.615583	0.977335	0.132384
O68	O	1.865583	1.227335	0.382384
C69	C	0.955699	0.326041	-0.326073
C70	C	1.205699	0.576041	-0.076073
C71	C	1.455699	0.826041	0.173927
C72	C	1.705699	1.076041	0.423927
C73	C	0.866078	0.326053	-0.326081
C74	C	1.116078	0.576053	-0.076081
C75	C	1.366078	0.826053	0.173919
C76	C	1.616078	1.076053	0.423919
C77	C	1.165099	0.501907	-0.326059
C78	C	1.415099	0.751907	-0.076059
C79	C	1.665099	1.001907	0.173941
C80	C	1.915099	1.251907	0.423941
C81	C	1.165134	0.577139	-0.326068
C82	C	1.415134	0.827139	-0.076068
C83	C	1.665134	1.077139	0.173932
C84	C	1.915134	1.327139	0.423932
C85	C	1.165235	0.326008	-0.502635
C86	C	1.415235	0.576008	-0.252635
C87	C	1.665235	0.826008	-0.002635
C88	C	1.915235	1.076008	0.247365
C89	C	1.165254	0.325990	-0.577867
C90	C	1.415254	0.575990	-0.327867
C91	C	1.665254	0.825990	-0.077867
C92	C	1.915254	1.075990	0.172133
C93	C	0.537902	0.326057	-0.326110
C94	C	0.787902	0.576057	-0.076110
C95	C	1.037902	0.826057	0.173890
C96	C	1.287902	1.076057	0.423890
C97	C	0.629211	0.326054	-0.326100
C98	C	0.879211	0.576054	-0.076100
C99	C	1.129211	0.826054	0.173900
C100	C	1.379211	1.076054	0.423900
C101	C	0.701987	0.326056	-0.326095
C102	C	0.951987	0.576056	-0.076095
C103	C	1.201987	0.826056	0.173905
C104	C	1.451987	1.076056	0.423905
C105	C	0.793301	0.326052	-0.326086
C106	C	1.043301	0.576052	-0.076086
C107	C	1.293301	0.826052	0.173914
C108	C	1.543301	1.076052	0.423914
C109	C	1.375499	0.326061	-0.326111
C110	C	1.625499	0.576061	-0.076111
C111	C	1.875499	0.826061	0.173889
C112	C	2.125499	1.076061	0.423889
C113	C	1.465120	0.326065	-0.326120
C114	C	1.715120	0.576065	-0.076120
C115	C	1.965120	0.826065	0.173880
C116	C	2.215120	1.076065	0.423880
C117	C	1.165303	0.149508	-0.326140
C118	C	1.415303	0.399508	-0.076140
C119	C	1.665303	0.649508	0.173860
C120	C	1.915303	0.899508	0.423860
C121	C	1.165351	0.074276	-0.326160
C122	C	1.415351	0.324276	-0.076160
C123	C	1.665351	0.574276	0.173840
C124	C	1.915351	0.824276	0.423840
C125	C	1.216743	0.612473	-0.282828
C126	C	1.466743	0.862473	-0.032828
C127	C	1.716743	1.112473	0.217172
C128	C	1.966743	1.362473	0.467172
C129	C	1.216778	0.683162	-0.282843
C130	C	1.466778	0.933162	-0.032843
C131	C	1.716778	1.183162	0.217157
C132	C	1.966778	1.433162	0.467157
C133	C	1.165198	0.718514	-0.326095
C134	C	1.415198	0.968514	-0.076095
C135	C	1.665198	1.218514	0.173905
C136	C	1.915198	1.468514	0.423905
C137	C	1.113586	0.683174	-0.369340
C138	C	1.363586	0.933174	-0.119340
C139	C	1.613586	1.183174	0.130660
C140	C	1.863586	1.433174	0.380660
C141	C	1.113557	0.612487	-0.369328
C142	C	1.363557	0.862487	-0.119328
C143	C	1.613557	1.112487	0.130672
C144	C	1.863557	1.362487	0.380672
C145	C	1.113705	0.968248	-0.369390
C146	C	1.363705	1.218248	-0.119390
C147	C	1.613705	1.468248	0.130610
C148	C	1.863705	1.718248	0.380610
C149	C	1.113737	1.038940	-0.369398
C150	C	1.363737	1.288940	-0.119398
C151	C	1.613737	1.538940	0.130602
C152	C	1.863737	1.788940	0.380602
C153	C	1.216926	1.038922	-0.282905
C154	C	1.466926	1.288922	-0.032905
C155	C	1.716926	1.538922	0.217095
C156	C	1.966926	1.788922	0.467095
C157	C	1.216896	0.968235	-0.282893
C158	C	1.466896	1.218235	-0.032893
C159	C	1.716896	1.468235	0.217107
C160	C	1.966896	1.718235	0.467107
C161	C	1.165288	0.932901	-0.326140
C162	C	1.415288	1.182901	-0.076140
C163	C	1.665288	1.432901	0.173860
C164	C	1.915288	1.682901	0.423860
C165	C	1.165253	0.856253	-0.326124
C166	C	1.415253	1.106253	-0.076124
C167	C	1.665253	1.356253	0.173876
C168	C	1.915253	1.606253	0.423876
C169	C	1.165229	0.795161	-0.326108
C170	C	1.415229	1.045161	-0.076108
C171	C	1.665229	1.295161	0.173892
C172	C	1.915229	1.545161	0.423892
C173	C	1.216853	0.282700	-0.613229
C174	C	1.466853	0.532700	-0.363229
C175	C	1.716853	0.782700	-0.113229
C176	C	1.966853	1.032700	0.136771
C177	C	1.216862	0.282680	-0.683917
C178	C	1.466862	0.532680	-0.433917
C179	C	1.716862	0.782680	-0.183917
C180	C	1.966862	1.032680	0.066083
C181	C	1.165274	0.325954	-0.719243
C182	C	1.415274	0.575954	-0.469243
C183	C	1.665274	0.825954	-0.219243
C184	C	1.915274	1.075954	0.030757
C185	C	1.113669	0.369246	-0.683876
C186	C	1.363669	0.619246	-0.433876
C187	C	1.613669	0.869246	-0.183876
C188	C	1.863669	1.119246	0.066124
C189	C	1.113658	0.369262	-0.613189
C190	C	1.363658	0.619262	-0.363189
C191	C	1.613658	0.869262	-0.113189
C192	C	1.863658	1.119262	0.136811
C193	C	1.113715	0.369183	-0.968949
C194	C	1.363715	0.619183	-0.718949
C195	C	1.613715	0.869183	-0.468949
C196	C	1.863715	1.119183	-0.218949
C197	C	1.113732	0.369166	-1.039642
C198	C	1.363732	0.619166	-0.789642
C199	C	1.613732	0.869166	-0.539642
C200	C	1.863732	1.119166	-0.289642
C201	C	1.216919	0.282601	-1.039678
C202	C	1.466919	0.532601	-0.789678
C203	C	1.716919	0.782601	-0.539678
C204	C	1.966919	1.032601	-0.289678
C205	C	1.216907	0.282617	-0.968991
C206	C	1.466907	0.532617	-0.718991
C207	C	1.716907	0.782617	-0.468991
C208	C	1.966907	1.032617	-0.218991
C209	C	1.165300	0.325906	-0.933630
C210	C	1.415300	0.575906	-0.683630
C211	C	1.665300	0.825906	-0.433630
C212	C	1.915300	1.075906	-0.183630
C213	C	1.165290	0.325926	-0.856982
C214	C	1.415290	0.575926	-0.606982
C215	C	1.665290	0.825926	-0.356982
C216	C	1.915290	1.075926	-0.106982
C217	C	1.165287	0.325938	-0.795890
C218	C	1.415287	0.575938	-0.545890
C219	C	1.665287	0.825938	-0.295890
C220	C	1.915287	1.075938	-0.045890
C221	C	1.165191	0.326044	-0.150236
C222	C	1.415191	0.576044	0.099764
C223	C	1.665191	0.826044	0.349764
C224	C	1.915191	1.076044	0.599764
C225	C	1.165328	0.325872	-0.075005
C226	C	1.415328	0.575872	0.174995
C227	C	1.665328	0.825872	0.424995
C228	C	1.915328	1.075872	0.674995
H229	H	1.258742	0.583694	-0.247604
H230	H	1.508742	0.833694	0.002396
H231	H	1.758742	1.083694	0.252396
H232	H	2.008742	1.333694	0.502396
Cl233	Cl	1.048837	0.423605	-0.924505
Cl234	Cl	1.298837	0.673605	-0.674505
Cl235	Cl	1.548837	0.923605	-0.424505
Cl236	Cl	1.798837	1.173605	-0.174505
Cl237	Cl	1.281663	0.727579	-0.228483
Cl238	Cl	1.531663	0.977579	0.021517
Cl239	Cl	1.781663	1.227579	0.271517
Cl240	Cl	2.031663	1.477579	0.521517
Cl241	Cl	1.048747	0.727618	-0.423719
Cl242	Cl	1.298747	0.977618	-0.173719
Cl243	Cl	1.548747	1.227618	0.076281
Cl244	Cl	1.798747	1.477618	0.326281
H245	H	1.258895	0.939453	-0.247670
H246	H	1.508895	1.189453	0.002330
H247	H	1.758895	1.439453	0.252330
H248	H	2.008895	1.689453	0.502330
H249	H	1.258951	1.067699	-0.247693
H250	H	1.508951	1.317699	0.002307
H251	H	1.758951	1.567699	0.252307
H252	H	2.008951	1.817699	0.502307
Cl253	Cl	1.048874	0.423571	-1.084050
Cl254	Cl	1.298874	0.673571	-0.834050
Cl255	Cl	1.548874	0.923571	-0.584050
Cl256	Cl	1.798874	1.173571	-0.334050
Cl257	Cl	1.048785	0.423684	-0.568734
Cl258	Cl	1.298785	0.673684	-0.318734
Cl259	Cl	1.548785	0.923684	-0.068734
Cl260	Cl	1.798785	1.173684	0.181266
H261	H	1.258938	0.247351	-1.068477
H262	H	1.508938	0.497351	-0.818477
H263	H	1.758938	0.747351	-0.568477
H264	H	2.008938	0.997351	-0.318477
H265	H	1.071736	1.067722	-0.404624
H266	H	1.321736	1.317722	-0.154624
H267	H	1.571736	1.567722	0.095376
H268	H	1.821736	1.817722	0.345376
Cl269	Cl	1.048825	0.923838	-0.423757
Cl270	Cl	1.298825	1.173838	-0.173757
Cl271	Cl	1.548825	1.423838	0.076243
Cl272	Cl	1.798825	1.673838	0.326243
Cl273	Cl	1.048676	0.568066	-0.423692
Cl274	Cl	1.298676	0.818066	-0.173692
Cl275	Cl	1.548676	1.068066	0.076308
Cl276	Cl	1.798676	1.318066	0.326308
H277	H	1.258881	0.247430	-0.712705
H278	H	1.508881	0.497430	-0.462705
H279	H	1.758881	0.747430	-0.212705
H280	H	2.008881	0.997430	0.037295
H281	H	1.258865	0.247463	-0.584472
H282	H	1.508865	0.497463	-0.334472
H283	H	1.758865	0.747463	-0.084472
H284	H	2.008865	0.997463	0.165528
H285	H	1.258918	0.247381	-0.940232
H286	H	1.508918	0.497381	-0.690232
H287	H	1.758918	0.747381	-0.440232
H288	H	2.008918	0.997381	-0.190232
Cl289	Cl	1.048813	0.423646	-0.728285
Cl290	Cl	1.298813	0.673646	-0.478285
Cl291	Cl	1.548813	0.923646	-0.228285
Cl292	Cl	1.798813	1.173646	0.021715
