data_functionalizedCrystal
_audit_creation_method	'MofGen! by Chris Wilmer'
_symmetry_space_group_name_H-M	'P1'
_symmetry_Int_Tables_number	1
_symmetry_cell_setting	triclinic
loop_
_symmetry_equiv_pos_as_xyz
  x,y,z
_cell_length_a	25.639239
_cell_length_b	16.959455
_cell_length_c	16.959447
_cell_angle_alpha	89.979626
_cell_angle_beta	89.966924
_cell_angle_gamma	90.035706
loop_
_atom_site_label
_atom_site_type_symbol
_atom_site_fract_x
_atom_site_fract_y
_atom_site_fract_z
Zn1	Zn	-0.208182	1.208282	-0.447021
Zn2	Zn	-0.295623	1.208161	-0.314836
Zn3	Zn	-0.208199	1.076110	-0.314845
Zn4	Zn	-0.295584	1.076032	-0.446961
O5	O	-0.251897	1.142146	-0.380916
O6	O	-0.219791	1.318876	-0.429508
O7	O	-0.284049	1.190627	-0.204226
O8	O	-0.135031	1.093726	-0.332407
O9	O	-0.284033	1.318788	-0.332393
O10	O	-0.135019	1.190832	-0.429516
O11	O	-0.219819	1.093609	-0.204233
O12	O	-0.219781	0.965489	-0.332348
O13	O	-0.283966	1.093593	-0.557580
O14	O	-0.283982	0.965431	-0.429414
O15	O	-0.219753	1.190756	-0.557624
O16	O	-0.368783	1.190551	-0.332334
O17	O	-0.368754	1.093476	-0.429405
C18	C	-0.251880	0.936780	-0.380876
C19	C	-0.251885	0.848923	-0.380878
C20	C	-0.285315	0.477391	-0.330322
C21	C	-0.218522	0.477504	-0.431606
C22	C	-0.218514	0.560050	-0.431587
C23	C	-0.251907	0.601270	-0.380935
C24	C	-0.285308	0.559945	-0.330303
C25	C	-0.185117	0.601382	-0.482224
C26	C	-0.185107	0.683933	-0.482207
C27	C	-0.218498	0.725155	-0.431551
C28	C	-0.251900	0.683824	-0.380916
C29	C	-0.285293	0.725044	-0.330264
C30	C	-0.318693	0.683714	-0.279625
C31	C	-0.318699	0.601166	-0.279646
C32	C	-0.218492	0.807703	-0.431529
C33	C	-0.285286	0.807597	-0.330245
C34	C	-0.387739	1.142013	-0.380880
C35	C	-0.445853	1.142029	-0.380890
C36	C	-0.806219	1.192825	-0.330457
C37	C	-0.860823	1.192856	-0.330467
O38	O	-0.889062	1.235906	-0.287547
N39	N	-0.888136	1.142285	-0.380968
C40	C	-0.860841	1.091686	-0.431467
O41	O	-0.889087	1.048676	-0.474424
C42	C	-0.806238	1.091660	-0.431460
C43	C	-0.778928	1.142228	-0.380950
C44	C	-0.778909	1.243390	-0.279952
C45	C	-0.724308	1.243358	-0.279940
C46	C	-0.697018	1.192761	-0.330434
C47	C	-0.724328	1.142197	-0.380939
C48	C	-0.778945	1.041066	-0.481963
C49	C	-0.724338	1.041045	-0.481952
C50	C	-0.697028	1.091613	-0.431442
C51	C	-0.642437	1.091568	-0.431421
N52	N	-0.615124	1.142139	-0.380920
C53	C	-0.642414	1.192735	-0.330427
C54	C	-0.975512	1.091746	-0.431479
C55	C	-1.030114	1.091767	-0.431483
C56	C	-1.030092	1.192938	-0.330484
C57	C	-0.975489	1.192912	-0.330477
C58	C	-0.948199	1.142316	-0.380979
C59	C	-0.527749	1.192664	-0.330406
C60	C	-0.473144	1.192625	-0.330397
C61	C	-0.473171	1.091458	-0.431399
C62	C	-0.527771	1.091493	-0.431405
C63	C	-0.555059	1.142103	-0.380906
O64	O	-0.614163	1.048541	-0.474322
O65	O	-0.614162	1.235746	-0.287485
C66	C	-0.115524	1.142301	-0.380969
C67	C	-0.057410	1.142367	-0.380992
C68	C	-0.251853	1.142179	-0.587084
C69	C	-0.251835	1.142193	-0.674941
C70	C	-0.251914	1.348314	-0.380956
C71	C	-0.251922	1.436171	-0.380973
C72	C	-0.285213	1.091699	-1.046396
C73	C	-0.218347	1.192876	-1.046437
C74	C	-0.218358	1.192855	-0.963891
C75	C	-0.251798	1.142256	-0.922594
C76	C	-0.285226	1.091678	-0.963842
C77	C	-0.184934	1.243438	-0.922636
C78	C	-0.184944	1.243419	-0.840085
C79	C	-0.218381	1.192816	-0.798787
C80	C	-0.251811	1.142235	-0.840040
C81	C	-0.285250	1.091636	-0.798743
C82	C	-0.318678	1.041051	-0.839995
C83	C	-0.318664	1.041074	-0.922543
C84	C	-0.218395	1.192792	-0.716238
C85	C	-0.285264	1.091615	-0.716189
C86	C	-0.251902	1.142159	-0.175549
C87	C	-0.251773	1.142298	-0.087693
H88	H	-0.450910	1.233804	-0.289263
C89	C	-1.059667	1.036828	-0.486403
C90	C	-1.024073	0.992528	-0.530630
C91	C	-1.051276	0.941919	-0.581243
H92	H	-1.081007	1.002347	-0.456228
H93	H	-1.080920	1.067034	-0.520924
H94	H	-1.002830	0.962324	-0.496114
H95	H	-1.002732	1.026988	-0.560822
H96	H	-1.072529	0.972126	-0.615764
H97	H	-1.072615	0.907443	-0.551061
H98	H	-1.027130	0.911861	-0.611262
H99	H	-0.312427	1.050512	-1.079987
H100	H	-0.191299	0.841350	-0.472761
C101	C	-0.321486	1.036579	-0.671316
C102	C	-0.291888	0.985925	-0.623945
C103	C	-0.325238	0.935209	-0.582607
H104	H	-0.344287	1.066690	-0.639044
H105	H	-0.341380	1.006414	-0.707686
H106	H	-0.272002	1.016087	-0.587580
H107	H	-0.269088	0.955797	-0.656198
H108	H	-0.345132	0.905044	-0.618977
H109	H	-0.348037	0.965326	-0.550340
H110	H	-0.305160	0.900830	-0.550467
C111	C	-0.557451	1.036488	-0.486107
C112	C	-0.588847	0.985859	-0.441313
C113	C	-0.616186	0.935174	-0.491683
H114	H	-0.578756	1.066622	-0.520602
H115	H	-0.533391	1.006303	-0.516160
H116	H	-0.612905	1.016040	-0.411274
H117	H	-0.567556	0.955707	-0.406820
H118	H	-0.592125	0.904989	-0.521736
H119	H	-0.637487	0.965315	-0.526175
H120	H	-0.637487	0.900812	-0.461297
H121	H	-0.157910	0.717577	-0.523441
H122	H	-0.549961	1.233877	-0.289287
H123	H	-0.702076	1.284537	-0.238813
C124	C	-0.355014	0.986249	-0.795047
C125	C	-0.388525	1.030966	-0.747634
C126	C	-0.421999	0.980514	-0.706203
H127	H	-0.374972	0.956104	-0.831337
H128	H	-0.335028	0.951843	-0.762799
H129	H	-0.408508	1.065358	-0.779879
H130	H	-0.368581	1.061110	-0.711329
H131	H	-0.402013	0.946108	-0.673956
H132	H	-0.441954	0.950372	-0.742500
H133	H	-0.444737	1.010847	-0.674024
H134	H	-0.312478	0.841153	-0.288995
C135	C	-0.355036	0.728432	-0.224733
C136	C	-0.406784	0.708338	-0.241818
C137	C	-0.440277	0.749527	-0.191278
H138	H	-0.347412	0.714921	-0.171617
H139	H	-0.350283	0.783520	-0.231989
H140	H	-0.411534	0.653262	-0.234556
H141	H	-0.414424	0.721850	-0.294924
H142	H	-0.435524	0.804616	-0.198534
H143	H	-0.432648	0.736013	-0.138166
H144	H	-0.475391	0.735905	-0.202868
C145	C	-0.354942	0.556151	-0.224761
C146	C	-0.347811	0.475037	-0.235639
C147	C	-0.381195	0.433542	-0.185103
H148	H	-0.347280	0.569555	-0.171637
H149	H	-0.390091	0.569615	-0.236239
H150	H	-0.312670	0.461578	-0.224156
H151	H	-0.355477	0.461610	-0.288753
H152	H	-0.416344	0.447006	-0.196580
H153	H	-0.373530	0.446952	-0.131981
H154	H	-0.376364	0.378502	-0.192481
H155	H	-0.312507	0.443737	-0.289090
C156	C	-0.808438	1.298356	-0.225035
C157	C	-0.772824	1.342611	-0.180797
C158	C	-0.800003	1.393245	-0.130184
H159	H	-0.829708	1.332863	-0.255211
H160	H	-0.829759	1.268169	-0.190521
H161	H	-0.751511	1.372795	-0.215307
H162	H	-0.751553	1.308124	-0.150605
H163	H	-0.821324	1.363059	-0.095670
H164	H	-0.821271	1.427747	-0.160366
H165	H	-0.775842	1.423273	-0.100157
C166	C	-0.148847	0.556773	-0.537305
C167	C	-0.119608	0.610632	-0.581666
C168	C	-0.086196	0.569563	-0.632425
H169	H	-0.125997	0.524567	-0.507230
H170	H	-0.168871	0.524592	-0.571735
H171	H	-0.099586	0.642800	-0.547240
H172	H	-0.142445	0.642840	-0.611757
H173	H	-0.106220	0.537383	-0.666855
H174	H	-0.063349	0.537359	-0.602343
H175	H	-0.066357	0.606101	-0.662535
C176	C	-0.945935	1.247904	-0.275611
C177	C	-0.981529	1.292227	-0.231408
C178	C	-0.954326	1.342905	-0.180863
H179	H	-0.924665	1.217770	-0.241067
H180	H	-0.924612	1.282361	-0.305859
H181	H	-1.002843	1.257775	-0.201162
H182	H	-1.002799	1.322377	-0.265931
H183	H	-0.933003	1.377362	-0.211112
H184	H	-0.933057	1.312765	-0.146324
H185	H	-0.978472	1.372989	-0.150870
C186	C	-0.148592	1.298362	-0.795444
C187	C	-0.119296	1.342665	-0.849280
C188	C	-0.085798	1.393276	-0.808184
H189	H	-0.168540	1.332841	-0.763228
H190	H	-0.125785	1.268158	-0.763271
H191	H	-0.142101	1.372867	-0.881439
H192	H	-0.099338	1.308206	-0.881498
H193	H	-0.062990	1.363072	-0.776011
H194	H	-0.105749	1.427750	-0.775970
H195	H	-0.065913	1.423336	-0.844705
H196	H	-0.191125	1.234076	-1.080066
C197	C	-0.148655	1.298293	-0.967615
C198	C	-0.155790	1.287468	-1.048736
C199	C	-0.122374	1.337984	-1.090199
H200	H	-0.156286	1.351420	-0.954184
H201	H	-0.113513	1.286763	-0.954152
H202	H	-0.190923	1.299004	-1.062194
H203	H	-0.148155	1.234352	-1.062191
H204	H	-0.087233	1.326454	-1.076736
H205	H	-0.130008	1.391108	-1.076762
H206	H	-0.127207	1.330641	-1.145244
H207	H	-0.191338	0.443938	-0.472848
C208	C	-0.808492	0.986135	-0.536894
C209	C	-0.772894	0.941845	-0.581123
C210	C	-0.800092	0.891240	-0.631746
H211	H	-0.829831	0.951648	-0.506725
H212	H	-0.829744	1.016344	-0.571412
H213	H	-0.751650	0.911639	-0.546609
H214	H	-0.751553	0.976311	-0.611308
H215	H	-0.821345	0.921449	-0.666264
H216	H	-0.821431	0.856758	-0.601570
H217	H	-0.775944	0.861189	-0.661766
H218	H	-0.191181	1.233980	-0.682654
H219	H	-1.052322	1.234139	-0.289372
C220	C	-0.945858	1.036932	-0.486403
C221	C	-0.914469	1.081631	-0.537127
C222	C	-0.887153	1.031166	-0.587740
H223	H	-0.924550	1.002484	-0.456222
H224	H	-0.969931	1.006834	-0.516523
H225	H	-0.890398	1.111715	-0.507011
H226	H	-0.935764	1.116078	-0.567326
H227	H	-0.911226	1.001068	-0.617860
H228	H	-0.865848	0.996720	-0.557552
H229	H	-0.865856	1.061487	-0.622167
C230	C	-0.443629	1.036450	-0.486258
C231	C	-0.479228	0.992158	-0.530487
C232	C	-0.452032	0.941477	-0.581032
H233	H	-0.422294	1.066580	-0.520786
H234	H	-0.422372	1.001973	-0.456009
H235	H	-0.500477	1.026630	-0.560734
H236	H	-0.500564	0.962012	-0.495980
H237	H	-0.430775	0.907000	-0.550783
H238	H	-0.430698	0.971613	-0.615555
H239	H	-0.476182	0.911414	-0.611042
C240	C	-0.354935	0.986246	-0.967474
C241	C	-0.347776	0.997112	-1.048605
C242	C	-0.381184	0.946627	-1.090023
H243	H	-0.347313	0.933109	-0.954043
H244	H	-0.390079	0.997776	-0.953975
H245	H	-0.312639	0.985576	-1.062099
H246	H	-0.355401	1.050238	-1.062060
H247	H	-0.416328	0.958157	-1.076523
H248	H	-0.373560	0.893494	-1.076585
H249	H	-0.376334	0.953998	-1.145074
C250	C	-0.694681	0.986242	-0.536880
C251	C	-0.663290	1.030949	-0.587594
C252	C	-0.635969	0.980493	-0.638210
H253	H	-0.673374	0.951791	-0.506700
H254	H	-0.718752	0.956146	-0.567007
H255	H	-0.639222	1.061032	-0.557471
H256	H	-0.684584	1.065398	-0.617792
H257	H	-0.660040	0.950397	-0.668336
H258	H	-0.614665	0.946044	-0.608023
H259	H	-0.614671	1.010819	-0.672630
