data_functionalizedCrystal
_audit_creation_method	'MofGen! by Chris Wilmer'
_symmetry_space_group_name_H-M	'P1'
_symmetry_Int_Tables_number	1
_symmetry_cell_setting	triclinic
loop_
_symmetry_equiv_pos_as_xyz
  x,y,z
_cell_length_a	16.109301
_cell_length_b	9.016244
_cell_length_c	16.109301
_cell_angle_alpha	90.008190
_cell_angle_beta	83.461481
_cell_angle_gamma	89.999666
loop_
_atom_site_label
_atom_site_type_symbol
_atom_site_fract_x
_atom_site_fract_y
_atom_site_fract_z
O1	O	1.103129	0.123251	0.106870
O2	O	1.603129	0.623251	0.606870
O3	O	0.861067	0.123275	0.120169
O4	O	1.361067	0.623275	0.620169
O5	O	0.988748	0.123248	-0.007511
O6	O	1.488748	0.623248	0.492489
O7	O	0.975448	0.123279	0.234551
O8	O	1.475448	0.623279	0.734551
O9	O	0.988742	-0.123433	-0.007521
O10	O	1.488742	0.376567	0.492479
O11	O	0.861062	-0.123405	0.120160
O12	O	1.361062	0.376595	0.620160
O13	O	1.103124	-0.123430	0.106860
O14	O	1.603124	0.376570	0.606860
Cu15	Cu	0.982092	-0.145941	0.113509
Cu16	Cu	1.482092	0.354059	0.613509
Cu17	Cu	0.982099	0.145787	0.113520
Cu18	Cu	1.482099	0.645787	0.613520
O19	O	0.975443	-0.123402	0.234541
O20	O	1.475443	0.376598	0.734541
C21	C	0.830090	-0.000062	0.119626
C22	C	1.330090	0.499938	0.619626
C23	C	0.737794	-0.000053	0.118011
C24	C	1.237794	0.499947	0.618011
C25	C	0.515522	-0.000061	0.190018
C26	C	1.015522	0.499939	0.690018
C27	C	0.428801	-0.000071	0.188494
C28	C	0.928801	0.499929	0.688494
C29	C	0.448676	-0.000084	0.037006
C30	C	0.948676	0.499916	0.537006
C31	C	0.535394	-0.000085	0.038530
C32	C	1.035394	0.499915	0.538530
C33	C	0.568815	-0.000066	0.115039
C34	C	1.068815	0.499934	0.615039
C35	C	0.395376	-0.000075	0.111990
C36	C	0.895376	0.499925	0.611990
C37	C	0.301350	-0.000085	0.110337
C38	C	0.801350	0.499915	0.610337
C39	C	0.662847	-0.000058	0.116693
C40	C	1.162847	0.499942	0.616693
N41	N	0.982094	-0.351127	0.113501
N42	N	1.482094	0.148873	0.613501
C43	C	1.050645	-0.586129	0.045431
C44	C	1.550645	-0.086129	0.545431
C45	C	1.050464	-0.414238	0.045176
C46	C	1.550464	0.085762	0.545176
C47	C	0.895359	-0.413547	0.094577
C48	C	1.395359	0.086453	0.594577
C49	C	0.895767	-0.585492	0.094100
C50	C	1.395767	-0.085492	0.594100
C51	C	0.999514	-0.585622	0.200737
C52	C	1.499514	-0.085622	0.700737
C53	C	1.001481	-0.413666	0.200147
C54	C	1.501481	0.086334	0.700147
C55	C	1.134101	-0.000089	0.107404
C56	C	1.634101	0.499911	0.607404
C57	C	1.226397	-0.000088	0.109019
C58	C	1.726397	0.499912	0.609019
C59	C	0.988206	-0.000093	-0.038491
C60	C	1.488206	0.499907	0.461509
C61	C	0.986591	-0.000095	-0.130786
C62	C	1.486591	0.499905	0.369214
N63	N	0.982103	0.350973	0.113522
N64	N	1.482103	0.850973	0.613522
C65	C	1.058599	-0.000079	-0.353059
C66	C	1.558599	0.499921	0.146941
C67	C	1.057075	-0.000067	-0.439779
C68	C	1.557075	0.499933	0.060221
C69	C	0.905586	-0.000057	-0.419905
C70	C	1.405586	0.499943	0.080095
C71	C	0.907111	-0.000059	-0.333186
C72	C	1.407111	0.499941	0.166814
C73	C	0.983620	-0.000078	-0.299766
C74	C	1.483620	0.499922	0.200234
C75	C	0.980571	-0.000063	-0.473205
C76	C	1.480571	0.499937	0.026795
C77	C	0.978918	-0.000050	-0.567231
C78	C	1.478918	0.499950	-0.067231
C79	C	0.985273	-0.000088	-0.205734
C80	C	1.485273	0.499912	0.294266
C81	C	0.975984	-0.000057	0.265521
C82	C	1.475984	0.499943	0.765521
C83	C	0.977600	-0.000046	0.357816
C84	C	1.477600	0.499954	0.857816
H85	H	0.421454	-0.000109	-0.025285
H86	H	0.921454	0.499891	0.474715
H87	H	0.578788	-0.000094	-0.022530
H88	H	1.078788	0.499906	0.477470
H89	H	1.065287	-0.372870	0.214508
H90	H	1.565287	0.127130	0.714508
N91	N	1.135866	-0.358319	0.060094
N92	N	1.635866	0.141681	0.560094
H93	H	1.173969	-0.445367	0.066896
H94	H	1.673969	0.054633	0.566896
H95	H	1.159758	-0.296267	0.010893
H96	H	1.659758	0.203733	0.510893
H97	H	0.542730	-0.000057	0.252317
H98	H	1.042730	0.499943	0.752317
N99	N	1.136342	-0.640882	0.060108
N100	N	1.636342	-0.140882	0.560108
H101	H	1.131571	-0.706995	0.111036
H102	H	1.631571	-0.206995	0.611036
H103	H	1.161435	-0.698840	0.009739
H104	H	1.661435	-0.198840	0.509739
H105	H	1.039687	-0.629363	-0.018925
H106	H	1.539687	-0.129363	0.481075
H107	H	1.039342	-0.373126	-0.019550
H108	H	1.539342	0.126874	0.480450
H109	H	1.118130	-0.000065	-0.483168
H110	H	1.618130	0.499935	0.016832
H111	H	1.120897	-0.000091	-0.325851
H112	H	1.620897	0.499909	0.174149
H113	H	0.879631	-0.370505	0.031695
H114	H	1.379631	0.129495	0.531695
N115	N	0.875451	-0.638660	0.009847
N116	N	1.375451	-0.138660	0.509847
H117	H	0.866315	-0.550402	-0.026634
H118	H	1.366315	-0.050402	0.473366
H119	H	0.923388	-0.700150	-0.017480
H120	H	1.423388	-0.200150	0.482520
N121	N	0.939636	-0.356770	0.270410
N122	N	1.439636	0.143230	0.770410
H123	H	0.897986	-0.289351	0.246965
H124	H	1.397986	0.210649	0.746965
H125	H	0.909271	-0.443278	0.299863
H126	H	1.409271	0.056722	0.799863
H127	H	0.385413	-0.000070	0.249550
H128	H	0.885413	0.499930	0.749550
H129	H	0.843232	-0.627100	0.141810
H130	H	1.343232	-0.127100	0.641810
H131	H	0.843125	-0.372668	0.142849
H132	H	1.343125	0.127332	0.642849
N133	N	0.933308	-0.639492	0.267860
N134	N	1.433308	-0.139492	0.767860
H135	H	0.892229	-0.704649	0.241949
H136	H	1.392229	-0.204649	0.741949
H137	H	0.960518	-0.698245	0.310784
H138	H	1.460518	-0.198245	0.810784
H139	H	1.061409	-0.628979	0.218933
H140	H	1.561409	-0.128979	0.718933
H141	H	0.843295	-0.000045	-0.447127
H142	H	1.343295	0.499955	0.052873
N143	N	0.826237	-0.000047	-0.275698
N144	N	1.326237	0.499953	0.224302
H145	H	0.777538	-0.000045	-0.310026
H146	H	1.277538	0.499955	0.189974
H147	H	0.823571	-0.091493	-0.239290
H148	H	1.323571	0.408507	0.260710
