data_functionalizedCrystal
_audit_creation_method	'MofGen! by Chris Wilmer'
_symmetry_space_group_name_H-M	'P1'
_symmetry_Int_Tables_number	1
_symmetry_cell_setting	triclinic
loop_
_symmetry_equiv_pos_as_xyz
  x,y,z
_cell_length_a	19.805405
_cell_length_b	21.295418
_cell_length_c	19.805399
_cell_angle_alpha	90.041941
_cell_angle_beta	89.973385
_cell_angle_gamma	89.955065
loop_
_atom_site_label
_atom_site_type_symbol
_atom_site_fract_x
_atom_site_fract_y
_atom_site_fract_z
Zn1	Zn	-0.269150	-0.962336	-0.383128
Zn2	Zn	0.064184	-0.629002	-0.049795
Zn3	Zn	0.397517	-0.295669	0.283538
Zn4	Zn	-0.382338	-0.962256	-0.269942
Zn5	Zn	-0.049005	-0.628923	0.063391
Zn6	Zn	0.284328	-0.295589	0.396725
Zn7	Zn	-0.269204	-0.857070	-0.269909
Zn8	Zn	0.064129	-0.523736	0.063425
Zn9	Zn	0.397462	-0.190403	0.396758
Zn10	Zn	-0.382338	-0.857035	-0.383044
Zn11	Zn	-0.049005	-0.523702	-0.049711
Zn12	Zn	0.284328	-0.190369	0.283622
O13	O	-0.325758	-0.909674	-0.326506
O14	O	0.007576	-0.576341	0.006827
O15	O	0.340909	-0.243007	0.340161
O16	O	-0.284142	-1.050414	-0.368163
O17	O	0.049192	-0.717081	-0.034830
O18	O	0.382525	-0.383748	0.298504
O19	O	-0.367354	-0.948284	-0.175221
O20	O	-0.034020	-0.614950	0.158112
O21	O	0.299313	-0.281617	0.491446
O22	O	-0.174481	-0.871081	-0.284949
O23	O	0.158853	-0.537748	0.048385
O24	O	0.492186	-0.204415	0.381718
O25	O	-0.367301	-1.050356	-0.285005
O26	O	-0.033967	-0.717023	0.048328
O27	O	0.299366	-0.383689	0.381661
O28	O	-0.174440	-0.948420	-0.368131
O29	O	0.158893	-0.615086	-0.034797
O30	O	0.492226	-0.281753	0.298536
O31	O	-0.284235	-0.871004	-0.175196
O32	O	0.049099	-0.537671	0.158137
O33	O	0.382432	-0.204337	0.491470
O34	O	-0.284235	-0.768976	-0.284867
O35	O	0.049099	-0.435642	0.048466
O36	O	0.382432	-0.102309	0.381799
O37	O	-0.367301	-0.871022	-0.477772
O38	O	-0.033967	-0.537689	-0.144439
O39	O	0.299366	-0.204356	0.188894
O40	O	-0.367354	-0.768950	-0.367988
O41	O	-0.034020	-0.435617	-0.034654
O42	O	0.299313	-0.102284	0.298679
O43	O	-0.284142	-0.948386	-0.477834
O44	O	0.049192	-0.615053	-0.144500
O45	O	0.382525	-0.281720	0.188833
O46	O	-0.477055	-0.948250	-0.284924
O47	O	-0.143721	-0.614917	0.048409
O48	O	0.189612	-0.281584	0.381743
O49	O	-0.477055	-0.870945	-0.368020
O50	O	-0.143721	-0.537612	-0.034687
O51	O	0.189612	-0.204278	0.298647
C52	C	-0.325801	-0.746122	-0.326415
C53	C	0.007533	-0.412789	0.006918
C54	C	0.340866	-0.079456	0.340251
C55	C	-0.325835	-0.676154	-0.326393
C56	C	0.007498	-0.342821	0.006941
C57	C	0.340831	-0.009488	0.340274
C58	C	-0.369174	-0.643291	-0.369606
C59	C	-0.035841	-0.309958	-0.036273
C60	C	0.297493	0.023376	0.297061
C61	C	-0.369160	-0.577548	-0.369631
C62	C	-0.035827	-0.244215	-0.036298
C63	C	0.297506	0.089118	0.297035
C64	C	-0.325815	-0.544672	-0.326431
C65	C	0.007518	-0.211338	0.006902
C66	C	0.340852	0.121995	0.340236
C67	C	-0.282468	-0.577543	-0.283215
C68	C	0.050866	-0.244210	0.050119
C69	C	0.384199	0.089124	0.383452
C70	C	-0.282478	-0.643284	-0.283195
C71	C	0.050855	-0.309951	0.050138
C72	C	0.384189	0.023382	0.383471
N73	N	-0.320531	-0.441401	-0.267223
N74	N	0.012802	-0.108068	0.066110
N75	N	0.346135	0.225266	0.399444
N76	N	-0.320526	-0.378950	-0.267243
N77	N	0.012808	-0.045616	0.066090
N78	N	0.346141	0.287717	0.399423
C79	C	-0.325781	-0.346597	-0.326488
C80	C	0.007553	-0.013264	0.006846
C81	C	0.340886	0.320070	0.340179
N82	N	-0.331055	-0.379055	-0.385712
N83	N	0.002278	-0.045722	-0.052379
N84	N	0.335612	0.287611	0.280954
N85	N	-0.331064	-0.441512	-0.385691
N86	N	0.002269	-0.108179	-0.052358
N87	N	0.335603	0.225154	0.280975
C88	C	-0.325799	-0.473386	-0.326448
C89	C	0.007534	-0.140053	0.006886
C90	C	0.340868	0.193280	0.340219
C91	C	-0.369107	-0.242448	-0.369732
C92	C	-0.035774	0.090885	-0.036399
C93	C	0.297560	0.424218	0.296934
C94	C	-0.369089	-0.176705	-0.369759
C95	C	-0.035755	0.156629	-0.036425
C96	C	0.297578	0.489962	0.296908
C97	C	-0.282399	-0.176701	-0.283336
C98	C	0.050934	0.156633	0.049998
C99	C	0.384267	0.489966	0.383331
C100	C	-0.282414	-0.242443	-0.283315
C101	C	0.050919	0.090890	0.050018
C102	C	0.384252	0.424224	0.383351
C103	C	-0.325772	-0.275313	-0.326513
C104	C	0.007562	0.058020	0.006821
C105	C	0.340895	0.391354	0.340154
C106	C	-0.501614	-0.909602	-0.326481
C107	C	-0.168280	-0.576269	0.006852
C108	C	0.165053	-0.242936	0.340185
C109	C	-0.576846	-0.909629	-0.326493
C110	C	-0.243512	-0.576296	0.006840
C111	C	0.089821	-0.242963	0.340173
C112	C	-0.612111	-0.949876	-0.369840
C113	C	-0.278777	-0.616542	-0.036507
C114	C	0.054556	-0.283209	0.296826
C115	C	-0.682799	-0.949898	-0.369853
C116	C	-0.349466	-0.616565	-0.036520
C117	C	-0.016132	-0.283232	0.296814
C118	C	-0.718221	-0.909677	-0.326515
C119	C	-0.384888	-0.576344	0.006819
C120	C	-0.051555	-0.243011	0.340152
C121	C	-0.682951	-0.869427	-0.283166
C122	C	-0.349618	-0.536093	0.050167
C123	C	-0.016285	-0.202760	0.383501
C124	C	-0.612264	-0.869401	-0.283157
C125	C	-0.278931	-0.536068	0.050176
C126	C	0.054402	-0.202735	0.383509
C127	C	-0.968025	-0.869528	-0.283201
C128	C	-0.634691	-0.536194	0.050133
C129	C	-0.301358	-0.202861	0.383466
C130	C	-1.038717	-0.869558	-0.283211
C131	C	-0.705383	-0.536224	0.050122
C132	C	-0.372050	-0.202891	0.383455
C133	C	-1.038559	-0.950025	-0.369896
C134	C	-0.705226	-0.616691	-0.036563
C135	C	-0.371893	-0.283358	0.296770
C136	C	-0.967872	-0.949999	-0.369888
C137	C	-0.634539	-0.616666	-0.036554
C138	C	-0.301206	-0.283333	0.296779
C139	C	-0.932609	-0.909747	-0.326542
C140	C	-0.599275	-0.576413	0.006792
C141	C	-0.265942	-0.243080	0.340125
C142	C	-0.855960	-0.909722	-0.326529
C143	C	-0.522627	-0.576388	0.006804
C144	C	-0.189294	-0.243055	0.340137
C145	C	-0.794868	-0.909705	-0.326523
C146	C	-0.461535	-0.576372	0.006810
C147	C	-0.128202	-0.243038	0.340144
C148	C	-0.149215	-0.909763	-0.326545
C149	C	0.184118	-0.576430	0.006788
C150	C	0.517452	-0.243097	0.340121
C151	C	-0.073983	-0.909801	-0.326562
C152	C	0.259350	-0.576468	0.006771
C153	C	0.592684	-0.243135	0.340105
C154	C	-0.325715	-0.909709	-0.503049
C155	C	0.007618	-0.576376	-0.169715
C156	C	0.340952	-0.243043	0.163618
C157	C	-0.325697	-0.909724	-0.578281
C158	C	0.007636	-0.576391	-0.244947
C159	C	0.340970	-0.243058	0.088386
C160	C	-0.325726	-0.073864	-0.326578
C161	C	0.007607	0.259469	0.006756
C162	C	0.340940	0.592802	0.340089
C163	C	-0.325742	-0.143832	-0.326559
C164	C	0.007591	0.189501	0.006775
C165	C	0.340925	0.522834	0.340108
C166	C	-0.282394	-0.950009	-0.613658
C167	C	0.050940	-0.616675	-0.280325
C168	C	0.384273	-0.283342	0.053009
C169	C	-0.282374	-0.950015	-0.684346
C170	C	0.050959	-0.616682	-0.351013
C171	C	0.384292	-0.283348	-0.017680
C172	C	-0.325662	-0.909740	-0.719656
C173	C	0.007672	-0.576407	-0.386323
C174	C	0.341005	-0.243073	-0.052990
C175	C	-0.368966	-0.869451	-0.684274
C176	C	-0.035633	-0.536118	-0.350941
C177	C	0.297700	-0.202785	-0.017607
C178	C	-0.368982	-0.869442	-0.613587
C179	C	-0.035649	-0.536109	-0.280254
C180	C	0.297684	-0.202776	0.053080
C181	C	-0.368903	-0.869487	-0.969348
C182	C	-0.035570	-0.536154	-0.636014
C183	C	0.297763	-0.202820	-0.302681
C184	C	-0.368886	-0.869501	-1.040040
C185	C	-0.035552	-0.536167	-0.706706
C186	C	0.297781	-0.202834	-0.373373
C187	C	-0.282295	-0.950060	-1.040107
C188	C	0.051038	-0.616727	-0.706774
C189	C	0.384371	-0.283393	-0.373440
C190	C	-0.282311	-0.950051	-0.969420
C191	C	0.051022	-0.616717	-0.636087
C192	C	0.384356	-0.283384	-0.302753
C193	C	-0.325613	-0.909760	-0.934044
C194	C	0.007720	-0.576427	-0.600711
C195	C	0.341053	-0.243093	-0.267377
C196	C	-0.325633	-0.909753	-0.857395
C197	C	0.007700	-0.576419	-0.524062
C198	C	0.341034	-0.243086	-0.190729
C199	C	-0.325646	-0.909750	-0.796304
C200	C	0.007688	-0.576417	-0.462970
C201	C	0.341021	-0.243083	-0.129637
C202	C	-0.325751	-0.909675	-0.150650
C203	C	0.007582	-0.576342	0.182683
C204	C	0.340915	-0.243008	0.516017
C205	C	-0.325579	-0.909782	-0.075418
C206	C	0.007755	-0.576449	0.257915
C207	C	0.341088	-0.243115	0.591248
H208	H	-0.404478	-0.670050	-0.404782
H209	H	-0.071145	-0.336716	-0.071448
H210	H	0.262188	-0.003383	0.261885
Cl211	Cl	-1.082895	-1.000627	-0.424392
Cl212	Cl	-0.749562	-0.667293	-0.091059
Cl213	Cl	-0.416229	-0.333960	0.242275
Cl214	Cl	-0.227903	-0.135376	-0.229030
Cl215	Cl	0.105430	0.197957	0.104303
Cl216	Cl	0.438764	0.531291	0.437636
H217	H	-0.247064	-0.982849	-0.940674
H218	H	0.086269	-0.649516	-0.607341
H219	H	0.419602	-0.316182	-0.274007
Cl220	Cl	-0.227973	-0.536214	-0.228909
Cl221	Cl	0.105360	-0.202880	0.104424
Cl222	Cl	0.438694	0.130453	0.437758
H223	H	-0.404209	-0.836656	-0.713029
H224	H	-0.070876	-0.503323	-0.379696
H225	H	0.262457	-0.169990	-0.046362
Cl226	Cl	-0.227930	-0.283759	-0.228984
Cl227	Cl	0.105403	0.049574	0.104349
Cl228	Cl	0.438737	0.382907	0.437682
H229	H	-0.939318	-0.836754	-0.247906
H230	H	-0.605985	-0.503420	0.085427
H231	H	-0.272652	-0.170087	0.418761
Cl232	Cl	-0.423341	-0.818836	-0.924884
Cl233	Cl	-0.090008	-0.485503	-0.591551
Cl234	Cl	0.243326	-0.152169	-0.258217
Cl235	Cl	-0.227855	-1.000710	-1.084584
Cl236	Cl	0.105479	-0.667376	-0.751251
Cl237	Cl	0.438812	-0.334043	-0.417918
H238	H	-0.404452	-0.550786	-0.404824
H239	H	-0.071118	-0.217452	-0.071490
H240	H	0.262215	0.115881	0.261843
H241	H	-1.067555	-0.836802	-0.247919
H242	H	-0.734222	-0.503469	0.085414
H243	H	-0.400889	-0.170135	0.418747
H244	H	-0.711798	-0.836676	-0.247882
H245	H	-0.378464	-0.503342	0.085451
H246	H	-0.045131	-0.170009	0.418784
H247	H	-0.404408	-0.269212	-0.404910
H248	H	-0.071074	0.064121	-0.071576
H249	H	0.262259	0.397454	0.261757
H250	H	-0.583552	-0.836628	-0.247861
H251	H	-0.250219	-0.503294	0.085472
H252	H	0.083115	-0.169961	0.418806
Cl253	Cl	-0.227975	-1.000646	-0.569275
Cl254	Cl	0.105358	-0.667313	-0.235942
Cl255	Cl	0.438691	-0.333980	0.097391
H256	H	-0.247114	-0.982820	-0.713148
H257	H	0.086219	-0.649487	-0.379814
H258	H	0.419553	-0.316153	-0.046481
H259	H	-0.404237	-0.836632	-0.584784
H260	H	-0.070904	-0.503299	-0.251450
H261	H	0.262429	-0.169966	0.081883
Cl262	Cl	-0.423573	-0.135390	-0.424094
Cl263	Cl	-0.090240	0.197943	-0.090760
Cl264	Cl	0.243094	0.531277	0.242573
Cl265	Cl	-0.227990	-0.684601	-0.228865
Cl266	Cl	0.105343	-0.351267	0.104468
Cl267	Cl	0.438676	-0.017934	0.437802
H268	H	-0.583275	-0.982631	-0.405128
H269	H	-0.249941	-0.649297	-0.071795
H270	H	0.083392	-0.315964	0.261539
Cl271	Cl	-0.727129	-1.000488	-0.424358
Cl272	Cl	-0.393796	-0.667154	-0.091024
Cl273	Cl	-0.060463	-0.333821	0.242309
Cl274	Cl	-0.423308	-0.818864	-1.084428
Cl275	Cl	-0.089974	-0.485531	-0.751095
Cl276	Cl	0.243359	-0.152198	-0.417762
H277	H	-0.939034	-0.982753	-0.405175
H278	H	-0.605701	-0.649420	-0.071842
H279	H	-0.272367	-0.316086	0.261492
