data_functionalizedCrystal
_audit_creation_method	'MofGen! by Chris Wilmer'
_symmetry_space_group_name_H-M	'P1'
_symmetry_Int_Tables_number	1
_symmetry_cell_setting	triclinic
loop_
_symmetry_equiv_pos_as_xyz
  x,y,z
_cell_length_a	20.875641
_cell_length_b	18.878441
_cell_length_c	18.878441
_cell_angle_alpha	89.999761
_cell_angle_beta	62.437863
_cell_angle_gamma	57.591857
loop_
_atom_site_label
_atom_site_type_symbol
_atom_site_fract_x
_atom_site_fract_y
_atom_site_fract_z
Zr1	Zr	0.702076	-0.121396	0.710864
O2	O	0.835896	-0.239922	0.603181
O3	O	0.568258	-0.081302	0.740114
O4	O	0.702071	-0.234499	0.745538
O5	O	0.702086	0.029843	0.597756
O6	O	0.702067	-0.234498	0.862110
O7	O	0.702082	-0.086725	0.597756
O8	O	0.462698	0.039543	0.852407
O9	O	0.941454	-0.244198	0.607459
O10	O	0.623296	-0.068744	0.844129
O11	O	0.623302	0.018248	0.757132
O12	O	0.780850	-0.162121	0.763519
O13	O	0.780857	-0.075129	0.676522
Zr14	Zr	0.702075	0.064517	0.896783
Zr15	Zr	0.702069	-0.121395	0.896784
Zr16	Zr	0.702082	0.064516	0.710863
Zr17	Zr	0.870430	-0.128217	0.717688
Zr18	Zr	0.533722	0.071338	0.889959
O19	O	0.835894	0.024423	0.867533
O20	O	0.835885	-0.239920	0.867534
O21	O	0.835904	0.024421	0.603180
O22	O	0.568255	0.183043	1.004466
O23	O	0.568247	-0.081300	1.004467
O24	O	0.568266	0.183041	0.740113
O25	O	0.702065	-0.086722	1.009891
O26	O	0.702080	0.177620	0.862109
O27	O	0.702085	0.177619	0.745537
O28	O	0.702069	0.029846	1.009891
O29	O	0.941448	-0.244197	0.755240
O30	O	0.462703	0.187318	0.852407
O31	O	0.462697	0.187319	1.000188
O32	O	0.462692	0.039544	1.000188
O33	O	0.941459	-0.096423	0.607459
O34	O	0.941453	-0.096422	0.755240
O35	O	0.623301	0.105242	0.844128
O36	O	0.623295	0.018250	0.931125
O37	O	0.780849	-0.075127	0.850515
O38	O	0.780856	0.011865	0.763518
C39	C	0.491491	-0.019908	0.795288
C40	C	0.420021	-0.017012	0.792391
C41	C	0.702085	-0.028441	0.571267
C42	C	0.702088	-0.028442	0.492339
C43	C	0.702083	0.204108	0.803823
C44	C	0.702086	0.283032	0.803822
C45	C	0.386441	-0.061061	0.836440
C46	C	0.319282	-0.058332	0.833720
C47	C	0.285709	-0.011559	0.786946
C48	C	0.319292	0.032496	0.742897
C49	C	0.386445	0.029771	0.745622
C50	C	0.084866	0.001463	0.773931
C51	C	0.017711	0.004182	0.771207
C52	C	0.017704	-0.086645	0.862032
C53	C	0.084862	-0.089369	0.864749
C54	C	0.118436	-0.045311	0.820703
N55	N	0.217064	-0.008770	0.784163
N56	N	0.187075	-0.048095	0.823492
C57	C	0.912660	-0.036971	0.812359
C58	C	0.984130	-0.039867	0.815256
C59	C	0.702068	-0.260987	0.803824
C60	C	0.702066	-0.339912	0.803825
C61	C	0.784327	0.271372	0.761746
C62	C	0.784324	0.345533	0.761742
C63	C	0.702079	0.431354	0.803819
C64	C	0.619831	0.443013	0.845897
C65	C	0.619835	0.368853	0.845896
C66	C	0.619829	0.597583	0.845898
C67	C	0.619825	0.671749	0.845901
C68	C	0.784317	0.574264	0.761744
C69	C	0.784321	0.500103	0.761743
C70	C	0.702074	0.511768	0.803822
C71	C	0.619822	0.020303	0.194467
C72	C	0.619826	0.020298	0.268624
C73	C	0.702072	-0.028442	0.263621
C74	C	0.784319	-0.077188	0.184453
C75	C	0.784314	-0.077188	0.110298
C76	C	0.784324	-0.077183	0.339020
C77	C	0.784329	-0.077182	0.413180
C78	C	0.619836	0.020303	0.497346
C79	C	0.619831	0.020303	0.423191
C80	C	0.702078	-0.028442	0.344028
C81	C	0.702066	-0.028438	1.036380
C82	C	0.702063	-0.028437	1.115308
C83	C	0.491482	-0.019906	1.027845
C84	C	0.420008	-0.017010	1.103876
C85	C	0.491499	0.212640	0.795287
C86	C	0.420031	0.294460	0.792390
C87	C	0.491489	0.212641	1.027844
C88	C	0.420018	0.294462	1.103875
C89	C	0.912662	-0.269520	0.579803
C90	C	0.984133	-0.351341	0.503772
C91	C	0.912669	-0.036973	0.579802
C92	C	0.984143	-0.039869	0.503771
C93	C	0.912652	-0.269519	0.812360
C94	C	0.984120	-0.351339	0.815257
C95	C	0.386444	-0.061068	1.094170
C96	C	0.319296	-0.058364	1.165602
C97	C	0.285709	-0.011597	1.246740
C98	C	0.319280	0.032461	1.256444
C99	C	0.386432	0.029752	1.185013
C100	C	0.386469	0.378301	0.836441
C101	C	0.319326	0.455186	0.833716
C102	C	0.285743	0.448229	0.786945
C103	C	0.319312	0.364378	0.742889
C104	C	0.386458	0.287495	0.745609
C105	C	0.386451	0.287477	1.184999
C106	C	0.319306	0.364348	1.256445
C107	C	0.285724	0.448205	1.246765
C108	C	0.319298	0.455188	1.165633
C109	C	0.386447	0.378317	1.094188
C110	C	1.017708	-0.344356	0.422649
C111	C	1.084874	-0.421229	0.351203
C112	C	1.118460	-0.505085	0.360883
C113	C	1.084882	-0.512068	0.442015
C114	C	1.017721	-0.435197	0.513459
C115	C	1.017715	0.004181	0.513478
C116	C	1.084881	0.001456	0.442046
C117	C	1.118470	-0.045314	0.360909
C118	C	1.084896	-0.089369	0.351204
C119	C	1.017735	-0.086649	0.422635
C120	C	1.017682	-0.344352	0.862036
C121	C	1.084825	-0.421224	0.864775
C122	C	1.118409	-0.505080	0.820729
C123	C	1.084841	-0.512065	0.773948
C124	C	1.017695	-0.435194	0.771215
H125	H	0.413775	-0.099154	0.874523
H126	H	1.173156	-0.047521	0.302752
N127	N	0.422677	0.385826	0.886893
H128	H	0.450544	0.417450	0.864193
H129	H	0.470271	0.324377	0.881926
H130	H	0.291959	0.358727	0.704808
H131	H	0.552867	0.059993	0.561805
H132	H	1.112149	-0.415520	0.902868
H133	H	1.112254	-0.127448	0.285132
H134	H	0.552866	0.512895	0.880153
H135	H	0.413776	0.219231	0.709740
H136	H	0.990403	-0.122517	0.414719
N137	N	0.283100	-0.105888	1.155115
H138	H	0.255240	-0.080929	1.121229
H139	H	0.235503	-0.097075	1.212702
H140	H	0.292002	0.523453	0.869595
N141	N	0.873029	-0.129759	0.407797
H142	H	0.876698	-0.088258	0.436685
H143	H	0.925085	-0.160645	0.346381
H144	H	0.291941	-0.094199	0.869588
N145	N	-0.018522	-0.134150	0.909541
H146	H	-0.046386	-0.109201	0.971940
H147	H	0.032749	-0.199744	0.887732
H148	H	0.231047	0.510791	1.304947
N149	N	0.283043	0.082914	1.343957
H150	H	0.334264	0.057032	1.352998
H151	H	0.235394	0.077933	1.387676
N152	N	1.121092	0.048969	0.452518
H153	H	1.069860	0.114572	0.483194
H154	H	1.168752	0.040073	0.394927
H155	H	0.990348	-0.276079	0.897904
N156	N	1.190838	-0.587992	0.823668
H157	H	1.167469	-0.622741	0.848567
H158	H	1.206979	-0.570771	0.859970
H159	H	1.112195	-0.580351	0.738087
N160	N	0.283073	0.545635	1.155199
H161	H	0.235439	0.593266	1.212773
H162	H	0.255252	0.553637	1.121287
H163	H	0.990376	-0.440895	0.733118
H164	H	0.413790	-0.099161	1.028110
H165	H	0.552858	0.059975	0.333076
N166	N	0.121076	-0.139822	0.915193
H167	H	0.089612	-0.167314	0.942685
H168	H	0.109391	-0.097657	0.960374
N169	N	0.422671	0.197039	1.195456
H170	H	0.470305	0.149392	1.137891
H171	H	0.371385	0.192247	1.226178
N172	N	1.190896	-0.587993	0.283822
H173	H	1.207062	-0.570835	0.230964
H174	H	1.167476	-0.622706	0.282908
N175	N	0.422631	0.077273	1.195488
H176	H	0.410947	0.123449	1.166277
H177	H	0.490030	0.032837	1.169489
H178	H	0.851283	-0.116879	0.045843
H179	H	-0.009621	0.042270	0.733115
N180	N	0.873031	-0.129761	0.253636
H181	H	0.925135	-0.160636	0.261717
H182	H	0.876609	-0.088208	0.221035
H183	H	0.990371	0.042271	0.579538
H184	H	0.990367	-0.276083	0.414751
N185	N	0.121087	0.048964	0.726409
H186	H	0.168722	0.040146	0.735230
H187	H	0.069804	0.114547	0.748169
H188	H	0.413788	0.065638	0.709751
N189	N	0.283078	0.082953	0.692455
H190	H	0.235443	0.077994	0.697410
H191	H	0.334368	0.057033	0.631027
H192	H	0.851293	0.336031	0.727480
H193	H	1.112202	-0.415525	0.285149
H194	H	0.552854	0.607088	0.880159
N195	N	0.531122	0.072873	0.428591
H196	H	0.527459	0.031370	0.399699
H197	H	0.527507	0.118717	0.399712
N198	N	0.531133	0.381425	0.891278
H199	H	0.479030	0.447045	0.917936
H200	H	0.527551	0.352779	0.936785
N201	N	0.213311	0.531155	0.784023
H202	H	0.236675	0.530255	0.723471
H203	H	0.197172	0.585277	0.819073
N204	N	0.873035	0.178810	0.716377
H205	H	0.925133	0.182680	0.689724
H206	H	0.876631	0.145905	0.670866
N207	N	1.121109	-0.602516	0.452449
H208	H	1.168745	-0.650146	0.394876
H209	H	1.069826	-0.607315	0.483154
H210	H	0.851285	-0.116878	0.180385
H211	H	0.851292	0.430226	0.727485
H212	H	0.231030	-0.009398	1.304896
H213	H	0.291977	0.358646	1.322500
H214	H	0.851286	0.564768	0.727480
N215	N	0.422644	0.385858	1.006691
H216	H	0.391174	0.450647	1.011408
H217	H	0.410947	0.357551	0.973473
N218	N	0.531120	0.764314	0.891282
H219	H	0.479017	0.760452	0.917934
H220	H	0.527548	0.797201	0.849436
H221	H	0.552848	0.059997	0.198551
H222	H	0.990385	-0.440894	0.579512
