data_functionalizedCrystal
_audit_creation_method	'MofGen! by Chris Wilmer'
_symmetry_space_group_name_H-M	'P1'
_symmetry_Int_Tables_number	1
_symmetry_cell_setting	triclinic
loop_
_symmetry_equiv_pos_as_xyz
  x,y,z
_cell_length_a	16.176319
_cell_length_b	19.288864
_cell_length_c	19.288865
_cell_angle_alpha	83.136245
_cell_angle_beta	90.012037
_cell_angle_gamma	90.021265
loop_
_atom_site_label
_atom_site_type_symbol
_atom_site_fract_x
_atom_site_fract_y
_atom_site_fract_z
O1	O	-0.069021	-0.921351	-0.086649
O2	O	0.430979	-0.421351	0.413351
O3	O	-0.068966	-0.719090	-0.098338
O4	O	0.431034	-0.219090	0.401662
O5	O	-0.068979	-0.826065	0.008637
O6	O	0.431021	-0.326065	0.508637
O7	O	-0.069008	-0.814376	-0.193624
O8	O	0.430992	-0.314376	0.306376
O9	O	0.068515	-0.826050	0.008643
O10	O	0.568515	-0.326050	0.508643
O11	O	0.068527	-0.719076	-0.098331
O12	O	0.568527	-0.219076	0.401669
O13	O	0.068472	-0.921336	-0.086643
O14	O	0.568472	-0.421336	0.413357
Cu15	Cu	0.081054	-0.820205	-0.092486
Cu16	Cu	0.581054	-0.320205	0.407514
Cu17	Cu	-0.081548	-0.820222	-0.092494
Cu18	Cu	0.418452	-0.320222	0.407506
O19	O	0.068485	-0.814362	-0.193617
O20	O	0.568485	-0.314362	0.306383
C21	C	-0.000212	-0.693207	-0.097959
C22	C	0.499788	-0.193207	0.402041
C23	C	-0.000190	-0.616103	-0.096830
C24	C	0.499810	-0.116103	0.403170
N25	N	0.195419	-0.820198	-0.092480
N26	N	0.695419	-0.320198	0.407520
N27	N	-0.195913	-0.820235	-0.092495
N28	N	0.304087	-0.320235	0.407505
C29	C	0.238678	-0.867580	-0.045131
C30	C	0.738678	-0.367580	0.454869
C31	C	0.325225	-0.867584	-0.045130
C32	C	0.825225	-0.367584	0.454870
C33	C	0.368512	-0.820207	-0.092483
C34	C	0.868512	-0.320207	0.407517
C35	C	0.325247	-0.772820	-0.139834
C36	C	0.825247	-0.272820	0.360166
C37	C	0.238702	-0.772814	-0.139831
C38	C	0.738702	-0.272814	0.360169
C39	C	0.674276	-0.772844	-0.139847
C40	C	1.174276	-0.272844	0.360153
C41	C	0.760827	-0.772855	-0.139848
C42	C	1.260827	-0.272855	0.360152
C43	C	0.760799	-0.867614	-0.045147
C44	C	1.260799	-0.367614	0.454853
C45	C	0.674253	-0.867607	-0.045143
C46	C	1.174253	-0.367607	0.454857
C47	C	0.630996	-0.820218	-0.092492
C48	C	1.130996	-0.320218	0.407508
C49	C	0.537152	-0.820214	-0.092491
C50	C	1.037152	-0.320214	0.407509
C51	C	0.462354	-0.820214	-0.092487
C52	C	0.962354	-0.320214	0.407513
C53	C	-0.000229	-0.825682	0.034516
C54	C	0.499771	-0.325682	0.534516
C55	C	-0.000222	-0.824553	0.111620
C56	C	0.499778	-0.324553	0.611620
C57	C	-0.000284	-0.947220	-0.087022
C58	C	0.499716	-0.447220	0.412978
C59	C	-0.000311	-1.024324	-0.088151
C60	C	0.499689	-0.524324	0.411849
C61	C	-0.000212	-0.571407	-0.159598
C62	C	0.499788	-0.071407	0.340402
C63	C	-0.000221	-0.498960	-0.158537
C64	C	0.499779	0.001040	0.341463
C65	C	-0.000225	-0.471212	-0.094705
C66	C	0.499775	0.028788	0.405295
C67	C	-0.000198	-0.515918	-0.031929
C68	C	0.499802	-0.015918	0.468071
C69	C	-0.000181	-0.588364	-0.032991
C70	C	0.499819	-0.088364	0.467009
C71	C	-0.048415	-0.362955	-0.044528
C72	C	0.451585	0.137045	0.455472
C73	C	-0.048437	-0.290511	-0.043468
C74	C	0.451563	0.209489	0.456532
C75	C	-0.000274	-0.247767	-0.091425
C76	C	0.499726	0.252233	0.408575
C77	C	0.047901	-0.277474	-0.140454
C78	C	0.547901	0.222526	0.359546
C79	C	0.047918	-0.349920	-0.141516
C80	C	0.547918	0.150080	0.358484
C81	C	-0.000243	-0.392658	-0.093546
C82	C	0.499757	0.107342	0.406454
C83	C	-0.000305	-0.124514	-0.153047
C84	C	0.499695	0.375486	0.346953
C85	C	-0.000309	-0.052066	-0.151984
C86	C	0.499691	0.447934	0.348016
C87	C	-0.000294	-0.069026	-0.025374
C88	C	0.499706	0.430974	0.474626
C89	C	-0.000281	-0.141473	-0.026439
C90	C	0.499719	0.358527	0.473561
C91	C	-0.000291	-0.169212	-0.090278
C92	C	0.499709	0.330788	0.409722
C93	C	-0.000266	-0.814745	-0.219497
C94	C	0.499734	-0.314745	0.280503
C95	C	-0.000279	-0.815874	-0.296601
C96	C	0.499721	-0.315874	0.203399
C97	C	-0.000235	-0.887321	0.156316
C98	C	0.499765	-0.387321	0.656316
C99	C	-0.000248	-0.886260	0.228763
C100	C	0.499752	-0.386260	0.728763
C101	C	-0.000231	-0.822428	0.256511
C102	C	0.499769	-0.322428	0.756511
C103	C	-0.000222	-0.759652	0.211805
C104	C	0.499778	-0.259652	0.711805
C105	C	-0.000218	-0.760714	0.139359
C106	C	0.499782	-0.260714	0.639359
C107	C	0.047944	-0.772243	0.364801
C108	C	0.547944	-0.272243	0.864801
C109	C	0.047944	-0.771183	0.437245
C110	C	0.547944	-0.271183	0.937245
C111	C	-0.000248	-0.819148	0.479956
C112	C	0.499752	-0.319148	0.979956
C113	C	-0.048431	-0.868185	0.450216
C114	C	0.451569	-0.368185	0.950216
C115	C	-0.048427	-0.869247	0.377770
C116	C	0.451573	-0.369247	0.877770
C117	C	-0.000236	-0.821269	0.335065
C118	C	0.499764	-0.321269	0.835065
C119	C	-0.000277	-0.880770	0.603209
C120	C	0.499723	-0.380770	1.103209
C121	C	-0.000295	-0.879707	0.675657
C122	C	0.499705	-0.379707	1.175657
C123	C	-0.000261	-0.753097	0.658697
C124	C	0.499739	-0.253097	1.158697
C125	C	-0.000251	-0.754162	0.586250
C126	C	0.499749	-0.254162	1.086250
C127	C	-0.000255	-0.818001	0.558511
C128	C	0.499745	-0.318001	1.058511
H129	H	0.360445	-0.906166	-0.006575
H130	H	0.860445	-0.406166	0.493425
C131	C	0.647794	-0.908702	0.075229
C132	C	1.147794	-0.408702	0.575229
C133	C	0.626753	-0.919681	0.006970
C134	C	1.126753	-0.419681	0.506970
H135	H	0.618490	-0.940847	0.107420
H136	H	1.118490	-0.440847	0.607420
H137	H	0.705537	-0.915447	0.081937
H138	H	1.205537	-0.415447	0.581937
H139	H	0.633611	-0.862368	0.082625
H140	H	1.133611	-0.362368	0.582625
H141	H	0.640942	-0.966014	-0.000429
H142	H	1.140942	-0.466014	0.499571
H143	H	0.568998	-0.912942	0.000259
H144	H	1.068998	-0.412942	0.500259
C145	C	-0.070939	-0.993864	0.265519
C146	C	0.429061	-0.493864	0.765519
C147	C	-0.000257	-0.955259	0.277905
C148	C	0.499743	-0.455259	0.777905
H149	H	-0.070940	-1.036462	0.295854
H150	H	0.429060	-0.536462	0.795854
H151	H	-0.118874	-0.967690	0.273902
H152	H	0.381126	-0.467690	0.773902
H153	H	-0.070930	-1.003631	0.218402
H154	H	0.429070	-0.503631	0.718402
H155	H	-0.000269	-0.945488	0.325021
H156	H	0.499731	-0.445488	0.825021
H157	H	0.047691	-0.981438	0.269528
H158	H	0.547691	-0.481438	0.769528
H159	H	0.087193	-0.733182	0.330030
H160	H	0.587193	-0.233182	0.830030
H161	H	-0.000163	-0.624756	0.018124
H162	H	0.499837	-0.124756	0.518124
C163	C	0.075935	-0.649811	0.443343
C164	C	0.575935	-0.149811	0.943343
C165	C	0.100904	-0.717282	0.469930
C166	C	0.600904	-0.217282	0.969930
H167	H	0.108628	-0.616534	0.463524
H168	H	0.608628	-0.116534	0.963524
H169	H	0.082833	-0.643584	0.394092
H170	H	0.582833	-0.143584	0.894092
H171	H	0.019409	-0.643554	0.454395
H172	H	0.519409	-0.143554	0.954395
H173	H	0.157428	-0.723541	0.458874
H174	H	0.657428	-0.223541	0.958874
H175	H	0.094013	-0.723511	0.519193
H176	H	0.594013	-0.223511	1.019193
H177	H	0.796028	-0.906199	-0.006590
H178	H	1.296028	-0.406199	0.493410
H179	H	-0.087668	-0.266328	-0.003549
H180	H	0.412332	0.233672	0.496451
C181	C	0.683009	-0.679183	-0.233462
C182	C	1.183009	-0.179183	0.266538
C183	C	0.626735	-0.720759	-0.191898
C184	C	1.126735	-0.220759	0.308102
H185	H	0.653655	-0.647031	-0.265600
H186	H	1.153655	-0.147031	0.234400
H187	H	0.716786	-0.654297	-0.204613
H188	H	1.216786	-0.154297	0.295387
H189	H	0.716742	-0.708028	-0.258372
H190	H	1.216742	-0.208028	0.241628
H191	H	0.593006	-0.691915	-0.166984
H192	H	1.093006	-0.191915	0.333016
H193	H	0.592943	-0.745647	-0.220750
H194	H	1.092943	-0.245647	0.279250
H195	H	0.203481	-0.734229	-0.178387
H196	H	0.703481	-0.234229	0.321613
H197	H	0.796070	-0.734273	-0.178409
H198	H	1.296070	-0.234273	0.321591
C199	C	-0.070944	-0.462225	-0.266115
C200	C	0.429056	0.037775	0.233885
C201	C	-0.000256	-0.449815	-0.227534
C202	C	0.499744	0.050185	0.272466
H203	H	-0.070968	-0.431882	-0.308708
H204	H	0.429032	0.068118	0.191292
H205	H	-0.070925	-0.509333	-0.275887
H206	H	0.429075	-0.009333	0.224113
H207	H	-0.118880	-0.453862	-0.239918
H208	H	0.381120	0.046138	0.260082
H209	H	0.047681	-0.458182	-0.253730
H210	H	0.547681	0.041818	0.246270
H211	H	-0.000267	-0.402695	-0.217764
H212	H	0.499733	0.097305	0.282236
H213	H	0.360497	-0.734242	-0.178387
H214	H	0.860497	-0.234242	0.321613
C215	C	-0.070912	-0.643048	-0.234248
C216	C	0.429088	-0.143048	0.265752
C217	C	-0.000233	-0.601887	-0.229773
C218	C	0.499767	-0.101887	0.270227
H219	H	-0.070930	-0.661860	-0.277576
H220	H	0.429070	-0.161860	0.222424
H221	H	-0.070886	-0.680043	-0.197029
H222	H	0.429114	-0.180043	0.302971
H223	H	-0.118855	-0.615153	-0.231187
H224	H	0.381145	-0.115153	0.268813
H225	H	0.047710	-0.629784	-0.232830
H226	H	0.547710	-0.129784	0.267170
H227	H	-0.000252	-0.564888	-0.267003
H228	H	0.499748	-0.064888	0.232997
H229	H	-0.000236	-0.703049	0.549857
H230	H	0.499764	-0.203049	1.049857
H231	H	-0.087675	-0.907242	0.484990
H232	H	0.412325	-0.407242	0.984990
H233	H	0.087146	-0.374105	-0.181435
H234	H	0.587146	0.125895	0.318565
H235	H	0.087121	-0.242673	-0.179505
H236	H	0.587121	0.257327	0.320495
H237	H	-0.000301	-0.147101	-0.205028
H238	H	0.499699	0.352899	0.294972
C239	C	-0.000343	-0.042583	-0.277237
C240	C	0.499657	0.457417	0.222763
C241	C	-0.000334	-0.002932	-0.220984
C242	C	0.499666	0.497068	0.279016
H243	H	-0.000363	-0.012248	-0.319835
H244	H	0.499637	0.487752	0.180165
H245	H	0.047607	-0.071169	-0.275021
H246	H	0.547607	0.428831	0.224979
H247	H	-0.048287	-0.071216	-0.275011
H248	H	0.451713	0.428784	0.224989
H249	H	0.047614	0.025697	-0.223207
H250	H	0.547614	0.525697	0.276793
H251	H	-0.048288	0.025666	-0.223202
H252	H	0.451712	0.525666	0.276798
C253	C	-0.000323	0.034492	0.032472
C254	C	0.499677	0.534492	0.532472
C255	C	-0.000302	-0.038535	0.044793
C256	C	0.499698	0.461465	0.544793
H257	H	-0.000332	0.053317	0.075792
H258	H	0.499668	0.553317	0.575792
H259	H	0.047617	0.049867	0.006646
H260	H	0.547617	0.549867	0.506646
H261	H	-0.048277	0.049819	0.006631
H262	H	0.451723	0.549819	0.506631
H263	H	0.047656	-0.053862	0.070630
H264	H	0.547656	0.446138	0.570630
H265	H	-0.048246	-0.053916	0.070630
H266	H	0.451754	0.446084	0.570630
H267	H	-0.000268	-0.177866	0.024674
H268	H	0.499732	0.322134	0.524674
C269	C	-0.143669	-0.368563	0.051432
C270	C	0.356331	0.131437	0.551432
C271	C	-0.101371	-0.409935	0.008185
C272	C	0.398629	0.090065	0.508185
H273	H	-0.176365	-0.397567	0.083969
H274	H	0.323635	0.102433	0.583969
H275	H	-0.104944	-0.343511	0.075867
H276	H	0.395056	0.156489	0.575867
H277	H	-0.178396	-0.336560	0.023789
H278	H	0.321604	0.163440	0.523789
H279	H	-0.066639	-0.441935	0.035828
H280	H	0.433361	0.058065	0.535828
H281	H	-0.140100	-0.434999	-0.016252
H282	H	0.359900	0.065001	0.483748
H283	H	-0.000284	-0.932751	0.580622
H284	H	0.499716	-0.432751	1.080622
C285	C	-0.070872	-0.508106	0.076309
C286	C	0.429128	-0.008106	0.576309
C287	C	-0.000204	-0.485423	0.038238
C288	C	0.499796	0.014577	0.538238
H289	H	-0.070869	-0.489283	0.119630
H290	H	0.429131	0.010717	0.619630
H291	H	-0.118817	-0.492770	0.050472
H292	H	0.381183	0.007230	0.550472
H293	H	-0.070847	-0.557650	0.084654
H294	H	0.429153	-0.057650	0.584654
H295	H	-0.000232	-0.435879	0.029889
H296	H	0.499768	0.064121	0.529889
H297	H	0.047753	-0.500755	0.064081
H298	H	0.547753	-0.000755	0.564081
H299	H	-0.000310	-0.930822	0.712049
H300	H	0.499690	-0.430822	1.212049
C301	C	-0.143702	-0.965016	0.397859
C302	C	0.356298	-0.465016	0.897859
C303	C	-0.101396	-0.923138	0.345078
C304	C	0.398604	-0.423138	0.845078
H305	H	-0.176408	-0.998281	0.377673
H306	H	0.323592	-0.498281	0.877673
H307	H	-0.104981	-0.988614	0.429336
H308	H	0.395019	-0.488614	0.929336
H309	H	-0.178419	-0.936553	0.422354
H310	H	0.321581	-0.436553	0.922354
H311	H	-0.066674	-0.951600	0.320586
H312	H	0.433326	-0.451600	0.820586
H313	H	-0.140121	-0.899538	0.313588
H314	H	0.359879	-0.399538	0.813588
C315	C	-0.070916	-0.644867	0.666527
C316	C	0.429084	-0.144867	1.166527
C317	C	-0.000246	-0.682930	0.689188
C318	C	0.499754	-0.182930	1.189188
H319	H	-0.070911	-0.601550	0.685357
H320	H	0.429089	-0.101550	1.185357
H321	H	-0.070902	-0.636519	0.616990
H322	H	0.429098	-0.136519	1.116990
H323	H	-0.118865	-0.670716	0.681877
H324	H	0.381135	-0.170716	1.181877
H325	H	0.047703	-0.657082	0.673833
H326	H	0.547703	-0.157082	1.173833
H327	H	-0.000252	-0.691276	0.738735
H328	H	0.499748	-0.191276	1.238735
C329	C	-0.070881	-0.685022	0.283430
C330	C	0.429119	-0.185022	0.783430
C331	C	-0.000203	-0.689487	0.242304
C332	C	0.499797	-0.189487	0.742304
H333	H	-0.070867	-0.641705	0.302261
H334	H	0.429133	-0.141705	0.802261
H335	H	-0.118818	-0.688070	0.255511
H336	H	0.381182	-0.188070	0.755511
H337	H	-0.070881	-0.722258	0.320418
H338	H	0.429119	-0.222258	0.820418
H339	H	-0.000206	-0.652253	0.205313
H340	H	0.499794	-0.152253	0.705313
H341	H	0.047748	-0.686432	0.270224
H342	H	0.547748	-0.186432	0.770224
C343	C	-0.000185	-0.635460	0.129873
C344	C	0.499815	-0.135460	0.629873
C345	C	-0.000195	-0.691714	0.090224
C346	C	0.499805	-0.191714	0.590224
H347	H	-0.000164	-0.592863	0.099537
H348	H	0.499836	-0.092863	0.599537
H349	H	-0.048134	-0.637683	0.158468
H350	H	0.451866	-0.137683	0.658468
H351	H	0.047761	-0.637678	0.158498
H352	H	0.547761	-0.137678	0.658498
H353	H	-0.048144	-0.689499	0.061603
H354	H	0.451856	-0.189499	0.561603
H355	H	0.047758	-0.689491	0.061618
H356	H	0.547758	-0.189491	0.561618
H357	H	0.203439	-0.906162	-0.006574
H358	H	0.703439	-0.406162	0.493426
H359	H	-0.000241	-0.939303	0.133736
H360	H	0.499759	-0.439303	0.633736
