data_functionalizedCrystal
_audit_creation_method	'MofGen! by Chris Wilmer'
_symmetry_space_group_name_H-M	'P1'
_symmetry_Int_Tables_number	1
_symmetry_cell_setting	triclinic
loop_
_symmetry_equiv_pos_as_xyz
  x,y,z
_cell_length_a	16.959454
_cell_length_b	15.297475
_cell_length_c	15.298159
_cell_angle_alpha	88.366721
_cell_angle_beta	80.334140
_cell_angle_gamma	80.323279
loop_
_atom_site_label
_atom_site_type_symbol
_atom_site_fract_x
_atom_site_fract_y
_atom_site_fract_z
Zn1	Zn	-0.615359	1.253249	0.726604
Zn2	Zn	-0.115359	1.753249	1.226604
Zn3	Zn	-0.729142	1.278550	0.580133
Zn4	Zn	-0.229142	1.778550	1.080133
Zn5	Zn	-0.570912	1.132166	0.554850
Zn6	Zn	-0.070912	1.632166	1.054850
Zn7	Zn	-0.721402	1.106747	0.701256
Zn8	Zn	-0.221402	1.606747	1.201256
O9	O	-0.659204	1.192678	0.640711
O10	O	-0.159204	1.692678	1.140711
O11	O	-0.652293	1.379179	0.728364
O12	O	-0.152293	1.879179	1.228364
O13	O	-0.692790	1.280358	0.454209
O14	O	-0.192790	1.780358	0.954209
O15	O	-0.466208	1.148277	0.577661
O16	O	0.033792	1.648277	1.077661
O17	O	-0.735889	1.397767	0.620752
O18	O	-0.235889	1.897767	1.120752
O19	O	-0.498864	1.237236	0.703848
O20	O	0.001136	1.737236	1.203848
O21	O	-0.576539	1.172810	0.435633
O22	O	-0.076539	1.672810	0.935633
O23	O	-0.569034	1.006220	0.553081
O24	O	-0.069034	1.506220	1.053081
O25	O	-0.722697	1.104954	0.827189
O26	O	-0.222697	1.604954	1.327189
O27	O	-0.679598	0.987545	0.660645
O28	O	-0.179598	1.487545	1.160645
O29	O	-0.644788	1.212588	0.845812
O30	O	-0.144788	1.712588	1.345812
O31	O	-0.838715	1.255711	0.596173
O32	O	-0.338715	1.755711	1.096173
O33	O	-0.833028	1.129488	0.685161
O34	O	-0.333028	1.629488	1.185161
C35	C	-0.618654	0.965101	0.601370
C36	C	-0.118654	1.465101	1.101370
C37	C	-0.601328	0.867739	0.584560
C38	C	-0.101328	1.367739	1.084560
C39	C	-0.864555	1.192607	0.640683
C40	C	-0.364555	1.692607	1.140683
C41	C	-0.952423	1.192652	0.640714
C42	C	-0.452423	1.692652	1.140714
C43	C	-0.783040	0.554557	0.760853
C44	C	-0.283040	1.054557	1.260853
C45	C	-0.799324	0.646034	0.776644
C46	C	-0.299324	1.146034	1.276644
C47	C	-0.749826	0.701464	0.728625
C48	C	-0.249826	1.201464	1.228625
C49	C	-0.684042	0.665409	0.664811
C50	C	-0.184042	1.165409	1.164811
C51	C	-0.667760	0.573924	0.649014
C52	C	-0.167760	1.073924	1.149014
C53	C	-0.634546	0.720832	0.616785
C54	C	-0.134546	1.220832	1.116785
C55	C	-0.568762	0.684776	0.552972
C56	C	-0.068762	1.184776	1.052972
C57	C	-0.552483	0.593300	0.537178
C58	C	-0.052483	1.093300	1.037178
C59	C	-0.601980	0.537869	0.585197
C60	C	-0.101980	1.037869	1.085197
C61	C	-0.650828	0.812317	0.632583
C62	C	-0.150828	1.312317	1.132583
C63	C	-0.535548	0.831684	0.520743
C64	C	-0.035548	1.331684	1.020743
C65	C	-0.519264	0.740207	0.504952
C66	C	-0.019264	1.240207	1.004952
C67	C	-1.320985	1.127036	0.687055
C68	C	-0.820985	1.627036	1.187055
C69	C	-1.326874	1.258548	0.594498
C70	C	-0.826874	1.758548	1.094498
C71	C	-1.244322	1.258519	0.594484
C72	C	-0.744322	1.758519	1.094484
C73	C	-1.200097	1.192747	0.640756
C74	C	-0.700097	1.692747	1.140756
C75	C	-1.238424	1.127003	0.687041
C76	C	-0.738424	1.627003	1.187041
C77	C	-1.205986	1.324256	0.548193
C78	C	-0.705986	1.824256	1.048193
C79	C	-1.123429	1.324229	0.548177
C80	C	-0.623429	1.824229	1.048177
C81	C	-1.079204	1.258459	0.594454
C82	C	-0.579204	1.758459	1.094454
C83	C	-1.117536	1.192714	0.640742
C84	C	-0.617536	1.692714	1.140742
C85	C	-1.073311	1.126941	0.687014
C86	C	-0.573311	1.626941	1.187014
C87	C	-1.111643	1.061199	0.733307
C88	C	-0.611643	1.561199	1.233307
C89	C	-1.194199	1.061233	0.733318
C90	C	-0.694199	1.561233	1.233318
C91	C	-0.996648	1.258424	0.594443
C92	C	-0.496648	1.758424	1.094443
C93	C	-0.990750	1.126908	0.686999
C94	C	-0.490750	1.626908	1.186999
C95	C	-0.453057	1.192769	0.640762
C96	C	0.046943	1.692769	1.140762
C97	C	-0.365210	1.192808	0.640783
C98	C	0.134790	1.692808	1.140783
C99	C	-0.687837	1.153114	0.869170
C100	C	-0.187837	1.653114	1.369170
C101	C	-0.700039	1.136254	0.966526
C102	C	-0.200039	1.636254	1.466526
C103	C	-0.699913	1.421144	0.680206
C104	C	-0.199913	1.921144	1.180206
C105	C	-0.717260	1.518502	0.697037
C106	C	-0.217260	2.018502	1.197037
C107	C	-0.572189	1.312893	1.279742
C108	C	-0.072189	1.812893	1.779742
C109	C	-0.560727	1.328739	1.188273
C110	C	-0.060727	1.828739	1.688273
C111	C	-0.595554	1.280619	1.132832
C112	C	-0.095554	1.780619	1.632832
C113	C	-0.641845	1.216650	1.168869
C114	C	-0.141845	1.716650	1.668869
C115	C	-0.653313	1.200807	1.260349
C116	C	-0.153313	1.700807	1.760349
C117	C	-0.676678	1.168533	1.113438
C118	C	-0.176678	1.668533	1.613438
C119	C	-0.722969	1.104565	1.149475
C120	C	-0.222969	1.604565	1.649475
C121	C	-0.734435	1.088724	1.240946
C122	C	-0.234435	1.588724	1.740946
C123	C	-0.699608	1.136844	1.296387
C124	C	-0.199608	1.636844	1.796387
C125	C	-0.665210	1.184376	1.021958
C126	C	-0.165210	1.684376	1.521958
C127	C	-0.746334	1.072291	1.002565
C128	C	-0.246334	1.572291	1.502565
C129	C	-0.757796	1.056445	1.094034
C130	C	-0.257796	1.556445	1.594034
C131	C	-0.630695	1.232079	1.413138
C132	C	-0.130695	1.732079	1.913138
C133	C	-0.618484	1.248930	1.315781
C134	C	-0.118484	1.748930	1.815781
H135	H	-0.763088	0.775948	0.741486
H136	H	-0.263088	1.275948	1.241486
H137	H	-0.498924	0.563949	0.485207
H138	H	0.001076	1.063949	0.985207
O139	O	-0.487520	0.885641	0.474199
O140	O	0.012480	1.385641	0.974199
C141	C	-0.461545	1.035164	0.448932
C142	C	0.038455	1.535164	0.948932
C143	C	-0.515981	0.974151	0.501719
C144	C	-0.015981	1.474151	1.001719
H145	H	-0.484545	1.106739	0.471149
H146	H	0.015455	1.606739	0.971149
H147	H	-0.396569	1.014578	0.461343
H148	H	0.103431	1.514578	0.961343
H149	H	-0.463250	1.029344	0.375170
H150	H	0.036750	1.529344	0.875170
H151	H	-0.514345	0.979941	0.575496
H152	H	-0.014345	1.479941	1.075496
H153	H	-0.580931	0.994754	0.489233
H154	H	-0.080931	1.494754	0.989233
H155	H	-0.965440	1.311948	0.556747
H156	H	-0.465440	1.811948	1.056747
H157	H	-1.225416	1.007709	0.771007
H158	H	-0.725416	1.507709	1.271007
H159	H	-1.075625	1.007643	0.770977
H160	H	-0.575625	1.507643	1.270977
O161	O	-0.620362	1.246603	0.986930
O162	O	-0.120362	1.746603	1.486930
C163	C	-0.617828	1.382720	0.904049
C164	C	-0.117828	1.882720	1.404049
C165	C	-0.668723	1.312324	0.943692
C166	C	-0.168723	1.812324	1.443692
H167	H	-0.656902	1.435864	0.869066
H168	H	-0.156902	1.935864	1.369066
H169	H	-0.594924	1.414460	0.959356
H170	H	-0.094924	1.914460	1.459356
H171	H	-0.563954	1.349910	0.854321
H172	H	-0.063954	1.849910	1.354321
H173	H	-0.722633	1.345067	0.993409
H174	H	-0.222633	1.845067	1.493409
H175	H	-0.691565	1.280590	0.888338
H176	H	-0.191565	1.780590	1.388338
H177	H	-0.852887	0.675383	0.828600
H178	H	-0.352887	1.175383	1.328600
O179	O	-0.584416	1.295854	1.043951
O180	O	-0.084416	1.795854	1.543951
C181	C	-0.532709	1.234659	0.898152
C182	C	-0.032709	1.734659	1.398152
C183	C	-0.545273	1.217274	0.998789
C184	C	-0.045273	1.717274	1.498789
H185	H	-0.501046	1.171145	0.861610
H186	H	-0.001046	1.671145	1.361610
H187	H	-0.594044	1.257049	0.876423
H188	H	-0.094044	1.757049	1.376423
H189	H	-0.493683	1.288681	0.881923
H190	H	0.006317	1.788681	1.381923
H191	H	-0.584270	1.163238	1.015093
H192	H	-0.084270	1.663238	1.515093
H193	H	-0.483910	1.194933	1.020465
H194	H	0.016090	1.694933	1.520465
H195	H	-1.352199	1.073512	0.724749
H196	H	-0.852199	1.573512	1.224749
H197	H	-0.772136	1.036644	1.270286
H198	H	-0.272136	1.536644	1.770286
O199	O	-0.780216	1.025679	0.948643
O200	O	-0.280216	1.525679	1.448643
C201	C	-0.871908	1.031733	0.843334
C202	C	-0.371908	1.531733	1.343334
C203	C	-0.833585	1.084622	0.904353
C204	C	-0.333585	1.584622	1.404353
H205	H	-0.915078	1.079364	0.807524
H206	H	-0.415078	1.579364	1.307524
H207	H	-0.822130	0.993391	0.792544
H208	H	-0.322130	1.493391	1.292544
H209	H	-0.906931	0.983275	0.884816
H210	H	-0.406931	1.483275	1.384816
H211	H	-0.798568	1.133126	0.862944
H212	H	-0.298568	1.633126	1.362944
H213	H	-0.883400	1.122904	0.955146
H214	H	-0.383400	1.622904	1.455146
O215	O	-0.515627	1.390767	1.153303
O216	O	-0.015627	1.890767	1.653303
C217	C	-0.385263	1.438204	1.132787
C218	C	0.114737	1.938204	1.632787
C219	C	-0.436251	1.367882	1.172409
C220	C	0.063749	1.867882	1.672409
H221	H	-0.321082	1.419736	1.148235
H222	H	0.178918	1.919736	1.648235
H223	H	-0.382967	1.441274	1.057873
H224	H	0.117033	1.941274	1.557873
H225	H	-0.414019	1.505706	1.162974
H226	H	0.085981	2.005706	1.662974
H227	H	-0.407534	1.300344	1.142291
H228	H	0.092466	1.800344	1.642291
H229	H	-0.438548	1.364890	1.247324
H230	H	0.061452	1.864890	1.747324
H231	H	-0.543843	1.352071	1.324891
H232	H	-0.043843	1.852071	1.824891
O233	O	-0.710889	1.121458	1.385245
O234	O	-0.210889	1.621458	1.885245
C235	C	-0.807112	1.121247	1.520401
C236	C	-0.307112	1.621247	2.020401
C237	C	-0.794456	1.138681	1.419772
C238	C	-0.294456	1.638681	1.919772
H239	H	-0.874671	1.135182	1.548349
H240	H	-0.374671	1.635182	2.048349
H241	H	-0.781794	1.049110	1.533561
H242	H	-0.281794	1.549110	2.033561
H243	H	-0.774223	1.166604	1.553801
H244	H	-0.274223	1.666604	2.053801
H245	H	-0.827344	1.093379	1.386305
H246	H	-0.327344	1.593379	1.886305
H247	H	-0.819751	1.210838	1.406676
H248	H	-0.319751	1.710838	1.906676
H249	H	-0.588724	0.463380	0.572345
H250	H	-0.088724	0.963380	1.072345
H251	H	-0.795487	1.004360	1.123389
H252	H	-0.295487	1.504360	1.623389
O253	O	-1.369948	1.322366	0.549590
O254	O	-0.869948	1.822366	1.049590
C255	C	-1.499708	1.380602	0.508456
C256	C	-0.999708	1.880602	1.008456
C257	C	-1.451030	1.308302	0.559393
C258	C	-0.951030	1.808302	1.059393
H259	H	-1.565268	1.369246	0.516349
H260	H	-1.065268	1.869246	1.016349
H261	H	-1.498026	1.448582	0.536065
H262	H	-0.998026	1.948582	1.036065
H263	H	-1.471844	1.377468	0.435185
H264	H	-0.971844	1.877468	0.935185
H265	H	-1.478858	1.311353	0.632672
H266	H	-0.978858	1.811353	1.132672
H267	H	-1.452709	1.240354	0.531712
H268	H	-0.952709	1.740354	1.031712
H269	H	-0.704390	0.841663	0.684541
H270	H	-0.204390	1.341663	1.184541
H271	H	-0.823338	0.509419	0.799939
H272	H	-0.323338	1.009419	1.299939
H273	H	-0.465702	0.710838	0.452994
H274	H	0.034298	1.210838	0.952994
H275	H	-1.241998	1.377799	0.510513
H276	H	-0.741998	1.877799	1.010513
H277	H	-0.954748	1.073351	0.724684
H278	H	-0.454748	1.573351	1.224684
H279	H	-1.092224	1.377760	0.510484
H280	H	-0.592224	1.877760	1.010484
