data_functionalizedCrystal
_audit_creation_method	'MofGen! by Chris Wilmer'
_symmetry_space_group_name_H-M	'P1'
_symmetry_Int_Tables_number	1
_symmetry_cell_setting	triclinic
loop_
_symmetry_equiv_pos_as_xyz
  x,y,z
_cell_length_a	16.120530
_cell_length_b	25.639239
_cell_length_c	16.120297
_cell_angle_alpha	87.131297
_cell_angle_beta	89.871860
_cell_angle_gamma	87.134054
loop_
_atom_site_label
_atom_site_type_symbol
_atom_site_fract_x
_atom_site_fract_y
_atom_site_fract_z
Zn1	Zn	1.247330	-0.264883	0.534536
Zn2	Zn	1.580663	0.068450	0.867869
Zn3	Zn	1.913996	0.401784	1.201203
Zn4	Zn	1.254246	-0.348114	0.395469
Zn5	Zn	1.587579	-0.014781	0.728803
Zn6	Zn	1.920913	0.318552	1.062136
Zn7	Zn	1.115324	-0.256048	0.388455
Zn8	Zn	1.448657	0.077285	0.721788
Zn9	Zn	1.781990	0.410619	1.055122
Zn10	Zn	1.108202	-0.347633	0.527439
Zn11	Zn	1.441536	-0.014300	0.860772
Zn12	Zn	1.774869	0.319034	1.194105
O13	O	1.181275	-0.304170	0.461475
O14	O	1.514609	0.029164	0.794808
O15	O	1.847942	0.362497	1.128141
O16	O	1.364612	-0.279823	0.521994
O17	O	1.697945	0.053511	0.855328
O18	O	2.031279	0.386844	1.188661
O19	O	1.241692	-0.332406	0.278174
O20	O	1.575026	0.000928	0.611507
O21	O	1.908359	0.334261	0.944840
O22	O	1.132921	-0.184058	0.407868
O23	O	1.466254	0.149275	0.741201
O24	O	1.799587	0.482608	1.074534
O25	O	1.369693	-0.340973	0.419823
O26	O	1.703026	-0.007639	0.753156
O27	O	2.036360	0.325694	1.086489
O28	O	1.229905	-0.190549	0.515193
O29	O	1.563238	0.142784	0.848526
O30	O	1.896572	0.476117	1.181859
O31	O	1.139627	-0.264765	0.273020
O32	O	1.472960	0.068569	0.606354
O33	O	1.806294	0.401902	0.939687
O34	O	0.998015	-0.264298	0.400986
O35	O	1.331348	0.069035	0.734319
O36	O	1.664681	0.402369	1.067652
O37	O	1.120783	-0.340152	0.644745
O38	O	1.454117	-0.006819	0.978078
O39	O	1.787450	0.326515	1.311412
O40	O	0.992782	-0.331585	0.503096
O41	O	1.326116	0.001748	0.836430
O42	O	1.659449	0.335082	1.169763
O43	O	1.223000	-0.279356	0.649960
O44	O	1.556333	0.053978	0.983293
O45	O	1.889666	0.387311	1.316626
O46	O	1.234787	-0.421212	0.412941
O47	O	1.568120	-0.087879	0.746274
O48	O	1.901454	0.245455	1.079607
O49	O	1.127489	-0.420858	0.509898
O50	O	1.460823	-0.087525	0.843231
O51	O	1.794156	0.245808	1.176565
C52	C	0.965226	-0.296931	0.450510
C53	C	1.298560	0.036402	0.783843
C54	C	1.631893	0.369736	1.117177
C55	C	0.872799	-0.293847	0.445839
C56	C	1.206132	0.039486	0.779173
C57	C	1.539465	0.372819	1.112506
C58	C	0.703571	-0.288206	0.437318
C59	C	1.036905	0.045128	0.770652
C60	C	1.370238	0.378461	1.103985
C61	C	0.659817	-0.320174	0.485692
C62	C	0.993150	0.013160	0.819025
C63	C	1.326484	0.346493	1.152358
C64	C	0.565653	-0.317035	0.480951
C65	C	0.898986	0.016299	0.814284
C66	C	1.232320	0.349632	1.147617
C67	C	0.797744	-0.291344	0.442058
C68	C	1.131077	0.041989	0.775392
C69	C	1.464411	0.375323	1.108725
C70	C	1.181138	-0.440006	0.461430
C71	C	1.514471	-0.106673	0.794763
C72	C	1.847804	0.226660	1.128096
C73	C	1.181153	-0.498121	0.461442
C74	C	1.514487	-0.164788	0.794775
C75	C	1.847820	0.168545	1.128109
C76	C	1.237279	-0.858668	0.411087
C77	C	1.570613	-0.525335	0.744420
C78	C	1.903946	-0.192002	1.077753
C79	C	1.237311	-0.913274	0.411099
C80	C	1.570644	-0.579941	0.744433
C81	C	1.903978	-0.246607	1.077766
O82	O	1.284889	-0.941661	0.368236
O83	O	1.618222	-0.608328	0.701570
O84	O	1.951555	-0.274994	1.034903
N85	N	1.181419	-0.940415	0.461537
N86	N	1.514752	-0.607082	0.794871
N87	N	1.848085	-0.273748	1.128204
C88	C	1.125497	-0.912948	0.511972
C89	C	1.458830	-0.579615	0.845305
C90	C	1.792164	-0.246281	1.178638
O91	O	1.077960	-0.941048	0.554875
O92	O	1.411293	-0.607715	0.888208
O93	O	1.744626	-0.274381	1.221541
C94	C	1.125470	-0.858344	0.511963
C95	C	1.458803	-0.525010	0.845296
C96	C	1.792137	-0.191677	1.178629
C97	C	1.181360	-0.831205	0.461515
C98	C	1.514694	-0.497872	0.794849
C99	C	1.848027	-0.164538	1.128182
C100	C	1.293166	-0.831529	0.360644
C101	C	1.626499	-0.498196	0.693977
C102	C	1.959832	-0.164863	1.027311
C103	C	1.293133	-0.776927	0.360630
C104	C	1.626466	-0.443594	0.693964
C105	C	1.959799	-0.110261	1.027297
C106	C	1.237214	-0.749464	0.411059
C107	C	1.570547	-0.416131	0.744393
C108	C	1.903880	-0.082797	1.077726
C109	C	1.181327	-0.776603	0.461502
C110	C	1.514661	-0.443270	0.794835
C111	C	1.847994	-0.109936	1.128168
C112	C	1.069553	-0.830878	0.562401
C113	C	1.402886	-0.497545	0.895735
C114	C	1.736219	-0.164211	1.229068
C115	C	1.069531	-0.776270	0.562388
C116	C	1.402864	-0.442937	0.895722
C117	C	1.736198	-0.109603	1.229055
C118	C	1.125421	-0.749131	0.511941
C119	C	1.458754	-0.415798	0.845274
C120	C	1.792088	-0.082464	1.178608
C121	C	1.125375	-0.694538	0.511917
C122	C	1.458708	-0.361204	0.845250
C123	C	1.792042	-0.027871	1.178584
N124	N	1.181267	-0.667396	0.461479
N125	N	1.514601	-0.334063	0.794812
N126	N	1.847934	-0.000730	1.128146
C127	C	1.237187	-0.694860	0.411050
C128	C	1.570520	-0.361526	0.744384
C129	C	1.903853	-0.028193	1.077717
C130	C	1.125559	-1.027621	0.511988
C131	C	1.458892	-0.694288	0.845321
C132	C	1.792226	-0.360955	1.178654
C133	C	1.125581	-1.082224	0.511993
C134	C	1.458915	-0.748891	0.845326
C135	C	1.792248	-0.415558	1.178660
C136	C	1.237397	-1.082546	0.411121
C137	C	1.570730	-0.749213	0.744455
C138	C	1.904063	-0.415880	1.077788
C139	C	1.237370	-1.027942	0.411113
C140	C	1.570703	-0.694609	0.744446
C141	C	1.904036	-0.361275	1.077779
C142	C	1.181451	-1.000480	0.461550
C143	C	1.514785	-0.667147	0.794883
C144	C	1.848118	-0.333813	1.128217
C145	C	1.237113	-0.580191	0.411025
C146	C	1.570446	-0.246858	0.744358
C147	C	1.903779	0.086475	1.077691
C148	C	1.237072	-0.525584	0.411013
C149	C	1.570406	-0.192251	0.744346
C150	C	1.903739	0.141082	1.077680
C151	C	1.125260	-0.525267	0.511887
C152	C	1.458594	-0.191934	0.845221
C153	C	1.791927	0.141399	1.178554
C154	C	1.125297	-0.579869	0.511896
C155	C	1.458631	-0.246536	0.845230
C156	C	1.791964	0.086797	1.178563
C157	C	1.181230	-0.607330	0.461463
C158	C	1.514564	-0.273997	0.794796
C159	C	1.847897	0.059336	1.128129
O160	O	1.077824	-0.666116	0.554760
O161	O	1.411157	-0.332783	0.888094
O162	O	1.744491	0.000550	1.221427
O163	O	1.284723	-0.666754	0.368163
O164	O	1.618056	-0.333420	0.701496
O165	O	1.951390	-0.000087	1.034829
C166	C	1.398168	-0.311437	0.472483
C167	C	1.731501	0.021896	0.805816
C168	C	2.064835	0.355230	1.139149
C169	C	1.490595	-0.314534	0.477173
C170	C	1.823928	0.018800	0.810507
C171	C	2.157262	0.352133	1.143840
C172	C	1.170326	-0.310686	0.678368
C173	C	1.503659	0.022648	1.011701
C174	C	1.836992	0.355981	1.345035
C175	C	1.165659	-0.313462	0.770795
C176	C	1.498993	0.019871	1.104129
C177	C	1.832326	0.353204	1.437462
C178	C	1.181436	-0.167804	0.461539
C179	C	1.514769	0.165530	0.794873
C180	C	1.848102	0.498863	1.128206
C181	C	1.181504	-0.109693	0.461567
C182	C	1.514837	0.223641	0.794900
C183	C	1.848171	0.556974	1.128234
C184	C	1.192231	-0.297643	0.245427
C185	C	1.525564	0.035691	0.578761
C186	C	1.858897	0.369024	0.912094
C187	C	1.197058	-0.294724	0.153009
C188	C	1.530391	0.038609	0.486342
C189	C	1.863725	0.371943	0.819676
C190	C	1.157110	-0.318520	0.940019
C191	C	1.490443	0.014814	1.273353
C192	C	1.823776	0.348147	1.606686
C193	C	1.205605	-0.289668	0.983790
C194	C	1.538939	0.043665	1.317124
C195	C	1.872272	0.376998	1.650457
C196	C	1.200848	-0.292482	1.077952
C197	C	1.534181	0.040851	1.411286
C198	C	1.867515	0.374184	1.744619
C199	C	1.161866	-0.315706	0.845849
C200	C	1.495199	0.017627	1.179182
C201	C	1.828532	0.350960	1.512515
H202	H	0.670314	-0.258482	0.392347
H203	H	1.003647	0.074851	0.725681
H204	H	1.336980	0.408185	1.059014
O205	O	1.291561	-0.606805	0.362078
O206	O	1.624895	-0.273472	0.695412
O207	O	1.958228	0.059862	1.028745
C208	C	1.373491	-0.596723	0.384539
C209	C	1.706824	-0.263390	0.717872
C210	C	2.040157	0.069943	1.051205
H211	H	1.373536	-0.558089	0.416596
H212	H	1.706869	-0.224756	0.749930
H213	H	2.040202	0.108577	1.083263
H214	H	1.413852	-0.594278	0.326450
H215	H	1.747185	-0.260945	0.659783
H216	H	2.080519	0.072389	0.993116
H217	H	1.399335	-0.629650	0.428730
H218	H	1.732668	-0.296316	0.762063
H219	H	2.066002	0.037017	1.095396
O220	O	1.071149	-1.001025	0.561001
O221	O	1.404482	-0.667692	0.894334
O222	O	1.737815	-0.334359	1.227668
C223	C	1.021843	-1.036696	0.605531
C224	C	1.355176	-0.703363	0.938864
C225	C	1.688509	-0.370029	1.272197
H226	H	1.020739	-1.074509	0.571324
H227	H	1.354072	-0.741175	0.904658
H228	H	1.687406	-0.407842	1.237991
H229	H	0.955862	-1.019036	0.611020
H230	H	1.289195	-0.685703	0.944353
H231	H	1.622529	-0.352369	1.277686
H232	H	1.049055	-1.045387	0.670254
H233	H	1.382388	-0.712054	1.003587
H234	H	1.715721	-0.378721	1.336921
O235	O	0.699577	-0.355572	0.539390
O236	O	1.032910	-0.022239	0.872724
O237	O	1.366243	0.311094	1.206057
C238	C	0.747135	-0.329121	0.595683
C239	C	1.080468	0.004213	0.929017
C240	C	1.413801	0.337546	1.262350
H241	H	0.761551	-0.289013	0.567114
H242	H	1.094884	0.044320	0.900447
H243	H	1.428217	0.377653	1.233781
H244	H	0.807679	-0.352760	0.609779
H245	H	1.141012	-0.019427	0.943112
H246	H	1.474346	0.313907	1.276445
H247	H	0.710633	-0.324200	0.655677
H248	H	1.043967	0.009134	0.989010
H249	H	1.377300	0.342467	1.322343
H250	H	1.282585	-0.503490	0.369930
H251	H	1.615918	-0.170156	0.703263
H252	H	1.949252	0.163177	1.036596
O253	O	1.347513	-0.750652	0.311612
O254	O	1.680847	-0.417318	0.644946
O255	O	2.014180	-0.083985	0.978279
C256	C	1.396858	-0.786609	0.267099
C257	C	1.730191	-0.453276	0.600433
C258	C	2.063524	-0.119943	0.933766
H259	H	1.397995	-0.826641	0.301318
H260	H	1.731328	-0.493307	0.634652
H261	H	2.064661	-0.159974	0.967985
H262	H	1.462824	-0.772728	0.261612
H263	H	1.796157	-0.439395	0.594945
H264	H	2.129491	-0.106061	0.928278
H265	H	1.369658	-0.789535	0.202375
H266	H	1.702991	-0.456202	0.535708
H267	H	2.036324	-0.122868	0.869042
H268	H	1.338706	-0.853884	0.319579
H269	H	1.672040	-0.520551	0.652912
H270	H	2.005373	-0.187218	0.986246
H271	H	1.282881	-1.005849	0.370035
H272	H	1.616214	-0.672516	0.703368
H273	H	1.949547	-0.339182	1.036701
H274	H	1.250696	-0.262854	0.950546
H275	H	1.584029	0.070479	1.283879
H276	H	1.917362	0.403812	1.617212
O277	O	1.291745	-1.109316	0.362273
O278	O	1.625079	-0.775982	0.695607
O279	O	1.958412	-0.442649	1.028940
C280	C	1.279795	-1.163330	0.373123
C281	C	1.613128	-0.829997	0.706457
C282	C	1.946462	-0.496664	1.039790
H283	H	1.249195	-1.171784	0.435858
H284	H	1.582528	-0.838450	0.769191
H285	H	1.915861	-0.505117	1.102525
H286	H	1.342396	-1.185949	0.370805
H287	H	1.675729	-0.852616	0.704138
H288	H	2.009063	-0.519283	1.037472
H289	H	1.238132	-1.175936	0.321482
H290	H	1.571466	-0.842603	0.654815
H291	H	1.904799	-0.509269	0.988148
H292	H	1.079789	-0.601967	0.552977
H293	H	1.413123	-0.268634	0.886311
H294	H	1.746456	0.064700	1.219644
H295	H	1.024037	-0.852965	0.603477
H296	H	1.357370	-0.519631	0.936810
H297	H	1.690704	-0.186298	1.270143
H298	H	1.080062	-1.104316	0.553064
H299	H	1.413396	-0.770982	0.886397
H300	H	1.746729	-0.437649	1.219731
H301	H	1.079729	-0.502898	0.552943
H302	H	1.413062	-0.169565	0.886277
H303	H	1.746396	0.163768	1.219610
O304	O	1.015132	-0.749673	0.611410
O305	O	1.348465	-0.416340	0.944743
O306	O	1.681799	-0.083007	1.278077
C307	C	0.965831	-0.785342	0.655951
C308	C	1.299164	-0.452008	0.989284
C309	C	1.632497	-0.118675	1.322618
H310	H	0.964718	-0.823155	0.621748
H311	H	1.298052	-0.489822	0.955081
H312	H	1.631385	-0.156489	1.288415
H313	H	0.899852	-0.767680	0.661450
H314	H	1.233186	-0.434347	0.994783
H315	H	1.566519	-0.101013	1.328117
H316	H	0.993053	-0.794032	0.720670
H317	H	1.326387	-0.460699	1.054004
H318	H	1.659720	-0.127365	1.387337
H319	H	1.112023	-0.345331	0.973262
H320	H	1.445356	-0.011998	1.306595
H321	H	1.778689	0.321335	1.639928
