data_functionalizedCrystal
_audit_creation_method	'MofGen! by Chris Wilmer'
_symmetry_space_group_name_H-M	'P1'
_symmetry_Int_Tables_number	1
_symmetry_cell_setting	triclinic
loop_
_symmetry_equiv_pos_as_xyz
  x,y,z
_cell_length_a	14.971486
_cell_length_b	17.019370
_cell_length_c	14.048226
_cell_angle_alpha	93.871793
_cell_angle_beta	89.998499
_cell_angle_gamma	83.503867
loop_
_atom_site_label
_atom_site_type_symbol
_atom_site_fract_x
_atom_site_fract_y
_atom_site_fract_z
O1	O	1.186690	0.102799	-0.070628
O2	O	0.926260	0.115109	-0.069645
O3	O	1.063741	-0.005870	-0.079538
O4	O	1.049209	0.223778	-0.060735
O5	O	1.063724	-0.005877	0.078783
O6	O	0.926243	0.115102	0.088676
O7	O	1.186674	0.102792	0.087693
Zn8	Zn	1.056456	0.108946	0.113321
Zn9	Zn	1.056478	0.108955	-0.095273
O10	O	1.049193	0.223771	0.097586
C11	C	0.892928	0.114555	0.009467
C12	C	0.793635	0.112905	0.009322
C13	C	0.736232	0.183977	0.015143
C14	C	0.642937	0.182422	0.015030
C15	C	0.607046	0.109795	0.009089
C16	C	0.664456	0.038717	0.003271
C17	C	0.757750	0.040273	0.003391
C18	C	0.470001	0.035480	0.003019
C19	C	0.376701	0.033924	0.002897
C20	C	0.355189	0.177629	0.014658
C21	C	0.448482	0.179185	0.014778
C22	C	0.505886	0.108107	0.008958
C23	C	1.063182	-0.035263	-0.002786
C24	C	1.061530	-0.122833	-0.009963
C25	C	1.060742	-0.163985	0.072961
C26	C	1.059196	-0.246267	0.066209
C27	C	1.058430	-0.287396	-0.023468
C28	C	1.059220	-0.246239	-0.106399
C29	C	1.060773	-0.163958	-0.099646
C30	C	1.053747	-0.535829	-0.048175
C31	C	1.052191	-0.618114	-0.054921
C32	C	1.052169	-0.618138	0.117688
C33	C	1.053716	-0.535855	0.124433
C34	C	1.054511	-0.494706	0.041502
C35	C	1.056846	-0.371501	-0.030372
C36	C	1.056101	-0.410603	0.048406
C37	C	1.220006	0.103346	0.008579
C38	C	1.319299	0.104995	0.008718
C39	C	1.049752	0.253163	0.020832
C40	C	1.051404	0.340734	0.028003
N41	N	1.056448	0.108939	0.255681
N42	N	1.056493	0.108956	-0.237634
C43	C	1.117343	0.055391	0.301121
C44	C	1.117349	0.055391	0.400778
C45	C	1.056463	0.108942	0.454995
C46	C	0.995561	0.162492	0.409549
C47	C	0.995551	0.162488	0.309893
C48	C	0.995587	0.162498	0.617264
C49	C	0.995597	0.162503	0.716927
C50	C	1.117385	0.055401	0.708149
C51	C	1.117375	0.055397	0.608493
C52	C	1.056474	0.108948	0.563054
H53	H	0.347482	-0.025216	-0.001939
H54	H	1.058602	-0.279733	-0.179417
C55	C	1.051314	-0.663350	-0.153577
N56	N	1.050638	-0.697420	-0.227881
H57	H	1.058559	-0.279770	0.133735
C58	C	0.624972	-0.041174	-0.003262
N59	N	0.595235	-0.101350	-0.008187
C60	C	0.579797	0.260607	0.021450
N61	N	0.532240	0.319500	0.026293
C62	C	0.775703	0.263874	0.021680
N63	N	0.805429	0.324056	0.026608
C64	C	1.061636	-0.118692	-0.190870
N65	N	1.062289	-0.084598	-0.259583
C66	C	1.184324	-0.003521	0.241491
N67	N	1.234773	-0.047898	0.196580
C68	C	1.184353	-0.003512	0.548856
N69	N	1.234800	-0.047886	0.503937
C70	C	1.184374	-0.003509	0.758133
N71	N	1.234830	-0.047877	0.795786
H72	H	0.946016	0.206109	0.761066
C73	C	0.292043	0.255815	0.021065
N74	N	0.244478	0.314703	0.025888
C75	C	0.820893	-0.037912	-0.003015
N76	N	0.868452	-0.096803	-0.007838
C77	C	1.061584	-0.118751	0.171614
N78	N	1.062223	-0.084684	0.245923
H79	H	1.056729	-0.377113	0.121421
H80	H	0.945991	0.206102	0.580271
H81	H	0.516738	-0.022400	-0.001719
C82	C	1.055995	-0.416750	-0.129015
N83	N	1.055353	-0.450834	-0.203313
H84	H	1.166935	0.011788	0.437774
C85	C	0.928568	0.221401	0.259911
N86	N	0.878115	0.265776	0.222267
C87	C	1.054557	-0.490620	0.223085
N88	N	1.055186	-0.456548	0.297391
C89	C	1.051300	-0.663409	0.208905
N90	N	1.050648	-0.697508	0.277614
H91	H	0.477701	0.238324	0.019606
C92	C	0.928577	0.221392	0.469191
N93	N	0.878123	0.265756	0.514112
H94	H	1.054393	-0.502335	-0.115703
