data_functionalizedCrystal
_audit_creation_method	'MofGen! by Chris Wilmer'
_symmetry_space_group_name_H-M	'P1'
_symmetry_Int_Tables_number	1
_symmetry_cell_setting	triclinic
loop_
_symmetry_equiv_pos_as_xyz
  x,y,z
_cell_length_a	19.288840
_cell_length_b	10.540510
_cell_length_c	18.366186
_cell_angle_alpha	89.996284
_cell_angle_beta	89.983729
_cell_angle_gamma	83.819664
loop_
_atom_site_label
_atom_site_type_symbol
_atom_site_fract_x
_atom_site_fract_y
_atom_site_fract_z
O1	O	0.922410	0.158196	-0.060668
O2	O	0.720289	0.179590	-0.060642
O3	O	0.825971	-0.015920	-0.060655
O4	O	0.816727	0.353705	-0.060654
O5	O	0.825953	-0.015930	0.060444
O6	O	0.720270	0.179580	0.060458
O7	O	0.922392	0.158186	0.060432
Zn8	Zn	0.821328	0.168882	0.079672
Zn9	Zn	0.821352	0.168894	-0.079882
O10	O	0.816709	0.353696	0.060445
C11	C	0.694398	0.178902	-0.000089
C12	C	0.617280	0.176851	-0.000079
C13	C	0.581080	0.175871	-0.066092
C14	C	0.508620	0.173931	-0.066101
C15	C	0.472365	0.172944	-0.000093
C16	C	0.508574	0.173931	0.065929
C17	C	0.581031	0.175885	0.065936
C18	C	0.362518	0.095496	0.050468
C19	C	0.290062	0.093535	0.050458
C20	C	0.248882	0.166924	-0.000112
C21	C	0.280167	0.242259	-0.050685
C22	C	0.352625	0.244212	-0.050678
C23	C	0.393797	0.170826	-0.000094
C24	C	0.134112	0.163842	-0.066140
C25	C	0.061651	0.161909	-0.066146
C26	C	0.061606	0.161897	0.065886
C27	C	0.134066	0.163842	0.065890
C28	C	0.170315	0.164809	-0.000125
C29	C	0.825273	-0.063213	-0.000107
C30	C	0.823212	-0.204117	-0.000111
C31	C	0.896630	-0.423220	0.000157
C32	C	0.898828	-0.276674	-0.000120
C33	C	0.784515	-0.248001	-0.069258
C34	C	0.782852	-0.394724	-0.069312
C35	C	0.781257	-0.394508	0.068401
C36	C	0.784843	-0.248248	0.069311
C37	C	0.948282	0.158874	-0.000123
C38	C	1.025400	0.160924	-0.000137
C39	C	0.817407	0.400989	-0.000105
C40	C	0.819468	0.541892	-0.000106
N41	N	0.821317	0.168872	0.188563
N42	N	0.821369	0.168893	-0.188773
C43	C	0.868129	0.082343	0.226658
C44	C	0.868133	0.082337	0.302885
C45	C	0.821332	0.168883	0.341016
C46	C	0.774512	0.255419	0.302912
C47	C	0.774504	0.255413	0.226686
C48	C	0.812799	0.284540	0.461777
C49	C	0.812812	0.284547	0.538002
C50	C	0.821352	0.168899	0.576123
C51	C	0.829895	0.053238	0.538010
C52	C	0.829887	0.053233	0.461784
C53	C	0.821335	0.168897	0.423670
C54	C	0.868172	0.082356	0.696873
C55	C	0.868171	0.082349	0.773102
C56	C	0.774553	0.255441	0.773127
C57	C	0.774550	0.255437	0.696899
C58	C	0.821363	0.168896	0.658777
H59	H	0.378094	0.305555	-0.091854
H60	H	0.736444	0.325903	0.804172
C61	C	0.813537	-0.452569	0.139208
N62	N	0.837859	-0.496300	0.192536
C63	C	0.723035	0.350662	0.184780
N64	N	0.684279	0.422425	0.153216
C65	C	0.704562	-0.422730	0.069048
N66	N	0.646800	-0.444000	0.069532
C67	C	0.723103	0.350719	0.654994
N68	N	0.684366	0.422518	0.623431
H69	H	0.906289	0.011879	0.804119
H70	H	0.809313	-0.435530	-0.121008
H71	H	0.929107	-0.248014	0.049446
H72	H	0.906255	0.011872	0.333908
H73	H	0.813001	-0.220272	0.120465
H74	H	0.805832	0.378721	0.430745
C75	C	0.936422	-0.480807	0.067147
N76	N	0.966394	-0.524190	0.117606
H77	H	0.032177	0.161119	-0.119904
H78	H	0.836849	-0.040934	0.569047
C79	C	0.936210	-0.482872	-0.066467
N80	N	0.966019	-0.527803	-0.116650
C81	C	0.173987	0.164927	-0.138756
N82	N	0.204019	0.165750	-0.193452
C83	C	0.173888	0.164902	0.138511
N84	N	0.203883	0.165701	0.193212
H85	H	0.906288	0.011885	0.665832
H86	H	0.929298	-0.248949	-0.049780
C87	C	0.468692	0.172844	0.138538
N88	N	0.438652	0.172029	0.193229
H89	H	0.726296	-0.416449	-0.072438
C90	C	0.709313	-0.182283	-0.072729
N91	N	0.652672	-0.132780	-0.075343
C92	C	0.021730	0.160813	0.138496
N93	N	-0.008309	0.160000	0.193188
H94	H	0.805860	0.378725	0.569028
C95	C	0.839275	-0.073991	0.419863
N96	N	0.846341	-0.169819	0.388287
C97	C	0.723027	0.350613	0.344857
N98	N	0.684245	0.422313	0.376450
C99	C	0.234873	0.323003	-0.106313
N100	N	0.200755	0.383817	-0.148210
H101	H	0.264596	0.032187	0.091634
C102	C	0.710259	-0.180293	0.074961
N103	N	0.654079	-0.129111	0.079211
C104	C	0.620950	0.176932	-0.138711
N105	N	0.650981	0.177729	-0.193408
C106	C	0.820845	-0.207140	-0.138788
N107	N	0.848213	-0.176368	-0.191157
H108	H	0.479140	0.173135	-0.119859
H109	H	0.610505	0.176684	0.119693
H110	H	0.396041	0.035730	0.091652
H111	H	0.906245	0.011873	0.195620
