data_functionalizedCrystal
_audit_creation_method	'MofGen! by Chris Wilmer'
_symmetry_space_group_name_H-M	'P1'
_symmetry_Int_Tables_number	1
_symmetry_cell_setting	triclinic
loop_
_symmetry_equiv_pos_as_xyz
  x,y,z
_cell_length_a	17.699077
_cell_length_b	16.098538
_cell_length_c	17.699083
_cell_angle_alpha	92.716382
_cell_angle_beta	96.718205
_cell_angle_gamma	92.732487
loop_
_atom_site_label
_atom_site_type_symbol
_atom_site_fract_x
_atom_site_fract_y
_atom_site_fract_z
O1	O	1.007473	0.069247	-0.092301
O2	O	1.507473	0.569247	0.407699
O3	O	0.787095	0.069251	-0.104758
O4	O	1.287095	0.569251	0.395242
O5	O	0.903510	0.069241	0.011659
O6	O	1.403510	0.569241	0.511659
O7	O	0.891058	0.069256	-0.208719
O8	O	1.391058	0.569256	0.291281
O9	O	0.896709	-0.069271	0.004885
O10	O	1.396709	0.430729	0.504885
O11	O	0.780294	-0.069261	-0.111532
O12	O	1.280294	0.430739	0.388468
O13	O	1.000673	-0.069266	-0.099075
O14	O	1.500673	0.430734	0.400925
Zn15	Zn	0.889404	-0.091255	-0.106379
Zn16	Zn	1.389404	0.408745	0.393621
Zn17	Zn	0.898364	0.091241	-0.097454
Zn18	Zn	1.398364	0.591241	0.402546
O19	O	0.884258	-0.069256	-0.215493
O20	O	1.384258	0.430744	0.284507
C21	C	0.755497	-0.000005	-0.107700
C22	C	1.255497	0.499995	0.392300
C23	C	0.671479	-0.000003	-0.106363
C24	C	1.171479	0.499997	0.393637
N25	N	0.883295	-0.215804	-0.112470
N26	N	1.383295	0.284196	0.387530
C27	C	0.628305	-0.075507	-0.109425
C28	C	1.128305	0.424493	0.390575
C29	C	0.549362	-0.075508	-0.108157
C30	C	1.049362	0.424492	0.391843
C31	C	0.513595	-0.000004	-0.103832
C32	C	1.013595	0.499996	0.396168
C33	C	0.556775	0.075506	-0.100767
C34	C	1.056775	0.575506	0.399233
C35	C	0.635717	0.075506	-0.102030
C36	C	1.135717	0.575506	0.397970
C37	C	0.238412	0.075507	-0.095674
C38	C	0.738412	0.575507	0.404326
C39	C	0.159464	0.075501	-0.094413
C40	C	0.659464	0.575501	0.405587
C41	C	0.152057	-0.075507	-0.101801
C42	C	0.652057	0.424493	0.398199
C43	C	0.230999	-0.075507	-0.103064
C44	C	0.730999	0.424493	0.396936
C45	C	0.274173	0.000002	-0.099995
C46	C	0.774173	0.500002	0.400005
C47	C	0.359772	0.000002	-0.101368
C48	C	0.859772	0.500002	0.398632
C49	C	0.427997	-0.000004	-0.102464
C50	C	0.927997	0.499996	0.397536
C51	C	0.932724	-0.259393	-0.063075
C52	C	1.432724	0.240607	0.436925
C53	C	0.928457	-0.346582	-0.067343
C54	C	1.428457	0.153418	0.432657
C55	C	0.874764	-0.390180	-0.121010
C56	C	1.374764	0.109820	0.378990
C57	C	0.825330	-0.346584	-0.170407
C58	C	1.325330	0.153416	0.329593
C59	C	0.829593	-0.259397	-0.166135
C60	C	1.329593	0.240603	0.333865
C61	C	0.859308	-0.653428	-0.136483
C62	C	1.359308	-0.153428	0.363517
C63	C	0.855050	-0.740621	-0.140753
C64	C	1.355050	-0.240621	0.359247
C65	C	0.958177	-0.740613	-0.037687
C66	C	1.458177	-0.240613	0.462313
C67	C	0.962439	-0.653424	-0.033423
C68	C	1.462439	-0.153424	0.466577
C69	C	0.913001	-0.609837	-0.082818
C70	C	1.413001	-0.109837	0.417182
C71	C	0.870403	-0.479300	-0.125375
C72	C	1.370403	0.020700	0.374625
C73	C	0.917359	-0.520717	-0.078448
C74	C	1.417359	-0.020717	0.421552
C75	C	1.032270	-0.000008	-0.096134
C76	C	1.532270	0.499992	0.403866
C77	C	1.116289	-0.000004	-0.097470
C78	C	1.616289	0.499996	0.402530
C79	C	0.899663	-0.000015	0.036469
C80	C	1.399663	0.499985	0.536469
C81	C	0.898325	-0.000015	0.120487
C82	C	1.398325	0.499985	0.620487
N83	N	0.904479	0.215789	-0.091358
N84	N	1.404479	0.715789	0.408642
C85	C	0.888104	0.000002	-0.240303
C86	C	1.388104	0.500002	0.259697
C87	C	0.889443	0.000008	-0.324320
C88	C	1.389443	0.500008	0.175680
C89	C	0.966658	-0.000018	0.169109
C90	C	1.466658	0.499982	0.669109
C91	C	0.965396	-0.000010	0.248053
C92	C	1.465396	0.499990	0.748053
C93	C	0.895800	-0.000006	0.278373
C94	C	1.395800	0.499994	0.778373
C95	C	0.827461	-0.000001	0.229744
C96	C	1.327461	0.499999	0.729744
C97	C	0.828724	-0.000003	0.150802
C98	C	1.328724	0.499997	0.650802
C99	C	0.822366	0.000005	0.548107
C100	C	1.322366	0.500005	1.048107
C101	C	0.821109	0.000004	0.627055
C102	C	1.321109	0.500004	1.127055
C103	C	0.959038	-0.000002	0.645358
C104	C	1.459038	0.499998	1.145358
C105	C	0.960301	-0.000003	0.566416
C106	C	1.460301	0.499997	1.066416
C107	C	0.891963	0.000006	0.517795
C108	C	1.391963	0.500006	1.017795
C109	C	0.893333	-0.000000	0.432196
C110	C	1.393333	0.500000	0.932196
C111	C	0.894430	-0.000006	0.363970
C112	C	1.394430	0.499994	0.863970
H113	H	0.657420	-0.136992	-0.112954
H114	H	1.157420	0.363008	0.387046
N115	N	0.987561	-0.214850	-0.008254
N116	N	1.487561	0.285150	0.491746
N117	N	0.991361	-0.137005	-0.004443
N118	N	1.491361	0.362995	0.495557
H119	H	1.030089	-0.105547	0.034278
H120	H	1.530089	0.394453	0.534278
N121	N	0.972171	-0.476158	-0.023618
N122	N	1.472171	0.023842	0.476382
N123	N	0.950585	-0.427524	0.025692
N124	N	1.450585	0.072476	0.525692
H125	H	0.989288	-0.396036	0.064416
H126	H	1.489288	0.103964	0.564416
N127	N	0.679834	0.152624	-0.098896
N128	N	1.179834	0.652624	0.401104
N129	N	0.731788	0.169462	-0.045444
N130	N	1.231788	0.669462	0.454556
H131	H	0.762947	0.223928	-0.043227
H132	H	1.262947	0.723928	0.456773
H133	H	0.968706	-0.382072	-0.027121
H134	H	1.468706	0.117928	0.472879
N135	N	0.520255	0.152639	-0.096338
N136	N	1.020255	0.652639	0.403662
N137	N	0.538632	0.203189	-0.040675
N138	N	1.038632	0.703189	0.459325
H139	H	0.512842	0.257667	-0.037547
H140	H	1.012842	0.757667	0.462453
N141	N	0.752564	-0.000011	0.498446
N142	N	1.252564	0.499989	0.998446
N143	N	0.735016	-0.058400	0.449503
N144	N	1.235016	0.441600	0.949503
H145	H	0.685715	-0.058414	0.414424
H146	H	1.185715	0.441586	0.914424
N147	N	0.808821	-0.608895	-0.186931
N148	N	1.308821	-0.108895	0.313069
N149	N	0.764266	-0.560258	-0.160596
N150	N	1.264266	-0.060258	0.339404
H151	H	0.728610	-0.528801	-0.196227
H152	H	1.228610	-0.028801	0.303773
H153	H	0.773080	-0.000001	0.111214
H154	H	1.273080	0.499999	0.611214
N155	N	0.107967	-0.152649	-0.104936
N156	N	0.607967	0.347351	0.395064
N157	N	0.107227	-0.203197	-0.160883
N158	N	0.607227	0.296803	0.339117
H159	H	0.076091	-0.257678	-0.163100
H160	H	0.576091	0.242322	0.336900
H161	H	1.016974	-0.000011	0.541735
H162	H	1.516974	0.499989	1.041735
N163	N	0.800184	-0.785149	-0.195564
N164	N	1.300184	-0.285149	0.304436
N165	N	0.730709	-0.775434	-0.194125
N166	N	1.230709	-0.275434	0.305875
H167	H	0.691961	-0.806883	-0.232832
H168	H	1.191961	-0.306883	0.267168
N169	N	0.750006	0.000004	0.658014
N170	N	1.250006	0.500004	1.158014
N171	N	0.688996	0.000010	0.614595
N172	N	1.188996	0.500010	1.114595
H173	H	0.638782	0.000008	0.636460
H174	H	1.138782	0.500008	1.136460
H175	H	1.006160	-0.617928	0.010276
H176	H	1.506160	-0.117928	0.510276
H177	H	0.130345	0.136989	-0.090890
H178	H	0.630345	0.636989	0.409110
H179	H	0.781608	-0.382087	-0.214101
H180	H	1.281608	0.117913	0.285899
N181	N	0.756376	0.000013	0.260725
N182	N	1.256376	0.500013	0.760725
N183	N	0.755257	0.000014	0.331209
N184	N	1.255257	0.500014	0.831209
H185	H	0.705052	0.000023	0.353089
H186	H	1.205052	0.500023	0.853089
H187	H	0.273555	0.136991	-0.093172
H188	H	0.773555	0.636991	0.406828
N189	N	1.008656	-0.785150	0.012769
N190	N	1.508656	-0.285150	0.512769
N191	N	0.982349	-0.833816	0.057334
N192	N	1.482349	-0.333816	0.557334
H193	H	1.017999	-0.865271	0.092974
H194	H	1.517999	-0.365271	0.592974
H195	H	0.514214	-0.136991	-0.110639
H196	H	1.014214	0.363009	0.389361
H197	H	0.789342	-0.223908	-0.206356
H198	H	1.289342	0.276092	0.293644
H199	H	1.023332	-0.000026	0.144430
H200	H	1.523332	0.499974	0.644430
H201	H	0.826687	-0.514805	-0.169073
H202	H	1.326687	-0.014805	0.330927
H203	H	0.260116	-0.136990	-0.106590
H204	H	0.760116	0.363010	0.393410
H205	H	1.021040	-0.000014	0.287639
H206	H	1.521040	0.499986	0.787639
N207	N	1.028840	-0.000012	0.695036
N208	N	1.528840	0.499988	1.195036
N209	N	1.027708	-0.000011	0.765518
N210	N	1.527708	0.499989	1.265518
H211	H	1.077003	-0.000022	0.800603
H212	H	1.577003	0.499978	1.300603
