data_functionalizedCrystal
_audit_creation_method	'MofGen! by Chris Wilmer'
_symmetry_space_group_name_H-M	'P1'
_symmetry_Int_Tables_number	1
_symmetry_cell_setting	triclinic
loop_
_symmetry_equiv_pos_as_xyz
  x,y,z
_cell_length_a	10.654543
_cell_length_b	26.809956
_cell_length_c	10.654550
_cell_angle_alpha	90.004547
_cell_angle_beta	84.483552
_cell_angle_gamma	89.995755
loop_
_atom_site_label
_atom_site_type_symbol
_atom_site_fract_x
_atom_site_fract_y
_atom_site_fract_z
O1	O	-1.667856	0.041426	-0.176341
O2	O	-1.302376	0.041439	-0.193156
O3	O	-1.493519	0.041429	-0.002009
O4	O	-1.476713	0.041436	-0.367488
O5	O	-1.493483	-0.041530	-0.002038
O6	O	-1.302340	-0.041521	-0.193185
O7	O	-1.667820	-0.041533	-0.176370
Zn8	Zn	-1.485074	-0.054699	-0.184782
Zn9	Zn	-1.485122	0.054604	-0.184744
O10	O	-1.476677	-0.041524	-0.367517
C11	C	-1.255560	-0.000039	-0.191938
C12	C	-1.116116	-0.000035	-0.188249
N13	N	-1.485051	-0.129295	-0.184808
C14	C	-1.036631	-0.000033	-0.300793
C15	C	-0.905609	-0.000041	-0.297319
C16	C	-0.933573	-0.000049	-0.068749
C17	C	-1.064591	-0.000045	-0.072224
C18	C	-1.569749	-0.473925	-0.100125
C19	C	-1.569779	-0.682803	-0.100106
O20	O	-1.641741	-0.709810	-0.028113
N21	N	-1.485128	-0.708922	-0.184716
C22	C	-1.400459	-0.682818	-0.269332
O23	O	-1.328451	-0.709827	-0.341289
C24	C	-1.400424	-0.473941	-0.269343
C25	C	-1.485089	-0.447825	-0.184736
C26	C	-1.654406	-0.447809	-0.015524
C27	C	-1.654402	-0.395592	-0.015534
C28	C	-1.569742	-0.369492	-0.100146
C29	C	-1.485085	-0.395609	-0.184747
C30	C	-1.315750	-0.447839	-0.353952
C31	C	-1.315747	-0.395616	-0.353945
C32	C	-1.400411	-0.369500	-0.269338
C33	C	-1.400421	-0.317293	-0.269368
N34	N	-1.485072	-0.291174	-0.184758
C35	C	-1.569732	-0.317273	-0.100147
C36	C	-1.400485	-0.792481	-0.269321
C37	C	-1.400495	-0.844700	-0.269320
C38	C	-1.569813	-0.844681	-0.100093
C39	C	-1.569808	-0.792461	-0.100101
C40	C	-1.485135	-0.766362	-0.184711
C41	C	-1.569719	-0.207615	-0.100175
C42	C	-1.569711	-0.155395	-0.100196
C43	C	-1.400389	-0.155418	-0.269419
C44	C	-1.400400	-0.207634	-0.269403
C45	C	-1.485070	-0.233732	-0.184770
O46	O	-1.328487	-0.290253	-0.341314
O47	O	-1.641711	-0.290256	-0.028182
C48	C	-1.569753	-0.526141	-0.100115
C49	C	-1.485096	-0.552258	-0.184716
C50	C	-1.400436	-0.526158	-0.269327
C51	C	-1.485106	-0.604477	-0.184715
C52	C	-1.569766	-0.630577	-0.100104
C53	C	-1.654417	-0.604458	-0.015493
C54	C	-1.654413	-0.552241	-0.015504
C55	C	-1.315786	-0.552277	-0.353937
C56	C	-1.315797	-0.604493	-0.353921
C57	C	-1.400457	-0.630593	-0.269310
C58	C	-0.714635	-0.000052	-0.177595
C59	C	-0.854077	-0.000046	-0.181301
C60	C	-1.492267	-0.000051	0.044774
C61	C	-1.488575	-0.000050	0.184217
N62	N	-1.485155	0.129200	-0.184709
C63	C	-1.477929	-0.000043	-0.414301
C64	C	-1.481621	-0.000041	-0.553744
C65	C	-1.601117	-0.000053	0.263706
C66	C	-1.597641	-0.000047	0.394726
C67	C	-1.369070	-0.000036	0.366758
C68	C	-1.372548	-0.000038	0.235740
H69	H	-1.078578	-0.000029	-0.395268
H70	H	-0.891604	-0.000060	0.025715
Br71	Br	-1.172475	-0.000053	0.080525
Br72	Br	-0.797739	-0.000041	-0.450064
H73	H	-1.638659	-0.134132	-0.031299
H74	H	-1.331567	-0.865961	-0.338228
H75	H	-1.689284	-0.000049	0.459441
H76	H	-1.274605	-0.000027	0.408724
H77	H	-1.638663	-0.228858	-0.031259
H78	H	-1.331463	-0.134159	-0.338312
H79	H	-1.723339	-0.374331	0.053363
Br80	Br	-1.758581	-0.000069	0.193786
H81	H	-1.331471	-0.228899	-0.338309
Br82	Br	-1.285563	-0.757067	-0.384161
H83	H	-1.723346	-0.469055	0.053382
Br84	Br	-1.200843	-0.483272	-0.468780
H85	H	-1.638749	-0.771201	-0.031206
H86	H	-1.638749	-0.865941	-0.031200
Br87	Br	-1.200820	-0.360200	-0.468775
H88	H	-1.280897	-0.000034	0.171016
H89	H	-1.246843	-0.531030	-0.422837
Br90	Br	-1.769321	-0.516805	0.099325
H91	H	-1.723355	-0.625717	0.053396
H92	H	-1.246856	-0.625753	-0.422829
