data_functionalizedCrystal
_audit_creation_method	'MofGen! by Chris Wilmer'
_symmetry_space_group_name_H-M	'P1'
_symmetry_Int_Tables_number	1
_symmetry_cell_setting	triclinic
loop_
_symmetry_equiv_pos_as_xyz
  x,y,z
_cell_length_a	14.586319
_cell_length_b	16.109301
_cell_length_c	16.109301
_cell_angle_alpha	83.461481
_cell_angle_beta	90.005214
_cell_angle_gamma	90.000787
loop_
_atom_site_label
_atom_site_type_symbol
_atom_site_fract_x
_atom_site_fract_y
_atom_site_fract_z
O1	O	-0.076185	-1.103131	-0.106866
O2	O	0.423815	-0.603131	0.393134
O3	O	-0.076200	-0.861069	-0.120165
O4	O	0.423800	-0.361069	0.379835
O5	O	-0.076183	-0.988749	0.007515
O6	O	0.423817	-0.488749	0.507515
O7	O	-0.076203	-0.975450	-0.234547
O8	O	0.423797	-0.475450	0.265453
O9	O	0.076298	-0.988741	0.007517
O10	O	0.576298	-0.488741	0.507517
O11	O	0.076281	-0.861060	-0.120164
O12	O	0.576281	-0.361060	0.379836
O13	O	0.076295	-1.103122	-0.106864
O14	O	0.576295	-0.603122	0.393136
Cu15	Cu	0.090211	-0.982090	-0.113514
Cu16	Cu	0.590211	-0.482090	0.386486
Cu17	Cu	-0.090115	-0.982101	-0.113516
Cu18	Cu	0.409885	-0.482101	0.386484
O19	O	0.076278	-0.975441	-0.234545
O20	O	0.576278	-0.475441	0.265455
C21	C	0.000038	-0.830090	-0.119626
C22	C	0.500038	-0.330090	0.380374
C23	C	0.000033	-0.737794	-0.118011
C24	C	0.500033	-0.237794	0.381989
N25	N	0.217042	-0.982089	-0.113512
N26	N	0.717042	-0.482089	0.386488
N27	N	-0.216947	-0.982109	-0.113511
N28	N	0.283053	-0.482109	0.386489
C29	C	0.000058	-0.988206	0.038491
C30	C	0.500058	-0.488206	0.538491
C31	C	0.000059	-0.986591	0.130786
C32	C	0.500059	-0.486591	0.630786
C33	C	0.452057	-1.038644	-0.056994
C34	C	0.952057	-0.538644	0.443006
C35	C	0.548038	-1.038647	-0.056992
C36	C	1.048038	-0.538647	0.443008
C37	C	0.548032	-0.925547	-0.170032
C38	C	1.048032	-0.425547	0.329968
C39	C	0.452052	-0.925541	-0.170030
C40	C	0.952052	-0.425541	0.329970
C41	C	0.404067	-0.982095	-0.113511
C42	C	0.904067	-0.482095	0.386489
C43	C	0.596028	-0.982103	-0.113512
C44	C	1.096028	-0.482103	0.386488
C45	C	0.700095	-0.982105	-0.113510
C46	C	1.200095	-0.482105	0.386490
C47	C	0.299993	-0.982092	-0.113512
C48	C	0.799993	-0.482092	0.386488
C49	C	0.000055	-1.134101	-0.107404
C50	C	0.500055	-0.634101	0.392596
C51	C	0.000054	-1.226397	-0.109019
C52	C	0.500054	-0.726397	0.390981
C53	C	0.000038	-0.515522	-0.190018
C54	C	0.500038	-0.015522	0.309982
C55	C	0.000044	-0.428801	-0.188494
C56	C	0.500044	0.071199	0.311506
C57	C	0.000052	-0.448676	-0.037006
C58	C	0.500052	0.051324	0.462994
C59	C	0.000053	-0.535394	-0.038530
C60	C	0.500053	-0.035394	0.461470
C61	C	0.000041	-0.568815	-0.115039
C62	C	0.500041	-0.068815	0.384961
C63	C	0.000046	-0.395376	-0.111990
C64	C	0.500046	0.104624	0.388010
C65	C	0.000053	-0.301350	-0.110337
C66	C	0.500053	0.198650	0.389663
C67	C	0.000036	-0.662847	-0.116693
C68	C	0.500036	-0.162847	0.383307
C69	C	0.000035	-0.975984	-0.265521
C70	C	0.500035	-0.475984	0.234479
C71	C	0.000028	-0.977600	-0.357816
C72	C	0.500028	-0.477600	0.142184
C73	C	0.000049	-1.058599	0.353059
C74	C	0.500049	-0.558599	0.853059
C75	C	0.000041	-1.057075	0.439779
C76	C	0.500041	-0.557075	0.939779
C77	C	0.000036	-0.905586	0.419905
C78	C	0.500036	-0.405586	0.919905
C79	C	0.000037	-0.907111	0.333186
C80	C	0.500037	-0.407111	0.833186
C81	C	0.000048	-0.983620	0.299766
C82	C	0.500048	-0.483620	0.799766
C83	C	0.000039	-0.980571	0.473205
C84	C	0.500039	-0.480571	0.973205
C85	C	0.000031	-0.978918	0.567231
C86	C	0.500031	-0.478918	1.067231
C87	C	0.000055	-0.985273	0.205734
C88	C	0.500055	-0.485273	0.705734
H89	H	0.412989	-1.084693	-0.010972
H90	H	0.912989	-0.584693	0.489028
Br91	Br	0.613158	-0.848800	-0.246734
Br92	Br	1.113158	-0.348800	0.253266
H93	H	0.000043	-0.385413	-0.249550
H94	H	0.500043	0.114587	0.250450
Br95	Br	0.000069	-0.607728	0.063234
Br96	Br	0.500069	-0.107728	0.563234
Br97	Br	0.386916	-0.848783	-0.246731
Br98	Br	0.886916	-0.348783	0.253269
Br99	Br	0.000037	-1.158837	0.512103
Br100	Br	0.500037	-0.658837	1.012103
Br101	Br	0.000065	-1.162431	0.307705
Br102	Br	0.500065	-0.662431	0.807705
Br103	Br	0.000017	-0.801758	0.465267
Br104	Br	0.500017	-0.301758	0.965267
Br105	Br	0.000025	-0.560876	-0.293851
Br106	Br	0.500025	-0.060876	0.206149
H107	H	0.000067	-0.421454	0.025285
H108	H	0.500067	0.078546	0.525285
H109	H	0.000033	-0.846050	0.289792
H110	H	0.500033	-0.346050	0.789792
H111	H	0.587108	-1.084694	-0.010969
H112	H	1.087108	-0.584694	0.489031
