data_functionalizedCrystal
_audit_creation_method	'MofGen! by Chris Wilmer'
_symmetry_space_group_name_H-M	'P1'
_symmetry_Int_Tables_number	1
_symmetry_cell_setting	triclinic
loop_
_symmetry_equiv_pos_as_xyz
  x,y,z
_cell_length_a	17.019292
_cell_length_b	15.500215
_cell_length_c	14.044220
_cell_angle_alpha	87.067564
_cell_angle_beta	88.278650
_cell_angle_gamma	90.690427
loop_
_atom_site_label
_atom_site_type_symbol
_atom_site_fract_x
_atom_site_fract_y
_atom_site_fract_z
O1	O	-1.054843	-0.006675	-0.120339
O2	O	-0.554843	0.493325	0.379661
O3	O	-0.827099	0.010302	-0.136672
O4	O	-0.327099	0.510302	0.363328
O5	O	-0.937552	0.002060	0.009461
O6	O	-0.437552	0.502060	0.509461
O7	O	-0.944390	0.001567	-0.266472
O8	O	-0.444390	0.501567	0.233528
O9	O	-0.930472	-0.141302	0.017287
O10	O	-0.430472	0.358698	0.517287
O11	O	-0.820020	-0.133060	-0.128846
O12	O	-0.320020	0.366940	0.371154
O13	O	-1.047763	-0.150037	-0.112513
O14	O	-0.547763	0.349963	0.387487
Cu15	Cu	-0.933245	-0.154638	-0.119965
Cu16	Cu	-0.433245	0.345362	0.380035
Cu17	Cu	-0.941617	0.014904	-0.129220
Cu18	Cu	-0.441617	0.514904	0.370780
O19	O	-0.937310	-0.141795	-0.258646
O20	O	-0.437310	0.358205	0.241354
C21	C	-0.794237	-0.059193	-0.132296
C22	C	-0.294237	0.440807	0.367704
C23	C	-0.706865	-0.052681	-0.130904
C24	C	-0.206865	0.447319	0.369096
N25	N	-0.927362	-0.273886	-0.113455
N26	N	-0.427362	0.226114	0.386545
C27	C	-0.661963	-0.127769	-0.125982
C28	C	-0.161963	0.372231	0.374018
C29	C	-0.579868	-0.121653	-0.124659
C30	C	-0.079868	0.378347	0.375341
C31	C	-0.542677	-0.040446	-0.128265
C32	C	-0.042677	0.459554	0.371735
C33	C	-0.587585	0.034649	-0.133185
C34	C	-0.087585	0.534649	0.366815
C35	C	-0.669679	0.028531	-0.134501
C36	C	-0.169679	0.528531	0.365499
C37	C	-0.295000	-0.018065	-0.124498
C38	C	0.205000	0.481935	0.375502
C39	C	-0.212901	-0.011952	-0.123184
C40	C	0.287099	0.488048	0.376816
C41	C	-0.205190	-0.168254	-0.114656
C42	C	0.294810	0.331746	0.385344
C43	C	-0.287285	-0.174365	-0.115979
C44	C	0.212715	0.325635	0.384021
C45	C	-0.332186	-0.099270	-0.120893
C46	C	0.167814	0.400730	0.379107
C47	C	-0.458763	-0.034191	-0.126915
C48	C	0.041237	0.465809	0.373085
C49	C	-0.416099	-0.105526	-0.122236
C50	C	0.083901	0.394474	0.377764
C51	C	-0.976830	-0.322843	-0.168235
C52	C	-0.476830	0.177157	0.331765
C53	C	-0.972391	-0.413085	-0.163306
C54	C	-0.472391	0.086915	0.336694
C55	C	-0.918479	-0.454369	-0.103600
C56	C	-0.418479	0.045631	0.396400
C57	C	-0.869009	-0.405405	-0.048813
C58	C	-0.369009	0.094595	0.451187
C59	C	-0.873452	-0.315165	-0.053738
C60	C	-0.373452	0.184835	0.446262
C61	C	-0.902480	-0.726645	-0.085861
C62	C	-0.402480	-0.226645	0.414139
C63	C	-0.898038	-0.816893	-0.080942
C64	C	-0.398038	-0.316893	0.419058
C65	C	-1.001422	-0.824566	-0.195434
C66	C	-0.501422	-0.324566	0.304566
C67	C	-1.005857	-0.734323	-0.200358
C68	C	-0.505857	-0.234323	0.299642
C69	C	-0.956390	-0.685368	-0.145567
C70	C	-0.456390	-0.185368	0.354433
C71	C	-0.913938	-0.546611	-0.098562
C72	C	-0.413938	-0.046611	0.401438
C73	C	-0.960935	-0.593128	-0.150601
C74	C	-0.460935	-0.093128	0.349399
C75	C	-0.080626	-0.080538	-0.116884
C76	C	0.419374	0.419462	0.383116
C77	C	-0.167999	-0.087041	-0.118262
C78	C	0.332001	0.412959	0.381738
C79	C	-0.931020	-0.069398	0.048672
C80	C	-0.431020	0.430602	0.548672
C81	C	-0.922093	-0.068734	0.153849
C82	C	-0.422093	0.431266	0.653849
N83	N	-0.947506	0.134151	-0.135723
N84	N	-0.447506	0.634151	0.364277
C85	C	-0.943843	-0.070334	-0.297857
C86	C	-0.443843	0.429666	0.202143
C87	C	-0.952770	-0.070993	-0.403034
C88	C	-0.452770	0.429007	0.096966
C89	C	-0.905773	-0.067505	0.346420
C90	C	-0.405773	0.432495	0.846420
C91	C	-0.969086	-0.072222	0.404400
C92	C	-0.469086	0.427778	0.904400
C93	C	-0.960005	-0.071538	0.511553
C94	C	-0.460005	0.428462	1.011553
C95	C	-0.914852	-0.068189	0.239257
C96	C	-0.414852	0.431811	0.739257
H97	H	-0.692237	-0.193897	-0.123053
H98	H	-0.192237	0.306103	0.376947
Br99	Br	-1.068552	-0.891009	-0.269788
Br100	Br	-0.568552	-0.391009	0.230212
Br101	Br	-0.355928	0.083850	-0.131166
Br102	Br	0.144072	0.583850	0.368834
Br103	Br	-1.070797	-0.079811	0.353009
Br104	Br	-0.570797	0.420189	0.853009
Br105	Br	-0.730619	0.130441	-0.141173
Br106	Br	-0.230619	0.630441	0.358827
H107	H	-0.844755	-0.062954	0.377256
H108	H	-0.344755	0.437046	0.877256
Br109	Br	-1.078990	-0.678299	-0.281438
Br110	Br	-0.578990	-0.178299	0.218562
H111	H	-0.862200	-0.686797	-0.041246
H112	H	-0.362200	-0.186797	0.458754
H113	H	-0.317560	-0.240492	-0.113038
H114	H	0.182440	0.259508	0.386962
Br115	Br	-0.518931	-0.223564	-0.117994
Br116	Br	-0.018931	0.276436	0.382006
H117	H	-0.833170	-0.275305	-0.009130
H118	H	-0.333170	0.224695	0.490870
Br119	Br	-0.824866	-0.872920	0.000091
Br120	Br	-0.324866	-0.372920	0.500091
H121	H	-0.182622	0.054179	-0.126123
H122	H	0.317378	0.554179	0.373877
H123	H	-0.168622	-0.229392	-0.110653
H124	H	0.331378	0.270608	0.389347
H125	H	-0.557298	0.100769	-0.136114
H126	H	-0.057298	0.600769	0.363886
Br127	Br	-1.049997	-0.266824	-0.249272
Br128	Br	-0.549997	0.233176	0.250728
Br129	Br	-1.039530	-0.479524	-0.237654
Br130	Br	-0.539530	0.020476	0.262346
Br131	Br	-0.840770	-0.602646	-0.017540
Br132	Br	-0.340770	-0.102646	0.482460
Br133	Br	-0.795845	-0.461432	0.032221
Br134	Br	-0.295845	0.038568	0.532221
H135	H	-0.446384	-0.171644	-0.119295
H136	H	0.053616	0.328356	0.380705
H137	H	-0.428472	0.031927	-0.129851
H138	H	0.071528	0.531927	0.370149
H139	H	-1.004832	-0.559511	-0.199210
H140	H	-0.504832	-0.059511	0.300790
