data_functionalizedCrystal
_audit_creation_method	'MofGen! by Chris Wilmer'
_symmetry_space_group_name_H-M	'P1'
_symmetry_Int_Tables_number	1
_symmetry_cell_setting	triclinic
loop_
_symmetry_equiv_pos_as_xyz
  x,y,z
_cell_length_a	12.811457
_cell_length_b	15.995350
_cell_length_c	11.892095
_cell_angle_alpha	93.891441
_cell_angle_beta	91.498327
_cell_angle_gamma	83.769027
loop_
_atom_site_label
_atom_site_type_symbol
_atom_site_fract_x
_atom_site_fract_y
_atom_site_fract_z
O1	O	1.389202	0.115514	0.048418
O2	O	1.085841	0.126016	0.017317
O3	O	1.245814	-0.001045	0.033719
O4	O	1.229229	0.242575	0.032017
O5	O	1.232476	0.009532	0.220359
O6	O	1.072503	0.136593	0.203957
O7	O	1.375863	0.126092	0.235058
Zn8	Zn	1.222066	0.133022	0.249141
Zn9	Zn	1.239639	0.119085	0.003235
O10	O	1.215891	0.253153	0.218657
C11	C	1.040353	0.130392	0.106657
C12	C	0.924683	0.127663	0.094799
C13	C	0.692785	0.134051	0.276012
C14	C	0.584102	0.131487	0.264875
C15	C	0.598634	0.119963	0.061389
C16	C	0.707317	0.122528	0.072526
C17	C	0.754388	0.129573	0.179841
C18	C	0.863071	0.132143	0.190977
C19	C	0.877602	0.120614	-0.012508
C20	C	0.768920	0.118050	-0.023645
C21	C	1.238459	-0.026958	0.126967
C22	C	1.236404	-0.119928	0.126750
C23	C	1.229022	-0.457744	0.125997
C24	C	1.115122	-0.411395	0.113898
C25	C	1.117148	-0.314662	0.114529
C26	C	1.232684	-0.290149	0.126369
C27	C	1.281261	-0.324663	0.238709
C28	C	1.278393	-0.421321	0.238505
C29	C	1.295914	-0.433685	0.026502
C30	C	1.295988	-0.336820	0.025090
C31	C	1.234759	-0.195432	0.126585
C32	C	1.226949	-0.552461	0.125789
C33	C	1.421352	0.121715	0.145716
C34	C	1.537023	0.124444	0.157567
C35	C	1.223246	0.279065	0.125407
C36	C	1.225301	0.372035	0.125616
N37	N	1.210080	0.142533	0.416966
N38	N	1.251633	0.109568	-0.164590
C39	C	1.335037	0.043339	0.666426
C40	C	1.326667	0.049994	0.783909
C41	C	1.184964	0.162491	0.769419
C42	C	1.193334	0.155836	0.651935
C43	C	1.268375	0.096260	0.600443
C44	C	1.276749	0.089610	0.482958
C45	C	1.135042	0.202103	0.468469
C46	C	1.126672	0.208757	0.585953
H47	H	1.078436	-0.290981	0.033601
C48	C	0.516341	0.136420	0.370671
N49	N	0.465303	0.140138	0.450362
H50	H	1.361693	-0.452516	0.251913
C51	C	1.395541	-0.304191	0.255833
N52	N	1.481615	-0.288764	0.268734
C53	C	1.220872	-0.280747	0.340456
N54	N	1.175379	-0.247671	0.417090
C55	C	1.049687	-0.271714	0.211762
N56	N	0.998873	-0.239367	0.285004
C57	C	1.359292	0.024073	0.426318
N58	N	1.421462	-0.025294	0.383660
C59	C	1.248149	-0.306514	-0.087114
N60	N	1.212106	-0.283690	-0.171625
C61	C	1.061708	0.260319	0.395878
N62	N	1.006476	0.304167	0.341202
C63	C	1.060973	-0.442863	0.004345
N64	N	1.020186	-0.466574	-0.078171
C65	C	1.046548	-0.432589	0.210321
N66	N	0.994905	-0.448544	0.282958
H67	H	1.380949	0.006900	0.837630
H68	H	1.264438	-0.459150	-0.058097
H69	H	1.379966	-0.464705	0.034394
C70	C	0.914848	0.139890	0.309025
N71	N	0.953844	0.145721	0.397942
H72	H	1.065572	0.257261	0.627891
H73	H	0.731109	0.139799	0.363392
H74	H	0.560292	0.114213	-0.025981
C75	C	0.717129	0.110300	-0.141686
N76	N	0.678120	0.104466	-0.230596
C77	C	0.945375	0.115689	-0.118304
N78	N	0.996421	0.111981	-0.197986
C79	C	1.417585	-0.022191	0.609782
N80	N	1.479761	-0.071551	0.567120
C81	C	1.215331	-0.440462	0.340455
N82	N	1.167828	-0.454874	0.417244
H83	H	1.123861	0.210991	0.811359
C84	C	1.410437	-0.315507	0.028065
N85	N	1.496645	-0.299456	0.030317
