data_functionalizedCrystal
_audit_creation_method	'MofGen! by Chris Wilmer'
_symmetry_space_group_name_H-M	'P1'
_symmetry_Int_Tables_number	1
_symmetry_cell_setting	triclinic
loop_
_symmetry_equiv_pos_as_xyz
  x,y,z
_cell_length_a	15.021413
_cell_length_b	14.044220
_cell_length_c	14.044220
_cell_angle_alpha	86.811122
_cell_angle_beta	89.996608
_cell_angle_gamma	89.996894
loop_
_atom_site_label
_atom_site_type_symbol
_atom_site_fract_x
_atom_site_fract_y
_atom_site_fract_z
O1	O	0.073941	-1.277172	0.230155
O2	O	0.073963	-1.000501	0.221850
O3	O	0.073944	-1.134684	0.087667
O4	O	0.073961	-1.142989	0.364338
O5	O	-0.074121	-1.134662	0.087686
O6	O	-0.074101	-1.000479	0.221869
O7	O	-0.074123	-1.277151	0.230174
Zn8	Zn	-0.097620	-1.138811	0.226024
Zn9	Zn	0.097460	-1.138840	0.225999
O10	O	-0.074104	-1.142968	0.364357
C11	C	-0.000066	-0.964868	0.218223
C12	C	-0.000058	-0.858725	0.207379
N13	N	-0.230758	-1.138799	0.226041
C14	C	-0.000089	-1.131037	0.052054
C15	C	-0.000089	-1.120193	-0.054088
C16	C	-0.470432	-1.076740	0.288055
C17	C	-0.529772	-1.164574	0.313879
C18	C	-0.412365	-1.138821	0.226020
C19	C	-0.529767	-1.051012	0.200219
C20	C	-0.587789	-1.138836	0.226000
C21	C	-0.470399	-1.226703	0.251890
C22	C	-0.470388	-1.113081	0.138188
C23	C	-0.529701	-1.200975	0.163981
C24	C	-0.311308	-1.138812	0.226033
C25	C	-0.688844	-1.138855	0.225987
N26	N	0.230598	-1.138859	0.225975
C27	C	-0.000092	-1.312783	0.233800
C28	C	-0.000094	-1.418926	0.244645
C29	C	-0.000077	-0.664388	0.187553
C30	C	-0.000076	-0.613258	0.264467
C31	C	-0.000086	-0.505122	0.253435
C32	C	-0.000066	-0.772534	0.198583
C33	C	-0.000074	-1.100366	-0.248426
C34	C	-0.000078	-1.177281	-0.299556
C35	C	-0.000070	-1.166249	-0.407692
C36	C	-0.000082	-1.111397	-0.140280
C37	C	-0.000069	-1.146614	0.399969
C38	C	-0.000063	-1.157459	0.506112
H39	H	-0.444409	-1.024301	0.340567
O40	O	-0.000187	-1.011879	-0.292973
C41	C	-0.076883	-0.961999	-0.266256
H42	H	-0.102453	-0.993738	-0.194944
H43	H	-0.059637	-0.883646	-0.259289
H44	H	-0.130577	-0.968278	-0.322928
H45	H	-0.000067	-0.650697	0.338600
H46	H	-0.555857	-1.186358	0.388148
H47	H	-0.000086	-0.626951	0.113425
H48	H	-0.000024	-1.251414	-0.262117
O49	O	-0.439446	-1.315372	0.277878
C50	C	-0.470342	-1.380801	0.212827
H51	H	-0.487366	-1.341115	0.142158
H52	H	-0.416295	-1.435837	0.200786
H53	H	-0.532346	-1.418360	0.242934
H54	H	-0.555561	-1.253544	0.111513
O55	O	-0.439129	-1.086958	0.049683
C56	C	-0.386208	-1.004433	0.054302
H57	H	-0.360222	-0.999064	0.130077
H58	H	-0.327645	-1.008748	0.003089
H59	H	-0.427961	-0.938754	0.033475
O60	O	-0.560769	-0.962347	0.174295
C61	C	-0.530587	-0.897131	0.239921
H62	H	-0.468104	-0.926443	0.277128
H63	H	-0.514593	-0.826047	0.200484
H64	H	-0.584658	-0.886164	0.295216
