data_functionalizedCrystal
_audit_creation_method	'MofGen! by Chris Wilmer'
_symmetry_space_group_name_H-M	'P1'
_symmetry_Int_Tables_number	1
_symmetry_cell_setting	triclinic
loop_
_symmetry_equiv_pos_as_xyz
  x,y,z
_cell_length_a	27.732048
_cell_length_b	27.732048
_cell_length_c	26.809956
_cell_angle_alpha	90.000636
_cell_angle_beta	89.996742
_cell_angle_gamma	97.357345
loop_
_atom_site_label
_atom_site_type_symbol
_atom_site_fract_x
_atom_site_fract_y
_atom_site_fract_z
O1	O	0.640931	-0.057510	-0.041421
O2	O	0.974264	0.275823	0.291913
O3	O	1.307598	0.609157	0.625246
O4	O	0.500138	-0.066256	-0.041436
O5	O	0.833471	0.267078	0.291897
O6	O	1.166804	0.600411	0.625230
O7	O	0.574907	0.008514	-0.041419
O8	O	0.908240	0.341847	0.291915
O9	O	1.241574	0.675180	0.625248
O10	O	0.566162	-0.132280	-0.041439
O11	O	0.899495	0.201054	0.291895
O12	O	1.232828	0.534387	0.625228
O13	O	0.574893	0.008502	0.041541
O14	O	0.908226	0.341836	0.374874
O15	O	1.241560	0.675169	0.708207
O16	O	0.500123	-0.066267	0.041523
O17	O	0.833457	0.267066	0.374856
O18	O	1.166790	0.600400	0.708189
O19	O	0.640917	-0.057522	0.041539
O20	O	0.974250	0.275812	0.374872
O21	O	1.307584	0.609145	0.708205
Zn22	Zn	0.570518	-0.061896	0.054702
Zn23	Zn	0.903851	0.271437	0.388036
Zn24	Zn	1.237185	0.604771	0.721369
Zn25	Zn	0.570536	-0.061881	-0.054600
Zn26	Zn	0.903870	0.271452	0.278733
Zn27	Zn	1.237203	0.604786	0.612067
O28	O	0.566147	-0.132291	0.041521
O29	O	0.899481	0.201042	0.374854
O30	O	1.232814	0.534376	0.708187
C31	C	0.482124	-0.066078	0.000041
C32	C	0.815457	0.267256	0.333375
C33	C	1.148790	0.600589	0.666708
C34	C	0.428469	-0.065525	0.000036
C35	C	0.761802	0.267808	0.333369
C36	C	1.095135	0.601142	0.666702
C37	C	0.089654	-0.106229	0.000051
C38	C	0.422987	0.227105	0.333385
C39	C	0.756320	0.560438	0.666718
C40	C	-0.112006	-0.104178	0.000056
C41	C	0.221327	0.229156	0.333390
C42	C	0.554661	0.562489	0.666723
O43	O	-0.143262	-0.141398	0.000073
O44	O	0.190072	0.191935	0.333406
O45	O	0.523405	0.525268	0.666739
N46	N	-0.131130	-0.059843	0.000062
N47	N	0.202204	0.273491	0.333395
N48	N	0.535537	0.606824	0.666728
C49	C	-0.099835	-0.016017	0.000069
C50	C	0.233498	0.317316	0.333402
C51	C	0.566832	0.650650	0.666736
O52	O	-0.120728	0.021740	0.000079
O53	O	0.212605	0.355073	0.333412
O54	O	0.545938	0.688407	0.666746
C55	C	0.101824	-0.018068	0.000068
C56	C	0.435157	0.315265	0.333401
C57	C	0.768490	0.648598	0.666735
C58	C	0.120944	-0.062407	0.000057
C59	C	0.454278	0.270927	0.333391
C60	C	0.787611	0.604260	0.666724
C61	C	0.108775	-0.150563	0.000042
C62	C	0.442108	0.182770	0.333375
C63	C	0.775442	0.516103	0.666708
C64	C	0.159187	-0.151076	0.000038
C65	C	0.492520	0.182258	0.333371
C66	C	0.825853	0.515591	0.666704
C67	C	0.190477	-0.107253	0.000044
C68	C	0.523811	0.226080	0.333377
C69	C	0.857144	0.559413	0.666710
C70	C	0.171356	-0.062919	0.000054
C71	C	0.504690	0.270415	0.333387
C72	C	0.838023	0.603748	0.666720
C73	C	0.133117	0.025757	0.000079
C74	C	0.466451	0.359090	0.333412
C75	C	0.799784	0.692423	0.666746
C76	C	0.183535	0.025240	0.000080
C77	C	0.516868	0.358573	0.333413
C78	C	0.850201	0.691906	0.666747
C79	C	0.202655	-0.019098	0.000069
C80	C	0.535989	0.314235	0.333403
C81	C	0.869322	0.647568	0.666736
C82	C	0.253059	-0.019609	0.000056
C83	C	0.586392	0.313724	0.333389
C84	C	0.919725	0.647058	0.666722
N85	N	0.272183	-0.063944	0.000050
N86	N	0.605516	0.269389	0.333384
N87	N	0.938849	0.602723	0.666717
C88	C	0.240892	-0.107766	0.000044
C89	C	0.574225	0.225567	0.333378
C90	C	0.907559	0.558900	0.666711
C91	C	-0.205709	-0.014943	0.000069
C92	C	0.127624	0.318390	0.333402
C93	C	0.460957	0.651724	0.666735
C94	C	-0.256124	-0.014430	0.000068
C95	C	0.077210	0.318903	0.333401
C96	C	0.410543	0.652237	0.666735
C97	C	-0.268291	-0.102591	0.000056
C98	C	0.065042	0.230742	0.333390
C99	C	0.398376	0.564076	0.666723
C100	C	-0.217876	-0.103104	0.000053
C101	C	0.115458	0.230230	0.333387
C102	C	0.448791	0.563563	0.666720
C103	C	-0.186585	-0.059278	0.000063
C104	C	0.146748	0.274055	0.333397
C105	C	0.480081	0.607388	0.666730
C106	C	0.346761	-0.108839	0.000036
C107	C	0.680094	0.224495	0.333369
C108	C	1.013428	0.557828	0.666702
C109	C	0.397178	-0.109347	0.000030
C110	C	0.730511	0.223986	0.333363
C111	C	1.063845	0.557319	0.666696
C112	C	0.409341	-0.021186	0.000044
C113	C	0.742674	0.312147	0.333378
C114	C	1.076008	0.645480	0.666711
C115	C	0.358929	-0.020678	0.000048
C116	C	0.692262	0.312656	0.333381
C117	C	1.025595	0.645989	0.666714
C118	C	0.327639	-0.064508	0.000045
C119	C	0.660973	0.268825	0.333378
C120	C	0.994306	0.602159	0.666712
O121	O	0.284343	0.017592	0.000045
O122	O	0.617676	0.350925	0.333378
O123	O	0.951009	0.684259	0.666712
O124	O	0.261794	-0.145518	0.000045
O125	O	0.595128	0.187816	0.333379
O126	O	0.928461	0.521149	0.666712
C127	C	0.039242	-0.105716	0.000055
C128	C	0.372575	0.227617	0.333389
C129	C	0.705908	0.560950	0.666722
C130	C	0.020120	-0.061382	0.000065
C131	C	0.353454	0.271951	0.333399
C132	C	0.686787	0.605285	0.666732
C133	C	0.051411	-0.017560	0.000071
C134	C	0.384744	0.315774	0.333405
C135	C	0.718078	0.649107	0.666738
C136	C	-0.030294	-0.060869	0.000065
C137	C	0.303039	0.272464	0.333398
C138	C	0.636373	0.605798	0.666731
C139	C	-0.061585	-0.104691	0.000059
C140	C	0.271749	0.228642	0.333392
C141	C	0.605082	0.561975	0.666725
C142	C	-0.042461	-0.149026	0.000053
C143	C	0.290872	0.184307	0.333387
C144	C	0.624206	0.517640	0.666720
C145	C	0.007951	-0.149539	0.000049
C146	C	0.341284	0.183795	0.333383
C147	C	0.674618	0.517128	0.666716
C148	C	0.032287	0.026775	0.000077
C149	C	0.365621	0.360109	0.333410
C150	C	0.698954	0.693442	0.666743
C151	C	-0.018125	0.027284	0.000080
C152	C	0.315208	0.360617	0.333413
C153	C	0.648541	0.693951	0.666747
C154	C	-0.049416	-0.016538	0.000074
C155	C	0.283917	0.316795	0.333407
C156	C	0.617251	0.650129	0.666741
C157	C	0.574716	0.026515	0.000062
C158	C	0.908050	0.359848	0.333396
C159	C	1.241383	0.693182	0.666729
C160	C	0.574164	0.080170	0.000066
C161	C	0.907497	0.413503	0.333400
C162	C	1.240830	0.746837	0.666733
C163	C	0.658931	-0.057699	0.000060
C164	C	0.992264	0.275634	0.333393
C165	C	1.325598	0.608967	0.666726
C166	C	0.712586	-0.058252	0.000062
C167	C	1.045919	0.275081	0.333395
C168	C	1.379252	0.608414	0.666729
C169	C	0.566338	-0.150292	0.000039
C170	C	0.899671	0.183041	0.333372
C171	C	1.233005	0.516374	0.666705
C172	C	0.566891	-0.203947	0.000031
C173	C	0.900224	0.129386	0.333365
C174	C	1.233557	0.462720	0.666698
N175	N	0.570509	-0.061906	0.129298
N176	N	0.903842	0.271427	0.462632
N177	N	1.237175	0.604761	0.795965
C178	C	0.614867	0.418985	0.000045
C179	C	0.948201	0.752318	0.333379
C180	C	1.281534	1.085652	0.666712
C181	C	0.612816	0.620645	0.000038
C182	C	0.946150	0.953978	0.333372
C183	C	1.279483	1.287311	0.666705
O184	O	0.650037	0.651900	0.000021
O185	O	0.983370	0.985234	0.333354
O186	O	1.316704	1.318567	0.666687
N187	N	0.568481	0.639768	0.000034
N188	N	0.901814	0.973102	0.333367
N189	N	1.235148	1.306435	0.666700
C190	C	0.524656	0.608474	0.000028
C191	C	0.857989	0.941807	0.333361
C192	C	1.191322	1.275140	0.666694
O193	O	0.486899	0.629367	0.000019
O194	O	0.820232	0.962700	0.333352
O195	O	1.153565	1.296033	0.666685
C196	C	0.526707	0.406815	0.000031
C197	C	0.860040	0.740148	0.333365
C198	C	1.193374	1.073482	0.666698
C199	C	0.571045	0.387694	0.000041
C200	C	0.904378	0.721028	0.333374
C201	C	1.237712	1.054361	0.666708
C202	C	0.659202	0.399864	0.000054
C203	C	0.992535	0.733197	0.333388
C204	C	1.325868	1.066530	0.666721
C205	C	0.659714	0.349452	0.000059
C206	C	0.993047	0.682785	0.333392
C207	C	1.326381	1.016118	0.666726
C208	C	0.615892	0.318161	0.000054
C209	C	0.949225	0.651494	0.333388
C210	C	1.282559	0.984828	0.666721
C211	C	0.571557	0.337282	0.000045
C212	C	0.904891	0.670616	0.333379
C213	C	1.238224	1.003949	0.666712
C214	C	0.482882	0.375521	0.000022
C215	C	0.816215	0.708855	0.333355
C216	C	1.149549	1.042188	0.666688
C217	C	0.483399	0.325104	0.000021
C218	C	0.816732	0.658437	0.333355
C219	C	1.150066	0.991771	0.666688
C220	C	0.527737	0.305983	0.000031
C221	C	0.861070	0.639317	0.333364
C222	C	1.194404	0.972650	0.666698
C223	C	0.528247	0.255580	0.000045
C224	C	0.861581	0.588913	0.333379
C225	C	1.194914	0.922246	0.666712
N226	N	0.572583	0.236456	0.000050
N227	N	0.905916	0.569789	0.333383
N228	N	1.239249	0.903123	0.666717
C229	C	0.616405	0.267747	0.000054
C230	C	0.949738	0.601080	0.333388
C231	C	1.283072	0.934413	0.666721
C232	C	0.523582	0.714348	0.000027
C233	C	0.856915	1.047681	0.333360
C234	C	1.190248	1.381014	0.666693
C235	C	0.523069	0.764762	0.000027
C236	C	0.856402	1.098096	0.333360
C237	C	1.189735	1.431429	0.666693
C238	C	0.611230	0.776930	0.000036
C239	C	0.944563	1.110263	0.333370
C240	C	1.277896	1.443596	0.666703
C241	C	0.611742	0.726514	0.000040
C242	C	0.945075	1.059848	0.333373
C243	C	1.278409	1.393181	0.666707
C244	C	0.567917	0.695224	0.000031
C245	C	0.901250	1.028557	0.333365
C246	C	1.234583	1.361891	0.666698
C247	C	0.617477	0.161878	0.000064
C248	C	0.950811	0.495211	0.333398
C249	C	1.284144	0.828544	0.666731
C250	C	0.617986	0.111461	0.000071
C251	C	0.951319	0.444794	0.333404
C252	C	1.284652	0.778127	0.666738
C253	C	0.529825	0.099298	0.000059
C254	C	0.863158	0.432631	0.333392
C255	C	1.196492	0.765964	0.666725
C256	C	0.529316	0.149710	0.000055
C257	C	0.862650	0.483043	0.333388
C258	C	1.195983	0.816377	0.666721
C259	C	0.573147	0.180999	0.000056
C260	C	0.906480	0.514333	0.333389
C261	C	1.239813	0.847666	0.666723
O262	O	0.491047	0.224296	0.000057
O263	O	0.824380	0.557629	0.333391
O264	O	1.157713	0.890962	0.666724
O265	O	0.654156	0.246844	0.000053
O266	O	0.987490	0.580177	0.333386
O267	O	1.320823	0.913511	0.666719
C268	C	0.614355	0.469397	0.000041
C269	C	0.947688	0.802730	0.333374
C270	C	1.281022	1.136064	0.666708
C271	C	0.570021	0.488518	0.000032
C272	C	0.903354	0.821852	0.333365
C273	C	1.236687	1.155185	0.666699
C274	C	0.526198	0.457228	0.000027
C275	C	0.859532	0.790561	0.333361
C276	C	1.192865	1.123894	0.666694
C277	C	0.569508	0.538933	0.000032
C278	C	0.902841	0.872266	0.333365
C279	C	1.236174	1.205599	0.666699
C280	C	0.613330	0.570223	0.000036
C281	C	0.946663	0.903557	0.333370
C282	C	1.279996	1.236890	0.666703
C283	C	0.657665	0.551100	0.000041
C284	C	0.990998	0.884433	0.333374
C285	C	1.324332	1.217766	0.666708
C286	C	0.658177	0.500688	0.000045
C287	C	0.991511	0.834021	0.333379
C288	C	1.324844	1.167354	0.666712
C289	C	0.481863	0.476351	0.000023
C290	C	0.815197	0.809685	0.333356
C291	C	1.148530	1.143018	0.666690
C292	C	0.481355	0.526764	0.000019
C293	C	0.814688	0.860097	0.333352
C294	C	1.148021	1.193430	0.666686
C295	C	0.525177	0.558054	0.000023
C296	C	0.858510	0.891388	0.333357
C297	C	1.191843	1.224721	0.666690
N298	N	0.570549	-0.061867	-0.129196
N299	N	0.903883	0.271466	0.204137
N300	N	1.237216	0.604799	0.537471
C301	C	0.603640	-0.028781	0.473932
C302	C	0.936973	0.304552	0.807266
C303	C	1.270307	0.637885	1.140599
C304	C	0.603652	-0.028774	0.682810
C305	C	0.936985	0.304559	1.016143
C306	C	1.270318	0.637893	1.349477
O307	O	0.631801	-0.000613	0.709820
O308	O	0.965135	0.332720	1.043154
O309	O	1.298468	0.666054	1.376487
N310	N	0.570539	-0.061870	0.708925
N311	N	0.903873	0.271463	1.042259
N312	N	1.237206	0.604796	1.375592
C313	C	0.537419	-0.094969	0.682818
C314	C	0.870753	0.238364	1.016151
C315	C	1.204086	0.571698	1.349485
O316	O	0.509252	-0.123116	0.709824
O317	O	0.842585	0.210217	1.043157
O318	O	1.175919	0.543550	1.376490
C319	C	0.537406	-0.094974	0.473941
C320	C	0.870739	0.238360	0.807275
C321	C	1.204073	0.571693	1.140608
C322	C	0.570524	-0.061878	0.447829
C323	C	0.903857	0.271455	0.781162
C324	C	1.237191	0.604788	1.114495
C325	C	0.636755	0.004312	0.447819
C326	C	0.970088	0.337645	0.781153
C327	C	1.303422	0.670978	1.114486
C328	C	0.636754	0.004308	0.395603
C329	C	0.970087	0.337641	0.728936
C330	C	1.303420	0.670975	1.062270
C331	C	0.603637	-0.028789	0.369500
C332	C	0.936971	0.304544	0.702833
C333	C	1.270304	0.637877	1.036166
C334	C	0.570522	-0.061882	0.395612
C335	C	0.903856	0.271451	0.728946
C336	C	1.237189	0.604784	1.062279
C337	C	0.504284	-0.128070	0.447835
C338	C	0.837618	0.205264	0.781168
C339	C	1.170951	0.538597	1.114502
C340	C	0.504283	-0.128067	0.395613
C341	C	0.837616	0.205266	0.728946
C342	C	1.170950	0.538599	1.062279
C343	C	0.537401	-0.094972	0.369500
C344	C	0.870734	0.238362	0.702833
C345	C	1.204068	0.571695	1.036167
C346	C	0.537405	-0.094983	0.317293
C347	C	0.870738	0.238350	0.650626
C348	C	1.204071	0.571683	0.983959
N349	N	0.570517	-0.061887	0.291177
N350	N	0.903850	0.271447	0.624510
N351	N	1.237184	0.604780	0.957844
C352	C	0.603633	-0.028790	0.317281
C353	C	0.936967	0.304544	0.650614
C354	C	1.270300	0.637877	0.983947
C355	C	0.537429	-0.094965	0.792481
C356	C	0.870763	0.238368	1.125815
C357	C	1.204096	0.571702	1.459148
C358	C	0.537433	-0.094964	0.844700
C359	C	0.870767	0.238369	1.178034
C360	C	1.204100	0.571702	1.511367
C361	C	0.603665	-0.028768	0.844689
C362	C	0.936998	0.304565	1.178022
C363	C	1.270332	0.637898	1.511355
C364	C	0.603663	-0.028772	0.792469
C365	C	0.936996	0.304562	1.125802
C366	C	1.270330	0.637895	1.459135
C367	C	0.570542	-0.061868	0.766366
C368	C	0.903875	0.271465	1.099699
C369	C	1.237209	0.604798	1.433033
C370	C	0.603628	-0.028801	0.207623
C371	C	0.936961	0.304533	0.540956
C372	C	1.270295	0.637866	0.874289
C373	C	0.603625	-0.028809	0.155402
C374	C	0.936958	0.304524	0.488735
C375	C	1.270292	0.637858	0.822068
C376	C	0.537392	-0.095003	0.155418
C377	C	0.870725	0.238330	0.488751
C378	C	1.204058	0.571664	0.822085
C379	C	0.537396	-0.094997	0.207635
C380	C	0.870730	0.238337	0.540968
C381	C	1.204063	0.571670	0.874301
C382	C	0.570516	-0.061892	0.233735
C383	C	0.903850	0.271442	0.567069
C384	C	1.237183	0.604775	0.900402
O385	O	0.509266	-0.123126	0.290250
O386	O	0.842599	0.210208	0.623583
O387	O	1.175933	0.543541	0.956916
O388	O	0.631789	-0.000640	0.290266
O389	O	0.965123	0.332694	0.623599
O390	O	1.298456	0.666027	0.956933
C391	C	0.603642	-0.028777	0.526149
C392	C	0.936975	0.304556	0.859482
C393	C	1.270308	0.637889	1.192815
C394	C	0.570527	-0.061870	0.552261
C395	C	0.903860	0.271463	0.885595
C396	C	1.237193	0.604796	1.218928
C397	C	0.537410	-0.094968	0.526158
C398	C	0.870744	0.238366	0.859491
C399	C	1.204077	0.571699	1.192824
C400	C	0.570531	-0.061870	0.604480
C401	C	0.903864	0.271463	0.937814
C402	C	1.237197	0.604797	1.271147
C403	C	0.603647	-0.028773	0.630584
C404	C	0.936980	0.304560	0.963917
C405	C	1.270314	0.637894	1.297250
C406	C	0.636759	0.004324	0.604468
C407	C	0.970093	0.337657	0.937802
C408	C	1.303426	0.670990	1.271135
C409	C	0.636758	0.004320	0.552252
C410	C	0.970091	0.337653	0.885585
C411	C	1.303425	0.670986	1.218919
C412	C	0.504298	-0.128064	0.552273
C413	C	0.837631	0.205269	0.885606
C414	C	1.170965	0.538603	1.218940
C415	C	0.504303	-0.128058	0.604489
C416	C	0.837636	0.205276	0.937823
C417	C	1.170969	0.538609	1.271156
C418	C	0.537419	-0.094961	0.630593
C419	C	0.870752	0.238373	0.963926
C420	C	1.204086	0.571706	1.297260
H421	H	0.057760	0.062462	0.000083
H422	H	0.391093	0.395795	0.333416
H423	H	0.724427	0.729128	0.666749
H424	H	0.446777	0.391080	0.000011
H425	H	0.780111	0.724414	0.333344
H426	H	1.113444	1.057747	0.666678
H427	H	-0.067947	-0.184708	0.000046
H428	H	0.265386	0.148625	0.333380
H429	H	0.598720	0.481959	0.666713
N430	N	-0.198338	-0.148389	0.000042
N431	N	0.134995	0.184944	0.333376
N432	N	0.468328	0.518278	0.666709
N433	N	-0.171561	-0.158508	-0.034927
N434	N	0.161773	0.174825	0.298407
N435	N	0.495106	0.508159	0.631740
H436	H	-0.157764	-0.190493	-0.034934
H437	H	0.175570	0.142841	0.298400
H438	H	0.508903	0.476174	0.631733
H439	H	0.343360	0.015426	0.000049
H440	H	0.676693	0.348759	0.333382
H441	H	1.010027	0.682093	0.666715
N442	N	0.655998	0.808891	0.000032
N443	N	0.989331	1.142224	0.333365
N444	N	1.322665	1.475557	0.666699
N445	N	0.695584	0.791817	0.000030
N446	N	1.028917	1.125151	0.333363
N447	N	1.362250	1.458484	0.666697
H448	H	0.727200	0.814391	0.000023
H449	H	1.060533	1.147724	0.333357
H450	H	1.393867	1.481057	0.666690
N451	N	0.470478	-0.161884	0.525615
N452	N	0.803811	0.171449	0.858948
N453	N	1.137144	0.504783	1.192282
N454	N	0.485589	-0.191790	0.496483
N455	N	0.818923	0.141543	0.829816
N456	N	1.152256	0.474877	1.163149
H457	H	0.461704	-0.215681	0.477657
H458	H	0.795037	0.117653	0.810991
H459	H	1.128371	0.450986	1.144324
H460	H	0.694282	0.485125	0.000053
H461	H	1.027615	0.818458	0.333386
H462	H	1.360949	1.151791	0.666720
H463	H	0.209009	0.060929	0.000089
H464	H	0.542343	0.394262	0.333422
H465	H	0.875676	0.727595	0.666755
N466	N	0.662252	0.193827	0.000064
N467	N	0.995586	0.527160	0.333397
N468	N	1.328919	0.860494	0.666731
N469	N	0.701830	0.176739	0.000072
N470	N	1.035164	0.510073	0.333406
N471	N	1.368497	0.843406	0.666739
H472	H	0.733453	0.199303	0.000075
H473	H	1.066787	0.532636	0.333408
H474	H	1.400120	0.865970	0.666741
H475	H	0.486964	0.780325	0.000028
H476	H	0.820297	1.113659	0.333361
H477	H	1.153631	1.446992	0.666694
H478	H	0.412743	-0.145454	0.000021
H479	H	0.746076	0.187879	0.333354
H480	H	1.079410	0.521213	0.666687
H481	H	0.510471	-0.121919	0.865958
H482	H	0.843804	0.211415	1.199291
H483	H	1.177137	0.544748	1.532624
H484	H	-0.180236	0.020747	0.000077
H485	H	0.153097	0.354080	0.333410
H486	H	0.486430	0.687414	0.666744
N487	N	0.503599	-0.128772	0.765813
N488	N	0.836932	0.204562	1.099146
N489	N	1.170266	0.537895	1.432480
N490	N	0.473705	-0.113647	0.736678
N491	N	0.807039	0.219686	1.070011
N492	N	1.140372	0.553019	1.403345
H493	H	0.449814	-0.137525	0.717844
H494	H	0.783147	0.195809	1.051177
H495	H	1.116481	0.529142	1.384511
H496	H	0.117558	0.061861	0.000088
H497	H	0.450892	0.395195	0.333421
H498	H	0.784225	0.728528	0.666755
H499	H	0.494146	0.073812	0.000057
H500	H	0.827480	0.407145	0.333390
H501	H	1.160813	0.740478	0.666724
N502	N	0.441310	0.023574	0.000064
N503	N	0.774643	0.356907	0.333398
N504	N	1.107977	0.690241	0.666731
N505	N	0.439755	0.053134	0.035045
N506	N	0.773089	0.386468	0.368378
N507	N	1.106422	0.719801	0.701712
H508	H	0.462335	0.084747	0.035064
H509	H	0.795669	0.418080	0.368397
H510	H	1.129002	0.751414	0.701731
N511	N	0.670589	0.038126	0.368955
N512	N	1.003923	0.371459	0.702288
N513	N	1.337256	0.704792	1.035621
N514	N	0.655505	0.068046	0.339822
N515	N	0.988838	0.401379	0.673156
N516	N	1.322172	0.734712	1.006489
H517	H	0.679408	0.091933	0.321012
H518	H	1.012741	0.425267	0.654346
H519	H	1.346075	0.758600	0.987679
N520	N	0.705001	0.329916	0.000059
N521	N	1.038334	0.663250	0.333392
N522	N	1.371667	0.996583	0.666726
N523	N	0.705461	0.284904	0.000058
N524	N	1.038795	0.618238	0.333392
N525	N	1.372128	0.951571	0.666725
H526	H	0.737447	0.271110	0.000057
H527	H	1.070780	0.604443	0.333390
H528	H	1.404113	0.937776	0.666724
N529	N	0.437101	0.444386	0.000016
N530	N	0.770435	0.777719	0.333349
N531	N	1.103768	1.111053	0.666683
N532	N	0.427552	0.414893	-0.034950
N533	N	0.760885	0.748227	0.298383
N534	N	1.094218	1.081560	0.631716
H535	H	0.395936	0.392319	-0.034953
H536	H	0.729269	0.725652	0.298380
H537	H	1.062603	1.058985	0.631713
N538	N	0.470470	-0.161860	0.631167
N539	N	0.803803	0.171474	0.964501
N540	N	1.137137	0.504807	1.297834
N541	N	0.470468	-0.161853	0.677791
N542	N	0.803801	0.171480	1.011124
N543	N	1.137134	0.504813	1.344458
H544	H	0.446572	-0.185722	0.696632
H545	H	0.779905	0.147611	1.029965
H546	H	1.113238	0.480945	1.363298
N547	N	0.503566	-0.128815	0.128756
N548	N	0.836899	0.204518	0.462089
N549	N	1.170232	0.537852	0.795422
N550	N	0.503887	-0.173492	0.134585
N551	N	0.837221	0.159841	0.467918
N552	N	1.170554	0.493174	0.801252
H553	H	0.479995	-0.197371	0.115754
H554	H	0.813329	0.135962	0.449087
H555	H	1.146662	0.469295	0.782421
N556	N	0.670591	0.038130	0.525590
N557	N	1.003924	0.371463	0.858924
N558	N	1.337257	0.704796	1.192257
N559	N	0.700153	0.067676	0.548912
N560	N	1.033486	0.401009	0.882245
N561	N	1.366820	0.734342	1.215579
H562	H	0.724049	0.091557	0.530086
H563	H	1.057382	0.424890	0.863419
H564	H	1.390716	0.758224	1.196752
N565	N	0.663282	0.091938	0.000085
N566	N	0.996616	0.425272	0.333418
N567	N	1.329949	0.758605	0.666751
N568	N	0.702405	0.119886	0.000089
N569	N	1.035738	0.453219	0.333422
N570	N	1.369072	0.786552	0.666755
H571	H	0.734395	0.106100	0.000098
H572	H	1.067729	0.439433	0.333432
H573	H	1.401062	0.772767	0.666765
H574	H	0.630595	-0.001859	0.134142
H575	H	0.963929	0.331475	0.467476
H576	H	1.297262	0.664808	0.800809
N577	N	0.027470	-0.194834	0.000037
N578	N	0.360804	0.138500	0.333370
N579	N	0.694137	0.471833	0.666704
N580	N	-0.000481	-0.233954	0.000031
N581	N	0.332852	0.099380	0.333364
N582	N	0.666185	0.432713	0.666698
H583	H	0.013301	-0.265946	0.000022
H584	H	0.346634	0.067387	0.333356
H585	H	0.679967	0.400721	0.666689
N586	N	0.478807	0.682396	0.000018
N587	N	0.812141	1.015729	0.333351
N588	N	1.145474	1.349063	0.666685
N589	N	0.439229	0.699483	0.000015
N590	N	0.772563	1.032817	0.333348
N591	N	1.105896	1.366150	0.666682
H592	H	0.407607	0.676919	0.000011
H593	H	0.740940	1.010253	0.333344
H594	H	1.074273	1.343586	0.666678
H595	H	0.630630	-0.001820	0.865951
H596	H	0.963964	0.331513	1.199284
H597	H	1.297297	0.664847	1.532617
H598	H	0.630597	-0.001843	0.228868
H599	H	0.963930	0.331490	0.562202
H600	H	1.297264	0.664824	0.895535
H601	H	0.663722	0.031266	0.469068
H602	H	0.997056	0.364599	0.802402
H603	H	1.330389	0.697932	1.135735
H604	H	0.630630	-0.001822	0.771211
H605	H	0.963964	0.331511	1.104544
H606	H	1.297297	0.664844	1.437877
N607	N	0.702424	0.583074	0.000051
N608	N	1.035758	0.916408	0.333384
N609	N	1.369091	1.249741	0.666717
N610	N	0.701954	0.628085	0.000049
N611	N	1.035287	0.961418	0.333382
N612	N	1.368620	1.294752	0.666715
H613	H	0.733563	0.650670	0.000054
H614	H	1.066896	0.984003	0.333387
H615	H	1.400229	1.317337	0.666721
N616	N	0.670584	0.038129	0.631146
N617	N	1.003917	0.371462	0.964479
N618	N	1.337250	0.704796	1.297812
N619	N	0.670574	0.038124	0.677769
N620	N	1.003907	0.371457	1.011103
N621	N	1.337240	0.704791	1.344436
H622	H	0.694458	0.062000	0.696613
H623	H	1.027791	0.395333	1.029947
H624	H	1.361124	0.728666	1.363280
N625	N	0.436061	0.546292	0.000020
N626	N	0.769394	0.879625	0.333353
N627	N	1.102727	1.212958	0.666687
N628	N	0.406596	0.536588	0.034985
N629	N	0.739929	0.869921	0.368318
N630	N	1.073263	1.203254	0.701652
H631	H	0.374608	0.550378	0.034983
H632	H	0.707941	0.883711	0.368317
H633	H	1.041275	1.217045	0.701650
N634	N	0.470451	-0.161871	0.368943
N635	N	0.803784	0.171462	0.702276
N636	N	1.137118	0.504796	1.035609
N637	N	0.440562	-0.146742	0.339806
N638	N	0.773895	0.186592	0.673139
N639	N	1.107229	0.519925	1.006472
H640	H	0.416669	-0.170616	0.320970
H641	H	0.750002	0.162718	0.654303
H642	H	1.083336	0.496051	0.987637
N643	N	0.703974	0.431815	0.000056
N644	N	1.037307	0.765148	0.333389
N645	N	1.370640	1.098482	0.666722
N646	N	0.743551	0.414726	0.000062
N647	N	1.076884	0.748059	0.333395
N648	N	1.410217	1.081392	0.666729
H649	H	0.775174	0.437288	0.000066
H650	H	1.108508	0.770621	0.333399
H651	H	1.441841	1.103955	0.666732
N652	N	0.657036	0.706993	0.000052
N653	N	0.990369	1.040327	0.333385
N654	N	1.323703	1.373660	0.666719
N655	N	0.696157	0.734943	0.000060
N656	N	1.029491	1.068276	0.333393
N657	N	1.362824	1.401609	0.666727
H658	H	0.728149	0.721159	0.000068
H659	H	1.061482	1.054492	0.333402
H660	H	1.394816	1.387826	0.666735
N661	N	0.438626	0.293149	0.000007
N662	N	0.771960	0.626483	0.333340
N663	N	1.105293	0.959816	0.666673
N664	N	0.399046	0.310233	-0.000005
N665	N	0.732379	0.643566	0.333329
N666	N	1.065713	0.976899	0.666662
H667	H	0.367425	0.287666	-0.000016
H668	H	0.700759	0.620999	0.333318
H669	H	1.034092	0.954333	0.666651
H670	H	-0.293777	-0.138273	0.000051
H671	H	0.039557	0.195061	0.333385
H672	H	0.372890	0.528394	0.666718
N673	N	0.484023	0.169236	0.000060
N674	N	0.817356	0.502570	0.333394
N675	N	1.150690	0.835903	0.666727
N676	N	0.444900	0.141290	0.000064
N677	N	0.778233	0.474624	0.333397
N678	N	1.111566	0.807957	0.666731
H679	H	0.412910	0.155077	0.000067
H680	H	0.746243	0.488410	0.333400
H681	H	1.079577	0.821744	0.666733
H682	H	0.477317	-0.155019	0.469089
H683	H	0.810650	0.178315	0.802422
H684	H	1.143983	0.511648	1.135756
H685	H	-0.033688	0.063392	0.000085
H686	H	0.299645	0.396725	0.333418
H687	H	0.632979	0.730059	0.666751
H688	H	0.510433	-0.121951	0.228896
H689	H	0.843767	0.211383	0.562229
H690	H	1.177100	0.544716	0.895563
H691	H	0.174750	-0.187180	0.000029
H692	H	0.508083	0.146153	0.333362
H693	H	0.841417	0.479487	0.666696
N694	N	0.314805	-0.153609	0.000041
N695	N	0.648138	0.179724	0.333374
N696	N	0.981471	0.513057	0.666707
N697	N	0.316365	-0.183186	0.035005
N698	N	0.649698	0.150148	0.368338
N699	N	0.983032	0.483481	0.701672
H700	H	0.293796	-0.214805	0.035007
H701	H	0.627129	0.118528	0.368340
H702	H	0.960462	0.451862	0.701674
N703	N	0.076818	-0.195332	0.000045
N704	N	0.410152	0.138002	0.333378
N705	N	0.743485	0.471335	0.666712
N706	N	0.078379	-0.224907	0.035010
N707	N	0.411712	0.108426	0.368343
N708	N	0.745045	0.441759	0.701677
H709	H	0.055812	-0.256529	0.035011
H710	H	0.389146	0.076805	0.368344
H711	H	0.722479	0.410138	0.701677
N712	N	-0.275643	0.030865	0.000079
N713	N	0.057691	0.364198	0.333412
N714	N	0.391024	0.697532	0.666745
N715	N	-0.265934	0.060315	0.035054
N716	N	0.067399	0.393648	0.368387
N717	N	0.400733	0.726981	0.701720
H718	H	-0.279717	0.092307	0.035064
H719	H	0.053617	0.425640	0.368398
H720	H	0.386950	0.758973	0.701731
