data_functionalizedCrystal
_audit_creation_method	'MofGen! by Chris Wilmer'
_symmetry_space_group_name_H-M	'P1'
_symmetry_Int_Tables_number	1
_symmetry_cell_setting	triclinic
loop_
_symmetry_equiv_pos_as_xyz
  x,y,z
_cell_length_a	23.532407
_cell_length_b	23.532407
_cell_length_c	9.482900
_cell_angle_alpha	80.729167
_cell_angle_beta	99.224935
_cell_angle_gamma	82.848678
loop_
_atom_site_label
_atom_site_type_symbol
_atom_site_fract_x
_atom_site_fract_y
_atom_site_fract_z
O1	O	0.764174	0.060180	0.120724
O2	O	1.264174	0.560180	0.620724
O3	O	0.598314	0.070180	0.120769
O4	O	1.098314	0.570180	0.620769
O5	O	0.686243	-0.017750	0.120719
O6	O	1.186243	0.482250	0.620719
O7	O	0.676244	0.148110	0.120775
O8	O	1.176244	0.648110	0.620775
O9	O	0.668382	0.000182	-0.121064
O10	O	1.168382	0.500182	0.378936
O11	O	0.580453	0.088112	-0.121013
O12	O	1.080453	0.588112	0.378987
O13	O	0.746313	0.078112	-0.121058
O14	O	1.246313	0.578112	0.378942
Cu15	Cu	0.661752	0.084749	-0.143112
Cu16	Cu	1.161752	0.584749	0.356888
Cu17	Cu	0.682875	0.063543	0.142823
Cu18	Cu	1.182875	0.563543	0.642823
O19	O	0.658383	0.166041	-0.121008
O20	O	1.158383	0.666041	0.378992
C21	C	0.568168	0.078891	-0.000117
C22	C	1.068168	0.578891	0.499883
C23	C	0.504952	0.078124	-0.000101
C24	C	1.004952	0.578124	0.499899
C25	C	0.105845	0.125361	-0.000151
C26	C	0.605845	0.625361	0.499849
C27	C	0.046444	0.124650	-0.000160
C28	C	0.546444	0.624650	0.499840
O29	O	0.009697	0.168439	-0.000198
O30	O	0.509697	0.668439	0.499802
N31	N	0.023817	0.072375	-0.000175
N32	N	0.523817	0.572375	0.499825
C33	C	0.060593	0.020808	-0.000196
C34	C	0.560593	0.520808	0.499804
O35	O	0.035892	-0.023721	-0.000211
O36	O	0.535892	0.476279	0.499789
C37	C	0.119992	0.021520	-0.000197
C38	C	0.619992	0.521520	0.499803
C39	C	0.142617	0.073798	-0.000167
C40	C	0.642617	0.573798	0.499833
C41	C	0.128470	0.177634	-0.000122
C42	C	0.628470	0.677634	0.499878
C43	C	0.187867	0.178344	-0.000111
C44	C	0.687867	0.678344	0.499889
C45	C	0.224639	0.126781	-0.000127
C46	C	0.724639	0.626781	0.499873
C47	C	0.202014	0.074508	-0.000155
C48	C	0.702014	0.574508	0.499845
C49	C	0.156766	-0.030045	-0.000229
C50	C	0.656766	0.469955	0.499771
C51	C	0.216168	-0.029328	-0.000231
C52	C	0.716168	0.470672	0.499769
C53	C	0.238793	0.022949	-0.000201
C54	C	0.738793	0.522949	0.499799
C55	C	0.298183	0.023655	-0.000160
C56	C	0.798183	0.523655	0.499840
N57	N	0.320810	0.075931	-0.000145
N58	N	0.820810	0.575931	0.499855
C59	C	0.284038	0.127494	-0.000128
C60	C	0.784038	0.627494	0.499872
C61	C	-0.064150	0.019317	-0.000196
C62	C	0.435850	0.519317	0.499804
C63	C	-0.123547	0.018603	-0.000184
C64	C	0.376453	0.518603	0.499816
C65	C	-0.137692	0.122445	-0.000151
C66	C	0.362308	0.622445	0.499849
C67	C	-0.078293	0.123158	-0.000152
C68	C	0.421707	0.623158	0.499848
C69	C	-0.041522	0.071592	-0.000181
C70	C	0.458478	0.571592	0.499819
C71	C	0.408777	0.128981	-0.000102
C72	C	0.908777	0.628981	0.499898
C73	C	0.468180	0.129687	-0.000084
C74	C	0.968180	0.629687	0.499916
C75	C	0.482319	0.025845	-0.000125
C76	C	0.982319	0.525845	0.499875
C77	C	0.422922	0.025139	-0.000136
C78	C	0.922922	0.525139	0.499864
C79	C	0.386151	0.076712	-0.000129
C80	C	0.886151	0.576712	0.499871
O81	O	0.334964	-0.020110	-0.000128
O82	O	0.834964	0.479890	0.499872
O83	O	0.308746	0.172017	-0.000132
O84	O	0.808746	0.672017	0.499868
C85	C	0.677058	-0.030000	-0.000176
C86	C	1.177058	0.470000	0.499824
C87	C	0.676291	-0.093216	-0.000187
C88	C	1.176291	0.406784	0.499813
C89	C	0.723530	-0.492324	-0.000120
C90	C	1.223530	0.007676	0.499880
C91	C	0.722819	-0.551725	-0.000109
C92	C	1.222819	-0.051725	0.499891
O93	O	0.766608	-0.588473	-0.000067
O94	O	1.266608	-0.088473	0.499933
N95	N	0.670544	-0.574352	-0.000096
N96	N	1.170544	-0.074352	0.499904
C97	C	0.618977	-0.537576	-0.000079
C98	C	1.118977	-0.037576	0.499921
O99	O	0.574447	-0.562276	-0.000066
O100	O	1.074447	-0.062276	0.499934
C101	C	0.619689	-0.478177	-0.000080
C102	C	1.119689	0.021823	0.499920
C103	C	0.671966	-0.455552	-0.000108
C104	C	1.171966	0.044448	0.499892
C105	C	0.775803	-0.469699	-0.000146
C106	C	1.275803	0.030301	0.499854
C107	C	0.776513	-0.410301	-0.000160
C108	C	1.276513	0.089699	0.499840
C109	C	0.724950	-0.373529	-0.000148
C110	C	1.224950	0.126471	0.499852
C111	C	0.672676	-0.396155	-0.000122
C112	C	1.172676	0.103845	0.499878
C113	C	0.568123	-0.441402	-0.000053
C114	C	1.068123	0.058598	0.499947
C115	C	0.568840	-0.382000	-0.000053
C116	C	1.068840	0.118000	0.499947
C117	C	0.621117	-0.359375	-0.000081
C118	C	1.121117	0.140625	0.499919
C119	C	0.621823	-0.299985	-0.000124
C120	C	1.121823	0.200015	0.499876
N121	N	0.674099	-0.277358	-0.000137
N122	N	1.174099	0.222642	0.499863
C123	C	0.725662	-0.314130	-0.000149
C124	C	1.225662	0.185870	0.499851
C125	C	0.617486	-0.662319	-0.000075
C126	C	1.117486	-0.162319	0.499925
C127	C	0.616772	-0.721716	-0.000085
C128	C	1.116772	-0.221716	0.499915
C129	C	0.720615	-0.735861	-0.000112
C130	C	1.220615	-0.235861	0.499888
C131	C	0.721327	-0.676462	-0.000112
C132	C	1.221327	-0.176462	0.499888
C133	C	0.669761	-0.639691	-0.000088
C134	C	1.169761	-0.139691	0.499912
C135	C	0.727149	-0.189391	-0.000179
C136	C	1.227149	0.310609	0.499821
C137	C	0.727855	-0.129988	-0.000199
C138	C	1.227855	0.370012	0.499801
C139	C	0.624013	-0.115848	-0.000165
C140	C	1.124013	0.384152	0.499835
C141	C	0.623307	-0.175246	-0.000152
C142	C	1.123307	0.324754	0.499848
C143	C	0.674880	-0.212017	-0.000155
C144	C	1.174880	0.287983	0.499845
O145	O	0.578058	-0.263204	-0.000159
O146	O	1.078058	0.236796	0.499841
O147	O	0.770186	-0.289423	-0.000143
O148	O	1.270186	0.210577	0.499857
C149	C	0.776459	0.069401	-0.000169
C150	C	1.276459	0.569401	0.499831
C151	C	0.839676	0.070167	-0.000175
C152	C	1.339676	0.570167	0.499825
C153	C	0.667569	0.178291	-0.000110
C154	C	1.167569	0.678291	0.499890
C155	C	0.668336	0.241506	-0.000089
C156	C	1.168336	0.741506	0.499911
N157	N	0.646900	0.099664	-0.344224
N158	N	1.146900	0.599664	0.155776
C159	C	0.678490	0.067939	-0.416441
C160	C	1.178490	0.567939	0.083559
C161	C	0.666137	0.080353	-0.583852
C162	C	1.166137	0.580353	-0.083852
N163	N	0.697732	0.048623	0.343935
N164	N	1.197732	0.548623	0.843935
H165	H	-0.059877	0.165727	-0.000136
H166	H	0.440123	0.665727	0.499864
H167	H	0.817795	-0.499634	-0.000151
H168	H	1.317795	0.000366	0.499849
H169	H	0.819084	-0.391887	-0.000177
H170	H	1.319084	0.108113	0.499823
O171	O	0.622922	0.123657	-0.658091
O172	O	1.122922	0.623657	-0.158091
C173	C	0.581393	0.099937	-0.746122
C174	C	1.081393	0.599937	-0.246122
H175	H	0.602548	0.056878	-0.768780
H176	H	1.102548	0.556878	-0.268780
H177	H	0.564450	0.131670	-0.853211
H178	H	1.064450	0.631670	-0.353211
H179	H	0.543601	0.092081	-0.687563
H180	H	1.043601	0.592081	-0.187563
O181	O	0.721741	0.024608	-0.342549
O182	O	1.221741	0.524608	0.157451
C183	C	0.775377	0.036179	-0.379632
C184	C	1.275377	0.536179	0.120368
H185	H	0.767109	0.066290	-0.490163
H186	H	1.267109	0.566290	0.009837
H187	H	0.803189	-0.006456	-0.384734
H188	H	1.303189	0.493544	0.115266
H189	H	0.799204	0.058059	-0.293988
H190	H	1.299204	0.558059	0.206012
O191	O	0.572480	-0.197137	-0.000066
O192	O	1.072480	0.302863	0.499934
C193	C	0.527119	-0.151937	-0.000101
C194	C	1.027119	0.348063	0.499899
H195	H	0.546229	-0.115056	0.045642
H196	H	1.046229	0.384944	0.545642
H197	H	0.495789	-0.169348	0.070123
H198	H	0.995789	0.330652	0.570123
H199	H	0.502657	-0.134856	-0.116091
H200	H	1.002657	0.365144	0.383909
H201	H	0.526847	-0.352063	-0.000031
H202	H	1.026847	0.147937	0.499969
O203	O	0.490057	0.180527	-0.000124
O204	O	0.990057	0.680527	0.499876
C205	C	0.444861	0.225881	-0.000080
C206	C	0.944861	0.725881	0.499920
H207	H	0.401216	0.213545	-0.045868
H208	H	0.901216	0.713545	0.454132
H209	H	0.451893	0.267606	-0.070261
H210	H	0.951893	0.767606	0.429739
H211	H	0.444929	0.233167	0.115919
H212	H	0.944929	0.733167	0.615919
O213	O	0.373021	0.179026	0.000108
O214	O	0.873021	0.679026	0.500108
C215	C	0.347494	0.172441	0.125347
C216	C	0.847494	0.672441	0.625347
H217	H	0.347811	0.124160	0.167067
H218	H	0.847811	0.624160	0.667067
H219	H	0.300654	0.196012	0.097194
H220	H	0.800654	0.696012	0.597194
H221	H	0.373375	0.191826	0.213048
H222	H	0.873375	0.691826	0.713048
O223	O	0.573984	-0.080046	-0.000086
O224	O	1.073984	0.419954	0.499914
C225	C	0.585825	-0.022767	-0.000133
C226	C	1.085825	0.477233	0.499867
H227	H	0.633927	-0.024131	0.045616
H228	H	1.133927	0.475869	0.545616
H229	H	0.558129	-0.000873	0.070079
H230	H	1.058129	0.499127	0.570079
H231	H	0.574995	0.003021	-0.116128
H232	H	1.074995	0.503021	0.383872
H233	H	0.610707	0.136014	-0.406333
H234	H	1.110707	0.636014	0.093667
O235	O	-0.173504	0.172489	-0.000206
O236	O	0.326496	0.672489	0.499794
C237	C	-0.230778	0.160642	-0.000178
C238	C	0.269222	0.660642	0.499822
H239	H	-0.236184	0.119317	-0.045967
H240	H	0.263816	0.619317	0.454033
H241	H	-0.263057	0.198732	-0.070365
H242	H	0.236943	0.698732	0.429635
H243	H	-0.239407	0.154296	0.115817
H244	H	0.260593	0.654296	0.615817
O245	O	0.770759	-0.771545	0.000084
O246	O	1.270759	-0.271545	0.500084
C247	C	0.811762	-0.770625	0.125317
C248	C	1.311762	-0.270625	0.625317
H249	H	0.800602	-0.728577	0.167058
H250	H	1.300602	-0.228577	0.667058
H251	H	0.857205	-0.772984	0.097150
H252	H	1.357205	-0.272984	0.597150
H253	H	0.810635	-0.809570	0.213010
H254	H	1.310635	-0.309570	0.713010
O255	O	0.092713	0.227730	-0.000354
O256	O	0.592713	0.727730	0.499646
C257	C	0.048672	0.239718	-0.125547
C258	C	0.548672	0.739718	0.374453
H259	H	0.064114	0.216963	-0.213095
H260	H	0.564114	0.716963	0.286905
H261	H	0.038647	0.288749	-0.167545
H262	H	0.538647	0.788749	0.332455
H263	H	0.007643	0.223137	-0.097236
H264	H	0.507643	0.723137	0.402764
O265	O	-0.145429	-0.032226	-0.000260
O266	O	0.354571	0.467774	0.499740
C267	C	-0.100226	-0.077583	-0.000232
C268	C	0.399774	0.422417	0.499768
H269	H	-0.063339	-0.058455	-0.045994
H270	H	0.436661	0.441545	0.454006
H271	H	-0.117618	-0.108897	-0.070442
H272	H	0.382382	0.391103	0.429558
H273	H	-0.083171	-0.102073	0.115759
H274	H	0.416829	0.397927	0.615759
H275	H	-0.034213	-0.022678	-0.000206
H276	H	0.465787	0.477322	0.499794
O277	O	0.740781	0.005126	-0.581979
O278	O	1.240781	0.505126	-0.081979
C279	C	0.716723	-0.036233	-0.494199
C280	C	1.216723	0.463767	0.005801
H281	H	0.673805	-0.014795	-0.471404
H282	H	1.173805	0.485205	0.028596
H283	H	0.748382	-0.053490	-0.387162
H284	H	1.248382	0.446510	0.112838
H285	H	0.708530	-0.073857	-0.553046
H286	H	1.208530	0.426143	-0.053046
O287	O	0.565943	-0.743599	-0.000009
O288	O	1.065943	-0.243599	0.499991
C289	C	0.520586	-0.698395	-0.000041
C290	C	1.020586	-0.198395	0.499959
H291	H	0.539700	-0.661520	0.045719
H292	H	1.039700	-0.161520	0.545719
H293	H	0.489251	-0.715806	0.070169
H294	H	0.989251	-0.215806	0.570169
H295	H	0.496129	-0.681308	-0.116033
H296	H	0.996129	-0.181308	0.383967
O297	O	0.134887	-0.080873	-0.000336
O298	O	0.634887	0.419127	0.499664
C299	C	0.180092	-0.126224	-0.000327
C300	C	0.680092	0.373776	0.499673
H301	H	0.216979	-0.107090	-0.046078
H302	H	0.716979	0.392910	0.453922
H303	H	0.162703	-0.157534	-0.070557
H304	H	0.662703	0.342466	0.429443
H305	H	0.197148	-0.150722	0.115657
H306	H	0.697148	0.349278	0.615657
O307	O	0.772088	-0.654434	0.000067
O308	O	1.272088	-0.154434	0.500067
C309	C	0.784868	-0.629796	0.125310
C310	C	1.284868	-0.129796	0.625310
H311	H	0.742981	-0.617845	0.167071
H312	H	1.242981	-0.117845	0.667071
H313	H	0.805268	-0.588936	0.097146
H314	H	1.305268	-0.088936	0.597146
H315	H	0.816690	-0.662681	0.212985
H316	H	1.316690	-0.162681	0.712985
H317	H	0.525554	-0.459813	-0.000022
H318	H	1.025554	0.040187	0.499978
O319	O	0.209781	0.229152	0.000103
O320	O	0.709781	0.729152	0.500103
C321	C	0.200210	0.251266	0.125350
C322	C	0.700210	0.751266	0.625350
H323	H	0.162183	0.232875	0.167092
H324	H	0.662183	0.732875	0.667092
H325	H	0.189611	0.300827	0.097201
H326	H	0.689611	0.800827	0.597201
H327	H	0.241096	0.237978	0.213034
H328	H	0.741096	0.737978	0.713034
O329	O	0.251959	-0.079398	-0.000059
O330	O	0.751959	0.420602	0.499941
C331	C	0.295976	-0.091393	0.125186
C332	C	0.795976	0.408607	0.625186
H333	H	0.301817	-0.049306	0.166955
H334	H	0.801817	0.450694	0.666955
H335	H	0.338660	-0.110781	0.097021
H336	H	0.838660	0.389219	0.597021
H337	H	0.283044	-0.123792	0.212855
H338	H	0.783044	0.376208	0.712855
H339	H	0.404501	-0.017431	-0.000139
H340	H	0.904501	0.482569	0.499861
O341	O	0.518042	-0.024274	0.000116
O342	O	1.018042	0.475726	0.500116
C343	C	0.517069	-0.065332	0.125300
C344	C	1.017069	0.434668	0.625300
H345	H	0.503059	-0.041646	0.212839
H346	H	1.003059	0.458354	0.712839
H347	H	0.562448	-0.091527	0.167321
H348	H	1.062448	0.408473	0.667321
H349	H	0.484917	-0.096024	0.096968
H350	H	0.984917	0.403976	0.596968
H351	H	0.770427	-0.111570	-0.000226
H352	H	1.270427	0.388430	0.499774
O353	O	0.777294	-0.225019	-0.000252
O354	O	1.277294	0.274981	0.499748
C355	C	0.823581	-0.192304	-0.000242
C356	C	1.323581	0.307696	0.499758
H357	H	0.805477	-0.144498	-0.046016
H358	H	1.305477	0.355502	0.453984
H359	H	0.854504	-0.209206	-0.070452
H360	H	1.354504	0.290794	0.429548
H361	H	0.848191	-0.196753	0.115745
H362	H	1.348191	0.303247	0.615745
H363	H	0.575491	-0.632381	-0.000068
H364	H	1.075491	-0.132381	0.499932
