data_functionalizedCrystal
_audit_creation_method	'MofGen! by Chris Wilmer'
_symmetry_space_group_name_H-M	'P1'
_symmetry_Int_Tables_number	1
_symmetry_cell_setting	triclinic
loop_
_symmetry_equiv_pos_as_xyz
  x,y,z
_cell_length_a	15.944493
_cell_length_b	15.944551
_cell_length_c	15.021413
_cell_angle_alpha	89.998676
_cell_angle_beta	90.006611
_cell_angle_gamma	83.486891
loop_
_atom_site_label
_atom_site_type_symbol
_atom_site_fract_x
_atom_site_fract_y
_atom_site_fract_z
O1	O	1.114559	0.108091	0.074022
O2	O	0.870002	0.121498	0.074027
O3	O	0.998959	-0.007482	0.074016
O4	O	0.985602	0.237071	0.074033
O5	O	0.998939	-0.007467	-0.074048
O6	O	0.869983	0.121512	-0.074037
O7	O	1.114539	0.108105	-0.074042
Zn8	Zn	0.992258	0.114811	-0.097548
Zn9	Zn	0.992284	0.114792	0.097533
O10	O	0.985583	0.237085	-0.074032
C11	C	0.838698	0.120957	-0.000005
C12	C	0.745449	0.119314	-0.000003
C13	C	0.509689	0.195235	0.000002
C14	C	0.459121	0.154301	-0.073008
C15	C	0.574728	0.116270	-0.000005
C16	C	0.459145	0.154268	0.072972
C17	C	0.409819	0.113336	-0.000003
C18	C	0.525388	0.075358	-0.073075
C19	C	0.525416	0.075337	0.072970
C20	C	0.474880	0.034345	-0.000058
C21	C	0.669728	0.117963	-0.000007
C22	C	0.314821	0.111637	-0.000008
C23	C	0.998395	-0.038768	-0.000016
C24	C	0.996732	-0.132014	-0.000016
C25	C	0.912826	-0.346853	-0.000003
C26	C	0.951779	-0.407872	-0.073008
C27	C	0.993725	-0.302739	-0.000010
C28	C	0.951818	-0.407869	0.072972
C29	C	0.990814	-0.467651	0.000001
C30	C	1.032701	-0.362530	-0.073075
C31	C	1.032728	-0.362521	0.072970
C32	C	1.071741	-0.423521	-0.000053
C33	C	0.995399	-0.207737	-0.000016
C34	C	0.989146	-0.562652	0.000001
C35	C	1.145844	0.108646	-0.000009
C36	C	1.239092	0.110289	-0.000004
C37	C	0.986147	0.268372	0.000003
C38	C	0.987809	0.361617	0.000009
N39	N	0.992246	0.114823	-0.230686
C40	C	0.933111	0.174929	-0.529696
C41	C	0.916114	0.099264	-0.470341
C42	C	0.992283	0.114788	-0.587723
C43	C	1.009222	0.190469	-0.470335
C44	C	0.992263	0.114810	-0.412299
C45	C	0.975248	0.039085	-0.529675
C46	C	1.068390	0.130340	-0.529674
C47	C	1.051425	0.054619	-0.470346
C48	C	0.992292	0.114777	-0.688780
C49	C	0.992254	0.114812	-0.311243
N50	N	0.992302	0.114774	0.230670
H51	H	0.554208	0.042036	-0.134861
O52	O	0.873438	0.235627	-0.560685
C53	C	0.823009	0.383885	-0.564430
C54	C	0.890630	0.315233	-0.529256
H55	H	0.836895	0.448265	-0.539050
H56	H	0.758131	0.370547	-0.540028
H57	H	0.823973	0.383668	-0.640317
H58	H	0.889744	0.315412	-0.453372
H59	H	0.955478	0.328597	-0.553727
H60	H	0.459415	-0.033726	-0.000105
H61	H	0.525313	0.263254	-0.000061
O62	O	0.424551	0.193952	-0.146696
C63	C	0.344212	0.181663	-0.281014
C64	C	0.383340	0.136642	-0.197620
H65	H	0.310868	0.135352	-0.322199
H66	H	0.396086	0.206089	-0.322626
H67	H	0.296661	0.236904	-0.259916
H68	H	0.430882	0.081368	-0.218638
H69	H	0.331420	0.112277	-0.156028
O70	O	1.073612	-0.338749	-0.146726
C71	C	1.203335	-0.351843	-0.230463
C72	C	1.157114	-0.378832	-0.147009
H73	H	1.270848	-0.384252	-0.230729
H74	H	1.204311	-0.280462	-0.229896
H75	H	1.169033	-0.370880	-0.292587
H76	H	1.191379	-0.359852	-0.084841
H77	H	1.156130	-0.450210	-0.147655
O78	O	1.151965	-0.462984	0.000018
C79	C	1.285671	-0.483654	0.076300
C80	C	1.194843	-0.438906	0.076325
H81	H	1.320358	-0.464218	0.137997
H82	H	1.320036	-0.465008	0.014063
H83	H	1.283838	-0.554920	0.076846
H84	H	1.196598	-0.367632	0.075811
H85	H	1.160514	-0.457621	0.138557
H86	H	1.101459	0.003715	-0.444452
H87	H	0.554370	0.042008	0.134692
H88	H	1.023569	0.254464	-0.444287
O89	O	1.145191	0.145903	-0.560838
C90	C	1.267362	0.094657	-0.647759
C91	C	1.180407	0.076904	-0.612508
H92	H	1.295852	0.038891	-0.689558
H93	H	1.310892	0.104187	-0.589303
H94	H	1.259685	0.154074	-0.690568
H95	H	1.188003	0.017481	-0.569713
H96	H	1.136908	0.067426	-0.671005
H97	H	0.917554	-0.427967	-0.134727
O98	O	0.958026	-0.037214	-0.560782
C99	C	0.938769	-0.122841	-0.689752
C100	C	0.958265	-0.036392	-0.654642
H101	H	0.938973	-0.122210	-0.765641
H102	H	0.874071	-0.136230	-0.664849
H103	H	0.988891	-0.174106	-0.664748
H104	H	0.908197	0.014929	-0.679632
H105	H	1.022987	-0.023075	-0.679538
H106	H	0.845675	-0.313532	-0.000074
O107	O	0.424731	0.194171	0.146584
C108	C	0.402985	0.324055	0.229736
C109	C	0.442008	0.278959	0.146346
H110	H	0.416923	0.392619	0.229562
H111	H	0.431306	0.291125	0.291972
H112	H	0.331775	0.321817	0.229377
H113	H	0.513217	0.281185	0.146619
H114	H	0.413620	0.311903	0.084148
H115	H	1.066924	-0.342403	0.134692
O116	O	0.910883	-0.431717	0.146578
C117	C	0.780825	-0.419466	0.229711
C118	C	0.827096	-0.392380	0.146332
H119	H	0.713070	-0.387689	0.229530
H120	H	0.814601	-0.399889	0.291955
H121	H	0.780540	-0.490931	0.229343
H122	H	0.827395	-0.320919	0.146613
H123	H	0.793305	-0.412020	0.084126
H124	H	0.851744	0.086117	-0.444273
