data_functionalizedCrystal
_audit_creation_method	'MofGen! by Chris Wilmer'
_symmetry_space_group_name_H-M	'P1'
_symmetry_Int_Tables_number	1
_symmetry_cell_setting	triclinic
loop_
_symmetry_equiv_pos_as_xyz
  x,y,z
_cell_length_a	13.339070
_cell_length_b	15.995350
_cell_length_c	12.376457
_cell_angle_alpha	101.278656
_cell_angle_beta	75.589755
_cell_angle_gamma	99.560835
loop_
_atom_site_label
_atom_site_type_symbol
_atom_site_fract_x
_atom_site_fract_y
_atom_site_fract_z
O1	O	1.361687	0.408219	-0.094025
O2	O	1.067160	0.353123	-0.094021
O3	O	1.222474	0.260654	-0.094022
O4	O	1.206373	0.500688	-0.094024
O5	O	1.183660	0.283730	0.093990
O6	O	1.028345	0.376200	0.093991
O7	O	1.322873	0.431295	0.093987
Zn8	Zn	1.169446	0.407411	0.123840
Zn9	Zn	1.220586	0.377007	-0.123874
O10	O	1.167558	0.523765	0.093988
C11	C	1.010063	0.355354	-0.000015
C12	C	0.897761	0.327613	-0.000013
C13	C	0.532972	0.543314	-0.000033
C14	C	0.638486	0.569381	-0.000038
C15	C	0.703309	0.508941	-0.000031
C16	C	0.662609	0.422430	-0.000021
C17	C	0.557087	0.396360	-0.000025
C18	C	0.727425	0.361987	-0.000023
C19	C	0.686725	0.275476	-0.000013
C20	C	0.581212	0.249410	-0.000016
C21	C	0.516389	0.309850	-0.000023
C22	C	0.832947	0.388057	-0.000019
C23	C	0.857062	0.241103	-0.000011
C24	C	0.751549	0.215036	-0.000006
C25	C	1.202402	0.240842	-0.000018
C26	C	1.200407	0.147428	-0.000025
C27	C	1.193239	-0.191985	-0.000021
C28	C	1.082714	-0.170299	-0.000441
C29	C	1.084622	-0.073093	-0.000017
C30	C	1.196795	-0.023598	-0.000023
C31	C	1.229188	-0.038823	0.107338
C32	C	1.226391	-0.136094	0.107428
C33	C	1.272816	-0.162164	-0.106377
C34	C	1.273082	-0.065398	-0.107796
C35	C	1.198810	0.071568	-0.000021
C36	C	1.191226	-0.287149	-0.000015
C37	C	1.379970	0.429064	-0.000022
C38	C	1.492273	0.456804	-0.000031
C39	C	1.187631	0.543576	-0.000018
C40	C	1.189627	0.636990	-0.000019
N41	N	1.134551	0.428163	0.292899
N42	N	1.255489	0.356251	-0.292933
C43	C	1.336490	0.308063	0.647882
C44	C	1.360907	0.293538	0.529542
C45	C	1.304320	0.327193	0.470376
C46	C	1.223312	0.375376	0.529561
C47	C	1.198898	0.389908	0.647912
C48	C	1.166728	0.409038	0.470405
C49	C	1.085720	0.457221	0.529590
C50	C	1.061310	0.471751	0.647930
C51	C	1.117897	0.438096	0.707097
C52	C	1.191142	0.394505	0.352054
C53	C	1.053550	0.476350	0.352084
C54	C	1.029133	0.490876	0.470424
H55	H	0.671618	0.639816	-0.000055
C56	C	1.004797	-0.036212	0.104136
N57	N	0.944670	-0.008433	0.182590
H58	H	1.382561	0.280671	0.696064
C59	C	1.339397	0.006802	0.112745
N60	N	1.422403	0.041175	0.116820
C61	C	0.877702	0.483218	-0.000020
N62	N	0.911409	0.554899	-0.000016
H63	H	0.548081	0.178966	-0.000020
H64	H	1.174800	-0.009438	0.187237
C65	C	0.461661	0.609787	-0.000042
N66	N	0.407947	0.659859	-0.000048
H67	H	0.430470	0.288631	-0.000018
H68	H	1.253451	-0.201093	-0.187751
H69	H	0.718397	0.144597	-0.000007
H70	H	1.354519	-0.175067	-0.107103
C71	C	0.991298	0.513372	0.287005
N72	N	0.944414	0.541254	0.237981
H73	H	0.909843	0.191887	-0.000011
C74	C	1.048140	-0.060916	-0.103983
N75	N	1.020655	-0.051749	-0.182290
C76	C	0.972203	0.524758	0.713030
N77	N	0.905086	0.564682	0.762062
H78	H	1.098014	0.449919	0.803459
H79	H	1.054398	-0.208552	-0.077432
C80	C	1.241397	-0.054216	-0.215098
N81	N	1.217522	-0.045799	-0.295916
H82	H	1.426864	0.254309	0.481358
C83	C	1.385404	-0.020053	-0.116556
N84	N	1.470008	0.014100	-0.123144
C85	C	1.280243	0.341499	0.286964
N86	N	1.347356	0.301569	0.237940
H87	H	1.324204	0.315364	0.374018
H88	H	0.789223	0.530169	-0.000038
C89	C	0.940024	0.543875	0.535542
N90	N	0.872906	0.583792	0.584591
H91	H	1.170038	-0.153787	0.187687
C92	C	1.334738	-0.153365	0.114021
N93	N	1.416342	-0.166370	0.118994
C94	C	1.001904	-0.197856	0.103016
N95	N	0.941043	-0.218603	0.180950
