data_functionalizedCrystal
_audit_creation_method	'MofGen! by Chris Wilmer'
_symmetry_space_group_name_H-M	'P1'
_symmetry_Int_Tables_number	1
_symmetry_cell_setting	triclinic
loop_
_symmetry_equiv_pos_as_xyz
  x,y,z
_cell_length_a	16.120490
_cell_length_b	16.120297
_cell_length_c	16.120531
_cell_angle_alpha	84.389419
_cell_angle_beta	89.829344
_cell_angle_gamma	90.129683
loop_
_atom_site_label
_atom_site_type_symbol
_atom_site_fract_x
_atom_site_fract_y
_atom_site_fract_z
Zn1	Zn	1.224942	-0.554758	0.422327
Zn2	Zn	1.474942	-0.304758	0.672327
Zn3	Zn	1.724942	-0.054758	0.922327
Zn4	Zn	1.974942	0.195242	1.172327
Zn5	Zn	1.224822	-0.422054	0.555010
Zn6	Zn	1.474822	-0.172054	0.805010
Zn7	Zn	1.724822	0.077946	1.055010
Zn8	Zn	1.974822	0.327946	1.305010
Zn9	Zn	1.093682	-0.408005	0.408236
Zn10	Zn	1.343682	-0.158005	0.658236
Zn11	Zn	1.593682	0.091995	0.908236
Zn12	Zn	1.843682	0.341995	1.158236
Zn13	Zn	1.078819	-0.553990	0.554234
Zn14	Zn	1.328819	-0.303990	0.804234
Zn15	Zn	1.578819	-0.053990	1.054234
Zn16	Zn	1.828819	0.196010	1.304234
O17	O	1.155566	-0.484702	0.484952
O18	O	1.405566	-0.234702	0.734952
O19	O	1.655566	0.015298	0.984952
O20	O	1.905566	0.265298	1.234952
O21	O	1.340961	-0.543356	0.446149
O22	O	1.590961	-0.293356	0.696149
O23	O	1.840961	-0.043356	0.946149
O24	O	2.090961	0.206644	1.196149
O25	O	1.213596	-0.303558	0.529967
O26	O	1.463596	-0.053558	0.779967
O27	O	1.713596	0.196442	1.029967
O28	O	1.963596	0.446442	1.279967
O29	O	1.117365	-0.421914	0.293476
O30	O	1.367365	-0.171914	0.543476
O31	O	1.617365	0.078086	0.793476
O32	O	1.867365	0.328086	1.043476
O33	O	1.340873	-0.445859	0.543631
O34	O	1.590873	-0.195859	0.793631
O35	O	1.840873	0.054141	1.043631
O36	O	2.090873	0.304141	1.293631
O37	O	1.213800	-0.529733	0.303828
O38	O	1.463800	-0.279733	0.553828
O39	O	1.713800	-0.029733	0.803828
O40	O	1.963800	0.220267	1.053828
O41	O	1.117249	-0.293236	0.422133
O42	O	1.367249	-0.043236	0.672133
O43	O	1.617249	0.206764	0.922133
O44	O	1.867249	0.456764	1.172133
O45	O	0.975675	-0.421169	0.421381
O46	O	1.225675	-0.171169	0.671381
O47	O	1.475675	0.078831	0.921381
O48	O	1.725675	0.328831	1.171381
O49	O	1.092032	-0.670724	0.542309
O50	O	1.342032	-0.420724	0.792309
O51	O	1.592032	-0.170724	1.042309
O52	O	1.842032	0.079276	1.292309
O53	O	0.964755	-0.528424	0.528645
O54	O	1.214755	-0.278424	0.778645
O55	O	1.464755	-0.028424	1.028645
O56	O	1.714755	0.221576	1.278645
O57	O	1.199388	-0.671289	0.445397
O58	O	1.449388	-0.421289	0.695397
O59	O	1.699388	-0.171289	0.945397
O60	O	1.949388	0.078711	1.195397
O61	O	1.199184	-0.445114	0.671536
O62	O	1.449184	-0.195114	0.921536
O63	O	1.699184	0.054886	1.171536
O64	O	1.949184	0.304886	1.421536
O65	O	1.091916	-0.542047	0.670966
O66	O	1.341916	-0.292047	0.920966
O67	O	1.591916	-0.042047	1.170966
O68	O	1.841916	0.207953	1.420966
C69	C	0.940129	-0.473189	0.473401
C70	C	1.190129	-0.223189	0.723401
C71	C	1.440129	0.026811	0.973401
C72	C	1.690129	0.276811	1.223401
C73	C	0.847961	-0.468284	0.468480
C74	C	1.097961	-0.218284	0.718480
C75	C	1.347961	0.031716	0.968480
C76	C	1.597961	0.281716	1.218480
C77	C	0.632762	-0.510144	0.510469
C78	C	0.882762	-0.260144	0.760469
C79	C	1.132762	-0.010144	1.010469
C80	C	1.382762	0.239856	1.260469
C81	C	0.679215	-0.459329	0.459504
C82	C	0.929215	-0.209329	0.709504
C83	C	1.179215	0.040671	0.959504
C84	C	1.429215	0.290671	1.209504
C85	C	0.773114	-0.464313	0.464500
C86	C	1.023114	-0.214313	0.714500
C87	C	1.273114	0.035687	0.964500
C88	C	1.523114	0.285687	1.214500
C89	C	0.538854	-0.505161	0.505474
C90	C	0.788854	-0.255161	0.755474
C91	C	1.038854	-0.005161	1.005474
C92	C	1.288854	0.244839	1.255474
C93	C	1.144066	-0.702094	0.495339
C94	C	1.394066	-0.452094	0.745339
C95	C	1.644066	-0.202094	0.995339
C96	C	1.894066	0.047906	1.245339
C97	C	1.139165	-0.794733	0.499765
C98	C	1.389165	-0.544733	0.749765
C99	C	1.639165	-0.294733	0.999765
C100	C	1.889165	-0.044733	1.249765
C101	C	1.130187	-0.964344	0.507826
C102	C	1.380187	-0.714344	0.757826
C103	C	1.630187	-0.464344	1.007826
C104	C	1.880187	-0.214344	1.257826
C105	C	1.181122	-1.005908	0.461836
C106	C	1.431122	-0.755908	0.711836
C107	C	1.681122	-0.505908	0.961836
C108	C	1.931122	-0.255908	1.211836
C109	C	1.176127	-1.100286	0.466321
C110	C	1.426127	-0.850286	0.716321
C111	C	1.676127	-0.600286	0.966321
C112	C	1.926127	-0.350286	1.216321
C113	C	1.135181	-0.869958	0.503342
C114	C	1.385181	-0.619958	0.753342
C115	C	1.635181	-0.369958	1.003342
C116	C	1.885181	-0.119958	1.253342
C117	C	1.371845	-0.496261	0.496548
C118	C	1.621845	-0.246261	0.746548
C119	C	1.871845	0.003739	0.996548
C120	C	2.121845	0.253739	1.246548
C121	C	1.464010	-0.501186	0.501490
C122	C	1.714010	-0.251186	0.751490
C123	C	1.964010	-0.001186	1.001490
C124	C	2.214010	0.248814	1.251490
C125	C	1.143946	-0.495041	0.701494
C126	C	1.393946	-0.245041	0.951494
C127	C	1.643946	0.004959	1.201494
C128	C	1.893946	0.254959	1.451494
C129	C	1.139049	-0.499496	0.794137
C130	C	1.389049	-0.249496	1.044137
C131	C	1.639049	0.000504	1.294137
C132	C	1.889049	0.250504	1.544137
C133	C	1.167073	-0.268156	0.474547
C134	C	1.417073	-0.018156	0.724547
C135	C	1.667073	0.231844	0.974547
C136	C	1.917073	0.481844	1.224547
C137	C	1.172147	-0.175514	0.469895
C138	C	1.422147	0.074486	0.719895
C139	C	1.672147	0.324486	0.969895
C140	C	1.922147	0.574486	1.219895
C141	C	1.130113	-0.507647	0.963758
C142	C	1.380113	-0.257647	1.213758
C143	C	1.630113	-0.007647	1.463758
C144	C	1.880113	0.242353	1.713758
C145	C	1.181054	-0.461711	1.005304
C146	C	1.431054	-0.211711	1.255304
C147	C	1.681054	0.038289	1.505304
C148	C	1.931054	0.288289	1.755304
C149	C	1.176082	-0.466246	1.099687
C150	C	1.426082	-0.216246	1.349687
C151	C	1.676082	0.033754	1.599687
C152	C	1.926082	0.283754	1.849687
C153	C	1.135084	-0.503113	0.869367
C154	C	1.385084	-0.253113	1.119367
C155	C	1.635084	-0.003113	1.369367
C156	C	1.885084	0.246887	1.619367
C157	C	1.167225	-0.474325	1.267564
C158	C	1.417225	-0.224325	1.517564
C159	C	1.667225	0.025675	1.767564
C160	C	1.917225	0.275675	2.017564
C161	C	1.172120	-0.469860	1.174920
C162	C	1.422120	-0.219860	1.424920
C163	C	1.672120	0.030140	1.674920
C164	C	1.922120	0.280140	1.924920
H165	H	0.663511	-0.557388	0.557851
H166	H	0.913511	-0.307388	0.807851
H167	H	1.163511	-0.057388	1.057851
H168	H	1.413511	0.192612	1.307851
H169	H	0.648464	-0.412080	0.412119
H170	H	0.898464	-0.162080	0.662119
H171	H	1.148464	0.087920	0.912119
H172	H	1.398464	0.337920	1.162119
H173	H	1.228479	-0.970613	0.419093
H174	H	1.478479	-0.720613	0.669093
H175	H	1.728479	-0.470613	0.919093
H176	H	1.978479	-0.220613	1.169093
H177	H	1.082834	-0.999637	0.550565
H178	H	1.332834	-0.749637	0.800565
H179	H	1.582834	-0.499637	1.050565
H180	H	1.832834	-0.249637	1.300565
H181	H	1.082769	-0.550376	0.999071
H182	H	1.332769	-0.300376	1.249071
H183	H	1.582769	-0.050376	1.499071
H184	H	1.832769	0.199624	1.749071
F185	F	1.242938	-0.405853	0.959147
F186	F	1.492938	-0.155853	1.209147
F187	F	1.742938	0.094147	1.459147
F188	F	1.992938	0.344147	1.709147
