data_functionalizedCrystal
_audit_creation_method	'MofGen! by Chris Wilmer'
_symmetry_space_group_name_H-M	'P1'
_symmetry_Int_Tables_number	1
_symmetry_cell_setting	triclinic
loop_
_symmetry_equiv_pos_as_xyz
  x,y,z
_cell_length_a	15.944551
_cell_length_b	17.019294
_cell_length_c	15.021413
_cell_angle_alpha	86.125043
_cell_angle_beta	89.997174
_cell_angle_gamma	83.446674
loop_
_atom_site_label
_atom_site_type_symbol
_atom_site_fract_x
_atom_site_fract_y
_atom_site_fract_z
O1	O	1.114401	0.101727	-0.081736
O2	O	0.869836	0.114270	-0.082720
O3	O	0.998941	-0.006833	-0.073420
O4	O	0.985297	0.222829	-0.091036
O5	O	0.998920	-0.006816	0.074643
O6	O	0.869816	0.114287	0.065343
O7	O	1.114381	0.101744	0.066327
Zn8	Zn	0.992095	0.108018	0.089343
Zn9	Zn	0.992122	0.107996	-0.105736
O10	O	0.985276	0.222847	0.057027
C11	C	0.838533	0.113758	-0.008651
C12	C	0.745288	0.112197	-0.008540
C13	C	0.998413	-0.036213	0.002863
C14	C	0.996860	-0.123783	0.009574
C15	C	0.530530	0.033400	-0.002479
C16	C	0.469475	0.069982	-0.078288
C17	C	0.574566	0.109372	-0.008313
C18	C	0.469477	0.070017	0.067689
C19	C	0.409657	0.106639	-0.008089
C20	C	0.514738	0.145975	-0.084184
C21	C	0.514747	0.146000	0.061859
C22	C	0.453709	0.182637	-0.013972
C23	C	0.669566	0.110945	-0.008442
C24	C	0.314658	0.105072	-0.007966
C25	C	0.996144	-0.164928	-0.067982
C26	C	0.994680	-0.247208	-0.061674
C27	C	0.993938	-0.288343	0.022191
C28	C	0.994652	-0.247191	0.099753
C29	C	0.996110	-0.164912	0.093444
C30	C	0.989529	-0.536773	0.045278
C31	C	0.988073	-0.619058	0.051581
C32	C	0.988100	-0.619069	-0.109846
C33	C	0.989563	-0.536789	-0.116148
C34	C	0.990272	-0.495644	-0.038586
C35	C	0.992444	-0.372446	0.028641
C36	C	0.991760	-0.411541	-0.045037
C37	C	1.145684	0.102256	-0.007744
C38	C	1.238929	0.103817	-0.007861
C39	C	0.985804	0.252227	-0.019259
C40	C	0.987357	0.339797	-0.025975
N41	N	0.992083	0.108033	0.222480
N42	N	0.992141	0.107974	-0.238872
C43	C	0.932376	0.164005	0.457865
C44	C	1.008257	0.179319	0.516031
C45	C	0.992104	0.108014	0.404088
C46	C	0.916243	0.092717	0.522662
C47	C	0.992118	0.107996	0.579513
C48	C	1.068024	0.123363	0.460945
C49	C	0.975960	0.036730	0.467573
C50	C	1.051897	0.052014	0.525715
C51	C	0.992095	0.108026	0.303030
C52	C	0.992136	0.107984	0.680569
H53	H	0.563942	-0.029651	0.002267
H54	H	1.021924	0.239595	0.537497
Cl55	Cl	0.545544	0.195538	-0.183380
Cl56	Cl	0.987146	-0.670769	0.157019
Cl57	Cl	0.990407	-0.485057	0.142785
H58	H	1.102468	0.004654	0.555204
H59	H	0.420471	0.245753	-0.018854
H60	H	0.534829	0.178114	0.121118
Cl61	Cl	0.997009	-0.113186	0.190947
H62	H	0.449413	0.037842	-0.137542
H63	H	0.992359	-0.378045	-0.113319
H64	H	0.449422	0.037877	0.131871
Cl65	Cl	0.997082	-0.113225	-0.173417
H66	H	0.962270	-0.023526	0.446085
Cl67	Cl	0.817187	0.072751	0.564456
H68	H	1.132197	0.136366	0.433981
Cl69	Cl	0.993781	-0.298931	-0.159178
Cl70	Cl	0.991507	-0.424164	0.134068
Cl71	Cl	0.990498	-0.485084	-0.221582
Cl72	Cl	0.993709	-0.298902	0.205183
Cl73	Cl	0.987206	-0.670799	-0.207346
Cl74	Cl	0.854471	0.237165	0.412073
