data_functionalizedCrystal
_audit_creation_method	'MofGen! by Chris Wilmer'
_symmetry_space_group_name_H-M	'P1'
_symmetry_Int_Tables_number	1
_symmetry_cell_setting	triclinic
loop_
_symmetry_equiv_pos_as_xyz
  x,y,z
_cell_length_a	18.050582
_cell_length_b	19.077105
_cell_length_c	19.077068
_cell_angle_alpha	90.115316
_cell_angle_beta	87.726635
_cell_angle_gamma	92.311810
loop_
_atom_site_label
_atom_site_type_symbol
_atom_site_fract_x
_atom_site_fract_y
_atom_site_fract_z
Zn1	Zn	-0.478591	-1.062953	0.323025
Zn2	Zn	-0.359171	-1.058149	0.440523
Zn3	Zn	-0.349241	-0.945455	0.318308
Zn4	Zn	-0.478145	-0.940688	0.435767
O5	O	-0.416287	-1.001812	0.379406
O6	O	-0.467092	-1.160647	0.342576
O7	O	-0.253929	-1.043185	0.424327
O8	O	-0.362430	-0.965047	0.220603
O9	O	-0.379355	-1.157118	0.428901
O10	O	-0.457463	-1.051372	0.224069
O11	O	-0.246633	-0.960389	0.334536
O12	O	-0.361997	-0.846492	0.329924
O13	O	-0.582129	-0.956922	0.420795
O14	O	-0.456703	-0.842990	0.416221
O15	O	-0.582457	-1.046750	0.337965
O16	O	-0.378922	-1.038562	0.538222
O17	O	-0.466332	-0.952264	0.534728
C18	C	-0.408225	-0.819245	0.372045
C19	C	-0.404794	-0.741141	0.368913
C20	C	-0.423673	-0.994394	0.561972
C21	C	-0.426861	-0.991285	0.640077
C22	C	-0.609993	-1.001840	0.379376
C23	C	-0.692538	-1.001853	0.379363
C24	C	-0.891810	-0.953043	0.424343
C25	C	-0.944723	-1.016462	0.444100
C26	C	-0.843668	-1.001889	0.379311
C27	C	-0.937838	-0.938507	0.359536
C28	C	-0.989653	-1.001919	0.379261
C29	C	-0.895497	-1.065340	0.399102
C30	C	-0.888604	-0.987343	0.314506
C31	C	-0.941496	-1.050807	0.334240
C32	C	-0.759570	-1.001871	0.379341
C33	C	-1.073749	-1.001945	0.379231
C34	C	-0.223335	-1.001825	0.379387
C35	C	-0.140787	-1.001957	0.379207
C36	C	-0.424381	-1.185091	0.386796
C37	C	-0.427831	-1.263194	0.389945
C38	C	-0.452418	-0.702640	0.412439
C39	C	-0.449198	-0.629254	0.409487
C40	C	-0.398349	-0.594370	0.363012
C41	C	-0.350722	-0.632876	0.319480
C42	C	-0.353947	-0.706261	0.322430
C43	C	-0.383429	-0.375086	0.349363
C44	C	-0.380206	-0.301695	0.346418
C45	C	-0.478683	-0.298078	0.436425
C46	C	-0.481900	-0.371465	0.439373
C47	C	-0.434276	-0.409965	0.395839
N48	N	-0.395054	-0.519357	0.359994
N49	N	-0.437575	-0.484976	0.398853
C50	C	-0.408889	-1.009278	0.196127
C51	C	-0.405736	-1.012459	0.118025
C52	C	-0.382890	-1.034790	0.678568
C53	C	-0.385893	-1.031870	0.751957
C54	C	-0.432863	-0.985440	0.786852
C55	C	-0.476839	-0.941934	0.748355
C56	C	-0.473840	-0.944858	0.674969
C57	C	-0.446713	-0.971876	1.006142
C58	C	-0.449707	-0.968954	1.079534
C59	C	-0.358761	-1.058891	1.083130
C60	C	-0.355763	-1.061808	1.009742
C61	C	-0.399742	-1.018304	0.971252
N62	N	-0.435932	-0.982453	0.861866
N63	N	-0.396677	-1.021296	0.896239
H64	H	-0.969262	-1.028783	0.498883
O65	O	-0.859180	-0.972665	0.249206
C66	C	-0.747912	-0.956761	0.175996
C67	C	-0.781140	-0.973420	0.249978
H68	H	-0.684812	-0.957352	0.176598
H69	H	-0.769124	-0.997871	0.137397
H70	H	-0.765207	-0.902674	0.159230
H71	H	-0.763859	-1.027488	0.266808
H72	H	-0.759930	-0.932267	0.288532
O73	O	-0.865831	-0.903880	0.469934
C74	C	-0.865111	-0.863688	0.589743
C75	C	-0.894572	-0.919416	0.538190
H76	H	-0.888348	-0.876220	0.644936
H77	H	-0.801932	-0.863790	0.589032
H78	H	-0.883283	-0.809761	0.573411
H79	H	-0.876455	-0.973370	0.554486
H80	H	-0.957748	-0.919252	0.538909
O81	O	-0.316162	-1.101231	1.120552
C82	C	-0.313834	-1.192791	1.207174
C83	C	-0.362165	-1.144887	1.164830
H84	H	-0.351007	-1.228089	1.242994
H85	H	-0.279770	-1.226528	1.169658
H86	H	-0.274936	-1.159178	1.240255
H87	H	-0.401106	-1.178445	1.131746
H88	H	-0.396178	-1.111147	1.202384
O89	O	-0.337279	-1.079830	0.644563
C90	C	-0.292385	-1.124227	0.533106
C91	C	-0.344058	-1.073173	0.571524
H92	H	-0.297860	-1.118874	0.474048
H93	H	-0.232521	-1.111351	0.547033
H94	H	-0.308559	-1.180297	0.549804
H95	H	-0.327951	-1.017086	0.554847
H96	H	-0.403909	-1.086110	0.557596
O97	O	-0.343103	-1.074155	0.789239
C98	C	-0.252609	-1.163693	0.785062
C99	C	-0.301017	-1.115830	0.742754
H100	H	-0.218582	-1.197411	0.747498
H101	H	-0.213686	-1.130119	0.818155
H102	H	-0.289770	-1.199020	0.820865
H103	H	-0.263914	-1.080495	0.706914
H104	H	-0.339946	-1.149446	0.709708
O105	O	-0.873255	-1.129269	0.419227
C106	C	-0.806842	-1.194317	0.502927
C107	C	-0.831997	-1.121882	0.480221
H108	H	-0.773467	-1.188368	0.552235
H109	H	-0.857586	-1.230638	0.514285
H110	H	-0.770805	-1.217568	0.459033
H111	H	-0.868019	-1.098570	0.524087
H112	H	-0.781221	-1.085610	0.468840
O113	O	-0.337094	-0.412371	0.307049
C114	C	-0.239115	-0.408209	0.217428
C115	C	-0.291535	-0.365894	0.265325
H116	H	-0.202279	-0.370651	0.183672
H117	H	-0.202985	-0.441232	0.250975
H118	H	-0.273319	-0.444080	0.182142
H119	H	-0.257390	-0.329984	0.300620
H120	H	-0.327668	-0.332917	0.231736
O121	O	-0.310126	-1.106978	0.975958
C122	C	-0.220216	-1.195855	0.987271
C123	C	-0.271879	-1.144744	1.025620
H124	H	-0.189268	-1.226392	1.027406
H125	H	-0.254532	-1.233991	0.954365
H126	H	-0.178560	-1.164979	0.951643
H127	H	-0.313545	-1.175563	1.061285
H128	H	-0.237515	-1.106609	1.058482
H129	H	-0.338803	-0.273295	0.308564
H130	H	-0.956555	-0.884892	0.342831
H131	H	-0.309323	-0.604468	0.281636
O132	O	-0.522402	-0.896850	0.782360
C133	C	-0.567357	-0.852511	0.893821
C134	C	-0.515714	-0.903592	0.855402
H135	H	-0.561980	-0.857955	0.952881
H136	H	-0.551178	-0.796415	0.877215
H137	H	-0.627193	-0.865384	0.879801
H138	H	-0.455863	-0.890783	0.869402
H139	H	-0.531957	-0.959673	0.872010
H140	H	-0.487969	-0.931154	1.107944
H141	H	-0.482520	-0.936452	0.974809
O142	O	-0.967334	-1.100246	0.288868
C143	C	-0.975019	-1.222901	0.258420
C144	C	-0.945727	-1.166985	0.309861
H145	H	-0.957548	-1.276871	0.275366
H146	H	-1.038148	-1.222304	0.258396
H147	H	-0.951003	-1.210911	0.203379
H148	H	-0.969688	-1.178937	0.364927
H149	H	-0.882597	-1.167595	0.309825
H150	H	-0.509647	-0.909432	0.643630
O151	O	-0.501880	-0.736414	0.457604
C152	C	-0.599189	-0.725071	0.546590
C153	C	-0.543217	-0.686737	0.495463
H154	H	-0.632615	-0.684924	0.577224
H155	H	-0.638334	-0.760727	0.515794
H156	H	-0.568013	-0.757947	0.584640
H157	H	-0.574331	-0.653823	0.457402
H158	H	-0.504074	-0.651122	0.526305
O159	O	-0.495532	-0.591830	0.451672
C160	C	-0.592509	-0.508598	0.457946
C161	C	-0.540085	-0.550949	0.410087
H162	H	-0.628532	-0.475524	0.424344
H163	H	-0.629451	-0.546110	0.491657
H164	H	-0.558309	-0.472770	0.493276
H165	H	-0.574226	-0.586780	0.374714
H166	H	-0.503140	-0.513398	0.376423
O167	O	-0.531362	-0.405239	0.484537
C168	C	-0.628663	-0.393903	0.573532
C169	C	-0.572699	-0.355565	0.522401
H170	H	-0.662089	-0.353758	0.604169
H171	H	-0.667809	-0.429562	0.542738
H172	H	-0.597481	-0.426777	0.611578
H173	H	-0.603819	-0.322653	0.484343
H174	H	-0.533555	-0.319949	0.553239
H175	H	-0.517456	-0.266724	0.471866
H176	H	-0.315170	-0.737608	0.286982
