data_functionalizedCrystal
_audit_creation_method	'MofGen! by Chris Wilmer'
_symmetry_space_group_name_H-M	'P1'
_symmetry_Int_Tables_number	1
_symmetry_cell_setting	triclinic
loop_
_symmetry_equiv_pos_as_xyz
  x,y,z
_cell_length_a	12.827893
_cell_length_b	12.594516
_cell_length_c	12.827885
_cell_angle_alpha	89.970270
_cell_angle_beta	89.980728
_cell_angle_gamma	90.011976
loop_
_atom_site_label
_atom_site_type_symbol
_atom_site_fract_x
_atom_site_fract_y
_atom_site_fract_z
Zn1	Zn	1.597696	-0.423686	-0.590849
Zn2	Zn	1.597601	-0.601702	-0.416110
Zn3	Zn	1.422937	-0.423738	-0.416123
Zn4	Zn	1.422933	-0.601623	-0.590810
O5	O	1.510292	-0.512687	-0.503473
O6	O	1.743919	-0.447311	-0.567681
O7	O	1.574393	-0.578150	-0.269875
O8	O	1.446160	-0.274786	-0.439323
O9	O	1.743849	-0.578099	-0.439300
O10	O	1.574555	-0.274747	-0.567693
O11	O	1.446068	-0.447400	-0.269885
O12	O	1.276700	-0.447324	-0.439284
O13	O	1.446154	-0.577965	-0.737051
O14	O	1.276698	-0.578016	-0.567626
O15	O	1.574551	-0.447235	-0.737080
O16	O	1.574389	-0.750637	-0.439262
O17	O	1.446062	-0.750580	-0.567613
C18	C	1.238782	-0.512668	-0.503453
C19	C	1.122629	-0.512685	-0.503469
C20	C	1.070878	-0.448082	-0.567095
C21	C	0.950828	-0.448098	-0.567113
C22	C	1.510243	-0.789228	-0.503455
C23	C	1.510318	-0.907534	-0.503482
C24	C	1.580196	-0.976780	-0.433746
C25	C	1.605734	-1.047473	-0.529127
C26	C	1.484911	-1.047639	-0.408161
C27	C	1.535905	-0.976669	-0.598913
C28	C	1.415037	-0.976829	-0.477883
C29	C	1.440539	-1.047490	-0.573330
C30	C	1.782862	-0.512708	-0.503493
C31	C	1.899015	-0.512717	-0.503502
C32	C	1.510363	-0.512585	-0.776043
C33	C	1.510393	-0.512542	-0.892196
C34	C	1.510369	-0.235067	-0.503514
C35	C	1.510401	-0.116761	-0.503531
C36	C	1.573935	-0.447840	-0.943995
C37	C	1.573968	-0.447793	-1.064046
C38	C	1.510281	-0.512712	-0.231963
C39	C	1.510453	-0.512456	-0.115810
H40	H	1.078057	-0.568004	-0.449008
C41	C	0.959128	-0.587441	-0.429905
N42	N	1.004413	-0.643721	-0.374469
C43	C	1.436954	-0.587296	-1.055640
N44	N	1.381592	-0.643663	-1.010313
H45	H	1.456010	-0.567894	-0.936726
H46	H	1.639300	-0.945730	-0.374826
C47	C	1.131087	-0.373339	-0.640665
N48	N	1.176435	-0.317040	-0.696081
H49	H	1.463387	-1.078812	-0.327530
H50	H	1.686347	-1.078507	-0.550807
C51	C	0.890708	-0.373370	-0.640700
N52	N	0.845423	-0.317079	-0.696125
H53	H	1.557349	-0.945628	-0.679614
C54	C	1.306169	-0.934858	-0.448550
N55	N	1.224170	-0.903241	-0.426444
C56	C	1.360751	-1.089171	-0.653118
N57	N	1.300658	-1.120565	-0.713217
H58	H	1.628307	-0.392477	-0.899466
C59	C	1.647461	-0.372953	-1.124222
N60	N	1.702816	-0.316579	-1.169550
