data_functionalizedCrystal
_audit_creation_method	'MofGen! by Chris Wilmer'
_symmetry_space_group_name_H-M	'P1'
_symmetry_Int_Tables_number	1
_symmetry_cell_setting	triclinic
loop_
_symmetry_equiv_pos_as_xyz
  x,y,z
_cell_length_a	18.215407
_cell_length_b	12.827892
_cell_length_c	18.215399
_cell_angle_alpha	89.976162
_cell_angle_beta	89.980167
_cell_angle_gamma	90.015840
loop_
_atom_site_label
_atom_site_type_symbol
_atom_site_fract_x
_atom_site_fract_y
_atom_site_fract_z
Zn1	Zn	1.125121	-0.416031	-0.416137
Zn2	Zn	1.625121	0.083969	0.083863
Zn3	Zn	1.125049	-0.590790	-0.293079
Zn4	Zn	1.625049	-0.090790	0.206921
Zn5	Zn	1.002053	-0.416065	-0.293084
Zn6	Zn	1.502053	0.083935	0.206916
Zn7	Zn	1.002039	-0.590732	-0.416104
Zn8	Zn	1.502039	-0.090732	0.083896
O9	O	1.063566	-0.503405	-0.354601
O10	O	1.563566	-0.003405	0.145399
O11	O	1.228095	-0.439223	-0.399825
O12	O	1.728095	0.060777	0.100175
O13	O	1.108710	-0.567651	-0.190096
O14	O	1.608710	-0.067651	0.309904
O15	O	1.018414	-0.269825	-0.309423
O16	O	1.518414	0.230175	0.190577
O17	O	1.228043	-0.567618	-0.309415
O18	O	1.728043	-0.067618	0.190585
O19	O	1.108831	-0.269800	-0.399829
O20	O	1.608831	0.230200	0.100171
O21	O	1.018345	-0.439282	-0.190099
O22	O	1.518345	0.060718	0.309901
O23	O	0.899067	-0.439225	-0.309392
O24	O	1.399067	0.060775	0.190608
O25	O	1.018390	-0.567519	-0.519093
O26	O	1.518390	-0.067519	-0.019093
O27	O	0.899057	-0.567552	-0.399774
O28	O	1.399057	-0.067552	0.100226
O29	O	1.108818	-0.439167	-0.519117
O30	O	1.608818	0.060833	-0.019117
O31	O	1.108696	-0.737019	-0.309383
O32	O	1.608696	-0.237019	0.190617
O33	O	1.018321	-0.736976	-0.399769
O34	O	1.518321	-0.236976	0.100231
C35	C	0.872359	-0.503387	-0.354580
C36	C	1.372359	-0.003387	0.145420
C37	C	0.790560	-0.503405	-0.354589
C38	C	1.290560	-0.003405	0.145411
C39	C	0.602380	-0.570329	-0.401592
C40	C	1.102380	-0.070329	0.098408
C41	C	0.525522	-0.570333	-0.401601
C42	C	1.025522	-0.070333	0.098399
C43	C	0.525503	-0.436499	-0.307627
C44	C	1.025503	0.063501	0.192373
C45	C	0.602360	-0.436491	-0.307622
C46	C	1.102360	0.063509	0.192378
C47	C	0.640797	-0.503413	-0.354603
C48	C	1.140797	-0.003413	0.145397
C49	C	0.487081	-0.503424	-0.354617
C50	C	0.987081	-0.003424	0.145383
C51	C	0.403747	-0.503427	-0.354627
C52	C	0.903747	-0.003427	0.145373
C53	C	0.724136	-0.503408	-0.354595
C54	C	1.224136	-0.003408	0.145405
C55	C	1.063520	-0.774915	-0.354588
C56	C	1.563520	-0.274915	0.145412
C57	C	1.063567	-0.891068	-0.354607
C58	C	1.563567	-0.391068	0.145393
C59	C	1.108341	-0.942839	-0.309931
C60	C	1.608341	-0.442839	0.190069
C61	C	1.108391	-1.062889	-0.309950
C62	C	1.608391	-0.562889	0.190050
C63	C	1.255518	-0.503424	-0.354623
C64	C	1.755518	-0.003424	0.145377
C65	C	1.337317	-0.503432	-0.354632
C66	C	1.837317	-0.003432	0.145368
C67	C	1.063610	-0.503333	-0.546554
C68	C	1.563610	-0.003333	-0.046554
C69	C	1.063629	-0.503302	-0.628353
C70	C	1.563629	-0.003302	-0.128353
C71	C	1.063632	-0.230835	-0.354630
C72	C	1.563632	0.269165	0.145370
C73	C	1.063660	-0.114682	-0.354643
C74	C	1.563660	0.385318	0.145357
C75	C	1.110732	-0.436407	-0.816561
C76	C	1.610732	0.063593	-0.316561
C77	C	1.110741	-0.436376	-0.893420
C78	C	1.610741	0.063624	-0.393420
C79	C	1.016579	-0.570036	-0.893383
C80	C	1.516579	-0.070036	-0.393383
C81	C	1.016567	-0.570060	-0.816526
C82	C	1.516567	-0.070060	-0.316526
C83	C	1.063648	-0.503247	-0.778117
C84	C	1.563648	-0.003247	-0.278117
C85	C	1.063668	-0.503192	-0.931833
C86	C	1.563668	-0.003192	-0.431833
C87	C	1.063678	-0.503160	-1.015167
C88	C	1.563678	-0.003160	-0.515167
C89	C	1.063638	-0.503278	-0.694778
C90	C	1.563638	-0.003278	-0.194778
C91	C	1.063563	-0.503401	-0.163395
C92	C	1.563563	-0.003401	0.336605
C93	C	1.063687	-0.503138	-0.081597
C94	C	1.563687	-0.003138	0.418403
H95	H	0.494246	-0.624822	-0.439864
H96	H	0.994246	-0.124822	0.060136
H97	H	1.149066	-0.382000	-0.785290
H98	H	1.649066	0.118000	-0.285290
H99	H	1.149080	-0.381946	-0.924717
H100	H	1.649080	0.118054	-0.424717
C101	C	0.965593	-0.642708	-0.935127
C102	C	1.465593	-0.142708	-0.435127
C103	C	1.007257	-0.709694	-0.979234
C104	C	1.507257	-0.209694	-0.479234
C105	C	0.960315	-0.776666	-1.017689
C106	C	1.460315	-0.276666	-0.517689
H107	H	0.933527	-0.602845	-0.965169
H108	H	1.433527	-0.102845	-0.465169
H109	H	0.937561	-0.682581	-0.901245
H110	H	1.437561	-0.182581	-0.401245
H111	H	1.035277	-0.669827	-1.013111
H112	H	1.535277	-0.169827	-0.513111
H113	H	1.039321	-0.749581	-0.949209
H114	H	1.539321	-0.249581	-0.449209
H115	H	0.932283	-0.816539	-0.983807
H116	H	1.432283	-0.316539	-0.483807
H117	H	0.928251	-0.736794	-1.047727
H118	H	1.428251	-0.236794	-0.547727
H119	H	0.988577	-0.822130	-1.047615
H120	H	1.488577	-0.322130	-0.547615
H121	H	1.025323	-1.070167	-0.392891
H122	H	1.525323	-0.570167	0.107109
C123	C	0.643980	-0.643015	-0.452685
C124	C	1.143980	-0.143015	0.047315
C125	C	0.593882	-0.701596	-0.493852
C126	C	1.093882	-0.201596	0.006148
C127	C	0.632174	-0.768553	-0.540937
C128	C	1.132174	-0.268553	-0.040937
H129	H	0.673947	-0.688590	-0.424563
H130	H	1.173947	-0.188590	0.075437
H131	H	0.673965	-0.603113	-0.484834
H132	H	1.173965	-0.103113	0.015166
H133	H	0.563910	-0.741495	-0.461707
H134	H	1.063910	-0.241495	0.038293
H135	H	0.563913	-0.656049	-0.521989
H136	H	1.063913	-0.156049	-0.021989
H137	H	0.662159	-0.728652	-0.573086
H138	H	1.162159	-0.228652	-0.073086
H139	H	0.662140	-0.814121	-0.512809
H140	H	1.162140	-0.314121	-0.012809
H141	H	0.598189	-0.808302	-0.568879
H142	H	1.098189	-0.308302	-0.068879
C143	C	0.483728	-0.364024	-0.256528
C144	C	0.983728	0.135976	0.243472
C145	C	0.439590	-0.423115	-0.209279
C146	C	0.939590	0.076885	0.290721
C147	C	0.401106	-0.356387	-0.162189
C148	C	0.901106	0.143613	0.337811
H149	H	0.453704	-0.318527	-0.284652
H150	H	0.953704	0.181473	0.215348
H151	H	0.517592	-0.324184	-0.228500
H152	H	1.017592	0.175816	0.271500
H153	H	0.405730	-0.462938	-0.237304
H154	H	0.905730	0.037062	0.262696
H155	H	0.469596	-0.468609	-0.181139
H156	H	0.969596	0.031391	0.318861
H157	H	0.434970	-0.316546	-0.134161
H158	H	0.934970	0.183454	0.365839
H159	H	0.371086	-0.310893	-0.190319
H160	H	0.871086	0.189107	0.309681
H161	H	0.371159	-0.396470	-0.130121
H162	H	0.871159	0.103530	0.369879
C163	C	0.643942	-0.363795	-0.256521
C164	C	1.143942	0.136205	0.243479
C165	C	0.593833	-0.305216	-0.215360
C166	C	1.093833	0.194784	0.284640
C167	C	0.632112	-0.238249	-0.168277
C168	C	1.132112	0.261751	0.331723
H169	H	0.673945	-0.318219	-0.284644
H170	H	1.173945	0.181781	0.215356
H171	H	0.673890	-0.403689	-0.224369
H172	H	1.173890	0.096311	0.275631
H173	H	0.563897	-0.265326	-0.247508
H174	H	1.063897	0.234674	0.252492
H175	H	0.563829	-0.350765	-0.187222
H176	H	1.063829	0.149235	0.312778
H177	H	0.662060	-0.278143	-0.136124
H178	H	1.162060	0.221857	0.363876
H179	H	0.662113	-0.192680	-0.196405
H180	H	1.162113	0.307320	0.303595
H181	H	0.598118	-0.198502	-0.140338
H182	H	1.098118	0.301498	0.359662
C183	C	1.159282	-0.883386	-0.258818
C184	C	1.659282	-0.383386	0.241182
C185	C	1.117571	-0.820837	-0.211630
C186	C	1.617571	-0.320837	0.288370
C187	C	1.164474	-0.766067	-0.164526
C188	C	1.664474	-0.266067	0.335474
H189	H	1.191301	-0.840657	-0.286934
H190	H	1.691301	-0.340657	0.213066
H191	H	1.187367	-0.931400	-0.230746
H192	H	1.687367	-0.431400	0.269254
H193	H	1.089499	-0.772830	-0.239698
H194	H	1.589499	-0.272830	0.260302
H195	H	1.085554	-0.863541	-0.183497
H196	H	1.585554	-0.363541	0.316503
H197	H	1.192558	-0.814081	-0.136454
H198	H	1.692558	-0.314081	0.363546
H199	H	1.196490	-0.723344	-0.192649
H200	H	1.696490	-0.223344	0.307351
H201	H	1.136180	-0.723629	-0.132499
H202	H	1.636180	-0.223629	0.367501
C203	C	1.159504	-1.122433	-0.259052
C204	C	1.659504	-0.622433	0.240948
C205	C	1.149427	-1.229667	-0.269225
C206	C	1.649427	-0.729667	0.230775
C207	C	1.196520	-1.284553	-0.222368
C208	C	1.696520	-0.784553	0.277632
H209	H	1.148840	-1.104801	-0.209542
H210	H	1.648840	-0.604801	0.290458
H211	H	1.208956	-1.104568	-0.269889
H212	H	1.708956	-0.604568	0.230111
H213	H	1.099987	-1.247526	-0.258383
H214	H	1.599987	-0.747526	0.241617
H215	H	1.160097	-1.247331	-0.318725
H216	H	1.660097	-0.747331	0.181275
H217	H	1.245972	-1.266687	-0.233204
H218	H	1.745972	-0.766687	0.266796
H219	H	1.185852	-1.266911	-0.172861
H220	H	1.685852	-0.766911	0.327139
H221	H	1.189694	-1.357316	-0.229268
H222	H	1.689694	-0.857316	0.270732
H223	H	0.978220	-0.624489	-0.785224
H224	H	1.478220	-0.124489	-0.285224
H225	H	1.025275	-0.935621	-0.392873
H226	H	1.525275	-0.435621	0.107127
