data_functionalizedCrystal
_audit_creation_method	'MofGen! by Chris Wilmer'
_symmetry_space_group_name_H-M	'P1'
_symmetry_Int_Tables_number	1
_symmetry_cell_setting	triclinic
loop_
_symmetry_equiv_pos_as_xyz
  x,y,z
_cell_length_a	19.077105
_cell_length_b	17.637651
_cell_length_c	19.076919
_cell_angle_alpha	99.433464
_cell_angle_beta	89.923776
_cell_angle_gamma	98.499620
loop_
_atom_site_label
_atom_site_type_symbol
_atom_site_fract_x
_atom_site_fract_y
_atom_site_fract_z
Zn1	Zn	0.993412	-0.376382	0.369993
Zn2	Zn	0.976496	-0.501474	0.229080
Zn3	Zn	0.882426	-0.365960	0.249736
Zn4	Zn	0.854398	-0.501005	0.341921
O5	O	0.926683	-0.436205	0.297682
O6	O	1.088714	-0.397534	0.354404
O7	O	0.968667	-0.479332	0.134268
O8	O	0.915957	-0.258475	0.286082
O9	O	1.076286	-0.489438	0.250876
O10	O	0.997498	-0.266132	0.374434
O11	O	0.899554	-0.379771	0.149444
O12	O	0.781161	-0.379316	0.258861
O13	O	0.868189	-0.488639	0.443196
O14	O	0.760570	-0.478533	0.326588
O15	O	0.970321	-0.397079	0.463821
O16	O	0.941491	-0.610280	0.223656
O17	O	0.851786	-0.609935	0.306559
C18	C	0.745573	-0.427743	0.291920
C19	C	0.668089	-0.424142	0.289468
C20	C	0.620975	-0.474180	0.323494
C21	C	0.548173	-0.470786	0.321195
C22	C	0.522485	-0.417359	0.284866
C23	C	0.569605	-0.367316	0.250840
C24	C	0.642407	-0.370706	0.253143
C25	C	0.305902	-0.401669	0.274209
C26	C	0.233094	-0.398284	0.271907
C27	C	0.211666	-0.501754	0.342264
C28	C	0.284470	-0.505142	0.344561
C29	C	0.331584	-0.455097	0.310537
N30	N	0.448069	-0.413891	0.282514
N31	N	0.405999	-0.458562	0.312894
C32	C	0.891780	-0.638337	0.259835
C33	C	0.876910	-0.724814	0.243670
C34	C	1.040085	-1.028866	0.420726
C35	C	1.026091	-1.110122	0.405523
C36	C	0.941246	-1.102255	0.313438
C37	C	0.955235	-1.020996	0.328631
C38	C	1.004654	-0.984308	0.382276
C39	C	0.919805	-0.976439	0.290181
C40	C	0.933790	-0.895187	0.305376
C41	C	0.983205	-0.858493	0.359020
C42	C	1.018640	-0.903056	0.397471
C43	C	0.870382	-1.013129	0.236540
C44	C	0.834951	-0.968571	0.198090
C45	C	0.848940	-0.887318	0.213281
C46	C	0.898356	-0.850623	0.266925
C47	C	0.813506	-0.842754	0.174830
C48	C	0.827491	-0.761502	0.190024
C49	C	0.912341	-0.769372	0.282119
C50	C	1.108500	-0.444701	0.303467
C51	C	1.185980	-0.448321	0.305933
C52	C	0.918016	-0.443969	0.479510
C53	C	0.914322	-0.447278	0.556994
C54	C	0.961741	-0.233286	0.335693
C55	C	0.976681	-0.146813	0.351891
C56	C	0.935366	-0.428417	0.116574
C57	C	0.939233	-0.424896	0.039136
C58	C	0.965759	-0.401164	0.604135
C59	C	0.962281	-0.404269	0.676940
C60	C	0.907368	-0.453493	0.702601
C61	C	0.855926	-0.499608	0.655455
C62	C	0.859402	-0.496498	0.582652
C63	C	0.891267	-0.467902	0.919187
C64	C	0.887796	-0.471010	0.991995
C65	C	0.994151	-0.375669	1.013475
C66	C	0.997624	-0.372567	0.940669
C67	C	0.946180	-0.418679	0.893530
N68	N	0.903812	-0.456670	0.777019
N69	N	0.949733	-0.415498	0.819114
H70	H	0.509814	-0.511533	0.348902
C71	C	1.099624	-0.281118	1.027393
C72	C	1.050692	-0.324979	1.065292
H73	H	1.134533	-0.249825	1.059384
H74	H	1.075749	-0.248731	1.003604
H75	H	1.121785	-0.315056	0.993495
H76	H	1.028528	-0.291041	1.099187
H77	H	1.074571	-0.357369	1.089092
C78	C	0.997430	-0.293472	0.542176
C79	C	1.026120	-0.347053	0.575931
H80	H	1.034695	-0.260067	0.524763
H81	H	0.970848	-0.263513	0.575184
H82	H	0.967298	-0.320501	0.503679
H83	H	1.056249	-0.320024	0.614432
H84	H	1.052714	-0.377014	0.542921
H85	H	0.849385	-0.505462	0.880812
C86	C	0.255975	-0.607072	0.413880
C87	C	0.312703	-0.563870	0.384497
H88	H	0.273407	-0.643327	0.438536
H89	H	0.223895	-0.634155	0.377004
H90	H	0.232156	-0.573034	0.446037
H91	H	0.336519	-0.597908	0.352336
H92	H	0.344795	-0.536785	0.421378
H93	H	0.680768	-0.329957	0.225440
C94	C	0.882136	-1.223315	0.249249
C95	C	0.886930	-1.142588	0.254469
H96	H	0.848608	-1.248212	0.212839
H97	H	0.867367	-1.238139	0.293258
H98	H	0.927184	-1.238344	0.238098
H99	H	0.841883	-1.127559	0.265625
H100	H	0.901696	-1.127758	0.210450
H101	H	0.344253	-0.360924	0.246499
H102	H	1.004168	-0.366720	0.715319
C103	C	0.090553	-0.542497	0.369981
C104	C	0.159878	-0.556754	0.379669
H105	H	0.058583	-0.576449	0.393080
H106	H	0.078895	-0.551250	0.320637
H107	H	0.087164	-0.490123	0.389666
H108	H	0.163269	-0.609126	0.359979
H109	H	0.171540	-0.548006	0.429023
C110	C	1.029260	-0.264844	0.878746
C111	C	1.057972	-0.318423	0.912485
H112	H	1.066516	-0.231412	0.861350
H113	H	1.002661	-0.234913	0.911759
H114	H	0.999141	-0.291872	0.840239
H115	H	1.088088	-0.291394	0.950995
H116	H	1.084583	-0.348357	0.879470
H117	H	1.058888	-0.873184	0.441150
C118	C	1.103678	-1.206211	0.401220
C119	C	1.065043	-1.159094	0.447798
H120	H	1.127719	-1.236444	0.427323
H121	H	1.137270	-1.174457	0.377654
H122	H	1.072243	-1.239696	0.367102
H123	H	1.096478	-1.125605	0.481913
H124	H	1.031447	-1.190852	0.471376
C125	C	0.783005	-0.564933	0.963454
C126	C	0.827428	-0.525117	1.020204
H127	H	0.745738	-0.598331	0.980872
H128	H	0.809586	-0.594899	0.930451
H129	H	0.763556	-0.528568	0.940561
H130	H	0.846882	-0.561482	1.043094
H131	H	0.800844	-0.495149	1.053219
H132	H	0.212184	-0.354768	0.242329
H133	H	0.811212	-0.539684	0.676355
C134	C	0.467521	-0.316176	0.216069
C135	C	0.541372	-0.308584	0.210909
H136	H	0.450094	-0.279919	0.191413
H137	H	0.455323	-0.306319	0.264659
H138	H	0.447064	-0.367437	0.195624
H139	H	0.561830	-0.257324	0.231359
H140	H	0.553577	-0.318436	0.162309
H141	H	0.952589	-0.739499	0.325798
C142	C	0.753942	-0.591072	0.568725
C143	C	0.802870	-0.547202	0.530830
H144	H	0.719045	-0.622380	0.536730
H145	H	0.731771	-0.557147	0.602613
H146	H	0.777828	-0.623453	0.592522
H147	H	0.778985	-0.514817	0.507036
H148	H	0.825043	-0.581132	0.496929
H149	H	0.798639	-0.725223	0.158715
H150	H	0.641883	-0.517689	0.353075
H151	H	0.994592	-0.792332	0.371390
H152	H	1.080333	-0.998993	0.464405
C153	C	0.775841	-1.089631	0.133901
C154	C	0.780635	-1.008904	0.139120
H155	H	0.742313	-1.114528	0.097490
H156	H	0.761072	-1.104455	0.177910
H157	H	0.820889	-1.104660	0.122750
H158	H	0.735589	-0.993874	0.150276
H159	H	0.795401	-0.994074	0.095101
H160	H	0.858990	-1.079289	0.224176
H161	H	0.773264	-0.872638	0.131156
