data_functionalizedCrystal
_audit_creation_method	'MofGen! by Chris Wilmer'
_symmetry_space_group_name_H-M	'P1'
_symmetry_Int_Tables_number	1
_symmetry_cell_setting	triclinic
loop_
_symmetry_equiv_pos_as_xyz
  x,y,z
_cell_length_a	17.699083
_cell_length_b	23.532357
_cell_length_c	16.776229
_cell_angle_alpha	89.987808
_cell_angle_beta	89.998886
_cell_angle_gamma	83.055654
loop_
_atom_site_label
_atom_site_type_symbol
_atom_site_fract_x
_atom_site_fract_y
_atom_site_fract_z
O1	O	1.003696	0.072022	-0.066186
O2	O	1.503696	0.572022	0.433814
O3	O	0.783268	0.081392	-0.066214
O4	O	1.283268	0.581392	0.433786
O5	O	0.900149	-0.006208	-0.066183
O6	O	1.400149	0.493792	0.433817
O7	O	0.886815	0.159621	-0.066217
O8	O	1.386815	0.659621	0.433783
O9	O	0.900133	-0.006213	0.066394
O10	O	1.400133	0.493787	0.566394
O11	O	0.783252	0.081386	0.066363
O12	O	1.283252	0.581386	0.566363
O13	O	1.003680	0.072016	0.066390
O14	O	1.503680	0.572016	0.566390
Zn15	Zn	0.893464	0.076700	0.087426
Zn16	Zn	1.393464	0.576700	0.587426
Zn17	Zn	0.893484	0.076708	-0.087249
Zn18	Zn	1.393484	0.576708	0.412751
O19	O	0.886800	0.159616	0.066359
O20	O	1.386800	0.659616	0.566359
C21	C	0.755065	0.081053	0.000071
C22	C	1.255065	0.581053	0.500071
C23	C	0.671052	0.080046	0.000062
C24	C	1.171052	0.580046	0.500062
C25	C	0.899807	-0.027428	0.000108
C26	C	1.399807	0.472572	0.500108
C27	C	0.898805	-0.090650	0.000115
C28	C	1.398805	0.409350	0.500115
C29	C	0.622158	0.131465	0.000051
C30	C	1.122158	0.631465	0.500051
C31	C	0.543220	0.130515	0.000062
C32	C	1.043220	0.630515	0.500062
C33	C	0.513177	0.078146	0.000077
C34	C	1.013177	0.578146	0.500077
C35	C	0.562077	0.026723	0.000090
C36	C	1.062077	0.526723	0.500090
C37	C	0.641014	0.027673	0.000085
C38	C	1.141014	0.527673	0.500085
C39	C	0.243735	0.022889	0.000110
C40	C	0.743735	0.522889	0.500110
C41	C	0.164792	0.021942	0.000113
C42	C	0.664792	0.521942	0.500113
C43	C	0.145940	0.125731	0.000087
C44	C	0.645940	0.625731	0.500087
C45	C	0.224877	0.126681	0.000082
C46	C	0.724877	0.626681	0.500082
C47	C	0.273770	0.075259	0.000099
C48	C	0.773770	0.575259	0.500099
C49	C	0.359364	0.076289	0.000089
C50	C	0.859364	0.576289	0.500089
C51	C	0.427585	0.077115	0.000081
C52	C	0.927585	0.577115	0.500081
C53	C	0.892518	-0.482676	-0.072196
C54	C	1.392518	0.017324	0.427804
C55	C	0.891565	-0.542078	-0.072201
C56	C	1.391565	-0.042078	0.427799
O57	O	0.891053	-0.572794	-0.133661
O58	O	1.391053	-0.072794	0.366339
N59	N	0.891084	-0.571794	0.000066
N60	N	1.391084	-0.071794	0.500066
C61	C	0.891548	-0.542103	0.072342
C62	C	1.391548	-0.042103	0.572342
O63	O	0.891051	-0.572833	0.133809
O64	O	1.391051	-0.072833	0.633809
C65	C	0.892496	-0.482701	0.072345
C66	C	1.392496	0.017299	0.572345
C67	C	0.892985	-0.452990	0.000074
C68	C	1.392985	0.047010	0.500074
C69	C	0.893006	-0.452964	-0.144461
C70	C	1.393006	0.047036	0.355539
C71	C	0.893960	-0.393566	-0.144456
C72	C	1.393960	0.106434	0.355544
C73	C	0.894427	-0.363880	-0.072186
C74	C	1.394427	0.136120	0.427814
C75	C	0.893939	-0.393592	0.000079
C76	C	1.393939	0.106408	0.500079
C77	C	0.892955	-0.453011	0.144620
C78	C	1.392955	0.046989	0.644620
C79	C	0.893902	-0.393606	0.144618
C80	C	1.393902	0.106394	0.644618
C81	C	0.894391	-0.363894	0.072347
C82	C	1.394391	0.136106	0.572347
C83	C	0.895360	-0.304508	0.072354
C84	C	1.395360	0.195492	0.572354
N85	N	0.895842	-0.274792	0.000088
N86	N	1.395842	0.225208	0.500088
C87	C	0.895375	-0.304479	-0.072182
C88	C	1.395375	0.195521	0.427818
C89	C	0.889557	-0.666850	0.072328
C90	C	1.389557	-0.166850	0.572328
C91	C	0.888614	-0.726252	0.072325
C92	C	1.388614	-0.226252	0.572325
C93	C	0.888630	-0.726222	-0.072217
C94	C	1.388630	-0.226222	0.427783
C95	C	0.889577	-0.666821	-0.072214
C96	C	1.389577	-0.166821	0.427786
C97	C	0.890038	-0.637135	0.000062
C98	C	1.390038	-0.137135	0.500062
C99	C	0.897380	-0.179739	-0.072166
C100	C	1.397380	0.320261	0.427834
C101	C	0.898338	-0.120336	-0.072155
C102	C	1.398338	0.379664	0.427845
C103	C	0.898319	-0.120370	0.072387
C104	C	1.398319	0.379630	0.572387
C105	C	0.897365	-0.179768	0.072376
C106	C	1.397365	0.320232	0.572376
C107	C	0.896893	-0.209451	0.000093
C108	C	1.396893	0.290549	0.500093
O109	O	0.895869	-0.273754	0.133784
O110	O	1.395869	0.226246	0.633784
O111	O	0.895862	-0.273740	-0.133640
O112	O	1.395862	0.226260	0.366360
C113	C	1.031883	0.072355	0.000104
C114	C	1.531883	0.572355	0.500104
C115	C	1.115896	0.073362	0.000108
C116	C	1.615896	0.573362	0.500108
C117	C	0.887141	0.180836	0.000067
C118	C	1.387141	0.680836	0.500067
C119	C	0.888144	0.244058	0.000054
C120	C	1.388144	0.744058	0.500054
N121	N	0.893456	0.076695	0.206637
N122	N	1.393456	0.576695	0.706637
N123	N	0.893499	0.076708	-0.206461
N124	N	1.393499	0.576708	0.293539
C125	C	0.945226	0.037922	0.248368
C126	C	1.445226	0.537922	0.748368
C127	C	0.945230	0.037922	0.331820
C128	C	1.445230	0.537922	0.831820
C129	C	0.893467	0.076697	0.373540
C130	C	1.393467	0.576697	0.873540
C131	C	0.841691	0.115473	0.331803
C132	C	1.341691	0.615473	0.831803
C133	C	0.841684	0.115470	0.248353
C134	C	1.341684	0.615470	0.748353
C135	C	0.841718	0.115484	0.668351
C136	C	1.341718	0.615484	1.168351
C137	C	0.841731	0.115485	0.751807
C138	C	1.341731	0.615485	1.251807
C139	C	0.945265	0.037935	0.751818
C140	C	1.445265	0.537935	1.251818
C141	C	0.945258	0.037933	0.668367
C142	C	1.445258	0.537933	1.168367
C143	C	0.893479	0.076706	0.626638
C144	C	1.393479	0.576706	1.126638
C145	C	0.893474	0.076705	0.536150
C146	C	1.393474	0.576705	1.036150
C147	C	0.893475	0.076701	0.464027
C148	C	1.393475	0.576701	0.964027
H149	H	0.646612	0.174111	0.000038
H150	H	1.146612	0.674111	0.500038
F151	F	0.888128	-0.757827	-0.149135
F152	F	1.388128	-0.257827	0.350865
H153	H	0.799560	0.147055	0.634381
H154	H	1.299560	0.647055	1.134381
F155	F	0.786580	0.156736	0.203941
F156	F	1.286580	0.656736	0.703941
F157	F	0.898817	-0.088765	0.149298
F158	F	1.398817	0.411235	0.649298
H159	H	0.249333	0.169326	0.000066
H160	H	0.749333	0.669326	0.500066
H161	H	0.898738	-0.096147	-0.131009
H162	H	1.398738	0.403853	0.368991
F163	F	1.000329	-0.003346	0.376233
F164	F	1.500329	0.496654	0.876233
F165	F	0.530102	-0.029013	0.000111
F166	F	1.030102	0.470987	0.500111
H167	H	0.892558	-0.477193	0.203471
H168	H	1.392558	0.022807	0.703471
H169	H	0.894266	-0.369438	0.203475
H170	H	1.394266	0.130562	0.703475
H171	H	0.889934	-0.642684	0.131187
H172	H	1.389934	-0.142684	0.631187
H173	H	0.896974	-0.203961	0.131225
H174	H	1.396974	0.296039	0.631225
H175	H	0.799577	0.147062	0.785774
H176	H	1.299577	0.647062	1.285774
F177	F	1.000353	-0.003336	0.623969
F178	F	1.500353	0.496664	1.123969
F179	F	0.890096	-0.635205	-0.149134
F180	F	1.390096	-0.135205	0.350866
F181	F	0.786596	0.156739	0.376206
F182	F	1.286596	0.656739	0.876206
F183	F	0.491186	0.185243	0.000047
F184	F	0.991186	0.685243	0.500047
F185	F	1.000370	-0.003333	0.796235
F186	F	1.500370	0.496667	1.296235
H187	H	0.987381	0.006349	0.214405
H188	H	1.487381	0.506349	0.714405
H189	H	0.106121	0.167602	0.000077
H190	H	0.606121	0.667602	0.500077
H191	H	0.283535	-0.018983	0.000125
H192	H	0.783535	0.481017	0.500125
F193	F	0.132821	-0.033799	0.000129
F194	F	0.632821	0.466201	0.500129
H195	H	0.896992	-0.203899	-0.131026
H196	H	1.396992	0.296101	0.368974
F197	F	0.693051	-0.027054	0.000099
F198	F	1.193051	0.472946	0.500099
H199	H	0.892623	-0.477128	-0.203316
H200	H	1.392623	0.022872	0.296684
F201	F	0.894476	-0.361952	-0.221378
F202	F	1.394476	0.138048	0.278622
H203	H	0.888228	-0.750439	0.131176
H204	H	1.388228	-0.250439	0.631176
