data_functionalizedCrystal
_audit_creation_method	'MofGen! by Chris Wilmer'
_symmetry_space_group_name_H-M	'P1'
_symmetry_Int_Tables_number	1
_symmetry_cell_setting	triclinic
loop_
_symmetry_equiv_pos_as_xyz
  x,y,z
_cell_length_a	16.625548
_cell_length_b	13.032721
_cell_length_c	13.032268
_cell_angle_alpha	103.289627
_cell_angle_beta	82.837807
_cell_angle_gamma	82.794397
loop_
_atom_site_label
_atom_site_type_symbol
_atom_site_fract_x
_atom_site_fract_y
_atom_site_fract_z
Zn1	Zn	1.119641	0.499057	0.654215
Zn2	Zn	1.119553	0.654142	0.499163
Zn3	Zn	1.004420	0.476555	0.476634
Zn4	Zn	0.965173	0.676619	0.676703
O5	O	1.052197	0.576593	0.576679
O6	O	1.232459	0.519640	0.633665
O7	O	1.120669	0.611760	0.347555
O8	O	1.036166	0.330909	0.481350
O9	O	1.232395	0.633580	0.519749
O10	O	1.120819	0.347442	0.611819
O11	O	1.036081	0.481288	0.331002
O12	O	0.886384	0.503083	0.503156
O13	O	0.969275	0.671889	0.822340
O14	O	0.857549	0.650069	0.650146
O15	O	1.082763	0.541436	0.805818
O16	O	1.082613	0.805754	0.541554
O17	O	0.969190	0.822268	0.671992
C18	C	1.021652	0.852553	0.611681
C19	C	1.008655	0.970614	0.626691
C20	C	0.842711	0.576574	0.576647
C21	C	0.753086	0.576595	0.576662
C22	C	1.021651	0.611680	0.853692
C23	C	1.008634	0.626632	0.971738
C24	C	0.424905	0.576608	0.576708
C25	C	0.516216	0.576601	0.576692
C26	C	0.588993	0.576602	0.576684
C27	C	0.680309	0.576594	0.576669
C28	C	1.262501	0.576613	0.576711
C29	C	1.352119	0.576622	0.576725
C30	C	1.082880	0.299559	0.541563
C31	C	1.095956	0.181504	0.526599
C32	C	1.059018	1.015050	0.568893
C33	C	1.045586	1.137072	0.584405
C34	C	1.082679	0.541567	0.300734
C35	C	1.095885	0.526316	0.182650
C36	C	1.058982	0.568752	1.016192
C37	C	1.045530	0.584204	1.138199
H38	H	1.112083	0.962760	0.507929
H39	H	0.992523	1.189362	0.645380
C40	C	1.166642	1.111607	0.445312
C41	C	1.165897	1.004472	0.446057
C42	C	1.230992	0.940052	0.371181
H43	H	1.217168	1.131506	0.463114
H44	H	1.160768	1.120672	0.376203
H45	H	1.171778	0.995413	0.515150
H46	H	1.115387	0.984540	0.428243
H47	H	1.225118	0.949116	0.302072
H48	H	1.281513	0.959960	0.388989
H49	H	1.230491	0.867353	0.371669
C50	C	0.937924	1.040506	0.707897
C51	C	0.938647	1.147636	0.707113
C52	C	0.873494	1.212048	0.781898
H53	H	0.943725	1.031511	0.777035
H54	H	0.887429	1.020533	0.690005
H55	H	0.989129	1.167603	0.725011
H56	H	0.932835	1.156665	0.637993
H57	H	0.823000	1.192074	0.764006
H58	H	0.879302	1.203044	0.851030
H59	H	0.873972	1.284741	0.781369
C60	C	1.129850	0.487500	0.946658
C61	C	1.204116	0.514005	0.976523
C62	C	1.269419	0.439171	0.912505
H63	H	1.129608	0.487851	0.873891
H64	H	1.124018	0.418400	0.955757
H65	H	1.209947	0.583087	0.967414
H66	H	1.204385	0.513646	1.049280
H67	H	1.263586	0.370071	0.921605
H68	H	1.269168	0.439528	0.839742
H69	H	1.319815	0.457139	0.932766
C70	C	0.974843	0.665527	1.208063
C71	C	0.975571	0.664714	1.315190
C72	C	0.910476	0.739624	1.379581
H73	H	0.924318	0.647788	1.188100
H74	H	0.980727	0.734641	1.199050
H75	H	0.969680	0.595615	1.324199
H76	H	1.026081	0.682464	1.335186
H77	H	0.916360	0.808739	1.370567
H78	H	0.859956	0.721879	1.359608
H79	H	0.910966	0.739090	1.452274
H80	H	1.148949	0.465313	1.130388
C81	C	0.937764	0.707824	1.041349
C82	C	0.863492	0.681295	1.011524
C83	C	0.798188	0.756059	1.075633
H84	H	0.943529	0.776954	1.032325
H85	H	0.938073	0.707391	1.114098
H86	H	0.863183	0.681740	0.938792
H87	H	0.857700	0.612178	1.020552
H88	H	0.798498	0.755626	1.148382
H89	H	0.803962	0.825185	1.066604
H90	H	0.747787	0.738065	1.055412
