data_functionalizedCrystal
_audit_creation_method	'MofGen! by Chris Wilmer'
_symmetry_space_group_name_H-M	'P1'
_symmetry_Int_Tables_number	1
_symmetry_cell_setting	triclinic
loop_
_symmetry_equiv_pos_as_xyz
  x,y,z
_cell_length_a	10.723023
_cell_length_b	11.792241
_cell_length_c	9.198806
_cell_angle_alpha	89.996670
_cell_angle_beta	89.996513
_cell_angle_gamma	84.330482
loop_
_atom_site_label
_atom_site_type_symbol
_atom_site_fract_x
_atom_site_fract_y
_atom_site_fract_z
O1	O	1.656767	0.159188	-0.120878
O2	O	2.156767	0.659188	0.379122
O3	O	1.293574	0.174427	-0.120884
O4	O	1.793574	0.674427	0.379116
O5	O	1.483984	0.001656	-0.120871
O6	O	1.983984	0.501656	0.379129
O7	O	1.466357	0.331959	-0.120892
O8	O	1.966357	0.831959	0.379108
O9	O	1.483969	0.001656	0.120914
O10	O	1.983969	0.501656	0.620914
O11	O	1.293559	0.174426	0.120901
O12	O	1.793559	0.674426	0.620901
O13	O	1.656752	0.159187	0.120907
O14	O	2.156752	0.659187	0.620907
Cu15	Cu	1.475154	0.166807	0.142981
Cu16	Cu	1.975154	0.666807	0.642981
Cu17	Cu	1.475172	0.166807	-0.142958
Cu18	Cu	1.975172	0.666807	0.357042
O19	O	1.466342	0.331958	0.120893
O20	O	1.966342	0.831958	0.620893
C21	C	1.247070	0.173318	0.000007
C22	C	1.747070	0.673318	0.500007
C23	C	1.108525	0.170000	0.000005
C24	C	1.608525	0.670000	0.500005
C25	C	0.903578	0.165093	-0.125246
C26	C	1.403578	0.665093	0.374754
C27	C	1.046772	0.168522	-0.125247
C28	C	1.546772	0.668522	0.374753
C29	C	1.482870	-0.040638	0.000021
C30	C	1.982870	0.459362	0.500021
C31	C	1.479555	-0.166658	0.000020
C32	C	1.979555	0.333342	0.500020
C33	C	1.473461	-0.397384	-0.000005
C34	C	1.973461	0.102616	0.499995
C35	C	1.476847	-0.268991	0.000008
C36	C	1.976847	0.231009	0.500008
C37	C	1.703256	0.160296	0.000012
C38	C	2.203256	0.660296	0.500012
C39	C	1.841802	0.163614	0.000004
C40	C	2.341802	0.663614	0.500004
C41	C	1.467457	0.374252	-0.000002
C42	C	1.967457	0.874252	0.499998
C43	C	1.470771	0.500273	-0.000010
C44	C	1.970771	1.000273	0.499990
N45	N	1.475151	0.166806	0.344095
N46	N	1.975151	0.666806	0.844095
N47	N	1.475185	0.166799	-0.344072
N48	N	1.975185	0.666799	0.155928
C49	C	1.555099	0.093944	0.416297
C50	C	2.055099	0.593944	0.916297
C51	C	1.555119	0.093940	0.583709
C52	C	2.055119	0.593940	1.083709
H53	H	1.055406	0.168735	0.107243
H54	H	1.555406	0.668735	0.607243
H55	H	1.099897	0.169801	-0.232479
H56	H	1.599897	0.669801	0.267521
H57	H	0.850457	0.163814	-0.232478
H58	H	1.350457	0.663814	0.267522
H59	H	0.894924	0.164881	0.107236
H60	H	1.394924	0.664881	0.607236
H61	H	1.623528	0.031563	0.354176
H62	H	2.123528	0.531563	0.854176
O63	O	1.636723	0.019361	0.657615
O64	O	2.136723	0.519361	1.157615
C65	C	1.615332	-0.093110	0.620568
C66	C	2.115332	0.406890	1.120568
H67	H	1.567299	-0.093326	0.510028
H68	H	2.067299	0.406674	1.010028
H69	H	1.708609	-0.148458	0.615501
H70	H	2.208609	0.351542	1.115501
H71	H	1.552792	-0.128491	0.706216
H72	H	2.052792	0.371509	1.206216
O73	O	1.393453	0.241068	0.418356
O74	O	1.893453	0.741068	0.918356
C75	C	1.315913	0.179785	0.506390
C76	C	1.815913	0.679785	1.006390
H77	H	1.364778	0.091261	0.529034
H78	H	1.864778	0.591261	1.029034
H79	H	1.296731	0.226948	0.613487
H80	H	1.796731	0.726948	1.113487
H81	H	1.223533	0.171590	0.447839
H82	H	1.723533	0.671590	0.947839
O83	O	1.393693	0.241275	0.581715
O84	O	1.893693	0.741275	1.081715
C85	C	1.461289	0.311621	0.493684
C86	C	1.961289	0.811621	0.993684
H87	H	1.558535	0.266975	0.471010
H88	H	2.058535	0.766975	0.971010
H89	H	1.409442	0.329198	0.386601
H90	H	1.909442	0.829198	0.886601
H91	H	1.470549	0.395574	0.552252
H92	H	1.970549	0.895574	1.052252
