data_functionalizedCrystal
_audit_creation_method	'MofGen! by Chris Wilmer'
_symmetry_space_group_name_H-M	'P1'
_symmetry_Int_Tables_number	1
_symmetry_cell_setting	triclinic
loop_
_symmetry_equiv_pos_as_xyz
  x,y,z
_cell_length_a	20.875492
_cell_length_b	14.395555
_cell_length_c	20.875641
_cell_angle_alpha	90.003252
_cell_angle_beta	60.662107
_cell_angle_gamma	58.317190
loop_
_atom_site_label
_atom_site_type_symbol
_atom_site_fract_x
_atom_site_fract_y
_atom_site_fract_z
Zr1	Zr	0.731481	0.846174	-0.117916
O2	O	0.864482	0.693444	-0.223400
O3	O	0.593200	0.900065	-0.080681
O4	O	0.723861	0.897444	-0.216328
O5	O	0.741674	0.690088	0.013676
O6	O	0.723856	1.050318	-0.216322
O7	O	0.733822	0.696065	-0.087753
O8	O	0.490128	1.055007	0.026326
O9	O	0.975402	0.685400	-0.228973
O10	O	0.652030	1.028594	-0.070715
O11	O	0.657893	0.910045	0.004976
O12	O	0.811729	0.906959	-0.154732
O13	O	0.817593	0.788410	-0.079041
Zr14	Zr	0.743998	1.080458	0.043859
Zr15	Zr	0.731474	1.089990	-0.117907
Zr16	Zr	0.744005	0.836641	0.043850
Zr17	Zr	0.908386	0.833344	-0.126804
Zr18	Zr	0.567093	1.093288	0.052747
O19	O	0.882279	1.026566	0.006624
O20	O	0.864472	1.040120	-0.223387
O21	O	0.882290	0.679890	0.006611
O22	O	0.610997	1.233187	0.149343
O23	O	0.593190	1.246741	-0.080668
O24	O	0.611007	0.886511	0.149330
O25	O	0.733805	1.236543	-0.087733
O26	O	0.751618	1.029187	0.142271
O27	O	0.751623	0.876313	0.142265
O28	O	0.741658	1.230566	0.013696
O29	O	0.975397	0.879202	-0.228965
O30	O	0.500083	1.047430	0.154908
O31	O	0.500077	1.241231	0.154916
O32	O	0.490122	1.248809	0.026333
O33	O	0.985357	0.677823	-0.100390
O34	O	0.985351	0.871624	-0.100383
O35	O	0.663750	1.019672	0.080675
O36	O	0.657886	1.138221	0.004984
O37	O	0.817586	1.016587	-0.079033
O38	O	0.823450	0.898038	-0.003342
C39	C	0.516459	0.979364	-0.025911
C40	C	0.441358	0.984811	-0.022138
C41	C	0.462880	0.902007	-0.079329
C42	C	0.392326	0.907129	-0.075811
C43	C	0.300252	0.995051	-0.015098
C44	C	0.278730	1.077863	0.042096
C45	C	0.349283	1.072745	0.038574
C46	C	0.083153	1.019515	0.001753
C47	C	0.012600	1.024624	0.005272
C48	C	0.126200	0.853891	-0.112636
C49	C	0.196749	0.848777	-0.116150
C50	C	0.175222	0.931592	-0.058958
N51	N	0.228133	1.000286	-0.011499
N52	N	0.247340	0.926361	-0.062561
C53	C	0.737749	0.658338	-0.037040
C54	C	0.737752	0.554832	-0.037044
C55	C	0.824828	0.427922	-0.082847
C56	C	0.777386	0.402122	-0.110487
C57	C	0.785190	0.396209	-0.009409
C58	C	0.690306	0.530397	-0.064725
C59	C	0.698126	0.524479	0.036391
C60	C	0.650620	0.498755	0.008772
C61	C	0.959020	0.947267	-0.048146
C62	C	1.034121	0.941820	-0.051919
C63	C	0.722074	0.975240	-0.239374
C64	C	0.716758	0.979287	-0.308048
C65	C	0.737731	1.268293	-0.037017
C66	C	0.737727	1.371800	-0.037013
C67	C	0.797619	0.917698	-0.384166
C68	C	0.792618	0.921515	-0.448690
C69	C	0.706755	0.986915	-0.437093
C70	C	0.625887	1.048512	-0.360966
C71	C	0.630889	1.044700	-0.296444
C72	C	0.682856	1.005129	-0.625361
C73	C	0.677860	1.008934	-0.689891
C74	C	0.844592	0.881938	-0.777610
C75	C	0.849587	0.878127	-0.713083
C76	C	0.768719	0.939728	-0.636962
N77	N	0.701641	0.990816	-0.503046
N78	N	0.773834	0.935833	-0.571011
C79	C	0.753405	0.951392	0.165316
C80	C	0.758722	0.947345	0.233991
C81	C	0.516450	1.284342	-0.025900
C82	C	0.441346	1.393295	-0.022123
C83	C	0.532124	0.967440	0.176434
C84	C	0.462340	0.968840	0.248881
C85	C	0.532115	1.272418	0.176445
C86	C	0.462328	1.377324	0.248896
C87	C	0.943364	0.654214	-0.250502
C88	C	1.013151	0.549307	-0.322953
C89	C	0.959030	0.642290	-0.048157
C90	C	1.034133	0.533336	-0.051934
C91	C	0.943355	0.959191	-0.250491
C92	C	1.013139	0.957791	-0.322938
C93	C	0.403019	1.387236	-0.059870
C94	C	0.332459	1.489600	-0.056337
C95	C	0.300224	1.598022	-0.015052
C96	C	0.338559	1.604077	0.022696
C97	C	0.409121	1.501715	0.019158
C98	C	0.432627	1.026721	0.322424
C99	C	0.367068	1.028031	0.390501
C100	C	0.331219	0.971466	0.385034
C101	C	0.360939	0.913577	0.311484
C102	C	0.426501	0.912261	0.243408
C103	C	0.426495	1.488481	0.243410
C104	C	0.360932	1.587060	0.311479
C105	C	0.331199	1.574481	0.385033
C106	C	0.367039	1.463313	0.390517
C107	C	0.432606	1.364735	0.322449
C108	C	1.048993	0.438150	-0.317468
C109	C	1.114578	0.339569	-0.385537
C110	C	1.144315	0.352148	-0.459092
C111	C	1.108470	0.463317	-0.464575
C112	C	1.042891	0.561895	-0.396507
C113	C	1.072467	0.539395	-0.014194
C114	C	1.143045	0.437030	-0.017746
C115	C	1.175282	0.328609	-0.059034
C116	C	1.136945	0.322553	-0.096779
C117	C	1.066373	0.424916	-0.093231
C118	C	1.048968	1.014368	-0.317446
C119	C	1.114528	1.013076	-0.385511
C120	C	1.144264	0.955198	-0.459068
C121	C	1.108428	0.898620	-0.464558
C122	C	1.042864	0.899920	-0.396493
H123	H	0.065614	1.086950	0.048323
N124	N	1.018614	0.425304	-0.242333
N125	N	0.935455	0.469916	-0.193156
H126	H	0.914005	0.460837	-0.140093
H127	H	0.331740	0.867523	0.307044
H128	H	1.163204	0.234263	-0.130395
H129	H	1.035164	0.419968	-0.123962
H130	H	0.429263	1.298964	-0.093499
H131	H	0.650219	0.588015	-0.088156
H132	H	0.825316	0.338446	0.013950
H133	H	0.450685	0.865131	0.183529
N134	N	0.327286	1.157344	0.096995
N135	N	0.245074	1.235844	0.151198
H136	H	0.229534	1.295600	0.192457
N137	N	0.293321	1.483377	-0.094902
N138	N	0.322109	1.386561	-0.131752
H139	H	0.294470	1.382161	-0.158989
N140	N	0.656170	0.590627	0.114260
N141	N	0.700961	0.607317	0.129552
H142	H	0.671339	0.654029	0.184548
H143	H	0.277834	0.972547	0.440472
H144	H	1.143752	0.249060	-0.381057
H145	H	0.565042	1.094852	-0.234465
H146	H	0.461773	1.274230	0.326927
H147	H	0.898454	0.399002	-0.121634
N148	N	0.228071	1.702568	-0.011372
N149	N	0.193811	1.697130	-0.045027
H150	H	0.142822	1.770963	-0.042400
N151	N	0.819408	0.335966	-0.188381
N152	N	0.901304	0.293404	-0.240840
H153	H	0.930988	0.246681	-0.295855
H154	H	0.342820	1.453087	0.450414
H155	H	0.440319	1.506664	0.049902
H156	H	0.576927	0.527897	0.047513
N157	N	0.414336	0.822519	-0.134233
N158	N	0.462602	0.716943	-0.143535
H159	H	0.478154	0.657179	-0.184799
H160	H	0.867539	0.864434	-0.393618
H161	H	0.312302	1.692368	0.056310
N162	N	1.182187	0.443253	0.020815
N163	N	1.153383	0.540070	0.057682
H164	H	1.181025	0.544470	0.084916
H165	H	0.461809	1.072784	0.326890
H166	H	0.203757	1.149455	0.091527
N167	N	0.875226	0.858603	-0.526438
N168	N	0.951884	0.800212	-0.536782
H169	H	1.010230	0.755779	-0.591694
N170	N	1.211305	0.251434	-0.528611
N171	N	1.243294	0.152195	-0.523693
H172	H	1.290605	0.081061	-0.572789
N173	N	0.456843	1.501369	0.168289
N174	N	0.424833	1.600634	0.163416
H175	H	0.446264	1.609747	0.110363
H176	H	1.046226	0.627667	0.019432
N177	N	0.324340	1.700597	0.305852
N178	N	0.350892	1.711802	0.240171
H179	H	0.325051	1.791985	0.236194
H180	H	0.342878	1.075175	0.450382
H181	H	1.132690	0.473545	-0.524472
H182	H	0.271717	0.777198	-0.165600
H183	H	0.537849	0.830399	-0.128761
N184	N	0.264223	1.675194	0.454551
N185	N	0.232239	1.774432	0.449634
H186	H	0.184936	1.845566	0.498728
H187	H	1.013709	0.652402	-0.400982
N188	N	1.247373	0.224064	-0.062649
N189	N	1.281586	0.229503	-0.028944
H190	H	1.332500	0.155672	-0.031493
H191	H	0.919506	0.824875	-0.722534
H192	H	0.910430	0.831787	-0.839592
H193	H	1.024768	1.061499	-0.257559
H194	H	1.143699	1.059147	-0.381025
N195	N	1.211226	0.953893	-0.528589
N196	N	1.194588	1.047421	-0.538938
H197	H	1.241881	1.046504	-0.588035
H198	H	1.132649	0.851497	-0.524457
N199	N	0.590140	1.075738	-0.678029
N200	N	0.517944	1.130728	-0.610062
H201	H	0.455994	1.177903	-0.601685
N202	N	1.006280	0.842117	-0.402124
N203	N	1.032845	0.790446	-0.467808
H204	H	1.007011	0.749620	-0.471791
H205	H	0.143717	0.786469	-0.159199
N206	N	-0.081454	1.114454	0.067291
N207	N	-0.113965	1.218893	0.075815
H208	H	-0.180388	1.282330	0.119613
H209	H	0.617008	1.055290	-0.563388
N210	N	0.538186	1.115324	-0.349131
N211	N	0.533729	1.118720	-0.406745
H212	H	0.471789	1.165906	-0.398386
