data_functionalizedCrystal
_audit_creation_method	'MofGen! by Chris Wilmer'
_symmetry_space_group_name_H-M	'P1'
_symmetry_Int_Tables_number	1
_symmetry_cell_setting	triclinic
loop_
_symmetry_equiv_pos_as_xyz
  x,y,z
_cell_length_a	16.120297
_cell_length_b	16.120490
_cell_length_c	12.827892
_cell_angle_alpha	87.107930
_cell_angle_beta	92.875882
_cell_angle_gamma	90.129683
loop_
_atom_site_label
_atom_site_type_symbol
_atom_site_fract_x
_atom_site_fract_y
_atom_site_fract_z
Zn1	Zn	-0.534559	1.247506	-0.529523
Zn2	Zn	-0.284559	1.497506	-0.279523
Zn3	Zn	-0.034559	1.747506	-0.029523
Zn4	Zn	0.215441	1.997506	0.220477
Zn5	Zn	-0.395508	1.254475	-0.695884
Zn6	Zn	-0.145508	1.504475	-0.445884
Zn7	Zn	0.104492	1.754475	-0.195884
Zn8	Zn	0.354492	2.004475	0.054116
Zn9	Zn	-0.388479	1.115493	-0.511855
Zn10	Zn	-0.138479	1.365493	-0.261855
Zn11	Zn	0.111521	1.615493	-0.011855
Zn12	Zn	0.361521	1.865493	0.238145
Zn13	Zn	-0.527481	1.108430	-0.694911
Zn14	Zn	-0.277481	1.358430	-0.444911
Zn15	Zn	-0.027481	1.608430	-0.194911
Zn16	Zn	0.222519	1.858430	0.055089
O17	O	-0.461507	1.181476	-0.608043
O18	O	-0.211507	1.431476	-0.358043
O19	O	0.038493	1.681476	-0.108043
O20	O	0.288493	1.931476	0.141957
O21	O	-0.522017	1.364798	-0.559392
O22	O	-0.272017	1.614798	-0.309392
O23	O	-0.022017	1.864798	-0.059392
O24	O	0.227983	2.114798	0.190608
O25	O	-0.278210	1.241911	-0.664485
O26	O	-0.028210	1.491911	-0.414485
O27	O	0.221790	1.741911	-0.164485
O28	O	0.471790	1.991911	0.085515
O29	O	-0.407877	1.133044	-0.367966
O30	O	-0.157877	1.383044	-0.117966
O31	O	0.092123	1.633044	0.132034
O32	O	0.342123	1.883044	0.382034
O33	O	-0.419857	1.369918	-0.681616
O34	O	-0.169857	1.619918	-0.431616
O35	O	0.080143	1.869918	-0.181616
O36	O	0.330143	2.119918	0.068384
O37	O	-0.515201	1.230033	-0.380947
O38	O	-0.265201	1.480033	-0.130947
O39	O	-0.015201	1.730033	0.119053
O40	O	0.234799	1.980033	0.369053
O41	O	-0.273046	1.139802	-0.529280
O42	O	-0.023046	1.389802	-0.279280
O43	O	0.226954	1.639802	-0.029280
O44	O	0.476954	1.889802	0.220720
O45	O	-0.401014	0.998189	-0.528337
O46	O	-0.151014	1.248189	-0.278337
O47	O	0.098986	1.498189	-0.028337
O48	O	0.348986	1.748189	0.221663
O49	O	-0.644786	1.121006	-0.679959
O50	O	-0.394786	1.371006	-0.429959
O51	O	-0.144786	1.621006	-0.179959
O52	O	0.105214	1.871006	0.070041
O53	O	-0.503139	0.992999	-0.662827
O54	O	-0.253139	1.242999	-0.412827
O55	O	-0.003139	1.492999	-0.162827
O56	O	0.246861	1.742999	0.087173
O57	O	-0.649986	1.223184	-0.558449
O58	O	-0.399986	1.473184	-0.308449
O59	O	-0.149986	1.723184	-0.058449
O60	O	0.100014	1.973184	0.191551
O61	O	-0.412995	1.235062	-0.841987
O62	O	-0.162995	1.485062	-0.591987
O63	O	0.087005	1.735062	-0.341987
O64	O	0.337005	1.985062	-0.091987
O65	O	-0.509955	1.127764	-0.841273
O66	O	-0.259955	1.377764	-0.591273
O67	O	-0.009955	1.627764	-0.341273
O68	O	0.240045	1.877764	-0.091273
C69	C	-0.450546	0.965421	-0.593560
C70	C	-0.200546	1.215421	-0.343560
C71	C	0.049454	1.465421	-0.093560
C72	C	0.299454	1.715421	0.156440
C73	C	-0.445877	0.872991	-0.587391
C74	C	-0.195877	1.122991	-0.337391
C75	C	0.054123	1.372991	-0.087391
C76	C	0.304123	1.622991	0.162609
C77	C	-0.485729	0.660035	-0.640038
C78	C	-0.235729	0.910035	-0.390038
C79	C	0.014271	1.160035	-0.140038
C80	C	0.264271	1.410035	0.109962
C81	C	-0.437351	0.703765	-0.576136
C82	C	-0.187351	0.953765	-0.326136
C83	C	0.062649	1.203765	-0.076136
C84	C	0.312649	1.453765	0.173864
C85	C	-0.442096	0.797931	-0.582400
C86	C	-0.192096	1.047931	-0.332400
C87	C	0.057904	1.297931	-0.082400
C88	C	0.307904	1.547931	0.167600
C89	C	-0.480984	0.565860	-0.633775
C90	C	-0.230984	0.815860	-0.383775
C91	C	0.019016	1.065860	-0.133775
C92	C	0.269016	1.315860	0.116225
C93	C	-0.678402	1.170530	-0.621067
C94	C	-0.428402	1.420530	-0.371067
C95	C	-0.178402	1.670530	-0.121067
C96	C	0.071598	1.920530	0.128933
C97	C	-0.770830	1.165866	-0.626616
C98	C	-0.520830	1.415866	-0.376616
C99	C	-0.270830	1.665866	-0.126616
C100	C	-0.020830	1.915866	0.123384
C101	C	-0.940055	1.157319	-0.636724
C102	C	-0.690055	1.407319	-0.386724
C103	C	-0.440055	1.657319	-0.136724
C104	C	-0.190055	1.907319	0.113276
C105	C	-0.983819	1.205797	-0.579060
C106	C	-0.733819	1.455797	-0.329060
C107	C	-0.483819	1.705797	-0.079060
C108	C	-0.233819	1.955797	0.170940
C109	C	-1.077982	1.201041	-0.584684
C110	C	-0.827982	1.451041	-0.334684
C111	C	-0.577982	1.701041	-0.084684
C112	C	-0.327982	1.951041	0.165316
C113	C	-0.845884	1.162073	-0.631101
C114	C	-0.595884	1.412073	-0.381101
C115	C	-0.345884	1.662073	-0.131101
C116	C	-0.095884	1.912073	0.118899
C117	C	-0.245458	1.192427	-0.594998
C118	C	0.004542	1.442427	-0.344998
C119	C	0.254542	1.692427	-0.094998
C120	C	0.504542	1.942427	0.155002
C121	C	-0.153039	1.197252	-0.589165
C122	C	0.096961	1.447252	-0.339165
C123	C	0.346961	1.697252	-0.089165
C124	C	0.596961	1.947252	0.160835
C125	C	-0.461489	1.181425	-0.879549
C126	C	-0.211489	1.431425	-0.629549
C127	C	0.038511	1.681425	-0.379549
C128	C	0.288511	1.931425	-0.129549
C129	C	-0.461513	1.181477	-0.995707
C130	C	-0.211513	1.431477	-0.745707
C131	C	0.038487	1.681477	-0.495707
C132	C	0.288487	1.931477	-0.245707
C133	C	-0.472511	1.398374	-0.622584
C134	C	-0.222511	1.648374	-0.372584
C135	C	0.027489	1.898374	-0.122584
C136	C	0.277489	2.148374	0.127416
C137	C	-0.477200	1.490804	-0.628780
C138	C	-0.227200	1.740804	-0.378780
C139	C	0.022800	1.990804	-0.128780
C140	C	0.272800	2.240804	0.121220
C141	C	-0.514664	1.229446	-1.053832
C142	C	-0.264664	1.479446	-0.803832
C143	C	-0.014664	1.729446	-0.553832
C144	C	0.235336	1.979446	-0.303832
C145	C	-0.514690	1.229501	-1.173888
C146	C	-0.264690	1.479501	-0.923888
C147	C	-0.014690	1.729501	-0.673888
C148	C	0.235310	1.979501	-0.423888
C149	C	-0.461544	1.181549	-0.335480
C150	C	-0.211544	1.431549	-0.085480
C151	C	0.038456	1.681549	0.164520
C152	C	0.288456	1.931549	0.414520
C153	C	-0.461560	1.181580	-0.219330
C154	C	-0.211560	1.431580	0.030670
C155	C	0.038440	1.681580	0.280670
C156	C	0.288440	1.931580	0.530670
H157	H	-0.392369	0.670482	-0.516724
H158	H	-0.142369	0.920482	-0.266724
H159	H	0.107631	1.170482	-0.016724
H160	H	0.357631	1.420482	0.233276
H161	H	-0.530706	0.693315	-0.699446
H162	H	-0.280706	0.943315	-0.449446
H163	H	-0.030706	1.193315	-0.199446
H164	H	0.219294	1.443315	0.050554
H165	H	-0.950568	1.250870	-0.525469
H166	H	-0.700568	1.500870	-0.275469
H167	H	-0.450568	1.750870	-0.025469
H168	H	-0.200568	2.000870	0.224531
H169	H	-0.973304	1.112249	-0.690311
H170	H	-0.723304	1.362249	-0.440311
H171	H	-0.473304	1.612249	-0.190311
H172	H	-0.223304	1.862249	0.059689
Cl173	Cl	-0.584903	1.292781	-0.993448
Cl174	Cl	-0.334903	1.542781	-0.743448
Cl175	Cl	-0.084903	1.792781	-0.493448
Cl176	Cl	0.165097	2.042781	-0.243448
H177	H	-0.560193	1.270572	-1.223850
H178	H	-0.310193	1.520572	-0.973850
H179	H	-0.060193	1.770572	-0.723850
H180	H	0.189807	2.020572	-0.473850
H181	H	-0.416031	1.140447	-1.034824
H182	H	-0.166031	1.390447	-0.784824
H183	H	0.083969	1.640447	-0.534824
H184	H	0.333969	1.890447	-0.284824
H185	H	-0.416049	1.140514	-1.169375
H186	H	-0.166049	1.390514	-0.919375
H187	H	0.083951	1.640514	-0.669375
H188	H	0.333951	1.890514	-0.419375
