data_functionalizedCrystal
_audit_creation_method	'MofGen! by Chris Wilmer'
_symmetry_space_group_name_H-M	'P1'
_symmetry_Int_Tables_number	1
_symmetry_cell_setting	triclinic
loop_
_symmetry_equiv_pos_as_xyz
  x,y,z
_cell_length_a	14.909028
_cell_length_b	17.077404
_cell_length_c	17.077396
_cell_angle_alpha	89.983895
_cell_angle_beta	86.676902
_cell_angle_gamma	86.717371
loop_
_atom_site_label
_atom_site_type_symbol
_atom_site_fract_x
_atom_site_fract_y
_atom_site_fract_z
Zn1	Zn	-0.359195	1.218102	-0.425806
Zn2	Zn	-0.510066	1.225602	-0.286975
Zn3	Zn	-0.359223	1.086841	-0.294555
Zn4	Zn	-0.510004	1.094387	-0.418204
O5	O	-0.434622	1.156233	-0.356385
O6	O	-0.379222	1.328945	-0.407399
O7	O	-0.490094	1.207176	-0.178131
O8	O	-0.232976	1.097956	-0.318320
O9	O	-0.490067	1.334455	-0.305400
O10	O	-0.232956	1.194393	-0.414750
O11	O	-0.379270	1.105228	-0.183701
O12	O	-0.379210	0.977994	-0.310949
O13	O	-0.489961	1.110817	-0.529061
O14	O	-0.489989	0.983538	-0.401793
O15	O	-0.379162	1.201710	-0.534647
O16	O	-0.636300	1.214493	-0.298028
O17	O	-0.636255	1.118090	-0.394442
C18	C	-0.434596	0.952284	-0.356369
C19	C	-0.434607	0.865035	-0.356379
C20	C	-0.376993	0.821181	-0.409562
C21	C	-0.376999	0.739201	-0.409565
C22	C	-0.434624	0.701076	-0.356389
C23	C	-0.492240	0.744935	-0.303201
C24	C	-0.492229	0.826914	-0.303195
C25	C	-0.492261	0.574066	-0.303219
C26	C	-0.492273	0.492082	-0.303227
C27	C	-0.377030	0.486354	-0.409590
C28	C	-0.377019	0.568332	-0.409583
C29	C	-0.434637	0.612186	-0.356396
C30	C	-0.669011	1.167945	-0.344604
C31	C	-0.769284	1.173028	-0.339591
C32	C	-0.910607	1.230416	-0.282374
C33	C	-0.816392	1.225644	-0.287082
C34	C	-0.816397	1.125177	-0.387394
C35	C	-0.910613	1.129949	-0.382687
C36	C	-0.957714	1.182570	-0.330176
C37	C	-1.051931	1.187345	-0.325472
C38	C	-1.051935	1.086875	-0.425781
C39	C	-0.957720	1.082103	-0.430488
C40	C	-0.199317	1.144496	-0.368229
C41	C	-0.099045	1.139495	-0.373276
C42	C	-0.434552	1.156269	-0.561133
C43	C	-0.434522	1.156284	-0.648384
C44	C	-0.434648	1.360979	-0.356402
C45	C	-0.434659	1.448229	-0.356409
C46	C	-0.376809	1.103215	-0.692274
C47	C	-0.376789	1.103227	-0.774256
C48	C	-0.434477	1.156312	-0.812346
C49	C	-0.492197	1.209384	-0.768450
C50	C	-0.492221	1.209368	-0.686470
C51	C	-0.492140	1.209415	-0.939323
C52	C	-0.492115	1.209432	-1.021309
C53	C	-0.376708	1.103274	-1.027109
C54	C	-0.376732	1.103258	-0.945129
C55	C	-0.434451	1.156331	-0.901238
C56	C	-0.434626	1.156239	-0.152437
C57	C	-0.434402	1.156363	-0.065199
H58	H	-0.539144	0.862618	-0.259887
H59	H	-0.948958	1.273269	-0.239624
C60	C	-0.613600	1.226301	-0.588169
C61	C	-0.555661	1.267702	-0.638221
H62	H	-0.652771	1.262315	-0.558387
H63	H	-0.579245	1.194691	-0.553757
H64	H	-0.648088	1.193830	-0.618421
H65	H	-0.521168	1.300169	-0.607969
H66	H	-0.590020	1.299326	-0.672637
C67	C	-0.262657	0.998324	-0.959092
C68	C	-0.313320	1.044907	-0.903258
H69	H	-0.223514	0.962297	-0.933240
H70	H	-0.228144	1.030808	-0.992805
H71	H	-0.301956	0.970264	-0.989087
H72	H	-0.274021	1.072971	-0.873266
H73	H	-0.347836	1.012418	-0.869531
H74	H	-0.778040	1.264603	-0.248156
C75	C	-0.813296	1.030182	-0.482249
C76	C	-0.905940	1.024267	-0.488210
H77	H	-0.781333	0.994480	-0.517890
H78	H	-0.797915	1.017942	-0.430273
H79	H	-0.797809	1.082136	-0.494556
H80	H	-0.921429	0.972315	-0.475897
H81	H	-0.921328	1.036503	-0.540198
C82	C	-1.196360	1.049580	-0.463115
C83	C	-1.103717	1.034280	-0.478331
H84	H	-1.228327	1.017110	-0.495556
H85	H	-1.211735	1.103088	-0.473881
H86	H	-1.211850	1.038904	-0.409588
H87	H	-1.088227	1.044961	-0.531857
H88	H	-1.088336	0.980759	-0.467570
C89	C	-0.364639	0.646431	-0.515802
C90	C	-0.313673	0.690998	-0.468030
H91	H	-0.325540	0.616671	-0.551894
H92	H	-0.403981	0.680393	-0.543784
H93	H	-0.398950	0.611993	-0.484123
H94	H	-0.279367	0.725440	-0.499709
H95	H	-0.274315	0.657033	-0.440046
C96	C	-0.613613	0.405957	-0.286049
C97	C	-0.555607	0.450170	-0.244771
H98	H	-0.652714	0.380085	-0.249959
H99	H	-0.579302	0.368115	-0.317724
H100	H	-0.648173	0.439690	-0.318450
H101	H	-0.521042	0.416435	-0.212375
H102	H	-0.589921	0.488016	-0.213083
C103	C	-0.613525	1.226356	-0.841019
C104	C	-0.555585	1.267752	-0.891075
H105	H	-0.652692	1.262372	-0.811237
H106	H	-0.579171	1.194744	-0.806609
H107	H	-0.648018	1.193887	-0.871269
H108	H	-0.521087	1.300217	-0.860824
H109	H	-0.589943	1.299378	-0.925490
C110	C	-0.333283	0.458976	-0.544777
C111	C	-0.313691	0.438154	-0.468054
H112	H	-0.294187	0.429213	-0.580869
H113	H	-0.325031	0.513249	-0.552378
H114	H	-0.393917	0.448573	-0.553119
H115	H	-0.253059	0.448562	-0.459710
H116	H	-0.321936	0.383868	-0.460450
H117	H	-1.090280	1.230195	-0.282718
C118	C	-0.325450	1.056131	-1.155349
C119	C	-0.313280	1.044919	-1.075349
H120	H	-0.286299	1.020102	-1.185131
H121	H	-0.312239	1.108206	-1.169458
H122	H	-0.386066	1.047675	-1.165714
H123	H	-0.252666	1.053381	-1.064983
H124	H	-0.326486	0.992832	-1.061235
C125	C	-0.606192	0.571499	-0.198093
C126	C	-0.555603	0.622272	-0.244761
H127	H	-0.645302	0.601262	-0.162012
H128	H	-0.566851	0.537549	-0.170098
H129	H	-0.640745	0.541263	-0.230522
H130	H	-0.521045	0.652505	-0.212333
H131	H	-0.594949	0.656237	-0.272758
H132	H	-0.539172	1.252603	-0.799469
C133	C	-0.263079	0.807275	-0.514694
C134	C	-0.313649	0.863084	-0.468016
H135	H	-0.223968	0.833144	-0.550777
H136	H	-0.302432	0.777284	-0.542686
H137	H	-0.228528	0.773557	-0.482272
H138	H	-0.348205	0.896799	-0.500438
H139	H	-0.274291	0.893089	-0.440022
C140	C	-0.262744	0.998276	-0.706250
C141	C	-0.313399	1.044857	-0.650409
H142	H	-0.223603	0.962243	-0.680404
H143	H	-0.228229	1.030761	-0.739962
H144	H	-0.302049	0.970223	-0.736246
H145	H	-0.274094	1.072915	-0.620417
H146	H	-0.347916	1.012368	-0.616684
H147	H	-0.539155	0.713887	-0.259901
H148	H	-0.778035	1.082329	-0.430142
H149	H	-0.329797	1.060010	-0.809988
C150	C	-0.536098	1.344545	-1.044361
C151	C	-0.555533	1.267774	-1.063185
H152	H	-0.575255	1.380559	-1.070212
H153	H	-0.475490	1.353015	-1.060848
H154	H	-0.544384	1.352127	-0.989255
H155	H	-0.547240	1.260190	-1.118291
H156	H	-0.616156	1.259301	-1.046702
H157	H	-0.330101	0.599371	-0.452888
