data_functionalizedCrystal
_audit_creation_method	'MofGen! by Chris Wilmer'
_symmetry_space_group_name_H-M	'P1'
_symmetry_Int_Tables_number	1
_symmetry_cell_setting	triclinic
loop_
_symmetry_equiv_pos_as_xyz
  x,y,z
_cell_length_a	14.044220
_cell_length_b	14.044220
_cell_length_c	13.930277
_cell_angle_alpha	90.002434
_cell_angle_beta	89.996044
_cell_angle_gamma	93.188878
loop_
_atom_site_label
_atom_site_type_symbol
_atom_site_fract_x
_atom_site_fract_y
_atom_site_fract_z
O1	O	-0.230154	-1.277171	-0.079733
O2	O	0.269846	-0.777171	0.420267
O3	O	-0.221849	-1.000500	-0.079757
O4	O	0.278151	-0.500500	0.420243
O5	O	-0.087666	-1.134683	-0.079736
O6	O	0.412334	-0.634683	0.420264
O7	O	-0.364337	-1.142988	-0.079754
O8	O	0.135663	-0.642988	0.420246
O9	O	-0.087686	-1.134663	0.079926
O10	O	0.412314	-0.634663	0.579926
O11	O	-0.221869	-1.000480	0.079905
O12	O	0.278131	-0.500480	0.579905
O13	O	-0.230175	-1.277152	0.079929
O14	O	0.269825	-0.777152	0.579929
Zn15	Zn	-0.226025	-1.138813	0.105267
Zn16	Zn	0.273975	-0.638813	0.605267
Zn17	Zn	-0.225998	-1.138839	-0.105094
Zn18	Zn	0.274002	-0.638839	0.394906
O19	O	-0.364358	-1.142969	0.079908
O20	O	0.135642	-0.642969	0.579908
C21	C	-0.052054	-1.131037	0.000095
C22	C	0.447946	-0.631037	0.500095
C23	C	0.054088	-1.120193	0.000096
C24	C	0.554088	-0.620193	0.500096
C25	C	-0.218223	-0.964868	0.000071
C26	C	0.281777	-0.464868	0.500071
C27	C	-0.207379	-0.858725	0.000062
C28	C	0.292621	-0.358725	0.500062
C29	C	-0.399969	-1.146614	0.000075
C30	C	0.100031	-0.646614	0.500075
C31	C	-0.506112	-1.157459	0.000068
C32	C	-0.006112	-0.657459	0.500068
C33	C	0.248426	-1.100366	0.000080
C34	C	0.748426	-0.600366	0.500080
C35	C	0.299556	-1.177281	0.000084
C36	C	0.799556	-0.677281	0.500084
C37	C	0.407692	-1.166249	0.000075
C38	C	0.907692	-0.666249	0.500075
C39	C	0.140280	-1.111397	0.000089
C40	C	0.640280	-0.611397	0.500089
C41	C	-0.233800	-1.312783	0.000099
C42	C	0.266200	-0.812783	0.500099
C43	C	-0.244645	-1.418926	0.000102
C44	C	0.255355	-0.918926	0.500102
N45	N	-0.226044	-1.138802	0.248833
N46	N	0.273956	-0.638802	0.748833
C47	C	-0.187553	-0.664388	0.000083
C48	C	0.312447	-0.164388	0.500083
C49	C	-0.264467	-0.613258	0.000082
C50	C	0.235533	-0.113258	0.500082
C51	C	-0.253435	-0.505122	0.000093
C52	C	0.246565	-0.005122	0.500093
C53	C	-0.198583	-0.772534	0.000071
C54	C	0.301417	-0.272534	0.500071
N55	N	-0.225973	-1.138856	-0.248660
N56	N	0.274027	-0.638856	0.251340
C57	C	-0.288815	-1.201648	0.701094
C58	C	0.211185	-0.701648	1.201094
C59	C	-0.163145	-1.076055	0.701080
C60	C	0.336855	-0.576055	1.201080
C61	C	-0.163159	-1.076042	0.600585
C62	C	0.336841	-0.576042	1.100585
C63	C	-0.226001	-1.138834	0.550339
C64	C	0.273999	-0.638834	1.050339
C65	C	-0.288829	-1.201639	0.600588
C66	C	0.211171	-0.701639	1.100588
C67	C	-0.100326	-1.013245	0.550328
C68	C	0.399674	-0.513245	1.050328
C69	C	-0.100337	-1.013230	0.449826
C70	C	0.399663	-0.513230	0.949826
C71	C	-0.163185	-1.076018	0.399578
C72	C	0.336815	-0.576018	0.899578
C73	C	-0.226016	-1.138825	0.449834
C74	C	0.273984	-0.638825	0.949834
C75	C	-0.288858	-1.201616	0.399588
C76	C	0.211142	-0.701616	0.899588
C77	C	-0.351694	-1.264419	0.449842
C78	C	0.148306	-0.764419	0.949842
C79	C	-0.351677	-1.264427	0.550341
C80	C	0.148323	-0.764427	1.050341
C81	C	-0.163202	-1.076010	0.299079
C82	C	0.336798	-0.576010	0.799079
C83	C	-0.288872	-1.201607	0.299083
C84	C	0.211128	-0.701607	0.799083
H85	H	0.262117	-1.251414	0.000026
H86	H	0.762117	-0.751414	0.500026
C87	C	-0.037811	-0.640315	-0.081995
C88	C	0.462189	-0.140315	0.418005
C89	C	-0.087478	-0.613855	0.000084
C90	C	0.412522	-0.113855	0.500084
H91	H	0.023971	-0.609114	-0.081993
H92	H	0.523971	-0.109114	0.418007
H93	H	-0.071513	-0.622369	-0.137659
H94	H	0.428487	-0.122369	0.362341
H95	H	-0.032195	-0.707410	-0.081988
H96	H	0.467805	-0.207410	0.418012
H97	H	-0.093101	-0.546761	0.000074
H98	H	0.406899	-0.046761	0.500074
H99	H	-0.053768	-0.631796	0.055762
H100	H	0.446232	-0.131796	0.555762
H101	H	-0.338600	-0.650697	0.000072
H102	H	0.161400	-0.150697	0.500072
H103	H	0.285863	-1.026239	0.000071
H104	H	0.785863	-0.526239	0.500071
H105	H	-0.340050	-1.252736	0.258179
H106	H	0.159950	-0.752736	0.758179
H107	H	-0.049156	-0.962131	0.591245
H108	H	0.450844	-0.462131	1.091245
H109	H	-0.402856	-1.315548	0.408918
H110	H	0.097144	-0.815548	0.908918
H111	H	-0.339977	-1.252778	0.742015
H112	H	0.160023	-0.752778	1.242015
C113	C	-0.407442	-1.320214	0.704403
C114	C	0.092558	-0.820214	1.204403
C115	C	-0.420734	-1.333462	0.605582
C116	C	0.079266	-0.833462	1.105582
H117	H	-0.450070	-1.362839	0.738506
H118	H	0.049930	-0.862839	1.238506
H119	H	-0.419621	-1.256401	0.720881
H120	H	0.080379	-0.756401	1.220881
H121	H	-0.343622	-1.332434	0.720841
H122	H	0.156378	-0.832434	1.220841
H123	H	-0.484553	-1.321235	0.589142
H124	H	0.015447	-0.821235	1.089142
H125	H	-0.408563	-1.397290	0.589097
H126	H	0.091437	-0.897290	1.089097
C127	C	0.023880	-0.889078	0.459919
C128	C	0.523880	-0.389078	0.959919
C129	C	-0.031278	-0.944190	0.394591
C130	C	0.468722	-0.444190	0.894591
H131	H	0.066507	-0.846451	0.425816
H132	H	0.566507	-0.346451	0.925816
H133	H	0.059269	-0.929713	0.499096
H134	H	0.559269	-0.429713	0.999096
H135	H	-0.016731	-0.853682	0.499138
H136	H	0.483269	-0.353682	0.999138
H137	H	0.009333	-0.979593	0.355376
H138	H	0.509333	-0.479593	0.855376
H139	H	-0.066670	-0.903551	0.355398
H140	H	0.433330	-0.403551	0.855398
C141	C	-0.034301	-1.059199	0.186037
C142	C	0.465699	-0.559199	0.686037
C143	C	-0.094135	-1.006987	0.243842
C144	C	0.405865	-0.506987	0.743842
H145	H	0.008344	-1.016582	0.151943
H146	H	0.508344	-0.516582	0.651943
H147	H	-0.071732	-1.096578	0.141733
H148	H	0.428268	-0.596578	0.641733
H149	H	0.001078	-1.099835	0.225239
H150	H	0.501078	-0.599835	0.725239
H151	H	-0.129519	-0.966356	0.204640
H152	H	0.370481	-0.466356	0.704640
H153	H	-0.056699	-0.969592	0.288152
H154	H	0.443301	-0.469592	0.788152
H155	H	-0.111976	-1.024939	0.741997
H156	H	0.388024	-0.524939	1.241997
