data_functionalizedCrystal
_audit_creation_method	'MofGen! by Chris Wilmer'
_symmetry_space_group_name_H-M	'P1'
_symmetry_Int_Tables_number	1
_symmetry_cell_setting	triclinic
loop_
_symmetry_equiv_pos_as_xyz
  x,y,z
_cell_length_a	16.109295
_cell_length_b	15.186229
_cell_length_c	16.109301
_cell_angle_alpha	90.007249
_cell_angle_beta	96.539666
_cell_angle_gamma	90.002418
loop_
_atom_site_label
_atom_site_type_symbol
_atom_site_fract_x
_atom_site_fract_y
_atom_site_fract_z
O1	O	-1.103130	0.073171	0.106847
O2	O	-0.861067	0.073187	0.120151
O3	O	-0.988748	0.073170	-0.007532
O4	O	-0.975449	0.073188	0.234530
O5	O	-0.988747	-0.073288	-0.007540
O6	O	-0.861066	-0.073271	0.120143
O7	O	-1.103129	-0.073286	0.106839
Zn8	Zn	-0.982097	-0.096531	0.113490
Zn9	Zn	-0.982099	0.096432	0.113500
O10	O	-0.975448	-0.073269	0.234522
C11	C	-0.830092	-0.000040	0.119609
C12	C	-0.737796	-0.000035	0.117996
C13	C	-0.515523	-0.000038	0.190008
C14	C	-0.428803	-0.000044	0.188486
C15	C	-0.448677	-0.000052	0.036996
C16	C	-0.535396	-0.000053	0.038520
C17	C	-0.568816	-0.000041	0.115028
C18	C	-0.395377	-0.000046	0.111982
C19	C	-0.301351	-0.000052	0.110331
C20	C	-0.662849	-0.000037	0.116679
C21	C	-0.988209	-0.000059	-0.038511
C22	C	-0.986594	-0.000061	-0.130806
C23	C	-0.134104	-0.000056	0.107386
C24	C	-0.226397	-0.000053	0.109014
N25	N	-0.982100	0.228125	0.113501
N26	N	-0.982103	-0.228224	0.113483
C27	C	-1.038746	0.453840	0.057072
C28	C	-1.038749	0.546030	0.057070
C29	C	-0.925454	0.546054	0.169918
C30	C	-0.925456	0.453866	0.169923
C31	C	-0.982101	0.407762	0.113496
C32	C	-0.982101	0.592139	0.113488
C33	C	-0.982104	0.692095	0.113486
C34	C	-0.982100	0.307799	0.113498
C35	C	-1.058602	-0.000051	-0.353080
C36	C	-1.057078	-0.000044	-0.439800
C37	C	-0.905588	-0.000038	-0.419923
C38	C	-0.907113	-0.000039	-0.333204
C39	C	-0.983622	-0.000050	-0.299785
C40	C	-0.980573	-0.000042	-0.473225
C41	C	-0.978920	-0.000034	-0.567251
C42	C	-0.985276	-0.000056	-0.205754
C43	C	-0.975987	-0.000038	0.265501
C44	C	-0.977602	-0.000031	0.357796
H45	H	-0.421455	-0.000066	-0.025294
H46	H	-1.118133	-0.000043	-0.483190
O47	O	-0.870457	0.590978	0.224642
C48	C	-0.882612	0.682227	0.212552
H49	H	-0.913828	0.694804	0.146505
H50	H	-0.924190	0.708400	0.259714
C51	C	-0.759214	0.714112	0.305973
C52	C	-0.797549	0.729559	0.224851
H53	H	-0.706745	0.743310	0.313564
H54	H	-0.751027	0.652636	0.314122
H55	H	-0.793872	0.735923	0.345266
H56	H	-0.762896	0.707738	0.185561
H57	H	-0.805728	0.791033	0.216697
O58	O	-0.376999	-0.000191	0.261299
C59	C	-0.326232	-0.076031	0.264941
H60	H	-0.358006	-0.129053	0.222417
H61	H	-0.263178	-0.058886	0.243438
C62	C	-0.274004	-0.045291	0.407637
C63	C	-0.313033	-0.110416	0.355414
H64	H	-0.265859	-0.066500	0.463446
H65	H	-0.308204	0.005806	0.405183
H66	H	-0.221463	-0.031009	0.389708
H67	H	-0.365577	-0.124689	0.373337
H68	H	-0.278842	-0.161516	0.357874
H69	H	-0.846052	-0.000035	-0.289809
H70	H	-0.879328	0.416346	0.215874
O71	O	-1.132847	-0.000092	-0.320478
C72	C	-1.118119	-0.000071	-0.232509
H73	H	-1.053235	-0.027800	-0.212126
H74	H	-1.122137	0.070192	-0.208362
C75	C	-1.263943	-0.023446	-0.221605
C76	C	-1.184254	-0.057511	-0.196570
H77	H	-1.304739	-0.058874	-0.199435
H78	H	-1.273866	-0.023457	-0.280871
H79	H	-1.267279	0.035106	-0.201481
H80	H	-1.180915	-0.116057	-0.216703
H81	H	-1.174331	-0.057511	-0.137306
O82	O	-1.093689	0.590684	0.002087
C83	C	-1.080299	0.568029	-0.080219
H84	H	-1.013729	0.542734	-0.080693
H85	H	-1.126370	0.514450	-0.104505
C86	C	-1.175126	0.680899	-0.136095
C87	C	-1.093360	0.649838	-0.136679
H88	H	-1.183186	0.731360	-0.170924
H89	H	-1.184150	0.696160	-0.080644
H90	H	-1.213509	0.636241	-0.156332
H91	H	-1.054979	0.694491	-0.116433
H92	H	-1.084330	0.634586	-0.192128
H93	H	-0.843297	-0.000030	-0.447144
H94	H	-1.084871	0.416304	0.011126
O95	O	-0.587136	0.000102	-0.034343
C96	C	-0.571978	0.075940	-0.080799
H97	H	-0.542321	0.128960	-0.036897
H98	H	-0.527840	0.058790	-0.128915
C99	C	-0.691527	0.045210	-0.179773
C100	C	-0.655109	0.110332	-0.125851
H101	H	-0.742806	0.066423	-0.207567
H102	H	-0.701739	-0.005886	-0.148477
H103	H	-0.654738	0.030924	-0.219862
H104	H	-0.691894	0.124608	-0.085756
H105	H	-0.644906	0.161431	-0.157141
O106	O	-0.547851	-0.000074	0.264397
C107	C	-0.482212	-0.000052	0.330249
H108	H	-0.423311	-0.027779	0.306953
H109	H	-0.469930	0.070212	0.353384
C110	C	-0.579013	-0.023431	0.431010
C111	C	-0.506671	-0.057493	0.402400
H112	H	-0.594101	-0.058860	0.475519
H113	H	-0.623236	-0.023443	0.386646
H114	H	-0.568768	0.035121	0.450284
H115	H	-0.516920	-0.116040	0.383117
H116	H	-0.462451	-0.057493	0.446764
