data_functionalizedCrystal
_audit_creation_method	'MofGen! by Chris Wilmer'
_symmetry_space_group_name_H-M	'P1'
_symmetry_Int_Tables_number	1
_symmetry_cell_setting	triclinic
loop_
_symmetry_equiv_pos_as_xyz
  x,y,z
_cell_length_a	15.538191
_cell_length_b	10.654551
_cell_length_c	9.130313
_cell_angle_alpha	90.001232
_cell_angle_beta	90.004770
_cell_angle_gamma	65.878761
loop_
_atom_site_label
_atom_site_type_symbol
_atom_site_fract_x
_atom_site_fract_y
_atom_site_fract_z
O1	O	1.247253	-0.406666	0.121829
O2	O	0.973939	-0.262092	0.121824
O3	O	1.116879	-0.520055	0.121823
O4	O	1.104313	-0.148702	0.121830
O5	O	1.116869	-0.520050	-0.121775
O6	O	0.973928	-0.262087	-0.121775
O7	O	1.247242	-0.406661	-0.121770
Cu8	Cu	1.110584	-0.334373	-0.144015
Cu9	Cu	1.110597	-0.334379	0.144069
O10	O	1.104302	-0.148697	-0.121769
C11	C	0.938937	-0.246963	0.000024
C12	C	0.834658	-0.201907	0.000022
C13	C	1.115951	-0.566419	0.000026
C14	C	1.113190	-0.704572	0.000033
C15	C	1.111900	-0.769472	0.132820
C16	C	1.109297	-0.899276	0.132821
C17	C	1.109279	-0.899269	-0.132763
C18	C	1.111875	-0.769464	-0.132763
C19	C	0.543941	-0.649527	0.000037
C20	C	0.445953	-0.607159	0.000039
C21	C	0.425067	-0.368845	0.000042
C22	C	0.523056	-0.411194	0.000034
C23	C	0.582486	-0.551537	0.000033
C24	C	0.561601	-0.313203	0.000029
C25	C	0.659582	-0.355549	0.000028
C26	C	0.719018	-0.495885	0.000031
C27	C	0.680467	-0.593882	0.000031
C28	C	0.502170	-0.172861	0.000040
C29	C	0.540715	-0.074870	0.000036
C30	C	0.638697	-0.117215	0.000024
C31	C	0.698133	-0.257552	0.000027
C32	C	0.677248	-0.019219	0.000024
C33	C	0.775228	-0.061564	0.000023
C34	C	0.796113	-0.299898	0.000026
C35	C	1.282244	-0.421789	0.000034
C36	C	1.386523	-0.466846	0.000045
C37	C	1.105230	-0.102333	0.000031
C38	C	1.107992	0.035819	0.000034
N39	N	1.110582	-0.334373	-0.346637
C40	C	1.168039	-0.284351	-0.423281
C41	C	1.168054	-0.284365	-0.576618
C42	C	1.053148	-0.384423	-0.576654
C43	C	1.053138	-0.384417	-0.423320
N44	N	1.110607	-0.334393	0.346692
H45	H	1.112968	-0.716639	0.240951
H46	H	1.214813	-0.243601	-0.360851
C47	C	1.107915	-0.970684	0.278898
N48	N	1.106886	-1.024476	0.388930
H49	H	1.108210	-0.952122	-0.240881
H50	H	1.006378	-0.425165	-0.639107
C51	C	1.113293	-0.698068	-0.278847
N52	N	1.114359	-0.644291	-0.388873
H53	H	0.844505	-0.414179	0.000017
C54	C	1.231244	-0.229306	-0.660920
N55	N	1.278837	-0.187825	-0.724414
H56	H	0.422388	-0.138388	0.000046
H57	H	0.798799	-0.530361	0.000050
C58	C	0.745846	-0.748267	0.000023
N59	N	0.795088	-0.864545	0.000021
H60	H	1.006349	-0.425158	-0.360914
H61	H	0.592333	-0.763808	0.000028
C62	C	0.403558	-0.714968	0.000044
N63	N	0.371627	-0.796169	0.000051
C64	C	0.359684	-0.214472	0.000036
N65	N	0.310438	-0.098196	0.000024
H66	H	0.492314	0.039397	0.000043
H67	H	0.628846	0.095048	0.000039
H68	H	0.806611	0.018230	0.000006
