data_functionalizedCrystal
_audit_creation_method	'MofGen! by Chris Wilmer'
_symmetry_space_group_name_H-M	'P1'
_symmetry_Int_Tables_number	1
_symmetry_cell_setting	triclinic
loop_
_symmetry_equiv_pos_as_xyz
  x,y,z
_cell_length_a	19.188930
_cell_length_b	19.188940
_cell_length_c	9.730223
_cell_angle_alpha	89.998243
_cell_angle_beta	89.985926
_cell_angle_gamma	83.146747
loop_
_atom_site_label
_atom_site_type_symbol
_atom_site_fract_x
_atom_site_fract_y
_atom_site_fract_z
O1	O	0.926144	0.087164	-0.114733
O2	O	0.722833	0.098898	-0.114639
O3	O	0.830352	-0.008624	-0.114678
O4	O	0.818625	0.194686	-0.114694
O5	O	0.830351	-0.008621	0.113902
O6	O	0.722832	0.098901	0.113941
O7	O	0.926143	0.087167	0.113847
Zn8	Zn	0.824487	0.093034	0.150186
Zn9	Zn	0.824489	0.093031	-0.150978
O10	O	0.818624	0.194689	0.113886
C11	C	0.696821	0.098520	-0.000337
C12	C	0.619317	0.097379	-0.000301
C13	C	0.829970	-0.034633	-0.000388
C14	C	0.828827	-0.112138	-0.000388
C15	C	0.820692	-0.665395	0.124182
C16	C	0.821759	-0.592571	0.124189
C17	C	0.822296	-0.556153	-0.000409
C18	C	0.821748	-0.592563	-0.125023
C19	C	0.820675	-0.665385	-0.125026
N20	N	0.863713	-0.447130	-0.093168
N21	N	0.864734	-0.377952	-0.093156
C22	C	0.825530	-0.336744	-0.000405
N23	N	0.785274	-0.367327	0.092354
N24	N	0.784255	-0.436512	0.092346
C25	C	0.823460	-0.477189	-0.000419
C26	C	0.827229	-0.221377	0.124209
C27	C	0.828291	-0.148551	0.124210
C28	C	0.828288	-0.148545	-0.125005
C29	C	0.827218	-0.221369	-0.125003
C30	C	0.826692	-0.257781	-0.000393
C31	C	0.574395	0.160470	-0.000327
C32	C	0.501571	0.159398	-0.000342
C33	C	0.473672	0.095232	-0.000358
C34	C	0.518604	0.032133	-0.000324
C35	C	0.591426	0.033207	-0.000295
N36	N	0.365691	0.046184	-0.078206
N37	N	0.296512	0.045169	-0.078236
C38	C	0.254264	0.091994	-0.000442
N39	N	0.283806	0.139883	0.077366
N40	N	0.352990	0.140901	0.077390
C41	C	0.394710	0.094061	-0.000389
C42	C	0.130377	0.153927	-0.000483
C43	C	0.057553	0.152853	-0.000489
C44	C	0.074587	0.025586	-0.000485
C45	C	0.147410	0.026662	-0.000465
C46	C	0.175301	0.090835	-0.000470
C47	C	0.952154	0.087546	-0.000458
C48	C	1.029659	0.088686	-0.000503
C49	C	0.819005	0.220699	-0.000407
C50	C	0.820148	0.298203	-0.000416
N51	N	0.824491	0.093036	0.355722
N52	N	0.824490	0.093023	-0.356514
C53	C	0.872112	0.045441	0.427631
C54	C	0.872111	0.045433	0.571514
C55	C	0.776864	0.140621	0.571567
C56	C	0.776863	0.140625	0.427687
C57	C	0.927105	-0.009512	0.427602
C58	C	0.927103	-0.009521	0.571485
H59	H	0.822188	-0.562925	0.225654
H60	H	0.020977	0.204231	-0.000503
O61	O	0.635038	-0.028101	-0.000523
C62	C	0.622436	-0.067083	-0.118892
H63	H	0.597449	-0.030148	-0.201643
H64	H	0.674197	-0.095239	-0.158616
H65	H	0.585471	-0.107383	-0.092137
O66	O	0.907683	-0.069793	0.624919
C67	C	0.962670	-0.103026	0.706371
H68	H	0.997695	-0.062562	0.742010
H69	H	0.939766	-0.128097	0.799706
H70	H	0.995010	-0.145292	0.643264
O71	O	0.157395	0.216303	-0.000653
C72	C	0.134459	0.254747	-0.119057
H73	H	0.084014	0.235878	-0.158543
H74	H	0.124175	0.312921	-0.092428
H75	H	0.176642	0.246530	-0.201942
O76	O	0.822240	-0.557294	-0.246180
C77	C	0.821549	-0.605045	-0.356159
H78	H	0.798683	-0.653998	-0.319621
H79	H	0.787969	-0.579465	-0.443286
H80	H	0.877434	-0.620286	-0.394503
H81	H	0.495884	-0.020111	-0.000356
H82	H	0.464989	0.210775	-0.000360
O83	O	0.047379	-0.036684	-0.000565
C84	C	-0.026529	-0.024105	-0.000557
H85	H	-0.043785	0.030434	-0.043834
H86	H	-0.048752	-0.065150	-0.066931
H87	H	-0.046815	-0.027426	0.109097
O88	O	0.990890	0.004084	0.618214
C89	C	0.982682	0.065629	0.698666
H90	H	0.926681	0.074861	0.739653
H91	H	1.021061	0.059520	0.788485
H92	H	0.993667	0.112272	0.632919
H93	H	0.820231	-0.695023	-0.226492
O94	O	0.826744	-0.256865	0.245125
C95	C	0.825671	-0.328945	0.218406
H96	H	0.847619	-0.341842	0.111305
H97	H	0.859159	-0.361156	0.297960
H98	H	0.769368	-0.342122	0.224348
H99	H	0.828732	-0.118913	0.225677
O100	O	0.820144	-0.700652	0.245347
C101	C	0.820869	-0.652903	0.355323
H102	H	0.799537	-0.598034	0.318806
H103	H	0.786671	-0.669408	0.442489
H104	H	0.876985	-0.652656	0.393604
H105	H	0.183987	-0.024713	-0.000451
O106	O	0.730572	0.186921	0.358047
C107	C	0.688525	0.228909	0.452422
H108	H	0.717148	0.229629	0.554969
H109	H	0.677693	0.284696	0.410858
H110	H	0.636736	0.206356	0.467751
O111	O	0.828667	-0.113106	-0.245981
C112	C	0.768796	-0.062936	-0.253359
H113	H	0.748849	-0.049316	-0.145139
H114	H	0.783092	-0.013548	-0.306189
H115	H	0.726035	-0.085376	-0.314714
H116	H	0.915812	-0.063043	0.388558
O117	O	0.826576	-0.256747	-0.246006
C118	C	0.765511	-0.290796	-0.253428
H119	H	0.723578	-0.263200	-0.182698
H120	H	0.745208	-0.288901	-0.363624
H121	H	0.778367	-0.347817	-0.219965
O122	O	0.601371	0.222866	-0.000256
C123	C	0.546099	0.278322	-0.000316
H124	H	0.496675	0.258901	0.042935
H125	H	0.561166	0.323136	0.066055
H126	H	0.535763	0.297771	-0.109982
H127	H	0.738085	0.179366	0.630176
O128	O	0.987341	0.010169	0.374506
C129	C	0.995481	0.078591	0.419382
H130	H	0.964421	0.090414	0.518247
H131	H	1.053400	0.082628	0.439344
H132	H	0.975205	0.118059	0.336845
