data_functionalizedCrystal
_audit_creation_method	'MofGen! by Chris Wilmer'
_symmetry_space_group_name_H-M	'P1'
_symmetry_Int_Tables_number	1
_symmetry_cell_setting	triclinic
loop_
_symmetry_equiv_pos_as_xyz
  x,y,z
_cell_length_a	10.723023
_cell_length_b	10.723023
_cell_length_c	9.198806
_cell_angle_alpha	89.996513
_cell_angle_beta	90.001269
_cell_angle_gamma	95.532452
loop_
_atom_site_label
_atom_site_type_symbol
_atom_site_fract_x
_atom_site_fract_y
_atom_site_fract_z
O1	O	-0.175020	1.657188	-0.120871
O2	O	-0.191774	1.294035	-0.120876
O3	O	-0.001821	1.483989	-0.120871
O4	O	-0.364973	1.467234	-0.120876
O5	O	-0.001820	1.483974	0.120914
O6	O	-0.191774	1.294020	0.120909
O7	O	-0.175019	1.657173	0.120914
Cu8	Cu	-0.183396	1.475595	0.142988
Cu9	Cu	-0.183397	1.475613	-0.142951
O10	O	-0.364973	1.467219	0.120909
C11	C	-0.190555	1.247528	0.000015
C12	C	-0.186908	1.108974	0.000013
C13	C	-0.185281	1.047194	0.125264
C14	C	-0.181512	0.903991	0.125264
C15	C	-0.411473	1.468446	0.000015
C16	C	-0.550027	1.472093	0.000013
C17	C	-0.611799	1.473711	0.125264
C18	C	-0.755002	1.477481	0.125264
C19	C	0.044679	1.482762	0.000019
C20	C	0.183233	1.479115	0.000012
C21	C	-0.176239	1.703680	0.000019
C22	C	-0.179886	1.842234	0.000012
N23	N	-0.183395	1.475592	0.344102
N24	N	-0.183388	1.475626	-0.344065
C25	C	-0.103288	1.555347	0.416302
C26	C	-0.103283	1.555367	0.583714
H27	H	-0.181292	0.895354	-0.107225
F28	F	-0.013643	1.644626	0.664864
F29	F	-0.619469	1.473921	-0.140152
F30	F	-0.185071	1.039543	-0.140152
H31	H	-0.763652	1.477729	-0.107225
H32	H	-0.180120	0.850861	0.232496
H33	H	-0.251980	1.407345	0.593856
H34	H	-0.808123	1.478879	0.232496
H35	H	-0.558667	1.472300	0.232495
F36	F	-0.273031	1.386351	0.425300
H37	H	-0.186673	1.100320	0.232495
F38	F	-0.013423	1.644358	0.335104
