data_functionalizedCrystal
_audit_creation_method	'MofGen! by Chris Wilmer'
_symmetry_space_group_name_H-M	'P1'
_symmetry_Int_Tables_number	1
_symmetry_cell_setting	triclinic
loop_
_symmetry_equiv_pos_as_xyz
  x,y,z
_cell_length_a	12.759400
_cell_length_b	19.805407
_cell_length_c	19.805399
_cell_angle_alpha	89.983114
_cell_angle_beta	90.019137
_cell_angle_gamma	89.996893
loop_
_atom_site_label
_atom_site_type_symbol
_atom_site_fract_x
_atom_site_fract_y
_atom_site_fract_z
Zn1	Zn	0.418276	1.034827	-0.382766
Zn2	Zn	0.593974	1.034794	-0.269597
Zn3	Zn	0.418309	0.921647	-0.269591
Zn4	Zn	0.593913	0.921652	-0.382744
O5	O	0.506118	0.978230	-0.326174
O6	O	0.441594	1.129539	-0.367766
O7	O	0.570710	1.019769	-0.174880
O8	O	0.271284	0.936673	-0.284610
O9	O	0.570678	1.129515	-0.284621
O10	O	0.271259	1.019826	-0.367759
O11	O	0.441651	0.936640	-0.174875
O12	O	0.441592	0.826931	-0.284589
O13	O	0.570576	0.936680	-0.477464
O14	O	0.570608	0.826934	-0.367722
O15	O	0.441536	1.019830	-0.477480
O16	O	0.740987	1.019773	-0.284600
O17	O	0.740942	0.936648	-0.367728
C18	C	0.506098	0.802374	-0.326153
C19	C	0.506115	0.727142	-0.326159
C20	C	0.573394	0.691817	-0.369377
C21	C	0.573396	0.621129	-0.369386
C22	C	0.506123	0.585766	-0.326174
C23	C	0.438836	0.621096	-0.282955
C24	C	0.438830	0.691783	-0.282949
C25	C	0.438859	0.336023	-0.282977
C26	C	0.438873	0.265331	-0.282985
C27	C	0.573426	0.265368	-0.369414
C28	C	0.573419	0.336055	-0.369409
C29	C	0.506129	0.371379	-0.326192
C30	C	0.506126	0.448027	-0.326183
C31	C	0.506130	0.509119	-0.326179
C32	C	0.232085	0.978253	-0.326186
C33	C	0.115308	0.978263	-0.326192
C34	C	0.060426	0.934989	-0.369472
C35	C	-0.049299	0.935001	-0.369479
C36	C	-0.049248	1.021564	-0.282919
C37	C	0.060474	1.021555	-0.282916
C38	C	-0.199288	0.910843	-0.449304
C39	C	-0.254175	0.867558	-0.492579
C40	C	-0.218577	0.801513	-0.502960
C41	C	-0.128095	0.778739	-0.470057
C42	C	-0.073214	0.822020	-0.426777
C43	C	-0.108810	0.888075	-0.416408
C44	C	0.210466	1.045706	-0.203090
C45	C	0.265349	1.088984	-0.159806
C46	C	0.229754	1.155031	-0.149418
C47	C	0.139268	1.177802	-0.182309
C48	C	0.084385	1.134524	-0.225593
C49	C	0.119988	1.068478	-0.235982
C50	C	0.779085	0.978225	-0.326177
C51	C	0.895862	0.978285	-0.326201
C52	C	0.506045	0.978260	-0.502717
C53	C	0.506014	0.978272	-0.577949
C54	C	0.506139	1.154773	-0.326197
C55	C	0.506148	1.230005	-0.326206
C56	C	0.438806	0.935000	-0.613290
C57	C	0.438786	0.935009	-0.683979
C58	C	0.505969	0.978295	-0.719325
C59	C	0.573184	1.021569	-0.683979
C60	C	0.573209	1.021556	-0.613292
C61	C	0.573086	1.021623	-0.969052
C62	C	0.573053	1.021634	-1.039744
C63	C	0.438663	0.935076	-1.039739
C64	C	0.438688	0.935063	-0.969052
C65	C	0.505906	0.978334	-0.933712
C66	C	0.505929	0.978323	-0.857064
C67	C	0.505941	0.978310	-0.795972
C68	C	0.506115	0.978239	-0.150318
C69	C	0.505850	0.978358	-0.075087
H70	H	0.628180	0.720604	-0.404563
H71	H	0.628213	0.236599	-0.404606
H72	H	0.000455	0.803479	-0.399988
C73	C	0.647429	0.582275	-0.416916
N74	N	0.703201	0.553010	-0.452713
C75	C	0.364728	0.887471	-1.078620
N76	N	0.309040	0.851616	-1.107903
C77	C	0.364855	0.226434	-0.235451
N78	N	0.309107	0.197136	-0.199652
H79	H	0.627891	1.056810	-0.712763
C80	C	-0.088950	0.706081	-0.481474
N81	N	-0.059462	0.651354	-0.490076
C82	C	0.249633	0.973051	-0.214517
N83	N	0.279133	0.918327	-0.223121
H84	H	0.384075	0.364775	-0.247783
H85	H	0.274445	1.190265	-0.114168
H86	H	-0.327846	0.886107	-0.519368
H87	H	0.627766	1.056884	-1.068521
H88	H	0.384038	0.720544	-0.247761
C89	C	0.646970	1.069261	-0.930188
N90	N	0.702602	1.105157	-0.900912
C91	C	-0.238451	0.983498	-0.437892
N92	N	-0.267955	1.038222	-0.429294
H93	H	0.384056	0.592298	-0.247774
C94	C	0.647138	1.069162	-0.574417
N95	N	0.702825	1.105020	-0.545137
H96	H	0.628204	0.364844	-0.404594
H97	H	0.383977	0.899817	-0.940277
H98	H	0.105068	0.899742	-0.404715
H99	H	-0.263275	0.766270	-0.538195
H100	H	-0.093904	1.056811	-0.247683
C101	C	-0.015147	1.159577	-0.261780
N102	N	-0.090111	1.178448	-0.289037
C103	C	0.364888	1.063933	-0.123626
N104	N	0.439863	1.045066	-0.096378
C105	C	0.100110	1.250457	-0.170883
N106	N	0.070619	1.305182	-0.162275
H107	H	0.384092	0.899755	-0.584517
H108	H	0.384063	0.899770	-0.712750
