data_functionalizedCrystal
_audit_creation_method	'MofGen! by Chris Wilmer'
_symmetry_space_group_name_H-M	'P1'
_symmetry_Int_Tables_number	1
_symmetry_cell_setting	triclinic
loop_
_symmetry_equiv_pos_as_xyz
  x,y,z
_cell_length_a	10.654550
_cell_length_b	9.065218
_cell_length_c	7.540329
_cell_angle_alpha	90.003038
_cell_angle_beta	89.996554
_cell_angle_gamma	95.249592
loop_
_atom_site_label
_atom_site_type_symbol
_atom_site_fract_x
_atom_site_fract_y
_atom_site_fract_z
O1	O	0.184158	-1.959392	-0.147487
O2	O	0.199263	-1.530024	-0.147489
O3	O	0.009010	-1.754580	-0.147477
O4	O	0.374410	-1.734836	-0.147499
O5	O	0.009008	-1.754567	0.147488
O6	O	0.199261	-1.530011	0.147476
O7	O	0.184155	-1.959378	0.147478
Cu8	Cu	0.191708	-1.744693	0.174410
Cu9	Cu	0.191711	-1.744709	-0.174421
O10	O	0.374408	-1.734823	0.147466
C11	C	0.197810	-1.475039	-0.000007
C12	C	0.193469	-1.311220	-0.000008
C13	C	-0.037795	-1.753124	0.000005
C14	C	-0.177255	-1.748786	0.000002
C15	C	0.185608	-2.014364	-0.000008
C16	C	0.189949	-2.178183	-0.000019
C17	C	-0.256217	-1.881001	0.000002
C18	C	-0.387254	-1.876917	-0.000019
C19	C	-0.360354	-1.608391	-0.000034
C20	C	-0.229320	-1.612477	-0.000025
C21	C	-0.582481	-2.032639	-0.103368
C22	C	-0.661449	-2.164861	-0.103337
C23	C	-0.630803	-2.284719	0.000031
C24	C	-0.521192	-2.272361	0.103411
C25	C	-0.442232	-2.140137	0.103397
C26	C	-0.472876	-2.020284	-0.000013
C27	C	-0.034091	-1.456764	0.103338
C28	C	0.044872	-1.324539	0.103336
C29	C	0.014230	-1.204668	-0.000021
C30	C	-0.095383	-1.217012	-0.103375
C31	C	-0.174347	-1.349237	-0.103373
C32	C	-0.143695	-1.469109	-0.000019
C33	C	0.421213	-1.736279	-0.000020
C34	C	0.560673	-1.740616	-0.000028
N35	N	0.191705	-1.744693	0.419758
N36	N	0.191703	-1.744721	-0.419769
H37	H	-0.213831	-1.991993	0.000020
H38	H	-0.352992	-2.130073	0.187573
O39	O	-0.280743	-1.361012	-0.203949
C40	C	-0.290879	-1.226848	-0.295150
H41	H	-0.193595	-1.164020	-0.307619
H42	H	-0.355852	-1.156546	-0.218542
C43	C	-0.465084	-1.337296	-0.466100
C44	C	-0.345596	-1.260136	-0.481428
H45	H	-0.498841	-1.357827	-0.581002
H46	H	-0.458259	-1.427684	-0.404652
H47	H	-0.519213	-1.278700	-0.402253
H48	H	-0.291465	-1.318739	-0.545254
H49	H	-0.352413	-1.169758	-0.542891
H50	H	-0.607436	-1.935056	-0.187564
O51	O	-0.767786	-2.176887	-0.204038
C52	C	-0.735226	-2.154745	-0.383936
H53	H	-0.633401	-2.179824	-0.405227
H54	H	-0.745758	-2.034789	-0.421967
C55	C	-0.948042	-2.227922	-0.474161
C56	C	-0.822982	-2.258736	-0.500314
H57	H	-1.002177	-2.292062	-0.545951
H58	H	-0.969980	-2.242834	-0.352961
H59	H	-0.956801	-2.127956	-0.505852
H60	H	-0.814221	-2.358694	-0.468602
H61	H	-0.801044	-2.243842	-0.621513
H62	H	-0.496258	-2.369960	0.187596
H63	H	-0.009113	-1.554383	0.187468
H64	H	-0.402762	-1.497413	-0.000052
O65	O	-0.124941	-1.100455	-0.203747
C66	C	-0.031758	-0.981093	-0.181558
H67	H	0.059736	-1.024913	-0.135507
H68	H	-0.064469	-0.901306	-0.078060
C69	C	-0.121747	-0.845476	-0.415899
C70	C	-0.009370	-0.899298	-0.359352
H71	H	-0.107940	-0.795015	-0.525567
H72	H	-0.184530	-0.925889	-0.430844
H73	H	-0.148995	-0.778994	-0.329635
H74	H	0.017867	-0.965791	-0.445604
H75	H	0.053418	-0.818893	-0.344425
H76	H	0.078524	-1.096996	0.000009
H77	H	-0.695107	-2.392377	0.000053
H78	H	0.134117	-1.314490	0.187515
