data_functionalizedCrystal
_audit_creation_method	'MofGen! by Chris Wilmer'
_symmetry_space_group_name_H-M	'P1'
_symmetry_Int_Tables_number	1
_symmetry_cell_setting	triclinic
loop_
_symmetry_equiv_pos_as_xyz
  x,y,z
_cell_length_a	12.837942
_cell_length_b	16.109301
_cell_length_c	14.586319
_cell_angle_alpha	90.000787
_cell_angle_beta	89.996741
_cell_angle_gamma	90.854789
loop_
_atom_site_label
_atom_site_type_symbol
_atom_site_fract_x
_atom_site_fract_y
_atom_site_fract_z
O1	O	0.133240	-1.113716	-0.076181
O2	O	0.383240	-0.863716	0.173819
O3	O	0.633240	-0.613716	0.423819
O4	O	0.883240	-0.363716	0.673819
O5	O	0.149822	-0.872971	-0.076196
O6	O	0.399822	-0.622971	0.173804
O7	O	0.649822	-0.372971	0.423804
O8	O	0.899822	-0.122971	0.673804
O9	O	-0.009370	-0.988005	-0.076183
O10	O	0.240630	-0.738005	0.173817
O11	O	0.490630	-0.488005	0.423817
O12	O	0.740630	-0.238005	0.673817
O13	O	0.292432	-0.998682	-0.076194
O14	O	0.542432	-0.748682	0.173806
O15	O	0.792432	-0.498682	0.423806
O16	O	1.042432	-0.248682	0.673806
O17	O	-0.009372	-0.987996	0.076298
O18	O	0.240628	-0.737996	0.326298
O19	O	0.490628	-0.487996	0.576298
O20	O	0.740628	-0.237996	0.826298
O21	O	0.149819	-0.872962	0.076285
O22	O	0.399819	-0.622962	0.326285
O23	O	0.649819	-0.372962	0.576285
O24	O	0.899819	-0.122962	0.826285
O25	O	0.133238	-1.113707	0.076299
O26	O	0.383238	-0.863707	0.326299
O27	O	0.633238	-0.613707	0.576299
O28	O	0.883238	-0.363707	0.826299
Cu29	Cu	0.141528	-0.993333	0.090215
Cu30	Cu	0.391528	-0.743333	0.340215
Cu31	Cu	0.641528	-0.493333	0.590215
Cu32	Cu	0.891528	-0.243333	0.840215
Cu33	Cu	0.141531	-0.993344	-0.090111
Cu34	Cu	0.391531	-0.743344	0.159889
Cu35	Cu	0.641531	-0.493344	0.409889
Cu36	Cu	0.891531	-0.243344	0.659889
O37	O	0.292430	-0.998673	0.076287
O38	O	0.542430	-0.748673	0.326287
O39	O	0.792430	-0.498673	0.576287
O40	O	1.042430	-0.248673	0.826287
C41	C	0.149149	-0.841938	0.000043
C42	C	0.399149	-0.591938	0.250043
C43	C	0.649149	-0.341938	0.500043
C44	C	0.899149	-0.091938	0.750043
C45	C	0.147135	-0.749483	0.000037
C46	C	0.397135	-0.499483	0.250037
C47	C	0.647135	-0.249483	0.500037
C48	C	0.897135	0.000517	0.750037
C49	C	-0.047991	-0.984394	0.000056
C50	C	0.202009	-0.734394	0.250056
C51	C	0.452009	-0.484394	0.500056
C52	C	0.702009	-0.234394	0.750056
C53	C	-0.163064	-0.973637	0.000054
C54	C	0.086936	-0.723637	0.250054
C55	C	0.336936	-0.473637	0.500054
C56	C	0.586936	-0.223637	0.750054
C57	C	0.133911	-1.144739	0.000059
C58	C	0.383911	-0.894739	0.250059
C59	C	0.633911	-0.644739	0.500059
C60	C	0.883911	-0.394739	0.750059
C61	C	0.135924	-1.237195	0.000058
C62	C	0.385924	-0.987195	0.250058
C63	C	0.635924	-0.737195	0.500058
C64	C	0.885924	-0.487195	0.750058
C65	C	-0.404066	-1.102954	0.000043
C66	C	-0.154066	-0.852954	0.250043
C67	C	0.095934	-0.602954	0.500043
C68	C	0.345934	-0.352954	0.750043
C69	C	-0.512188	-1.092851	0.000041
C70	C	-0.262188	-0.842851	0.250041
C71	C	-0.012188	-0.592851	0.500041
C72	C	0.237812	-0.342851	0.750041
C73	C	-0.487433	-0.943328	0.000041
C74	C	-0.237433	-0.693328	0.250041
C75	C	0.012567	-0.443328	0.500041
C76	C	0.262567	-0.193328	0.750041
C77	C	-0.379311	-0.953431	0.000043
C78	C	-0.129311	-0.703431	0.250043
C79	C	0.120689	-0.453431	0.500043
C80	C	0.370689	-0.203431	0.750043
C81	C	-0.337632	-1.033247	0.000046
C82	C	-0.087632	-0.783247	0.250046
C83	C	0.162368	-0.533247	0.500046
C84	C	0.412368	-0.283247	0.750046
C85	C	-0.229507	-1.043349	0.000054
C86	C	0.020493	-0.793349	0.250054
C87	C	0.270493	-0.543349	0.500054
C88	C	0.520493	-0.293349	0.750054
C89	C	-0.204754	-0.893827	0.000048
C90	C	0.045246	-0.643827	0.250048
C91	C	0.295246	-0.393827	0.500048
C92	C	0.545246	-0.143827	0.750048
C93	C	-0.312876	-0.883724	0.000046
C94	C	-0.062876	-0.633724	0.250046
C95	C	0.187124	-0.383724	0.500046
C96	C	0.437124	-0.133724	0.750046
C97	C	0.331050	-1.002284	0.000045
C98	C	0.581050	-0.752284	0.250045
C99	C	0.831050	-0.502284	0.500045
C100	C	1.081050	-0.252284	0.750045
C101	C	0.446124	-1.013041	0.000041
C102	C	0.696124	-0.763041	0.250041
C103	C	0.946124	-0.513041	0.500041
C104	C	1.196124	-0.263041	0.750041
N105	N	0.141526	-0.993332	0.217047
N106	N	0.391526	-0.743332	0.467047
N107	N	0.641526	-0.493332	0.717047
N108	N	0.891526	-0.243332	0.967047
C109	C	0.236914	-0.534343	0.000045
C110	C	0.486914	-0.284343	0.250045
C111	C	0.736914	-0.034343	0.500045
C112	C	0.986914	0.215657	0.750045
C113	C	0.235014	-0.447471	0.000051
C114	C	0.485014	-0.197471	0.250051
C115	C	0.735014	0.052529	0.500051
C116	C	0.985014	0.302529	0.750051
C117	C	0.046138	-0.452341	0.000054
C118	C	0.296138	-0.202341	0.250054
C119	C	0.546138	0.047659	0.500054
C120	C	0.796138	0.297659	0.750054
C121	C	0.048040	-0.539211	0.000054
C122	C	0.298040	-0.289211	0.250054
C123	C	0.548040	-0.039211	0.500054
C124	C	0.798040	0.210789	0.750054
C125	C	0.143431	-0.580209	0.000045
C126	C	0.393431	-0.330209	0.250045
C127	C	0.643431	-0.080209	0.500045
C128	C	0.893431	0.169791	0.750045
C129	C	0.139629	-0.406468	0.000050
C130	C	0.389629	-0.156468	0.250050
C131	C	0.639629	0.093532	0.500050
C132	C	0.889629	0.343532	0.750050
C133	C	0.137568	-0.312278	0.000057
C134	C	0.387568	-0.062278	0.250057
C135	C	0.637568	0.187722	0.500057
C136	C	0.887568	0.437722	0.750057
C137	C	0.145492	-0.674405	0.000040
C138	C	0.395492	-0.424405	0.250040
C139	C	0.645492	-0.174405	0.500040
C140	C	0.895492	0.075595	0.750040
N141	N	0.141526	-0.993352	-0.216943
N142	N	0.391526	-0.743352	0.033057
N143	N	0.641526	-0.493352	0.283057
N144	N	0.891526	-0.243352	0.533057
C145	C	0.071059	-1.044290	0.452059
C146	C	0.321059	-0.794290	0.702059
C147	C	0.571059	-0.544290	0.952059
C148	C	0.821059	-0.294290	1.202059
C149	C	0.071057	-1.044292	0.548040
C150	C	0.321057	-0.794292	0.798040
C151	C	0.571057	-0.544292	1.048040
C152	C	0.821057	-0.294292	1.298040
C153	C	0.211995	-0.942388	0.548038
C154	C	0.461995	-0.692388	0.798038
C155	C	0.711995	-0.442388	1.048038
C156	C	0.961995	-0.192388	1.298038
C157	C	0.211992	-0.942382	0.452059
C158	C	0.461992	-0.692382	0.702059
C159	C	0.711992	-0.442382	0.952059
C160	C	0.961992	-0.192382	1.202059
C161	C	0.141525	-0.993338	0.404071
C162	C	0.391525	-0.743338	0.654071
C163	C	0.641525	-0.493338	0.904071
C164	C	0.891525	-0.243338	1.154071
C165	C	0.141526	-0.993346	0.596032
C166	C	0.391526	-0.743346	0.846032
C167	C	0.641526	-0.493346	1.096032
C168	C	0.891526	-0.243346	1.346032
C169	C	0.141524	-0.993348	0.700099
C170	C	0.391524	-0.743348	0.950099
C171	C	0.641524	-0.493348	1.200099
C172	C	0.891524	-0.243348	1.450099
C173	C	0.141526	-0.993335	0.299998
C174	C	0.391526	-0.743335	0.549998
C175	C	0.641526	-0.493335	0.799998
C176	C	0.891526	-0.243335	1.049998
H177	H	-0.195574	-1.108339	0.000059
H178	H	0.054426	-0.858339	0.250059
H179	H	0.304426	-0.608339	0.500059
H180	H	0.554426	-0.358339	0.750059
H181	H	0.269370	-0.900903	0.587119
H182	H	0.519370	-0.650903	0.837119
H183	H	0.769370	-0.400903	1.087119
H184	H	1.019370	-0.150903	1.337119
Cl185	Cl	-0.539849	-0.842997	0.000011
Cl186	Cl	-0.289849	-0.592997	0.250011
Cl187	Cl	-0.039849	-0.342997	0.500011
Cl188	Cl	0.210151	-0.092997	0.750011
H189	H	0.311138	-0.410130	0.000052
H190	H	0.561138	-0.160130	0.250052
H191	H	0.811138	0.089870	0.500052
H192	H	1.061138	0.339870	0.750052
H193	H	0.013676	-1.085780	0.587108
H194	H	0.263676	-0.835780	0.837108
H195	H	0.513676	-0.585780	1.087108
H196	H	0.763676	-0.335780	1.337108
Cl197	Cl	0.300580	-0.878319	0.391726
Cl198	Cl	0.550580	-0.628319	0.641726
Cl199	Cl	0.800580	-0.378319	0.891726
Cl200	Cl	1.050580	-0.128319	1.141726
H201	H	0.314588	-0.567721	0.000044
H202	H	0.564588	-0.317721	0.250044
H203	H	0.814588	-0.067721	0.500044
H204	H	1.064588	0.182279	0.750044
H205	H	-0.031526	-0.418949	0.000066
H206	H	0.218474	-0.168949	0.250066
H207	H	0.468474	0.081051	0.500066
H208	H	0.718474	0.331051	0.750066
H209	H	-0.028091	-0.576557	0.000057
H210	H	0.221909	-0.326557	0.250057
H211	H	0.471909	-0.076557	0.500057
H212	H	0.721909	0.173443	0.750057
Cl213	Cl	-0.121229	-0.806190	0.000063
Cl214	Cl	0.128771	-0.556190	0.250063
Cl215	Cl	0.378771	-0.306190	0.500063
Cl216	Cl	0.628771	-0.056190	0.750063
H217	H	-0.370130	-1.167943	0.000054
H218	H	-0.120130	-0.917943	0.250054
H219	H	0.129870	-0.667943	0.500054
H220	H	0.379870	-0.417943	0.750054
H221	H	0.013680	-1.085779	0.412990
H222	H	0.263680	-0.835779	0.662990
H223	H	0.513680	-0.585779	0.912990
H224	H	0.763680	-0.335779	1.162990
H225	H	-0.566277	-1.149614	0.000036
H226	H	-0.316277	-0.899614	0.250036
H227	H	-0.066277	-0.649614	0.500036
H228	H	0.183723	-0.399614	0.750036
Cl229	Cl	-0.365284	-0.783391	0.000036
Cl230	Cl	-0.115284	-0.533391	0.250036
Cl231	Cl	0.134716	-0.283391	0.500036
Cl232	Cl	0.384716	-0.033391	0.750036
