data_functionalizedCrystal
_audit_creation_method	'MofGen! by Chris Wilmer'
_symmetry_space_group_name_H-M	'P1'
_symmetry_Int_Tables_number	1
_symmetry_cell_setting	triclinic
loop_
_symmetry_equiv_pos_as_xyz
  x,y,z
_cell_length_a	19.288864
_cell_length_b	11.792241
_cell_length_c	17.766277
_cell_angle_alpha	89.993523
_cell_angle_beta	89.976791
_cell_angle_gamma	83.664831
loop_
_atom_site_label
_atom_site_type_symbol
_atom_site_fract_x
_atom_site_fract_y
_atom_site_fract_z
O1	O	0.922157	0.141582	-0.062836
O2	O	0.720005	0.160681	-0.062785
O3	O	0.825987	-0.014113	-0.062806
O4	O	0.816176	0.316377	-0.062814
O5	O	0.825968	-0.014122	0.062382
O6	O	0.719986	0.160673	0.062404
O7	O	0.922139	0.141573	0.062352
Cu8	Cu	0.821061	0.151122	0.073809
Cu9	Cu	0.821083	0.151133	-0.074241
O10	O	0.816157	0.316368	0.062374
C11	C	0.694116	0.160063	-0.000184
C12	C	0.617002	0.158218	-0.000164
C13	C	0.572888	0.260779	-0.000178
C14	C	0.500431	0.259046	-0.000187
C15	C	0.472091	0.154746	-0.000196
C16	C	0.516215	0.052171	-0.000177
C17	C	0.588670	0.053907	-0.000161
C18	C	0.363370	0.072757	-0.044078
C19	C	0.290916	0.071025	-0.044099
C20	C	0.248615	0.149387	-0.000241
C21	C	0.278776	0.229499	0.043627
C22	C	0.351232	0.231235	0.043643
C23	C	0.393526	0.152852	-0.000212
C24	C	0.125935	0.250076	-0.000263
C25	C	0.053477	0.248339	-0.000267
C26	C	0.069262	0.041460	-0.000265
C27	C	0.141718	0.043201	-0.000254
C28	C	0.170050	0.147512	-0.000257
C29	C	0.825361	-0.056399	-0.000212
C30	C	0.823517	-0.182385	-0.000212
C31	C	0.820125	-0.413045	-0.000224
C32	C	0.822009	-0.284689	-0.000218
C33	C	0.948028	0.142192	-0.000250
C34	C	1.025142	0.144037	-0.000275
C35	C	0.816783	0.358654	-0.000222
C36	C	0.818627	0.484640	-0.000226
N37	N	0.821050	0.151114	0.177939
N38	N	0.821099	0.151132	-0.178371
C39	C	0.867994	0.073753	0.217316
C40	C	0.867998	0.073748	0.296118
C41	C	0.821065	0.151123	0.335540
C42	C	0.774112	0.228490	0.296153
C43	C	0.774105	0.228486	0.217353
C44	C	0.812354	0.254534	0.460377
C45	C	0.812366	0.254540	0.539175
C46	C	0.821084	0.151137	0.578586
C47	C	0.829804	0.047723	0.539188
C48	C	0.829797	0.047719	0.460388
C49	C	0.821067	0.151136	0.420985
C50	C	0.868035	0.073764	0.703409
C51	C	0.868034	0.073757	0.782213
C52	C	0.774151	0.228509	0.782246
C53	C	0.774148	0.228506	0.703444
C54	C	0.821094	0.151135	0.664030
H55	H	0.177637	-0.040316	-0.000246
N56	N	0.726200	0.307556	0.663230
N57	N	0.727546	0.412458	0.672023
H58	H	0.693679	0.468291	0.643624
N59	N	0.633745	-0.050852	-0.000144
N60	N	0.675911	-0.072959	0.052634
H61	H	0.707748	-0.146945	0.052646
N62	N	0.726164	0.307520	0.177114
N63	N	0.726170	0.307513	0.106757
H64	H	0.692313	0.363334	0.078336
N65	N	0.260100	-0.010808	-0.088892
N66	N	0.195408	-0.012352	-0.088899
H67	H	0.173644	-0.070152	-0.120533
H68	H	0.375786	0.296462	0.079364
H69	H	0.836895	-0.036484	0.428313
N70	N	0.915931	-0.005288	0.177046
N71	N	0.915917	-0.005290	0.106690
H72	H	0.949770	-0.061116	0.078246
N73	N	0.487270	-0.054370	-0.000171
N74	N	0.448571	-0.078419	0.052592
H75	H	0.428130	-0.153667	0.052601
H76	H	0.397806	0.008943	-0.079797
N77	N	0.803468	0.360162	0.420119
N78	N	0.849963	0.385430	0.376122
H79	H	0.843689	0.460025	0.347687
H80	H	0.906227	0.010749	0.328185
N81	N	0.838699	-0.057901	0.579445
N82	N	0.838692	-0.057888	0.649802
H83	H	0.844971	-0.132481	0.678238
N84	N	0.040320	-0.065080	-0.000288
N85	N	0.053721	-0.134138	-0.053058
H86	H	0.033278	-0.209385	-0.053073
N87	N	0.915903	-0.005414	0.663156
N88	N	0.957753	-0.074586	0.698328
H89	H	0.991528	-0.130560	0.669901
H90	H	0.735897	0.291489	0.328254
N91	N	0.803468	0.360179	0.579404
N92	N	0.795677	0.452495	0.544210
H93	H	0.789394	0.527107	0.572619
H94	H	0.906259	0.010754	0.814274
N95	N	0.601839	0.367317	-0.000160
N96	N	0.666531	0.368858	-0.000139
H97	H	0.686980	0.444100	-0.000122
N98	N	0.726197	0.307531	0.822502
N99	N	0.682952	0.271697	0.866496
H100	H	0.649080	0.327505	0.894930
N101	N	0.455369	0.363825	-0.000197
N102	N	0.480675	0.456948	-0.000195
H103	H	0.448852	0.530950	-0.000203
N104	N	0.008406	0.353102	-0.000265
N105	N	-0.033807	0.375208	0.052504
H106	H	-0.065639	0.449199	0.052509
N107	N	0.235565	0.309571	0.088404
N108	N	0.170873	0.308025	0.088377
H109	H	0.140351	0.364584	0.119991
N110	N	0.154869	0.356631	-0.000262
N111	N	0.115470	0.448200	-0.000265
H112	H	0.135902	0.523457	-0.000263
