data_functionalizedCrystal
_audit_creation_method	'MofGen! by Chris Wilmer'
_symmetry_space_group_name_H-M	'P1'
_symmetry_Int_Tables_number	1
_symmetry_cell_setting	triclinic
loop_
_symmetry_equiv_pos_as_xyz
  x,y,z
_cell_length_a	10.723024
_cell_length_b	17.699083
_cell_length_c	16.776229
_cell_angle_alpha	90.007545
_cell_angle_beta	90.006819
_cell_angle_gamma	83.875442
loop_
_atom_site_label
_atom_site_type_symbol
_atom_site_fract_x
_atom_site_fract_y
_atom_site_fract_z
O1	O	-1.655373	-0.106154	-0.066285
O2	O	-1.292046	-0.116315	-0.066288
O3	O	-1.483974	-0.001110	-0.066279
O4	O	-1.463445	-0.221359	-0.066293
O5	O	-1.483949	-0.001103	0.066297
O6	O	-1.292021	-0.116308	0.066289
O7	O	-1.655347	-0.106147	0.066292
Zn8	Zn	-1.473680	-0.111226	0.087340
Zn9	Zn	-1.473714	-0.111236	-0.087336
O10	O	-1.463419	-0.221352	0.066283
C11	C	-1.245547	-0.115572	0.000000
C12	C	-1.107030	-0.113360	-0.000001
C13	C	-1.483226	0.027095	0.000009
C14	C	-1.481019	0.111127	0.000010
C15	C	-1.701847	-0.106890	0.000002
C16	C	-1.840363	-0.109102	-0.000002
C17	C	-1.030942	-0.177822	-0.000005
C18	C	-0.887778	-0.175537	-0.000006
C19	C	-1.464168	-0.249557	-0.000007
C20	C	-1.466374	-0.333589	-0.000013
N21	N	-1.473666	-0.111219	0.206551
C22	C	-1.593677	0.159037	0.000012
C23	C	-1.591596	0.237994	0.000004
C24	C	-1.476856	0.269038	0.000001
C25	C	-1.364189	0.221122	-0.000003
C26	C	-1.366272	0.142167	-0.000002
C27	C	-1.355789	0.539538	-0.000010
C28	C	-1.353715	0.618499	-0.000009
C29	C	-1.581113	0.635365	-0.000003
C30	C	-1.583196	0.556410	-0.000002
C31	C	-1.470530	0.508500	-0.000011
C32	C	-1.472788	0.422887	-0.000005
C33	C	-1.474597	0.354650	0.000001
N34	N	-1.473737	-0.111237	-0.206547
C35	C	-1.558678	-0.060228	0.248272
C36	C	-1.558685	-0.060227	0.331724
C37	C	-1.473685	-0.111222	0.373454
C38	C	-1.388665	-0.162216	0.331727
C39	C	-1.388653	-0.162213	0.248276
C40	C	-1.388710	-0.162231	0.668274
C41	C	-1.388731	-0.162233	0.751731
C42	C	-1.558742	-0.060246	0.751722
C43	C	-1.558730	-0.060242	0.668271
C44	C	-1.473706	-0.111233	0.626552
C45	C	-1.473697	-0.111232	0.536063
C46	C	-1.473698	-0.111228	0.463941
H47	H	-1.071789	-0.234703	-0.000004
H48	H	-0.822399	-0.230722	-0.000013
H49	H	-1.683333	0.277000	0.000008
H50	H	-1.627970	-0.018724	0.785699
C51	C	-1.051864	-0.036513	0.000004
C52	C	-1.082097	0.020032	-0.068836
C53	C	-1.026934	0.096881	-0.068831
C54	C	-0.941539	0.117186	0.000013
C55	C	-0.911302	0.060640	0.068857
C56	C	-0.966464	-0.016210	0.068853
H57	H	-1.145315	0.005003	-0.119803
H58	H	-1.049318	0.138741	-0.119795
H59	H	-0.900705	0.174074	0.000016
H60	H	-0.848084	0.075669	0.119825
H61	H	-0.944080	-0.058069	0.119817
C62	C	-1.709411	0.522262	-0.000003
C63	C	-1.833337	0.574962	-0.000008
C64	C	-1.959555	0.540815	-0.000014
C65	C	-1.961848	0.453968	-0.000014
C66	C	-1.837918	0.401263	-0.000009
C67	C	-1.711700	0.435409	-0.000003
H68	H	-1.831644	0.639256	-0.000008
H69	H	-2.051296	0.579832	-0.000017
H70	H	-2.055282	0.428691	-0.000018
H71	H	-1.839611	0.336968	-0.000009
H72	H	-1.619959	0.396393	0.000001
H73	H	-1.687112	0.133768	0.000019
H74	H	-1.274534	0.103158	-0.000004
C75	C	-1.652228	-0.004146	0.622368
C76	C	-1.747551	-0.034246	0.564977
C77	C	-1.841047	0.021854	0.519075
C78	C	-1.839219	0.108052	0.530563
C79	C	-1.743893	0.138156	0.587956
C80	C	-1.650397	0.082056	0.633859
H81	H	-1.748907	-0.098059	0.556471
H82	H	-1.911614	-0.000432	0.476589
H83	H	-1.908430	0.149580	0.496583
H84	H	-1.742537	0.201969	0.596462
H85	H	-1.579830	0.104342	0.676345
H86	H	-1.672851	0.674383	-0.000000
H87	H	-1.319509	-0.203760	0.785706
H88	H	-1.260275	0.643772	-0.000010
C89	C	-1.295198	-0.218324	0.622385
C90	C	-1.201738	-0.274443	0.668283
C91	C	-1.108225	-0.330538	0.622388
C92	C	-1.108171	-0.330515	0.530596
C93	C	-1.201634	-0.274395	0.484693
C94	C	-1.295148	-0.218299	0.530588
H95	H	-1.201775	-0.274461	0.736238
H96	H	-1.039037	-0.372083	0.656369
H97	H	-1.038947	-0.372041	0.496621
H98	H	-1.201598	-0.274376	0.416738
H99	H	-1.364335	-0.176755	0.496607
C100	C	-1.295140	-0.218306	0.202381
C101	C	-1.201685	-0.274427	0.248279
C102	C	-1.108165	-0.330519	0.202385
C103	C	-1.108100	-0.330490	0.110593
C104	C	-1.201559	-0.274368	0.064689
C105	C	-1.295079	-0.218275	0.110583
H106	H	-1.201730	-0.274450	0.316234
H107	H	-1.038980	-0.372065	0.236366
H108	H	-1.038871	-0.372013	0.076619
H109	H	-1.201514	-0.274345	-0.003266
H110	H	-1.364263	-0.176730	0.076602
H111	H	-1.264049	0.500539	-0.000017
H112	H	-0.905735	-0.053914	-0.000003
H113	H	-1.627900	-0.018705	0.214301
H114	H	-1.270766	0.246404	-0.000011
H115	H	-1.627907	-0.018706	0.365693
H116	H	-1.319450	-0.203735	0.365708
