data_functionalizedCrystal
_audit_creation_method	'MofGen! by Chris Wilmer'
_symmetry_space_group_name_H-M	'P1'
_symmetry_Int_Tables_number	1
_symmetry_cell_setting	triclinic
loop_
_symmetry_equiv_pos_as_xyz
  x,y,z
_cell_length_a	8.597187
_cell_length_b	8.559649
_cell_length_c	7.681481
_cell_angle_alpha	85.069100
_cell_angle_beta	88.166928
_cell_angle_gamma	77.625088
loop_
_atom_site_label
_atom_site_type_symbol
_atom_site_fract_x
_atom_site_fract_y
_atom_site_fract_z
O1	O	2.002644	0.283775	-0.450242
O2	O	1.551278	0.295080	-0.381767
O3	O	1.816727	0.058070	-0.422035
O4	O	1.737195	0.520785	-0.409974
O5	O	1.849408	0.028830	-0.134135
O6	O	1.583959	0.265840	-0.093867
O7	O	2.035325	0.254535	-0.162341
Zn8	Zn	1.814830	0.255545	-0.082394
Zn9	Zn	1.771773	0.294070	-0.461715
O10	O	1.769876	0.491545	-0.122073
C11	C	1.510369	0.277616	-0.229132
C12	C	1.339785	0.269124	-0.203254
C13	C	1.839094	-0.015891	-0.279003
C14	C	1.857033	-0.192708	-0.281734
C15	C	2.076234	0.271999	-0.314980
C16	C	2.246816	0.280492	-0.340870
C17	C	1.747508	0.565506	-0.265110
C18	C	1.729568	0.742325	-0.262390
N19	N	1.844228	0.229252	0.176481
N20	N	1.742389	0.320351	-0.720592
H21	H	1.288872	0.252914	-0.065648
C22	C	1.512220	0.526237	0.332492
C23	C	1.602043	0.445877	0.199198
H24	H	1.425582	0.603739	0.282960
H25	H	1.472561	0.451171	0.410421
H26	H	1.577598	0.578323	0.394474
H27	H	1.536668	0.393781	0.137223
H28	H	1.641702	0.520954	0.121238
H29	H	1.979898	-0.272370	-0.300359
H30	H	1.297732	0.296722	-0.478484
H31	H	1.948200	0.136274	0.235914
H32	H	1.606714	-0.178025	-0.243747
