data_functionalizedCrystal
_audit_creation_method	'MofGen! by Chris Wilmer'
_symmetry_space_group_name_H-M	'P1'
_symmetry_Int_Tables_number	1
_symmetry_cell_setting	triclinic
loop_
_symmetry_equiv_pos_as_xyz
  x,y,z
_cell_length_a	14.044220
_cell_length_b	16.992694
_cell_length_c	16.053802
_cell_angle_alpha	92.750953
_cell_angle_beta	92.799619
_cell_angle_gamma	88.071450
loop_
_atom_site_label
_atom_site_type_symbol
_atom_site_fract_x
_atom_site_fract_y
_atom_site_fract_z
O1	O	0.198305	-1.057564	-0.069327
O2	O	0.698305	-0.557564	0.430673
O3	O	0.196087	-0.829125	-0.069352
O4	O	0.696087	-0.329125	0.430648
O5	O	0.058952	-0.939916	-0.069331
O6	O	0.558952	-0.439916	0.430669
O7	O	0.335440	-0.946774	-0.069347
O8	O	0.835440	-0.446774	0.430653
O9	O	0.066468	-0.933815	0.069526
O10	O	0.566468	-0.433815	0.569526
O11	O	0.203602	-0.823025	0.069506
O12	O	0.703602	-0.323025	0.569506
O13	O	0.205821	-1.051464	0.069531
O14	O	0.705821	-0.551464	0.569531
Zn15	Zn	0.205905	-0.936276	0.091565
Zn16	Zn	0.705905	-0.436276	0.591565
Zn17	Zn	0.196003	-0.944313	-0.091386
Zn18	Zn	0.696003	-0.444313	0.408614
O19	O	0.342955	-0.940673	0.069511
O20	O	0.842955	-0.440673	0.569511
C21	C	0.196993	-0.796663	0.000074
C22	C	0.696993	-0.296663	0.500074
C23	C	0.188484	-0.709024	0.000065
C24	C	0.688484	-0.209024	0.500065
N25	N	0.212662	-0.930796	0.216425
N26	N	0.712662	-0.430796	0.716425
C27	C	0.027168	-0.933863	0.000098
C28	C	0.527168	-0.433863	0.500098
C29	C	-0.078736	-0.924909	0.000098
C30	C	0.421264	-0.424909	0.500098
C31	C	-0.272638	-0.908540	0.000084
C32	C	0.227362	-0.408540	0.500084
C33	C	-0.325460	-0.972046	0.000088
C34	C	0.174540	-0.472046	0.500088
C35	C	-0.433354	-0.962938	0.000080
C36	C	0.066646	-0.462938	0.500080
C37	C	-0.164734	-0.917647	0.000091
C38	C	0.335266	-0.417647	0.500091
C39	C	0.374740	-0.946726	0.000080
C40	C	0.874740	-0.446726	0.500080
C41	C	0.480643	-0.955680	0.000074
C42	C	0.980643	-0.455680	0.500074
C43	C	0.204915	-1.083926	0.000103
C44	C	0.704915	-0.583926	0.500103
C45	C	0.213424	-1.171565	0.000107
C46	C	0.713424	-0.671565	0.500107
C47	C	0.270580	-0.664526	0.000061
C48	C	0.770580	-0.164526	0.500061
C49	C	0.262581	-0.582179	0.000073
C50	C	0.762581	-0.082179	0.500073
C51	C	0.172483	-0.544333	0.000083
C52	C	0.672483	-0.044333	0.500083
C53	C	0.090381	-0.588837	0.000090
C54	C	0.590381	-0.088837	0.500090
C55	C	0.098382	-0.671182	0.000084
C56	C	0.598382	-0.171182	0.500084
C57	C	0.139322	-0.298414	0.000107
C58	C	0.639322	0.201586	0.500107
C59	C	0.131327	-0.216063	0.000111
C60	C	0.631327	0.283937	0.500111
C61	C	0.303528	-0.209412	0.000096
C62	C	0.803528	0.290588	0.500096
C63	C	0.311521	-0.291759	0.000085
C64	C	0.811521	0.208241	0.500085
C65	C	0.229419	-0.336255	0.000096
C66	C	0.729419	0.163745	0.500096
N67	N	0.164304	-0.460161	0.000093
N68	N	0.664304	0.039839	0.500093
N69	N	0.237599	-0.420425	0.000092
N70	N	0.737599	0.079575	0.500092
N71	N	0.189239	-0.949799	-0.216245
N72	N	0.689239	-0.449799	0.283755
C73	C	0.154335	-0.977958	0.260127
C74	C	0.654335	-0.477958	0.760127
C75	C	0.159071	-0.974132	0.347533
C76	C	0.659071	-0.474132	0.847533
C77	C	0.222140	-0.923149	0.391235
C78	C	0.722140	-0.423149	0.891235
C79	C	0.280470	-0.875982	0.347526
C80	C	0.780470	-0.375982	0.847526
C81	C	0.275728	-0.879804	0.260122
C82	C	0.775728	-0.379804	0.760122
C83	C	0.242827	-0.906453	0.652642
C84	C	0.742827	-0.406453	1.152642
C85	C	0.247566	-0.902637	0.740052
C86	C	0.747566	-0.402637	1.240052
C87	C	0.126165	-1.000787	0.740053
C88	C	0.626165	-0.500787	1.240053
C89	C	0.121433	-1.004608	0.652647
C90	C	0.621433	-0.504608	1.152647
C91	C	0.179759	-0.957438	0.608946
C92	C	0.679759	-0.457438	1.108946
N93	N	0.226985	-0.919240	0.480578
N94	N	0.726985	-0.419240	0.980578
N95	N	0.174909	-0.961343	0.519604
N96	N	0.674909	-0.461343	1.019604
H97	H	-0.289655	-1.033258	0.000039
H98	H	0.210345	-0.533258	0.500039
C99	C	-0.321011	-0.825853	0.000086
C100	C	0.178989	-0.325853	0.500086
N101	N	-0.357456	-0.763573	0.000094
N102	N	0.142544	-0.263573	0.500094
H103	H	0.343947	-0.695334	0.000052
H104	H	0.843947	-0.195334	0.500052
C105	C	0.352895	-0.533234	0.000083
C106	C	0.852895	-0.033234	0.500083
N107	N	0.420924	-0.496369	0.000098
N108	N	0.920924	0.003631	0.500098
C109	C	0.410636	-0.333383	0.000087
C110	C	0.910636	0.166617	0.500087
N111	N	0.485291	-0.364734	0.000090
N112	N	0.985291	0.135266	0.500090
C113	C	0.349838	-0.819891	0.395602
C114	C	0.849838	-0.319891	0.895602
N115	N	0.402087	-0.777642	0.431811
N116	N	0.902087	-0.277642	0.931811
C117	C	0.008068	-0.720129	0.000086
C118	C	0.508068	-0.220129	0.500086
N119	N	-0.059958	-0.756996	0.000089
N120	N	0.440042	-0.256996	0.500089
H121	H	0.072468	-0.334634	0.000117
H122	H	0.572468	0.165366	0.500117
C123	C	0.393835	-0.160458	0.000094
C124	C	0.893835	0.339542	0.500094
N125	N	0.461858	-0.123586	0.000098
N126	N	0.961858	0.376414	0.500098
C127	C	0.339901	-0.827928	0.212050
C128	C	0.839901	-0.327928	0.712050
N129	N	0.388239	-0.788855	0.175843
N130	N	0.888239	-0.288855	0.675843
H131	H	0.057955	-0.185251	0.000118
H132	H	0.557955	0.314749	0.500118
C133	C	-0.008728	-0.547202	0.000102
C134	C	0.491272	-0.047202	0.500102
N135	N	-0.083379	-0.515844	0.000108
N136	N	0.416621	-0.015844	0.500108
H137	H	0.102981	-1.019477	0.224551
H138	H	0.602981	-0.519477	0.724551
H139	H	0.111576	-1.012535	0.383115
H140	H	0.611576	-0.512535	0.883115
C141	C	0.316948	-0.846546	0.788123
C142	C	0.816948	-0.346546	1.288123
N143	N	0.369203	-0.804301	0.824329
N144	N	0.869203	-0.304301	1.324329
H145	H	0.070077	-1.046122	0.617066
H146	H	0.570077	-0.546122	1.117066
H147	H	0.290320	-0.868047	0.617067
H148	H	0.790320	-0.368047	1.117067
C149	C	0.062003	-1.052664	0.788131
C150	C	0.562003	-0.552664	1.288131
N151	N	0.013669	-1.091736	0.824344
N152	N	0.513669	-0.591736	1.324344
