data_functionalizedCrystal
_audit_creation_method	'MofGen! by Chris Wilmer'
_symmetry_space_group_name_H-M	'P1'
_symmetry_Int_Tables_number	1
_symmetry_cell_setting	triclinic
loop_
_symmetry_equiv_pos_as_xyz
  x,y,z
_cell_length_a	14.519731
_cell_length_b	19.188930
_cell_length_c	17.666332
_cell_angle_alpha	90.023234
_cell_angle_beta	90.007449
_cell_angle_gamma	83.416816
loop_
_atom_site_label
_atom_site_type_symbol
_atom_site_fract_x
_atom_site_fract_y
_atom_site_fract_z
O1	O	0.115136	0.926566	0.063193
O2	O	0.448469	1.259900	0.396527
O3	O	0.781802	1.593233	0.729860
O4	O	0.130635	0.723311	0.063142
O5	O	0.463968	1.056644	0.396475
O6	O	0.797302	1.389978	0.729808
O7	O	-0.011385	0.830320	0.063162
O8	O	0.321948	1.163653	0.396495
O9	O	0.655281	1.496987	0.729829
O10	O	0.257156	0.819557	0.063173
O11	O	0.590489	1.152891	0.396506
O12	O	0.923823	1.486224	0.729840
O13	O	-0.011393	0.830301	-0.062735
O14	O	0.321941	1.163634	0.270599
O15	O	0.655274	1.496968	0.603932
O16	O	0.130627	0.723292	-0.062755
O17	O	0.463961	1.056626	0.270578
O18	O	0.797294	1.389959	0.603912
O19	O	0.115128	0.926547	-0.062703
O20	O	0.448462	1.259881	0.270630
O21	O	0.781795	1.593214	0.603963
Cu22	Cu	0.122877	0.824918	-0.074225
Cu23	Cu	0.456210	1.158251	0.259109
Cu24	Cu	0.789544	1.491585	0.592442
Cu25	Cu	0.122886	0.824940	0.074663
Cu26	Cu	0.456219	1.158274	0.407996
Cu27	Cu	0.789553	1.491607	0.741330
O28	O	0.257148	0.819539	-0.062724
O29	O	0.590482	1.152872	0.270610
O30	O	0.923815	1.486205	0.603943
C31	C	-0.045745	0.829806	0.000213
C32	C	0.287588	1.163139	0.333547
C33	C	0.620921	1.496473	0.666880
C34	C	-0.148116	0.828295	0.000213
C35	C	0.185217	1.161628	0.333546
C36	C	0.518551	1.494962	0.666879
C37	C	0.130129	0.697289	0.000187
C38	C	0.463463	1.030622	0.333520
C39	C	0.796796	1.363955	0.666853
C40	C	0.128623	0.619779	0.000167
C41	C	0.461956	0.953112	0.333500
C42	C	0.795289	1.286445	0.666833
C43	C	-0.231253	0.827067	0.000214
C44	C	0.102081	1.160400	0.333547
C45	C	0.435414	1.493734	0.666881
C46	C	-0.335552	0.825533	0.000219
C47	C	-0.002219	1.158866	0.333553
C48	C	0.331115	1.492200	0.666886
C49	C	-0.418683	0.824315	0.000224
C50	C	-0.085350	1.157649	0.333557
C51	C	0.247983	1.490982	0.666891
C52	C	-0.522989	0.822781	0.000228
C53	C	-0.189656	1.156114	0.333561
C54	C	0.143677	1.489448	0.666895
C55	C	0.211955	0.575156	0.000182
C56	C	0.545289	0.908490	0.333515
C57	C	0.878622	1.241823	0.666849
C58	C	0.210540	0.502327	0.000190
C59	C	0.543873	0.835661	0.333524
C60	C	0.877206	1.168994	0.666857
C61	C	0.125787	0.474124	0.000199
C62	C	0.459120	0.807458	0.333532
C63	C	0.792453	1.140791	0.666865
C64	C	0.042443	0.518756	0.000179
C65	C	0.375776	0.852090	0.333512
C66	C	0.709110	1.185423	0.666846
C67	C	0.043861	0.591584	0.000163
C68	C	0.377194	0.924917	0.333496
C69	C	0.710528	1.258250	0.666830
N70	N	0.061006	0.365916	0.043074
N71	N	0.394340	0.699249	0.376408
N72	N	0.727673	1.032583	0.709741
N73	N	0.059665	0.296733	0.043091
N74	N	0.392998	0.630066	0.376424
N75	N	0.726332	0.963399	0.709758
C76	C	0.121510	0.254700	0.000245
C77	C	0.454843	0.588033	0.333578
C78	C	0.788176	0.921367	0.666911
N79	N	0.184760	0.284463	-0.042610
N80	N	0.518094	0.617797	0.290724
N81	N	0.851427	0.951130	0.624057
N82	N	0.186104	0.353653	-0.042623
N83	N	0.519438	0.686986	0.290710
N84	N	0.852771	1.020320	0.624044
C85	C	0.124240	0.395156	0.000215
C86	C	0.457573	0.728489	0.333549
C87	C	0.790907	1.061823	0.666882
C88	C	0.203313	0.131108	0.000268
C89	C	0.536647	0.464441	0.333601
C90	C	0.869980	0.797774	0.666934
C91	C	0.201894	0.058278	0.000271
C92	C	0.535228	0.391611	0.333605
C93	C	0.868561	0.724944	0.666938
C94	C	0.033795	0.074708	0.000268
C95	C	0.367129	0.408042	0.333601
C96	C	0.700462	0.741375	0.666934
C97	C	0.035217	0.147537	0.000256
C98	C	0.368550	0.480870	0.333590
C99	C	0.701883	0.814203	0.666923
C100	C	0.119978	0.175732	0.000260
C101	C	0.453312	0.509065	0.333593
C102	C	0.786645	0.842398	0.666927
C103	C	0.291508	0.820052	0.000227
C104	C	0.624842	1.153386	0.333560
C105	C	0.958175	1.486719	0.666893
C106	C	0.393879	0.821563	0.000233
C107	C	0.727213	1.154897	0.333566
C108	C	1.060546	1.488230	0.666899
C109	C	0.115634	0.952570	0.000253
C110	C	0.448967	1.285903	0.333587
C111	C	0.782301	1.619236	0.666920
C112	C	0.117141	1.030080	0.000278
C113	C	0.450474	1.363413	0.333612
C114	C	0.783807	1.696746	0.666945
N115	N	0.122870	0.824908	-0.178944
N116	N	0.456204	1.158241	0.154389
N117	N	0.789537	1.491574	0.487723
C118	C	0.060015	0.872307	-0.218545
C119	C	0.393348	1.205640	0.114789
C120	C	0.726681	1.538973	0.448122
C121	C	0.060010	0.872311	-0.297792
C122	C	0.393343	1.205644	0.035541
C123	C	0.726677	1.538977	0.368874
C124	C	0.122877	0.824922	-0.337436
C125	C	0.456211	1.158256	-0.004103
C126	C	0.789544	1.491589	0.329231
C127	C	0.185738	0.777514	-0.297826
C128	C	0.519071	1.110848	0.035507
C129	C	0.852405	1.444181	0.368841
C130	C	0.185734	0.777507	-0.218580
C131	C	0.519068	1.110840	0.114754
C132	C	0.852401	1.444174	0.448087
N133	N	0.204515	0.816141	-0.461853
N134	N	0.537848	1.149475	-0.128519
N135	N	0.871181	1.482808	0.204814
N136	N	0.204515	0.816153	-0.537133
N137	N	0.537848	1.149486	-0.203800
N138	N	0.871182	1.482819	0.129533
C139	C	0.122890	0.824941	-0.576200
C140	C	0.456224	1.158274	-0.242867
C141	C	0.789557	1.491607	0.090467
N142	N	0.041262	0.833731	-0.537143
N143	N	0.374595	1.167064	-0.203809
N144	N	0.707929	1.500398	0.129524
N145	N	0.041263	0.833723	-0.461855
N146	N	0.374596	1.167057	-0.128522
N147	N	0.707929	1.500390	0.204811
C148	C	0.122888	0.824925	-0.423365
C149	C	0.456221	1.158258	-0.090032
C150	C	0.789554	1.491591	0.243301
C151	C	0.060024	0.872347	-0.701730
C152	C	0.393358	1.205680	-0.368397
C153	C	0.726691	1.539013	-0.035064
C154	C	0.060019	0.872346	-0.780979
C155	C	0.393352	1.205679	-0.447646
C156	C	0.726685	1.539013	-0.114313
C157	C	0.185755	0.777553	-0.781011
C158	C	0.519088	1.110886	-0.447678
C159	C	0.852421	1.444220	-0.114345
C160	C	0.185752	0.777551	-0.701764
C161	C	0.519086	1.110884	-0.368430
C162	C	0.852419	1.444217	-0.035097
C163	C	0.122888	0.824951	-0.662128
C164	C	0.456221	1.158284	-0.328795
C165	C	0.789555	1.491618	0.004539
N166	N	0.122885	0.824956	0.179382
N167	N	0.456219	1.158290	0.512716
N168	N	0.789552	1.491623	0.846049
H169	H	0.280975	0.598108	0.000187
H170	H	0.614308	0.931441	0.333520
H171	H	0.947641	1.264774	0.666853
F172	F	0.252657	0.727115	-0.823199
F173	F	0.585990	1.060448	-0.489866
F174	F	0.919323	1.393781	-0.156533
F175	F	0.290594	0.010787	0.000284
F176	F	0.623927	0.344120	0.333617
F177	F	0.957260	0.677453	0.666950
F178	F	-0.006893	0.922751	-0.176363
F179	F	0.326440	1.256084	0.156970
F180	F	0.659773	1.589418	0.490304
F181	F	-0.053479	0.195029	0.000244
F182	F	0.279855	0.528363	0.333577
F183	F	0.613188	0.861696	0.666911
H184	H	0.272331	0.154065	0.000260
H185	H	0.605665	0.487399	0.333593
H186	H	0.938998	0.820732	0.666926
H187	H	-0.035212	0.051746	0.000321
H188	H	0.298121	0.385080	0.333654
H189	H	0.631454	0.718413	0.666988
F190	F	0.252656	0.727105	-0.659614
F191	F	0.585990	1.060438	-0.326281
F192	F	0.919323	1.393772	0.007052
H193	H	0.008823	0.910910	-0.330041
H194	H	0.342157	1.244243	0.003292
H195	H	0.675490	1.577576	0.336625
H196	H	0.008834	0.910941	-0.669457
H197	H	0.342167	1.244274	-0.336124
H198	H	0.675500	1.577608	-0.002791
H199	H	0.236924	0.738929	-0.330108
H200	H	0.570257	1.072262	0.003226
H201	H	0.903591	1.405596	0.336559
H202	H	0.236920	0.738908	-0.186336
H203	H	0.570253	1.072242	0.146997
H204	H	0.903587	1.405575	0.480331
H205	H	0.278401	0.465989	0.000201
H206	H	0.611735	0.799322	0.333534
H207	H	0.945068	1.132656	0.666867
F208	F	-0.047757	0.488740	0.000184
F209	F	0.285576	0.822073	0.333517
F210	F	0.618910	1.155406	0.666851
F211	F	-0.044837	0.639076	0.000147
F212	F	0.288496	0.972410	0.333480
F213	F	0.621829	1.305743	0.666813
H214	H	0.008829	0.910942	-0.813223
H215	H	0.342162	1.244275	-0.479889
H216	H	0.675496	1.577608	-0.146556
