data_functionalizedCrystal
_audit_creation_method	'MofGen! by Chris Wilmer'
_symmetry_space_group_name_H-M	'P1'
_symmetry_Int_Tables_number	1
_symmetry_cell_setting	triclinic
loop_
_symmetry_equiv_pos_as_xyz
  x,y,z
_cell_length_a	12.759401
_cell_length_b	11.169416
_cell_length_c	12.759393
_cell_angle_alpha	89.971356
_cell_angle_beta	89.981504
_cell_angle_gamma	90.010501
loop_
_atom_site_label
_atom_site_type_symbol
_atom_site_fract_x
_atom_site_fract_y
_atom_site_fract_z
Zn1	Zn	1.606287	-0.477731	-0.594003
Zn2	Zn	1.606195	-0.678464	-0.418332
Zn3	Zn	1.430589	-0.477794	-0.418342
Zn4	Zn	1.430591	-0.678372	-0.593973
O5	O	1.518416	-0.578090	-0.506162
O6	O	1.753296	-0.504371	-0.570708
O7	O	1.582861	-0.651910	-0.271312
O8	O	1.453934	-0.309836	-0.441660
O9	O	1.753228	-0.651849	-0.441643
O10	O	1.583018	-0.309790	-0.570718
O11	O	1.453844	-0.504478	-0.271320
O12	O	1.283568	-0.504389	-0.441632
O13	O	1.453937	-0.651691	-0.740998
O14	O	1.283570	-0.651752	-0.570667
O15	O	1.583020	-0.504282	-0.741020
O16	O	1.582863	-0.846401	-0.441614
O17	O	1.453848	-0.846333	-0.570657
C18	C	1.245448	-0.578068	-0.506148
C19	C	1.128672	-0.578088	-0.506167
C20	C	1.518374	-0.889915	-0.506154
C21	C	1.518452	-1.023315	-0.506186
C22	C	1.073838	-0.654943	-0.573245
C23	C	0.964114	-0.654958	-0.573256
C24	C	0.964067	-0.501260	-0.439103
C25	C	1.073789	-0.501239	-0.439098
C26	C	1.073864	-0.743683	-0.650694
C27	C	0.964140	-0.743698	-0.650705
C28	C	1.792449	-0.578113	-0.506177
C29	C	1.909226	-0.578123	-0.506184
C30	C	1.518489	-0.577969	-0.780196
C31	C	1.518521	-0.577917	-0.896973
C32	C	1.518486	-0.265048	-0.506193
C33	C	1.518516	-0.131648	-0.506207
C34	C	1.585743	-0.501154	-0.951848
C35	C	1.585768	-0.501111	-1.061572
C36	C	1.451345	-0.654605	-1.061536
C37	C	1.451315	-0.654641	-0.951814
C38	C	1.663355	-0.412539	-0.951869
C39	C	1.663380	-0.412496	-1.061593
C40	C	1.518403	-0.578124	-0.233195
C41	C	1.518575	-0.577838	-0.116419
H42	H	1.118431	-0.438649	-0.384484
H43	H	1.396572	-0.717145	-0.907139
C44	C	1.378503	-0.737863	-1.121270
C45	C	1.392932	-0.721422	-1.229107
C46	C	1.325859	-0.798114	-1.284163
H47	H	1.307869	-0.720376	-1.103413
H48	H	1.393868	-0.818536	-1.103337
H49	H	1.377560	-0.640768	-1.247033
H50	H	1.463552	-0.738918	-1.246995
H51	H	1.341224	-0.878787	-1.266230
H52	H	1.255229	-0.780620	-1.266297
H53	H	1.335646	-0.786978	-1.357335
H54	H	1.107884	-0.831932	-0.621413
H55	H	1.641580	-0.319593	-0.922109
C56	C	0.924345	-0.867639	-0.621671
C57	C	0.863484	-0.913008	-0.703856
C58	C	0.826818	-1.027178	-0.677153
H59	H	0.882890	-0.862648	-0.559978
H60	H	0.982220	-0.919312	-0.609517
H61	H	0.805618	-0.861348	-0.715997
H62	H	0.904917	-0.918028	-0.765557
H63	H	0.884694	-1.078851	-0.664999
H64	H	0.785368	-1.022176	-0.615459
H65	H	0.785529	-1.057980	-0.732914
C66	C	0.918730	-0.699244	-0.753739
C67	C	0.857044	-0.597775	-0.735205
C68	C	0.815204	-0.556781	-0.830091
H69	H	0.876763	-0.760288	-0.784134
H70	H	0.974166	-0.679199	-0.800279
H71	H	0.801616	-0.617824	-0.688683
H72	H	0.898988	-0.536707	-0.704826
H73	H	0.870640	-0.536736	-0.876631
H74	H	0.773242	-0.617833	-0.860479
H75	H	0.773353	-0.487924	-0.817531
H76	H	0.919368	-0.438691	-0.384499
H77	H	1.740629	-0.445860	-0.917835
H78	H	1.634261	-0.324182	-1.095637
C79	C	1.771836	-0.445938	-1.101260
C80	C	1.798316	-0.560149	-1.064566
C81	C	1.898205	-0.591000	-1.101100
H82	H	1.821591	-0.389376	-1.076483
H83	H	1.771869	-0.445976	-1.175719
H84	H	1.798291	-0.560103	-0.990122
H85	H	1.748588	-0.616737	-1.089340
H86	H	1.898239	-0.591038	-1.175560
H87	H	1.947952	-0.534431	-1.076321
H88	H	1.916181	-0.668499	-1.076217
C89	C	1.113469	-0.710792	-0.759326
C90	C	1.076754	-0.794619	-0.832144
C91	C	1.113204	-0.764351	-0.932225
H92	H	1.187915	-0.710799	-0.759479
H93	H	1.088634	-0.633389	-0.777676
H94	H	1.101595	-0.872001	-0.813799
H95	H	1.002312	-0.794625	-0.832025
H96	H	1.088369	-0.686948	-0.950575
H97	H	1.187649	-0.764357	-0.932367
H98	H	1.088290	-0.821215	-0.981645
