data_functionalizedCrystal
_audit_creation_method	'MofGen! by Chris Wilmer'
_symmetry_space_group_name_H-M	'P1'
_symmetry_Int_Tables_number	1
_symmetry_cell_setting	triclinic
loop_
_symmetry_equiv_pos_as_xyz
  x,y,z
_cell_length_a	19.188933
_cell_length_b	19.188930
_cell_length_c	17.666332
_cell_angle_alpha	89.989930
_cell_angle_beta	89.991845
_cell_angle_gamma	83.145175
loop_
_atom_site_label
_atom_site_type_symbol
_atom_site_fract_x
_atom_site_fract_y
_atom_site_fract_z
O1	O	0.926149	0.087174	-0.062932
O2	O	1.426149	0.587174	0.437068
O3	O	0.722838	0.098906	-0.062940
O4	O	1.222838	0.598906	0.437060
O5	O	0.830361	-0.008616	-0.062921
O6	O	1.330361	0.491384	0.437079
O7	O	0.818626	0.194696	-0.062951
O8	O	1.318626	0.694696	0.437049
O9	O	0.830341	-0.008618	0.062976
O10	O	1.330341	0.491382	0.562976
O11	O	0.722818	0.098904	0.062957
O12	O	1.222818	0.598904	0.562957
O13	O	0.926129	0.087171	0.062965
O14	O	1.426129	0.587171	0.562965
Cu15	Cu	0.824472	0.093037	0.074456
Cu16	Cu	1.324472	0.593037	0.574456
Cu17	Cu	0.824495	0.093040	-0.074431
Cu18	Cu	1.324495	0.593040	0.425569
O19	O	0.818607	0.194693	0.062946
O20	O	1.318607	0.694693	0.562946
C21	C	0.696817	0.098525	0.000008
C22	C	1.196817	0.598525	0.500008
C23	C	0.619313	0.097384	0.000005
C24	C	1.119313	0.597384	0.500005
C25	C	0.066068	0.089240	-0.068612
C26	C	0.566068	0.589240	0.431388
C27	C	0.138892	0.090308	-0.068615
C28	C	0.638892	0.590308	0.431385
C29	C	0.175299	0.090844	0.000011
C30	C	0.675299	0.590844	0.500011
C31	C	0.138877	0.090294	0.068645
C32	C	0.638877	0.590294	0.568645
C33	C	0.066055	0.089219	0.068647
C34	C	0.566055	0.589219	0.568647
N35	N	0.284311	0.132262	0.051087
N36	N	0.784311	0.632262	0.551087
N37	N	0.353488	0.133284	0.051081
N38	N	0.853488	0.633284	0.551081
C39	C	0.394707	0.094082	0.000012
C40	C	0.894707	0.594082	0.500012
N41	N	0.364134	0.053827	-0.051062
N42	N	0.864134	0.553827	0.448938
N43	N	0.294950	0.052807	-0.051059
N44	N	0.794950	0.552807	0.448941
C45	C	0.254262	0.092009	0.000018
C46	C	0.754262	0.592009	0.500018
C47	C	0.510085	0.095785	-0.068621
C48	C	1.010085	0.595785	0.431379
C49	C	0.582911	0.096849	-0.068621
C50	C	1.082911	0.596849	0.431379
C51	C	0.582894	0.096842	0.068641
C52	C	1.082894	0.596842	0.568641
C53	C	0.510070	0.095771	0.068639
C54	C	1.010070	0.595771	0.568639
C55	C	0.473669	0.095246	0.000006
C56	C	0.973669	0.595246	0.500006
C57	C	0.829971	-0.034628	0.000030
C58	C	1.329971	0.465372	0.500030
C59	C	0.828830	-0.112132	0.000036
C60	C	1.328830	0.387868	0.500036
C61	C	0.891921	-0.157056	0.000043
C62	C	1.391921	0.342944	0.500043
C63	C	0.890849	-0.229880	0.000030
C64	C	1.390849	0.270120	0.500030
C65	C	0.826683	-0.257777	0.000027
C66	C	1.326683	0.242223	0.500027
C67	C	0.763584	-0.212843	0.000017
C68	C	1.263584	0.287157	0.500017
C69	C	0.764658	-0.140021	0.000021
C70	C	1.264658	0.359979	0.500021
N71	N	0.777629	-0.365783	0.042870
N72	N	1.277629	0.134217	0.542870
N73	N	0.776614	-0.434961	0.042868
N74	N	1.276614	0.065039	0.542868
C75	C	0.823445	-0.477185	0.000012
C76	C	1.323445	0.022815	0.500012
N77	N	0.871341	-0.447619	-0.042832
N78	N	1.371341	0.052381	0.457168
N79	N	0.872358	-0.378434	-0.042826
N80	N	1.372358	0.121566	0.457174
C81	C	0.825512	-0.336739	0.000022
C82	C	1.325512	0.163261	0.500022
C83	C	0.885378	-0.601073	0.000004
C84	C	1.385378	-0.101073	0.500004
C85	C	0.884304	-0.673898	-0.000013
C86	C	1.384304	-0.173898	0.499987
C87	C	0.757037	-0.656860	-0.000019
C88	C	1.257037	-0.156860	0.499981
C89	C	0.758113	-0.584037	-0.000010
C90	C	1.258113	-0.084037	0.499990
C91	C	0.822286	-0.556148	0.000005
C92	C	1.322286	-0.056148	0.500005
C93	C	0.952150	0.087553	0.000016
C94	C	1.452150	0.587553	0.500016
C95	C	1.029655	0.088694	0.000013
C96	C	1.529655	0.588694	0.500013
C97	C	0.818997	0.220705	-0.000006
C98	C	1.318997	0.720705	0.499994
C99	C	0.820137	0.298210	-0.000018
C100	C	1.320137	0.798210	0.499982
N101	N	0.824461	0.093035	0.179176
N102	N	1.324461	0.593035	0.679176
C103	C	0.866670	0.135281	0.218774
C104	C	1.366670	0.635281	0.718774
C105	C	0.866680	0.135279	0.298022
C106	C	1.366680	0.635279	0.798022
C107	C	0.824469	0.093040	0.337668
C108	C	1.324469	0.593040	0.837668
C109	C	0.782258	0.050785	0.298060
C110	C	1.282258	0.550785	0.798060
C111	C	0.782254	0.050783	0.218814
C112	C	1.282254	0.550783	0.718814
N113	N	0.763320	0.091320	0.462106
N114	N	1.263320	0.591320	0.962106
N115	N	0.763326	0.091326	0.537386
N116	N	1.263326	0.591326	1.037386
C117	C	0.824481	0.093043	0.576432
C118	C	1.324481	0.593043	1.076432
N119	N	0.885630	0.094768	0.537354
N120	N	1.385630	0.594768	1.037354
N121	N	0.885623	0.094765	0.462066
N122	N	1.385623	0.594765	0.962066
C123	C	0.824470	0.093037	0.423597
C124	C	1.324470	0.593037	0.923597
C125	C	0.866705	0.135290	0.701960
C126	C	1.366705	0.635290	1.201960
C127	C	0.866717	0.135283	0.781209
C128	C	1.366717	0.635283	1.281209
C129	C	0.782288	0.050793	0.781245
C130	C	1.282288	0.550793	1.281245
C131	C	0.782282	0.050796	0.701998
C132	C	1.282282	0.550796	1.201998
C133	C	0.824490	0.093048	0.662360
C134	C	1.324490	0.593048	1.162360
N135	N	0.824506	0.093042	0.820850
N136	N	1.324506	0.593042	1.320850
H137	H	0.036407	0.088777	0.124531
H138	H	0.536407	0.588777	0.624531
O139	O	0.907750	0.176225	0.663368
O140	O	1.407750	0.676225	1.163368
C141	C	1.002030	0.180018	0.573909
C142	C	1.502030	0.680018	1.073909
C143	C	0.955584	0.133580	0.617550
C144	C	1.455584	0.633580	1.117550
H145	H	1.040725	0.145557	0.536867
H146	H	1.540725	0.645557	1.036867
H147	H	0.967612	0.218654	0.536758
H148	H	1.467612	0.718654	1.036758
H149	H	1.032172	0.210225	0.615844
H150	H	1.532172	0.710225	1.115844
H151	H	0.925434	0.103328	0.575670
H152	H	1.425434	0.603328	1.075670
H153	H	0.990040	0.094987	0.654712
H154	H	1.490040	0.594987	1.154712
O155	O	0.947773	-0.574093	-0.000029
O156	O	1.447773	-0.074093	0.499971
C157	C	1.073889	-0.598676	0.000006
C158	C	1.573889	-0.098676	0.500006
C159	C	1.003277	-0.629322	0.000029
C160	C	1.503277	-0.129322	0.500029
H161	H	1.118782	-0.643313	0.000069
H162	H	1.618782	-0.143313	0.500069
H163	H	1.077623	-0.565022	-0.052692
H164	H	1.577623	-0.065022	0.447308
H165	H	1.077532	-0.564995	0.052684
H166	H	1.577532	-0.064995	0.552684
H167	H	0.999586	-0.663034	-0.052613
H168	H	1.499586	-0.163034	0.447387
H169	H	0.999572	-0.662935	0.052762
H170	H	1.499572	-0.162935	0.552762
O171	O	0.945576	-0.717567	-0.000145
O172	O	1.445576	-0.217567	0.499855
C173	C	1.018221	-0.809681	-0.065349
C174	C	1.518221	-0.309681	0.434651
C175	C	0.948811	-0.760256	-0.065302
C176	C	1.448811	-0.260256	0.434698
H177	H	1.020853	-0.844218	-0.118015
H178	H	1.520853	-0.344218	0.381985
H179	H	1.064294	-0.777269	-0.065386
H180	H	1.564294	-0.277269	0.434614
H181	H	1.020881	-0.844183	-0.012642
H182	H	1.520881	-0.344183	0.487358
H183	H	0.946083	-0.725744	-0.118000
H184	H	1.446083	-0.225744	0.382000
H185	H	0.902772	-0.792710	-0.065226
H186	H	1.402772	-0.292710	0.434774
H187	H	0.168524	0.090729	0.124521
H188	H	0.668524	0.590729	0.624521
O189	O	0.741209	0.009745	0.663645
O190	O	1.241209	0.509745	1.163645
C191	C	0.657500	-0.074086	0.672046
C192	C	1.157500	0.425914	1.172046
C193	C	0.703970	-0.027614	0.715574
C194	C	1.203970	0.472386	1.215574
H195	H	0.627391	-0.104314	0.714012
H196	H	1.127391	0.395686	1.214012
H197	H	0.618787	-0.039683	0.634967
H198	H	1.118787	0.460317	1.134967
H199	H	0.691965	-0.112705	0.634925
H200	H	1.191965	0.387295	1.134925
H201	H	0.669561	0.011011	0.752737
H202	H	1.169561	0.511011	1.252737
H203	H	0.742688	-0.062061	0.752606
H204	H	1.242688	0.437939	1.252606
O205	O	0.618234	0.097237	0.135325
O206	O	1.118234	0.597237	0.635325
C207	C	0.648558	0.037104	0.252666
C208	C	1.148558	0.537104	0.752666
C209	C	0.608513	0.036564	0.177164
C210	C	1.108513	0.536564	0.677164
H211	H	0.640701	-0.011937	0.286521
H212	H	1.140701	0.488063	0.786521
H213	H	0.706877	0.037919	0.240925
H214	H	1.206877	0.537919	0.740925
H215	H	0.627702	0.085764	0.286473
H216	H	1.127702	0.585764	0.786473
H217	H	0.629310	-0.012088	0.143319
H218	H	1.129310	0.487912	0.643319
H219	H	0.550200	0.035786	0.188958
H220	H	1.050200	0.535786	0.688958
O221	O	0.030823	0.088690	-0.135347
O222	O	0.530823	0.588690	0.364653
C223	C	0.038525	0.088848	-0.271490
C224	C	0.538525	0.588848	0.228510
C225	C	0.078529	0.089460	-0.195967
C226	C	0.578529	0.589460	0.304033
H227	H	0.077075	0.089484	-0.320521
H228	H	0.577075	0.589484	0.179479
H229	H	0.010997	0.039480	-0.274966
H230	H	0.510997	0.539480	0.225034
H231	H	-0.002129	0.137181	-0.274888
H232	H	0.497871	0.637181	0.225112
H233	H	0.119216	0.041160	-0.192518
H234	H	0.619216	0.541160	0.307482
H235	H	0.106009	0.138859	-0.192523
H236	H	0.606009	0.638859	0.307477
H237	H	0.901093	0.169683	0.813449
H238	H	1.401093	0.669683	1.313449
H239	H	0.168545	0.090757	-0.124499
H240	H	0.668545	0.590757	0.375501
H241	H	0.901052	0.169683	0.330270
H242	H	1.401052	0.669683	0.830270
O243	O	0.696780	-0.540466	-0.000107
O244	O	1.196780	-0.040466	0.499893
C245	C	0.588364	-0.503582	-0.065355
C246	C	1.088364	-0.003582	0.434645
C247	C	0.657794	-0.552977	-0.065327
C248	C	1.157794	-0.052977	0.434673
H249	H	0.556831	-0.513670	-0.118088
H250	H	1.056831	-0.013670	0.381912
H251	H	0.556718	-0.513719	-0.012705
H252	H	1.056718	-0.013719	0.487295
H253	H	0.600168	-0.446748	-0.065314
H254	H	1.100168	0.053252	0.434686
H255	H	0.646053	-0.609828	-0.065395
H256	H	1.146053	-0.109828	0.434605
H257	H	0.689419	-0.542779	-0.117972
H258	H	1.189419	-0.042779	0.382028
H259	H	0.480447	0.095356	-0.124506
H260	H	0.980447	0.595356	0.375494
H261	H	0.747920	0.016400	0.813524
H262	H	1.247920	0.516400	1.313524
O263	O	0.618237	0.097502	-0.135308
O264	O	1.118237	0.597502	0.364692
C265	C	0.632407	0.158297	-0.252645
C266	C	1.132407	0.658297	0.247355
C267	C	0.592357	0.157653	-0.177141
C268	C	1.092357	0.657653	0.322859
H269	H	0.611488	0.206917	-0.286495
H270	H	1.111488	0.706917	0.213505
H271	H	0.690711	0.159197	-0.240905
H272	H	1.190711	0.659197	0.259095
H273	H	0.624639	0.109218	-0.286455
H274	H	1.124639	0.609218	0.213545
H275	H	0.600067	0.206723	-0.143294
H276	H	1.100067	0.706723	0.356706
H277	H	0.534067	0.156717	-0.188934
H278	H	1.034067	0.656717	0.311066
H279	H	0.704792	-0.679573	-0.000025
H280	H	1.204792	-0.179573	0.499975
O281	O	0.954275	-0.130001	-0.000083
O282	O	1.454275	0.369999	0.499917
C283	C	1.063408	-0.122312	-0.065273
C284	C	1.563408	0.377688	0.434727
C285	C	0.992810	-0.152985	-0.065232
C286	C	1.492810	0.347015	0.434768
H287	H	1.094590	-0.140895	-0.117932
H288	H	1.594590	0.359105	0.382068
H289	H	1.053385	-0.062544	-0.065320
H290	H	1.553385	0.437456	0.434680
H291	H	1.094534	-0.140830	-0.012559
H292	H	1.594534	0.359170	0.487441
H293	H	0.961647	-0.134521	-0.117937
H294	H	1.461647	0.365479	0.382063
H295	H	1.002883	-0.212751	-0.065146
H296	H	1.502883	0.287249	0.434854
O297	O	0.474602	0.095337	0.135253
O298	O	0.974602	0.595337	0.635253
C299	C	0.384301	0.154606	0.214926
C300	C	0.884301	0.654606	0.714926
C301	C	0.424403	0.155182	0.139449
C302	C	0.924403	0.655182	0.639449
H303	H	0.343717	0.202992	0.218350
H304	H	0.843717	0.702992	0.718350
H305	H	0.356698	0.105282	0.218368
H306	H	0.856698	0.605282	0.718368
H307	H	0.422844	0.155137	0.263966
H308	H	0.922844	0.655137	0.763966
H309	H	0.385907	0.154676	0.090366
H310	H	0.885907	0.654676	0.590366
H311	H	0.452017	0.204501	0.136073
H312	H	0.952017	0.704501	0.636073
H313	H	0.901041	0.169683	0.186506
H314	H	1.401041	0.669683	0.686506
H315	H	0.747890	0.016393	0.330345
H316	H	1.247890	0.516393	0.830345
O317	O	0.952119	-0.273558	-0.000092
O318	O	1.452119	0.226442	0.499908
C319	C	1.024759	-0.365690	-0.065277
C320	C	1.524759	0.134310	0.434723
C321	C	0.955354	-0.316256	-0.065243
C322	C	1.455354	0.183744	0.434757
H323	H	1.027390	-0.400234	-0.117937
H324	H	1.527390	0.099766	0.382063
H325	H	1.070836	-0.333285	-0.065315
H326	H	1.570836	0.166715	0.434685
H327	H	1.027409	-0.400184	-0.012564
H328	H	1.527409	0.099816	0.487436
H329	H	0.952635	-0.281752	-0.117946
H330	H	1.452635	0.218248	0.382054
H331	H	0.909309	-0.348704	-0.065166
H332	H	1.409309	0.151296	0.434834
H333	H	0.711340	-0.235562	0.000013
H334	H	1.211340	0.264438	0.500013
H335	H	0.747881	0.016380	0.186573
H336	H	1.247881	0.516380	0.686573
H337	H	0.713280	-0.103444	0.000017
H338	H	1.213280	0.396556	0.500017
