data_functionalizedCrystal
_audit_creation_method	'MofGen! by Chris Wilmer'
_symmetry_space_group_name_H-M	'P1'
_symmetry_Int_Tables_number	1
_symmetry_cell_setting	triclinic
loop_
_symmetry_equiv_pos_as_xyz
  x,y,z
_cell_length_a	21.395362
_cell_length_b	18.215405
_cell_length_c	21.395355
_cell_angle_alpha	89.980149
_cell_angle_beta	89.956060
_cell_angle_gamma	90.040762
loop_
_atom_site_label
_atom_site_type_symbol
_atom_site_fract_x
_atom_site_fract_y
_atom_site_fract_z
Zn1	Zn	0.957885	-0.292758	-0.354580
Zn2	Zn	1.457885	0.207242	0.145420
Zn3	Zn	0.957798	-0.415806	-0.249800
Zn4	Zn	1.457798	0.084194	0.250200
Zn5	Zn	0.853100	-0.292792	-0.249781
Zn6	Zn	1.353100	0.207208	0.250219
Zn7	Zn	0.853080	-0.415821	-0.354505
Zn8	Zn	1.353080	0.084179	0.145495
O9	O	0.905466	-0.354294	-0.302166
O10	O	1.405466	0.145706	0.197834
O11	O	1.045551	-0.309060	-0.340720
O12	O	1.545551	0.190940	0.159280
O13	O	0.943882	-0.399496	-0.162119
O14	O	1.443882	0.100504	0.337881
O15	O	0.867045	-0.189803	-0.263706
O16	O	1.367045	0.310197	0.236294
O17	O	1.045487	-0.399463	-0.263739
O18	O	1.545487	0.100537	0.236261
O19	O	0.944030	-0.189778	-0.340702
O20	O	1.444030	0.310222	0.159298
O21	O	0.866960	-0.309118	-0.162106
O22	O	1.366960	0.190882	0.337894
O23	O	0.765419	-0.309133	-0.263634
O24	O	1.265419	0.190867	0.236366
O25	O	0.867010	-0.399488	-0.442193
O26	O	1.367010	0.100512	0.057807
O27	O	0.765404	-0.399522	-0.340573
O28	O	1.265404	0.100478	0.159427
O29	O	0.944010	-0.309074	-0.442248
O30	O	1.444010	0.190926	0.057752
O31	O	0.943862	-0.518792	-0.263666
O32	O	1.443862	-0.018792	0.236334
O33	O	0.866926	-0.518803	-0.340592
O34	O	1.366926	-0.018803	0.159408
C35	C	0.742678	-0.354333	-0.302094
C36	C	1.242678	0.145667	0.197906
C37	C	0.673037	-0.354367	-0.302077
C38	C	1.173037	0.145633	0.197923
C39	C	0.640332	-0.401495	-0.342080
C40	C	1.140332	0.098505	0.157920
C41	C	0.574897	-0.401477	-0.342108
C42	C	1.074897	0.098523	0.157892
C43	C	0.542168	-0.354339	-0.302122
C44	C	1.042168	0.145661	0.197878
C45	C	0.574881	-0.307202	-0.262117
C46	C	1.074881	0.192798	0.237883
C47	C	0.640315	-0.307216	-0.262094
C48	C	1.140315	0.192784	0.237906
C49	C	0.438443	-0.348410	-0.245717
C50	C	0.938443	0.151590	0.254283
C51	C	0.373010	-0.348401	-0.245738
C52	C	0.873010	0.151599	0.254262
C53	C	0.340348	-0.354291	-0.302191
C54	C	0.840348	0.145709	0.197809
C55	C	0.373126	-0.360205	-0.358625
C56	C	0.873126	0.139795	0.141375
C57	C	0.438560	-0.360219	-0.358602
C58	C	0.938560	0.139781	0.141398
C59	C	0.471216	-0.354318	-0.302142
C60	C	0.971216	0.145682	0.197858
C61	C	0.236691	-0.401402	-0.342228
C62	C	0.736691	0.098598	0.157772
C63	C	0.171254	-0.401379	-0.342256
C64	C	0.671254	0.098621	0.157744
C65	C	0.171239	-0.307107	-0.262260
C66	C	0.671239	0.192893	0.237740
C67	C	0.236675	-0.307127	-0.262236
C68	C	0.736675	0.192873	0.237764
C69	C	0.269396	-0.354278	-0.302219
C70	C	0.769396	0.145722	0.197781
C71	C	0.905399	-0.545500	-0.302136
C72	C	1.405399	-0.045500	0.197864
C73	C	0.905428	-0.627299	-0.302144
C74	C	1.405428	-0.127299	0.197856
C75	C	0.945583	-0.815463	-0.262163
C76	C	1.445583	-0.315463	0.237837
C77	C	0.945611	-0.892322	-0.262178
C78	C	1.445611	-0.392322	0.237822
C79	C	0.865428	-0.892373	-0.342215
C80	C	1.365428	-0.392373	0.157785
C81	C	0.865404	-0.815516	-0.342203
C82	C	1.365404	-0.315516	0.157797
C83	C	0.905480	-0.777063	-0.302173
C84	C	1.405480	-0.277063	0.197827
C85	C	0.905533	-0.930779	-0.302200
C86	C	1.405533	-0.430779	0.197800
C87	C	0.905563	-1.014112	-0.302217
C88	C	1.405563	-0.514112	0.197783
C89	C	0.905451	-0.693724	-0.302157
C90	C	1.405451	-0.193724	0.197843
C91	C	1.068889	-0.354256	-0.302240
C92	C	1.568889	0.145744	0.197760
C93	C	1.138530	-0.354239	-0.302271
C94	C	1.638530	0.145761	0.197729
C95	C	0.905518	-0.354279	-0.465590
C96	C	1.405518	0.145721	0.034410
C97	C	0.905540	-0.354273	-0.535231
C98	C	1.405540	0.145727	-0.035231
C99	C	0.905549	-0.162341	-0.302210
C100	C	1.405549	0.337659	0.197790
C101	C	0.905585	-0.080542	-0.302229
C102	C	1.405585	0.419458	0.197771
C103	C	0.945632	-0.307192	-0.567974
C104	C	1.445632	0.192808	-0.067974
C105	C	0.945631	-0.307161	-0.633409
C106	C	1.445631	0.192839	-0.133409
C107	C	0.905545	-0.354223	-0.666099
C108	C	1.405545	0.145777	-0.166099
C109	C	0.865445	-0.401307	-0.633349
C110	C	1.365445	0.098693	-0.133349
C111	C	0.865442	-0.401332	-0.567914
C112	C	1.365442	0.098668	-0.067914
C113	C	0.900574	-0.420488	-0.769762
C114	C	1.400574	0.079512	-0.269762
C115	C	0.900581	-0.420465	-0.835195
C116	C	1.400581	0.079535	-0.335195
C117	C	0.905548	-0.354145	-0.867920
C118	C	1.405548	0.145855	-0.367920
C119	C	0.910522	-0.287847	-0.835205
C120	C	1.410522	0.212153	-0.335205
C121	C	0.910520	-0.287872	-0.769770
C122	C	1.410520	0.212128	-0.269770
C123	C	0.905542	-0.354200	-0.737052
C124	C	1.405542	0.145800	-0.237052
C125	C	0.945642	-0.307026	-0.971616
C126	C	1.445642	0.192974	-0.471616
C127	C	0.945637	-0.306993	-1.037052
C128	C	1.445637	0.193007	-0.537052
C129	C	0.865454	-0.401146	-1.036990
C130	C	1.365454	0.098854	-0.536990
C131	C	0.865455	-0.401172	-0.971555
C132	C	1.365455	0.098828	-0.471555
C133	C	0.905553	-0.354113	-0.938872
C134	C	1.405553	0.145887	-0.438872
C135	C	0.905450	-0.354256	-0.139379
C136	C	1.405450	0.145744	0.360621
C137	C	0.905549	-0.354055	-0.069738
C138	C	1.405549	0.145945	0.430262
H139	H	0.346534	-0.365000	-0.404594
H140	H	0.846534	0.135000	0.095406
C141	C	0.272687	-0.453260	-0.386216
C142	C	0.772687	0.046740	0.113784
N143	N	0.299797	-0.492319	-0.419351
N144	N	0.799797	0.007681	0.080649
H145	H	0.978217	-0.784156	-0.229569
H146	H	1.478217	-0.284156	0.270431
C147	C	0.272651	-0.255288	-0.218224
C148	C	0.772651	0.244712	0.281776
N149	N	0.299748	-0.216240	-0.185072
N150	N	0.799748	0.283760	0.314928
C151	C	0.821298	-0.773273	-0.386232
C152	C	1.321298	-0.273273	0.113768
N153	N	0.788085	-0.741456	-0.419399
N154	N	1.288085	-0.241456	0.080601
C155	C	0.821353	-0.452968	-0.935536
C156	C	1.321353	0.047032	-0.435536
N157	N	0.788131	-0.491982	-0.908407
N158	N	1.288131	0.008018	-0.408407
H159	H	0.832791	-0.439669	-0.541255
H160	H	1.332791	0.060331	-0.041255
H161	H	0.978268	-0.923584	-0.229598
H162	H	1.478268	-0.423584	0.270402
C163	C	0.538878	-0.255350	-0.218132
C164	C	1.038878	0.244650	0.281868
N165	N	0.511761	-0.216291	-0.185003
N166	N	1.011761	0.283709	0.314997
C167	C	0.989741	-0.255371	-0.669434
C168	C	1.489741	0.244629	-0.169434
N169	N	1.022967	-0.216364	-0.696566
N170	N	1.522967	0.283636	-0.196566
C171	C	0.474614	-0.366724	-0.420678
C172	C	0.974614	0.133276	0.079322
N173	N	0.501770	-0.371622	-0.467434
N174	N	1.001770	0.128378	0.032566
C175	C	0.336960	-0.341891	-0.183661
C176	C	0.836960	0.158109	0.316339
N177	N	0.309809	-0.336983	-0.136903
N178	N	0.809809	0.163017	0.363097
C179	C	0.135279	-0.453232	-0.386260
C180	C	0.635279	0.046768	0.113740
N181	N	0.108183	-0.492293	-0.419401
N182	N	0.608183	0.007707	0.080599
H183	H	0.832798	-0.923691	-0.374805
H184	H	1.332798	-0.423691	0.125195
C185	C	0.989732	-0.255416	-0.532026
C186	C	1.489732	0.244584	-0.032026
N187	N	1.022946	-0.216415	-0.504949
N188	N	1.522946	0.283585	-0.004949
C189	C	0.915982	-0.214946	-0.733786
C190	C	1.415982	0.285054	-0.233786
N191	N	0.920092	-0.160016	-0.706682
N192	N	1.420092	0.339984	-0.206682
C193	C	0.915985	-0.214889	-0.871197
C194	C	1.415985	0.285111	-0.371197
N195	N	0.920100	-0.159940	-0.898310
N196	N	1.420100	0.340060	-0.398310
C197	C	0.989744	-0.255254	-0.935662
C198	C	1.489744	0.244746	-0.435662
N199	N	1.022961	-0.216258	-0.908583
N200	N	1.522961	0.283742	-0.408583
C201	C	0.135242	-0.255254	-0.218275
C202	C	0.635242	0.244746	0.281725
N203	N	0.108125	-0.216196	-0.185145
N204	N	0.608125	0.283804	0.314855
C205	C	0.989742	-0.255196	-1.073069
C206	C	1.489742	0.244804	-0.573069
N207	N	1.022964	-0.216183	-1.100198
N208	N	1.522964	0.283817	-0.600198
C209	C	0.821358	-0.452916	-1.072946
C210	C	1.321358	0.047084	-0.572946
N211	N	0.788144	-0.491910	-1.100030
N212	N	1.288144	0.008090	-0.600030
H213	H	0.896535	-0.474448	-0.861827
H214	H	1.396535	0.025552	-0.361827
C215	C	0.474365	-0.341934	-0.183610
C216	C	0.974365	0.158066	0.316390
N217	N	0.501421	-0.337057	-0.136832
N218	N	1.001421	0.162943	0.363168
C219	C	0.895122	-0.493451	-0.733771
C220	C	1.395122	0.006549	-0.233771
N221	N	0.891019	-0.548406	-0.706663
N222	N	1.391019	-0.048406	-0.206663
C223	C	0.821347	-0.453072	-0.669309
C224	C	1.321347	0.046928	-0.169309
N225	N	0.788128	-0.492060	-0.696394
N226	N	1.288128	0.007940	-0.196394
H227	H	0.666942	-0.268837	-0.229519
H228	H	1.166942	0.231163	0.270481
H229	H	0.548264	-0.439854	-0.374685
H230	H	1.048264	0.060146	0.125315
C231	C	0.676322	-0.453361	-0.386065
C232	C	1.176322	0.046639	0.113935
N233	N	0.703431	-0.492426	-0.419195
N234	N	1.203431	0.007574	0.080805
