data_functionalizedCrystal
_audit_creation_method	'MofGen! by Chris Wilmer'
_symmetry_space_group_name_H-M	'P1'
_symmetry_Int_Tables_number	1
_symmetry_cell_setting	triclinic
loop_
_symmetry_equiv_pos_as_xyz
  x,y,z
_cell_length_a	15.538191
_cell_length_b	15.944551
_cell_length_c	14.750779
_cell_angle_alpha	77.355667
_cell_angle_beta	97.572172
_cell_angle_gamma	65.385416
loop_
_atom_site_label
_atom_site_type_symbol
_atom_site_fract_x
_atom_site_fract_y
_atom_site_fract_z
O1	O	1.229446	-0.248345	-0.079831
O2	O	0.955193	-0.151359	-0.079833
O3	O	1.099811	-0.324413	-0.079824
O4	O	1.084828	-0.075291	-0.079841
O5	O	1.140693	-0.373329	0.079829
O6	O	0.996075	-0.200275	0.079820
O7	O	1.270328	-0.297261	0.079821
Zn8	Zn	1.139692	-0.256535	0.105169
Zn9	Zn	1.085829	-0.192085	-0.105181
O10	O	1.125710	-0.124207	0.079812
C11	C	0.940539	-0.165670	-0.000007
C12	C	0.835967	-0.135444	-0.000007
C13	C	1.119630	-0.379976	0.000003
C14	C	1.117766	-0.472653	0.000004
C15	C	0.548159	-0.435726	-0.000001
C16	C	0.449895	-0.407303	-0.000004
C17	C	0.427459	-0.247430	-0.000015
C18	C	0.525725	-0.275842	-0.000007
C19	C	0.586068	-0.369990	-0.000002
C20	C	0.563633	-0.210106	-0.000008
C21	C	0.661889	-0.238514	-0.000005
C22	C	0.722237	-0.332657	-0.000003
C23	C	0.684324	-0.398398	0.000001
C24	C	0.503287	-0.115955	-0.000020
C25	C	0.541195	-0.050219	-0.000021
C26	C	0.639455	-0.078629	-0.000012
C27	C	0.699803	-0.172773	-0.000009
C28	C	0.677369	-0.012888	-0.000015
C29	C	0.775625	-0.041296	-0.000013
C30	C	0.798059	-0.201180	-0.000006
C31	C	1.023667	-0.658813	-0.000010
C32	C	1.087519	-0.757273	0.078709
C33	C	1.114392	-0.642349	-0.000004
C34	C	1.047235	-0.709035	-0.078697
C35	C	1.111125	-0.806262	-0.000015
C36	C	1.178285	-0.739608	0.078780
C37	C	1.137970	-0.691338	-0.078696
C38	C	1.201893	-0.789807	0.000042
C39	C	1.116272	-0.547921	0.000004
C40	C	1.109254	-0.900693	-0.000016
C41	C	1.284982	-0.282950	-0.000007
C42	C	1.389552	-0.313173	-0.000013
C43	C	1.105890	-0.068644	-0.000017
C44	C	1.107753	0.024036	-0.000024
N45	N	1.176460	-0.300522	0.248727
N46	N	1.049069	-0.148107	-0.248739
C47	C	0.946383	-0.025293	0.600530
C48	C	0.972154	-0.056113	0.701031
C49	C	1.100240	-0.209318	0.701002
C50	C	1.074477	-0.178513	0.600499
C51	C	0.997548	-0.086499	0.550271
C52	C	1.125641	-0.239719	0.550240
C53	C	1.099883	-0.208913	0.449746
C54	C	1.022960	-0.116902	0.399511
C55	C	0.971790	-0.055693	0.449777
C56	C	1.202574	-0.331730	0.600470
C57	C	1.253739	-0.392936	0.550211
C58	C	1.227976	-0.362133	0.449715
C59	C	1.151053	-0.270122	0.399480
C60	C	1.279146	-0.423342	0.399449
C61	C	1.253388	-0.392536	0.298955
C62	C	1.125295	-0.239316	0.298986
H63	H	0.847196	-0.277847	0.000004
H64	H	1.001991	-0.091820	0.317682
O65	O	0.897052	0.033641	0.400828
C66	C	0.885310	0.047710	0.301354
H67	H	0.917005	-0.025580	0.287627
H68	H	0.804193	0.090460	0.263174
H69	H	0.925235	0.089626	0.272822
O70	O	0.413238	-0.471299	0.000039
C71	C	0.487564	-0.560476	0.000015
H72	H	0.562056	-0.566554	0.030246
H73	H	0.478887	-0.622382	0.046363
H74	H	0.481852	-0.564603	-0.076579
O75	O	0.743015	-0.489791	-0.000116
C76	C	0.779331	-0.485672	-0.082813
H77	H	0.777241	-0.412068	-0.110388
H78	H	0.857938	-0.545172	-0.064211
H79	H	0.732181	-0.496444	-0.140707
H80	H	0.802240	-0.355781	-0.000014
H81	H	1.066188	-0.786071	0.145259
H82	H	1.233685	-0.751722	0.145404
H83	H	0.492051	0.026438	-0.000029
H84	H	0.597296	-0.512393	0.000009
H85	H	0.883734	0.049631	0.559633
H86	H	0.806492	0.012231	-0.000004
O87	O	0.922311	0.003448	0.749705
C88	C	0.848906	0.091273	0.683818
H89	H	0.829487	0.079118	0.612181
H90	H	0.781126	0.118071	0.712868
H91	H	0.876745	0.147645	0.673127
O92	O	0.368716	-0.156029	0.000025
C93	C	0.273856	-0.145041	-0.000004
H94	H	0.277814	-0.219125	0.030219
H95	H	0.241219	-0.097396	0.046348
H96	H	0.225830	-0.109716	-0.076598
H97	H	1.162878	-0.284236	0.741909
O98	O	1.227606	-0.361816	0.698091
C99	C	1.217054	-0.446008	0.731669
H100	H	1.221512	-0.483615	0.673749
H101	H	1.277983	-0.497107	0.798887
H102	H	1.143135	-0.425382	0.749523
O103	O	0.407823	-0.088427	-0.000152
C104	C	0.359972	-0.097433	-0.082845
H105	H	0.416085	-0.152043	-0.110403
H106	H	0.304509	-0.123420	-0.064247
H107	H	0.320627	-0.024122	-0.140753
O108	O	0.618616	0.078578	-0.000154
C109	C	0.539958	0.125133	-0.082859
H110	H	0.527926	0.068424	-0.110422
H111	H	0.470873	0.173245	-0.064274
H112	H	0.557469	0.171374	-0.140757
O113	O	1.328390	-0.482389	0.598905
C114	C	1.306757	-0.553345	0.574371
H115	H	1.251753	-0.519822	0.501412
H116	H	1.376668	-0.615213	0.570923
H117	H	1.274357	-0.582376	0.630939
H118	H	1.341788	-0.498257	0.440358
O119	O	1.303158	-0.452127	0.250276
C120	C	1.376594	-0.539938	0.316157
H121	H	1.356342	-0.551099	0.387804
H122	H	1.383516	-0.602488	0.287114
H123	H	1.449303	-0.537234	0.326826
H124	H	1.062645	-0.164393	0.258089
O125	O	1.291896	-0.856696	0.000143
C126	C	1.356664	-0.815716	0.000947
H127	H	1.328411	-0.752353	0.031547
H128	H	1.432179	-0.872752	0.047388
H129	H	1.361778	-0.788907	-0.075441
O130	O	1.163245	-0.656774	-0.158116
C131	C	1.087473	-0.564254	-0.212063
H132	H	1.041869	-0.530229	-0.163270
H133	H	1.120341	-0.516479	-0.244560
H134	H	1.038938	-0.571239	-0.271981
O135	O	0.933883	-0.591789	0.000247
C136	C	0.907683	-0.625780	0.083389
H137	H	0.976539	-0.681946	0.141111
H138	H	0.866263	-0.562636	0.110860
H139	H	0.859061	-0.660242	0.065428
H140	H	0.991808	-0.697016	-0.145252
