data_functionalizedCrystal
_audit_creation_method	'MofGen! by Chris Wilmer'
_symmetry_space_group_name_H-M	'P1'
_symmetry_Int_Tables_number	1
_symmetry_cell_setting	triclinic
loop_
_symmetry_equiv_pos_as_xyz
  x,y,z
_cell_length_a	12.759394
_cell_length_b	21.395362
_cell_length_c	21.395355
_cell_angle_alpha	89.956060
_cell_angle_beta	90.014577
_cell_angle_gamma	89.969284
loop_
_atom_site_label
_atom_site_type_symbol
_atom_site_fract_x
_atom_site_fract_y
_atom_site_fract_z
Zn1	Zn	-0.417943	-0.957929	0.354603
Zn2	Zn	0.082057	-0.457929	0.854603
Zn3	Zn	-0.593608	-0.957860	0.249833
Zn4	Zn	-0.093608	-0.457860	0.749833
Zn5	Zn	-0.417992	-0.853143	0.249804
Zn6	Zn	0.082008	-0.353143	0.749804
Zn7	Zn	-0.593629	-0.853142	0.354537
Zn8	Zn	-0.093629	-0.353142	0.854537
O9	O	-0.505793	-0.905518	0.302194
O10	O	-0.005793	-0.405518	0.802194
O11	O	-0.441216	-1.045597	0.340744
O12	O	0.058784	-0.545597	0.840744
O13	O	-0.570323	-0.943941	0.162151
O14	O	-0.070323	-0.443941	0.662151
O15	O	-0.270964	-0.867073	0.263721
O16	O	0.229036	-0.367073	0.763721
O17	O	-0.570276	-1.045547	0.263770
O18	O	-0.070276	-0.545547	0.763770
O19	O	-0.270928	-0.944058	0.340717
O20	O	0.229072	-0.444058	0.840717
O21	O	-0.441299	-0.867006	0.162130
O22	O	0.058701	-0.367006	0.662130
O23	O	-0.441320	-0.765465	0.263658
O24	O	0.058680	-0.265465	0.763658
O25	O	-0.570313	-0.867070	0.442224
O26	O	-0.070313	-0.367070	0.942224
O27	O	-0.570360	-0.765464	0.340605
O28	O	-0.070360	-0.265464	0.840605
O29	O	-0.441237	-0.944056	0.442272
O30	O	0.058763	-0.444056	0.942272
O31	O	-0.740632	-0.943940	0.263706
O32	O	-0.240632	-0.443940	0.763706
O33	O	-0.740647	-0.867003	0.340632
O34	O	-0.240647	-0.367003	0.840632
C35	C	-0.505848	-0.742731	0.302121
C36	C	-0.005848	-0.242731	0.802121
C37	C	-0.505897	-0.673089	0.302105
C38	C	-0.005897	-0.173089	0.802105
C39	C	-0.778760	-0.905481	0.302179
C40	C	-0.278760	-0.405481	0.802179
C41	C	-0.895537	-0.905522	0.302193
C42	C	-0.395537	-0.405522	0.802193
C43	C	-0.505772	-0.905570	0.465618
C44	C	-0.005772	-0.405570	0.965618
C45	C	-0.505762	-0.905593	0.535259
C46	C	-0.005762	-0.405593	1.035259
C47	C	-0.895467	-0.985696	0.222150
C48	C	-0.395467	-0.485696	0.722150
C49	C	-0.950293	-1.025799	0.182136
C50	C	-0.450293	-0.525799	0.682136
C51	C	-1.060015	-1.025836	0.182153
C52	C	-0.560015	-0.525836	0.682153
C53	C	-1.114913	-0.985766	0.222190
C54	C	-0.614913	-0.485766	0.722190
C55	C	-1.060087	-0.945663	0.262204
C56	C	-0.560087	-0.445663	0.762204
C57	C	-0.950363	-0.945629	0.262182
C58	C	-0.450363	-0.445629	0.762182
C59	C	-1.060157	-0.865493	0.342250
C60	C	-0.560157	-0.365493	0.842250
C61	C	-0.950435	-0.865453	0.342230
C62	C	-0.450435	-0.365453	0.842230
C63	C	-1.115055	-0.825424	0.382286
C64	C	-0.615055	-0.325424	0.882286
C65	C	-1.060229	-0.785317	0.422298
C66	C	-0.560229	-0.285317	0.922298
C67	C	-0.950501	-0.785281	0.422279
C68	C	-0.450501	-0.285281	0.922279
C69	C	-0.895609	-0.825349	0.382244
C70	C	-0.395609	-0.325349	0.882244
C71	C	-0.231759	-0.905573	0.302223
C72	C	0.268241	-0.405573	0.802223
C73	C	-0.114983	-0.905597	0.302235
C74	C	0.385017	-0.405597	0.802235
C75	C	-0.505738	-1.068942	0.302267
C76	C	-0.005738	-0.568942	0.802267
C77	C	-0.505714	-1.138583	0.302299
C78	C	-0.005714	-0.638583	0.802299
C79	C	-0.573178	-0.640392	0.342112
C80	C	-0.073178	-0.140392	0.842112
C81	C	-0.573152	-0.574957	0.342139
C82	C	-0.073152	-0.074957	0.842139
C83	C	-0.505857	-0.542221	0.302150
C84	C	-0.005857	-0.042221	0.802150
C85	C	-0.438564	-0.574927	0.262141
C86	C	0.061436	-0.074927	0.762141
C87	C	-0.438584	-0.640361	0.262118
C88	C	0.061416	-0.140361	0.762118
C89	C	-0.497393	-0.438495	0.245744
C90	C	0.002607	0.061505	0.745744
C91	C	-0.497380	-0.373062	0.245766
C92	C	0.002620	0.126938	0.745766
C93	C	-0.505788	-0.340401	0.302219
C94	C	-0.005788	0.159599	0.802219
C95	C	-0.514231	-0.373180	0.358653
C96	C	-0.014231	0.126820	0.858653
C97	C	-0.514252	-0.438614	0.358631
C98	C	-0.014252	0.061386	0.858631
C99	C	-0.505827	-0.471269	0.302170
C100	C	-0.005827	0.028731	0.802170
C101	C	-0.573044	-0.236751	0.342259
C102	C	-0.073044	0.263249	0.842259
C103	C	-0.573011	-0.171314	0.342288
C104	C	-0.073011	0.328686	0.842288
C105	C	-0.438429	-0.171285	0.262284
C106	C	0.061571	0.328715	0.762284
C107	C	-0.438456	-0.236720	0.262260
C108	C	0.061544	0.263280	0.762260
C109	C	-0.505770	-0.269449	0.302247
C110	C	-0.005770	0.230551	0.802247
C111	C	-0.505738	-0.905503	0.139407
C112	C	-0.005738	-0.405503	0.639407
C113	C	-0.505451	-0.905602	0.069766
C114	C	-0.005451	-0.405602	0.569766
C115	C	-0.438550	-0.945678	0.567998
C116	C	0.061450	-0.445678	1.067998
C117	C	-0.438505	-0.945677	0.633433
C118	C	0.061495	-0.445677	1.133433
C119	C	-0.505691	-0.905597	0.666127
C120	C	-0.005691	-0.405597	1.166127
C121	C	-0.572908	-0.865505	0.633380
C122	C	-0.072908	-0.365505	1.133380
C123	C	-0.572944	-0.865502	0.567946
C124	C	-0.072944	-0.365502	1.067946
C125	C	-0.600292	-0.900637	0.769795
C126	C	-0.100292	-0.400637	1.269795
C127	C	-0.600258	-0.900644	0.835228
C128	C	-0.100258	-0.400644	1.335228
C129	C	-0.505580	-0.905601	0.867948
C130	C	-0.005580	-0.405601	1.367948
C131	C	-0.410933	-0.910565	0.835227
C132	C	0.089067	-0.410565	1.335227
C133	C	-0.410968	-0.910563	0.769793
C134	C	0.089032	-0.410563	1.269793
C135	C	-0.505659	-0.905595	0.737080
C136	C	-0.005659	-0.405595	1.237080
C137	C	-0.438313	-0.945688	0.971640
C138	C	0.061687	-0.445688	1.471640
C139	C	-0.438266	-0.945682	1.037076
C140	C	0.061734	-0.445682	1.537076
C141	C	-0.572679	-0.865513	1.037022
C142	C	-0.072679	-0.365513	1.537022
C143	C	-0.572716	-0.865515	0.971586
C144	C	-0.072716	-0.365515	1.471586
C145	C	-0.505535	-0.905606	0.938899
C146	C	-0.005535	-0.405606	1.438899
H147	H	-0.905585	-1.058425	0.149540
H148	H	-0.405585	-0.558425	0.649540
N149	N	-0.702418	-0.895296	0.734508
N150	N	-0.202418	-0.395296	1.234508
H151	H	-0.712261	-0.933464	0.707388
H152	H	-0.212261	-0.433464	1.207388
H153	H	-0.700971	-0.856665	0.707365
H154	H	-0.200971	-0.356665	1.207365
N155	N	-0.645358	-0.822265	0.668638
N156	N	-0.145358	-0.322265	1.168638
H157	H	-0.635135	-0.828348	0.715059
H158	H	-0.135135	-0.328348	1.215059
H159	H	-0.720400	-0.831992	0.657214
H160	H	-0.220400	-0.331992	1.157214
N161	N	-0.366074	-0.988899	0.532736
N162	N	0.133926	-0.488899	1.032736
H163	H	-0.408767	-1.017925	0.505606
H164	H	0.091233	-0.517925	1.005606
H165	H	-0.323492	-1.014251	0.563443
H166	H	0.176508	-0.514251	1.063443
N167	N	-0.366025	-0.675630	0.218959
N168	N	0.133975	-0.175630	0.718959
H169	H	-0.376254	-0.722048	0.225011
H170	H	0.123746	-0.222048	0.725011
H171	H	-0.291010	-0.664239	0.228792
H172	H	0.208990	-0.164239	0.728792
H173	H	-1.104936	-0.752698	0.454896
H174	H	-0.604936	-0.252698	0.954896
H175	H	-0.333904	-0.914603	0.743154
H176	H	0.166096	-0.414603	1.243154
N177	N	-0.645149	-0.822287	1.072277
N178	N	-0.145149	-0.322287	1.572277
H179	H	-0.687738	-0.796894	1.041604
H180	H	-0.187738	-0.296894	1.541604
H181	H	-0.602377	-0.793301	1.099402
H182	H	-0.102377	-0.293301	1.599402
N183	N	-0.308800	-0.915905	0.870503
N184	N	0.191200	-0.415905	1.370503
H185	H	-0.273041	-0.956461	0.859145
H186	H	0.226959	-0.456461	1.359145
H187	H	-0.323209	-0.915121	0.916909
H188	H	0.176791	-0.415121	1.416909
H189	H	-0.521123	-0.465300	0.404581
H190	H	-0.021123	0.034700	0.904581
N191	N	-0.645214	-0.822290	0.936261
N192	N	-0.145214	-0.322290	1.436261
H193	H	-0.602534	-0.793266	0.909090
H194	H	-0.102534	-0.293266	1.409090
H195	H	-0.687764	-0.796936	0.966931
H196	H	-0.187764	-0.296936	1.466931
H197	H	-0.627675	-0.832857	0.541290
H198	H	-0.127675	-0.332857	1.041290
N199	N	-0.365906	-0.271998	0.219105
N200	N	0.134094	0.228002	0.719105
H201	H	-0.317293	-0.299196	0.244611
H202	H	0.182707	0.200804	0.744611
H203	H	-0.323336	-0.241298	0.193781
H204	H	0.176664	0.258702	0.693781
H205	H	-0.521076	-0.346588	0.404623
H206	H	-0.021076	0.153412	0.904623
N207	N	-0.645587	-0.136044	0.385436
N208	N	-0.145587	0.363956	0.885436
H209	H	-0.629400	-0.147490	0.430218
H210	H	-0.129400	0.352510	0.930218
H211	H	-0.720600	-0.147403	0.375560
H212	H	-0.220600	0.352597	0.875560
N213	N	-0.366008	-0.988913	0.668756
N214	N	0.133992	-0.488913	1.168756
H215	H	-0.323454	-1.014308	0.638120
H216	H	0.176546	-0.514308	1.138120
H217	H	-0.408759	-1.017897	0.695927
H218	H	0.091241	-0.517897	1.195927
N219	N	-0.645638	-0.272057	0.385387
N220	N	-0.145638	0.227943	0.885387
H221	H	-0.688252	-0.241411	0.410739
H222	H	-0.188252	0.258589	0.910739
H223	H	-0.602954	-0.299259	0.414415
H224	H	-0.102954	0.200741	0.914415
N225	N	-0.891380	-0.742022	0.465438
N226	N	-0.391380	-0.242022	0.965438
H227	H	-0.845935	-0.712980	0.439935
H228	H	-0.345935	-0.212980	0.939935
H229	H	-0.845841	-0.767499	0.494489
H230	H	-0.345841	-0.267499	0.994489
H231	H	-0.383631	-0.144633	0.229726
H232	H	0.116369	0.355367	0.729726
N233	N	-0.777268	-0.825310	0.382218
N234	N	-0.277268	-0.325310	0.882218
H235	H	-0.750751	-0.868279	0.393778
H236	H	-0.250751	-0.368279	0.893778
H237	H	-0.750946	-0.793798	0.413635
H238	H	-0.250946	-0.293798	0.913635
N239	N	-0.645776	-0.675692	0.385238
N240	N	-0.145776	-0.175692	0.885238
H241	H	-0.688394	-0.645045	0.410587
H242	H	-0.188394	-0.145045	0.910587
H243	H	-0.603094	-0.702892	0.414271
H244	H	-0.103094	-0.202892	0.914271
N245	N	-1.233397	-0.825456	0.382306
N246	N	-0.733397	-0.325456	0.882306
H247	H	-1.259770	-0.836965	0.425304
H248	H	-0.759770	-0.336965	0.925304
H249	H	-1.259718	-0.856933	0.350853
H250	H	-0.759718	-0.356933	0.850853
N251	N	-0.365854	-0.988923	0.936379
N252	N	0.134146	-0.488923	1.436379
H253	H	-0.323261	-1.014314	0.967051
H254	H	0.176739	-0.514314	1.467051
H255	H	-0.317260	-0.963429	0.909206
H256	H	0.182740	-0.463429	1.409206
H257	H	-0.383527	-0.978324	1.063732
H258	H	0.116473	-0.478324	1.563732
N259	N	-0.702336	-0.895295	0.870517
N260	N	-0.202336	-0.395295	1.370517
H261	H	-0.762318	-0.892147	0.839862
H262	H	-0.262318	-0.392147	1.339862
H263	H	-0.700817	-0.856692	0.897640
H264	H	-0.200817	-0.356692	1.397640
H265	H	-0.490512	-0.346378	0.199814
H266	H	0.009488	0.153622	0.699814
H267	H	-1.204254	-0.985805	0.222206
H268	H	-0.704254	-0.485805	0.722206
H269	H	-0.806126	-0.985662	0.222124
H270	H	-0.306126	-0.485662	0.722124
H271	H	-1.104654	-1.058494	0.149573
H272	H	-0.604654	-0.558494	0.649573
N273	N	-0.488319	-0.473720	0.184852
N274	N	0.011681	0.026280	0.684852
H275	H	-0.482977	-0.443028	0.149106
H276	H	0.017023	0.056972	0.649106
H277	H	-0.552327	-0.500835	0.178960
H278	H	-0.052327	-0.000835	0.678960
H279	H	-0.627939	-0.548329	0.374720
H280	H	-0.127939	-0.048329	0.874720
H281	H	-0.383770	-0.548269	0.229582
H282	H	0.116230	-0.048269	0.729582
