data_functionalizedCrystal
_audit_creation_method	'MofGen! by Chris Wilmer'
_symmetry_space_group_name_H-M	'P1'
_symmetry_Int_Tables_number	1
_symmetry_cell_setting	triclinic
loop_
_symmetry_equiv_pos_as_xyz
  x,y,z
_cell_length_a	10.489711
_cell_length_b	19.188924
_cell_length_c	8.965430
_cell_angle_alpha	89.998356
_cell_angle_beta	89.994616
_cell_angle_gamma	83.834486
loop_
_atom_site_label
_atom_site_type_symbol
_atom_site_fract_x
_atom_site_fract_y
_atom_site_fract_z
O1	O	1.691871	0.098399	-0.124101
O2	O	1.320463	0.107666	-0.124093
O3	O	1.516889	0.001448	-0.124079
O4	O	1.495444	0.204617	-0.124114
O5	O	1.516873	0.001455	0.123999
O6	O	1.320446	0.107673	0.123986
O7	O	1.691854	0.098406	0.123978
Cu8	Cu	1.506149	0.103040	0.146634
Cu9	Cu	1.506168	0.103032	-0.146748
O10	O	1.495427	0.204624	0.123965
C11	C	1.272938	0.106974	-0.000052
C12	C	1.131353	0.104893	-0.000048
C13	C	0.947535	0.168770	-0.000076
C14	C	1.040404	0.136859	-0.122384
C15	C	1.040361	0.136849	0.122202
C16	C	0.971968	0.069240	-0.122489
C17	C	0.971915	0.069239	0.122208
C18	C	1.064757	0.037279	-0.000130
C19	C	1.516188	-0.024564	-0.000039
C20	C	1.514108	-0.102083	-0.000035
C21	C	1.513146	-0.138492	-0.135263
C22	C	1.511173	-0.211328	-0.135274
C23	C	1.510188	-0.247753	-0.000050
C24	C	1.511143	-0.211335	0.135196
C25	C	1.513103	-0.138500	0.135204
N26	N	1.579687	-0.366952	0.100593
N27	N	1.577827	-0.436143	0.100577
C28	C	1.504280	-0.467202	-0.000064
N29	N	1.432678	-0.426457	-0.100710
N30	N	1.434543	-0.357261	-0.100698
C31	C	1.508062	-0.326731	-0.000043
C32	C	1.501177	-0.582588	-0.135313
C33	C	1.499196	-0.655424	-0.135319
C34	C	1.499179	-0.655431	0.135155
C35	C	1.501147	-0.582595	0.135157
C36	C	1.502152	-0.546178	-0.000081
C37	C	1.739379	0.099098	-0.000066
C38	C	1.880964	0.101179	-0.000080
C39	C	1.496129	0.230637	-0.000079
C40	C	1.498209	0.308155	-0.000093
N41	N	1.506144	0.103046	0.352983
N42	N	1.506183	0.103021	-0.353097
C43	C	1.415276	0.152152	0.450282
C44	C	1.530457	0.166272	0.549691
C45	C	1.391011	0.088931	0.549702
C46	C	1.621384	0.117198	0.450202
C47	C	1.481862	0.039829	0.450204
C48	C	1.597127	0.053923	0.549568
H49	H	1.070765	0.165458	-0.225793
H50	H	1.510382	-0.240978	-0.245396
H51	H	1.551022	0.219722	0.593390
H52	H	1.498407	-0.685067	-0.245443
H53	H	1.115461	-0.018327	-0.000183
C54	C	1.502267	-0.542525	-0.284066
H55	H	1.501393	-0.574643	-0.364608
H56	H	1.577396	-0.519070	-0.289689
H57	H	1.428664	-0.509154	-0.289680
H58	H	0.941806	0.040664	-0.226012
H59	H	1.293629	0.077005	0.593411
H60	H	1.510337	-0.240997	0.245297
H61	H	1.718787	0.129189	0.406680
H62	H	0.941526	0.040666	0.225625
H63	H	1.674071	0.012383	0.592888
H64	H	1.070669	0.165463	0.225605
H65	H	1.513880	-0.108855	0.245326
C66	C	0.878704	0.243813	-0.000258
H67	H	0.901971	0.267711	-0.087281
H68	H	0.903090	0.268074	0.085748
H69	H	0.788573	0.241945	0.000613
C70	C	1.454031	-0.032351	0.391107
H71	H	1.372136	-0.042301	0.425113
H72	H	1.517756	-0.067340	0.426578
H73	H	1.454999	-0.031936	0.285155
C74	C	1.502226	-0.542544	0.283910
H75	H	1.501368	-0.574668	0.364446
H76	H	1.428632	-0.509173	0.289541
H77	H	1.577365	-0.519091	0.289527
H78	H	1.338501	0.193718	0.406689
C79	C	1.514229	-0.098436	-0.284019
H80	H	1.513360	-0.130555	-0.364558
H81	H	1.589351	-0.074975	-0.289647
H82	H	1.440617	-0.065070	-0.289632
C83	C	1.498085	-0.695490	0.283900
H84	H	1.496783	-0.744083	0.264530
H85	H	1.424039	-0.678595	0.339462
H86	H	1.572772	-0.688514	0.339468
