data_functionalizedCrystal
_audit_creation_method	'MofGen! by Chris Wilmer'
_symmetry_space_group_name_H-M	'P1'
_symmetry_Int_Tables_number	1
_symmetry_cell_setting	triclinic
loop_
_symmetry_equiv_pos_as_xyz
  x,y,z
_cell_length_a	12.759401
_cell_length_b	19.120786
_cell_length_c	12.759393
_cell_angle_alpha	87.524000
_cell_angle_beta	89.980324
_cell_angle_gamma	92.465677
loop_
_atom_site_label
_atom_site_type_symbol
_atom_site_fract_x
_atom_site_fract_y
_atom_site_fract_z
Zn1	Zn	1.588346	-0.279590	-0.576101
Zn2	Zn	1.580707	-0.397064	-0.392907
Zn3	Zn	1.412642	-0.279625	-0.400437
Zn4	Zn	1.405110	-0.397013	-0.568551
O5	O	1.496701	-0.338323	-0.484499
O6	O	1.734353	-0.295180	-0.551807
O7	O	1.558368	-0.381522	-0.246882
O8	O	1.442299	-0.181329	-0.430051
O9	O	1.728741	-0.381488	-0.417216
O10	O	1.571387	-0.181303	-0.559110
O11	O	1.434892	-0.295240	-0.252415
O12	O	1.264622	-0.295190	-0.422730
O13	O	1.429461	-0.381400	-0.716576
O14	O	1.259088	-0.381434	-0.546242
O15	O	1.564083	-0.295130	-0.722123
O16	O	1.551065	-0.495348	-0.409895
O17	O	1.422054	-0.495310	-0.538940
C18	C	1.223735	-0.338311	-0.484485
C19	C	1.106957	-0.338322	-0.484503
C20	C	1.055013	-0.293463	-0.554683
C21	C	0.945288	-0.293470	-0.554690
C22	C	0.939462	-0.383202	-0.414332
C23	C	1.049184	-0.383191	-0.414321
C24	C	1.484942	-0.520815	-0.472804
C25	C	1.480007	-0.598886	-0.467836
C26	C	1.544848	-0.635490	-0.532750
C27	C	1.540207	-0.708846	-0.528084
C28	C	1.470730	-0.745596	-0.458497
C29	C	1.405881	-0.708987	-0.393580
C30	C	1.410518	-0.635633	-0.398252
C31	C	1.453366	-0.967083	-0.441031
C32	C	1.448737	-1.040443	-0.436361
C33	C	1.583062	-1.040297	-0.570867
C34	C	1.587697	-0.966941	-0.575529
C35	C	1.522844	-0.930338	-0.510615
C36	C	1.465987	-0.820578	-0.453724
C37	C	1.527583	-0.855358	-0.515395
C38	C	1.770734	-0.338335	-0.484514
C39	C	1.887510	-0.338341	-0.484520
C40	C	1.496784	-0.338255	-0.758537
C41	C	1.496819	-0.338227	-0.875315
C42	C	1.508535	-0.155118	-0.496263
C43	C	1.513578	-0.077047	-0.501276
C44	C	1.566923	-0.293299	-0.933068
C45	C	1.566943	-0.293268	-1.042794
C46	C	1.426752	-0.383100	-1.037005
C47	C	1.426728	-0.383126	-0.927281
C48	C	1.496682	-0.338339	-0.211530
C49	C	1.496863	-0.338170	-0.094765
H50	H	0.892410	-0.419733	-0.357194
H51	H	1.400563	-0.937287	-0.388173
H52	H	1.091478	-0.419722	-0.357166
H53	H	1.392155	-1.070363	-0.379694
C54	C	1.390454	-0.860354	-0.378135
C55	C	1.334640	-0.812601	-0.322292
C56	C	1.265039	-0.849219	-0.252664
H57	H	1.428746	-0.888973	-0.330484
H58	H	1.342792	-0.888960	-0.416443
H59	H	1.382296	-0.784007	-0.283987
H60	H	1.296327	-0.783981	-0.369916
H61	H	1.217377	-0.877826	-0.290972
H62	H	1.303340	-0.877837	-0.205020
H63	H	1.227155	-0.816825	-0.214773
H64	H	1.349307	-0.738915	-0.336925
H65	H	1.601428	-0.605572	-0.589411
H66	H	1.624026	-0.256682	-1.089811
H67	H	1.357716	-0.605830	-0.345393
C68	C	0.888751	-0.244882	-0.630945
C69	C	0.823207	-0.284713	-0.695618
C70	C	0.771099	-0.239974	-0.765870
H71	H	0.938757	-0.218144	-0.672839
H72	H	0.847840	-0.214257	-0.592830
H73	H	0.864115	-0.315325	-0.733730
H74	H	0.773181	-0.311449	-0.653753
H75	H	0.730188	-0.209350	-0.727755
H76	H	0.821113	-0.213239	-0.807756
H77	H	0.726615	-0.266993	-0.809753
C78	C	1.610751	-0.748461	-0.598592
C79	C	1.672620	-0.700576	-0.660500
C80	C	1.737637	-0.737043	-0.725449
H81	H	1.568865	-0.777085	-0.642614
H82	H	1.654789	-0.777049	-0.556625
H83	H	1.628587	-0.671999	-0.702462
H84	H	1.714527	-0.671950	-0.616505
H85	H	1.781675	-0.765631	-0.683483
H86	H	1.695743	-0.765666	-0.769465
H87	H	1.779630	-0.704558	-0.767455
H88	H	1.369688	-0.419658	-1.079329
H89	H	1.584148	-0.825433	-0.572057
H90	H	1.635859	-1.070107	-0.623717
H91	H	1.644271	-0.937020	-0.632192
H92	H	1.623993	-0.256736	-0.890760
C93	C	1.350735	-0.432027	-0.864617
C94	C	1.369143	-0.501520	-0.886821
C95	C	1.299171	-0.546582	-0.829103
H96	H	1.280769	-0.421833	-0.883196
H97	H	1.360766	-0.425657	-0.791815
H98	H	1.359105	-0.507887	-0.959607
H99	H	1.439096	-0.511736	-0.868237
H100	H	1.309201	-0.540212	-0.756301
H101	H	1.229208	-0.536382	-0.847687
H102	H	1.311657	-0.593738	-0.844153
C103	C	1.117554	-0.244670	-0.630918
C104	C	1.048574	-0.205373	-0.692361
C105	C	1.106146	-0.160409	-0.762590
H106	H	1.158656	-0.271493	-0.674999
H107	H	1.162289	-0.213991	-0.592790
H108	H	1.003857	-0.236048	-0.730486
H109	H	1.007470	-0.178536	-0.648308
H110	H	1.150880	-0.129731	-0.724462
H111	H	1.147245	-0.187238	-0.806664
H112	H	1.059352	-0.133736	-0.804281
