data_functionalizedCrystal
_audit_creation_method	'MofGen! by Chris Wilmer'
_symmetry_space_group_name_H-M	'P1'
_symmetry_Int_Tables_number	1
_symmetry_cell_setting	triclinic
loop_
_symmetry_equiv_pos_as_xyz
  x,y,z
_cell_length_a	10.540539
_cell_length_b	14.971486
_cell_length_c	13.448316
_cell_angle_alpha	89.993189
_cell_angle_beta	89.995318
_cell_angle_gamma	84.069810
loop_
_atom_site_label
_atom_site_type_symbol
_atom_site_fract_x
_atom_site_fract_y
_atom_site_fract_z
O1	O	1.684461	0.126055	-0.082646
O2	O	2.184461	0.626055	0.417354
O3	O	1.314913	0.137932	-0.082658
O4	O	1.814913	0.637932	0.417342
O5	O	1.509592	0.001850	-0.082644
O6	O	2.009592	0.501850	0.417356
O7	O	1.489782	0.262138	-0.082659
O8	O	1.989782	0.762138	0.417341
O9	O	1.509567	0.001841	0.082739
O10	O	2.009567	0.501841	0.582739
O11	O	1.314888	0.137924	0.082726
O12	O	1.814888	0.637924	0.582726
O13	O	1.684436	0.126047	0.082738
O14	O	2.184436	0.626047	0.582738
Cu15	Cu	1.499660	0.131984	0.097833
Cu16	Cu	1.999660	0.631984	0.597833
Cu17	Cu	1.499689	0.131995	-0.097753
Cu18	Cu	1.999689	0.631995	0.402247
O19	O	1.489757	0.262129	0.082725
O20	O	1.989757	0.762129	0.582725
C21	C	1.267608	0.137037	0.000032
C22	C	1.767608	0.637037	0.500032
C23	C	1.126690	0.134372	0.000028
C24	C	1.626690	0.634372	0.500028
C25	C	1.508693	-0.031484	0.000047
C26	C	2.008693	0.468516	0.500047
C27	C	1.506039	-0.130797	0.000046
C28	C	2.006039	0.369203	0.500046
C29	C	1.620407	-0.187377	0.000051
C30	C	2.120407	0.312623	0.500051
C31	C	1.617905	-0.280691	0.000041
C32	C	2.117905	0.219309	0.500041
C33	C	1.501033	-0.317422	0.000033
C34	C	2.001033	0.182578	0.500033
C35	C	1.386656	-0.260834	0.000026
C36	C	1.886656	0.239166	0.500026
C37	C	1.389159	-0.167522	0.000029
C38	C	1.889159	0.332478	0.500029
C39	C	1.381446	-0.455325	0.000022
C40	C	1.881446	0.044675	0.500022
C41	C	1.378942	-0.548644	0.000021
C42	C	1.878942	-0.048644	0.500021
C43	C	1.610192	-0.568495	0.000034
C44	C	2.110192	-0.068495	0.500034
C45	C	1.612695	-0.475183	0.000037
C46	C	2.112695	0.024817	0.500037
C47	C	1.498317	-0.418601	0.000031
C48	C	1.998317	0.081399	0.500031
C49	C	0.944422	0.032264	0.000420
C50	C	1.444422	0.532264	0.500420
C51	C	1.091009	0.034965	0.000037
C52	C	1.591009	0.534965	0.500037
C53	C	1.064488	0.182216	-0.094413
C54	C	1.564488	0.682216	0.405587
C55	C	0.917982	0.178824	-0.094482
C56	C	1.417982	0.678824	0.405518
C57	C	0.917443	0.180836	0.093590
C58	C	1.417443	0.680836	0.593590
C59	C	1.064415	0.181752	0.094828
C60	C	1.564415	0.681752	0.594828
C61	C	1.731741	0.126942	0.000046
C62	C	2.231741	0.626942	0.500046
C63	C	1.872659	0.129607	0.000044
C64	C	2.372659	0.629607	0.500044
C65	C	1.490656	0.295463	0.000031
C66	C	1.990656	0.795463	0.500031
C67	C	1.493310	0.394775	0.000025
C68	C	1.993310	0.894775	0.500025
N69	N	1.499649	0.131977	0.235397
N70	N	1.999649	0.631977	0.735397
N71	N	1.499710	0.131995	-0.235317
N72	N	1.999710	0.631995	0.264683
C73	C	1.585879	0.071745	0.287444
C74	C	2.085879	0.571745	0.787444
C75	C	1.585887	0.071744	0.391547
C76	C	2.085887	0.571744	0.891547
C77	C	1.499670	0.131980	0.443602
C78	C	1.999670	0.631980	0.943602
C79	C	1.413430	0.192215	0.391548
C80	C	1.913430	0.692215	0.891548
C81	C	1.413417	0.192211	0.287447
C82	C	1.913417	0.692211	0.787447
C83	C	1.413465	0.192222	0.608528
C84	C	1.913465	0.692222	1.108528
C85	C	1.413480	0.192227	0.712637
C86	C	1.913480	0.692227	1.212637
C87	C	1.585936	0.071754	0.712628
C88	C	2.085936	0.571754	1.212628
C89	C	1.585923	0.071750	0.608527
C90	C	2.085923	0.571750	1.108527
C91	C	1.499684	0.131987	0.556480
C92	C	1.999684	0.631987	1.056480
H93	H	1.715578	-0.157479	0.000063
H94	H	2.215578	0.342521	0.500063
F95	F	0.907622	-0.019072	0.088948
F96	F	1.407622	0.480928	0.588948
H97	H	1.086013	0.255219	-0.097931
H98	H	1.586013	0.755219	0.402069
H99	H	1.105763	0.146800	0.164696
H100	H	1.605763	0.646800	0.664696
H101	H	1.288307	-0.409258	0.000015
H102	H	1.788307	0.090742	0.500015
H103	H	0.869203	0.250316	-0.098772
H104	H	1.369203	0.750316	0.401228
H105	H	1.711035	-0.326756	0.000047
H106	H	2.211035	0.173244	0.500047
F107	F	1.677652	0.007635	0.232053
F108	F	2.177652	0.507635	0.732053
H109	H	1.656102	0.022698	0.433923
H110	H	2.156102	0.522698	0.933923
F111	F	0.854651	0.274685	0.094420
F112	F	1.354651	0.774685	0.594420
H113	H	1.656133	0.022705	0.566144
H114	H	2.156133	0.522705	1.066144
H115	H	1.087818	0.254226	0.100526
H116	H	1.587818	0.754226	0.600526
H117	H	0.890184	0.143470	-0.165074
H118	H	1.390184	0.643470	0.334926
F119	F	1.677717	0.007648	0.768024
F120	F	2.177717	0.507648	1.268024
F121	F	1.737083	-0.436093	0.000043
F122	F	2.237083	0.063907	0.500043
F123	F	1.321713	0.256339	0.768030
F124	F	1.821713	0.756339	1.268030
H125	H	1.343236	0.241270	0.566155
H126	H	1.843236	0.741270	1.066155
F127	F	1.262271	-0.299928	0.000006
F128	F	1.762271	0.200072	0.500006
H129	H	1.343224	0.241258	0.433937
H130	H	1.843224	0.741258	0.933937
H131	H	1.343198	0.241257	0.245072
H132	H	1.843198	0.741257	0.745072
F133	F	1.120657	0.138786	-0.186278
F134	F	1.620657	0.638786	0.313722
F135	F	1.731922	-0.628714	0.000036
F136	F	2.231922	-0.128714	0.500036
F137	F	0.876680	0.138780	0.187159
F138	F	1.376680	0.638780	0.687159
F139	F	1.254554	-0.587733	0.000014
F140	F	1.754554	-0.087733	0.500014
H141	H	1.296028	-0.121454	0.000025
H142	H	1.796028	0.378546	0.500025
H143	H	0.914668	-0.006838	-0.066928
H144	H	1.414668	0.493162	0.433072
F145	F	1.147258	-0.014241	0.088524
F146	F	1.647258	0.485759	0.588524
H147	H	1.133195	-0.002938	-0.067776
H148	H	1.633195	0.497062	0.432224
