data_functionalizedCrystal
_audit_creation_method	'MofGen! by Chris Wilmer'
_symmetry_space_group_name_H-M	'P1'
_symmetry_Int_Tables_number	1
_symmetry_cell_setting	triclinic
loop_
_symmetry_equiv_pos_as_xyz
  x,y,z
_cell_length_a	16.625547
_cell_length_b	29.839131
_cell_length_c	16.625539
_cell_angle_alpha	89.960252
_cell_angle_beta	89.975178
_cell_angle_gamma	90.035164
loop_
_atom_site_label
_atom_site_type_symbol
_atom_site_fract_x
_atom_site_fract_y
_atom_site_fract_z
Zn1	Zn	1.232609	-0.178853	-0.455937
Zn2	Zn	1.232482	-0.253984	-0.321077
Zn3	Zn	1.097771	-0.178869	-0.321107
Zn4	Zn	1.097711	-0.253957	-0.455857
O5	O	1.165143	-0.216416	-0.388494
O6	O	1.345425	-0.188824	-0.438068
O7	O	1.214584	-0.244038	-0.208249
O8	O	1.115735	-0.116000	-0.339039
O9	O	1.345331	-0.244023	-0.338987
O10	O	1.214800	-0.115988	-0.438097
O11	O	1.115612	-0.188851	-0.208271
O12	O	0.984931	-0.188825	-0.338961
O13	O	1.115634	-0.243976	-0.568700
O14	O	0.984887	-0.243991	-0.437961
O15	O	1.214743	-0.188798	-0.568759
O16	O	1.214526	-0.316848	-0.338910
O17	O	1.115511	-0.316828	-0.437932
C18	C	0.955652	-0.216407	-0.388456
C19	C	0.866031	-0.216414	-0.388459
C20	C	0.793249	-0.216415	-0.388469
C21	C	0.701940	-0.216417	-0.388489
C22	C	0.629164	-0.216422	-0.388510
C23	C	0.537850	-0.216425	-0.388529
C24	C	1.165020	-0.333138	-0.388426
C25	C	1.165041	-0.383073	-0.388424
C26	C	1.216715	-0.692675	-0.440148
C27	C	1.216803	-0.880348	-0.440196
O28	O	1.260617	-0.904578	-0.484123
N29	N	1.165280	-0.903858	-0.388584
C30	C	1.113728	-0.880446	-0.336960
O31	O	1.069902	-0.904749	-0.293067
C32	C	1.113637	-0.692774	-0.336916
C33	C	1.165169	-0.669267	-0.388526
C34	C	1.268242	-0.669168	-0.491754
C35	C	1.268223	-0.622253	-0.491738
C36	C	1.216677	-0.598844	-0.440116
C37	C	1.165150	-0.622352	-0.388510
C38	C	1.062082	-0.669363	-0.285296
C39	C	1.062063	-0.622442	-0.285291
C40	C	1.113594	-0.598935	-0.336901
C41	C	1.113584	-0.552028	-0.336872
N42	N	1.165107	-0.528518	-0.388484
C43	C	1.216653	-0.551927	-0.440107
C44	C	1.113781	-0.978977	-0.336985
C45	C	1.113805	-1.025895	-0.336995
C46	C	1.216878	-1.025794	-0.440233
C47	C	1.216858	-0.978875	-0.440218
C48	C	1.165303	-0.955467	-0.388597
C49	C	1.216609	-0.453401	-0.440069
C50	C	1.216588	-0.406481	-0.440046
C51	C	1.113512	-0.406586	-0.336812
C52	C	1.113536	-0.453502	-0.336831
C53	C	1.165087	-0.476908	-0.388466
O54	O	1.069787	-0.527769	-0.292975
O55	O	1.260461	-0.527616	-0.484005
C56	C	1.216735	-0.739591	-0.440164
C57	C	1.165208	-0.763098	-0.388557
C58	C	1.113662	-0.739690	-0.336935
C59	C	1.165231	-0.810016	-0.388567
C60	C	1.216777	-0.833424	-0.440189
C61	C	1.268300	-0.809915	-0.491801
C62	C	1.268281	-0.762999	-0.491786
C63	C	1.062139	-0.763199	-0.285323
C64	C	1.062163	-0.810115	-0.285342
C65	C	1.113709	-0.833523	-0.336964
C66	C	1.375452	-0.216425	-0.388533
C67	C	1.465073	-0.216429	-0.388550
C68	C	1.165196	-0.216382	-0.598803
C69	C	1.165218	-0.216368	-0.688425
C70	C	1.165289	-0.099237	-0.388580
C71	C	1.165351	-0.049303	-0.388617
C72	C	1.165255	-0.216318	-1.016601
C73	C	1.165243	-0.216333	-0.925292
C74	C	1.165237	-0.216343	-0.852515
C75	C	1.165224	-0.216358	-0.761201
C76	C	1.165137	-0.216417	-0.179004
C77	C	1.165271	-0.216304	-0.089383
H78	H	1.258582	-0.472452	-0.482121
O79	O	1.323815	-0.596901	-0.547391
H80	H	1.359658	-0.621067	-0.583284
O81	O	1.272443	-0.953523	-0.495880
H82	H	1.258585	-0.962506	-0.559151
O83	O	1.272468	-1.051044	-0.495922
H84	H	1.263815	-1.087618	-0.487260
O85	O	1.058235	-1.051249	-0.281322
H86	H	0.994941	-1.042271	-0.295091
H87	H	1.071798	-0.959922	-0.294947
O88	O	1.272171	-0.381126	-0.495713
H89	H	1.313208	-0.359753	-0.459653
H90	H	1.020163	-0.744144	-0.243287
O91	O	1.323846	-0.694413	-0.547433
H92	H	1.359669	-0.670177	-0.583307
H93	H	1.020120	-0.688495	-0.243269
O94	O	1.006464	-0.597194	-0.229606
H95	H	0.970645	-0.621426	-0.193719
O96	O	1.057959	-0.478861	-0.281167
H97	H	1.022111	-0.454699	-0.245271
O98	O	1.057914	-0.381335	-0.281136
H99	H	1.066556	-0.344762	-0.289808
O100	O	1.323872	-0.737651	-0.547445
H101	H	1.310014	-0.746632	-0.610717
O102	O	1.323891	-0.835166	-0.547489
H103	H	1.315235	-0.871739	-0.538829
H104	H	1.020201	-0.829250	-0.243308
