data_functionalizedCrystal
_audit_creation_method	'MofGen! by Chris Wilmer'
_symmetry_space_group_name_H-M	'P1'
_symmetry_Int_Tables_number	1
_symmetry_cell_setting	triclinic
loop_
_symmetry_equiv_pos_as_xyz
  x,y,z
_cell_length_a	10.654562
_cell_length_b	10.654541
_cell_length_c	9.730217
_cell_angle_alpha	89.996959
_cell_angle_beta	89.995772
_cell_angle_gamma	84.487016
loop_
_atom_site_label
_atom_site_type_symbol
_atom_site_fract_x
_atom_site_fract_y
_atom_site_fract_z
O1	O	1.667825	0.176473	-0.114380
O2	O	1.302348	0.193262	-0.114363
O3	O	1.493491	0.002128	-0.114363
O4	O	1.476682	0.367607	-0.114379
O5	O	1.493485	0.002127	0.114217
O6	O	1.302343	0.193261	0.114217
O7	O	1.667819	0.176471	0.114200
Zn8	Zn	1.485080	0.184866	0.150501
Zn9	Zn	1.485088	0.184868	-0.150663
O10	O	1.476676	0.367605	0.114201
C11	C	1.255548	0.192025	-0.000070
C12	C	1.116105	0.188327	-0.000064
C13	C	1.050571	0.186601	0.124525
C14	C	0.919549	0.183136	0.124502
C15	C	0.919606	0.183129	-0.124709
C16	C	1.050627	0.186585	-0.124684
C17	C	1.116050	0.188344	0.249145
C18	C	1.050516	0.186619	0.373744
C19	C	0.919494	0.183154	0.373721
C20	C	0.854006	0.181414	0.249100
C21	C	1.492255	-0.044671	-0.000074
C22	C	1.488564	-0.184114	-0.000076
C23	C	1.717127	-0.212075	-0.000069
C24	C	1.829670	-0.291564	-0.000063
C25	C	1.826194	-0.422582	-0.000067
C26	C	1.710164	-0.474113	-0.000082
C27	C	1.597621	-0.394623	-0.000088
C28	C	1.601109	-0.263604	-0.000080
C29	C	1.369061	-0.366663	-0.000105
C30	C	1.372534	-0.235645	-0.000091
C31	C	1.253031	-0.418194	-0.000119
C32	C	1.140485	-0.338704	-0.000115
C33	C	1.143966	-0.207679	-0.000110
C34	C	1.259991	-0.156156	-0.000097
C35	C	1.714620	0.177708	-0.000095
C36	C	1.854062	0.181406	-0.000111
C37	C	1.477913	0.414404	-0.000091
C38	C	1.481603	0.553848	-0.000098
N39	N	1.485084	0.184863	0.356037
N40	N	1.485094	0.184860	-0.356200
C41	C	1.654410	0.015664	0.356028
C42	C	1.739082	-0.068932	0.427962
C43	C	1.739095	-0.068933	0.571842
C44	C	1.654424	0.015669	0.643790
C45	C	1.569753	0.100265	0.571855
C46	C	1.569752	0.100259	0.427972
C47	C	1.400422	0.269456	0.571865
C48	C	1.400413	0.269465	0.427986
C49	C	1.315751	0.354058	0.643813
C50	C	1.231083	0.438662	0.571878
C51	C	1.231075	0.438660	0.427990
C52	C	1.315741	0.354061	0.356051
H53	H	1.719969	-0.105394	-0.000047
H54	H	1.262836	-0.049475	-0.000084
C55	C	1.315752	0.354039	0.802085
N56	N	1.315748	0.354024	0.921297
H57	H	1.654419	0.015666	0.238873
H58	H	1.924140	-0.249593	-0.000039
C59	C	0.847409	0.181261	0.510780
N60	N	0.793117	0.179846	0.614018
H61	H	0.747319	0.178589	0.249091
C62	C	1.832237	-0.161993	0.650973
N63	N	1.902393	-0.232084	0.710574
H64	H	1.162145	0.507534	0.630468
H65	H	1.707344	-0.580796	-0.000102
C66	C	1.949996	-0.510023	-0.000059
N67	N	2.043243	-0.575883	-0.000051
H68	H	1.250209	-0.524877	-0.000131
H69	H	1.046022	-0.380672	-0.000136
H70	H	1.052319	-0.142965	-0.000121
H71	H	1.315746	0.354057	0.238896
C72	C	1.832196	-0.162010	0.348809
N73	N	1.902321	-0.232124	0.289194
H74	H	1.654430	0.015653	0.760945
C75	C	1.137948	0.531745	0.348873
N76	N	1.067811	0.601868	0.289287
H77	H	1.222734	0.191169	0.249178
H78	H	1.103846	0.188027	0.475206
H79	H	1.103985	0.187996	-0.226135
H80	H	0.866275	0.181715	-0.226169
