data_functionalizedCrystal
_audit_creation_method	'MofGen! by Chris Wilmer'
_symmetry_space_group_name_H-M	'P1'
_symmetry_Int_Tables_number	1
_symmetry_cell_setting	triclinic
loop_
_symmetry_equiv_pos_as_xyz
  x,y,z
_cell_length_a	10.654550
_cell_length_b	14.421503
_cell_length_c	10.654560
_cell_angle_alpha	90.006127
_cell_angle_beta	95.512905
_cell_angle_gamma	90.011231
loop_
_atom_site_label
_atom_site_type_symbol
_atom_site_fract_x
_atom_site_fract_y
_atom_site_fract_z
O1	O	1.667856	0.077184	-0.176381
O2	O	1.302378	0.077169	-0.193187
O3	O	1.493513	0.077175	-0.002045
O4	O	1.476721	0.077178	-0.367522
O5	O	1.493481	-0.077049	-0.002074
O6	O	1.302346	-0.077055	-0.193215
O7	O	1.667824	-0.077039	-0.176409
Cu8	Cu	1.485082	-0.091129	-0.184815
Cu9	Cu	1.485119	0.091258	-0.184781
O10	O	1.476689	-0.077045	-0.367550
C11	C	1.255564	0.000055	-0.191967
C12	C	1.116120	0.000049	-0.188275
N13	N	1.485065	-0.219410	-0.184838
C14	C	1.036639	0.000064	-0.300816
C15	C	0.905618	0.000080	-0.297339
C16	C	0.933573	0.000071	-0.068771
C17	C	1.064591	0.000048	-0.072249
C18	C	1.088168	0.000065	-0.416842
C19	C	1.008686	0.000081	-0.529392
C20	C	0.877665	0.000097	-0.525916
C21	C	0.826126	0.000097	-0.409889
C22	C	1.396668	-0.469067	-0.273181
C23	C	1.510366	-0.530864	-0.298546
C24	C	1.485095	-0.408572	-0.184808
C25	C	1.371427	-0.530868	-0.159473
C26	C	1.485114	-0.591293	-0.184782
C27	C	1.598851	-0.469008	-0.210229
C28	C	1.459837	-0.469007	-0.071107
C29	C	1.573616	-0.530776	-0.096424
C30	C	1.485082	-0.303310	-0.184826
C31	C	1.485140	-0.696552	-0.184763
C32	C	1.714638	0.000076	-0.177629
C33	C	1.854081	0.000088	-0.181321
C34	C	1.492261	0.000064	0.044738
C35	C	1.488564	0.000069	0.184181
N36	N	1.485147	0.219539	-0.184748
C37	C	1.477940	0.000067	-0.414334
C38	C	1.481638	0.000069	-0.553777
C39	C	1.483356	-0.083999	0.380704
C40	C	1.486814	-0.084000	0.249681
C41	C	1.486842	0.084143	0.249709
C42	C	1.483374	0.084143	0.380728
C43	C	1.481619	-0.168073	0.446199
C44	C	1.483338	-0.252148	0.380680
C45	C	1.486797	-0.252148	0.249657
C46	C	1.488536	-0.168074	0.184153
H47	H	1.194850	0.000056	-0.419686
O48	O	0.883572	-0.000083	0.043961
C49	C	0.867381	-0.079941	0.240402
C50	C	0.924064	-0.079899	0.112763
H51	H	0.900118	-0.144455	0.296076
H52	H	0.760080	-0.079978	0.223631
H53	H	0.900054	-0.015373	0.296030
H54	H	0.891488	-0.144455	0.057069
H55	H	1.031358	-0.079813	0.129624
O56	O	1.488702	0.165863	0.186234
C57	C	1.598439	0.309552	0.159364
C58	C	1.596470	0.217048	0.231368
H59	H	1.685575	0.350953	0.195809
H60	H	1.510087	0.351071	0.174432
H61	H	1.601152	0.295079	0.054467
H62	H	1.593801	0.231437	0.336286
H63	H	1.684817	0.175558	0.216195
H64	H	1.321965	-0.441971	-0.347977
H65	H	1.695008	-0.441951	-0.231762
H66	H	1.129307	0.000039	0.019392
O67	O	1.481504	0.165855	0.444240
C68	C	1.371719	0.309489	0.471159
C69	C	1.373732	0.216998	0.399106
H70	H	1.284580	0.350855	0.434714
H71	H	1.460067	0.351051	0.456138
H72	H	1.368981	0.294998	0.576044
H73	H	1.376426	0.231404	0.294199
H74	H	1.285389	0.175464	0.414232
O75	O	0.800274	0.000070	-0.635122
C76	C	0.586047	0.000169	-0.731069
C77	C	0.673542	0.000170	-0.607296
H78	H	0.483566	0.000269	-0.708616
H79	H	0.604782	-0.064387	-0.788147
H80	H	0.605030	0.064698	-0.788088
H81	H	0.654610	-0.064315	-0.550177
H82	H	0.654789	0.064768	-0.550314
H83	H	1.491330	-0.168081	0.077463
O84	O	1.058952	0.000120	-0.641987
C85	C	1.248403	0.000048	-0.748645
C86	C	1.191648	0.000025	-0.621044
H87	H	1.355695	-0.000049	-0.731758
H88	H	1.215873	0.064611	-0.804321
H89	H	1.215643	-0.064473	-0.804332
H90	H	1.224382	0.064502	-0.565255
H91	H	1.224173	-0.064581	-0.565465
O92	O	1.536052	-0.563182	-0.413236
C93	C	1.684007	-0.567103	-0.570583
C94	C	1.655076	-0.530423	-0.440693
H95	H	1.780249	-0.540649	-0.592810
H96	H	1.608605	-0.541736	-0.645911
H97	H	1.684614	-0.646145	-0.569146
H98	H	1.654488	-0.451383	-0.442006
H99	H	1.730484	-0.555862	-0.365420
O100	O	1.663094	-0.562864	-0.007383
C101	C	1.883964	-0.567532	0.066526
C102	C	1.782761	-0.531147	-0.034403
H103	H	1.980735	-0.541888	0.044731
H104	H	1.882875	-0.646580	0.066446
H105	H	1.863181	-0.541013	0.163184
H106	H	1.803474	-0.557598	-0.131110
H107	H	1.783873	-0.452100	-0.034211
H108	H	0.719439	0.000096	-0.407067
O109	O	1.488510	-0.333896	0.186210
C110	C	1.488044	-0.500670	0.200009
C111	C	1.486123	-0.408156	0.272017
H112	H	1.486088	-0.560733	0.269350
H113	H	1.577421	-0.504933	0.149424
H114	H	1.401948	-0.504830	0.127917
H115	H	1.572158	-0.403934	0.344170
H116	H	1.396690	-0.403933	0.322516
H117	H	1.438419	-0.441815	0.025007
O118	O	1.256638	-0.563171	-0.134060
C119	C	1.033706	-0.568491	-0.198594
C120	C	1.163624	-0.531835	-0.227493
H121	H	0.958473	-0.543187	-0.274131
H122	H	1.011340	-0.541957	-0.102437
H123	H	1.035144	-0.647532	-0.197861
H124	H	1.162283	-0.452796	-0.228294
H125	H	1.185939	-0.558440	-0.323629
H126	H	1.478806	-0.168082	0.552885
H127	H	1.481911	-0.320598	0.434020
