data_functionalizedCrystal
_audit_creation_method	'MofGen! by Chris Wilmer'
_symmetry_space_group_name_H-M	'P1'
_symmetry_Int_Tables_number	1
_symmetry_cell_setting	triclinic
loop_
_symmetry_equiv_pos_as_xyz
  x,y,z
_cell_length_a	6.817900
_cell_length_b	7.190334
_cell_length_c	7.076148
_cell_angle_alpha	96.844284
_cell_angle_beta	62.297619
_cell_angle_gamma	119.388224
loop_
_atom_site_label
_atom_site_type_symbol
_atom_site_fract_x
_atom_site_fract_y
_atom_site_fract_z
V1	V	4.298441	0.663535	-0.291704
V2	V	4.798441	1.163535	0.208296
O3	O	4.202196	0.652430	0.017518
O4	O	4.702196	1.152430	0.517518
O5	O	4.323681	0.657529	-0.581767
O6	O	4.823681	1.157529	-0.081767
O7	O	4.334047	0.953595	-0.285681
O8	O	4.834047	1.453595	0.214319
O9	O	4.191759	0.354314	-0.280618
O10	O	4.691759	0.854314	0.219382
V11	V	4.761642	0.626728	-0.254899
V12	V	5.261642	1.126728	0.245101
O13	O	4.604278	0.744274	-0.372439
O14	O	5.104278	1.244274	0.127561
O15	O	4.906002	0.545989	-0.174164
O16	O	5.406002	1.045989	0.325836
O17	O	4.513195	0.632734	0.035164
O18	O	5.013195	1.132734	0.535164
O19	O	4.975283	0.637833	-0.564122
O20	O	5.475283	1.137833	-0.064122
O21	O	4.985720	0.935948	-0.265986
O22	O	5.485720	1.435948	0.234014
O23	O	4.502829	0.336668	-0.260922
O24	O	5.002829	0.836668	0.239078
C25	C	4.197109	1.024341	-0.274829
C26	C	4.697109	1.524341	0.225171
C27	C	4.310073	1.265913	-0.271764
C28	C	4.810073	1.765913	0.228236
C29	C	4.316355	0.643576	0.105912
C30	C	4.816355	1.143576	0.605912
C31	C	4.190818	0.646654	0.347483
C32	C	4.690818	1.146654	0.847483
