data_functionalizedCrystal
_audit_creation_method	'MofGen! by Chris Wilmer'
_symmetry_space_group_name_H-M	'P1'
_symmetry_Int_Tables_number	1
_symmetry_cell_setting	triclinic
loop_
_symmetry_equiv_pos_as_xyz
  x,y,z
_cell_length_a	18.101398
_cell_length_b	18.101397
_cell_length_c	16.625539
_cell_angle_alpha	89.968146
_cell_angle_beta	89.988670
_cell_angle_gamma	90.016023
loop_
_atom_site_label
_atom_site_type_symbol
_atom_site_fract_x
_atom_site_fract_y
_atom_site_fract_z
Zn1	Zn	1.132187	-0.294916	-0.455691
Zn2	Zn	1.465521	0.038417	-0.122357
Zn3	Zn	1.798854	0.371751	0.210976
Zn4	Zn	1.132103	-0.418765	-0.320850
Zn5	Zn	1.465436	-0.085432	0.012484
Zn6	Zn	1.798769	0.247901	0.345817
Zn7	Zn	1.008343	-0.294932	-0.320893
Zn8	Zn	1.341676	0.038401	0.012440
Zn9	Zn	1.675009	0.371734	0.345774
Zn10	Zn	1.008320	-0.418711	-0.455661
Zn11	Zn	1.341653	-0.085377	-0.122328
Zn12	Zn	1.674987	0.247956	0.211006
O13	O	1.070238	-0.356831	-0.388274
O14	O	1.403572	-0.023498	-0.054940
O15	O	1.736905	0.309836	0.278393
O16	O	1.235809	-0.311361	-0.437798
O17	O	1.569142	0.021972	-0.104465
O18	O	1.902476	0.355306	0.228869
O19	O	1.115660	-0.402368	-0.208023
O20	O	1.448993	-0.069035	0.125310
O21	O	1.782327	0.264299	0.458644
O22	O	1.024816	-0.191297	-0.338805
O23	O	1.358149	0.142036	-0.005471
O24	O	1.691483	0.475369	0.327862
O25	O	1.235747	-0.402352	-0.338731
O26	O	1.569080	-0.069019	-0.005397
O27	O	1.902413	0.264314	0.327936
O28	O	1.115804	-0.191285	-0.437840
O29	O	1.449137	0.142048	-0.104507
O30	O	1.782471	0.475381	0.228827
O31	O	1.024734	-0.311389	-0.208055
O32	O	1.358067	0.021945	0.125279
O33	O	1.691401	0.355278	0.458612
O34	O	0.904707	-0.311336	-0.338776
O35	O	1.238040	0.021997	-0.005443
O36	O	1.571374	0.355331	0.327891
O37	O	1.024777	-0.402260	-0.568497
O38	O	1.358110	-0.068926	-0.235164
O39	O	1.691444	0.264407	0.098169
O40	O	0.904690	-0.402275	-0.437790
O41	O	1.238023	-0.068942	-0.104456
O42	O	1.571357	0.264391	0.228877
O43	O	1.115782	-0.311308	-0.568519
O44	O	1.449115	0.022025	-0.235186
O45	O	1.782448	0.355359	0.098147
O46	O	1.115638	-0.522391	-0.338702
O47	O	1.448971	-0.189058	-0.005369
O48	O	1.782304	0.144276	0.327965
O49	O	1.024695	-0.522351	-0.437748
O50	O	1.358028	-0.189018	-0.104414
O51	O	1.691362	0.144316	0.228919
C52	C	0.877828	-0.356802	-0.388285
C53	C	1.211161	-0.023469	-0.054951
C54	C	1.544494	0.309865	0.278382
C55	C	0.795514	-0.356807	-0.388309
C56	C	1.128847	-0.023474	-0.054975
C57	C	1.462180	0.309859	0.278358
C58	C	0.496423	-0.356851	-0.388275
C59	C	0.829756	-0.023518	-0.054942
C60	C	1.163089	0.309816	0.278392
C61	C	0.527762	-0.414344	-0.450264
C62	C	0.861095	-0.081011	-0.116931
C63	C	1.194429	0.252322	0.216402
C64	C	0.613380	-0.414164	-0.450519
C65	C	0.946714	-0.080831	-0.117186
C66	C	1.280047	0.252502	0.216148
C67	C	0.644805	-0.356830	-0.388292
C68	C	0.978138	-0.023497	-0.054958
C69	C	1.311472	0.309837	0.278375
C70	C	0.613737	-0.278827	-0.411517
C71	C	0.947070	0.054506	-0.078183
C72	C	1.280403	0.387839	0.255150
C73	C	0.528092	-0.279173	-0.411957
C74	C	0.861425	0.054161	-0.078624
C75	C	1.194758	0.387494	0.254709
C76	C	0.527971	-0.376673	-0.302912
C77	C	0.861305	-0.043339	0.030422
C78	C	1.194638	0.289994	0.363755
C79	C	0.613622	-0.378384	-0.303368
C80	C	0.946955	-0.045051	0.029966
C81	C	1.280288	0.288283	0.363299
C82	C	0.728665	-0.356813	-0.388300
C83	C	1.061998	-0.023480	-0.054967
C84	C	1.395331	0.309853	0.278367
C85	C	0.412563	-0.356862	-0.388269
C86	C	0.745896	-0.023529	-0.054936
C87	C	1.079230	0.309804	0.278398
C88	C	1.070175	-0.549242	-0.388234
C89	C	1.403508	-0.215908	-0.054901
C90	C	1.736841	0.117425	0.278432
C91	C	1.070215	-0.631556	-0.388245
C92	C	1.403549	-0.298222	-0.054911
C93	C	1.736882	0.035111	0.278422
C94	C	1.070310	-0.930647	-0.388318
C95	C	1.403643	-0.597313	-0.054985
C96	C	1.736977	-0.263980	0.278348
C97	C	1.127369	-0.899316	-0.325835
C98	C	1.460702	-0.565982	0.007499
C99	C	1.794036	-0.232649	0.340832
C100	C	1.127567	-0.813697	-0.325996
C101	C	1.460900	-0.480364	0.007337
C102	C	1.794233	-0.147031	0.340670
C103	C	1.070263	-0.782264	-0.388281
C104	C	1.403596	-0.448931	-0.054948
C105	C	1.736930	-0.115598	0.278386
C106	C	1.091421	-0.813271	-0.473267
C107	C	1.424755	-0.479938	-0.139934
C108	C	1.758088	-0.146605	0.193399
C109	C	1.091863	-0.898916	-0.472927
C110	C	1.425196	-0.565583	-0.139594
C111	C	1.758529	-0.232250	0.193740
C112	C	0.991941	-0.899150	-0.366551
C113	C	1.325274	-0.565817	-0.033218
C114	C	1.658607	-0.232483	0.300116
C115	C	0.992328	-0.813501	-0.364654
C116	C	1.325661	-0.480167	-0.031321
C117	C	1.658994	-0.146834	0.302013
C118	C	1.070235	-0.698405	-0.388265
C119	C	1.403569	-0.365071	-0.054932
C120	C	1.736902	-0.031738	0.278401
C121	C	1.070340	-1.014506	-0.388340
C122	C	1.403673	-0.681173	-0.055006
C123	C	1.737006	-0.347839	0.278327
C124	C	1.263400	-0.356861	-0.388263
C125	C	1.596733	-0.023528	-0.054929
C126	C	1.930067	0.309806	0.278404
C127	C	1.345714	-0.356874	-0.388258
C128	C	1.679047	-0.023540	-0.054925
C129	C	2.012381	0.309793	0.278409
C130	C	1.070286	-0.356776	-0.598583
C131	C	1.403620	-0.023443	-0.265249
C132	C	1.736953	0.309891	0.068084
C133	C	1.070307	-0.356752	-0.688204
C134	C	1.403640	-0.023419	-0.354870
C135	C	1.736973	0.309914	-0.021537
C136	C	1.070322	-0.163669	-0.388330
C137	C	1.403655	0.169664	-0.054997
C138	C	1.736989	0.502997	0.278336
C139	C	1.070358	-0.081355	-0.388355
C140	C	1.403691	0.251978	-0.055021
C141	C	1.737024	0.585312	0.278312
C142	C	1.070341	-0.356670	-1.016380
C143	C	1.403674	-0.023336	-0.683046
C144	C	1.737008	0.309997	-0.349713
C145	C	1.070329	-0.356695	-0.925071
C146	C	1.403663	-0.023362	-0.591738
C147	C	1.736996	0.309972	-0.258404
C148	C	1.070324	-0.356712	-0.852295
C149	C	1.403658	-0.023378	-0.518961
C150	C	1.736991	0.309955	-0.185628
C151	C	1.070312	-0.356736	-0.760980
C152	C	1.403645	-0.023403	-0.427647
C153	C	1.736979	0.309931	-0.094314
C154	C	1.070233	-0.356833	-0.178783
C155	C	1.403566	-0.023499	0.154551
C156	C	1.736899	0.309834	0.487884
C157	C	1.070356	-0.356648	-0.089162
C158	C	1.403689	-0.023314	0.244171
C159	C	1.737022	0.310019	0.577505
H160	H	0.506251	-0.401396	-0.513147
H161	H	0.839584	-0.068063	-0.179814
H162	H	1.172917	0.265271	0.153519
H163	H	0.976374	-0.793242	-0.302111
H164	H	1.309707	-0.459909	0.031223
H165	H	1.643041	-0.126575	0.364556
H166	H	0.634386	-0.472007	-0.435962
H167	H	0.967719	-0.138674	-0.102629
H168	H	1.301052	0.194659	0.230704
H169	H	0.635200	-0.261712	-0.473243
H170	H	0.968533	0.071622	-0.139910
H171	H	1.301867	0.404955	0.193424
H172	H	0.633882	-0.401049	-0.513768
H173	H	0.967215	-0.067716	-0.180434
H174	H	1.300549	0.265618	0.152899
H175	H	1.148064	-0.791768	-0.492019
H176	H	1.481398	-0.458435	-0.158686
H177	H	1.814731	-0.125101	0.174647
H178	H	1.185103	-0.920788	-0.340070
H179	H	1.518437	-0.587455	-0.006737
H180	H	1.851770	-0.254121	0.326597
H181	H	0.635013	-0.339549	-0.254700
H182	H	0.968347	-0.006216	0.078633
H183	H	1.301680	0.327117	0.411967
H184	H	0.972693	-0.920810	-0.305654
H185	H	1.306026	-0.587477	0.027679
H186	H	1.639359	-0.254144	0.361012
H187	H	1.185618	-0.793158	-0.340397
H188	H	1.518952	-0.459825	-0.007064
H189	H	1.852285	-0.126491	0.326269
H190	H	0.507157	-0.472376	-0.435870
H191	H	0.840490	-0.139043	-0.102537
H192	H	1.173824	0.194290	0.230796
H193	H	1.051133	-0.792908	-0.521074
H194	H	1.384466	-0.459575	-0.187741
H195	H	1.717800	-0.126241	0.145593
H196	H	0.506368	-0.432579	-0.281806
H197	H	0.839701	-0.099246	0.051527
H198	H	1.173034	0.234087	0.384861
H199	H	0.633936	-0.435783	-0.285851
H200	H	0.967269	-0.102449	0.047482
H201	H	1.300603	0.230884	0.380815
H202	H	0.947527	-0.792111	-0.406832
H203	H	1.280861	-0.458778	-0.073499
H204	H	1.614194	-0.125444	0.259834
H205	H	1.149147	-0.918839	-0.491367
H206	H	1.482481	-0.585506	-0.158034
H207	H	1.815814	-0.252173	0.175299
H208	H	0.508129	-0.262361	-0.474362
H209	H	0.841462	0.070973	-0.141029
H210	H	1.174796	0.404306	0.192305
H211	H	1.052124	-0.919639	-0.521086
H212	H	1.385457	-0.586306	-0.187753
H213	H	1.718791	-0.252972	0.145581
H214	H	0.507704	-0.334795	-0.256724
H215	H	0.841037	-0.001462	0.076610
H216	H	1.174371	0.331872	0.409943
H217	H	0.507361	-0.234801	-0.368878
H218	H	0.840694	0.098532	-0.035545
H219	H	1.174027	0.431866	0.297789
H220	H	0.634092	-0.234829	-0.367775
H221	H	0.967425	0.098504	-0.034442
H222	H	1.300758	0.431837	0.298891
H223	H	0.949427	-0.919412	-0.412061
H224	H	1.282761	-0.586078	-0.078727
H225	H	1.616094	-0.252745	0.254606
H226	H	1.114329	-0.792736	-0.262980
H227	H	1.447663	-0.459403	0.070353
H228	H	1.780996	-0.126069	0.403687
H229	H	1.114292	-0.919959	-0.262629
H230	H	1.447625	-0.586626	0.070704
H231	H	1.780958	-0.253293	0.404037
