data_functionalizedCrystal
_audit_creation_method	'MofGen! by Chris Wilmer'
_symmetry_space_group_name_H-M	'P1'
_symmetry_Int_Tables_number	1
_symmetry_cell_setting	triclinic
loop_
_symmetry_equiv_pos_as_xyz
  x,y,z
_cell_length_a	13.033409
_cell_length_b	18.050590
_cell_length_c	13.032268
_cell_angle_alpha	97.145544
_cell_angle_beta	105.162573
_cell_angle_gamma	82.849626
loop_
_atom_site_label
_atom_site_type_symbol
_atom_site_fract_x
_atom_site_fract_y
_atom_site_fract_z
Zn1	Zn	1.547438	-0.470698	-0.393891
Zn2	Zn	1.569890	-0.580898	-0.216287
Zn3	Zn	1.392391	-0.442764	-0.238900
Zn4	Zn	1.369807	-0.580870	-0.416438
O5	O	1.469881	-0.518807	-0.316379
O6	O	1.699039	-0.497018	-0.351431
O7	O	1.565192	-0.550896	-0.070658
O8	O	1.413013	-0.342552	-0.259488
O9	O	1.715534	-0.577982	-0.220946
O10	O	1.526925	-0.363075	-0.373359
O11	O	1.434784	-0.449409	-0.087272
O12	O	1.240772	-0.449382	-0.281351
O13	O	1.374523	-0.577934	-0.562075
O14	O	1.224180	-0.550848	-0.411787
O15	O	1.505027	-0.496991	-0.545510
O16	O	1.543293	-0.684811	-0.242810
O17	O	1.396293	-0.684791	-0.389860
C18	C	1.193939	-0.497082	-0.351470
C19	C	1.075887	-0.487807	-0.366507
C20	C	0.909413	-0.514069	-0.324093
C21	C	1.031427	-0.523657	-0.308546
C22	C	1.469805	-0.711750	-0.316347
C23	C	1.469865	-0.794302	-0.316356
C24	C	1.549938	-0.993756	-0.236471
C25	C	1.563568	-1.052762	-0.330108
C26	C	1.469920	-0.945440	-0.316391
C27	C	1.456393	-1.033528	-0.222784
C28	C	1.469976	-1.091433	-0.316416
C29	C	1.483592	-1.003367	-0.410072
C30	C	1.376381	-0.984120	-0.302689
C31	C	1.389965	-1.043106	-0.396398
C32	C	1.469890	-0.861338	-0.316375
C33	C	1.470004	-1.175534	-0.316443
C34	C	1.746900	-0.540619	-0.281151
C35	C	1.864950	-0.549913	-0.266139
C36	C	1.434751	-0.540575	-0.593407
C37	C	1.419781	-0.549852	-0.711460
C38	C	1.469984	-0.325116	-0.316430
C39	C	1.470027	-0.242576	-0.316452
C40	C	1.477678	-0.513938	-0.755896
C41	C	1.462207	-0.523525	-0.877910
C42	C	1.504936	-0.497075	-0.040420
C43	C	1.520112	-0.487606	0.077658
H44	H	0.857149	-0.476286	-0.385223
H45	H	1.401174	-0.561366	-0.930195
H46	H	1.581132	-0.449755	-0.870060
N47	N	1.096980	-0.571050	-0.231840
N48	N	1.097080	-0.557351	-0.135407
H49	H	1.143379	-0.590821	-0.081233
H50	H	1.358753	-0.587690	-0.763749
N51	N	1.554241	-0.466463	-0.690327
N52	N	1.608683	-0.432694	-0.732041
H53	H	1.662758	-0.399163	-0.685736
H54	H	1.023628	-0.450020	-0.427641
N55	N	1.441987	-1.050534	-0.123466
N56	N	1.359867	-1.023826	-0.094221
H57	H	1.349698	-1.035834	-0.024075
H58	H	1.322311	-1.064641	-0.464064
H59	H	0.917212	-0.587704	-0.205019
H60	H	1.617620	-0.972099	-0.168944
H61	H	1.642694	-1.082598	-0.341716
H62	H	1.494967	-0.989888	-0.489325
N63	N	1.277152	-0.946675	-0.288079
N64	N	1.248838	-0.952495	-0.205129
H65	H	1.178757	-0.926049	-0.194800
