data_functionalizedCrystal
_audit_creation_method	'MofGen! by Chris Wilmer'
_symmetry_space_group_name_H-M	'P1'
_symmetry_Int_Tables_number	1
_symmetry_cell_setting	triclinic
loop_
_symmetry_equiv_pos_as_xyz
  x,y,z
_cell_length_a	27.435584
_cell_length_b	27.434948
_cell_length_c	27.431174
_cell_angle_alpha	60.005483
_cell_angle_beta	60.011353
_cell_angle_gamma	59.993028
loop_
_atom_site_label
_atom_site_type_symbol
_atom_site_fract_x
_atom_site_fract_y
_atom_site_fract_z
O1	O	0.067437	-0.712144	0.595551
O2	O	0.025356	-0.554453	0.479848
O3	O	0.125206	-0.654236	0.479781
O4	O	-0.032412	-0.612361	0.595618
O5	O	0.158328	-0.621117	0.512835
O6	O	0.058479	-0.521333	0.512902
O7	O	0.100560	-0.679025	0.628605
Zn8	Zn	0.084778	-0.594921	0.576001
Zn9	Zn	0.041138	-0.638557	0.532452
O10	O	0.000710	-0.579241	0.628672
N11	N	0.114563	-0.565144	0.605726
N12	N	0.011358	-0.668338	0.502727
C13	C	0.156385	-0.523520	0.904506
C14	C	0.413419	-0.523497	0.647322
C15	C	0.156253	-0.523488	0.647384
C16	C	0.156238	-0.266354	0.647407
C17	C	0.197637	-0.390463	0.688753
C18	C	0.197646	-0.482126	0.688741
C19	C	0.220575	-0.459215	0.711654
C20	C	0.320555	-0.441991	0.659023
C21	C	0.383051	-0.462825	0.638179
C22	C	0.383069	-0.563942	0.676737
C23	C	0.320575	-0.543107	0.697583
C24	C	0.212704	-0.359206	0.627313
C25	C	0.191849	-0.296705	0.606496
C26	C	0.140866	-0.296722	0.708562
C27	C	0.161721	-0.359223	0.729379
C28	C	0.136200	-0.467030	0.703858
C29	C	0.115361	-0.487857	0.683021
C30	C	0.217408	-0.538877	0.631968
C31	C	0.238249	-0.518050	0.652796
C32	C	0.136259	-0.467047	0.811668
C33	C	0.115461	-0.487892	0.874167
C34	C	0.217537	-0.538923	0.874131
C35	C	0.238333	-0.518080	0.811631
C36	C	0.197693	-0.482140	0.780401
C37	C	0.289320	-0.482131	0.688723
C38	C	0.132699	-0.546027	0.973247
C39	C	0.482158	-0.545613	0.624075
C40	C	0.132521	-0.546006	0.624886
C41	C	0.132917	-0.197607	0.625310
C42	C	-0.098217	-0.686189	0.484419
C43	C	-0.006438	-0.686322	0.392891
C44	C	-0.006621	-0.777944	0.484592
C45	C	-0.006606	-0.686315	0.484649
C46	C	-0.029470	-0.709193	0.461638
N47	N	0.538410	-0.565162	0.605628
O48	O	0.742647	-0.575135	0.458625
O49	O	0.742821	-0.691181	0.616169
O50	O	0.742757	-0.690917	0.516248
O51	O	0.742711	-0.575399	0.558546
O52	O	0.643472	-0.657878	0.549405
O53	O	0.643536	-0.658142	0.649326
O54	O	0.643362	-0.542096	0.491782
Zn55	Zn	0.627685	-0.594873	0.575818
Zn56	Zn	0.758498	-0.638404	0.532133
O57	O	0.643426	-0.542360	0.591702
N58	N	0.847774	-0.668115	0.502317
N59	N	0.114542	-0.141354	0.605766
O60	O	-0.032397	0.062987	0.595660
O61	O	0.125155	0.062987	0.479633
O62	O	0.025219	0.062974	0.479910
O63	O	0.067539	0.063001	0.595383
O64	O	0.058343	-0.036320	0.513009
O65	O	0.158279	-0.036306	0.512732
O66	O	0.000728	-0.036306	0.628759
Zn67	Zn	0.084763	-0.052071	0.576000
Zn68	Zn	0.041120	0.078752	0.532392
O69	O	0.100664	-0.036292	0.628482
N70	N	0.011333	0.168036	0.502628
N71	N	0.114782	-0.565197	1.029501
O72	O	0.104681	-0.712124	1.233827
O73	O	-0.011334	-0.554523	1.233839
O74	O	-0.011066	-0.654443	1.233797
O75	O	0.104414	-0.612204	1.233869
O76	O	0.022028	-0.621336	1.134509
O77	O	0.021760	-0.521417	1.134551
O78	O	0.137775	-0.679018	1.134539
Zn79	Zn	0.085022	-0.594961	1.118780
Zn80	Zn	0.041420	-0.638580	1.249597
O81	O	0.137508	-0.579098	1.134580
N82	N	0.011658	-0.668350	1.338876
C83	C	0.037974	-0.518023	0.480435
C84	C	0.161625	-0.641592	0.480351
C85	C	0.087941	-0.715455	0.628017
C86	C	-0.035710	-0.591885	0.628101
C87	C	0.693199	-0.690642	0.652596
C88	C	0.693122	-0.690315	0.528855
C89	C	0.692981	-0.542634	0.455356
C90	C	0.693062	-0.542961	0.579095
C91	C	0.161524	0.013463	0.480164
C92	C	0.037807	0.013324	0.480547
C93	C	-0.035683	0.013341	0.628188
C94	C	0.088076	0.013357	0.627845
C95	C	-0.010764	-0.518114	1.184196
C96	C	-0.010426	-0.641846	1.184125
C97	C	0.137205	-0.715426	1.184182
C98	C	0.136875	-0.591687	1.184231
H99	H	0.103160	-0.437777	0.786243
H100	H	0.173154	-0.582650	1.184245
H101	H	-0.080930	0.013340	0.664614
O102	O	0.693153	-0.499684	0.589826
C103	C	0.744531	-0.483578	0.548873
H104	H	0.780481	-0.521812	0.531349
H105	H	0.761805	-0.473897	0.572129
H106	H	0.732855	-0.442001	0.510027
O107	O	-0.053745	-0.652609	1.184155
C108	C	-0.104116	-0.645955	1.235546
H109	H	-0.089862	-0.652447	1.271532
H110	H	-0.125290	-0.680715	1.252752
H111	H	-0.137927	-0.599326	1.223910
H112	H	0.173631	-0.760687	1.184171
O113	O	-0.089742	-0.581304	0.671483
C114	C	-0.116208	-0.622306	0.687561
H115	H	-0.096457	-0.639727	0.649264
H116	H	-0.166434	-0.599130	0.697363
H117	H	-0.107134	-0.661216	0.729055
O118	O	-0.054145	-0.464067	1.184119
C119	C	-0.033740	-0.419066	1.132701
H120	H	0.017145	-0.435499	1.115568
H121	H	-0.051196	-0.377411	1.144278
H122	H	-0.050669	-0.407898	1.096680
H123	H	0.206895	-0.650521	0.443974
H124	H	0.096930	-0.760753	0.664356
H125	H	0.693242	-0.727072	0.697844
O126	O	0.256884	-0.573682	0.596967
C127	C	0.292998	-0.542113	0.544564
H128	H	0.268844	-0.492112	0.535892
H129	H	0.302443	-0.553284	0.505186
H130	H	0.336909	-0.555415	0.550239
H131	H	0.206679	0.013739	0.443646
H132	H	0.692924	-0.506199	0.410112
H133	H	0.097136	0.013366	0.664120
H134	H	0.065433	-0.475593	0.899616
H135	H	0.693140	-0.726605	0.519802
H136	H	0.028745	0.013321	0.444270
H137	H	0.288361	-0.530376	0.786177
O138	O	0.257040	-0.573909	0.904436
C139	C	0.293189	-0.626315	0.889136
H140	H	0.269048	-0.635009	0.871966
H141	H	0.302670	-0.665687	0.930225
H142	H	0.337080	-0.620626	0.852845
O143	O	0.096677	-0.432116	0.738743
C144	C	0.037975	-0.423269	0.747623
H145	H	0.038069	-0.430242	0.709943
H146	H	0.008298	-0.375869	0.747964
H147	H	0.020092	-0.456539	0.792142
H148	H	0.288283	-0.530335	0.640482
O149	O	0.055688	-0.473303	0.697725
C150	C	0.040609	-0.525820	0.729190
H151	H	0.081800	-0.565086	0.717899
H152	H	0.004357	-0.520230	0.715900
H153	H	0.023476	-0.534612	0.779212
H154	H	0.408519	-0.613593	0.683941
O155	O	0.290324	-0.582178	0.726398
C156	C	0.331315	-0.640465	0.729755
H157	H	0.375852	-0.638088	0.692836
H158	H	0.313252	-0.666114	0.724099
H159	H	0.337986	-0.664326	0.775043
H160	H	0.295112	-0.392340	0.651807
O161	O	0.413365	-0.423795	0.609236
C162	C	0.398055	-0.381359	0.557725
H163	H	0.380866	-0.400616	0.543366
H164	H	0.439142	-0.369918	0.520204
H165	H	0.361777	-0.339228	0.567949
O166	O	0.247562	-0.389461	0.587771
C167	C	0.256393	-0.348468	0.529077
H168	H	0.218707	-0.303918	0.529204
H169	H	0.256701	-0.366521	0.499408
H170	H	0.300911	-0.341818	0.511157
H171	H	0.204115	-0.271255	0.556464
H172	H	0.028987	-0.472723	0.444098
H173	H	0.149444	-0.384673	0.779411
O174	O	0.105967	-0.266465	0.748105
C175	C	0.097164	-0.307455	0.806800
H176	H	0.104151	-0.352008	0.806688
H177	H	0.049775	-0.289404	0.836487
H178	H	0.130446	-0.314100	0.824686
