data_functionalizedCrystal
_audit_creation_method	'MofGen! by Chris Wilmer'
_symmetry_space_group_name_H-M	'P1'
_symmetry_Int_Tables_number	1
_symmetry_cell_setting	triclinic
loop_
_symmetry_equiv_pos_as_xyz
  x,y,z
_cell_length_a	14.908783
_cell_length_b	14.909042
_cell_length_c	14.908308
_cell_angle_alpha	89.837538
_cell_angle_beta	90.211273
_cell_angle_gamma	89.820521
loop_
_atom_site_label
_atom_site_type_symbol
_atom_site_fract_x
_atom_site_fract_y
_atom_site_fract_z
Zn1	Zn	1.364399	-0.313454	0.570869
Zn2	Zn	1.864399	0.186546	1.070869
Zn3	Zn	1.381551	-0.454222	0.412892
Zn4	Zn	1.881551	0.045778	0.912892
Zn5	Zn	1.222653	-0.312484	0.411893
Zn6	Zn	1.722653	0.187516	0.911893
Zn7	Zn	1.223621	-0.471383	0.553585
Zn8	Zn	1.723621	0.028617	1.053585
O9	O	1.298056	-0.387886	0.487310
O10	O	1.798056	0.112114	0.987310
O11	O	1.492090	-0.325351	0.557565
O12	O	1.992090	0.174649	1.057565
O13	O	1.367245	-0.427833	0.287347
O14	O	1.867245	0.072167	0.787347
O15	O	1.233874	-0.187200	0.439796
O16	O	1.733874	0.312800	0.939796
O17	O	1.504691	-0.428773	0.441500
O18	O	2.004691	0.071227	0.941500
O19	O	1.338014	-0.187913	0.556596
O20	O	1.838014	0.312087	1.056596
O21	O	1.250505	-0.323698	0.286613
O22	O	1.750505	0.176302	0.786613
O23	O	1.097367	-0.340338	0.423037
O24	O	1.597367	0.159662	0.923037
O25	O	1.235522	-0.458021	0.681291
O26	O	1.735522	0.041979	1.181291
O27	O	1.098077	-0.457081	0.527138
O28	O	1.598077	0.042919	1.027138
O29	O	1.338952	-0.341991	0.693989
O30	O	1.838952	0.158009	1.193989
O31	O	1.368184	-0.581911	0.424741
O32	O	1.868184	-0.081911	0.924741
O33	O	1.252153	-0.594519	0.528107
O34	O	1.752153	-0.094519	1.028107
C35	C	1.065203	-0.400467	0.473104
C36	C	1.565203	0.099533	0.973104
C37	C	0.965588	-0.405873	0.467047
C38	C	1.465588	0.094127	0.967047
C39	C	0.765277	-0.308504	0.576690
C40	C	1.265277	0.191496	1.076690
C41	C	0.671679	-0.313579	0.571002
C42	C	1.171679	0.186421	1.071002
C43	C	0.684793	-0.421095	0.449979
C44	C	1.184793	0.078905	0.949979
C45	C	0.778391	-0.416019	0.455667
C46	C	1.278391	0.083981	0.955667
C47	C	0.818629	-0.359722	0.519026
C48	C	1.318629	0.140278	1.019026
C49	C	0.912229	-0.354652	0.524717
C50	C	1.412229	0.145348	1.024717
C51	C	0.925340	-0.462162	0.403691
C52	C	1.425340	0.037838	0.903691
C53	C	0.831743	-0.467238	0.398003
C54	C	1.331743	0.032762	0.898003
C55	C	1.312158	-0.620733	0.474678
C56	C	1.812158	-0.120733	0.974678
C57	C	1.318271	-0.720343	0.469309
C58	C	1.818271	-0.220343	0.969309
C59	C	1.208831	-0.920715	0.566749
C60	C	1.708831	-0.420715	1.066749
C61	C	1.214572	-1.014308	0.561708
C62	C	1.714572	-0.514308	1.061708
C63	C	1.335489	-1.001124	0.454179
C64	C	1.835489	-0.501124	0.954179
C65	C	1.329748	-0.907531	0.459221
C66	C	1.829748	-0.407531	0.959221
C67	C	1.266418	-0.867330	0.515509
C68	C	1.766418	-0.367330	1.015509
C69	C	1.260682	-0.773735	0.520555
C70	C	1.760682	-0.273735	1.020555
C71	C	1.381594	-0.760553	0.413022
C72	C	1.881594	-0.260553	0.913022
C73	C	1.387335	-0.854147	0.407981
C74	C	1.887335	-0.354147	0.907981
C75	C	1.531818	-0.375256	0.501572
C76	C	2.031818	0.124744	1.001572
C77	C	1.631434	-0.369874	0.507649
C78	C	2.131434	0.130126	1.007649
C79	C	1.285432	-0.402029	0.721067
C80	C	1.785432	0.097971	1.221067
C81	C	1.280052	-0.408056	0.820681
C82	C	1.780052	0.091944	1.320681
C83	C	1.283923	-0.154129	0.500012
C84	C	1.783923	0.345871	1.000012
C85	C	1.277900	-0.054516	0.505425
C86	C	1.777900	0.445484	1.005425
C87	C	1.310679	-0.373731	0.254469
C88	C	1.810679	0.126269	0.754469
C89	C	1.316217	-0.367442	0.154880
C90	C	1.816217	0.132558	0.654880
C91	C	1.377640	-0.298538	1.021090
C92	C	1.877640	0.201462	1.521090
C93	C	1.372588	-0.304197	1.114686
C94	C	1.872588	0.195803	1.614686
C95	C	1.264892	-0.425029	1.101471
C96	C	1.764892	0.074971	1.601471
C97	C	1.269944	-0.419370	1.007875
C98	C	1.769944	0.080630	1.507875
C99	C	1.326321	-0.356123	0.967688
C100	C	1.826321	0.143877	1.467688
C101	C	1.331377	-0.350468	0.874090
C102	C	1.831377	0.149532	1.374090
C103	C	1.223677	-0.471295	0.860876
C104	C	1.723677	0.028705	1.360876
C105	C	1.218624	-0.476955	0.954472
C106	C	1.718624	0.023045	1.454472
H107	H	0.652014	-0.466918	0.398386
H108	H	1.152014	0.033082	0.898386
H109	H	1.423549	-0.247044	0.988370
H110	H	1.923549	0.252956	1.488370
F111	F	1.141439	-0.877928	0.626663
F112	F	1.641439	-0.377928	1.126663
F113	F	0.982129	-0.516682	0.342321
F114	F	1.482129	-0.016682	0.842321
F115	F	0.788908	-0.527146	0.330573
F116	F	1.288908	-0.027146	0.830573
H117	H	1.172722	-0.528447	0.987205
H118	H	1.672722	-0.028447	1.487205
H119	H	1.387041	-1.033873	0.408343
H120	H	1.887041	-0.533873	0.908343
H121	H	1.209118	-0.741005	0.566390
H122	H	1.709118	-0.241005	1.066390
F123	F	0.614901	-0.259063	0.632374
F124	F	1.114901	0.240937	1.132374
F125	F	1.153279	-1.071121	0.616243
F126	F	1.653279	-0.571121	1.116243
F127	F	1.454732	-0.896942	0.348079
F128	F	1.954732	-0.396942	0.848079
H129	H	0.944989	-0.308814	0.576308
H130	H	1.444989	0.191186	1.076308
F131	F	1.442889	-0.703730	0.358489
F132	F	1.942889	-0.203730	0.858489
F133	F	1.204890	-0.492330	1.144256
F134	F	1.704890	0.007670	1.644256
F135	F	1.391381	-0.283158	0.831322
F136	F	1.891381	0.216842	1.331322
H137	H	0.798040	-0.262669	0.628282
H138	H	1.298040	0.237331	1.128282
F139	F	1.427208	-0.242906	1.171518
F140	F	1.927208	0.257094	1.671518
H141	H	1.181891	-0.518188	0.817385
H142	H	1.681891	-0.018188	1.317385
