data_functionalizedCrystal
_audit_creation_method	'MofGen! by Chris Wilmer'
_symmetry_space_group_name_H-M	'P1'
_symmetry_Int_Tables_number	1
_symmetry_cell_setting	triclinic
loop_
_symmetry_equiv_pos_as_xyz
  x,y,z
_cell_length_a	27.440280
_cell_length_b	17.917559
_cell_length_c	17.917559
_cell_angle_alpha	60.143536
_cell_angle_beta	89.998266
_cell_angle_gamma	63.033843
loop_
_atom_site_label
_atom_site_type_symbol
_atom_site_fract_x
_atom_site_fract_y
_atom_site_fract_z
Zr1	Zr	0.497380	0.806674	-0.128977
O2	O	0.427465	0.951696	-0.249489
O3	O	0.515461	0.654464	-0.087347
O4	O	0.524304	0.796292	-0.242735
O5	O	0.415459	0.820563	0.023141
O6	O	0.604506	0.796280	-0.242739
O7	O	0.418621	0.809867	-0.094101
O8	O	0.588687	0.542575	0.035223
O9	O	0.431278	1.074268	-0.254821
O10	O	0.587076	0.719723	-0.075257
O11	O	0.524862	0.727714	0.012242
O12	O	0.535273	0.894699	-0.170708
O13	O	0.473060	0.902690	-0.083209
Zr14	Zr	0.620249	0.823713	0.058004
Zr15	Zr	0.625293	0.806654	-0.128983
Zr16	Zr	0.492336	0.823732	0.058010
Zr17	Zr	0.503462	1.002163	-0.137480
Zr18	Zr	0.614167	0.628224	0.066507
O19	O	0.602168	0.975923	0.016374
O20	O	0.609340	0.951668	-0.249498
O21	O	0.420293	0.975951	0.016383
O22	O	0.690164	0.678691	0.178517
O23	O	0.697336	0.654436	-0.087355
O24	O	0.508289	0.678719	0.178525
O25	O	0.702170	0.809824	-0.094114
O26	O	0.593325	0.834094	0.171763
O27	O	0.513123	0.834107	0.171767
O28	O	0.699007	0.820519	0.023128
O29	O	0.532951	1.074252	-0.254826
O30	O	0.584678	0.556134	0.183853
O31	O	0.686351	0.556118	0.183848
O32	O	0.690360	0.542559	0.035218
O33	O	0.427269	1.087827	-0.106191
O34	O	0.528942	1.087812	-0.106196
O35	O	0.582355	0.735687	0.099736
O36	O	0.644569	0.727696	0.012236
O37	O	0.592767	0.902672	-0.083215
O38	O	0.530553	0.910663	0.004284
C39	C	0.551207	0.570666	-0.024850
C40	C	0.548625	0.487676	-0.021241
C41	C	0.573678	0.294715	-0.056382
C42	C	0.543952	0.335676	-0.014593
C43	C	0.546553	0.420257	-0.018293
C44	C	0.571078	0.210127	-0.052683
C45	C	0.398815	0.815218	-0.035479
C46	C	0.344513	0.815226	-0.035476
C47	C	0.009556	0.809277	-0.100076
C48	C	-0.041462	0.809270	-0.100076
O49	O	-0.066357	0.804221	-0.154987
N50	N	-0.068722	0.815164	-0.035488
C51	C	-0.044958	0.821056	0.029111
O52	O	-0.072829	0.826068	0.084049
C53	C	0.006061	0.821056	0.029114
C54	C	0.033316	0.815172	-0.035484
C55	C	0.036811	0.803392	-0.164669
C56	C	0.087825	0.803402	-0.164669
C57	C	0.111584	0.809296	-0.100077
C58	C	0.084330	0.815181	-0.035485
C59	C	0.029826	0.826941	0.093715
C60	C	0.080849	0.826940	0.093714
C61	C	0.108104	0.821055	0.029115
C62	C	0.159103	0.821085	0.029106
N63	N	0.186363	0.815191	-0.035482
C64	C	0.162604	0.809296	-0.100074
C65	C	-0.152102	0.821053	0.029100
C66	C	-0.203122	0.821060	0.029093
C67	C	-0.199622	0.809272	-0.100093
C68	C	-0.148602	0.809272	-0.100090
C69	C	-0.124842	0.815159	-0.035489
C70	C	0.269737	0.809318	-0.100071
C71	C	0.320754	0.809332	-0.100068
C72	C	0.317251	0.821114	0.029120
C73	C	0.266236	0.821106	0.029115
C74	C	0.242482	0.815203	-0.035484
O75	O	0.184032	0.826127	0.083991
O76	O	0.190485	0.804272	-0.154996
C77	C	0.718813	0.815169	-0.035494
C78	C	0.773116	0.815160	-0.035496
C79	C	0.565123	0.793856	-0.269379
C80	C	0.567265	0.786614	-0.348760
C81	C	0.566422	1.059720	-0.046122
C82	C	0.569003	1.142710	-0.049732
C83	C	0.546442	0.856989	-0.576851
C84	C	0.571186	0.773402	-0.494119
C85	C	0.569003	0.780755	-0.413235
C86	C	0.548624	0.849637	-0.657744
C87	C	0.552505	0.836531	0.198406
C88	C	0.550364	0.843773	0.277788
C89	C	0.711206	0.570642	-0.024858
C90	C	0.762927	0.487643	-0.021251
C91	C	0.544898	0.592004	0.209042
C92	C	0.540175	0.516256	0.292033
C93	C	0.704897	0.591979	0.209035
C94	C	0.754477	0.516223	0.292023
C95	C	0.412731	1.038407	-0.280008
C96	C	0.363152	1.114164	-0.362996
C97	C	0.406422	1.059745	-0.046115
C98	C	0.354702	1.142743	-0.049722
C99	C	0.572731	1.038383	-0.280015
C100	C	0.577454	1.114131	-0.363006
C101	C	0.757204	0.444504	-0.065235
C102	C	0.805797	0.366527	-0.061864
C103	C	0.860111	0.331686	-0.014502
C104	C	0.865833	0.374834	0.029484
C105	C	0.817241	0.452814	0.026107
C106	C	0.567968	0.484846	0.376685
C107	C	0.563528	0.413684	0.454671
C108	C	0.531299	0.373927	0.448002
C109	C	0.503502	0.405344	0.363341
C110	C	0.507939	0.476510	0.285358
C111	C	0.810240	0.476475	0.285322
C112	C	0.856830	0.405304	0.363290
C113	C	0.847656	0.373876	0.447960
C114	C	0.791887	0.413631	0.454659
C115	C	0.745298	0.484806	0.376691
C116	C	0.307389	1.153921	-0.356295
C117	C	0.260800	1.225117	-0.434265
C118	C	0.269974	1.256548	-0.518934
C119	C	0.325743	1.216788	-0.525633
C120	C	0.372331	1.145599	-0.447665
C121	C	0.360425	1.185890	-0.005746
C122	C	0.311833	1.263887	-0.009139
C123	C	0.257519	1.298730	-0.056503
C124	C	0.251798	1.255579	-0.100485
C125	C	0.300389	1.177589	-0.097097
C126	C	0.609688	1.153865	-0.356308
C127	C	0.614137	1.225029	-0.434280
C128	C	0.586348	1.256463	-0.518947
C129	C	0.554112	1.216721	-0.525643
C130	C	0.549667	1.145553	-0.447672
H131	H	0.342942	0.804542	-0.152675
H132	H	0.244041	0.825912	0.081709
Br133	Br	0.825017	0.511346	0.085812
Br134	Br	0.619346	0.342144	-0.120644
Br135	Br	0.237507	0.801307	-0.187743
H136	H	0.817721	0.502052	0.216387
H137	H	0.902236	0.372942	0.357820
H138	H	0.477261	0.372964	0.357925
Br139	Br	0.779446	0.370969	0.569576
H140	H	0.632318	1.128284	-0.287375
Br141	Br	0.338184	1.259454	-0.640550
Br142	Br	0.609228	0.644922	-0.477310
H143	H	0.594213	0.517208	0.382132
Br144	Br	0.669620	0.538737	0.385803
Br145	Br	0.798019	0.307984	-0.121561
H146	H	0.207569	1.283961	-0.139049
H147	H	0.100194	0.831730	0.146322
H148	H	0.586166	0.388113	0.523597
H149	H	0.215395	1.257478	-0.428792
H150	H	0.485308	0.502074	0.216433
Br151	Br	0.124810	0.795408	-0.252337
H152	H	0.007643	0.831732	0.146317
Br153	Br	0.448009	1.091646	-0.456775
Br154	Br	0.498272	0.288264	0.049658
Br155	Br	0.206740	1.353164	-0.624742
H156	H	0.527690	0.315980	0.511509
Br157	Br	0.004576	0.795389	-0.252339
H158	H	0.885597	0.315920	0.511439
H159	H	0.217958	1.362235	-0.059255
H160	H	0.523620	0.934067	-0.586932
Br161	Br	0.434131	1.138624	0.058539
H162	H	-0.126414	0.804480	-0.152691
H163	H	0.712984	0.472869	-0.103813
Br164	Br	-0.231878	0.801272	-0.187754
Br165	Br	0.926053	0.225854	-0.009927
H166	H	0.295721	1.142461	-0.132906
Br167	Br	-0.240112	0.829071	0.116752
Br168	Br	0.657884	1.278954	-0.425172
Br169	Br	0.939549	0.327535	0.093760
H170	H	0.299908	1.128333	-0.287359
H171	H	0.589972	1.314413	-0.582429
H172	H	0.316503	1.299008	0.026681
Br173	Br	0.516396	1.259401	-0.640557
Br174	Br	0.349502	0.829118	0.116776
Br175	Br	-0.119862	0.829052	0.116775
Br176	Br	0.505912	1.091644	-0.456778
