data_functionalizedCrystal
_audit_creation_method	'MofGen! by Chris Wilmer'
_symmetry_space_group_name_H-M	'P1'
_symmetry_Int_Tables_number	1
_symmetry_cell_setting	triclinic
loop_
_symmetry_equiv_pos_as_xyz
  x,y,z
_cell_length_a	14.908571
_cell_length_b	16.959454
_cell_length_c	14.908854
_cell_angle_alpha	86.674895
_cell_angle_beta	89.795614
_cell_angle_gamma	86.716421
loop_
_atom_site_label
_atom_site_type_symbol
_atom_site_fract_x
_atom_site_fract_y
_atom_site_fract_z
Zn1	Zn	1.345317	-0.353075	-0.587614
Zn2	Zn	1.353893	-0.493304	-0.437258
Zn3	Zn	1.203627	-0.353972	-0.428608
Zn4	Zn	1.194925	-0.478040	-0.578912
O5	O	1.274440	-0.419598	-0.508098
O6	O	1.472281	-0.377689	-0.574931
O7	O	1.341190	-0.481585	-0.310283
O8	O	1.222475	-0.243244	-0.449722
O9	O	1.478581	-0.480715	-0.464464
O10	O	1.326574	-0.242585	-0.566543
O11	O	1.230790	-0.379218	-0.303928
O12	O	1.076646	-0.364417	-0.441284
O13	O	1.207644	-0.454700	-0.705894
O14	O	1.070253	-0.455570	-0.551712
O15	O	1.318136	-0.362889	-0.712287
O16	O	1.332753	-0.601888	-0.456026
O17	O	1.215960	-0.590674	-0.560099
C18	C	1.040824	-0.408435	-0.494616
C19	C	0.940881	-0.403678	-0.488869
C20	C	1.274366	-0.624961	-0.508078
C21	C	1.274415	-0.712819	-0.508105
C22	C	0.746477	-0.489820	-0.592905
C23	C	0.652572	-0.485352	-0.587509
C24	C	0.659162	-0.390271	-0.472686
C25	C	0.753068	-0.394738	-0.478082
C26	C	0.796722	-0.444516	-0.538193
C27	C	0.890630	-0.448987	-0.543584
C28	C	0.897218	-0.353902	-0.428766
C29	C	0.803312	-0.349434	-0.423370
C30	C	1.213710	-1.078491	-0.562287
C31	C	1.335416	-1.090108	-0.454014
C32	C	1.335385	-1.007561	-0.454004
C33	C	1.274515	-0.960475	-0.508135
C34	C	1.213676	-0.995937	-0.562277
C35	C	1.396217	-0.972094	-0.399857
C36	C	1.396188	-0.889542	-0.399844
C37	C	1.335321	-0.842455	-0.453981
C38	C	1.274480	-0.877921	-0.508125
C39	C	1.213610	-0.830835	-0.562256
C40	C	1.152773	-0.866299	-0.616406
C41	C	1.152809	-0.948849	-0.616413
C42	C	1.335285	-0.759905	-0.453973
C43	C	1.213575	-0.748280	-0.562246
C44	C	1.508969	-0.430804	-0.521633
C45	C	1.608911	-0.435580	-0.527401
C46	C	1.260963	-0.406992	-0.742628
C47	C	1.255220	-0.401620	-0.842571
C48	C	1.274538	-0.213432	-0.508139
C49	C	1.274580	-0.125577	-0.508156
C50	C	1.359408	-0.498118	-1.036995
C51	C	1.354014	-0.493073	-1.130900
C52	C	1.239045	-0.386482	-1.124289
C53	C	1.244438	-0.391527	-1.030384
C54	C	1.304621	-0.447348	-0.986740
C55	C	1.310009	-0.452396	-0.892832
C56	C	1.195045	-0.345801	-0.886224
C57	C	1.189652	-0.340756	-0.980129
C58	C	1.287917	-0.432100	-0.274483
C59	C	1.293834	-0.437258	-0.174551
H60	H	0.926172	-0.489520	-0.592528
H61	H	1.384968	-1.128450	-0.409938
H62	H	1.408415	-0.543566	-1.001459
H63	H	1.164011	-0.709947	-0.606330
H64	H	1.140655	-0.295307	-1.015677
H65	H	1.384814	-0.731033	-0.409881
O66	O	1.141781	-0.296591	-0.837305
C67	C	1.086789	-0.341741	-0.779649
H68	H	1.119287	-0.403911	-0.767395
H69	H	1.018076	-0.345303	-0.812000
C70	C	1.035723	-0.225911	-0.704569
C71	C	1.075643	-0.302267	-0.689513
H72	H	1.028844	-0.201560	-0.648970
H73	H	1.072769	-0.195491	-0.743415
H74	H	0.978467	-0.228890	-0.731530
H75	H	1.132902	-0.299286	-0.662562
H76	H	1.038606	-0.332685	-0.650659
O77	O	0.761006	-0.301135	-0.364863
C78	C	0.789057	-0.324216	-0.276528
H79	H	0.857343	-0.357946	-0.278523
H80	H	0.737933	-0.363933	-0.243134
C81	C	0.712647	-0.208789	-0.220001
C82	C	0.796520	-0.250210	-0.222451
H83	H	0.717246	-0.163140	-0.186641
H84	H	0.693745	-0.193239	-0.279513
H85	H	0.670052	-0.241894	-0.192174
H86	H	0.839110	-0.217109	-0.250286
H87	H	0.815429	-0.265753	-0.162941
O88	O	1.368416	-0.506719	-0.850529
C89	C	1.347404	-0.583329	-0.872308
H90	H	1.308923	-0.579654	-0.938496
H91	H	1.304199	-0.610585	-0.816786
C92	C	1.482056	-0.639671	-0.800398
C93	C	1.434800	-0.635158	-0.881696
H94	H	1.535965	-0.671644	-0.806185
H95	H	1.496212	-0.588058	-0.785722
H96	H	1.446043	-0.662383	-0.754138
H97	H	1.470809	-0.612438	-0.927952
H98	H	1.420653	-0.686768	-0.896380
H99	H	0.782022	-0.530355	-0.641845
O100	O	1.407269	-0.542477	-1.179580
C101	C	1.461558	-0.592810	-1.120919
H102	H	1.428572	-0.597384	-1.051855
H103	H	1.530432	-0.567660	-1.114878
C104	C	1.512893	-0.669966	-1.243121
C105	C	1.472376	-0.675590	-1.158297
H106	H	1.519571	-0.721028	-1.266178
H107	H	1.476321	-0.636054	-1.282643
H108	H	1.570285	-0.649005	-1.238075
H109	H	1.414981	-0.696541	-1.163346
H110	H	1.508939	-0.709507	-1.118776
O111	O	0.946126	-0.310005	-0.375575
C112	C	1.003742	-0.360644	-0.320517
H113	H	1.015992	-0.419556	-0.352927
H114	H	0.971358	-0.371102	-0.251788
C115	C	1.078834	-0.249892	-0.269627
C116	C	1.093885	-0.322247	-0.309438
H117	H	1.134436	-0.226206	-0.262789
H118	H	1.040014	-0.215775	-0.306718
H119	H	1.051844	-0.258617	-0.212357
H120	H	1.120863	-0.313520	-0.366711
H121	H	1.132711	-0.356362	-0.272357
O122	O	1.093562	-0.820673	-0.669015
C123	C	1.039891	-0.869669	-0.716834
H124	H	1.038939	-0.930359	-0.679839
H125	H	1.068848	-0.876305	-0.787047
C126	C	0.944602	-0.757703	-0.769633
C127	C	0.943426	-0.832241	-0.724191
H128	H	0.885099	-0.734614	-0.774176
H129	H	0.980762	-0.724692	-0.737420
H130	H	0.968737	-0.763243	-0.828139
H131	H	0.919302	-0.826699	-0.665683
H132	H	0.907259	-0.865250	-0.756395
H133	H	1.445768	-1.010437	-0.355780
H134	H	1.190053	-0.341031	-1.159841
O135	O	1.455251	-0.855188	-0.347125
C136	C	1.440820	-0.879256	-0.256361
H137	H	1.406385	-0.937664	-0.252477
H138	H	1.396346	-0.832252	-0.223365
C139	C	1.573946	-0.818401	-0.211802
C140	C	1.531659	-0.890143	-0.207032
H141	H	1.629978	-0.825113	-0.181372
H142	H	1.583667	-0.802183	-0.272951
H143	H	1.536876	-0.779238	-0.184307
H144	H	1.568724	-0.929301	-0.234537
H145	H	1.521946	-0.906367	-0.145887
O146	O	0.616605	-0.341958	-0.414352
C147	C	0.522946	-0.347699	-0.421362
H148	H	0.508426	-0.406566	-0.449921
H149	H	0.493590	-0.297052	-0.467848
C150	C	0.497741	-0.270567	-0.292572
C151	C	0.479907	-0.342871	-0.327640
H152	H	0.471191	-0.267585	-0.234761
H153	H	0.560841	-0.266696	-0.287850
H154	H	0.473277	-0.228369	-0.331319
H155	H	0.504380	-0.385067	-0.288900
H156	H	0.416810	-0.346749	-0.332353
O157	O	1.093834	-0.983391	-0.669054
C158	C	1.141657	-1.030404	-0.730140
H159	H	1.211651	-1.047684	-0.702421
H160	H	1.147635	-0.995462	-0.797351
C161	C	1.005305	-1.084391	-0.777566
C162	C	1.091270	-1.105621	-0.743517
H163	H	0.974223	-1.130787	-0.785822
H164	H	0.973085	-1.052716	-0.736414
H165	H	1.010298	-1.055272	-0.833571
H166	H	1.086275	-1.134730	-0.687508
H167	H	1.123488	-1.137303	-0.784661
H168	H	1.164180	-1.107370	-0.606377
H169	H	0.611666	-0.522242	-0.632063
