data_functionalizedCrystal
_audit_creation_method	'MofGen! by Chris Wilmer'
_symmetry_space_group_name_H-M	'P1'
_symmetry_Int_Tables_number	1
_symmetry_cell_setting	triclinic
loop_
_symmetry_equiv_pos_as_xyz
  x,y,z
_cell_length_a	14.853567
_cell_length_b	19.188930
_cell_length_c	13.930277
_cell_angle_alpha	89.990320
_cell_angle_beta	89.995755
_cell_angle_gamma	83.389856
loop_
_atom_site_label
_atom_site_type_symbol
_atom_site_fract_x
_atom_site_fract_y
_atom_site_fract_z
O1	O	1.195862	0.091155	-0.079776
O2	O	0.933342	0.102014	-0.079794
O3	O	1.072177	-0.005046	-0.079766
O4	O	1.057026	0.198215	-0.079804
O5	O	1.072158	-0.005048	0.079896
O6	O	0.933322	0.102012	0.079868
O7	O	1.195842	0.091153	0.079886
Zn8	Zn	1.064579	0.096582	0.105227
Zn9	Zn	1.064605	0.096585	-0.105135
O10	O	1.057007	0.198213	0.079858
C11	C	0.899746	0.101521	0.000035
C12	C	0.799671	0.100046	0.000029
C13	C	0.387525	0.030218	0.000064
C14	C	0.365537	0.157407	0.000039
C15	C	0.459563	0.158794	0.000036
C16	C	0.517574	0.095891	0.000045
C17	C	0.481560	0.031602	0.000058
C18	C	0.495585	0.223081	0.000013
C19	C	0.589616	0.224470	0.000009
C20	C	0.647629	0.161567	0.000025
C21	C	0.611610	0.097276	0.000039
C22	C	0.669621	0.034373	0.000048
C23	C	0.633603	-0.029919	0.000069
C24	C	0.539574	-0.031301	0.000074
C25	C	0.741659	0.162949	0.000020
C26	C	0.763656	0.035757	0.000042
C27	C	1.071677	-0.031060	0.000068
C28	C	1.070204	-0.108569	0.000076
C29	C	1.151668	-0.153221	0.000086
C30	C	1.150285	-0.226050	0.000071
C31	C	1.067432	-0.254223	0.000065
C32	C	0.985957	-0.209561	0.000049
C33	C	0.987343	-0.136734	0.000055
N34	N	1.004095	-0.362440	0.054396
N35	N	1.002783	-0.431623	0.054393
C36	C	1.063251	-0.473645	0.000045
N37	N	1.125093	-0.443873	-0.054287
N38	N	1.126407	-0.374684	-0.054279
C39	C	1.065920	-0.333190	0.000058
C40	C	1.143220	-0.597267	0.000037
C41	C	1.141833	-0.670096	0.000015
C42	C	0.977503	-0.653606	0.000003
C43	C	0.978893	-0.580778	0.000015
C44	C	1.061754	-0.552613	0.000036
C45	C	1.229438	0.091646	0.000055
C46	C	1.329513	0.093120	0.000055
C47	C	1.057507	0.224226	0.000022
C48	C	1.058980	0.301736	0.000008
N49	N	1.064569	0.096579	0.248793
N50	N	1.064623	0.096582	-0.248701
C51	C	1.003126	0.143972	0.701050
C52	C	1.126108	0.049192	0.701044
C53	C	1.126098	0.049190	0.600548
C54	C	1.064601	0.096580	0.550299
C55	C	1.003115	0.143973	0.600545
C56	C	1.187588	0.001803	0.550295
C57	C	1.187581	0.001799	0.449793
C58	C	1.126079	0.049187	0.399541
C59	C	1.064590	0.096581	0.449794
C60	C	1.003094	0.143971	0.399544
C61	C	0.941600	0.191363	0.449794
C62	C	0.941614	0.191361	0.550293
C63	C	1.126065	0.049189	0.299043
C64	C	1.003083	0.143972	0.299039
H65	H	0.318299	0.208620	0.000023
H66	H	1.208174	-0.706452	0.000018
H67	H	0.448345	0.274293	-0.000004
H68	H	0.921003	-0.100377	0.000047
C69	C	1.234363	-0.566280	0.000053
C70	C	1.323977	-0.615401	0.000051
C71	C	1.415120	-0.584416	0.000068
C72	C	1.416649	-0.504310	0.000087
C73	C	1.327032	-0.455184	0.000089
C74	C	1.235889	-0.486169	0.000071
H75	H	1.322848	-0.674704	0.000037
H76	H	1.481460	-0.620782	0.000067
H77	H	1.484119	-0.481373	0.000100
H78	H	1.328161	-0.395880	0.000102
H79	H	1.169549	-0.449802	0.000072
H80	H	1.237651	-0.036790	0.408885
H81	H	0.910043	-0.676543	-0.000007
H82	H	0.918498	-0.232504	0.000042
H83	H	1.176137	0.010607	0.258133
C84	C	1.239899	-0.275181	0.000088
C85	C	1.261516	-0.327526	0.082998
C86	C	1.351129	-0.376655	0.083017
C87	C	1.419125	-0.373438	0.000124
C88	C	1.397510	-0.321091	-0.082792
C89	C	1.307897	-0.271962	-0.082811
H90	H	1.211180	-0.329909	0.144366
H91	H	1.367130	-0.415406	0.144397
H92	H	1.485462	-0.409806	0.000138
H93	H	1.447846	-0.318707	-0.144160
H94	H	1.291896	-0.233210	-0.144191
H95	H	0.618933	0.276821	-0.000008
H96	H	0.953001	0.182561	0.258132
H97	H	0.912556	-0.544421	0.000012
H98	H	0.770981	0.215294	0.000005
H99	H	0.953056	0.182556	0.741966
H100	H	0.891532	0.229951	0.408870
H101	H	0.810884	-0.015466	0.000053
C102	C	1.193754	-0.002935	0.756312
C103	C	1.192558	-0.082445	0.742515
C104	C	1.260206	-0.134577	0.797786
C105	C	1.329051	-0.107198	0.866854
C106	C	1.330249	-0.027684	0.880654
C107	C	1.262601	0.024447	0.825383
H108	H	1.141593	-0.102716	0.691385
H109	H	1.259319	-0.193438	0.787570
H110	H	1.379128	-0.145789	0.907769
H111	H	1.381214	-0.007413	0.931785
H112	H	1.263488	0.083309	0.835599
C113	C	1.255234	-0.050325	0.605563
C114	C	1.254045	-0.129835	0.591758
C115	C	1.321693	-0.181966	0.647029
C116	C	1.390531	-0.154587	0.716105
C117	C	1.391723	-0.075073	0.729913
C118	C	1.324074	-0.022942	0.674642
H119	H	1.203085	-0.150105	0.540621
H120	H	1.320811	-0.240828	0.636807
H121	H	1.440608	-0.193178	0.757020
H122	H	1.442683	-0.054803	0.781050
H123	H	1.324957	0.035919	0.684864
H124	H	0.891548	0.229946	0.591213
H125	H	0.510239	-0.083644	0.000114
C126	C	0.697422	-0.099110	0.000078
C127	C	0.693579	-0.151767	0.083000
C128	C	0.757402	-0.220956	0.083008
C129	C	0.825068	-0.237488	0.000096
C130	C	0.828914	-0.184830	-0.082832
C131	C	0.765091	-0.115641	-0.082841
H132	H	0.643486	-0.139530	0.144382
H133	H	0.754554	-0.259936	0.144397
H134	H	0.872313	-0.288705	0.000102
H135	H	0.879006	-0.197067	-0.144215
H136	H	0.767938	-0.076660	-0.144230
H137	H	0.358195	-0.022127	0.000085
H138	H	1.219140	-0.130295	0.000100
