data_functionalizedCrystal
_audit_creation_method	'MofGen! by Chris Wilmer'
_symmetry_space_group_name_H-M	'P1'
_symmetry_Int_Tables_number	1
_symmetry_cell_setting	triclinic
loop_
_symmetry_equiv_pos_as_xyz
  x,y,z
_cell_length_a	19.121241
_cell_length_b	19.121063
_cell_length_c	19.120904
_cell_angle_alpha	85.258387
_cell_angle_beta	90.124528
_cell_angle_gamma	95.003121
loop_
_atom_site_label
_atom_site_type_symbol
_atom_site_fract_x
_atom_site_fract_y
_atom_site_fract_z
Zn1	Zn	1.043557	-0.254510	0.452551
Zn2	Zn	1.543557	0.245490	0.952551
Zn3	Zn	1.043470	-0.367161	0.339898
Zn4	Zn	1.543470	0.132839	0.839898
Zn5	Zn	0.931342	-0.254092	0.330304
Zn6	Zn	1.431342	0.245908	0.830304
Zn7	Zn	0.920835	-0.377147	0.452491
Zn8	Zn	1.420835	0.122853	0.952491
O9	O	0.984801	-0.313228	0.393811
O10	O	1.484801	0.186772	0.893811
O11	O	1.141831	-0.265449	0.441648
O12	O	1.641831	0.234551	0.941648
O13	O	1.032957	-0.347808	0.240344
O14	O	1.532957	0.152192	0.740344
O15	O	0.950661	-0.155504	0.342530
O16	O	1.450661	0.344496	0.842530
O17	O	1.141767	-0.348213	0.358882
O18	O	1.641767	0.151787	0.858882
O19	O	1.033105	-0.155811	0.432344
O20	O	1.533105	0.344189	0.932344
O21	O	0.950577	-0.264736	0.233295
O22	O	1.450577	0.235264	0.733295
O23	O	0.831663	-0.274420	0.342472
O24	O	1.331663	0.225580	0.842472
O25	O	0.932754	-0.365234	0.550781
O26	O	1.432754	0.134766	1.050781
O27	O	0.823943	-0.364828	0.432242
O28	O	1.323943	0.135172	0.932242
O29	O	1.022917	-0.275133	0.550825
O30	O	1.522917	0.224867	1.050825
O31	O	1.022769	-0.467129	0.358824
O32	O	1.522769	0.032871	0.858824
O33	O	0.932669	-0.474466	0.441546
O34	O	1.432669	0.025534	0.941546
C35	C	0.802319	-0.320663	0.386310
C36	C	1.302319	0.179337	0.886310
C37	C	0.724250	-0.323861	0.383118
C38	C	1.224250	0.176139	0.883118
C39	C	0.687602	-0.282348	0.424782
C40	C	1.187602	0.217652	0.924782
C41	C	0.614249	-0.285349	0.421777
C42	C	1.114249	0.214651	0.921777
C43	C	0.577546	-0.329869	0.377111
C44	C	1.077546	0.170131	0.877111
C45	C	0.614200	-0.371384	0.335443
C46	C	1.114200	0.128616	0.835443
C47	C	0.687552	-0.368378	0.338445
C48	C	1.187552	0.131622	0.838445
C49	C	0.356069	-0.341093	0.365885
C50	C	0.856069	0.158907	0.865885
C51	C	0.282712	-0.344097	0.362887
C52	C	0.782712	0.155903	0.862887
C53	C	0.282766	-0.258061	0.449221
C54	C	0.782766	0.241939	0.949221
C55	C	0.356119	-0.255063	0.452222
C56	C	0.856119	0.244937	0.952222
C57	C	0.392767	-0.296575	0.410551
C58	C	0.892767	0.203425	0.910551
C59	C	0.502567	-0.332939	0.374040
C60	C	1.002567	0.167061	0.874040
C61	C	0.467744	-0.293500	0.413619
C62	C	0.967744	0.206500	0.913619
C63	C	0.976588	-0.496375	0.401236
C64	C	1.476588	0.003625	0.901236
C65	C	0.973137	-0.574724	0.404438
C66	C	1.473137	-0.074724	0.904438
C67	C	1.018459	-0.607690	0.362913
C68	C	1.518459	-0.107690	0.862913
C69	C	1.015218	-0.681308	0.365929
C70	C	1.515218	-0.181308	0.865929
C71	C	0.966651	-0.721959	0.410467
C72	C	1.466651	-0.221959	0.910467
C73	C	0.921327	-0.688989	0.451998
C74	C	1.421327	-0.188989	0.951998
C75	C	0.924572	-0.615372	0.448985
C76	C	1.424572	-0.115372	0.948985
C77	C	0.954507	-0.944426	0.421721
C78	C	1.454507	-0.444426	0.921721
C79	C	0.951264	-1.018048	0.424729
C80	C	1.451264	-0.518048	0.924729
C81	C	1.045157	-1.010363	0.338661
C82	C	1.545157	-0.510363	0.838661
C83	C	1.048395	-0.936745	0.335649
C84	C	1.548395	-0.436745	0.835649
C85	C	1.003073	-0.903781	0.377182
C86	C	1.503073	-0.403781	0.877182
C87	C	0.963335	-0.797209	0.413550
C88	C	1.463335	-0.297209	0.913550
C89	C	1.006393	-0.828532	0.374103
C90	C	1.506393	-0.328532	0.874103
C91	C	1.167996	-0.305764	0.401342
C92	C	1.667996	0.194236	0.901342
C93	C	1.246063	-0.302584	0.404551
C94	C	1.746063	0.197416	0.904551
C95	C	0.976673	-0.321344	0.576998
C96	C	1.476673	0.178656	1.076998
C97	C	0.973209	-0.324803	0.655062
C98	C	1.473209	0.175197	1.155062
C99	C	0.993065	-0.129365	0.386373
C100	C	1.493065	0.370635	0.886373
C101	C	0.996587	-0.051014	0.383204
C102	C	1.496587	0.448986	0.883204
C103	C	0.992940	-0.305090	0.211336
C104	C	1.492940	0.194910	0.711336
C105	C	0.996549	-0.301428	0.133270
C106	C	1.496549	0.198572	0.633270
C107	C	1.018523	-0.279519	0.691760
C108	C	1.518523	0.220481	1.191760
C109	C	1.015260	-0.282766	0.765109
C110	C	1.515260	0.217234	1.265109
C111	C	0.966686	-0.331301	0.801758
C112	C	1.466686	0.168699	1.301758
C113	C	0.921368	-0.376587	0.765054
C114	C	1.421368	0.123413	1.265054
C115	C	0.924628	-0.373336	0.691707
C116	C	1.424628	0.126664	1.191707
C117	C	0.954491	-0.343462	1.023219
C118	C	1.454491	0.156538	1.523219
C119	C	0.951236	-0.346711	1.096572
C120	C	1.451236	0.153289	1.596572
C121	C	1.045127	-0.252889	1.096621
C122	C	1.545127	0.247111	1.596621
C123	C	1.048386	-0.249645	1.023272
C124	C	1.548386	0.250355	1.523272
C125	C	1.003065	-0.294928	0.986575
C126	C	1.503065	0.205072	1.486575
C127	C	0.963351	-0.334623	0.876732
C128	C	1.463351	0.165377	1.376732
C129	C	1.006397	-0.291602	0.911602
C130	C	1.506397	0.208398	1.411602
H131	H	0.584311	-0.407629	0.299072
H132	H	1.084311	0.092371	0.799072
N133	N	1.056003	-0.242017	0.874168
N134	N	1.556003	0.257983	1.374168
N135	N	1.035126	-0.196290	0.830407
N136	N	1.535126	0.303710	1.330407
H137	H	1.070161	-0.161270	0.803964
H138	H	1.570161	0.338730	1.303964
N139	N	0.871716	-0.730522	0.497484
N140	N	1.371716	-0.230522	0.997484
N141	N	0.826267	-0.772377	0.472578
N142	N	1.326267	-0.272377	0.972578
H143	H	0.791227	-0.801711	0.504702
H144	H	1.291227	-0.301711	1.004702
N145	N	0.878286	-0.581695	0.491412
N146	N	1.378286	-0.081695	0.991412
N147	N	0.879660	-0.592569	0.556746
N148	N	1.379660	-0.092569	1.056746
H149	H	0.846972	-0.568785	0.586715
H150	H	1.346972	-0.068785	1.086715
N151	N	0.245218	-0.389562	0.317248
N152	N	0.745218	0.110438	0.817248
N153	N	0.207372	-0.364381	0.269857
N154	N	0.707372	0.135619	0.769857
H155	H	0.180891	-0.396489	0.237626
H156	H	0.680891	0.103511	0.737626
H157	H	0.923805	-0.374144	0.906580
H158	H	1.423805	0.125856	1.406580
N159	N	0.908195	-0.389707	0.985733
N160	N	1.408195	0.110293	1.485733
N161	N	0.866369	-0.364910	0.941966
N162	N	1.366369	0.135090	1.441966
H163	H	0.833668	-0.397571	0.915489
H164	H	1.333668	0.102429	1.415489
N165	N	0.725079	-0.236861	0.470404
N166	N	1.225079	0.263139	0.970404
N167	N	0.719994	-0.171944	0.462875
N168	N	1.219994	0.328056	0.962875
H169	H	0.746461	-0.139815	0.495096
H170	H	1.246461	0.360185	0.995096
N171	N	0.393593	-0.209577	0.497848
N172	N	0.893593	0.290423	0.997848
N173	N	0.388508	-0.144659	0.490327
N174	N	0.888508	0.355341	0.990327
H175	H	0.414972	-0.112536	0.522555
H176	H	0.914972	0.387464	1.022555
H177	H	1.082024	-0.216022	1.126508
H178	H	1.582024	0.283978	1.626508
N179	N	0.871738	-0.426160	0.802477
N180	N	1.371738	0.073840	1.302477
N181	N	0.831275	-0.466581	0.769698
N182	N	1.331275	0.033419	1.269698
H183	H	0.796219	-0.501590	0.796125
H184	H	1.296219	-0.001590	1.296125
H185	H	1.045939	-0.795432	0.337842
H186	H	1.545939	-0.295432	0.837842
H187	H	0.385899	-0.374896	0.331954
H188	H	0.885899	0.125104	0.831954
N189	N	0.901590	-0.396274	1.133996
N190	N	1.401590	0.103726	1.633996
N191	N	0.861114	-0.436686	1.101222
N192	N	1.361114	0.063314	1.601222
H193	H	0.826046	-0.471680	1.127653
H194	H	1.326046	0.028320	1.627653
H195	H	0.923790	-0.830315	0.449812
H196	H	1.423790	-0.330315	0.949812
H197	H	0.717390	-0.402182	0.304517
H198	H	1.217390	0.097818	0.804517
N199	N	1.068149	-0.229941	0.654339
N200	N	1.568149	0.270059	1.154339
N201	N	1.108602	-0.189512	0.687118
N202	N	1.608602	0.310488	1.187118
H203	H	1.143651	-0.154495	0.660691
H204	H	1.643651	0.345505	1.160691
H205	H	0.472675	-0.369187	0.337673
H206	H	0.972675	0.130813	0.837673
N207	N	0.878332	-0.419592	0.654228
N208	N	1.378332	0.080408	1.154228
N209	N	0.834963	-0.462923	0.686957
N210	N	1.334963	0.037077	1.186957
H211	H	0.802262	-0.495591	0.660489
H212	H	1.302262	0.004409	1.160489
N213	N	1.068069	-0.566180	0.317407
N214	N	1.568069	-0.066180	0.817407
N215	N	1.108531	-0.595627	0.280335
N216	N	1.608531	-0.095627	0.780335
H217	H	1.143570	-0.566312	0.248195
H218	H	1.643570	-0.066312	0.748195
N219	N	1.098013	-0.200069	0.985850
N220	N	1.598013	0.299931	1.485850
N221	N	1.138472	-0.159643	1.018626
N222	N	1.638472	0.340357	1.518626
H223	H	1.173526	-0.124632	0.992197
H224	H	1.673526	0.375368	1.492197
N225	N	0.576825	-0.242919	0.464320
N226	N	1.076825	0.257081	0.964320
N227	N	0.609605	-0.203163	0.504187
N228	N	1.109605	0.296837	1.004187
H229	H	0.583176	-0.173187	0.534228
H230	H	1.083176	0.326813	1.034228
N231	N	1.061551	-0.236505	0.802584
N232	N	1.561551	0.263495	1.302584
N233	N	1.104921	-0.193177	0.769854
N234	N	1.604921	0.306823	1.269854
H235	H	1.137617	-0.160502	0.796320
H236	H	1.637617	0.339498	1.296320
N237	N	1.061529	-0.714970	0.323518
N238	N	1.561529	-0.214970	0.823518
N239	N	1.104892	-0.678667	0.283757
N240	N	1.604892	-0.178667	0.783757
H241	H	1.137605	-0.702440	0.253806
H242	H	1.637605	-0.202440	0.753806
H243	H	0.252919	-0.224264	0.483146
H244	H	0.752919	0.275736	0.983146
H245	H	1.087942	-0.903648	0.299382
H246	H	1.587942	-0.403648	0.799382
N247	N	0.505233	-0.248015	0.459231
N248	N	1.005233	0.251985	0.959231
N249	N	0.549263	-0.200289	0.434442
N250	N	1.049263	0.299711	0.934442
H251	H	0.575745	-0.168166	0.466657
H252	H	1.075745	0.331834	0.966657
H253	H	0.911723	-1.051145	0.461011
H254	H	1.411723	-0.551145	0.961011
N255	N	1.091442	-1.044037	0.296233
N256	N	1.591442	-0.544037	0.796233
N257	N	1.066939	-1.084177	0.252126
N258	N	1.566939	-0.584177	0.752126
H259	H	1.099629	-1.107960	0.222159
H260	H	1.599629	-0.607960	0.722159
N261	N	0.908209	-0.910772	0.464149
N262	N	1.408209	-0.410772	0.964149
N263	N	0.864848	-0.947078	0.503909
N264	N	1.364848	-0.447078	1.003909
H265	H	0.832147	-0.923308	0.533876
H266	H	1.332147	-0.423308	1.033876
