data_functionalizedCrystal
_audit_creation_method	'MofGen! by Chris Wilmer'
_symmetry_space_group_name_H-M	'P1'
_symmetry_Int_Tables_number	1
_symmetry_cell_setting	triclinic
loop_
_symmetry_equiv_pos_as_xyz
  x,y,z
_cell_length_a	8.634740
_cell_length_b	10.489716
_cell_length_c	7.681481
_cell_angle_alpha	84.203772
_cell_angle_beta	96.618670
_cell_angle_gamma	92.549721
loop_
_atom_site_label
_atom_site_type_symbol
_atom_site_fract_x
_atom_site_fract_y
_atom_site_fract_z
O1	O	2.036177	0.426721	-0.146398
O2	O	1.586841	0.391802	-0.146403
O3	O	1.821752	0.224843	-0.146407
O4	O	1.801265	0.593679	-0.146394
O5	O	1.850665	0.204239	0.146450
O6	O	1.615754	0.371198	0.146454
O7	O	2.065090	0.406116	0.146459
Zn8	Zn	1.845012	0.385385	0.192954
Zn9	Zn	1.806918	0.412533	-0.192898
O10	O	1.830178	0.573075	0.146463
C11	C	1.543760	0.373589	0.000025
C12	C	1.372317	0.350004	0.000022
C13	C	1.834669	0.166832	0.000016
C14	C	1.830062	0.024671	0.000000
C15	C	1.974119	-0.056394	0.000018
C16	C	1.883741	-0.132373	-0.144372
C17	C	1.912214	-0.152655	0.144362
C18	C	1.739733	-0.049428	-0.144509
C19	C	1.768239	-0.069711	0.144355
C20	C	1.677753	-0.145651	-0.000070
C21	C	2.108170	0.424329	0.000027
C22	C	2.279612	0.447915	0.000018
C23	C	1.817261	0.631087	0.000036
C24	C	1.821867	0.773249	0.000040
N25	N	1.871022	0.366859	0.456288
N26	N	1.780921	0.431051	-0.456232
H27	H	1.320514	0.248130	-0.000032
C28	C	2.143376	-0.003518	-0.000176
N29	N	2.270857	0.036310	-0.000330
H30	H	1.688945	0.496570	0.468573
H31	H	1.331405	0.549784	0.000038
C32	C	1.949616	-0.170070	-0.309278
N33	N	1.999245	-0.198463	-0.433477
C34	C	1.702433	-0.031997	0.309280
N35	N	1.652877	-0.003593	0.433517
C36	C	1.995293	0.278344	0.557881
N37	N	2.088890	0.211675	0.634403
H38	H	1.666889	-0.004534	-0.266715
H39	H	1.552347	-0.184536	-0.000150
H40	H	1.985108	-0.197700	0.266430
