data_functionalizedCrystal
_audit_creation_method	'MofGen! by Chris Wilmer'
_symmetry_space_group_name_H-M	'P1'
_symmetry_Int_Tables_number	1
_symmetry_cell_setting	triclinic
loop_
_symmetry_equiv_pos_as_xyz
  x,y,z
_cell_length_a	10.686220
_cell_length_b	13.032721
_cell_length_c	10.685880
_cell_angle_alpha	102.020524
_cell_angle_beta	89.641569
_cell_angle_gamma	100.973619
loop_
_atom_site_label
_atom_site_type_symbol
_atom_site_fract_x
_atom_site_fract_y
_atom_site_fract_z
Zn1	Zn	1.925388	-0.332655	-0.616943
Zn2	Zn	2.425388	0.167345	-0.116943
Zn3	Zn	1.885824	-0.498367	-0.434375
Zn4	Zn	2.385824	0.001633	0.065625
Zn5	Zn	1.699211	-0.334827	-0.423622
Zn6	Zn	2.199211	0.165173	0.076378
Zn7	Zn	1.688425	-0.525454	-0.664590
Zn8	Zn	2.188425	-0.025454	-0.164590
O9	O	1.799712	-0.422826	-0.534883
O10	O	2.299712	0.077174	-0.034883
O11	O	2.097407	-0.342392	-0.577285
O12	O	2.597407	0.157608	-0.077285
O13	O	1.849025	-0.466246	-0.255697
O14	O	2.349025	0.033754	0.244303
O15	O	1.750286	-0.185410	-0.424826
O16	O	2.250286	0.314590	0.075174
O17	O	2.068340	-0.464140	-0.443153
O18	O	2.568340	0.035860	0.056847
O19	O	1.916457	-0.183815	-0.566858
O20	O	2.416457	0.316185	-0.066858
O21	O	1.711922	-0.346094	-0.247797
O22	O	2.211922	0.153906	0.252203
O23	O	1.520513	-0.372359	-0.471027
O24	O	2.020513	0.127641	0.028973
O25	O	1.731902	-0.510306	-0.835522
O26	O	2.231902	-0.010306	-0.335522
O27	O	1.512588	-0.512411	-0.648066
O28	O	2.012588	-0.012411	-0.148066
O29	O	1.905998	-0.368657	-0.800515
O30	O	2.405998	0.131343	-0.300515
O31	O	1.838566	-0.651089	-0.489354
O32	O	2.338566	-0.151089	0.010646
O33	O	1.693538	-0.670989	-0.658492
O34	O	2.193538	-0.170989	-0.158492
C35	C	1.470587	-0.445561	-0.563551
C36	C	1.970587	0.054439	-0.063551
C37	C	1.329784	-0.455315	-0.575850
C38	C	1.829784	0.044685	-0.075850
C39	C	1.760624	-0.699705	-0.580285
C40	C	2.260624	-0.199705	-0.080285
C41	C	1.744021	-0.818150	-0.599741
C42	C	2.244021	-0.318150	-0.099741
C43	C	1.808448	-0.861074	-0.524780
C44	C	2.308448	-0.361074	-0.024780
C45	C	1.791290	-0.983493	-0.544886
C46	C	2.291290	-0.483493	-0.044886
C47	C	2.130122	-0.400002	-0.506103
C48	C	2.630122	0.099998	-0.006103
C49	C	2.270923	-0.390277	-0.493839
C50	C	2.770923	0.109723	0.006161
C51	C	1.822160	-0.442261	-0.865263
C52	C	2.322160	0.057739	-0.365263
C53	C	1.831726	-0.450543	-1.006051
C54	C	2.331726	0.049457	-0.506051
C55	C	1.838988	-0.144864	-0.489328
C56	C	2.338988	0.355136	0.010672
C57	C	1.855726	-0.026413	-0.469915
C58	C	2.355726	0.473587	0.030085
C59	C	1.777435	-0.403384	-0.205769
C60	C	2.277435	0.096616	0.294231
C61	C	1.768157	-0.394785	-0.064911
C62	C	2.268157	0.105215	0.435089
H63	H	1.272450	-0.518468	-0.655470
H64	H	1.772450	-0.018468	-0.155470
H65	H	1.876315	-0.807196	-0.445721
H66	H	2.376315	-0.307196	0.054279
H67	H	1.706404	-0.340716	-1.007597
H68	H	2.206404	0.159284	-0.507597
C69	C	1.915029	-0.523699	-1.083510
C70	C	2.415029	-0.023699	-0.583510
N71	N	1.977729	-0.578834	-1.141861
N72	N	2.477729	-0.078834	-0.641861
C73	C	1.699603	-1.056276	-0.651702
C74	C	2.199603	-0.556276	-0.151702
N75	N	1.630544	-1.111098	-0.732153
N76	N	2.130544	-0.611098	-0.232153
H77	H	1.328249	-0.327134	-0.414217
H78	H	1.828249	0.172866	0.085783
H79	H	1.923597	-0.972536	-0.390852
H80	H	2.423597	-0.472536	0.109148
C81	C	1.652339	-0.890937	-0.706551
C82	C	2.152339	-0.390937	-0.206551
N83	N	1.583280	-0.945758	-0.787002
N84	N	2.083280	-0.445758	-0.287002
