data_functionalizedCrystal
_audit_creation_method	'MofGen! by Chris Wilmer'
_symmetry_space_group_name_H-M	'P1'
_symmetry_Int_Tables_number	1
_symmetry_cell_setting	triclinic
loop_
_symmetry_equiv_pos_as_xyz
  x,y,z
_cell_length_a	8.597340
_cell_length_b	19.188930
_cell_length_c	7.681481
_cell_angle_alpha	84.272277
_cell_angle_beta	103.474906
_cell_angle_gamma	84.247170
loop_
_atom_site_label
_atom_site_type_symbol
_atom_site_fract_x
_atom_site_fract_y
_atom_site_fract_z
O1	O	2.099171	0.096557	0.172031
O2	O	1.635032	0.107681	0.101607
O3	O	1.880499	0.000479	0.138886
O4	O	1.853704	0.203759	0.134752
O5	O	1.910712	-0.012745	0.436332
O6	O	1.665245	0.094457	0.399053
O7	O	2.129384	0.083332	0.469477
Zn8	Zn	1.902112	0.086795	0.481491
Zn9	Zn	1.862305	0.104219	0.089593
O10	O	1.883917	0.190534	0.432198
C11	C	1.590758	0.100611	0.241321
C12	C	1.413824	0.099238	0.214476
C13	C	1.894739	-0.032145	0.287483
C14	C	1.892136	-0.109654	0.287103
C15	C	2.036167	-0.154389	0.308965
C16	C	2.033718	-0.227215	0.308566
C17	C	1.887233	-0.255304	0.286338
C18	C	1.743182	-0.210558	0.264463
C19	C	1.745634	-0.137733	0.264845
N20	N	1.785545	-0.367956	0.370575
N21	N	1.783226	-0.437138	0.370217
C22	C	1.879837	-0.474720	0.285180
N23	N	1.978880	-0.440511	0.200541
N24	N	1.981205	-0.371324	0.200908
C25	C	1.884558	-0.334269	0.285920
C26	C	2.021221	-0.598422	0.306608
C27	C	2.018765	-0.671248	0.306196
C28	C	1.728227	-0.654591	0.262111
C29	C	1.730686	-0.581765	0.262505
C30	C	1.877188	-0.553686	0.284763
C31	C	2.173657	0.090402	0.329760
C32	C	2.350591	0.091776	0.356593
N33	N	1.929291	0.074903	0.748953
C34	C	1.869677	0.223159	0.283597
C35	C	1.872278	0.300668	0.283965
N36	N	1.835138	0.116105	-0.177867
H37	H	1.332590	0.104577	0.072249
H38	H	2.155460	-0.131532	0.327083
C39	C	2.321152	-0.236375	0.352228
C40	C	2.192048	-0.276400	0.332611
H41	H	2.418897	-0.266740	0.367084
H42	H	2.305548	-0.203009	0.247739
H43	H	2.326583	-0.212239	0.455186
H44	H	2.186610	-0.300532	0.229644
H45	H	2.207656	-0.309779	0.437111
C46	C	2.029225	-0.048546	0.821235
C47	C	2.059052	0.018126	0.870169
H48	H	2.109339	-0.083595	0.896064
H49	H	1.925967	-0.057430	0.835730
H50	H	2.032168	-0.049830	0.698728
H51	H	2.056098	0.019412	0.992673
H52	H	2.162337	0.027013	0.855690
H53	H	1.623913	-0.233433	0.246361
C54	C	1.735210	0.239551	0.749850
C55	C	1.705384	0.172878	0.700923
H56	H	1.655108	0.274601	0.675003
H57	H	1.732258	0.240841	0.872337
H58	H	1.838486	0.248433	0.735362
H59	H	1.602112	0.163994	0.715425
H60	H	1.708320	0.171587	0.578407
H61	H	1.628343	-0.101309	0.247042
H62	H	2.140511	-0.575558	0.324723
C63	C	1.575159	0.024890	0.575661
C64	C	1.460235	0.084566	0.548588
H65	H	1.642861	0.020443	0.694189
H66	H	1.522053	-0.015999	0.561078
H67	H	1.638523	0.029762	0.490088
H68	H	1.396863	0.079692	0.634152
H69	H	1.513345	0.125465	0.563188
C70	C	2.250137	-0.701046	0.190780
C71	C	2.177101	-0.720422	0.330228
H72	H	2.347893	-0.731403	0.205627
H73	H	2.179526	-0.704944	0.077947
H74	H	2.272546	-0.653654	0.194217
H75	H	2.154680	-0.767813	0.326783
H76	H	2.247726	-0.716531	0.443089
C77	C	1.595465	-0.758826	0.241948
C78	C	1.567205	-0.685457	0.237672
H79	H	1.496051	-0.777882	0.226864
H80	H	1.644206	-0.769557	0.147222
H81	H	1.665284	-0.778797	0.354676
H82	H	1.497395	-0.665486	0.124938
H83	H	1.518440	-0.674721	0.332405
C84	C	1.443268	-0.572619	0.218917
C85	C	1.572364	-0.532589	0.238505
H86	H	1.345525	-0.542258	0.204108
H87	H	1.437813	-0.596747	0.115962
H88	H	1.458907	-0.605994	0.323418
H89	H	1.556731	-0.499218	0.133998
H90	H	1.577817	-0.508449	0.341471
