data_functionalizedCrystal
_audit_creation_method	'MofGen! by Chris Wilmer'
_symmetry_space_group_name_H-M	'P1'
_symmetry_Int_Tables_number	1
_symmetry_cell_setting	triclinic
loop_
_symmetry_equiv_pos_as_xyz
  x,y,z
_cell_length_a	12.759395
_cell_length_b	12.759400
_cell_length_c	12.759393
_cell_angle_alpha	90.031564
_cell_angle_beta	90.019464
_cell_angle_gamma	90.012161
loop_
_atom_site_label
_atom_site_type_symbol
_atom_site_fract_x
_atom_site_fract_y
_atom_site_fract_z
Zn1	Zn	-1.606256	0.418275	-0.594008
Zn2	Zn	-1.606151	0.593994	-0.418329
Zn3	Zn	-1.430558	0.418322	-0.418345
Zn4	Zn	-1.430547	0.593905	-0.593967
O5	O	-1.518378	0.506124	-0.506162
O6	O	-1.753263	0.441602	-0.570715
O7	O	-1.582818	0.570748	-0.271310
O8	O	-1.453914	0.271295	-0.441671
O9	O	-1.753186	0.570702	-0.441643
O10	O	-1.582998	0.271260	-0.570730
O11	O	-1.453811	0.441682	-0.271322
O12	O	-1.283536	0.441596	-0.441631
O13	O	-1.453895	0.570550	-0.740994
O14	O	-1.283527	0.570596	-0.570660
O15	O	-1.582987	0.441516	-0.741024
O16	O	-1.582807	0.741003	-0.441603
O17	O	-1.453792	0.740938	-0.570644
C18	C	-1.245410	0.506092	-0.506143
C19	C	-1.128634	0.506103	-0.506160
C20	C	-1.128695	0.371889	-0.640779
C21	C	-1.073865	0.304792	-0.708096
C22	C	-0.964144	0.304806	-0.708107
C23	C	-0.909250	0.371922	-0.640791
C24	C	-0.964080	0.439019	-0.573474
C25	C	-1.073804	0.439000	-0.573473
C26	C	-0.964018	0.573226	-0.438852
C27	C	-1.073740	0.573219	-0.438845
C28	C	-0.909124	0.640342	-0.371536
C29	C	-0.963954	0.707446	-0.304223
C30	C	-1.073682	0.707430	-0.304216
C31	C	-1.128570	0.640316	-0.371528
C32	C	-1.518316	0.779091	-0.506140
C33	C	-1.518385	0.895868	-0.506166
C34	C	-1.518452	0.506018	-0.780196
C35	C	-1.518483	0.505973	-0.896972
C36	C	-0.792411	0.506147	-0.506176
C37	C	-0.909188	0.506130	-0.506168
C38	C	-1.518469	0.232091	-0.506207
C39	C	-1.518508	0.115314	-0.506226
C40	C	-1.585638	0.950729	-0.439049
C41	C	-1.585702	1.060453	-0.439081
C42	C	-1.451252	1.060445	-0.573351
C43	C	-1.451194	0.950723	-0.573323
C44	C	-1.663259	0.950735	-0.361526
C45	C	-1.663323	1.060459	-0.361558
C46	C	-1.585711	0.438778	-0.951852
C47	C	-1.585736	0.438740	-1.061576
C48	C	-1.451302	0.573101	-1.061531
C49	C	-1.451272	0.573132	-0.951809
C50	C	-1.663328	0.361209	-0.951879
C51	C	-1.663353	0.361171	-1.061603
C52	C	-1.518365	0.506154	-0.233195
C53	C	-1.518537	0.505903	-0.116419
H54	H	-0.819908	0.371919	-0.640797
C55	C	-1.633958	1.100812	-0.251629
H56	H	-1.634015	1.175270	-0.251653
H57	H	-1.566153	1.076073	-0.233387
H58	H	-1.683610	1.076001	-0.202029
H59	H	-0.919501	0.250164	-0.762916
C60	C	-1.624043	0.256731	-1.107607
H61	H	-1.606526	0.210245	-1.052167
H62	H	-1.563792	0.269187	-1.149504
H63	H	-1.677575	0.226321	-1.149520
C64	C	-1.773268	0.390621	-1.101846
H65	H	-1.773282	0.390583	-1.176304
H66	H	-1.791412	0.458433	-1.077025
H67	H	-1.822916	0.340997	-1.077049
H68	H	-1.740600	0.390381	-0.917844
C69	C	-1.767747	1.106334	-0.401015
H70	H	-1.764227	1.180698	-0.399697
H71	H	-1.823184	1.083338	-0.356988
H72	H	-1.780241	1.083280	-0.470718
H73	H	-1.396525	0.627845	-0.907131
H74	H	-1.218036	0.371866	-0.640773
C75	C	-1.134250	0.230973	-0.782141
H76	H	-1.207449	0.240579	-0.772504
H77	H	-1.116267	0.160365	-0.766899
H78	H	-1.116293	0.246452	-0.852707
C79	C	-1.377385	0.646978	-1.121855
H80	H	-1.387034	0.637341	-1.195062
H81	H	-1.306795	0.631602	-1.103871
H82	H	-1.392742	0.717579	-1.103857
H83	H	-1.396441	0.906056	-0.627985
C84	C	-1.133987	0.781243	-0.230171
H85	H	-1.085577	0.821218	-0.190093
H86	H	-1.176780	0.740997	-0.184464
H87	H	-1.176796	0.827071	-0.270285
H88	H	-1.396548	1.105121	-0.628029
H89	H	-0.819783	0.640346	-0.371547
C90	C	-1.633907	0.251302	-0.911672
H91	H	-1.621817	0.206081	-0.969595
H92	H	-1.689590	0.224283	-0.870321
H93	H	-1.572142	0.255740	-0.870308
H94	H	-0.919251	0.762082	-0.249416
H95	H	-1.217911	0.640291	-0.371524
H96	H	-1.744602	0.920881	-0.383379
C97	C	-1.623924	0.904865	-0.257066
H98	H	-1.606453	0.960364	-0.210565
H99	H	-1.563640	0.862992	-0.269485
H100	H	-1.677427	0.862949	-0.226693
