data_functionalizedCrystal
_audit_creation_method	'MofGen! by Chris Wilmer'
_symmetry_space_group_name_H-M	'P1'
_symmetry_Int_Tables_number	1
_symmetry_cell_setting	triclinic
loop_
_symmetry_equiv_pos_as_xyz
  x,y,z
_cell_length_a	19.077409
_cell_length_b	21.295417
_cell_length_c	19.076919
_cell_angle_alpha	92.267699
_cell_angle_beta	94.476475
_cell_angle_gamma	92.331622
loop_
_atom_site_label
_atom_site_type_symbol
_atom_site_fract_x
_atom_site_fract_y
_atom_site_fract_z
Zn1	Zn	1.061651	-0.225214	-0.355434
Zn2	Zn	1.066295	-0.326080	-0.237548
Zn3	Zn	0.948506	-0.225235	-0.242283
Zn4	Zn	0.943723	-0.334858	-0.360109
O5	O	1.005044	-0.277847	-0.298843
O6	O	1.160915	-0.234911	-0.335858
O7	O	1.054616	-0.309037	-0.139529
O8	O	0.963572	-0.137141	-0.257318
O9	O	1.164328	-0.309017	-0.249247
O10	O	1.046699	-0.137126	-0.340449
O11	O	0.968076	-0.234947	-0.143008
O12	O	0.849223	-0.243459	-0.261851
O13	O	0.955421	-0.323979	-0.458136
O14	O	0.845710	-0.323999	-0.348417
O15	O	1.042062	-0.243423	-0.454701
O16	O	1.049978	-0.415335	-0.253780
O17	O	0.959925	-0.421784	-0.343826
C18	C	0.821888	-0.284684	-0.306156
C19	C	0.743532	-0.287625	-0.309300
C20	C	1.004955	-0.441400	-0.298811
C21	C	1.004981	-0.511368	-0.298819
C22	C	0.302277	-0.308670	-0.331890
C23	C	0.375901	-0.305911	-0.328922
C24	C	0.414516	-0.262536	-0.282442
C25	C	0.379504	-0.221923	-0.238922
C26	C	0.305882	-0.224685	-0.241887
C27	C	0.634898	-0.249774	-0.268746
C28	C	0.708525	-0.247013	-0.265786
C29	C	0.704917	-0.331002	-0.355785
C30	C	0.631293	-0.333758	-0.358748
C31	C	0.596287	-0.293147	-0.315226
N32	N	0.489772	-0.259714	-0.279408
N33	N	0.521033	-0.295973	-0.318257
C34	C	1.048238	-0.544171	-0.342139
C35	C	1.048262	-0.609914	-0.342155
C36	C	1.005037	-0.642849	-0.298838
C37	C	0.961772	-0.610038	-0.255516
C38	C	0.961744	-0.544297	-0.255506
N39	N	1.002194	-0.744003	-0.237357
N40	N	1.002225	-0.806454	-0.237369
C41	C	1.005118	-0.840922	-0.298867
N42	N	1.007994	-0.810579	-0.360354
N43	N	1.007966	-0.748122	-0.360342
C44	C	1.005063	-0.714134	-0.298845
C45	C	1.048404	-0.945011	-0.342208
C46	C	1.048423	-1.010754	-0.342226
C47	C	0.961936	-1.010877	-0.255580
C48	C	0.961913	-0.945135	-0.255569
C49	C	1.005151	-0.912205	-0.298882
C50	C	1.188915	-0.270983	-0.291503
C51	C	1.267270	-0.268058	-0.288375
C52	C	0.997690	-0.284678	-0.482712
C53	C	0.994556	-0.287589	-0.561065
C54	C	1.005151	-0.113654	-0.298890
C55	C	1.005197	-0.043685	-0.298910
C56	C	1.038191	-0.247018	-0.596089
C57	C	1.035238	-0.249751	-0.669711
C58	C	0.988653	-0.293059	-0.708308
C59	C	0.945014	-0.333632	-0.673279
C60	C	0.947964	-0.330895	-0.599658
C61	C	0.974990	-0.305738	-0.928681
C62	C	0.972045	-0.308473	-1.002307
C63	C	1.062269	-0.224591	-0.998733
C64	C	1.065217	-0.221860	-0.925111
C65	C	1.021576	-0.262431	-0.890089
N66	N	0.985635	-0.295855	-0.783561
N67	N	1.024590	-0.259632	-0.814837
C68	C	1.012410	-0.270995	-0.115689
C69	C	1.015680	-0.267902	-0.037330
H70	H	0.270841	-0.343986	-0.369743
H71	H	1.103153	-0.186596	-0.893691
H72	H	0.926518	-0.517588	-0.220229
H73	H	1.070772	-0.216715	-0.698224
H74	H	0.739964	-0.211685	-0.227941
H75	H	1.097798	-0.191560	-1.027256
H76	H	0.912425	-0.363926	-0.571144
H77	H	1.083648	-1.037462	-0.377506
H78	H	0.926576	-0.636858	-0.220249
H79	H	1.083609	-0.918199	-0.377479
H80	H	0.606405	-0.216708	-0.233304
H81	H	0.926737	-1.037692	-0.220316
H82	H	0.733427	-0.364066	-0.391217
H83	H	0.404400	-0.338982	-0.364355
H84	H	0.599857	-0.369080	-0.396596
H85	H	0.934108	-0.343741	-1.033730
H86	H	0.277380	-0.191613	-0.206455
H87	H	0.907081	-0.368892	-0.704710
H88	H	0.410951	-0.186609	-0.201074
H89	H	1.083443	-0.517362	-0.377408
H90	H	1.083481	-0.636628	-0.377440
H91	H	0.926692	-0.918424	-0.220291
H92	H	1.076127	-0.211753	-0.564668
H93	H	0.939464	-0.338782	-0.900175
