data_functionalizedCrystal
_audit_creation_method	'MofGen! by Chris Wilmer'
_symmetry_space_group_name_H-M	'P1'
_symmetry_Int_Tables_number	1
_symmetry_cell_setting	triclinic
loop_
_symmetry_equiv_pos_as_xyz
  x,y,z
_cell_length_a	21.395362
_cell_length_b	14.908520
_cell_length_c	21.395356
_cell_angle_alpha	93.271115
_cell_angle_beta	89.957023
_cell_angle_gamma	93.337688
loop_
_atom_site_label
_atom_site_type_symbol
_atom_site_fract_x
_atom_site_fract_y
_atom_site_fract_z
Zn1	Zn	0.943511	-0.358806	-0.368962
Zn2	Zn	1.443511	0.141194	0.131038
Zn3	Zn	0.937384	-0.509674	-0.270229
Zn4	Zn	1.437384	-0.009674	0.229771
Zn5	Zn	0.838725	-0.358873	-0.264166
Zn6	Zn	1.338725	0.141127	0.235834
Zn7	Zn	0.832664	-0.509669	-0.374933
Zn8	Zn	1.332664	-0.009669	0.125067
O9	O	0.888071	-0.434255	-0.319572
O10	O	1.388071	0.065745	0.180428
O11	O	1.030377	-0.378794	-0.355903
O12	O	1.530377	0.121206	0.144097
O13	O	0.924269	-0.489700	-0.181748
O14	O	1.424269	0.010300	0.318252
O15	O	0.857725	-0.232617	-0.273030
O16	O	1.357725	0.267383	0.226970
O17	O	1.025876	-0.489636	-0.283364
O18	O	1.525876	0.010364	0.216636
O19	O	0.934711	-0.232568	-0.350023
O20	O	1.434711	0.267432	0.149977
O21	O	0.851784	-0.378907	-0.177293
O22	O	1.351784	0.121093	0.322707
O23	O	0.750242	-0.378901	-0.278821
O24	O	1.250242	0.121099	0.221179
O25	O	0.847396	-0.489626	-0.461818
O26	O	1.347396	0.010374	0.038182
O27	O	0.745789	-0.489690	-0.360201
O28	O	1.245789	0.010310	0.139799
O29	O	0.928834	-0.378789	-0.457430
O30	O	1.428834	0.121211	0.042570
O31	O	0.918392	-0.635921	-0.289155
O32	O	1.418392	-0.135921	0.210845
O33	O	0.841455	-0.635917	-0.366081
O34	O	1.341455	-0.135917	0.133919
C35	C	0.725281	-0.434303	-0.319502
C36	C	1.225281	0.065697	0.180498
C37	C	0.655638	-0.434345	-0.319487
C38	C	1.155638	0.065655	0.180513
C39	C	0.620620	-0.492110	-0.361805
C40	C	1.120620	0.007890	0.138195
C41	C	0.555186	-0.492088	-0.361832
C42	C	1.055186	0.007912	0.138168
C43	C	0.524771	-0.434311	-0.319530
C44	C	1.024771	0.065689	0.180470
C45	C	0.559798	-0.376535	-0.277209
C46	C	1.059798	0.123465	0.222791
C47	C	0.625231	-0.376552	-0.277187
C48	C	1.125231	0.123448	0.222813
C49	C	0.421338	-0.427056	-0.262834
C50	C	0.921338	0.072944	0.237166
C51	C	0.355905	-0.427045	-0.262855
C52	C	0.855905	0.072955	0.237145
C53	C	0.322953	-0.434252	-0.319597
C54	C	0.822953	0.065748	0.180403
C55	C	0.355441	-0.441489	-0.376321
C56	C	0.855441	0.058511	0.123679
C57	C	0.420874	-0.441506	-0.376299
C58	C	0.920874	0.058494	0.123701
C59	C	0.453820	-0.434285	-0.319549
C60	C	0.953820	0.065715	0.180451
C61	C	0.216983	-0.491995	-0.361948
C62	C	0.716983	0.008005	0.138052
C63	C	0.151548	-0.491967	-0.361976
C64	C	0.651548	0.008033	0.138024
C65	C	0.156161	-0.376419	-0.277347
C66	C	0.656161	0.123581	0.222653
C67	C	0.221596	-0.376443	-0.277325
C68	C	0.721596	0.123557	0.222675
C69	C	0.252002	-0.434235	-0.319624
C70	C	0.752002	0.065765	0.180376
C71	C	0.878618	-0.668653	-0.328937
C72	C	1.378618	-0.168653	0.171063
C73	C	0.874632	-0.768929	-0.332965
C74	C	1.374632	-0.268929	0.167035
C75	C	0.947338	-0.957302	-0.260494
C76	C	1.447338	-0.457302	0.239506
C77	C	0.943594	-1.051521	-0.264276
C78	C	1.443594	-0.551521	0.235724
C79	C	0.863405	-1.051586	-0.344314
C80	C	1.363405	-0.551586	0.155686
C81	C	0.867148	-0.957368	-0.340532
C82	C	1.367148	-0.457368	0.159468
C83	C	0.909116	-0.910229	-0.298620
C84	C	1.409116	-0.410229	0.201380
C85	C	0.912856	-0.816009	-0.294835
C86	C	1.412856	-0.316009	0.205165
C87	C	0.832670	-0.816076	-0.374875
C88	C	1.332670	-0.316076	0.125125
C89	C	0.828926	-0.910295	-0.378657
C90	C	1.328926	-0.410295	0.121343
C91	C	1.051496	-0.434208	-0.319644
C92	C	1.551496	0.065792	0.180356
C93	C	1.121138	-0.434188	-0.319674
C94	C	1.621138	0.065812	0.180326
C95	C	0.888122	-0.434199	-0.482993
C96	C	1.388122	0.065801	0.017007
C97	C	0.888144	-0.434176	-0.552634
C98	C	1.388144	0.065824	-0.052634
C99	C	0.897577	-0.198942	-0.310184
C100	C	1.397577	0.301058	0.189816
C101	C	0.901629	-0.098666	-0.306184
C102	C	1.401629	0.401334	0.193816
C103	C	0.850413	-0.376479	-0.583017
C104	C	1.350413	0.123521	-0.083017
C105	C	0.850411	-0.376462	-0.648452
C106	C	1.350411	0.123538	-0.148452
C107	C	0.888153	-0.434133	-0.683500
C108	C	1.388153	0.065867	-0.183500
C109	C	0.925887	-0.491840	-0.653110
C110	C	1.425887	0.008160	-0.153110
C111	C	0.925883	-0.491862	-0.587676
C112	C	1.425883	0.008138	-0.087676
C113	C	0.944322	-0.441203	-0.787489
C114	C	1.444322	0.058797	-0.287489
C115	C	0.944328	-0.441175	-0.852921
C116	C	1.444328	0.058825	-0.352921
C117	C	0.888166	-0.434072	-0.885319
C118	C	1.388166	0.065928	-0.385319
C119	C	0.831997	-0.426977	-0.852276
C120	C	1.331997	0.073023	-0.352276
C121	C	0.831993	-0.426999	-0.786843
C122	C	1.331993	0.073001	-0.286843
C123	C	0.888162	-0.434116	-0.754452
C124	C	1.388162	0.065884	-0.254452
C125	C	0.850429	-0.376354	-0.986654
C126	C	1.350429	0.123646	-0.486654
C127	C	0.850426	-0.376344	-1.052090
C128	C	1.350426	0.123656	-0.552090
C129	C	0.925908	-0.491717	-1.056746
C130	C	1.425908	0.008283	-0.556746
C131	C	0.925905	-0.491732	-0.991312
C132	C	1.425905	0.008268	-0.491312
C133	C	0.888167	-0.434046	-0.956269
C134	C	1.388167	0.065954	-0.456269
C135	C	0.888058	-0.434246	-0.156784
C136	C	1.388058	0.065754	0.343216
C137	C	0.888168	-0.434016	-0.087134
C138	C	1.388168	0.065984	0.412866
H139	H	0.447323	-0.447396	-0.422485
H140	H	0.947323	0.052604	0.077515
H141	H	0.801544	-0.777739	-0.405918
H142	H	1.301544	-0.277739	0.094082
Br143	Br	0.755772	-0.417327	-0.896235
Br144	Br	1.255772	0.082673	-0.396235
Br145	Br	0.969806	-0.752035	-0.237952
Br146	Br	1.469806	-0.252035	0.262048
H147	H	0.819680	-0.329510	-0.554490
H148	H	1.319680	0.170490	-0.054490
Br149	Br	0.806464	-1.115576	-0.401199
Br150	Br	1.306464	-0.615576	0.098801
H151	H	0.819687	-0.329474	-0.673195
H152	H	1.319687	0.170526	-0.173195
Br153	Br	1.004280	-0.893324	-0.203604
Br154	Br	1.504280	-0.393324	0.296396
Br155	Br	0.771977	-0.974277	-0.435538
Br156	Br	1.271977	-0.474277	0.064462
Br157	Br	0.311821	-0.417225	-0.185875
Br158	Br	0.811821	0.082775	0.314125
Br159	Br	0.258254	-0.570422	-0.419355
Br160	Br	0.758254	-0.070422	0.080645
Br161	Br	0.799192	-0.298065	-1.093328
Br162	Br	1.299192	0.201935	-0.593328
H163	H	0.974720	-1.089844	-0.233232
H164	H	1.474720	-0.589844	0.266768
H165	H	0.786258	-0.421224	-0.759942
H166	H	1.286258	0.078776	-0.259942
H167	H	0.819700	-0.329383	-0.958121
H168	H	1.319700	0.170617	-0.458121
Br169	Br	0.977124	-0.569994	-1.104305
Br170	Br	1.477124	-0.069994	-0.604305
Br171	Br	0.977119	-0.570035	-0.950074
Br172	Br	1.477119	-0.070035	-0.450074
H173	H	0.990064	-0.446948	-0.879819
H174	H	1.490064	0.053052	-0.379819
Br175	Br	0.114893	-0.297997	-0.219942
Br176	Br	0.614893	0.202003	0.280058
H177	H	0.990061	-0.446980	-0.761116
H178	H	1.490061	0.053020	-0.261116
Br179	Br	0.466052	-0.417275	-0.185820
Br180	Br	0.966052	0.082725	0.314180
H181	H	0.956617	-0.538796	-0.681650
H182	H	1.456617	-0.038796	-0.181650
H183	H	0.645373	-0.539168	-0.396249
H184	H	1.145373	-0.039168	0.103751
Br185	Br	0.507651	-0.570486	-0.419269
Br186	Br	1.007651	-0.070486	0.080731
Br187	Br	0.977094	-0.570171	-0.546438
Br188	Br	1.477094	-0.070171	-0.046438
Br189	Br	0.518524	-0.298115	-0.219804
Br190	Br	1.018524	0.201885	0.280196
Br191	Br	0.310729	-0.451268	-0.453333
Br192	Br	0.810729	0.048732	0.046667
H193	H	0.653743	-0.329511	-0.242727
H194	H	1.153743	0.170489	0.257273
H195	H	0.123037	-0.539004	-0.396440
H196	H	0.623037	-0.039004	0.103560
Br197	Br	0.269124	-0.298044	-0.219890
Br198	Br	0.769124	0.201956	0.280110
