data_functionalizedCrystal
_audit_creation_method	'MofGen! by Chris Wilmer'
_symmetry_space_group_name_H-M	'P1'
_symmetry_Int_Tables_number	1
_symmetry_cell_setting	triclinic
loop_
_symmetry_equiv_pos_as_xyz
  x,y,z
_cell_length_a	19.121063
_cell_length_b	19.121141
_cell_length_c	19.121277
_cell_angle_alpha	90.097536
_cell_angle_beta	85.243870
_cell_angle_gamma	89.873858
loop_
_atom_site_label
_atom_site_type_symbol
_atom_site_fract_x
_atom_site_fract_y
_atom_site_fract_z
Zn1	Zn	-0.343639	-1.039487	0.456076
Zn2	Zn	-0.093639	-0.789487	0.706076
Zn3	Zn	0.156361	-0.539487	0.956076
Zn4	Zn	0.406361	-0.289487	1.206076
Zn5	Zn	-0.456253	-1.039423	0.343422
Zn6	Zn	-0.206253	-0.789423	0.593422
Zn7	Zn	0.043747	-0.539423	0.843422
Zn8	Zn	0.293747	-0.289423	1.093422
Zn9	Zn	-0.333617	-0.927725	0.333449
Zn10	Zn	-0.083617	-0.677725	0.583449
Zn11	Zn	0.166383	-0.427725	0.833449
Zn12	Zn	0.416383	-0.177725	1.083449
Zn13	Zn	-0.455808	-0.917234	0.455601
Zn14	Zn	-0.205808	-0.667234	0.705601
Zn15	Zn	0.044192	-0.417234	0.955601
Zn16	Zn	0.294192	-0.167234	1.205601
O17	O	-0.397329	-0.980967	0.397137
O18	O	-0.147329	-0.730967	0.647137
O19	O	0.102671	-0.480967	0.897137
O20	O	0.352671	-0.230967	1.147137
O21	O	-0.362957	-1.137389	0.445504
O22	O	-0.112957	-0.887389	0.695504
O23	O	0.137043	-0.637389	0.945504
O24	O	0.387043	-0.387389	1.195504
O25	O	-0.435978	-1.028970	0.243832
O26	O	-0.185978	-0.778970	0.493832
O27	O	0.064022	-0.528970	0.743832
O28	O	0.314022	-0.278970	0.993832
O29	O	-0.236680	-0.946968	0.345740
O30	O	0.013320	-0.696968	0.595740
O31	O	0.263320	-0.446968	0.845740
O32	O	0.513320	-0.196968	1.095740
O33	O	-0.445695	-1.137341	0.362738
O34	O	-0.195695	-0.887341	0.612738
O35	O	0.054305	-0.637341	0.862738
O36	O	0.304305	-0.387341	1.112738
O37	O	-0.244043	-1.029079	0.435833
O38	O	0.005957	-0.779079	0.685833
O39	O	0.255957	-0.529079	0.935833
O40	O	0.505957	-0.279079	1.185833
O41	O	-0.345878	-0.946905	0.236505
O42	O	-0.095878	-0.696905	0.486505
O43	O	0.154122	-0.446905	0.736505
O44	O	0.404122	-0.196905	0.986505
O45	O	-0.345446	-0.828423	0.345281
O46	O	-0.095446	-0.578423	0.595281
O47	O	0.154554	-0.328423	0.845281
O48	O	0.404554	-0.078423	1.095281
O49	O	-0.444936	-0.929087	0.553931
O50	O	-0.194936	-0.679087	0.803931
O51	O	0.055064	-0.429087	1.053931
O52	O	0.305064	-0.179087	1.303931
O53	O	-0.435218	-0.820716	0.435025
O54	O	-0.185218	-0.570716	0.685025
O55	O	0.064782	-0.320716	0.935025
O56	O	0.314782	-0.070716	1.185025
O57	O	-0.362525	-1.018907	0.554280
O58	O	-0.112525	-0.768907	0.804280
O59	O	0.137475	-0.518907	1.054280
O60	O	0.387475	-0.268907	1.304280
O61	O	-0.554460	-1.018797	0.362278
O62	O	-0.304460	-0.768797	0.612278
O63	O	-0.054460	-0.518797	0.862278
O64	O	0.195540	-0.268797	1.112278
O65	O	-0.554133	-0.929025	0.444696
O66	O	-0.304133	-0.679025	0.694696
O67	O	-0.054133	-0.429025	0.944696
O68	O	0.195867	-0.179025	1.194696
C69	C	-0.389197	-0.799182	0.389020
C70	C	-0.139197	-0.549182	0.639020
C71	C	0.110803	-0.299182	0.889020
C72	C	0.360803	-0.049182	1.139020
C73	C	-0.385736	-0.721413	0.385564
C74	C	-0.135736	-0.471413	0.635564
C75	C	0.114264	-0.221413	0.885564
C76	C	0.364264	0.028587	1.135564
C77	C	-0.430914	-0.680882	0.430599
C78	C	-0.180914	-0.430882	0.680599
C79	C	0.069086	-0.180882	0.930599
C80	C	0.319086	0.069118	1.180599
C81	C	-0.427653	-0.607809	0.427355
C82	C	-0.177653	-0.357809	0.677355
C83	C	0.072347	-0.107809	0.927355
C84	C	0.322347	0.142191	1.177355
C85	C	-0.379216	-0.575268	0.379073
C86	C	-0.129216	-0.325268	0.629073
C87	C	0.120784	-0.075268	0.879073
C88	C	0.370784	0.174732	1.129073
C89	C	-0.334032	-0.615805	0.334037
C90	C	-0.084032	-0.365805	0.584037
C91	C	0.165968	-0.115805	0.834037
C92	C	0.415968	0.134195	1.084037
C93	C	-0.337291	-0.688876	0.337285
C94	C	-0.087291	-0.438876	0.587285
C95	C	0.162709	-0.188876	0.837285
C96	C	0.412709	0.061124	1.087285
C97	C	-0.367032	-0.354840	0.366937
C98	C	-0.117032	-0.104840	0.616937
C99	C	0.132968	0.145160	0.866937
C100	C	0.382968	0.395160	1.116937
C101	C	-0.363778	-0.281763	0.363691
C102	C	-0.113778	-0.031763	0.613691
C103	C	0.136222	0.218237	0.863691
C104	C	0.386222	0.468237	1.113691
C105	C	-0.457398	-0.273772	0.457011
C106	C	-0.207398	-0.023772	0.707011
C107	C	0.042602	0.226228	0.957011
C108	C	0.292602	0.476228	1.207011
C109	C	-0.460655	-0.346845	0.460251
C110	C	-0.210655	-0.096845	0.710251
C111	C	0.039345	0.153155	0.960251
C112	C	0.289345	0.403155	1.210251
C113	C	-0.415469	-0.387375	0.415217
C114	C	-0.165469	-0.137375	0.665217
C115	C	0.084531	0.112625	0.915217
C116	C	0.334531	0.362625	1.165217
C117	C	-0.375882	-0.500576	0.375755
C118	C	-0.125882	-0.250576	0.625755
C119	C	0.124118	-0.000576	0.875755
C120	C	0.374118	0.249424	1.125755
C121	C	-0.418800	-0.462066	0.418539
C122	C	-0.168800	-0.212066	0.668539
C123	C	0.081200	0.037934	0.918539
C124	C	0.331200	0.287934	1.168539
C125	C	-0.579778	-0.972784	0.404534
C126	C	-0.329778	-0.722784	0.654534
C127	C	-0.079778	-0.472784	0.904534
C128	C	0.170222	-0.222784	1.154534
C129	C	-0.657834	-0.969346	0.407725
C130	C	-0.407834	-0.719346	0.657725
C131	C	-0.157834	-0.469346	0.907725
C132	C	0.092166	-0.219346	1.157725
C133	C	-0.694655	-1.014503	0.366352
C134	C	-0.444655	-0.764503	0.616352
C135	C	-0.194655	-0.514503	0.866352
C136	C	0.055345	-0.264503	1.116352
C137	C	-0.767997	-1.011274	0.369358
C138	C	-0.517997	-0.761274	0.619358
C139	C	-0.267997	-0.511274	0.869358
C140	C	-0.017997	-0.261274	1.119358
C141	C	-0.804517	-0.962883	0.413732
C142	C	-0.554517	-0.712883	0.663732
C143	C	-0.304517	-0.462883	0.913732
C144	C	-0.054517	-0.212883	1.163732
C145	C	-0.767691	-0.917724	0.455110
C146	C	-0.517691	-0.667724	0.705110
C147	C	-0.267691	-0.417724	0.955110
C148	C	-0.017691	-0.167724	1.205110
C149	C	-0.694350	-0.920957	0.452108
C150	C	-0.444350	-0.670957	0.702108
C151	C	-0.194350	-0.420957	0.952108
C152	C	0.055650	-0.170957	1.202108
C153	C	-1.025951	-0.950784	0.424945
C154	C	-0.775951	-0.700784	0.674945
C155	C	-0.525951	-0.450784	0.924945
C156	C	-0.275951	-0.200784	1.174945
C157	C	-1.099297	-0.947552	0.427942
C158	C	-0.849297	-0.697552	0.677942
C159	C	-0.599297	-0.447552	0.927942
C160	C	-0.349297	-0.197552	1.177942
C161	C	-1.099598	-1.041104	0.342191
C162	C	-0.849598	-0.791104	0.592191
C163	C	-0.599598	-0.541104	0.842191
C164	C	-0.349598	-0.291104	1.092191
C165	C	-1.026256	-1.044330	0.339190
C166	C	-0.776256	-0.794330	0.589190
C167	C	-0.526256	-0.544330	0.839190
C168	C	-0.276256	-0.294330	1.089190
C169	C	-0.989436	-0.999173	0.380570
C170	C	-0.739436	-0.749173	0.630570
C171	C	-0.489436	-0.499173	0.880570
C172	C	-0.239436	-0.249173	1.130570
C173	C	-0.879484	-0.959579	0.416804
C174	C	-0.629484	-0.709579	0.666804
C175	C	-0.379484	-0.459579	0.916804
C176	C	-0.129484	-0.209579	1.166804
C177	C	-0.914471	-1.002481	0.377502
C178	C	-0.664471	-0.752481	0.627502
C179	C	-0.414471	-0.502481	0.877502
C180	C	-0.164471	-0.252481	1.127502
C181	C	-0.214170	-0.989201	0.389727
C182	C	0.035830	-0.739201	0.639727
C183	C	0.285830	-0.489201	0.889727
C184	C	0.535830	-0.239201	1.139727
C185	C	-0.136118	-0.992710	0.386570
C186	C	0.113882	-0.742710	0.636570
C187	C	0.363882	-0.492710	0.886570
C188	C	0.613882	-0.242710	1.136570
C189	C	-0.404799	-0.972834	0.580297
C190	C	-0.154799	-0.722834	0.830297
C191	C	0.095201	-0.472834	1.080297
C192	C	0.345201	-0.222834	1.330297
C193	C	-0.407982	-0.969368	0.658349
C194	C	-0.157982	-0.719368	0.908349
C195	C	0.092018	-0.469368	1.158349
C196	C	0.342018	-0.219368	1.408349
C197	C	-0.405490	-0.163462	0.405278
C198	C	-0.155490	0.086538	0.655278
C199	C	0.094510	0.336538	0.905278
C200	C	0.344510	0.586538	1.155278
C201	C	-0.408957	-0.241232	0.408726
C202	C	-0.158957	0.008768	0.658726
C203	C	0.091043	0.258768	0.908726
C204	C	0.341043	0.508768	1.158726
C205	C	-0.366573	-1.014502	0.695201
C206	C	-0.116573	-0.764502	0.945201
C207	C	0.133427	-0.514502	1.195201
C208	C	0.383427	-0.264502	1.445201
C209	C	-0.369560	-1.011237	0.768539
C210	C	-0.119560	-0.761237	1.018539
C211	C	0.130440	-0.511237	1.268539
C212	C	0.380440	-0.261237	1.518539
C213	C	-0.413961	-0.962841	0.805024
C214	C	-0.163961	-0.712841	1.055024
C215	C	0.086039	-0.462841	1.305024
C216	C	0.336039	-0.212841	1.555024
C217	C	-0.455372	-0.917703	0.768167
C218	C	-0.205372	-0.667703	1.018167
C219	C	0.044628	-0.417703	1.268167
C220	C	0.294628	-0.167703	1.518167
C221	C	-0.452380	-0.920965	0.694830
C222	C	-0.202380	-0.670965	0.944830
C223	C	0.047620	-0.420965	1.194830
C224	C	0.297620	-0.170965	1.444830
C225	C	-0.425138	-0.950649	1.026444
C226	C	-0.175138	-0.700649	1.276444
C227	C	0.074862	-0.450649	1.526444
C228	C	0.324862	-0.200649	1.776444
C229	C	-0.428129	-0.947392	1.099786
C230	C	-0.178129	-0.697392	1.349786
C231	C	0.071871	-0.447392	1.599786
C232	C	0.321871	-0.197392	1.849786
C233	C	-0.342316	-1.040925	1.100152
C234	C	-0.092316	-0.790925	1.350152
C235	C	0.157684	-0.540925	1.600152
C236	C	0.407684	-0.290925	1.850152
C237	C	-0.339331	-1.044186	1.026814
C238	C	-0.089331	-0.794186	1.276814
C239	C	0.160669	-0.544186	1.526814
C240	C	0.410669	-0.294186	1.776814
C241	C	-0.380739	-0.999045	0.989964
C242	C	-0.130739	-0.749045	1.239964
C243	C	0.119261	-0.499045	1.489964
C244	C	0.369261	-0.249045	1.739964
C245	C	-0.417018	-0.959504	0.879987
C246	C	-0.167018	-0.709504	1.129987
C247	C	0.082982	-0.459504	1.379987
C248	C	0.332982	-0.209504	1.629987
C249	C	-0.377678	-1.002379	0.915002
C250	C	-0.127678	-0.752379	1.165002
C251	C	0.122322	-0.502379	1.415002
C252	C	0.372322	-0.252379	1.665002
C253	C	-0.389904	-0.989062	1.214689
C254	C	-0.139904	-0.739062	1.464689
C255	C	0.110096	-0.489062	1.714689
C256	C	0.360096	-0.239062	1.964689
C257	C	-0.386720	-0.992525	1.136637
C258	C	-0.136720	-0.742525	1.386637
C259	C	0.113280	-0.492525	1.636637
C260	C	0.363280	-0.242525	1.886637
H261	H	-0.300498	-0.721876	0.300616
H262	H	-0.050498	-0.471876	0.550616
H263	H	0.199502	-0.221876	0.800616
H264	H	0.449502	0.028124	1.050616
Br265	Br	-0.484532	-0.506229	0.484064
Br266	Br	-0.234532	-0.256229	0.734064
Br267	Br	0.015468	-0.006229	0.984064
Br268	Br	0.265468	0.243771	1.234064
Br269	Br	-0.975991	-0.889499	0.481104
Br270	Br	-0.725991	-0.639499	0.731104
Br271	Br	-0.475991	-0.389499	0.981104
Br272	Br	-0.225991	-0.139499	1.231104
H273	H	-0.491522	-0.878296	0.797879
H274	H	-0.241522	-0.628296	1.047879
H275	H	0.008478	-0.378296	1.297879
H276	H	0.258478	-0.128296	1.547879
H277	H	-0.294591	-0.589305	0.294728
H278	H	-0.044591	-0.339305	0.544728
H279	H	0.205409	-0.089305	0.794728
H280	H	0.455409	0.160695	1.044728
H281	H	-0.464287	-0.907980	1.129490
H282	H	-0.214287	-0.657980	1.379490
H283	H	0.035713	-0.407980	1.629490
H284	H	0.285713	-0.157980	1.879490
H285	H	-0.464442	-0.574811	0.464026
H286	H	-0.214442	-0.324811	0.714026
H287	H	0.035558	-0.074811	0.964026
H288	H	0.285558	0.175189	1.214026
Br289	Br	-0.305704	-0.409836	0.305823
Br290	Br	-0.055704	-0.159836	0.555823
Br291	Br	0.194296	0.090164	0.805823
Br292	Br	0.444296	0.340164	1.055823
H293	H	-0.884734	-1.041883	0.341374
H294	H	-0.634734	-0.791883	0.591374
H295	H	-0.384734	-0.541883	0.841374
H296	H	-0.134734	-0.291883	1.091374
Br297	Br	-0.508576	-0.859706	0.644816
Br298	Br	-0.258576	-0.609706	0.894816
Br299	Br	-0.008576	-0.359706	1.144816
Br300	Br	0.241424	-0.109706	1.394816
Br301	Br	-0.317411	-1.068048	0.865485
Br302	Br	-0.067411	-0.818048	1.115485
Br303	Br	0.182589	-0.568048	1.365485
Br304	Br	0.432589	-0.318048	1.615485
H305	H	-1.129585	-1.077869	0.308503
H306	H	-0.879585	-0.827869	0.558503
H307	H	-0.629585	-0.577869	0.808503
H308	H	-0.379585	-0.327869	1.058503
H309	H	-0.336446	-0.474074	0.336443
H310	H	-0.086446	-0.224074	0.586443
H311	H	0.163554	0.025926	0.836443
H312	H	0.413554	0.275926	1.086443
H313	H	-0.453173	-0.920103	0.909702
H314	H	-0.203173	-0.670103	1.159702
H315	H	0.046827	-0.420103	1.409702
H316	H	0.296827	-0.170103	1.659702
Br317	Br	-0.976699	-1.110014	0.278974
Br318	Br	-0.726699	-0.860014	0.528974
Br319	Br	-0.476699	-0.610014	0.778974
Br320	Br	-0.226699	-0.360014	1.028974
H321	H	-0.909227	-0.920178	0.452932
H322	H	-0.659227	-0.670178	0.702932
H323	H	-0.409227	-0.420178	0.952932
H324	H	-0.159227	-0.170178	1.202932
H325	H	-0.470359	-0.707370	0.469913
H326	H	-0.220359	-0.457370	0.719913
H327	H	0.029641	-0.207370	0.969913
H328	H	0.279641	0.042630	1.219913
Br329	Br	-1.148858	-0.881863	0.488157
Br330	Br	-0.898858	-0.631863	0.738157
Br331	Br	-0.648858	-0.381863	0.988157
Br332	Br	-0.398858	-0.131863	1.238157
H333	H	-0.324327	-0.255271	0.324378
H334	H	-0.074327	-0.005271	0.574378
H335	H	0.175673	0.244729	0.824378
H336	H	0.425673	0.494729	1.074378
Br337	Br	-0.526397	-0.391002	0.525775
Br338	Br	-0.276397	-0.141002	0.775775
Br339	Br	-0.026397	0.108998	1.025775
Br340	Br	0.223603	0.358998	1.275775
H341	H	-0.664925	-1.053905	0.330215
H342	H	-0.414925	-0.803905	0.580215
H343	H	-0.164925	-0.553905	0.830215
H344	H	0.085075	-0.303905	1.080215
Br345	Br	-0.817967	-1.072566	0.313211
Br346	Br	-0.567967	-0.822566	0.563211
Br347	Br	-0.317967	-0.572566	0.813211
Br348	Br	-0.067967	-0.322566	1.063211
Br349	Br	-0.518721	-0.218764	0.518122
Br350	Br	-0.268721	0.031236	0.768122
Br351	Br	-0.018721	0.281236	1.018122
Br352	Br	0.231279	0.531236	1.268122
Br353	Br	-0.817253	-0.852055	0.515340
Br354	Br	-0.567253	-0.602055	0.765340
Br355	Br	-0.317253	-0.352055	1.015340
Br356	Br	-0.067253	-0.102055	1.265340
Br357	Br	-0.644378	-0.859674	0.508263
Br358	Br	-0.394378	-0.609674	0.758263
Br359	Br	-0.144378	-0.359674	1.008263
Br360	Br	0.105622	-0.109674	1.258263
H361	H	-0.330419	-1.053913	0.665500
H362	H	-0.080419	-0.803913	0.915500
H363	H	0.169581	-0.553913	1.165500
H364	H	0.419581	-0.303913	1.415500
H365	H	-0.335842	-1.047991	0.798540
H366	H	-0.085842	-0.797991	1.048540
H367	H	0.164158	-0.547991	1.298540
H368	H	0.414158	-0.297991	1.548540
H369	H	-0.303177	-1.083596	0.997113
H370	H	-0.053177	-0.833596	1.247113
H371	H	0.196823	-0.583596	1.497113
H372	H	0.446823	-0.333596	1.747113
H373	H	-0.308603	-1.077675	1.130164
H374	H	-0.058603	-0.827675	1.380164
H375	H	0.191397	-0.577675	1.630164
H376	H	0.441397	-0.327675	1.880164
H377	H	-0.458866	-0.913902	0.996450
H378	H	-0.208866	-0.663902	1.246450
H379	H	0.041134	-0.413902	1.496450
H380	H	0.291134	-0.163902	1.746450
