data_functionalizedCrystal
_audit_creation_method	'MofGen! by Chris Wilmer'
_symmetry_space_group_name_H-M	'P1'
_symmetry_Int_Tables_number	1
_symmetry_cell_setting	triclinic
loop_
_symmetry_equiv_pos_as_xyz
  x,y,z
_cell_length_a	15.298068
_cell_length_b	19.121111
_cell_length_c	15.298431
_cell_angle_alpha	97.714904
_cell_angle_beta	91.585376
_cell_angle_gamma	77.495090
loop_
_atom_site_label
_atom_site_type_symbol
_atom_site_fract_x
_atom_site_fract_y
_atom_site_fract_z
Zn1	Zn	1.252700	0.012922	-0.727995
Zn2	Zn	1.269547	0.147063	-0.587399
Zn3	Zn	1.129073	0.052511	-0.557884
Zn4	Zn	1.097374	0.153834	-0.708730
O5	O	1.187174	0.091583	-0.645502
O6	O	1.378728	0.011314	-0.729759
O7	O	1.271229	0.148255	-0.461514
O8	O	1.151689	-0.051283	-0.576159
O9	O	1.391105	0.109867	-0.626464
O10	O	1.242517	-0.080369	-0.701139
O11	O	1.168024	0.078788	-0.439829
O12	O	1.001075	0.085354	-0.557479
O13	O	1.097662	0.121408	-0.833255
O14	O	0.977786	0.159796	-0.668306
O15	O	1.211779	0.017880	-0.847409
O16	O	1.240491	0.246504	-0.607784
O17	O	1.113997	0.251479	-0.696926
C18	C	0.957332	0.127606	-0.607600
C19	C	0.859001	0.143031	-0.591406
C20	C	0.555970	-0.018490	-0.761248
C21	C	0.648357	-0.032981	-0.776467
C22	C	0.701022	0.011020	-0.730203
C23	C	0.661292	0.069517	-0.668717
C24	C	0.568896	0.084013	-0.653501
C25	C	0.713948	0.113523	-0.622457
C26	C	0.674218	0.172019	-0.560971
C27	C	0.581830	0.186513	-0.545757
C28	C	0.529165	0.142511	-0.592021
C29	C	0.806344	0.099027	-0.637673
C30	C	0.819270	0.201529	-0.529926
C31	C	0.726883	0.216021	-0.514707
C32	C	1.175653	0.274537	-0.653490
C33	C	1.170801	0.352789	-0.656950
C34	C	1.234416	0.386927	-0.612218
C35	C	1.229857	0.460452	-0.615478
C36	C	1.161678	0.499840	-0.663466
C37	C	1.098059	0.465696	-0.708204
C38	C	1.102623	0.392171	-0.704948
C39	C	1.144605	0.721968	-0.675619
C40	C	1.140045	0.795499	-0.678869
C41	C	1.271844	0.790249	-0.586145
C42	C	1.276399	0.716724	-0.582889
C43	C	1.212783	0.682586	-0.627631
C44	C	1.157014	0.574995	-0.666797
C45	C	1.217451	0.607431	-0.624304
C46	C	1.417912	0.055419	-0.683553
C47	C	1.516239	0.040008	-0.699768
C48	C	1.149305	0.065983	-0.872842
C49	C	1.133168	0.055074	-0.969720
C50	C	1.198751	0.907908	-0.637515
C51	C	1.203660	0.829637	-0.634137
C52	C	1.071852	0.013779	-1.003937
C53	C	1.056679	0.003532	-1.094957
C54	C	1.102825	0.034575	-1.151771
C55	C	1.164147	0.075867	-1.117555
C56	C	1.179317	0.086119	-1.026525
C57	C	1.210290	0.106915	-1.174359
C58	C	1.271612	0.148206	-1.140144
C59	C	1.286780	0.158457	-1.049122
C60	C	1.240633	0.127414	-0.992309
C61	C	1.195121	0.096662	-1.265389
C62	C	1.302586	0.169002	-1.287978
C63	C	1.317759	0.179249	-1.196957
C64	C	1.224949	0.117024	-0.419053
C65	C	1.241269	0.127707	-0.322194
H66	H	0.513081	-0.054306	-0.798914
N67	N	1.075988	0.685156	-0.723865
H68	H	1.032102	0.721268	-0.754752
H69	H	1.042887	0.665103	-0.680255
N70	N	0.684020	0.279109	-0.448393
H71	H	0.637751	0.313815	-0.478862
H72	H	0.731449	0.304731	-0.421405
N73	N	0.876056	0.248996	-0.480018
H74	H	0.906458	0.271675	-0.523113
H75	H	0.922848	0.218815	-0.444743
H76	H	1.252987	0.135752	-0.918192
H77	H	1.042549	0.497771	-0.747281
H78	H	0.838683	0.051398	-0.687734
N79	N	1.383898	0.223783	-1.160049
H80	H	1.386403	0.225654	-1.093753
H81	H	1.364378	0.274413	-1.175988
N82	N	1.034012	0.355347	-0.753198
H83	H	0.990127	0.391454	-0.784091
H84	H	1.000908	0.335291	-0.709593
H85	H	0.453934	0.154311	-0.579639
N86	N	1.307951	0.344448	-0.560456
H87	H	1.347560	0.377233	-0.532616
H88	H	1.344840	0.303490	-0.601363
H89	H	1.006747	-0.030085	-1.122808
H90	H	1.272965	0.575359	-0.585236
N91	N	1.298470	0.497273	-0.567231
H92	H	1.342350	0.461165	-0.536333
H93	H	1.267319	0.538004	-0.522290
H94	H	1.336700	0.192090	-1.021266
N95	N	0.800662	-0.004590	-0.746640
H96	H	0.817839	-0.048318	-0.792618
H97	H	0.833636	-0.014335	-0.689942
N98	N	0.691207	-0.096066	-0.842781
H99	H	0.643827	-0.121742	-0.869779
H100	H	0.737483	-0.130724	-0.812257
N101	N	0.538974	0.249603	-0.479443
H102	H	0.492708	0.284313	-0.509913
H103	H	0.586409	0.275221	-0.452460
H104	H	1.034281	-0.011486	-0.957671
N105	N	1.066509	0.837983	-0.730635
H106	H	1.029551	0.878940	-0.689775
H107	H	1.026966	0.805148	-0.758482
H108	H	1.331916	0.684656	-0.543814
H109	H	1.323638	0.818052	-0.549720
H110	H	1.101501	0.607073	-0.705867
H111	H	1.145193	0.063041	-1.293238
N112	N	1.086462	0.023526	-1.249943
H113	H	1.040614	-0.007342	-1.262998
H114	H	1.144349	-0.001375	-1.281253
H115	H	1.340164	0.194278	-1.334236
