data_functionalizedCrystal
_audit_creation_method	'MofGen! by Chris Wilmer'
_symmetry_space_group_name_H-M	'P1'
_symmetry_Int_Tables_number	1
_symmetry_cell_setting	triclinic
loop_
_symmetry_equiv_pos_as_xyz
  x,y,z
_cell_length_a	10.723024
_cell_length_b	8.965430
_cell_length_c	10.723024
_cell_angle_alpha	89.998405
_cell_angle_beta	84.467869
_cell_angle_gamma	90.003544
loop_
_atom_site_label
_atom_site_type_symbol
_atom_site_fract_x
_atom_site_fract_y
_atom_site_fract_z
O1	O	1.657188	0.124026	0.175018
O2	O	1.294036	0.124030	0.191771
O3	O	1.483989	0.124022	0.001818
O4	O	1.467235	0.124034	0.364971
O5	O	1.483973	-0.124057	0.001831
O6	O	1.294020	-0.124049	0.191784
O7	O	1.657172	-0.124053	0.175031
Cu8	Cu	1.475595	-0.146703	0.183408
Cu9	Cu	1.475614	0.146680	0.183393
O10	O	1.467219	-0.124045	0.364983
C11	C	1.247528	-0.000009	0.190558
C12	C	1.108974	-0.000007	0.186911
N13	N	1.475590	-0.353052	0.183418
C14	C	1.033991	-0.000002	0.293198
C15	C	0.890788	-0.000001	0.289431
C16	C	1.387716	-0.450354	0.271236
C17	C	1.500691	-0.549768	0.296416
C18	C	1.362663	-0.549765	0.158249
C19	C	1.588622	-0.450277	0.208655
C20	C	1.450520	-0.450265	0.070438
C21	C	1.563576	-0.549634	0.095571
C22	C	1.703680	-0.000011	0.176243
C23	C	1.842234	-0.000003	0.179891
C24	C	1.482762	-0.000015	-0.044675
C25	C	1.479114	-0.000010	-0.183229
N26	N	1.475628	0.353029	0.183374
C27	C	1.365807	-0.000001	-0.374986
C28	C	1.369574	-0.000006	-0.231783
C29	C	1.468447	-0.000004	0.411477
C30	C	1.472094	0.000000	0.550031
H31	H	1.075814	-0.000008	0.386984
C32	C	1.239101	-0.000008	-0.431480
N33	N	1.143663	-0.000021	-0.474028
C34	C	1.052481	-0.000011	0.060205
N35	N	1.009932	-0.000011	-0.035233
H36	H	0.826355	0.000009	0.380421
C37	C	1.246645	-0.000005	-0.144741
N38	N	1.154051	-0.000001	-0.079177
C39	C	1.287424	-0.391444	0.371655
N40	N	1.211892	-0.347069	0.447293
H41	H	1.570109	-0.000016	-0.247654
C42	C	1.421788	-0.391162	-0.058570
N43	N	1.400132	-0.346642	-0.155738
H44	H	0.906659	0.000003	0.088896
C45	C	1.598800	-0.000008	-0.393476
N46	N	1.694238	-0.000018	-0.350927
C47	C	1.529365	-0.608830	0.425463
N48	N	1.550951	-0.653316	0.522664
H49	H	1.684160	-0.406760	0.230038
H50	H	1.637986	-0.592953	0.021284
H51	H	1.267147	-0.593469	0.136980
