data_functionalizedCrystal
_audit_creation_method	'MofGen! by Chris Wilmer'
_symmetry_space_group_name_H-M	'P1'
_symmetry_Int_Tables_number	1
_symmetry_cell_setting	triclinic
loop_
_symmetry_equiv_pos_as_xyz
  x,y,z
_cell_length_a	17.077404
_cell_length_b	16.625545
_cell_length_c	17.077396
_cell_angle_alpha	90.027926
_cell_angle_beta	90.021444
_cell_angle_gamma	90.023805
loop_
_atom_site_label
_atom_site_type_symbol
_atom_site_fract_x
_atom_site_fract_y
_atom_site_fract_z
Zn1	Zn	1.200040	-0.321039	0.443886
Zn2	Zn	1.700040	0.178961	0.943886
Zn3	Zn	1.199941	-0.455882	0.312622
Zn4	Zn	1.699941	0.044118	0.812622
Zn5	Zn	1.068772	-0.321063	0.312630
Zn6	Zn	1.568772	0.178937	0.812630
Zn7	Zn	1.068734	-0.455830	0.443841
Zn8	Zn	1.568734	0.044170	0.943841
O9	O	1.134372	-0.388453	0.378245
O10	O	1.634372	0.111547	0.878245
O11	O	1.309874	-0.338939	0.426490
O12	O	1.809874	0.161061	0.926490
O13	O	1.182516	-0.438030	0.202776
O14	O	1.682516	0.061970	0.702776
O15	O	1.086242	-0.208227	0.330064
O16	O	1.586242	0.291773	0.830064
O17	O	1.309801	-0.438007	0.330050
O18	O	1.809801	0.061993	0.830050
O19	O	1.182684	-0.208210	0.426497
O20	O	1.682684	0.291790	0.926497
O21	O	1.086146	-0.338979	0.202782
O22	O	1.586146	0.161021	0.702782
O23	O	0.958920	-0.338928	0.330020
O24	O	1.458920	0.161072	0.830020
O25	O	1.086177	-0.437917	0.553694
O26	O	1.586177	0.062083	1.053694
O27	O	0.958892	-0.437940	0.426420
O28	O	1.458892	0.062060	0.926420
O29	O	1.182647	-0.338888	0.553727
O30	O	1.682647	0.161112	1.053727
O31	O	1.182479	-0.568707	0.330006
O32	O	1.682479	-0.068707	0.830006
O33	O	1.086081	-0.568669	0.426412
O34	O	1.586081	-0.068669	0.926412
C35	C	0.930424	-0.388432	0.378216
C36	C	1.430424	0.111568	0.878216
C37	C	0.843174	-0.388442	0.378223
C38	C	1.343174	0.111558	0.878223
C39	C	0.467395	-0.336983	0.428570
C40	C	0.967395	0.163017	0.928570
C41	C	0.549375	-0.336978	0.428561
C42	C	1.049375	0.163022	0.928561
C43	C	0.590325	-0.388470	0.378264
C44	C	1.090325	0.111530	0.878264
C45	C	0.549290	-0.439978	0.327979
C46	C	1.049290	0.060022	0.827979
C47	C	0.467312	-0.439988	0.327992
C48	C	0.967312	0.060012	0.827992
C49	C	0.720161	-0.439954	0.327954
C50	C	1.220161	0.060046	0.827954
C51	C	0.802145	-0.439944	0.327939
C52	C	1.302145	0.060056	0.827939
C53	C	0.802224	-0.336944	0.428523
C54	C	1.302224	0.163056	0.928523
C55	C	0.720245	-0.336953	0.428536
C56	C	1.220245	0.163047	0.928536
C57	C	0.679216	-0.388460	0.378249
C58	C	1.179216	0.111540	0.878249
C59	C	1.134286	-0.597944	0.378220
C60	C	1.634286	-0.097944	0.878220
C61	C	1.134322	-0.687565	0.378236
C62	C	1.634322	-0.187565	0.878236
C63	C	1.134352	-0.760348	0.378251
C64	C	1.634352	-0.260348	0.878251
C65	C	1.134398	-0.851656	0.378269
C66	C	1.634398	-0.351656	0.878269
C67	C	1.134439	-0.924433	0.378279
C68	C	1.634439	-0.424433	0.878279
C69	C	1.134484	-1.015747	0.378295
C70	C	1.634484	-0.515747	0.878295
C71	C	1.339116	-0.388476	0.378274
C72	C	1.839116	0.111524	0.878274
C73	C	1.426366	-0.388486	0.378286
C74	C	1.926366	0.111514	0.878286
C75	C	1.134419	-0.388394	0.582989
C76	C	1.634419	0.111606	1.082989
C77	C	1.134439	-0.388369	0.670239
C78	C	1.634439	0.111631	1.170239
C79	C	1.134479	-0.178145	0.378287
C80	C	1.634479	0.321855	0.878287
C81	C	1.134524	-0.088523	0.378305
C82	C	1.634524	0.411477	0.878305
C83	C	1.134370	-0.388454	0.174297
C84	C	1.634370	0.111546	0.674297
C85	C	1.134501	-0.388253	0.087047
C86	C	1.634501	0.111747	0.587047
C87	C	1.184673	-0.336800	0.711248
C88	C	1.684673	0.163200	1.211248
C89	C	1.184683	-0.336773	0.793228
C90	C	1.684683	0.163227	1.293228
C91	C	1.134462	-0.388320	0.834198
C92	C	1.634462	0.111680	1.334198
C93	C	1.084222	-0.439891	0.793184
C94	C	1.584222	0.060109	1.293184
C95	C	1.084209	-0.439913	0.711205
C96	C	1.584209	0.060087	1.211205
C97	C	1.084254	-0.439843	0.964054
C98	C	1.584254	0.060157	1.464054
C99	C	1.084268	-0.439822	1.046039
C100	C	1.584268	0.060178	1.546039
C101	C	1.184727	-0.336702	1.046077
C102	C	1.684727	0.163298	1.546077
C103	C	1.184714	-0.336724	0.964098
C104	C	1.684714	0.163276	1.464098
C105	C	1.134476	-0.388297	0.923089
C106	C	1.634476	0.111703	1.423089
H107	H	0.686906	-0.295020	0.469488
H108	H	1.186906	0.204980	0.969488
H109	H	0.433907	-0.481927	0.287048
H110	H	0.933907	0.018073	0.787048
F111	F	0.423820	-0.282172	0.482099
F112	F	0.923820	0.217828	0.982099
H113	H	1.043371	-0.481794	1.079394
H114	H	1.543371	0.018206	1.579394
F115	F	0.593037	-0.282166	0.482083
F116	F	1.093037	0.217834	0.982083
H117	H	0.582639	-0.481908	0.287030
H118	H	1.082639	0.018092	0.787030
F119	F	1.030782	-0.494731	0.920411
F120	F	1.530782	0.005269	1.420411
F121	F	1.030770	-0.494748	0.836789
F122	F	1.530770	0.005252	1.336789
H123	H	0.835634	-0.295004	0.469467
H124	H	1.335634	0.204996	0.969467
F125	F	1.030742	-0.494798	0.667561
F126	F	1.530742	0.005202	1.167561
H127	H	1.225632	-0.294708	1.079471
H128	H	1.725632	0.205292	1.579471
H129	H	0.686757	-0.481900	0.287008
H130	H	1.186757	0.018100	0.787008
F131	F	0.845726	-0.494766	0.274425
F132	F	1.345726	0.005234	0.774425
H133	H	1.225572	-0.294827	0.677896
H134	H	1.725572	0.205173	1.177896
H135	H	1.225590	-0.294782	0.826614
H136	H	1.725590	0.205218	1.326614
H137	H	1.225613	-0.294755	0.930743
H138	H	1.725613	0.205245	1.430743
