data_functionalizedCrystal
_audit_creation_method	'MofGen! by Chris Wilmer'
_symmetry_space_group_name_H-M	'P1'
_symmetry_Int_Tables_number	1
_symmetry_cell_setting	triclinic
loop_
_symmetry_equiv_pos_as_xyz
  x,y,z
_cell_length_a	8.497374
_cell_length_b	8.497374
_cell_length_c	29.839134
_cell_angle_alpha	90.004043
_cell_angle_beta	90.013693
_cell_angle_gamma	90.004389
loop_
_atom_site_label
_atom_site_type_symbol
_atom_site_fract_x
_atom_site_fract_y
_atom_site_fract_z
Zn1	Zn	0.892593	0.628533	0.686809
Zn2	Zn	0.628859	0.892282	0.686805
Zn3	Zn	0.628767	0.628486	0.611702
Zn4	Zn	0.892537	0.892241	0.611692
O5	O	0.760689	0.760385	0.649252
O6	O	0.857670	0.663556	0.749675
O7	O	0.408084	0.857287	0.676845
O8	O	0.663749	0.407730	0.621671
O9	O	0.663905	0.857332	0.749672
O10	O	0.857581	0.407764	0.676852
O11	O	0.408017	0.663477	0.621668
O12	O	0.663695	0.663437	0.548834
O13	O	1.113307	0.857261	0.621654
O14	O	0.857485	0.857216	0.548826
O15	O	1.113348	0.663516	0.676842
O16	O	0.663851	1.113039	0.676835
O17	O	0.857574	1.113009	0.621650
C18	C	0.760575	0.760318	0.532529
C19	C	0.760564	0.760328	0.482595
C20	C	1.350809	0.760411	0.649255
C21	C	1.172165	0.760403	0.649250
C22	C	0.760712	1.170265	0.649246
C23	C	0.760686	1.348909	0.649258
C24	C	0.861472	0.861435	0.172957
C25	C	0.861542	0.861480	-0.014716
O26	O	0.947271	0.947371	-0.038976
N27	N	0.760808	0.760443	-0.038190
C28	C	0.660056	0.659381	-0.014743
O29	O	0.574388	0.573433	-0.039016
C30	C	0.659995	0.659330	0.172929
C31	C	0.760724	0.760384	0.196401
C32	C	0.962195	0.962481	0.196429
C33	C	0.962170	0.962474	0.243345
C34	C	0.861423	0.861423	0.266788
C35	C	0.760700	0.760378	0.243316
C36	C	0.559252	0.558261	0.196375
C37	C	0.559248	0.558254	0.243296
C38	C	0.659978	0.659309	0.266768
C39	C	0.659928	0.659321	0.313675
N40	N	0.760662	0.760358	0.337150
C41	C	0.861410	0.861409	0.313706
C42	C	0.660093	0.659417	-0.113274
C43	C	0.660106	0.659432	-0.160192
C44	C	0.861595	0.861529	-0.160161
C45	C	0.861572	0.861521	-0.113242
C46	C	0.760827	0.760454	-0.089800
C47	C	0.861349	0.861389	0.412232
C48	C	0.861311	0.861379	0.459151
C49	C	0.659829	0.659277	0.459117
C50	C	0.659860	0.659292	0.412201
C51	C	0.760634	0.760354	0.388760
O52	O	0.574257	0.573463	0.337964
O53	O	0.947089	0.947320	0.337987
C54	C	0.861497	0.861442	0.126042
C55	C	0.760774	0.760397	0.102570
C56	C	0.660026	0.659345	0.126014
C57	C	0.760787	0.760411	0.055652
C58	C	0.861534	0.861462	0.032209
C59	C	0.962269	0.962499	0.055683
C60	C	0.962244	0.962493	0.102598
C61	C	0.559292	0.558309	0.102539
C62	C	0.559323	0.558324	0.055624
C63	C	0.660071	0.659375	0.032180
C64	C	0.760804	0.760454	0.766430
C65	C	0.760853	0.760483	0.816365
H66	H	0.943339	0.943676	0.478260
H67	H	0.477283	0.476035	0.036517
H68	H	0.578066	0.577159	-0.179298
H69	H	1.044244	1.044769	0.177346
C70	C	0.448456	0.447073	0.170567
N71	N	0.365006	0.363312	0.151128
C72	C	0.972391	0.972679	-0.087428
N73	N	1.055868	1.056404	-0.067987
H74	H	1.044198	1.044760	0.262451
H75	H	0.943412	0.943680	0.393151
H76	H	0.943627	0.943809	-0.179257
H77	H	0.578046	0.577114	-0.094191
C78	C	0.448413	0.447074	0.269080
N79	N	0.364927	0.363337	0.288500
C80	C	0.549041	0.548140	0.386382
N81	N	0.465580	0.464407	0.366937
H82	H	0.577798	0.577008	0.478213
C83	C	1.073061	1.073657	0.128411
N84	N	1.156537	1.157389	0.147850
C85	C	1.073094	1.073653	0.029886
N86	N	1.156570	1.157362	0.010453
H87	H	0.477249	0.476019	0.121622
