data_functionalizedCrystal
_audit_creation_method	'MofGen! by Chris Wilmer'
_symmetry_space_group_name_H-M	'P1'
_symmetry_Int_Tables_number	1
_symmetry_cell_setting	triclinic
loop_
_symmetry_equiv_pos_as_xyz
  x,y,z
_cell_length_a	12.759395
_cell_length_b	19.121063
_cell_length_c	12.759387
_cell_angle_alpha	92.403602
_cell_angle_beta	89.979491
_cell_angle_gamma	92.470426
loop_
_atom_site_label
_atom_site_type_symbol
_atom_site_fract_x
_atom_site_fract_y
_atom_site_fract_z
Zn1	Zn	1.588336	-0.279547	-0.611793
Zn2	Zn	2.088336	0.220453	-0.111793
Zn3	Zn	1.580692	-0.397015	-0.443587
Zn4	Zn	2.080692	0.102985	0.056413
Zn5	Zn	1.412632	-0.279586	-0.436132
Zn6	Zn	1.912632	0.220414	0.063868
Zn7	Zn	1.405095	-0.396965	-0.619223
Zn8	Zn	1.905095	0.103035	-0.119223
O9	O	1.496689	-0.338278	-0.527684
O10	O	1.996689	0.161722	-0.027684
O11	O	1.734343	-0.295134	-0.589490
O12	O	2.234343	0.204866	-0.089490
O13	O	1.558353	-0.381475	-0.295580
O14	O	2.058353	0.118525	0.204420
O15	O	1.442293	-0.181296	-0.453204
O16	O	1.942293	0.318704	0.046796
O17	O	1.728726	-0.381437	-0.465911
O18	O	2.228726	0.118563	0.034089
O19	O	1.571382	-0.181268	-0.582261
O20	O	2.071382	0.318732	-0.082261
O21	O	1.434881	-0.295200	-0.290102
O22	O	1.934881	0.204800	0.209898
O23	O	1.264611	-0.295151	-0.460409
O24	O	1.764611	0.204849	0.039591
O25	O	1.429447	-0.381352	-0.765256
O26	O	1.929447	0.118648	-0.265256
O27	O	1.259074	-0.381389	-0.594925
O28	O	1.759074	0.118611	-0.094925
O29	O	1.564074	-0.295086	-0.759797
O30	O	2.064074	0.204914	-0.259797
O31	O	1.551045	-0.495293	-0.473116
O32	O	2.051045	0.004707	0.026884
O33	O	1.422034	-0.495256	-0.602155
O34	O	1.922034	0.004744	-0.102155
C35	C	1.223722	-0.338270	-0.527665
C36	C	1.723722	0.161730	-0.027665
C37	C	1.106944	-0.338283	-0.527683
C38	C	1.606944	0.161717	-0.027683
C39	C	1.101207	-0.428228	-0.667547
C40	C	1.601207	0.071772	-0.167547
C41	C	1.043477	-0.473206	-0.737482
C42	C	1.543477	0.026794	-0.237482
C43	C	0.933755	-0.473214	-0.737496
C44	C	1.433755	0.026786	-0.237496
C45	C	0.881761	-0.428239	-0.667569
C46	C	1.381761	0.071761	-0.167569
C47	C	0.939490	-0.383261	-0.597633
C48	C	1.439490	0.116739	-0.097633
C49	C	1.049215	-0.383258	-0.597625
C50	C	1.549215	0.116742	-0.097625
C51	C	0.945228	-0.293313	-0.457776
C52	C	1.445228	0.206687	0.042224
C53	C	1.054950	-0.293307	-0.457756
C54	C	1.554950	0.206693	0.042244
C55	C	0.893233	-0.248337	-0.387849
C56	C	1.393233	0.251663	0.112151
C57	C	0.950963	-0.203362	-0.317907
C58	C	1.450963	0.296638	0.182093
C59	C	1.060691	-0.203356	-0.317895
C60	C	1.560691	0.296644	0.182105
C61	C	1.112679	-0.248329	-0.387821
C62	C	1.612679	0.251671	0.112179
C63	C	1.484921	-0.520758	-0.539274
C64	C	1.984921	-0.020758	-0.039274
C65	C	1.479982	-0.598824	-0.544267
C66	C	1.979982	-0.098824	-0.044267
C67	C	1.544883	-0.635495	-0.479485
C68	C	2.044883	-0.135495	0.020515
C69	C	1.540245	-0.708846	-0.484187
C70	C	2.040245	-0.208846	0.015813
C71	C	1.470700	-0.745525	-0.553667
C72	C	1.970700	-0.245525	-0.053667
C73	C	1.405796	-0.708848	-0.618456
C74	C	1.905796	-0.208848	-0.118456
C75	C	1.410440	-0.635499	-0.613759
C76	C	1.910440	-0.135499	-0.113759
C77	C	1.453319	-0.966994	-0.571215
C78	C	1.953319	-0.466994	-0.071215
C79	C	1.448677	-1.040349	-0.575905
C80	C	1.948677	-0.540349	-0.075905
C81	C	1.583128	-1.040341	-0.441637
C82	C	2.083128	-0.540341	0.058363
C83	C	1.587762	-0.966990	-0.436941
C84	C	2.087762	-0.466990	0.063059
C85	C	1.522862	-0.930320	-0.501734
C86	C	2.022862	-0.430320	-0.001734
C87	C	1.465955	-0.820501	-0.558473
C88	C	1.965955	-0.320501	-0.058473
C89	C	1.527613	-0.855345	-0.496933
C90	C	2.027613	-0.355345	0.003067
C91	C	1.770721	-0.338287	-0.527703
C92	C	2.270721	0.161713	-0.027703
C93	C	1.887498	-0.338291	-0.527711
C94	C	2.387498	0.161709	-0.027711
C95	C	1.496772	-0.338209	-0.801713
C96	C	1.996772	0.161791	-0.301713
C97	C	1.496808	-0.338180	-0.918488
C98	C	1.996808	0.161820	-0.418488
C99	C	1.508531	-0.155086	-0.516072
C100	C	2.008531	0.344914	-0.016072
C101	C	1.513578	-0.077020	-0.511123
C102	C	2.013578	0.422980	-0.011123
C103	C	1.637004	-0.248357	-0.912823
C104	C	2.137004	0.251643	-0.412823
C105	C	1.707117	-0.203435	-0.964851
C106	C	2.207117	0.296565	-0.464851
C107	C	1.707144	-0.203409	-1.074571
C108	C	2.207144	0.296591	-0.574571
C109	C	1.637048	-0.248309	-1.132266
C110	C	2.137048	0.251691	-0.632266
C111	C	1.566935	-0.293231	-1.080238
C112	C	2.066935	0.206769	-0.580238
C113	C	1.566918	-0.293253	-0.970516
C114	C	2.066918	0.206747	-0.470516
C115	C	1.426736	-0.383050	-1.085903
C116	C	1.926736	0.116950	-0.585903
C117	C	1.426712	-0.383080	-0.976183
C118	C	1.926712	0.116920	-0.476183
C119	C	1.356641	-0.427949	-1.143598
C120	C	1.856641	0.072051	-0.643598
C121	C	1.286531	-0.472876	-1.091570
C122	C	1.786531	0.027124	-0.591570
C123	C	1.286507	-0.472900	-0.981843
C124	C	1.786507	0.027100	-0.481843
C125	C	1.356599	-0.428002	-0.924155
C126	C	1.856599	0.071998	-0.424155
C127	C	1.496669	-0.338296	-0.254717
C128	C	1.996669	0.161704	0.245283
C129	C	1.496849	-0.338128	-0.137931
C130	C	1.996849	0.161872	0.362069
H131	H	0.886752	-0.509836	-0.794448
H132	H	1.386752	-0.009836	-0.294448
F133	F	1.661793	-0.927960	-0.363002
F134	F	2.161793	-0.427960	0.136998
H135	H	0.792419	-0.428244	-0.667594
H136	H	1.292419	0.071756	-0.167594
F137	F	1.211934	-0.520653	-1.152978
F138	F	1.711934	-0.020653	-0.652978
F139	F	1.637073	-0.248274	-1.249040
F140	F	2.137073	0.251726	-0.749040
F141	F	1.356670	-0.427920	-1.260372
F142	F	1.856670	0.072080	-0.760372
F143	F	1.356585	-0.428027	-0.807381
F144	F	1.856585	0.071973	-0.307381
F145	F	1.601630	-0.816308	-0.422994
F146	F	2.101630	-0.316308	0.077006
F147	F	1.636993	-0.248389	-0.796049
F148	F	2.136993	0.251611	-0.296049
H149	H	1.635967	-1.070206	-0.388888
H150	H	2.135967	-0.570206	0.111112
F151	F	1.217983	-0.428231	-0.667526
F152	F	1.717983	0.071769	-0.167526
F153	F	1.122124	-0.155479	-0.243464
F154	F	1.622124	0.344521	0.256536
H155	H	1.392058	-1.070210	-0.632503
H156	H	1.892058	-0.570210	-0.132503
F157	F	1.341366	-0.596471	-0.682712
F158	F	1.841366	-0.096471	-0.182712
H159	H	0.803891	-0.248344	-0.387869
H160	H	1.303891	0.251656	0.112131
F161	F	1.618897	-0.596466	-0.405528
F162	F	2.118897	-0.096466	0.094472
F163	F	1.391941	-0.859544	-0.632416
F164	F	1.891941	-0.359544	-0.132416
F165	F	1.098821	-0.521074	-0.811895
F166	F	1.598821	-0.021074	-0.311895
F167	F	0.895621	-0.155496	-0.243500
F168	F	1.395621	0.344504	0.256500
H169	H	1.229402	-0.509474	-0.939489
H170	H	1.729402	-0.009474	-0.439489
H171	H	1.400473	-0.937143	-0.623970
H172	H	1.900473	-0.437143	-0.123970
F173	F	1.229455	-0.248329	-0.387810
F174	F	1.729455	0.251671	0.112190
H175	H	1.349175	-0.738718	-0.675033
H176	H	1.849175	-0.238718	-0.175033
H177	H	1.764230	-0.166825	-1.116932
H178	H	2.264230	0.333175	-0.616932
F179	F	1.609325	-0.747871	-0.415240
F180	F	2.109325	-0.247871	0.084760
H181	H	1.764186	-0.166877	-0.917864
H182	H	2.264186	0.333123	-0.417864
