data_functionalizedCrystal
_audit_creation_method	'MofGen! by Chris Wilmer'
_symmetry_space_group_name_H-M	'P1'
_symmetry_Int_Tables_number	1
_symmetry_cell_setting	triclinic
loop_
_symmetry_equiv_pos_as_xyz
  x,y,z
_cell_length_a	16.992694
_cell_length_b	10.654550
_cell_length_c	15.455313
_cell_angle_alpha	92.692163
_cell_angle_beta	87.142206
_cell_angle_gamma	87.576563
loop_
_atom_site_label
_atom_site_type_symbol
_atom_site_fract_x
_atom_site_fract_y
_atom_site_fract_z
O1	O	1.045244	0.261289	-0.072018
O2	O	0.816944	0.258364	-0.072044
O3	O	0.936343	0.077541	-0.072027
O4	O	0.925845	0.442112	-0.072035
O5	O	0.929515	0.087836	0.072234
O6	O	0.810116	0.268659	0.072217
O7	O	1.038416	0.271584	0.072243
Cu8	Cu	0.923642	0.271061	0.085402
Cu9	Cu	0.931717	0.258886	-0.085203
O10	O	0.919017	0.452406	0.072226
C11	C	0.784297	0.259751	0.000083
C12	C	0.697192	0.248531	0.000074
C13	C	0.647540	0.356782	0.000072
C14	C	0.565696	0.346233	0.000084
C15	C	0.533505	0.227433	0.000092
C16	C	0.583163	0.119174	0.000096
C17	C	0.665006	0.129724	0.000090
C18	C	0.289668	0.183707	0.000116
C19	C	0.207819	0.173165	0.000119
C20	C	0.190358	0.400226	0.000109
C21	C	0.272203	0.410765	0.000098
C22	C	0.321854	0.302507	0.000107
N23	N	0.449847	0.216648	0.000102
N24	N	0.405510	0.313293	0.000103
C25	C	0.932158	0.035824	0.000102
C26	C	0.929852	-0.103819	0.000099
C27	C	1.000152	-0.177229	0.000109
C28	C	0.997980	-0.308438	0.000103
C29	C	0.855203	-0.292815	0.000079
C30	C	0.857375	-0.161609	0.000080
C31	C	1.072629	-0.119439	0.000129
C32	C	1.142934	-0.192850	0.000140
C33	C	1.140763	-0.324059	0.000134
C34	C	1.068286	-0.381857	0.000116
C35	C	1.071063	0.270196	0.000114
C36	C	1.158168	0.281416	0.000118
C37	C	0.923202	0.494124	0.000095
C38	C	0.925508	0.633766	0.000093
N39	N	0.917968	0.279624	0.205397
N40	N	0.937397	0.250314	-0.205198
C41	C	0.968711	0.202836	0.250798
C42	C	0.964428	0.209324	0.341605
C43	C	0.909405	0.292607	0.387010
C44	C	0.858656	0.369399	0.341602
C45	C	0.862937	0.362903	0.250797
C46	C	0.890929	0.320610	0.658589
C47	C	0.886654	0.327102	0.749401
C48	C	0.992425	0.167025	0.749398
C49	C	0.996704	0.160543	0.658590
C50	C	0.945953	0.237329	0.613191
N51	N	0.905027	0.299244	0.479830
N52	N	0.950328	0.230685	0.520373
H53	H	0.330084	0.095555	0.000124
O54	O	0.713351	0.024700	0.000126
C55	C	0.792490	0.059482	0.000100
H56	H	0.794873	0.160441	0.027407
H57	H	0.827196	-0.006021	0.041984
H58	H	0.819396	0.052153	-0.069111
H59	H	1.074405	-0.012603	0.000137
O60	O	1.209126	-0.395182	0.000179
C61	C	1.273557	-0.316036	0.000173
H62	H	1.252882	-0.218271	0.027483
H63	H	1.320874	-0.356422	0.042064
H64	H	1.299019	-0.309415	-0.069032
O65	O	0.813724	0.437682	0.206730
C66	C	0.826088	0.564947	0.228918
H67	H	0.887724	0.573712	0.253871
H68	H	0.820219	0.622819	0.169195
H69	H	0.780321	0.601218	0.281629
O70	O	0.678675	0.472285	0.000102
C71	C	0.617298	0.565565	0.000083
H72	H	0.560230	0.526709	0.027400
H73	H	0.632860	0.651004	0.041962
H74	H	0.609173	0.594410	-0.069127
O75	O	0.784737	-0.348757	0.000030
C76	C	0.723151	-0.255825	0.000043
H77	H	0.746919	-0.166534	-0.027267
H78	H	0.674579	-0.291262	-0.041846
H79	H	0.698155	-0.234532	0.069249
H80	H	0.149924	0.488363	0.000104
H81	H	1.013520	0.135024	0.213836
O82	O	1.066071	-0.509295	0.000221
C83	C	1.022668	-0.543528	0.074940
H84	H	0.981055	-0.461583	0.099849
H85	H	0.986917	-0.628665	0.058128
H86	H	1.064934	-0.568017	0.127261
H87	H	0.800130	-0.101836	0.000072
O88	O	1.049876	0.079068	0.614587
C89	C	1.009615	-0.006434	0.562370
H90	H	0.949307	0.036876	0.548583
H91	H	1.045238	-0.028353	0.498589
H92	H	1.001745	-0.096962	0.597712
O93	O	0.517393	0.451292	-0.000041
C94	C	0.473070	0.446657	-0.074764
H95	H	0.469561	0.344726	-0.099659
H96	H	0.411031	0.488499	-0.057962
H97	H	0.502775	0.502996	-0.127091
H98	H	1.033743	0.104508	0.786370
H99	H	0.813851	0.437205	0.378576
O100	O	1.013810	0.134698	0.385573
C101	C	1.063286	0.059788	0.326027
H102	H	1.067491	0.106763	0.261291
H103	H	1.124599	0.048866	0.352252
H104	H	1.037779	-0.036836	0.316386
H105	H	0.181613	0.076419	0.000125
O106	O	0.833124	0.408024	0.793374
C107	C	0.789256	0.474422	0.733832
H108	H	0.791147	0.418193	0.669106
H109	H	0.725473	0.489098	0.760080
H110	H	0.815675	0.569666	0.724166
O111	O	0.841567	0.395028	0.614452
C112	C	0.795290	0.319092	0.561919
H113	H	0.792128	0.221821	0.589293
H114	H	0.733266	0.363983	0.560889
H115	H	0.823053	0.310067	0.493098
O116	O	0.303571	0.526098	0.000186
C117	C	0.346864	0.544361	0.074893
H118	H	0.365517	0.449160	0.099828
H119	H	0.401522	0.598591	0.058056
H120	H	0.308562	0.600102	0.127204
O121	O	0.551767	0.003864	0.000066
C122	C	0.468882	0.017763	0.000091
H123	H	0.451488	0.111939	-0.027224
H124	H	0.445333	-0.061742	-0.041788
H125	H	0.442804	0.014330	0.069301
O126	O	1.213292	-0.136574	0.000038
C127	C	1.222366	-0.066494	-0.074683
H128	H	1.161889	-0.041832	-0.099600
H129	H	1.253311	0.023662	-0.057872
H130	H	1.259236	-0.124642	-0.126999
