data_functionalizedCrystal
_audit_creation_method	'MofGen! by Chris Wilmer'
_symmetry_space_group_name_H-M	'P1'
_symmetry_Int_Tables_number	1
_symmetry_cell_setting	triclinic
loop_
_symmetry_equiv_pos_as_xyz
  x,y,z
_cell_length_a	19.288840
_cell_length_b	15.995292
_cell_length_c	18.366186
_cell_angle_alpha	89.996953
_cell_angle_beta	89.983729
_cell_angle_gamma	83.297316
loop_
_atom_site_label
_atom_site_type_symbol
_atom_site_fract_x
_atom_site_fract_y
_atom_site_fract_z
O1	O	0.921617	0.104354	-0.060666
O2	O	1.254950	0.437688	0.272667
O3	O	1.588283	0.771021	0.606000
O4	O	0.719388	0.118467	-0.060640
O5	O	1.052721	0.451800	0.272693
O6	O	1.386054	0.785134	0.606026
O7	O	0.826051	-0.010502	-0.060655
O8	O	1.159385	0.322832	0.272678
O9	O	1.492718	0.656165	0.606012
O10	O	0.814953	0.233323	-0.060651
O11	O	1.148286	0.566657	0.272682
O12	O	1.481620	0.899990	0.606015
O13	O	0.826033	-0.010508	0.060444
O14	O	1.159366	0.322825	0.393778
O15	O	1.492700	0.656159	0.727111
O16	O	0.719370	0.118461	0.060459
O17	O	1.052703	0.451794	0.393792
O18	O	1.386036	0.785127	0.727126
O19	O	0.921599	0.104348	0.060433
O20	O	1.254932	0.437681	0.393766
O21	O	1.588265	0.771015	0.727100
Zn22	Zn	0.820481	0.111403	0.079673
Zn23	Zn	1.153815	0.444737	0.413007
Zn24	Zn	1.487148	0.778070	0.746340
Zn25	Zn	0.820505	0.111412	-0.079880
Zn26	Zn	1.153838	0.444745	0.253453
Zn27	Zn	1.487172	0.778078	0.586786
O28	O	0.814935	0.233317	0.060448
O29	O	1.148268	0.566650	0.393781
O30	O	1.481602	0.899984	0.727115
C31	C	0.693501	0.118013	-0.000087
C32	C	1.026834	0.451347	0.333246
C33	C	1.360167	0.784680	0.666579
C34	C	0.616393	0.116661	-0.000078
C35	C	0.949726	0.449994	0.333256
C36	C	1.283060	0.783327	0.666589
C37	C	0.580198	0.116014	-0.066091
C38	C	0.913531	0.449348	0.267242
C39	C	1.246864	0.782681	0.600576
C40	C	0.507748	0.114734	-0.066100
C41	C	0.841081	0.448067	0.267234
C42	C	1.174414	0.781401	0.600567
C43	C	0.471498	0.114083	-0.000092
C44	C	0.804831	0.447417	0.333241
C45	C	1.138164	0.780750	0.666575
C46	C	0.507701	0.114735	0.065930
C47	C	0.841034	0.448068	0.399263
C48	C	1.174368	0.781401	0.732597
C49	C	0.580149	0.116023	0.065937
C50	C	0.913482	0.449357	0.399270
C51	C	1.246815	0.782690	0.732604
C52	C	0.362039	0.062995	0.050469
C53	C	0.695372	0.396328	0.383802
C54	C	1.028705	0.729661	0.717135
C55	C	0.289593	0.061701	0.050459
C56	C	0.622926	0.395034	0.383792
C57	C	0.956259	0.728367	0.717126
C58	C	0.248044	0.110112	-0.000111
C59	C	0.581378	0.443446	0.333222
C60	C	0.914711	0.776779	0.666556
C61	C	0.278952	0.159807	-0.050683
C62	C	0.612285	0.493140	0.282650
C63	C	0.945619	0.826474	0.615984
C64	C	0.351400	0.161096	-0.050676
C65	C	0.684733	0.494429	0.282657
C66	C	1.018066	0.827762	0.615991
C67	C	0.392940	0.112686	-0.000092
C68	C	0.726274	0.446020	0.333241
C69	C	1.059607	0.779353	0.666575
C70	C	0.133290	0.108079	-0.066138
C71	C	0.466624	0.441412	0.267195
C72	C	0.799957	0.774746	0.600528
C73	C	0.060839	0.106804	-0.066144
C74	C	0.394172	0.440137	0.267189
C75	C	0.727505	0.773470	0.600522
C76	C	0.060794	0.106796	0.065887
C77	C	0.394127	0.440129	0.399221
C78	C	0.727461	0.773463	0.732554
C79	C	0.133244	0.108079	0.065892
C80	C	0.466577	0.441413	0.399225
C81	C	0.799910	0.774746	0.732558
C82	C	0.169488	0.108717	-0.000123
C83	C	0.502821	0.442050	0.333210
C84	C	0.836155	0.775383	0.666543
C85	C	0.825591	-0.041699	-0.000107
C86	C	1.158924	0.291635	0.333226
C87	C	1.492257	0.624968	0.666559
C88	C	0.824236	-0.134646	-0.000112
C89	C	1.157570	0.198687	0.333221
C90	C	1.490903	0.532020	0.666554
C91	C	0.819258	-0.472366	-0.000105
C92	C	1.152591	-0.139032	0.333228
C93	C	1.485925	0.194301	0.666561
C94	C	0.896245	-0.449352	0.000155
C95	C	1.229578	-0.116019	0.333489
C96	C	1.562911	0.217315	0.666822
C97	C	0.897708	-0.352682	-0.000120
C98	C	1.231041	-0.019349	0.333213
C99	C	1.564375	0.313985	0.666546
C100	C	0.821728	-0.304819	-0.000108
C101	C	1.155062	0.028514	0.333225
C102	C	1.488395	0.361847	0.666558
C103	C	0.783249	-0.333767	-0.069255
C104	C	1.116582	-0.000434	0.264078
C105	C	1.449916	0.332899	0.597412
C106	C	0.782322	-0.430554	-0.069310
C107	C	1.115655	-0.097221	0.264023
C108	C	1.448989	0.236112	0.597357
C109	C	0.780729	-0.430412	0.068403
C110	C	1.114063	-0.097079	0.401736
C111	C	1.447396	0.236254	0.735070
C112	C	0.783582	-0.333931	0.069314
C113	C	1.116915	-0.000598	0.402647
C114	C	1.450249	0.332736	0.735980
C115	C	0.823120	-0.210129	-0.000113
C116	C	1.156454	0.123205	0.333221
C117	C	1.489787	0.456538	0.666554
C118	C	0.817864	-0.567056	-0.000106
C119	C	1.151197	-0.233723	0.333227
C120	C	1.484530	0.099611	0.666561
C121	C	0.947485	0.104802	-0.000121
C122	C	1.280819	0.438135	0.333212
C123	C	1.614152	0.771469	0.666545
C124	C	1.024593	0.106155	-0.000136
C125	C	1.357927	0.439488	0.333197
C126	C	1.691260	0.772821	0.666531
C127	C	0.815396	0.264514	-0.000102
C128	C	1.148729	0.597847	0.333232
C129	C	1.482062	0.931181	0.666565
C130	C	0.816750	0.357462	-0.000101
C131	C	1.150083	0.690795	0.333232
C132	C	1.483417	1.024128	0.666566
N133	N	0.820470	0.111397	0.188564
N134	N	1.153803	0.444731	0.521898
N135	N	1.487137	0.778064	0.855231
N136	N	0.820522	0.111411	-0.188772
N137	N	1.153855	0.444745	0.144562
N138	N	1.487188	0.778078	0.477895
C139	C	0.867716	0.054318	0.226658
C140	C	1.201049	0.387651	0.559992
C141	C	1.534383	0.720985	0.893325
C142	C	0.867720	0.054314	0.302886
C143	C	1.201054	0.387647	0.636219
C144	C	1.534387	0.720981	0.969553
C145	C	0.820485	0.111404	0.341017
C146	C	1.153819	0.444737	0.674350
C147	C	1.487152	0.778071	1.007684
C148	C	0.773230	0.168488	0.302914
C149	C	1.106564	0.501821	0.636247
C150	C	1.439897	0.835155	0.969581
C151	C	0.773223	0.168484	0.226688
C152	C	1.106556	0.501818	0.560021
C153	C	1.439889	0.835151	0.893354
C154	C	0.811372	0.187698	0.461779
C155	C	1.144705	0.521032	0.795113
C156	C	1.478039	0.854365	1.128446
C157	C	0.811384	0.187703	0.538004
C158	C	1.144718	0.521036	0.871338
C159	C	1.478051	0.854369	1.204671
C160	C	0.820505	0.111415	0.576125
C161	C	1.153838	0.444748	0.909458
C162	C	1.487172	0.778081	1.242791
C163	C	0.829628	0.035119	0.538011
C164	C	1.162961	0.368452	0.871344
C165	C	1.496295	0.701785	1.204677
C166	C	0.829620	0.035115	0.461784
C167	C	1.162954	0.368449	0.795118
C168	C	1.496287	0.701782	1.128451
C169	C	0.820488	0.111414	0.423672
C170	C	1.153822	0.444747	0.757005
C171	C	1.487155	0.778081	1.090338
C172	C	0.867759	0.054326	0.696873
C173	C	1.201092	0.387660	1.030207
C174	C	1.534425	0.720993	1.363540
C175	C	0.867758	0.054322	0.773103
C176	C	1.201091	0.387655	1.106436
C177	C	1.534425	0.720988	1.439769
C178	C	0.773271	0.168503	0.773129
C179	C	1.106605	0.501836	1.106463
C180	C	1.439938	0.835169	1.439796
C181	C	0.773269	0.168500	0.696901
C182	C	1.106602	0.501834	1.030235
C183	C	1.439935	0.835167	1.363568
C184	C	0.820516	0.111413	0.658778
C185	C	1.153849	0.444746	0.992111
C186	C	1.487182	0.778080	1.325445
H187	H	0.609618	0.116550	0.119695
H188	H	0.942952	0.449884	0.453028
H189	H	1.276285	0.783217	0.786361
H190	H	0.734799	0.214983	0.665883
H191	H	1.068132	0.548316	0.999217
H192	H	1.401466	0.881650	1.332550
H193	H	0.925762	-0.478482	-0.049162
H194	H	1.259095	-0.145148	0.284172
H195	H	1.592428	0.188185	0.617505
F196	F	0.839340	-0.046079	0.578575
F197	F	1.172673	0.287254	0.911908
F198	F	1.506007	0.620587	1.245241
F199	F	0.801680	0.268903	0.578561
F200	F	1.135013	0.602236	0.911894
F201	F	1.468347	0.935569	1.245227
F202	F	0.820200	-0.309805	0.136178
F203	F	1.153533	0.023529	0.469511
F204	F	1.486867	0.356862	0.802844
F205	F	0.935024	-0.486099	0.064971
F206	F	1.268358	-0.152765	0.398304
F207	F	1.601691	0.180568	0.731638
F208	F	0.710170	-0.291828	-0.072609
F209	F	1.043503	0.041505	0.260724
F210	F	1.376837	0.374839	0.594058
H211	H	0.264434	0.021232	0.091634
H212	H	0.597768	0.354565	0.424968
H213	H	0.931101	0.687899	0.758301
H214	H	0.478181	0.114207	0.119674
H215	H	0.811515	0.447540	0.453007
H216	H	1.144848	0.780873	0.786341
H217	H	0.928038	-0.334393	-0.049781
H218	H	1.261371	-0.001059	0.283552
H219	H	1.594704	0.332274	0.616885
F220	F	0.708544	-0.449289	-0.073405
F221	F	1.041877	-0.115956	0.259929
F222	F	1.375211	0.217378	0.593262
H223	H	0.395862	0.023570	0.091652
H224	H	0.729196	0.356903	0.424985
H225	H	1.062529	0.690236	0.758319
F226	F	0.818195	-0.307683	-0.136527
F227	F	1.151528	0.025650	0.196806
F228	F	1.484862	0.358983	0.530139
H229	H	0.162801	0.108607	-0.119891
H230	H	0.496134	0.441940	0.213442
H231	H	0.829468	0.775274	0.546775
H232	H	0.728124	-0.300747	0.073499
H233	H	1.061457	0.032587	0.406832
H234	H	1.394790	0.365920	0.740165
H235	H	0.927845	-0.333776	0.049445
H236	H	1.261178	-0.000443	0.382779
H237	H	1.594511	0.332890	0.716112
H238	H	0.031369	0.106283	-0.119903
H239	H	0.364702	0.439616	0.213431
H240	H	0.698036	0.772949	0.546764
H241	H	0.724061	-0.444183	0.068877
H242	H	1.057394	-0.110850	0.402211
H243	H	1.390728	0.222484	0.735544
H244	H	0.906186	0.007832	0.195620
H245	H	1.239519	0.341166	0.528954
H246	H	1.572853	0.674499	0.862287
F247	F	0.022218	0.106110	0.136139
F248	F	0.355551	0.439444	0.469472
F249	F	0.688885	0.772777	0.802805
F250	F	0.801714	0.268902	0.421216
F251	F	1.135048	0.602235	0.754549
F252	F	1.468381	0.935568	1.087883
F253	F	0.722935	0.229239	0.186144
F254	F	1.056268	0.562572	0.519477
F255	F	1.389602	0.895906	0.852810
H256	H	0.734770	0.214970	0.333964
H257	H	1.068103	0.548304	0.667298
H258	H	1.401436	0.881637	1.000631
H259	H	0.906195	0.007831	0.333908
H260	H	1.239528	0.341165	0.667241
H261	H	1.572862	0.674498	1.000574
F262	F	0.817178	-0.465740	-0.136879
F263	F	1.150511	-0.132407	0.196454
F264	F	1.483845	0.200927	0.529788
H265	H	0.804966	-0.458598	0.120816
H266	H	1.138300	-0.125264	0.454150
H267	H	1.471633	0.208069	0.787483
F268	F	0.839324	-0.046082	0.421223
F269	F	1.172657	0.287251	0.754557
F270	F	1.505990	0.620585	1.087890
F271	F	0.918040	-0.006434	0.656299
F272	F	1.251374	0.326899	0.989632
F273	F	1.584707	0.660233	1.322966
H274	H	0.906230	0.007836	0.804119
H275	H	1.239563	0.341169	1.137453
H276	H	1.572896	0.674503	1.470786
F277	F	0.722996	0.229257	0.813707
F278	F	1.056329	0.562590	1.147041
F279	F	1.389663	0.895924	1.480374
F280	F	0.384291	0.213985	-0.104495
F281	F	0.717624	0.547319	0.228839
F282	F	1.050957	0.880652	0.562172
F283	F	0.234738	0.211337	-0.104506
F284	F	0.568072	0.544671	0.228828
F285	F	0.901405	0.878004	0.562161
F286	F	0.171767	0.108763	0.136153
F287	F	0.505101	0.442096	0.469486
F288	F	0.838434	0.775430	0.802819
H289	H	0.478272	0.114209	-0.119857
H290	H	0.811605	0.447542	0.213476
H291	H	1.144938	0.780876	0.546809
F292	F	0.618767	0.116696	-0.136350
F293	F	0.952101	0.450029	0.196983
F294	F	1.285434	0.783362	0.530317
