data_functionalizedCrystal
_audit_creation_method	'MofGen! by Chris Wilmer'
_symmetry_space_group_name_H-M	'P1'
_symmetry_Int_Tables_number	1
_symmetry_cell_setting	triclinic
loop_
_symmetry_equiv_pos_as_xyz
  x,y,z
_cell_length_a	19.805407
_cell_length_b	19.121063
_cell_length_c	19.805398
_cell_angle_alpha	92.412609
_cell_angle_beta	89.984135
_cell_angle_gamma	92.469032
loop_
_atom_site_label
_atom_site_type_symbol
_atom_site_fract_x
_atom_site_fract_y
_atom_site_fract_z
Zn1	Zn	1.023208	-0.279643	-0.394203
Zn2	Zn	1.018299	-0.397092	-0.285838
Zn3	Zn	0.910029	-0.279658	-0.281029
Zn4	Zn	0.905156	-0.397058	-0.398984
O5	O	0.964173	-0.338363	-0.340013
O6	O	1.117273	-0.295230	-0.379841
O7	O	1.003921	-0.381535	-0.190484
O8	O	0.929136	-0.181372	-0.292028
O9	O	1.113666	-0.381519	-0.300225
O10	O	1.012288	-0.181360	-0.375177
O11	O	0.924376	-0.295257	-0.186951
O12	O	0.814666	-0.295224	-0.296663
O13	O	0.920831	-0.381461	-0.493065
O14	O	0.811086	-0.381477	-0.383324
O15	O	1.007563	-0.295197	-0.489553
O16	O	0.999196	-0.495372	-0.304861
O17	O	0.916071	-0.495347	-0.387988
C18	C	0.788317	-0.338349	-0.339991
C19	C	0.713085	-0.338360	-0.339998
C20	C	0.675891	-0.383340	-0.385055
C21	C	0.605203	-0.383341	-0.385065
C22	C	0.571709	-0.338366	-0.340013
C23	C	0.608908	-0.293381	-0.294954
C24	C	0.679595	-0.293377	-0.294949
C25	C	0.323834	-0.293397	-0.294977
C26	C	0.253141	-0.293406	-0.294985
C27	C	0.249442	-0.383361	-0.385094
C28	C	0.320129	-0.383356	-0.385088
C29	C	0.357322	-0.338370	-0.340031
C30	C	0.433970	-0.338368	-0.340022
C31	C	0.495062	-0.338371	-0.340019
C32	C	0.956590	-0.520844	-0.347480
C33	C	0.953408	-0.598910	-0.350696
C34	C	0.995226	-0.635575	-0.308963
C35	C	0.992237	-0.708927	-0.311993
C36	C	0.947427	-0.745612	-0.356752
C37	C	0.905608	-0.708941	-0.398489
C38	C	0.908600	-0.635591	-0.395463
C39	C	0.936228	-0.967082	-0.368056
C40	C	0.933237	-1.040437	-0.371078
C41	C	1.019868	-1.040418	-0.284582
C42	C	1.022854	-0.967066	-0.281557
C43	C	0.981037	-0.930402	-0.323296
C44	C	0.944370	-0.820589	-0.359848
C45	C	0.984098	-0.855427	-0.320203
C46	C	1.140715	-0.338377	-0.340036
C47	C	1.215947	-0.338383	-0.340046
C48	C	0.964201	-0.338324	-0.516555
C49	C	0.964213	-0.338307	-0.591786
C50	C	0.971803	-0.155169	-0.332533
C51	C	0.975055	-0.077103	-0.329345
C52	C	1.009461	-0.293265	-1.051744
C53	C	1.009450	-0.293286	-0.981057
C54	C	0.964286	-0.338209	-0.947544
C55	C	0.919136	-0.383119	-0.984722
C56	C	0.919152	-0.383100	-1.055409
C57	C	0.919074	-0.383195	-0.699652
C58	C	0.919061	-0.383209	-0.628961
C59	C	1.009372	-0.293381	-0.625300
C60	C	1.009388	-0.293363	-0.695987
C61	C	0.964240	-0.338274	-0.733159
C62	C	0.964254	-0.338251	-0.809807
C63	C	0.964269	-0.338229	-0.870897
C64	C	0.964186	-0.338351	-0.164157
C65	C	0.964313	-0.338169	-0.088918
H66	H	0.581632	-0.256759	-0.258276
Cl67	Cl	1.079199	-0.920954	-0.225295
Cl68	Cl	0.862393	-0.439556	-1.102142
Cl69	Cl	0.717991	-0.439887	-0.441692
Cl70	Cl	1.066234	-0.236779	-1.093868
Cl71	Cl	0.849279	-0.755059	-0.454763
H72	H	1.046215	-0.256722	-0.950793
Cl73	Cl	0.888038	-0.866713	-0.416114
Cl74	Cl	1.066173	-0.236893	-0.738114
Cl75	Cl	0.862281	-0.439689	-0.586831
H76	H	0.709877	-0.256747	-0.258262
Cl77	Cl	1.066129	-0.236918	-0.578565
Cl78	Cl	0.862320	-0.439659	-0.746374
H79	H	0.882367	-0.419699	-0.957431
H80	H	1.053914	-1.070278	-0.250600
Cl81	Cl	1.044813	-0.755017	-0.259528
H82	H	1.031712	-0.605711	-0.272513
H83	H	0.874549	-0.605739	-0.429447
Cl84	Cl	0.876892	-1.086555	-0.427342
H85	H	0.902178	-0.937236	-0.402041
H86	H	0.574923	-0.419968	-0.421754
Cl87	Cl	0.362232	-0.439901	-0.441724
H88	H	0.225873	-0.256778	-0.258299
Cl89	Cl	0.202681	-0.439916	-0.441738
Cl90	Cl	0.370581	-0.236840	-0.238336
Cl91	Cl	1.040432	-0.809308	-0.263939
