data_functionalizedCrystal
_audit_creation_method	'MofGen! by Chris Wilmer'
_symmetry_space_group_name_H-M	'P1'
_symmetry_Int_Tables_number	1
_symmetry_cell_setting	triclinic
loop_
_symmetry_equiv_pos_as_xyz
  x,y,z
_cell_length_a	17.019383
_cell_length_b	17.038272
_cell_length_c	16.098538
_cell_angle_alpha	87.079695
_cell_angle_beta	83.394151
_cell_angle_gamma	92.753117
loop_
_atom_site_label
_atom_site_type_symbol
_atom_site_fract_x
_atom_site_fract_y
_atom_site_fract_z
O1	O	1.060268	-0.092325	-0.145222
O2	O	0.830675	-0.105844	-0.128774
O3	O	0.944107	0.014725	-0.136894
O4	O	0.946836	-0.212893	-0.137103
O5	O	0.937479	0.007709	0.002094
O6	O	0.824047	-0.112859	0.010213
O7	O	1.053640	-0.099340	-0.006235
Zn8	Zn	0.937791	-0.107214	0.024056
Zn9	Zn	0.946524	-0.097970	-0.159065
O10	O	0.940208	-0.219909	0.001885
C11	C	0.797839	-0.108975	-0.057166
C12	C	0.709872	-0.107844	-0.050864
C13	C	0.672151	-0.103491	-0.123659
C14	C	0.589496	-0.102441	-0.117725
C15	C	0.544564	-0.105740	-0.038995
C16	C	0.582290	-0.110096	0.033805
C17	C	0.664944	-0.111151	0.027871
C18	C	0.294823	-0.102751	-0.017287
C19	C	0.212164	-0.101693	-0.011358
C20	C	0.219375	-0.094040	-0.162889
C21	C	0.302030	-0.095091	-0.168816
C22	C	0.339749	-0.099451	-0.096016
C23	C	0.460077	-0.104665	-0.032928
C24	C	0.424235	-0.100532	-0.102083
C25	C	0.938310	0.040334	-0.067222
C26	C	0.930905	0.127094	-0.066692
C27	C	1.086476	-0.096209	-0.077845
C28	C	1.174443	-0.097340	-0.084153
C29	C	0.946005	-0.245518	-0.067788
C30	C	0.953410	-0.332278	-0.068324
N31	N	0.931837	-0.113521	0.149032
C32	C	0.998896	0.177509	-0.071562
C33	C	0.991934	0.259029	-0.071071
C34	C	0.916979	0.290133	-0.065704
C35	C	0.848982	0.239712	-0.060836
C36	C	0.855946	0.158194	-0.061333
C37	C	0.892378	0.535783	-0.063953
C38	C	0.885419	0.617307	-0.063454
C39	C	1.028371	0.636619	-0.073691
C40	C	1.035328	0.555098	-0.074182
C41	C	0.967332	0.504684	-0.069319
C42	C	0.909860	0.373459	-0.065200
C43	C	0.974452	0.421360	-0.069829
N44	N	0.952484	-0.091656	-0.284041
C45	C	0.980002	-0.062365	0.189169
C46	C	0.975845	-0.066785	0.276656
C47	C	0.923526	-0.122366	0.324003
C48	C	0.875355	-0.173524	0.283860
C49	C	0.879509	-0.169100	0.196375
C50	C	0.908467	-0.138391	0.588331
C51	C	0.904319	-0.142813	0.675821
C52	C	1.004807	-0.036072	0.668611
C53	C	1.008960	-0.031656	0.581125
C54	C	0.960787	-0.082812	0.540990
C55	C	0.919277	-0.126887	0.413428
C56	C	0.965032	-0.078287	0.451566
H57	H	0.338609	-0.092399	-0.232926
Cl58	Cl	1.074734	0.038216	0.521602
H59	H	0.188655	-0.090492	-0.222158
Cl60	Cl	0.403584	-0.108809	0.066043
Cl61	Cl	1.065362	0.028237	0.719071
H62	H	0.824378	0.642627	-0.059070
Cl63	Cl	0.754753	0.278814	-0.054100
H64	H	0.832752	-0.218776	0.322416
H65	H	1.059932	0.152191	-0.075927
Cl66	Cl	1.113846	0.700000	-0.079807
H67	H	0.460821	-0.097851	-0.166185
H68	H	1.047300	0.300074	-0.075035
H69	H	1.022609	-0.017109	0.150624
H70	H	0.876679	-0.172143	0.451986
Cl71	Cl	0.712365	-0.116627	0.119389
Cl72	Cl	1.129562	0.516004	-0.080956
H73	H	0.175581	-0.104401	0.052757
H74	H	0.837010	0.494745	-0.059993
H75	H	0.861712	-0.188076	0.714368
H76	H	0.325524	-0.106296	0.041993
Cl77	Cl	1.036396	-0.002473	0.327116
H78	H	0.800580	0.117146	-0.057368
H79	H	0.840287	-0.210756	0.163697
H80	H	1.007627	-0.033030	0.413014
H81	H	0.545700	-0.112786	0.097909
H82	H	1.035481	0.396033	-0.074217
H83	H	0.869244	-0.180045	0.555660
Cl84	Cl	0.542078	-0.096969	-0.209244
Cl85	Cl	0.728629	-0.099339	-0.222638
Cl86	Cl	0.815633	0.412568	-0.058457
