data_functionalizedCrystal
_audit_creation_method	'MofGen! by Chris Wilmer'
_symmetry_space_group_name_H-M	'P1'
_symmetry_Int_Tables_number	1
_symmetry_cell_setting	triclinic
loop_
_symmetry_equiv_pos_as_xyz
  x,y,z
_cell_length_a	10.654550
_cell_length_b	15.995350
_cell_length_c	9.730223
_cell_angle_alpha	90.000899
_cell_angle_beta	89.996251
_cell_angle_gamma	83.988639
loop_
_atom_site_label
_atom_site_type_symbol
_atom_site_fract_x
_atom_site_fract_y
_atom_site_fract_z
O1	O	1.666298	0.117599	-0.114395
O2	O	2.166298	0.617599	0.385605
O3	O	1.300673	0.128803	-0.114373
O4	O	1.800673	0.628803	0.385627
O5	O	1.493480	0.001371	-0.114383
O6	O	1.993480	0.501371	0.385617
O7	O	1.473491	0.245031	-0.114385
O8	O	1.973491	0.745031	0.385615
O9	O	1.493478	0.001375	0.114197
O10	O	1.993478	0.501375	0.614197
O11	O	1.300671	0.128806	0.114207
O12	O	1.800671	0.628806	0.614207
O13	O	1.666295	0.117602	0.114185
O14	O	2.166295	0.617602	0.614185
Zn15	Zn	1.483483	0.123205	0.150488
Zn16	Zn	1.983483	0.623205	0.650488
Zn17	Zn	1.483486	0.123200	-0.150676
Zn18	Zn	1.983486	0.623200	0.349324
O19	O	1.473488	0.245034	0.114195
O20	O	1.973488	0.745034	0.614195
C21	C	1.253885	0.127982	-0.000080
C22	C	1.753885	0.627982	0.499920
C23	C	1.114473	0.125521	-0.000071
C24	C	1.614473	0.625521	0.499929
C25	C	1.034008	0.200551	-0.000092
C26	C	1.534008	0.700551	0.499908
C27	C	0.903017	0.198233	-0.000116
C28	C	1.403017	0.698233	0.499884
C29	C	0.932971	0.045849	-0.000104
C30	C	1.432971	0.545849	0.499896
C31	C	1.063959	0.048168	-0.000071
C32	C	1.563959	0.548168	0.499929
C33	C	1.084522	0.277904	-0.000093
C34	C	1.584522	0.777904	0.499907
C35	C	1.004055	0.352940	-0.000115
C36	C	1.504055	0.852940	0.499885
C37	C	0.873064	0.350622	-0.000138
C38	C	1.373064	0.850622	0.499862
C39	C	0.822541	0.273268	-0.000140
C40	C	1.322541	0.773268	0.499860
C41	C	1.492652	-0.029827	-0.000096
C42	C	1.992652	0.470173	0.499904
C43	C	1.490175	-0.122791	-0.000104
C44	C	1.990175	0.377209	0.499896
C45	C	1.481278	-0.460591	-0.000098
C46	C	1.981278	0.039409	0.499902
C47	C	1.343964	-0.413954	-0.000603
C48	C	1.843964	0.086046	0.499397
C49	C	1.346442	-0.317249	-0.000087
C50	C	1.846442	0.182751	0.499913
C51	C	1.485691	-0.293004	-0.000102
C52	C	1.985691	0.206996	0.499898
C53	C	1.553417	-0.333687	0.130422
C54	C	2.053417	0.166313	0.630422
C55	C	1.549968	-0.430342	0.130531
C56	C	2.049968	0.069658	0.630531
C57	C	1.552807	-0.430688	-0.129407
C58	C	2.052807	0.069312	0.370593
C59	C	1.552775	-0.333743	-0.131132
C60	C	2.052775	0.166257	0.368868
C61	C	1.488192	-0.198292	-0.000099
C62	C	1.988192	0.301708	0.499901
C63	C	1.478780	-0.555303	-0.000092
C64	C	1.978780	-0.055303	0.499908
C65	C	1.713084	0.118423	-0.000111
C66	C	2.213084	0.618423	0.499889
C67	C	1.852495	0.120884	-0.000129
C68	C	2.352495	0.620884	0.499871
C69	C	1.474316	0.276232	-0.000095
C70	C	1.974316	0.776232	0.499905
C71	C	1.476793	0.369197	-0.000097
C72	C	1.976793	0.869197	0.499903
N73	N	1.483490	0.123207	0.356024
N74	N	1.983490	0.623207	0.856024
N75	N	1.483488	0.123191	-0.356212
N76	N	1.983488	0.623191	0.143788
C77	C	1.568886	0.066800	0.427946
C78	C	2.068886	0.566800	0.927946
C79	C	1.568883	0.066789	0.571829
C80	C	2.068883	0.566789	1.071829
C81	C	1.398083	0.179602	0.571856
C82	C	1.898083	0.679602	1.071856
C83	C	1.398081	0.179607	0.427976
C84	C	1.898081	0.679607	0.927976
C85	C	1.654295	0.010400	0.355994
C86	C	2.154295	0.510400	0.855994
C87	C	1.739700	-0.046012	0.427915
C88	C	2.239700	0.453988	0.927915
C89	C	1.739697	-0.046022	0.571798
C90	C	2.239697	0.453978	1.071798
C91	C	1.654289	0.010379	0.643760
C92	C	2.154289	0.510379	1.143760
H93	H	1.129477	-0.012928	-0.000058
H94	H	1.629477	0.487072	0.499942
F95	F	0.879195	-0.036470	-0.000111
F96	F	1.379195	0.463530	0.499889
H97	H	1.045200	0.415918	-0.000102
H98	H	1.545200	0.915918	0.499898
F99	F	1.830582	-0.106041	0.351328
F100	F	2.330582	0.393959	0.851328
H101	H	1.292844	-0.289694	0.093643
H102	H	1.792844	0.210306	0.593643
F103	F	1.488550	-0.298113	-0.257359
F104	F	1.988550	0.201887	0.242641
H105	H	1.654321	-0.317791	-0.139024
H106	H	2.154321	0.182209	0.360976
F107	F	0.683127	0.270805	-0.000147
F108	F	1.183127	0.770805	0.499853
F109	F	1.685135	-0.471434	-0.130570
F110	F	2.185135	0.028566	0.369430
H111	H	1.293204	-0.289138	-0.093652
H112	H	1.793204	0.210862	0.406348
H113	H	0.807551	0.411720	-0.000142
H114	H	1.307551	0.911720	0.499858
F115	F	1.485409	-0.454639	0.258070
F116	F	1.985409	0.045361	0.758070
H117	H	1.289082	-0.432806	-0.094203
H118	H	1.789082	0.067194	0.405797
F119	F	1.307188	0.239641	0.351431
F120	F	1.807188	0.739641	0.851431
H121	H	1.289324	-0.433864	0.092484
H122	H	1.789324	0.066136	0.592484
F123	F	1.654309	0.010409	0.202862
F124	F	2.154309	0.510409	0.702862
H125	H	1.506376	-0.305577	0.227563
H126	H	2.006376	0.194423	0.727563
F127	F	1.830580	-0.106065	0.648340
F128	F	2.330580	0.393935	1.148340
H129	H	1.650782	-0.462005	0.136444
H130	H	2.150782	0.037995	0.636444
H131	H	1.654285	0.010360	0.760919
H132	H	2.154285	0.510360	1.260919
H133	H	1.655720	-0.318967	0.135266
H134	H	2.155720	0.181033	0.635266
H135	H	1.507914	-0.451490	-0.228337
H136	H	2.007914	0.048510	0.271663
H137	H	1.328548	0.225522	0.630457
H138	H	1.828548	0.725522	1.130457
H139	H	1.191179	0.279800	-0.000080
H140	H	1.691179	0.779800	0.499920
