data_functionalizedCrystal
_audit_creation_method	'MofGen! by Chris Wilmer'
_symmetry_space_group_name_H-M	'P1'
_symmetry_Int_Tables_number	1
_symmetry_cell_setting	triclinic
loop_
_symmetry_equiv_pos_as_xyz
  x,y,z
_cell_length_a	10.685661
_cell_length_b	29.839131
_cell_length_c	10.685453
_cell_angle_alpha	85.605300
_cell_angle_beta	89.677666
_cell_angle_gamma	85.662274
loop_
_atom_site_label
_atom_site_type_symbol
_atom_site_fract_x
_atom_site_fract_y
_atom_site_fract_z
Zn1	Zn	1.862993	-0.206463	-0.855994
Zn2	Zn	1.878929	-0.287741	-0.646177
Zn3	Zn	1.669367	-0.207334	-0.630182
Zn4	Zn	1.653105	-0.276270	-0.839859
O5	O	1.766098	-0.244452	-0.743053
O6	O	2.040647	-0.221681	-0.841608
O7	O	1.864605	-0.282240	-0.468495
O8	O	1.695189	-0.144354	-0.660196
O9	O	2.052355	-0.281395	-0.687456
O10	O	1.837445	-0.143714	-0.826099
O11	O	1.710641	-0.223165	-0.456744
O12	O	1.491669	-0.212043	-0.644550
O13	O	1.667472	-0.261845	-1.017560
O14	O	1.479721	-0.262690	-0.798599
O15	O	1.821676	-0.210558	-1.029414
O16	O	1.848836	-0.349084	-0.671810
O17	O	1.682924	-0.340657	-0.814108
C18	C	1.440179	-0.236216	-0.718089
C19	C	1.300748	-0.232703	-0.707439
C20	C	1.765877	-0.361171	-0.742974
C21	C	1.765893	-0.411105	-0.742990
C22	C	1.852625	-0.725128	-0.669087
C23	C	1.852776	-0.912804	-0.669148
O24	O	1.926343	-0.940789	-0.606251
N25	N	1.766351	-0.931898	-0.743168
C26	C	1.679887	-0.904070	-0.817184
O27	O	1.606389	-0.924617	-0.880154
C28	C	1.679743	-0.716395	-0.817130
C29	C	1.766166	-0.697304	-0.743095
C30	C	1.939042	-0.706036	-0.595060
C31	C	1.938999	-0.659120	-0.595040
C32	C	1.852539	-0.631296	-0.669048
C33	C	1.766123	-0.650388	-0.743075
C34	C	1.593286	-0.688568	-0.891152
C35	C	1.593260	-0.641647	-0.891134
C36	C	1.679683	-0.622556	-0.817100
C37	C	1.679620	-0.575647	-0.817064
N38	N	1.766045	-0.556553	-0.743044
C39	C	1.852505	-0.584378	-0.669036
C40	C	1.679968	-1.002602	-0.817206
C41	C	1.680002	-1.049521	-0.817218
C42	C	1.852893	-1.058251	-0.669183
C43	C	1.852852	-1.011332	-0.669165
C44	C	1.766393	-0.983508	-0.743186
C45	C	1.852407	-0.485850	-0.668999
C46	C	1.852353	-0.438929	-0.668983
C47	C	1.679467	-0.430203	-0.817022
C48	C	1.679516	-0.477120	-0.817034
C49	C	1.765997	-0.504942	-0.743020
O50	O	1.606101	-0.547635	-0.879938
O51	O	1.926010	-0.563822	-0.606097
C52	C	1.852669	-0.772044	-0.669107
C53	C	1.766252	-0.791136	-0.743134
C54	C	1.679792	-0.763312	-0.817142
C55	C	1.766286	-0.838055	-0.743146
C56	C	1.852746	-0.865879	-0.669139
C57	C	1.939171	-0.846785	-0.595119
C58	C	1.939128	-0.799869	-0.595099
C59	C	1.593367	-0.782406	-0.891162
C60	C	1.593416	-0.829322	-0.891174
C61	C	1.679876	-0.857147	-0.817167
C62	C	2.093290	-0.252720	-0.768116
C63	C	2.232719	-0.256244	-0.778796
C64	C	1.740982	-0.234825	-1.070280
C65	C	1.730279	-0.230722	-1.209725
C66	C	1.766353	-0.127278	-0.743163
C67	C	1.766462	-0.077345	-0.743210
C68	C	1.791189	-0.254011	-0.417105
C69	C	1.802135	-0.257993	-0.277679
H70	H	1.252314	-0.209858	-0.638197
Cl71	Cl	1.570787	-0.395215	-0.910063
Cl72	Cl	1.961007	-0.414932	-0.575904
Cl73	Cl	1.961125	-0.520820	-0.575949
H74	H	1.609617	-1.065060	-0.877492
H75	H	1.281147	-0.279082	-0.848044
Cl76	Cl	2.047750	-0.741008	-0.502009
H77	H	2.009375	-0.643579	-0.534759
Cl78	Cl	1.910058	-0.298743	-0.202826
Cl79	Cl	1.484758	-0.853317	-0.984255
H80	H	1.609559	-0.979950	-0.877484
H81	H	1.660385	-0.204325	-0.258217
H82	H	1.923225	-0.995791	-0.608880
Cl83	Cl	1.961583	-1.093239	-0.576143
H84	H	1.522906	-0.704104	-0.951432
Cl85	Cl	1.570846	-0.501121	-0.910080
Cl86	Cl	1.484563	-0.606671	-0.984197
H87	H	2.009502	-0.784328	-0.534813
Cl88	Cl	2.047860	-0.881773	-0.502078
H89	H	1.522963	-0.759755	-0.951430
