data_functionalizedCrystal
_audit_creation_method	'MofGen! by Chris Wilmer'
_symmetry_space_group_name_H-M	'P1'
_symmetry_Int_Tables_number	1
_symmetry_cell_setting	triclinic
loop_
_symmetry_equiv_pos_as_xyz
  x,y,z
_cell_length_a	13.262402
_cell_length_b	13.339070
_cell_length_c	9.130313
_cell_angle_alpha	90.000364
_cell_angle_beta	74.084862
_cell_angle_gamma	99.431904
loop_
_atom_site_label
_atom_site_type_symbol
_atom_site_fract_x
_atom_site_fract_y
_atom_site_fract_z
O1	O	1.432390	0.136467	-0.448857
O2	O	1.131128	0.151292	-0.328835
O3	O	1.247184	-0.003531	-0.375076
O4	O	1.316334	0.291289	-0.402616
O5	O	1.247173	-0.003530	-0.618670
O6	O	1.131118	0.151292	-0.572430
O7	O	1.432379	0.136467	-0.692452
Cu8	Cu	1.281748	0.143880	-0.654683
Cu9	Cu	1.281760	0.143879	-0.366604
O10	O	1.316324	0.291290	-0.646211
C11	C	1.091777	0.150459	-0.434957
C12	C	0.974535	0.147966	-0.388248
C13	C	0.919459	0.146794	-0.233516
C14	C	0.809306	0.144461	-0.189634
C15	C	0.754217	0.143293	-0.300478
C16	C	0.809292	0.144459	-0.455212
C17	C	0.919457	0.146800	-0.499100
C18	C	0.754215	0.143300	-0.566062
C19	C	0.809290	0.144465	-0.720796
C20	C	0.919444	0.146805	-0.764676
C21	C	0.974533	0.147973	-0.653832
C22	C	0.644050	0.140959	-0.522174
C23	C	0.644048	0.140965	-0.787758
C24	C	0.754201	0.143298	-0.831641
C25	C	1.235498	-0.041269	-0.492218
C26	C	1.200680	-0.153719	-0.478340
C27	C	1.471404	-0.517364	-0.586197
C28	C	1.504121	-0.411712	-0.599245
C29	C	1.428263	-0.347209	-0.569020
C30	C	1.319684	-0.388367	-0.525745
C31	C	1.286964	-0.494029	-0.512707
C32	C	1.243823	-0.323874	-0.495529
C33	C	1.135244	-0.365032	-0.452255
C34	C	1.102530	-0.470684	-0.439218
C35	C	1.178387	-0.535187	-0.469444
C36	C	1.276543	-0.218212	-0.508567
C37	C	1.092103	-0.194877	-0.435077
C38	C	1.059387	-0.300529	-0.422029
C39	C	1.471730	0.137300	-0.586327
C40	C	1.588972	0.139792	-0.633026
C41	C	1.328010	0.329028	-0.529066
C42	C	1.362827	0.441478	-0.542934
N43	N	1.281746	0.143880	-0.857305
C44	C	1.333171	0.075341	-1.107784
C45	C	1.333164	0.075347	-0.954445
C46	C	1.230341	0.212417	-0.913515
C47	C	1.230355	0.212415	-1.066855
C48	C	1.384583	0.006797	-1.204914
C49	C	1.435990	-0.061740	-1.148716
C50	C	1.435984	-0.061734	-0.995376
C51	C	1.384570	0.006809	-0.898235
N52	N	1.281767	0.143871	-0.163984
H53	H	0.599219	0.140011	-0.396189
Cl54	Cl	0.823451	0.144768	-1.026158
H55	H	1.151755	-0.621218	-0.458817
Cl56	Cl	0.615737	0.140357	-0.245308
H57	H	0.964324	0.147752	-0.143284
H58	H	1.454908	-0.261183	-0.579646
H59	H	1.014118	-0.504191	-0.403992
Cl60	Cl	0.574802	0.139503	-0.927115
Cl61	Cl	1.113017	0.150904	-0.708993
Cl62	Cl	1.640613	-0.359978	-0.653613
H63	H	0.964285	0.147764	-0.890671
Cl64	Cl	0.922891	-0.352283	-0.367625
Cl65	Cl	0.996733	-0.113795	-0.397086
Cl66	Cl	1.384590	0.006782	-1.397682
H67	H	1.477858	-0.117540	-1.227818
Cl68	Cl	1.566754	-0.598456	-0.624217
H69	H	1.477850	-0.117532	-0.949625
H70	H	1.384577	0.006815	-0.773381
Cl71	Cl	1.413037	-0.166483	-0.562967
H72	H	1.188498	0.268220	-1.112612
Cl73	Cl	0.740078	0.142996	0.004880
Cl74	Cl	1.165706	0.298576	-0.791395
