data_functionalizedCrystal
_audit_creation_method	'MofGen! by Chris Wilmer'
_symmetry_space_group_name_H-M	'P1'
_symmetry_Int_Tables_number	1
_symmetry_cell_setting	triclinic
loop_
_symmetry_equiv_pos_as_xyz
  x,y,z
_cell_length_a	18.050589
_cell_length_b	18.050591
_cell_length_c	18.050583
_cell_angle_alpha	90.011642
_cell_angle_beta	90.031910
_cell_angle_gamma	90.027061
loop_
_atom_site_label
_atom_site_type_symbol
_atom_site_fract_x
_atom_site_fract_y
_atom_site_fract_z
Zn1	Zn	-0.295629	1.135301	0.419848
Zn2	Zn	0.037704	1.468634	0.753182
Zn3	Zn	0.371037	1.801967	1.086515
Zn4	Zn	-0.419842	1.135209	0.295668
Zn5	Zn	-0.086509	1.468542	0.629001
Zn6	Zn	0.246824	1.801876	0.962334
Zn7	Zn	-0.295668	1.011117	0.295682
Zn8	Zn	0.037665	1.344451	0.629015
Zn9	Zn	0.370999	1.677784	0.962349
Zn10	Zn	-0.419779	1.011068	0.419826
Zn11	Zn	-0.086446	1.344401	0.753159
Zn12	Zn	0.246887	1.677734	1.086492
O13	O	-0.357730	1.073174	0.357756
O14	O	-0.024396	1.406507	0.691089
O15	O	0.308937	1.739840	1.024423
O16	O	-0.312116	1.239213	0.403379
O17	O	0.021217	1.572546	0.736712
O18	O	0.354550	1.905880	1.070046
O19	O	-0.403413	1.118730	0.191745
O20	O	-0.070079	1.452064	0.525078
O21	O	0.263254	1.785397	0.858412
O22	O	-0.191738	1.027650	0.312168
O23	O	0.141595	1.360983	0.645502
O24	O	0.474928	1.694316	0.978835
O25	O	-0.403375	1.239146	0.312144
O26	O	-0.070042	1.572479	0.645477
O27	O	0.263292	1.905812	0.978811
O28	O	-0.191710	1.118887	0.403393
O29	O	0.141624	1.452220	0.736726
O30	O	0.474957	1.785553	1.070059
O31	O	-0.312183	1.027561	0.191755
O32	O	0.021151	1.360894	0.525089
O33	O	0.354484	1.694227	0.858422
O34	O	-0.312122	0.907186	0.312146
O35	O	0.021212	1.240520	0.645480
O36	O	0.354545	1.573853	0.978813
O37	O	-0.403268	1.027565	0.523753
O38	O	-0.069935	1.360898	0.857087
O39	O	0.263399	1.694232	1.190420
O40	O	-0.403306	0.907150	0.403354
O41	O	-0.069972	1.240483	0.736688
O42	O	0.263361	1.573816	1.070021
O43	O	-0.312055	1.118838	0.523770
O44	O	0.021278	1.452172	0.857103
O45	O	0.354611	1.785505	1.190437
O46	O	-0.523758	1.118682	0.312122
O47	O	-0.190425	1.452015	0.645456
O48	O	0.142908	1.785349	0.978789
O49	O	-0.523712	1.027476	0.403341
O50	O	-0.190379	1.360810	0.736674
O51	O	0.142954	1.694143	1.070007
C52	C	-0.357712	0.880222	0.357750
C53	C	-0.024378	1.213555	0.691083
C54	C	0.308955	1.546888	1.024417
C55	C	-0.357722	0.797676	0.357765
C56	C	-0.024388	1.131009	0.691098
C57	C	0.308945	1.464342	1.024432
C58	C	-0.407410	0.548852	0.407296
C59	C	-0.074077	0.882185	0.740630
C60	C	0.259256	1.215519	1.073963
C61	C	-0.425497	0.598221	0.339512
C62	C	-0.092164	0.931554	0.672845
C63	C	0.241169	1.264887	1.006178
C64	C	-0.357745	0.500555	0.357764
C65	C	-0.024412	0.833889	0.691097
C66	C	0.308922	1.167222	1.024430
C67	C	-0.339681	0.598268	0.425545
C68	C	-0.006348	0.931602	0.758878
C69	C	0.326985	1.264935	1.092211
C70	C	-0.357735	0.646540	0.357768
C71	C	-0.024402	0.979874	0.691101
C72	C	0.308931	1.313207	1.024434
C73	C	-0.375867	0.548837	0.289943
C74	C	-0.042534	0.882170	0.623276
C75	C	0.290799	1.215503	0.956610
C76	C	-0.290020	0.548880	0.376022
C77	C	0.043314	0.882214	0.709355
C78	C	0.376647	1.215547	1.042689
C79	C	-0.308081	0.598227	0.308191
C80	C	0.025252	0.931560	0.641524
C81	C	0.358586	1.264893	0.974857
C82	C	-0.357752	0.416457	0.357762
C83	C	-0.024419	0.749790	0.691095
C84	C	0.308914	1.083124	1.024429
C85	C	-0.357728	0.730637	0.357762
C86	C	-0.024395	1.063970	0.691095
C87	C	0.308939	1.397304	1.024428
C88	C	-0.550682	1.073084	0.357744
C89	C	-0.217349	1.406417	0.691077
C90	C	0.115985	1.739751	1.024410
C91	C	-0.633228	1.073114	0.357763
C92	C	-0.299894	1.406447	0.691097
C93	C	0.033439	1.739780	1.024430
C94	C	-0.832680	1.023565	0.407350
C95	C	-0.499347	1.356898	0.740684
C96	C	-0.166013	1.690231	1.074017
C97	C	-0.882130	1.005465	0.339584
C98	C	-0.548797	1.338799	0.672918
C99	C	-0.215463	1.672132	1.006251
C100	C	-0.784358	1.073187	0.357773
C101	C	-0.451025	1.406520	0.691106
C102	C	-0.117691	1.739853	1.024440
C103	C	-0.881990	1.091322	0.425547
C104	C	-0.548657	1.424655	0.758880
C105	C	-0.215323	1.757989	1.092213
C106	C	-0.930343	1.073256	0.357788
C107	C	-0.597010	1.406589	0.691122
C108	C	-0.263676	1.739922	1.024455
C109	C	-0.832721	1.055052	0.289971
C110	C	-0.499387	1.388385	0.623304
C111	C	-0.166054	1.721718	0.956638
C112	C	-0.832576	1.140940	0.375979
C113	C	-0.499243	1.474273	0.709312
C114	C	-0.165909	1.807607	1.042646
C115	C	-0.882004	1.122867	0.308166
C116	C	-0.548670	1.456200	0.641500
C117	C	-0.215337	1.789533	0.974833
C118	C	-0.700260	1.073145	0.357765
C119	C	-0.366926	1.406478	0.691098
C120	C	-0.033593	1.739812	1.024432
C121	C	-1.014440	1.073297	0.357788
C122	C	-0.681106	1.406631	0.691122
C123	C	-0.347773	1.739964	1.024455
C124	C	-0.164024	1.073284	0.357785
C125	C	0.169309	1.406617	0.691118
C126	C	0.502643	1.739951	1.024451
C127	C	-0.081478	1.073331	0.357797
C128	C	0.251855	1.406664	0.691130
C129	C	0.585188	1.739998	1.024463
C130	C	-0.357650	1.073206	0.551462
C131	C	-0.024317	1.406540	0.884795
C132	C	0.309016	1.739873	1.218128
C133	C	-0.357617	1.073220	0.634007
C134	C	-0.024283	1.406554	0.967341
C135	C	0.309050	1.739887	1.300674
C136	C	-0.357748	1.266879	0.357763
C137	C	-0.024415	1.600213	0.691096
C138	C	0.308918	1.933546	1.024429
C139	C	-0.357756	1.349425	0.357765
C140	C	-0.024423	1.682758	0.691099
C141	C	0.308910	2.016092	1.024432
C142	C	-0.357755	1.073184	0.164804
C143	C	-0.024422	1.406517	0.498137
C144	C	0.308912	1.739850	0.831471
C145	C	-0.357580	1.073314	0.082258
C146	C	-0.024246	1.406647	0.415592
C147	C	0.309087	1.739980	0.748925
C148	C	-0.307991	1.122905	0.833467
C149	C	0.025342	1.456238	1.166801
C150	C	0.358675	1.789571	1.500134
C151	C	-0.289814	1.055171	0.882866
C152	C	0.043520	1.388504	1.216199
C153	C	0.376853	1.721838	1.549533
C154	C	-0.357604	1.073250	0.785138
C155	C	-0.024271	1.406584	1.118471
C156	C	0.309063	1.739917	1.451805
C157	C	-0.375734	1.141011	0.882821
C158	C	-0.042401	1.474344	1.216154
C159	C	0.290932	1.807678	1.549488
C160	C	-0.357590	1.073285	0.931123
C161	C	-0.024257	1.406618	1.264456
C162	C	0.309076	1.739952	1.597790
C163	C	-0.339391	1.005481	0.833449
C164	C	-0.006058	1.338814	1.166783
C165	C	0.327275	1.672147	1.500116
C166	C	-0.425344	1.091367	0.833400
C167	C	-0.092010	1.424700	1.166733
C168	C	0.241323	1.758033	1.500067
C169	C	-0.407192	1.023586	0.882776
C170	C	-0.073858	1.356920	1.216110
C171	C	0.259475	1.690253	1.549443
C172	C	-0.357610	1.073231	0.701040
C173	C	-0.024277	1.406565	1.034373
C174	C	0.309057	1.739898	1.367706
C175	C	-0.357584	1.073296	1.015220
C176	C	-0.024251	1.406630	1.348553
C177	C	0.309082	1.739963	1.681886
H178	H	-0.266077	0.619769	0.266256
H179	H	0.067257	0.953102	0.599589
H180	H	0.400590	1.286436	0.932922
H181	H	-0.482619	1.106699	0.811658
H182	H	-0.149286	1.440033	1.144991
H183	H	0.184047	1.773366	1.478324
H184	H	-0.391074	1.198301	0.904511
H185	H	-0.057740	1.531634	1.237844
H186	H	0.275593	1.864967	1.571178
F187	F	-0.215185	0.520527	0.396237
F188	F	0.118148	0.853861	0.729571
F189	F	0.451481	1.187194	1.062904
H190	H	-0.323984	0.948174	0.811853
H191	H	0.009349	1.281508	1.145186
H192	H	0.342682	1.614841	1.478520
F193	F	-0.804370	0.968637	0.462074
F194	F	-0.471037	1.301970	0.795408
F195	F	-0.137704	1.635304	1.128741
H196	H	-0.449447	0.527173	0.449130
H197	H	-0.116113	0.860506	0.782463
H198	H	0.217220	1.193839	1.115797
H199	H	-0.482767	0.619893	0.324065
H200	H	-0.149434	0.953227	0.657398
H201	H	0.183899	1.286560	0.990731
F202	F	-0.214931	1.035156	0.911268
F203	F	0.118403	1.368490	1.244602
F204	F	0.451736	1.701823	1.577935
F205	F	-0.462017	0.968657	0.910910
F206	F	-0.128684	1.301991	1.244243
F207	F	0.204650	1.635324	1.577577
H208	H	-0.266009	1.164827	0.811814
H209	H	0.067324	1.498160	1.145147
H210	H	0.400658	1.831493	1.478480
H211	H	-0.391211	0.527215	0.232607
H212	H	-0.057878	0.860548	0.565941
H213	H	0.275456	1.193882	0.899274
H214	H	-0.903913	0.948201	0.324200
H215	H	-0.570579	1.281534	0.657533
H216	H	-0.237246	1.614867	0.990866
F217	F	-0.319716	0.626650	0.500465
F218	F	0.013617	0.959983	0.833798
F219	F	0.346951	1.293317	1.167132
H220	H	-0.811168	1.039674	0.232646
H221	H	-0.477834	1.373007	0.565979
H222	H	-0.144501	1.706341	0.899313
H223	H	-0.810795	1.198192	0.391396
H224	H	-0.477462	1.531525	0.724730
H225	H	-0.144129	1.864858	1.058063
F226	F	-0.910133	1.177757	0.253314
F227	F	-0.576800	1.511090	0.586647
F228	F	-0.243467	1.844423	0.919980
H229	H	-0.903632	1.106634	0.482856
H230	H	-0.570299	1.439967	0.816189
H231	H	-0.236966	1.773301	1.149523
