data_functionalizedCrystal
_audit_creation_method	'MofGen! by Chris Wilmer'
_symmetry_space_group_name_H-M	'P1'
_symmetry_Int_Tables_number	1
_symmetry_cell_setting	triclinic
loop_
_symmetry_equiv_pos_as_xyz
  x,y,z
_cell_length_a	16.120484
_cell_length_b	18.215407
_cell_length_c	18.215399
_cell_angle_alpha	89.980167
_cell_angle_beta	87.130211
_cell_angle_gamma	87.073985
loop_
_atom_site_label
_atom_site_type_symbol
_atom_site_fract_x
_atom_site_fract_y
_atom_site_fract_z
Zn1	Zn	-0.331906	-1.110213	0.430960
Zn2	Zn	-0.471328	-1.103879	0.314129
Zn3	Zn	-0.331934	-0.987144	0.307908
Zn4	Zn	-0.471282	-0.980871	0.437152
O5	O	-0.401612	-1.045527	0.372537
O6	O	-0.350409	-1.212356	0.415474
O7	O	-0.452868	-1.088368	0.210321
O8	O	-0.215264	-1.008745	0.319037
O9	O	-0.452841	-1.207703	0.329639
O10	O	-0.215244	-1.099163	0.409442
O11	O	-0.350456	-1.002604	0.205751
O12	O	-0.350411	-0.883328	0.325041
O13	O	-0.452762	-0.998054	0.539313
O14	O	-0.452789	-0.878719	0.419995
O15	O	-0.350364	-1.093081	0.534764
O16	O	-0.587988	-1.082286	0.335643
O17	O	-0.587954	-0.991913	0.426027
C18	C	-0.618221	-1.035751	0.382198
C19	C	-0.710887	-1.031637	0.386356
C20	C	-0.401598	-0.854321	0.372516
C21	C	-0.401612	-0.772522	0.372525
C22	C	-0.401555	-1.045574	0.564488
C23	C	-0.401530	-1.045594	0.646286
C24	C	-0.880549	-1.024129	0.393961
C25	C	-0.921836	-1.067056	0.351125
C26	C	-1.016241	-1.062879	0.355357
C27	C	-0.786135	-1.028305	0.389730
C28	C	-0.184158	-1.055360	0.362855
C29	C	-0.091492	-1.059551	0.358729
C30	C	-0.401627	-1.237479	0.372560
C31	C	-0.401634	-1.319277	0.372569
C32	C	-0.455004	-0.581943	0.421912
C33	C	-0.455007	-0.505085	0.421921
C34	C	-0.348236	-0.509861	0.323179
C35	C	-0.348229	-0.586719	0.323174
C36	C	-0.401619	-0.622758	0.372540
C37	C	-0.401627	-0.469041	0.372554
C38	C	-0.401630	-0.385708	0.372564
C39	C	-0.401615	-0.706097	0.372531
C40	C	-0.401610	-1.045524	0.181331
C41	C	-0.401399	-1.045657	0.099523
C42	C	-0.348162	-1.095094	0.832110
C43	C	-0.348138	-1.095104	0.908967
C44	C	-0.454770	-0.996153	0.913694
C45	C	-0.454790	-0.996140	0.836837
C46	C	-0.401487	-1.045615	0.796047
C47	C	-0.401443	-1.045637	0.949761
C48	C	-0.401417	-1.045648	1.033094
C49	C	-0.401511	-1.045603	0.712709
H50	H	-0.886281	-1.106944	0.311274
C51	C	-0.513407	-0.941739	0.958561
H52	H	-0.545163	-0.912265	0.926074
H53	H	-0.549725	-0.968255	0.990164
H54	H	-0.481502	-0.911117	0.987118
H55	H	-0.916101	-0.984243	0.433809
C56	C	-0.513722	-0.621584	0.476218
H57	H	-0.545510	-0.586266	0.505628
H58	H	-0.550007	-0.649920	0.449635
H59	H	-0.481865	-0.653014	0.506908
H60	H	-0.498478	-0.471857	0.462126
C61	C	-0.289522	-0.470216	0.268874
H62	H	-0.297177	-0.418596	0.275942
H63	H	-0.233519	-0.485339	0.277220
H64	H	-0.301662	-0.482246	0.219949
C65	C	-0.513455	-0.941714	0.797166
H66	H	-0.545207	-0.912259	0.832465
H67	H	-0.481573	-0.911085	0.765757
H68	H	-0.549790	-0.968229	0.768808
C69	C	-0.289503	-0.631618	0.268861
H70	H	-0.257716	-0.599147	0.239454
H71	H	-0.253217	-0.663248	0.295444
H72	H	-0.321354	-0.660149	0.238167
C73	C	-0.289521	-1.149504	0.787243
H74	H	-0.257753	-1.178968	0.819731
H75	H	-0.321414	-1.180127	0.758683
H76	H	-0.253201	-1.122980	0.755643
C77	C	-0.289484	-1.149534	0.948633
H78	H	-0.257748	-1.178999	0.913331
H79	H	-0.253147	-1.123032	0.976993
H80	H	-0.321376	-1.180164	0.980040
