data_functionalizedCrystal
_audit_creation_method	'MofGen! by Chris Wilmer'
_symmetry_space_group_name_H-M	'P1'
_symmetry_Int_Tables_number	1
_symmetry_cell_setting	triclinic
loop_
_symmetry_equiv_pos_as_xyz
  x,y,z
_cell_length_a	17.699104
_cell_length_b	19.188928
_cell_length_c	18.266242
_cell_angle_alpha	89.986251
_cell_angle_beta	90.009923
_cell_angle_gamma	96.782335
loop_
_atom_site_label
_atom_site_type_symbol
_atom_site_fract_x
_atom_site_fract_y
_atom_site_fract_z
O1	O	1.003954	-0.088363	0.060908
O2	O	0.783562	-0.099835	0.060907
O3	O	0.900119	0.007549	0.060889
O4	O	0.887397	-0.195747	0.060926
O5	O	0.900099	0.007555	-0.060873
O6	O	0.783542	-0.099830	-0.060854
O7	O	1.003934	-0.088358	-0.060854
Zn8	Zn	0.893735	-0.094093	-0.080187
Zn9	Zn	0.893761	-0.094100	0.080240
O10	O	0.887377	-0.195742	-0.060836
C11	C	0.755356	-0.099419	0.000026
C12	C	0.671340	-0.098178	0.000025
C13	C	0.146395	-0.154214	0.000043
C14	C	0.225337	-0.155375	0.000045
C15	C	0.274038	-0.092337	0.000034
C16	C	0.243794	-0.028132	0.000027
C17	C	0.164853	-0.026972	0.000030
C18	C	0.562154	-0.032812	0.000016
C19	C	0.641099	-0.033978	0.000011
C20	C	0.622638	-0.161216	0.000032
C21	C	0.543697	-0.160055	0.000035
C22	C	0.513459	-0.095852	0.000032
C23	C	0.427861	-0.094593	0.000031
C24	C	0.359635	-0.093595	0.000030
C25	C	0.899697	0.033563	0.000005
C26	C	0.898461	0.111069	-0.000005
C27	C	0.966853	0.155912	-0.000010
C28	C	0.965692	0.228737	-0.000001
C29	C	0.896135	0.256717	-0.000002
C30	C	0.827735	0.211864	0.000007
C31	C	0.828898	0.139041	0.000006
N32	N	0.842962	0.364787	-0.041445
N33	N	0.841862	0.433967	-0.041445
C34	C	0.892627	0.476130	0.000004
N35	N	0.944546	0.446501	0.041443
N36	N	0.945648	0.377314	0.041440
C37	C	0.894867	0.335681	-0.000000
C38	C	0.959765	0.599938	0.000009
C39	C	0.958601	0.672765	0.000022
C40	C	0.820642	0.655890	0.000023
C41	C	0.821808	0.583065	0.000017
C42	C	0.891371	0.555094	0.000007
C43	C	1.032140	-0.088774	0.000029
C44	C	1.116155	-0.090015	0.000034
N45	N	0.893723	-0.094087	-0.189674
C46	C	0.887801	0.778244	0.000039
C47	C	0.889044	0.700739	0.000023
C48	C	0.945351	-0.046561	-0.227991
C49	C	0.945356	-0.046558	-0.304636
C50	C	0.893740	-0.094093	-0.342961
C51	C	0.842102	-0.141623	-0.304634
C52	C	0.842093	-0.141620	-0.227991
N53	N	0.883901	-0.155889	-0.463282
N54	N	0.883914	-0.155889	-0.536090
C55	C	0.893761	-0.094103	-0.573883
N56	N	0.903610	-0.032314	-0.536118
N57	N	0.903601	-0.032315	-0.463303
C58	C	0.893743	-0.094101	-0.426068
C59	C	0.945397	-0.046569	-0.695307
C60	C	0.945397	-0.046565	-0.771953
C61	C	0.842146	-0.141636	-0.771951
C62	C	0.842143	-0.141634	-0.695306
C63	C	0.893773	-0.094102	-0.656989
N64	N	0.893779	-0.094100	0.189727
H65	H	0.537544	0.019466	0.000012
N66	N	0.751940	0.537265	0.000020
N67	N	0.689839	0.562252	0.000022
H68	H	0.640491	0.529906	0.000026
N69	N	0.998106	0.001972	-0.343798
N70	N	0.998111	0.001953	-0.412229
H71	H	1.035369	0.036224	-0.439887
N72	N	0.759027	0.093241	0.000015
N73	N	0.696926	0.118227	0.000022
H74	H	0.647578	0.085880	0.000028
H75	H	0.771102	0.234650	0.000008
H76	H	0.140234	0.025306	0.000024
N77	N	0.293549	0.036254	0.000024
N78	N	0.364030	0.035211	0.000022
H79	H	0.399170	0.080685	0.000019
N80	N	1.037914	0.127353	-0.000019
N81	N	1.098974	0.167405	-0.000021
H82	H	1.149163	0.147235	-0.000026
N83	N	1.030825	0.571372	-0.000004
N84	N	1.091886	0.611423	-0.000004
H85	H	1.142073	0.591251	-0.000014
N86	N	1.035562	0.274544	-0.000006
N87	N	1.097664	0.249560	-0.000013
H88	H	1.147011	0.281909	-0.000017
N89	N	0.789419	-0.190182	-0.811100
N90	N	0.789428	-0.190175	-0.879531
H91	H	0.752185	-0.224459	-0.907185
N92	N	1.028472	0.718563	0.000027
N93	N	1.090572	0.693576	0.000020
H94	H	1.139921	0.725921	0.000025
H95	H	0.987389	-0.007855	-0.196795
H96	H	0.764008	0.678670	0.000026
N97	N	0.789377	-0.190170	-0.343790
N98	N	0.789392	-0.190167	-0.412221
H99	H	0.752151	-0.224452	-0.439875
N100	N	0.789347	-0.190173	-0.188858
N101	N	0.743259	-0.232609	-0.223081
H102	H	0.706006	-0.266900	-0.195443
H103	H	0.987435	-0.007863	-0.664108
N104	N	0.998135	0.001996	-0.811085
N105	N	1.044224	0.044430	-0.776860
H106	H	1.081472	0.078728	-0.804496
H107	H	0.249954	-0.207653	0.000059
H108	H	0.800106	-0.180338	-0.664106
H109	H	0.647267	-0.213494	0.000037
N110	N	0.493962	-0.224454	0.000039
N111	N	0.520972	-0.281772	0.000048
H112	H	0.485848	-0.327256	0.000053
N113	N	0.096652	-0.218608	0.000039
N114	N	0.099280	-0.261331	-0.051282
H115	H	0.064150	-0.306812	-0.051285
N116	N	0.690849	0.030418	-0.000011
N117	N	0.688203	0.073151	-0.051342
H118	H	0.723339	0.118628	-0.051360
