data_functionalizedCrystal
_audit_creation_method	'MofGen! by Chris Wilmer'
_symmetry_space_group_name_H-M	'P1'
_symmetry_Int_Tables_number	1
_symmetry_cell_setting	triclinic
loop_
_symmetry_equiv_pos_as_xyz
  x,y,z
_cell_length_a	17.699083
_cell_length_b	14.519731
_cell_length_c	16.176319
_cell_angle_alpha	90.008567
_cell_angle_beta	89.995231
_cell_angle_gamma	83.485934
loop_
_atom_site_label
_atom_site_type_symbol
_atom_site_fract_x
_atom_site_fract_y
_atom_site_fract_z
O1	O	1.004413	0.116625	0.068632
O2	O	1.504413	0.616625	0.568632
O3	O	0.784079	0.131798	0.068660
O4	O	1.284079	0.631798	0.568660
O5	O	0.900079	-0.010050	0.068638
O6	O	1.400079	0.489950	0.568638
O7	O	0.888413	0.258474	0.068654
O8	O	1.388413	0.758474	0.568654
O9	O	0.900077	-0.010063	-0.068855
O10	O	1.400077	0.489937	0.431145
O11	O	0.784077	0.131785	-0.068833
O12	O	1.284077	0.631785	0.431167
O13	O	1.004411	0.116612	-0.068861
O14	O	1.504411	0.616612	0.431139
Cu15	Cu	0.894244	0.124198	-0.081401
Cu16	Cu	1.394244	0.624198	0.418599
Cu17	Cu	0.894246	0.124213	0.081200
Cu18	Cu	1.394246	0.624213	0.581200
O19	O	0.888410	0.258461	-0.068839
O20	O	1.388410	0.758461	0.431161
C21	C	0.755879	0.131248	-0.000083
C22	C	1.255879	0.631248	0.499917
C23	C	0.671857	0.129617	-0.000073
C24	C	1.171857	0.629617	0.499927
C25	C	0.899532	-0.044414	-0.000109
C26	C	1.399532	0.455586	0.499891
C27	C	0.897894	-0.146787	-0.000109
C28	C	1.397894	0.353213	0.499891
C29	C	0.623479	0.212879	-0.000068
C30	C	1.123479	0.712879	0.499932
C31	C	0.544531	0.211341	-0.000079
C32	C	1.044531	0.711341	0.499921
C33	C	0.513962	0.126540	-0.000089
C34	C	1.013962	0.626540	0.499911
C35	C	0.562346	0.043272	-0.000096
C36	C	1.062346	0.543272	0.499904
C37	C	0.641292	0.044811	-0.000091
C38	C	1.141292	0.544811	0.499909
C39	C	0.243965	0.037063	-0.000117
C40	C	0.743965	0.537063	0.499883
C41	C	0.165012	0.035531	-0.000119
C42	C	0.665012	0.535531	0.499881
C43	C	0.147204	0.203594	-0.000105
C44	C	0.647204	0.703594	0.499895
C45	C	0.226150	0.205133	-0.000100
C46	C	0.726150	0.705133	0.499900
C47	C	0.274527	0.121865	-0.000112
C48	C	0.774527	0.621865	0.499888
C49	C	0.360131	0.123533	-0.000102
C50	C	0.860131	0.623533	0.499898
C51	C	0.428360	0.124870	-0.000093
C52	C	0.928360	0.624870	0.499907
C53	C	0.896563	-0.229926	-0.000107
C54	C	1.396563	0.270074	0.499893
C55	C	0.894899	-0.334227	-0.000101
C56	C	1.394899	0.165773	0.499899
C57	C	0.893579	-0.417361	-0.000095
C58	C	1.393579	0.082639	0.499905
C59	C	0.891916	-0.521669	-0.000090
C60	C	1.391916	-0.021669	0.499910
C61	C	1.032611	0.117162	-0.000116
C62	C	1.532611	0.617162	0.499884
C63	C	1.116633	0.118793	-0.000121
C64	C	1.616633	0.618793	0.499879
C65	C	0.888958	0.292824	-0.000090
C66	C	1.388958	0.792824	0.499910
C67	C	0.890596	0.395198	-0.000085
C68	C	1.390596	0.895198	0.499915
N69	N	0.894248	0.124217	0.195566
N70	N	1.394248	0.624217	0.695566
N71	N	0.894247	0.124186	-0.195767
N72	N	1.394247	0.624186	0.304233
C73	C	0.945709	0.061530	0.238820
C74	C	1.445709	0.561530	0.738820
C75	C	0.945712	0.061528	0.325367
C76	C	1.445712	0.561528	0.825367
C77	C	0.894250	0.124209	0.368658
C78	C	1.394250	0.624209	0.868658
C79	C	0.842787	0.186903	0.325398
C80	C	1.342787	0.686903	0.825398
C81	C	0.842788	0.186909	0.238852
C82	C	1.342788	0.686909	0.738852
C83	C	0.842781	0.186882	0.674426
C84	C	1.342781	0.686882	1.174426
C85	C	0.842782	0.186869	0.760977
C86	C	1.342782	0.686869	1.260977
C87	C	0.945705	0.061501	0.760941
C88	C	1.445705	0.561501	1.260941
C89	C	0.945707	0.061507	0.674395
C90	C	1.445707	0.561507	1.174395
C91	C	0.894246	0.124203	0.631142
C92	C	1.394246	0.624203	1.131142
C93	C	0.894245	0.124206	0.537298
C94	C	1.394245	0.624206	1.037298
C95	C	0.894248	0.124203	0.462501
C96	C	1.394248	0.624203	0.962501
H97	H	0.648362	0.281934	-0.000060
H98	H	1.148362	0.781934	0.499940
O99	O	0.787276	0.254515	0.372078
O100	O	1.287276	0.754515	0.872078
H101	H	0.728297	0.242716	0.355453
H102	H	1.228297	0.742716	0.855453
O103	O	0.787293	0.254531	0.192192
O104	O	1.287293	0.754531	0.692192
H105	H	0.751507	0.298116	0.236833
H106	H	1.251507	0.798116	0.736833
H107	H	0.987613	0.010484	0.203578
H108	H	1.487613	0.510484	0.703578
H109	H	0.107806	0.271394	-0.000100
H110	H	0.607806	0.771394	0.499900
H111	H	0.987616	0.010484	0.360585
H112	H	1.487616	0.510484	0.860585
H113	H	0.987609	0.010463	0.639151
H114	H	1.487609	0.510463	1.139151
H115	H	0.800879	0.237930	0.639216
H116	H	1.300879	0.737930	1.139216
O117	O	1.001203	-0.006138	0.807590
O118	O	1.501203	0.493862	1.307590
H119	H	0.992560	0.004385	0.875044
H120	H	1.492560	0.504385	1.375044
H121	H	0.537451	-0.025775	-0.000116
H122	H	1.037451	0.474225	0.499884
O123	O	0.492355	0.301148	-0.000076
O124	O	0.992355	0.801148	0.499924
H125	H	0.455946	0.304469	0.055956
H126	H	0.955946	0.804469	0.555956
O127	O	0.787278	0.254477	0.807681
O128	O	1.287278	0.754477	1.307681
H129	H	0.796914	0.326396	0.791100
H130	H	1.296914	0.826396	1.291100
H131	H	0.251035	0.274186	-0.000088
H132	H	0.751035	0.774186	0.499912
O133	O	0.132041	-0.055940	-0.000146
O134	O	0.632041	0.444060	0.499854
H135	H	0.151461	-0.095951	0.055882
H136	H	0.651461	0.404049	0.555882
O137	O	0.296138	-0.052742	-0.000129
O138	O	0.796138	0.447258	0.499871
H139	H	0.261616	-0.111965	-0.000130
H140	H	0.761616	0.388035	0.499870
H141	H	0.680681	-0.022990	-0.000095
H142	H	1.180681	0.477010	0.499905
