data_functionalizedCrystal
_audit_creation_method	'MofGen! by Chris Wilmer'
_symmetry_space_group_name_H-M	'P1'
_symmetry_Int_Tables_number	1
_symmetry_cell_setting	triclinic
loop_
_symmetry_equiv_pos_as_xyz
  x,y,z
_cell_length_a	13.596369
_cell_length_b	10.723024
_cell_length_c	10.723024
_cell_angle_alpha	84.467869
_cell_angle_beta	89.995193
_cell_angle_gamma	89.994992
loop_
_atom_site_label
_atom_site_type_symbol
_atom_site_fract_x
_atom_site_fract_y
_atom_site_fract_z
O1	O	0.081782	-1.657190	-0.175029
O2	O	0.581782	-1.157190	0.324971
O3	O	0.081785	-1.294037	-0.191783
O4	O	0.581785	-0.794037	0.308217
O5	O	0.081780	-1.483990	-0.001830
O6	O	0.581780	-0.983990	0.498170
O7	O	0.081788	-1.467237	-0.364982
O8	O	0.581788	-0.967237	0.135018
O9	O	-0.081803	-1.483971	-0.001820
O10	O	0.418197	-0.983971	0.498180
O11	O	-0.081797	-1.294018	-0.191772
O12	O	0.418203	-0.794018	0.308228
O13	O	-0.081801	-1.657171	-0.175019
O14	O	0.418199	-1.157171	0.324981
Zn15	Zn	-0.107771	-1.475591	-0.183394
Zn16	Zn	0.392229	-0.975591	0.316606
Zn17	Zn	0.107756	-1.475617	-0.183408
Zn18	Zn	0.607756	-0.975617	0.316592
O19	O	-0.081795	-1.467218	-0.364972
O20	O	0.418205	-0.967218	0.135028
C21	C	-0.000006	-1.247528	-0.190558
C22	C	0.499994	-0.747528	0.309442
C23	C	-0.000004	-1.108974	-0.186911
C24	C	0.499996	-0.608974	0.313089
N25	N	-0.254863	-1.475583	-0.183384
N26	N	0.245137	-0.975583	0.316616
C27	C	-0.000010	-1.482762	0.044675
C28	C	0.499990	-0.982762	0.544675
C29	C	-0.000007	-1.479114	0.183229
C30	C	0.499993	-0.979114	0.683229
C31	C	-0.656154	-1.475615	-0.183409
C32	C	-0.156154	-0.975615	0.316591
C33	C	-0.544503	-1.475602	-0.183406
C34	C	-0.044503	-0.975602	0.316594
C35	C	-0.455512	-1.475600	-0.183398
C36	C	0.044488	-0.975600	0.316602
C37	C	-0.343854	-1.475586	-0.183393
C38	C	0.156146	-0.975586	0.316607
N39	N	0.254848	-1.475635	-0.183408
N40	N	0.754848	-0.975635	0.316592
C41	C	-0.000007	-1.703680	-0.176243
C42	C	0.499993	-1.203680	0.323757
C43	C	-0.000002	-1.842234	-0.179891
C44	C	0.499998	-1.342234	0.320109
C45	C	-0.000002	-1.033991	-0.293198
C46	C	0.499998	-0.533991	0.206802
C47	C	-0.000000	-0.890788	-0.289431
C48	C	0.500000	-0.390788	0.210569
C49	C	-0.000003	-1.468447	-0.411477
C50	C	0.499997	-0.968447	0.088523
C51	C	0.000000	-1.472094	-0.550031
C52	C	0.500000	-0.972094	-0.050031
C53	C	-0.000006	-1.585401	0.258212
C54	C	0.499994	-1.085401	0.758212
C55	C	-0.000003	-1.581634	0.401415
C56	C	0.499997	-1.081634	0.901415
H57	H	-0.000005	-1.075814	-0.386984
H58	H	0.499995	-0.575814	0.113016
O59	O	-0.000004	-1.702167	0.486758
O60	O	0.499996	-1.202167	0.986758
H61	H	-0.066684	-1.757291	0.468522
H62	H	0.433316	-1.257291	0.968522
O63	O	-0.000004	-0.927564	-0.059350
O64	O	0.499996	-0.427564	0.440650
H65	H	-0.066677	-0.909299	-0.004205
H66	H	0.433323	-0.409299	0.495795
O67	O	-0.000009	-1.053584	-0.062676
O68	O	0.499991	-0.553584	0.437324
H69	H	-0.066689	-1.085156	-0.008850
H70	H	0.433311	-0.585156	0.491150
H71	H	-0.000013	-1.679187	0.216390
H72	H	0.499987	-1.179187	0.716390
O73	O	-0.000007	-1.351549	0.364645
O74	O	0.499993	-0.851549	0.864645
H75	H	0.066668	-1.347751	0.304665
H76	H	0.566668	-0.847751	0.804665
O77	O	-0.000006	-0.805455	-0.409970
O78	O	0.499994	-0.305455	0.090030
H79	H	-0.000015	-0.706369	-0.388095
H80	H	0.499985	-0.206369	0.111905
O81	O	-0.000010	-1.354879	0.238620
O82	O	0.499990	-0.854879	0.738620
H83	H	0.066666	-1.301057	0.207035
H84	H	0.566666	-0.801057	0.707035
