data_functionalizedCrystal
_audit_creation_method	'MofGen! by Chris Wilmer'
_symmetry_space_group_name_H-M	'P1'
_symmetry_Int_Tables_number	1
_symmetry_cell_setting	triclinic
loop_
_symmetry_equiv_pos_as_xyz
  x,y,z
_cell_length_a	12.645331
_cell_length_b	12.645330
_cell_length_c	13.033327
_cell_angle_alpha	82.823818
_cell_angle_beta	97.187803
_cell_angle_gamma	90.011625
loop_
_atom_site_label
_atom_site_type_symbol
_atom_site_fract_x
_atom_site_fract_y
_atom_site_fract_z
Zn1	Zn	1.696718	-0.498407	0.590893
Zn2	Zn	1.674155	-0.653117	0.416151
Zn3	Zn	1.496974	-0.475866	0.416162
Zn4	Zn	1.519423	-0.675619	0.590842
O5	O	1.596817	-0.575752	0.503512
O6	O	1.842074	-0.518945	0.567729
O7	O	1.631814	-0.610754	0.269918
O8	O	1.523518	-0.330512	0.439366
O9	O	1.825497	-0.632610	0.439347
O10	O	1.670269	-0.347073	0.567740
O11	O	1.501639	-0.480529	0.269926
O12	O	1.351602	-0.502348	0.439317
O13	O	1.561780	-0.670962	0.737083
O14	O	1.368096	-0.649105	0.567654
O15	O	1.692037	-0.540765	0.737120
O16	O	1.653582	-0.804446	0.439299
O17	O	1.539901	-0.820978	0.567643
C18	C	1.321384	-0.575723	0.503482
C19	C	1.203555	-0.575739	0.503494
C20	C	1.025637	-0.483095	0.423202
C21	C	1.148151	-0.483262	0.422848
C22	C	1.155178	-0.683526	0.473409
C23	C	1.032509	-0.683006	0.472861
C24	C	1.050630	-0.561700	0.614179
C25	C	1.173157	-0.559125	0.613565
C26	C	1.596761	-0.851179	0.503487
C27	C	1.596839	-0.969012	0.503512
C28	C	1.668203	-1.126110	0.422606
C29	C	1.668494	-1.003575	0.422804
C30	C	1.641297	-1.027627	0.613665
C31	C	1.641891	-1.150170	0.613235
C32	C	1.481124	-1.132699	0.475350
C33	C	1.481343	-1.009775	0.472879
C34	C	1.873327	-0.575782	0.503543
C35	C	1.991158	-0.575795	0.503556
C36	C	1.631930	-0.610887	0.776079
C37	C	1.646892	-0.625860	0.892231
C38	C	1.596906	-0.299253	0.503560
C39	C	1.596943	-0.181426	0.503580
C40	C	1.589155	-0.568102	0.944019
C41	C	1.604619	-0.583576	1.064068
C42	C	1.561835	-0.540779	1.232005
C43	C	1.546874	-0.525810	1.115853
H44	H	1.180668	-0.402888	0.441705
H45	H	0.998563	-0.402446	0.441857
H46	H	1.023243	-0.485223	0.641539
H47	H	1.707769	-0.686765	0.936769
H48	H	0.984316	-0.491121	0.341708
F49	F	0.981480	-0.700813	0.367157
F50	F	1.172654	-0.493938	0.315698
H51	H	1.448077	-0.970304	0.391816
H52	H	1.010065	-0.753648	0.528835
F53	F	1.202824	-0.775411	0.547511
F54	F	1.181804	-0.702025	0.368838
F55	F	1.577991	-1.199484	0.694774
F56	F	1.215014	-0.455550	0.643227
F57	F	1.509592	-0.488484	0.885810
H58	H	1.753991	-0.976582	0.441476
F59	F	1.431848	-1.159900	0.372190
H60	H	1.211926	-0.622857	0.676636
F61	F	1.411497	-1.180573	0.552433
F62	F	1.022818	-0.650177	0.692436
H63	H	1.665500	-0.644485	1.108602
F64	F	1.629978	-1.150908	0.315534
F65	F	1.629939	-0.950563	0.316059
H66	H	1.485988	-0.464904	1.071320
H67	H	1.753226	-1.159227	0.441069
H68	H	1.726971	-1.181773	0.637148
H69	H	1.591588	-1.006484	0.675613
F70	F	1.751360	-0.991496	0.645444
H71	H	1.424237	-0.986221	0.527532
