data_functionalizedCrystal
_audit_creation_method	'MofGen! by Chris Wilmer'
_symmetry_space_group_name_H-M	'P1'
_symmetry_Int_Tables_number	1
_symmetry_cell_setting	triclinic
loop_
_symmetry_equiv_pos_as_xyz
  x,y,z
_cell_length_a	18.101395
_cell_length_b	17.638574
_cell_length_c	17.640968
_cell_angle_alpha	114.313062
_cell_angle_beta	78.770922
_cell_angle_gamma	101.205518
loop_
_atom_site_label
_atom_site_type_symbol
_atom_site_fract_x
_atom_site_fract_y
_atom_site_fract_z
Zn1	Zn	-0.415348	-1.354080	-0.720340
Zn2	Zn	0.084652	-0.854080	-0.220340
Zn3	Zn	-0.559995	-1.326090	-0.582507
Zn4	Zn	-0.059995	-0.826090	-0.082507
Zn5	Zn	-0.415305	-1.188398	-0.554719
Zn6	Zn	0.084695	-0.688398	-0.054719
Zn7	Zn	-0.518268	-1.216206	-0.692463
Zn8	Zn	-0.018268	-0.716206	-0.192463
O9	O	-0.477229	-1.271193	-0.637507
O10	O	0.022771	-0.771193	-0.137507
O11	O	-0.452017	-1.465692	-0.725352
O12	O	0.047983	-0.965692	-0.225352
O13	O	-0.558247	-1.284473	-0.463490
O14	O	-0.058247	-0.784473	0.036510
O15	O	-0.311685	-1.210452	-0.576726
O16	O	0.188315	-0.710452	-0.076726
O17	O	-0.558289	-1.445128	-0.624087
O18	O	-0.058289	-0.945128	-0.124087
O19	O	-0.311717	-1.332178	-0.698407
O20	O	0.188283	-0.832178	-0.198407
O21	O	-0.451943	-1.183311	-0.443075
O22	O	0.048057	-0.683311	0.056925
O23	O	-0.411482	-1.076761	-0.549695
O24	O	0.088518	-0.576761	-0.049695
O25	O	-0.487170	-1.257847	-0.811492
O26	O	0.012830	-0.757847	-0.311492
O27	O	-0.487128	-1.097191	-0.650895
O28	O	0.012872	-0.597191	-0.150895
O29	O	-0.411556	-1.359142	-0.831973
O30	O	0.088444	-0.859142	-0.331973
O31	O	-0.658086	-1.311438	-0.597056
O32	O	-0.158086	-0.811438	-0.097056
O33	O	-0.627429	-1.230706	-0.677840
O34	O	-0.127429	-0.730706	-0.177840
C35	C	-0.444773	-1.057074	-0.594255
C36	C	0.055227	-0.557074	-0.094255
C37	C	-0.430903	-0.965476	-0.575771
C38	C	0.069097	-0.465476	-0.075771
C39	C	-0.371884	-0.825730	-0.497111
C40	C	0.128116	-0.325730	0.002889
C41	C	-0.384921	-0.911801	-0.514486
C42	C	0.115079	-0.411801	-0.014486
C43	C	-0.463869	-0.933094	-0.619704
C44	C	0.036131	-0.433094	-0.119704
C45	C	-0.450841	-0.847023	-0.602335
C46	C	0.049159	-0.347023	-0.102335
C47	C	-0.404848	-0.793347	-0.541038
C48	C	0.095152	-0.293347	-0.041038
C49	C	-0.483805	-0.814640	-0.646262
C50	C	0.016195	-0.314640	-0.146262
C51	C	-0.470775	-0.728576	-0.628897
C52	C	0.029225	-0.228576	-0.128897
C53	C	-0.424781	-0.674896	-0.567605
C54	C	0.075219	-0.174896	-0.067605
C55	C	-0.391818	-0.707284	-0.523673
C56	C	0.108182	-0.207284	-0.023673
C57	C	-0.529794	-0.868318	-0.707563
C58	C	-0.029794	-0.368318	-0.207563
C59	C	-0.562758	-0.835935	-0.751490
C60	C	-0.062758	-0.335935	-0.251490
C61	C	-0.549732	-0.749869	-0.734121
C62	C	-0.049732	-0.249869	-0.234121
C63	C	-0.503739	-0.696189	-0.672829
C64	C	-0.003739	-0.196189	-0.172829
C65	C	-0.582696	-0.717481	-0.778053
C66	C	-0.082696	-0.217481	-0.278053
C67	C	-0.569666	-0.631418	-0.760689
C68	C	-0.069666	-0.131418	-0.260689
C69	C	-0.490709	-0.610125	-0.655465
C70	C	0.009291	-0.110125	-0.155465
C71	C	-0.669627	-1.271078	-0.637461
C72	C	-0.169627	-0.771078	-0.137461
C73	C	-0.751942	-1.271110	-0.637484
C74	C	-0.251942	-0.771110	-0.137484
C75	C	-1.051054	-1.271300	-0.637565
C76	C	-0.551054	-0.771300	-0.137565
C77	C	-1.000470	-1.220685	-0.688580
C78	C	-0.500470	-0.720685	-0.188580
C79	C	-0.914836	-1.220343	-0.688319
C80	C	-0.414836	-0.720343	-0.188319
C81	C	-0.902661	-1.271206	-0.637525
C82	C	-0.402661	-0.771206	-0.137525
C83	C	-0.943369	-1.230125	-0.545923
C84	C	-0.443369	-0.730125	-0.045923
C85	C	-1.028894	-1.229793	-0.546222
C86	C	-0.528894	-0.729793	-0.046222
C87	C	-1.029247	-1.362979	-0.677415
C88	C	-0.529247	-0.862979	-0.177415
C89	C	-0.943231	-1.362851	-0.679217
C90	C	-0.443231	-0.862851	-0.179217
C91	C	-0.818797	-1.271153	-0.637498
C92	C	-0.318797	-0.771153	-0.137498
C93	C	-1.134919	-1.271349	-0.637586
C94	C	-0.634919	-0.771349	-0.137586
C95	C	-0.284081	-1.271335	-0.637577
C96	C	0.215919	-0.771335	-0.137577
C97	C	-0.201773	-1.271395	-0.637606
C98	C	0.298227	-0.771395	-0.137606
C99	C	-0.444713	-1.314719	-0.852472
C100	C	0.055287	-0.814719	-0.352472
C101	C	-0.430857	-1.333266	-0.944077
C102	C	0.069143	-0.833266	-0.444077
C103	C	-0.509806	-0.486147	-0.680919
C104	C	-0.009806	0.013853	-0.180919
C105	C	-0.523672	-0.577742	-0.699392
C106	C	-0.023672	-0.077742	-0.199392
C107	C	-0.582139	-1.130604	-1.192045
C108	C	-0.082139	-0.630604	-0.692045
C109	C	-0.569112	-1.148049	-1.278125
C110	C	-0.069112	-0.648049	-0.778125
C111	C	-0.490381	-1.253520	-1.299440
C112	C	0.009619	-0.753520	-0.799440
C113	C	-0.503399	-1.236080	-1.213359
C114	C	-0.003399	-0.736080	-0.713359
C115	C	-0.549279	-1.174621	-1.159668
C116	C	-0.049279	-0.674621	-0.659668
C117	C	-0.470538	-1.280097	-1.180982
C118	C	0.029462	-0.780097	-0.680982
C119	C	-0.483558	-1.262662	-1.094909
C120	C	0.016442	-0.762662	-0.594909
C121	C	-0.529438	-1.201208	-1.041213
C122	C	-0.029438	-0.701208	-0.541213
C123	C	-0.562298	-1.157186	-1.073595
C124	C	-0.062298	-0.657186	-0.573595
C125	C	-0.424663	-1.341560	-1.234675
C126	C	0.075337	-0.841560	-0.734675
C127	C	-0.391803	-1.385577	-1.202298
C128	C	0.108197	-0.885577	-0.702298
C129	C	-0.404818	-1.368138	-1.116223
C130	C	0.095182	-0.868138	-0.616223
C131	C	-0.450698	-1.306684	-1.062527
C132	C	0.049302	-0.806684	-0.562527
C133	C	-0.371957	-1.412160	-1.083841
C134	C	0.128043	-0.912160	-0.583841
C135	C	-0.384977	-1.394725	-0.997769
C136	C	0.115023	-0.894725	-0.497769
C137	C	-0.463717	-1.289249	-0.976454
C138	C	0.036283	-0.789249	-0.476454
C139	C	-0.509572	-1.227885	-0.423388
C140	C	-0.009572	-0.727885	0.076612
C141	C	-0.523244	-1.209497	-0.331816
C142	C	-0.023244	-0.709497	0.168184
H143	H	-0.540396	-0.938397	-0.721704
H144	H	-0.040396	-0.438397	-0.221704
Br145	Br	-0.624555	-1.073767	-1.000718
Br146	Br	-0.124555	-0.573767	-0.500718
H147	H	-0.540041	-1.187016	-0.971128
H148	H	-0.040041	-0.687016	-0.471128
H149	H	-0.595874	-1.112200	-1.304482
H150	H	-0.095874	-0.612200	-0.804482
H151	H	-0.619478	-1.080538	-1.148322
H152	H	-0.119478	-0.580538	-0.648322
Br153	Br	-0.428122	-1.336928	-1.372314
Br154	Br	0.071878	-0.836928	-0.872314
Br155	Br	-0.329543	-1.468986	-1.275172
Br156	Br	0.170457	-0.968986	-0.775172
Br157	Br	-0.930976	-1.431388	-0.624143
Br158	Br	-0.430976	-0.931388	-0.124143
Br159	Br	-1.022128	-1.266737	-0.801174
Br160	Br	-0.522128	-0.766737	-0.301174
H161	H	-0.358067	-0.938163	-0.478717
H162	H	0.141933	-0.438163	0.021283
H163	H	-0.414066	-1.355755	-1.304761
H164	H	0.085934	-0.855755	-0.804761
Br165	Br	-0.933043	-1.288344	-0.479555
Br166	Br	-0.433043	-0.788344	0.020445
H167	H	-0.501057	-1.239183	-0.932731
H168	H	-0.001057	-0.739183	-0.432731
Br169	Br	-0.868178	-1.107671	-0.642016
Br170	Br	-0.368178	-0.607671	-0.142016
H171	H	-0.600204	-0.879649	-0.801400
H172	H	-0.100204	-0.379649	-0.301400
Br173	Br	-0.897680	-1.413957	-0.791724
Br174	Br	-0.397680	-0.913957	-0.291724
Br175	Br	-0.309706	-1.495576	-1.156719
Br176	Br	0.190294	-0.995576	-0.656719
Br177	Br	-0.407090	-0.558094	-0.544042
Br178	Br	0.092910	-0.058094	-0.044042
Br179	Br	-0.329413	-0.634427	-0.440468
Br180	Br	0.170587	-0.134427	0.059532
H181	H	-1.042128	-1.162253	-0.514508
H182	H	-0.542128	-0.662253	-0.014508
H183	H	-1.063693	-1.400904	-0.640473
H184	H	-0.563693	-0.900904	-0.140473
Br185	Br	-0.896638	-1.118564	-0.492725
Br186	Br	-0.396638	-0.618564	0.007275
Br187	Br	-1.023907	-1.108738	-0.642736
Br188	Br	-0.523907	-0.608738	-0.142736
H189	H	-1.063749	-1.264107	-0.505970
H190	H	-0.563749	-0.764107	-0.005970
H191	H	-0.453256	-0.566419	-0.605551
H192	H	0.046744	-0.066419	-0.105551
Br193	Br	-0.309480	-0.752873	-0.413906
Br194	Br	0.190520	-0.252873	0.086094
H195	H	-0.501315	-0.976809	-0.669613
H196	H	-0.001315	-0.476809	-0.169613
Br197	Br	-0.645109	-0.790337	-0.861242
Br198	Br	-0.145109	-0.290337	-0.361242
H199	H	-0.596506	-0.605053	-0.796461
H200	H	-0.096506	-0.105053	-0.296461
H201	H	-0.358217	-1.430567	-0.971407
H202	H	0.141783	-0.930567	-0.471407
Br203	Br	-0.867224	-1.266571	-0.800611
Br204	Br	-0.367224	-0.766571	-0.300611
Br205	Br	-1.054902	-1.419697	-0.788393
Br206	Br	-0.554902	-0.919697	-0.288393
