data_functionalizedCrystal
_audit_creation_method	'MofGen! by Chris Wilmer'
_symmetry_space_group_name_H-M	'P1'
_symmetry_Int_Tables_number	1
_symmetry_cell_setting	triclinic
loop_
_symmetry_equiv_pos_as_xyz
  x,y,z
_cell_length_a	19.121063
_cell_length_b	18.050591
_cell_length_c	18.050582
_cell_angle_alpha	89.977259
_cell_angle_beta	87.584968
_cell_angle_gamma	87.537236
loop_
_atom_site_label
_atom_site_type_symbol
_atom_site_fract_x
_atom_site_fract_y
_atom_site_fract_z
Zn1	Zn	-0.279781	-1.122674	0.432668
Zn2	Zn	0.053552	-0.789341	0.766001
Zn3	Zn	0.386885	-0.456007	1.099334
Zn4	Zn	-0.397225	-1.117288	0.313767
Zn5	Zn	-0.063892	-0.783955	0.647100
Zn6	Zn	0.269441	-0.450621	0.980433
Zn7	Zn	-0.279779	-0.998493	0.308475
Zn8	Zn	0.053554	-0.665160	0.641808
Zn9	Zn	0.386888	-0.331827	0.975141
Zn10	Zn	-0.397183	-0.993146	0.437896
Zn11	Zn	-0.063850	-0.659813	0.771230
Zn12	Zn	0.269484	-0.326480	1.104563
O13	O	-0.338492	-1.057900	0.373201
O14	O	-0.005159	-0.724567	0.706535
O15	O	0.328174	-0.391234	1.039868
O16	O	-0.295379	-1.225883	0.416922
O17	O	0.037954	-0.892550	0.750255
O18	O	0.371287	-0.559217	1.083588
O19	O	-0.381662	-1.101513	0.209141
O20	O	-0.048329	-0.768180	0.542474
O21	O	0.285004	-0.434847	0.875807
O22	O	-0.181495	-1.019458	0.320546
O23	O	0.151839	-0.686125	0.653879
O24	O	0.485172	-0.352791	0.987213
O25	O	-0.381665	-1.221926	0.329566
O26	O	-0.048332	-0.888593	0.662899
O27	O	0.285002	-0.555260	0.996232
O28	O	-0.181497	-1.110693	0.411790
O29	O	0.151837	-0.777360	0.745123
O30	O	0.485170	-0.444026	1.078457
O31	O	-0.295375	-1.014235	0.205253
O32	O	0.037958	-0.680902	0.538586
O33	O	0.371291	-0.347569	0.871919
O34	O	-0.295334	-0.893860	0.325616
O35	O	0.037999	-0.560527	0.658949
O36	O	0.371333	-0.227194	0.992283
O37	O	-0.381593	-1.010345	0.541127
O38	O	-0.048259	-0.677012	0.874460
O39	O	0.285074	-0.343678	1.207793
O40	O	-0.381590	-0.889932	0.420702
O41	O	-0.048257	-0.556599	0.754035
O42	O	0.285076	-0.223265	1.087368
O43	O	-0.295338	-1.105508	0.537285
O44	O	0.037995	-0.772175	0.870618
O45	O	0.371328	-0.438842	1.203952
O46	O	-0.495504	-1.096328	0.334636
O47	O	-0.162171	-0.762995	0.667969
O48	O	0.171162	-0.429662	1.001302
O49	O	-0.495473	-1.005122	0.425833
O50	O	-0.162140	-0.671789	0.759167
O51	O	0.171194	-0.338456	1.092500
C52	C	-0.338458	-0.864950	0.373153
C53	C	-0.005124	-0.531617	0.706486
C54	C	0.328209	-0.198283	1.039819
C55	C	-0.338460	-0.782404	0.373150
C56	C	-0.005127	-0.449071	0.706483
C57	C	0.328207	-0.115737	1.039817
C58	C	-0.520973	-1.049581	0.381392
C59	C	-0.187639	-0.716247	0.714726
C60	C	0.145694	-0.382914	1.048059
C61	C	-0.599039	-1.046090	0.384921
C62	C	-0.265705	-0.712756	0.718255
C63	C	0.067628	-0.379423	1.051588
C64	C	-0.291493	-0.535696	0.321544
C65	C	0.041840	-0.202363	0.654877
C66	C	0.375174	0.130971	0.988211
C67	C	-0.274396	-0.585899	0.388553
C68	C	0.058938	-0.252566	0.721886
C69	C	0.392271	0.080768	1.055220
C70	C	-0.338481	-0.485283	0.373196
C71	C	-0.005148	-0.151949	0.706530
C72	C	0.328186	0.181384	1.039863
C73	C	-0.355535	-0.582163	0.306167
C74	C	-0.022202	-0.248830	0.639501
C75	C	0.311132	0.084503	0.972834
C76	C	-0.338469	-0.631268	0.373170
C77	C	-0.005136	-0.297935	0.706503
C78	C	0.328198	0.035398	1.039837
C79	C	-0.321351	-0.534400	0.440240
C80	C	0.011983	-0.201067	0.773573
C81	C	0.345316	0.132267	1.106906
C82	C	-0.402520	-0.530659	0.357810
C83	C	-0.069186	-0.197325	0.691143
C84	C	0.264147	0.136008	1.024476
C85	C	-0.385447	-0.580838	0.424866
C86	C	-0.052113	-0.247505	0.758199
C87	C	0.281220	0.085828	1.091533
C88	C	-0.338486	-0.401184	0.373210
C89	C	-0.005153	-0.067851	0.706544
C90	C	0.328180	0.265483	1.039877
C91	C	-0.338464	-0.715365	0.373163
C92	C	-0.005131	-0.382032	0.706497
C93	C	0.328203	-0.048698	1.039830
C94	C	-0.635707	-1.091972	0.339137
C95	C	-0.302374	-0.758639	0.672470
C96	C	0.030960	-0.425306	1.005804
C97	C	-0.709058	-1.088693	0.342460
C98	C	-0.375725	-0.755360	0.675794
C99	C	-0.042392	-0.422027	1.009127
C100	C	-0.745740	-1.039527	0.391565
C101	C	-0.412407	-0.706194	0.724898
C102	C	-0.079073	-0.372860	1.058231
C103	C	-0.709066	-0.993642	0.437354
C104	C	-0.375733	-0.660309	0.770688
C105	C	-0.042400	-0.326976	1.104021
C106	C	-0.635716	-0.996926	0.434034
C107	C	-0.302383	-0.663592	0.767367
C108	C	0.030950	-0.330259	1.100701
C109	C	-0.967210	-1.027239	0.403966
C110	C	-0.633876	-0.693906	0.737300
C111	C	-0.300543	-0.360573	1.070633
C112	C	-1.040565	-1.023958	0.407282
C113	C	-0.707231	-0.690624	0.740615
C114	C	-0.373898	-0.357291	1.073948
C115	C	-1.040552	-1.119010	0.312388
C116	C	-0.707218	-0.785677	0.645722
C117	C	-0.373885	-0.452344	0.979055
C118	C	-0.967200	-1.122286	0.309069
C119	C	-0.633867	-0.788953	0.642403
C120	C	-0.300534	-0.455619	0.975736
C121	C	-0.930533	-1.076404	0.354861
C122	C	-0.597200	-0.743071	0.688195
C123	C	-0.263867	-0.409737	1.021528
C124	C	-0.820717	-1.036172	0.394961
C125	C	-0.487383	-0.702839	0.728295
C126	C	-0.154050	-0.369506	1.061628
C127	C	-0.855558	-1.079763	0.351468
C128	C	-0.522224	-0.746430	0.684801
C129	C	-0.188891	-0.413096	1.018135
C130	C	-0.155299	-1.066273	0.364994
C131	C	0.178034	-0.732940	0.698328
C132	C	0.511368	-0.399606	1.031661
C133	C	-0.077233	-1.069841	0.361497
C134	C	0.256100	-0.736507	0.694831
C135	C	0.589434	-0.403174	1.028164
C136	C	-0.338461	-1.057931	0.566906
C137	C	-0.005128	-0.724598	0.900239
C138	C	0.328206	-0.391264	1.233572
C139	C	-0.338448	-1.057944	0.649451
C140	C	-0.005114	-0.724611	0.982784
C141	C	0.328219	-0.391277	1.316117
C142	C	-0.338515	-0.251605	0.373237
C143	C	-0.005181	0.081728	0.706570
C144	C	0.328152	0.415062	1.039904
C145	C	-0.338492	-0.334152	0.373217
C146	C	-0.005159	-0.000818	0.706551
C147	C	0.328174	0.332515	1.039884
C148	C	-0.338473	-1.057915	0.180248
C149	C	-0.005139	-0.724582	0.513582
C150	C	0.328194	-0.391248	0.846915
C151	C	-0.338288	-1.058055	0.097695
C152	C	-0.004955	-0.724722	0.431028
C153	C	0.328379	-0.391388	0.764361
C154	C	-0.385289	-1.006235	0.850988
C155	C	-0.051955	-0.672902	1.184321
C156	C	0.281378	-0.339568	1.517654
C157	C	-0.402464	-1.073216	0.901162
C158	C	-0.069131	-0.739882	1.234495
C159	C	0.264202	-0.406549	1.567828
C160	C	-0.338394	-1.057983	0.800579
C161	C	-0.005061	-0.724650	1.133912
C162	C	0.328273	-0.391316	1.467245
C163	C	-0.321199	-0.991041	0.897486
C164	C	0.012134	-0.657707	1.230819
C165	C	0.345468	-0.324374	1.564152
C166	C	-0.338344	-1.058015	0.946562
C167	C	-0.005010	-0.724681	1.279895
C168	C	0.328323	-0.391348	1.613228
C169	C	-0.355603	-1.124998	0.849667
C170	C	-0.022270	-0.791664	1.183000
C171	C	0.311063	-0.458331	1.516334
C172	C	-0.274308	-1.042778	0.845985
C173	C	0.059025	-0.709445	1.179319
C174	C	0.392358	-0.376112	1.512652
C175	C	-0.291459	-1.109807	0.896136
C176	C	0.041874	-0.776473	1.229469
C177	C	0.375207	-0.443140	1.562803
C178	C	-0.338425	-1.057964	0.716482
C179	C	-0.005092	-0.724630	1.049815
C180	C	0.328242	-0.391297	1.383148
C181	C	-0.338313	-1.058042	1.030657
C182	C	-0.004979	-0.724708	1.363990
C183	C	0.328354	-0.391375	1.697324
H184	H	-0.251732	-0.515809	0.277925
H185	H	0.081601	-0.182476	0.611258
H186	H	0.414935	0.150857	0.944592
C187	C	-1.080913	-0.969879	0.461305
C188	C	-0.747580	-0.636545	0.794639
C189	C	-0.414247	-0.303212	1.127972
H190	H	-1.048571	-0.943029	0.488108
H191	H	-0.715237	-0.609695	0.821441
H192	H	-0.381904	-0.276362	1.154775
H193	H	-1.109565	-0.936255	0.434163
H194	H	-0.776232	-0.602921	0.767496
H195	H	-0.442899	-0.269588	1.100829
H196	H	-1.109489	-0.996998	0.494984
H197	H	-0.776156	-0.663665	0.828317
H198	H	-0.442822	-0.330332	1.161650
C199	C	-0.926856	-1.176374	0.255059
C200	C	-0.593522	-0.843040	0.588392
C201	C	-0.260189	-0.509707	0.921726
H202	H	-0.959200	-1.203236	0.228271
H203	H	-0.625867	-0.869903	0.561605
H204	H	-0.292534	-0.536569	0.894938
H205	H	-0.898278	-1.149268	0.221378
H206	H	-0.564944	-0.815934	0.554711
H207	H	-0.231611	-0.482601	0.888044
H208	H	-0.898206	-1.209997	0.282212
H209	H	-0.564873	-0.876664	0.615546
H210	H	-0.231540	-0.543331	0.948879
C211	C	-0.201147	-1.025352	0.813345
C212	C	0.132187	-0.692019	1.146678
C213	C	0.465520	-0.358686	1.480012
H214	H	-0.189015	-0.977734	0.829671
H215	H	0.144318	-0.644401	1.163005
H216	H	0.477651	-0.311067	1.496338
H217	H	-0.167699	-1.061637	0.829479
H218	H	0.165635	-0.728304	1.162813
H219	H	0.498968	-0.394970	1.496146
H220	H	-0.201595	-1.025917	0.760741
H221	H	0.131738	-0.692583	1.094074
H222	H	0.465071	-0.359250	1.427407
C223	C	-0.439117	-0.607536	0.483918
C224	C	-0.105784	-0.274203	0.817251
C225	C	0.227549	0.059131	1.150585
H226	H	-0.473420	-0.634937	0.460646
H227	H	-0.140087	-0.301603	0.793980
H228	H	0.193246	0.031730	1.127313
H229	H	-0.415832	-0.638248	0.518724
H230	H	-0.082499	-0.304914	0.852058
H231	H	0.250834	0.028419	1.185391
H232	H	-0.461218	-0.565890	0.508808
H233	H	-0.127885	-0.232557	0.842141
H234	H	0.205448	0.100777	1.175475
H235	H	-0.306858	-0.513486	0.496928
H236	H	0.026475	-0.180152	0.830261
H237	H	0.359808	0.153181	1.163594
C238	C	-0.375311	-1.201513	0.821392
C239	C	-0.041977	-0.868179	1.154725
C240	C	0.291356	-0.534846	1.488059
H241	H	-0.383494	-1.233463	0.862396
H242	H	-0.050160	-0.900129	1.195730
H243	H	0.283173	-0.566796	1.529063
H244	H	-0.416538	-1.196199	0.793951
H245	H	-0.083205	-0.862865	1.127284
H246	H	0.250129	-0.529532	1.460617
H247	H	-0.338048	-1.222086	0.790392
H248	H	-0.004715	-0.888753	1.123726
H249	H	0.328619	-0.555419	1.457059
H250	H	-0.605862	-0.959564	0.471317
H251	H	-0.272528	-0.626230	0.804651
H252	H	0.060805	-0.292897	1.137984
H253	H	-1.070414	-1.156366	0.275108
H254	H	-0.737081	-0.823033	0.608441
H255	H	-0.403747	-0.489699	0.941775
H256	H	-0.424998	-0.962510	0.831098
H257	H	-0.091665	-0.629177	1.164431
H258	H	0.241669	-0.295844	1.497764
C259	C	-0.475662	-0.497980	0.340208
C260	C	-0.142329	-0.164647	0.673542
C261	C	0.191004	0.168687	1.006875
H262	H	-0.487716	-0.514286	0.292549
H263	H	-0.154382	-0.180953	0.625883
H264	H	0.178951	0.152381	0.959216
H265	H	-0.509155	-0.514111	0.376403
H266	H	-0.175822	-0.180777	0.709737
H267	H	0.157512	0.152556	1.043070
H268	H	-0.475235	-0.445375	0.340795
H269	H	-0.141902	-0.112042	0.674128
H270	H	0.191431	0.221292	1.007462
C271	C	-0.926885	-0.976758	0.454323
C272	C	-0.593551	-0.643425	0.787656
C273	C	-0.260218	-0.310091	1.120989
H274	H	-0.959238	-0.946999	0.484033
H275	H	-0.625905	-0.613666	0.817367
H276	H	-0.292572	-0.280333	1.150700
H277	H	-0.898230	-1.006418	0.485419
H278	H	-0.564897	-0.673084	0.818753
H279	H	-0.231563	-0.339751	1.152086
H280	H	-0.898313	-0.945697	0.424576
H281	H	-0.564980	-0.612363	0.757909
H282	H	-0.231646	-0.279030	1.091242
C283	C	-0.237860	-1.169004	0.922832
C284	C	0.095474	-0.835671	1.256166
C285	C	0.428807	-0.502338	1.589499
H286	H	-0.250171	-1.216520	0.906391
H287	H	0.083162	-0.883187	1.239725
H288	H	0.416495	-0.549854	1.573058
H289	H	-0.192490	-1.158597	0.903125
H290	H	0.140843	-0.825263	1.236458
H291	H	0.474177	-0.491930	1.569792
H292	H	-0.237863	-1.168426	0.975459
H293	H	0.095470	-0.835092	1.308792
H294	H	0.428803	-0.501759	1.642126
H295	H	-0.220232	-0.610054	0.401570
H296	H	0.113101	-0.276721	0.734903
H297	H	0.446435	0.056612	1.068237
C298	C	-0.375035	-0.610538	0.229607
C299	C	-0.041702	-0.277204	0.562940
C300	C	0.291632	0.056129	0.896274
H301	H	-0.341608	-0.595127	0.192979
H302	H	-0.008274	-0.261794	0.526312
H303	H	0.325059	0.071540	0.859646
H304	H	-0.375313	-0.663146	0.230269
H305	H	-0.041979	-0.329813	0.563602
H306	H	0.291354	0.003520	0.896936
H307	H	-0.420211	-0.590828	0.218334
H308	H	-0.086878	-0.257494	0.551668
H309	H	0.246455	0.075839	0.885001
H310	H	-0.738938	-0.953613	0.477339
H311	H	-0.405605	-0.620280	0.810673
H312	H	-0.072271	-0.286946	1.144006
H313	H	-0.605846	-1.132006	0.299148
H314	H	-0.272513	-0.798672	0.632481
H315	H	0.060821	-0.465339	0.965814
C316	C	-0.749391	-1.139161	0.292094
C317	C	-0.416058	-0.805828	0.625427
C318	C	-0.082724	-0.472494	0.958760
H319	H	-0.717039	-1.168905	0.262367
H320	H	-0.383706	-0.835572	0.595700
H321	H	-0.050373	-0.502239	0.929033
H322	H	-0.777967	-1.170225	0.321826
H323	H	-0.444633	-0.836891	0.655159
H324	H	-0.111300	-0.503558	0.988493
H325	H	-0.778042	-1.109484	0.261002
H326	H	-0.444708	-0.776151	0.594335
H327	H	-0.111375	-0.442818	0.927668
H328	H	-0.306676	-0.934415	0.918518
H329	H	0.026657	-0.601082	1.251851
H330	H	0.359990	-0.267748	1.585184
C331	C	-0.475645	-1.090614	0.933781
C332	C	-0.142312	-0.757280	1.267115
C333	C	0.191021	-0.423947	1.600448
H334	H	-0.508930	-1.053790	0.918380
H335	H	-0.175597	-0.720456	1.251713
H336	H	0.157737	-0.387123	1.585046
H337	H	-0.488167	-1.137824	0.916717
H338	H	-0.154833	-0.804491	1.250050
H339	H	0.178500	-0.471157	1.583383
H340	H	-0.474989	-1.090943	0.986377
H341	H	-0.141655	-0.757609	1.319710
H342	H	0.191678	-0.424276	1.653043
H343	H	-0.825690	-1.119797	0.311490
H344	H	-0.492356	-0.786464	0.644823
H345	H	-0.159023	-0.453130	0.978157
H346	H	-0.850591	-0.996140	0.434941
H347	H	-0.517257	-0.662806	0.768274
H348	H	-0.183924	-0.329473	1.101608
