data_functionalizedCrystal
_audit_creation_method	'MofGen! by Chris Wilmer'
_symmetry_space_group_name_H-M	'P1'
_symmetry_Int_Tables_number	1
_symmetry_cell_setting	triclinic
loop_
_symmetry_equiv_pos_as_xyz
  x,y,z
_cell_length_a	14.421503
_cell_length_b	14.519709
_cell_length_c	15.944564
_cell_angle_alpha	83.592040
_cell_angle_beta	90.010450
_cell_angle_gamma	89.988844
loop_
_atom_site_label
_atom_site_type_symbol
_atom_site_fract_x
_atom_site_fract_y
_atom_site_fract_z
O1	O	-0.076993	-1.223666	-0.110114
O2	O	-0.077022	-0.955167	-0.123080
O3	O	-0.076998	-1.096743	0.005666
O4	O	-0.077017	-1.082091	-0.238861
O5	O	0.077225	-1.096759	0.005684
O6	O	0.077201	-0.955184	-0.123062
O7	O	0.077230	-1.223682	-0.110096
Cu8	Cu	0.091297	-1.089435	-0.116578
Cu9	Cu	-0.091090	-1.089415	-0.116599
O10	O	0.077206	-1.082107	-0.238843
C11	C	0.000086	-0.920817	-0.122467
C12	C	0.000075	-0.818438	-0.120656
N13	N	-0.219371	-1.089402	-0.116608
C14	C	0.000114	-1.096141	0.036970
C15	C	0.000115	-1.094311	0.130218
C16	C	-0.469030	-1.023814	-0.176020
C17	C	-0.530831	-1.006121	-0.100033
C18	C	-0.408532	-1.089420	-0.116590
C19	C	-0.530825	-1.107087	-0.192561
C20	C	-0.591254	-1.089434	-0.116581
C21	C	-0.468973	-1.071685	-0.040565
C22	C	-0.468961	-1.172687	-0.133143
C23	C	-0.530734	-1.155030	-0.057101
C24	C	-0.303271	-1.089409	-0.116597
C25	C	-0.696513	-1.089446	-0.116565
N26	N	0.219579	-1.089455	-0.116562
C27	C	0.000120	-1.258033	-0.110709
C28	C	0.000124	-1.360411	-0.112520
C29	C	0.000118	-0.443554	-0.113990
C30	C	0.000106	-0.547859	-0.115841
C31	C	0.000096	-0.630993	-0.117323
C32	C	0.000085	-0.735304	-0.119175
C33	C	0.000093	-1.002178	0.345207
C34	C	0.076139	-1.044962	0.406171
C35	C	0.000108	-1.091000	0.300948
C36	C	-0.075913	-1.044966	0.406137
C37	C	0.000097	-1.087796	0.465864
C38	C	0.076217	-1.133808	0.360683
C39	C	-0.075904	-1.133800	0.360643
C40	C	0.000161	-1.176648	0.421589
C41	C	0.000115	-1.092844	0.205943
C42	C	0.000097	-1.085960	0.560867
C43	C	0.000093	-1.082697	0.729852
C44	C	0.000090	-1.084489	0.636600
H45	H	-0.558013	-0.935711	-0.086026
O46	O	-0.436353	-1.256619	-0.149832
C47	C	-0.301788	-1.350824	-0.167861
C48	C	-0.338593	-1.255736	-0.148921
H49	H	-0.222746	-1.350135	-0.167149
H50	H	-0.328175	-1.406931	-0.117845
H51	H	-0.327207	-1.365780	-0.232680
H52	H	-0.313190	-1.240691	-0.084126
H53	H	-0.312214	-1.199682	-0.198989
O54	O	0.153032	-1.178657	0.336935
C55	C	0.293816	-1.259025	0.381729
C56	C	0.206853	-1.208280	0.408744
H57	H	0.337364	-1.282973	0.439770
H58	H	0.272069	-1.321707	0.349271
H59	H	0.336427	-1.209899	0.336128
H60	H	0.164204	-1.257332	0.454372
H61	H	0.228663	-1.145586	0.441155
H62	H	-0.557977	-1.122035	-0.256815
H63	H	-0.441918	-1.056666	0.023701
H64	H	0.000161	-0.928456	0.312007
H65	H	-0.140190	-1.171330	0.340450
H66	H	0.000212	-1.250436	0.454640
O67	O	-0.562819	-1.221132	0.003032
C68	C	-0.567487	-1.277202	0.151023
C69	C	-0.531105	-1.202276	0.083009
H70	H	-0.541845	-1.261994	0.215698
H71	H	-0.646535	-1.277133	0.150293
H72	H	-0.540962	-1.347995	0.137414
H73	H	-0.557562	-1.131446	0.096572
H74	H	-0.452059	-1.202427	0.083755
O75	O	0.152760	-1.000008	0.430183
C76	C	0.239415	-0.857264	0.418133
C77	C	0.152599	-0.908063	0.390891
H78	H	0.239324	-0.782924	0.386363
H79	H	0.239029	-0.856825	0.489586
H80	H	0.304206	-0.894466	0.398571
H81	H	0.087762	-0.870901	0.410395
H82	H	0.153067	-0.908510	0.319439
O83	O	-0.152681	-1.000138	0.430017
C84	C	-0.292965	-0.918782	0.385338
C85	C	-0.206082	-0.969554	0.358185
H86	H	-0.336154	-0.894024	0.327276
H87	H	-0.336009	-0.968063	0.430426
H88	H	-0.271014	-0.856610	0.418418
H89	H	-0.227950	-1.031724	0.325070
H90	H	-0.163058	-0.920211	0.313137
O91	O	-0.436745	-0.957461	-0.235827
C92	C	-0.431696	-0.794711	-0.285941
C93	C	-0.468301	-0.869759	-0.218149
H94	H	-0.457210	-0.723789	-0.271683
H95	H	-0.352651	-0.795681	-0.285799
H96	H	-0.458183	-0.809121	-0.350572
H97	H	-0.441883	-0.855401	-0.153485
H98	H	-0.547345	-0.868772	-0.218366
