data_functionalizedCrystal
_audit_creation_method	'MofGen! by Chris Wilmer'
_symmetry_space_group_name_H-M	'P1'
_symmetry_Int_Tables_number	1
_symmetry_cell_setting	triclinic
loop_
_symmetry_equiv_pos_as_xyz
  x,y,z
_cell_length_a	9.730223
_cell_length_b	10.654550
_cell_length_c	10.654554
_cell_angle_alpha	95.514127
_cell_angle_beta	89.997280
_cell_angle_gamma	90.003749
loop_
_atom_site_label
_atom_site_type_symbol
_atom_site_fract_x
_atom_site_fract_y
_atom_site_fract_z
O1	O	-0.114408	-1.667837	0.176393
O2	O	-0.114386	-1.302359	0.193199
O3	O	-0.114384	-1.493498	0.002057
O4	O	-0.114410	-1.476698	0.367535
O5	O	0.114196	-1.493496	0.002062
O6	O	0.114194	-1.302357	0.193204
O7	O	0.114172	-1.667835	0.176398
Zn8	Zn	0.150475	-1.485095	0.184801
Zn9	Zn	-0.150689	-1.485098	0.184795
O10	O	0.114170	-1.476696	0.367540
C11	C	-0.000093	-1.255560	0.191967
C12	C	-0.000085	-1.116116	0.188275
N13	N	0.356011	-1.485102	0.184805
N14	N	-0.356225	-1.485101	0.184782
C15	C	-0.000093	-1.492262	-0.044738
C16	C	-0.000091	-1.488568	-0.184181
C17	C	0.427939	-1.569761	0.100196
C18	C	0.571822	-1.569757	0.100181
C19	C	0.571837	-1.400433	0.269394
C20	C	0.427957	-1.400432	0.269403
C21	C	0.427931	-1.667523	0.002506
C22	C	0.571814	-1.667519	0.002491
C23	C	-0.000124	-1.714634	0.177629
C24	C	-0.000141	-1.854077	0.181321
C25	C	-0.000113	-1.036633	0.300817
C26	C	-0.000136	-0.905612	0.297340
C27	C	-0.000109	-0.933571	0.068771
C28	C	-0.000076	-1.064590	0.072249
C29	C	-0.000135	-1.020489	0.432779
C30	C	-0.000158	-0.889468	0.429303
C31	C	-0.000114	-1.369081	-0.366743
C32	C	-0.000097	-1.372552	-0.235722
C33	C	-0.000116	-1.601121	-0.263670
C34	C	-0.000143	-1.597649	-0.394689
C35	C	-0.000097	-1.237118	-0.350606
C36	C	-0.000079	-1.240589	-0.219585
C37	C	-0.000124	-1.477932	0.414335
C38	C	-0.000135	-1.481626	0.553778
H39	H	0.369395	-1.331486	0.338287
H40	H	0.098523	-0.843797	0.469186
H41	H	0.610857	-1.764031	0.024009
H42	H	0.095527	-1.049820	0.484392
Br43	Br	-0.159608	-0.819902	0.512169
H44	H	-0.000033	-1.129302	-0.019393
H45	H	-0.098825	-1.056146	0.474796
Br46	Br	0.164390	-1.167083	-0.410044
H47	H	0.383296	-1.758707	0.033094
Br48	Br	-0.000203	-1.750394	-0.502552
H49	H	-0.098767	-1.200714	-0.173921
Br50	Br	-0.000133	-1.758574	-0.193725
H51	H	-0.000123	-0.891602	-0.025694
H52	H	0.095593	-1.190871	-0.177851
Br53	Br	0.669485	-1.285525	0.384197
H54	H	-0.095754	-1.185505	-0.379945
Br55	Br	0.362838	-1.631784	-0.158382
H56	H	0.616438	-1.637005	-0.088732
