data_functionalizedCrystal
_audit_creation_method	'MofGen! by Chris Wilmer'
_symmetry_space_group_name_H-M	'P1'
_symmetry_Int_Tables_number	1
_symmetry_cell_setting	triclinic
loop_
_symmetry_equiv_pos_as_xyz
  x,y,z
_cell_length_a	6.817900
_cell_length_b	17.110486
_cell_length_c	11.102244
_cell_angle_alpha	95.183323
_cell_angle_beta	108.604870
_cell_angle_gamma	99.060439
loop_
_atom_site_label
_atom_site_type_symbol
_atom_site_fract_x
_atom_site_fract_y
_atom_site_fract_z
V1	V	-4.002958	-0.246718	-0.175460
O2	O	-3.964063	-0.242024	0.008821
O3	O	-3.980473	-0.245029	-0.348282
O4	O	-3.932390	-0.354321	-0.172590
O5	O	-4.012479	-0.131974	-0.168087
V6	V	-4.486101	-0.232994	-0.153438
O7	O	-4.265051	-0.276823	-0.223767
O8	O	-4.674205	-0.202889	-0.105131
O9	O	-4.285380	-0.234683	0.019384
O10	O	-4.642393	-0.237688	-0.337719
O11	O	-4.593977	-0.347738	-0.160811
O12	O	-4.333463	-0.125391	-0.156308
C13	C	-3.832495	-0.241136	-0.390418
C14	C	-3.895249	-0.240472	-0.531701
C15	C	-3.896445	-0.167699	-0.580048
C16	C	-3.955421	-0.167084	-0.712801
C17	C	-4.011992	-0.312022	-0.748851
C18	C	-3.953032	-0.312636	-0.616100
C19	C	-3.838663	-0.095535	-0.495648
C20	C	-3.839854	-0.022756	-0.543993
C21	C	-3.898829	-0.022141	-0.676747
C22	C	-3.956613	-0.094306	-0.761155
C23	C	-3.771160	-0.380549	-0.166304
C24	C	-3.794917	-0.468515	-0.165101
C25	C	-3.988316	-0.513873	-0.170879
C26	C	-4.010627	-0.596526	-0.169748
C27	C	-3.839540	-0.633821	-0.162848
C28	C	-3.646123	-0.588456	-0.157066
C29	C	-3.623811	-0.505804	-0.158188
C30	C	-3.897788	-0.883176	-0.159135
C31	C	-3.920118	-0.965835	-0.158017
C32	C	-4.284619	-0.973898	-0.170697
C33	C	-4.262293	-0.891244	-0.171826
C34	C	-4.068877	-0.845887	-0.166037
C35	C	-3.862343	-0.718306	-0.161696
C36	C	-4.046072	-0.761402	-0.167180
C37	C	-4.096701	-0.238574	0.061513
C38	C	-4.013184	-0.239243	0.202795
C39	C	-4.158037	-0.099159	-0.162599
C40	C	-4.113517	-0.011192	-0.163795
H41	H	-4.004646	-0.093800	-0.869251
C42	C	-4.075519	-0.391394	-0.841693
H43	H	-4.110782	-0.380604	-0.927678
H44	H	-4.194084	-0.423800	-0.831489
H45	H	-3.960842	-0.418739	-0.823200
H46	H	-3.790627	-0.096027	-0.387552
C47	C	-3.951701	-0.392684	-0.562913
H48	H	-3.994527	-0.435574	-0.632188
H49	H	-4.046482	-0.398461	-0.516013
H50	H	-3.813250	-0.393407	-0.507739
C51	C	-3.776303	0.056617	-0.451153
H52	H	-3.740989	0.045831	-0.365165
H53	H	-3.890950	0.083971	-0.469635
H54	H	-3.657725	0.089016	-0.461370
C55	C	-3.900174	0.057907	-0.729932
H56	H	-3.943590	0.047940	-0.821082
H57	H	-3.762287	0.090111	-0.696638
H58	H	-3.995515	0.085051	-0.704901
H59	H	-4.401614	-0.860885	-0.177443
H60	H	-4.127643	-0.483514	-0.176506
H61	H	-4.168107	-0.633452	-0.174445
C62	C	-4.497352	-1.023791	-0.177047
H63	H	-4.486140	-1.078356	-0.175379
H64	H	-4.603893	-1.019129	-0.254276
H65	H	-4.533248	-1.004672	-0.105376
H66	H	-3.780785	-0.996197	-0.152394
C67	C	-3.685049	-0.833294	-0.152784
H68	H	-3.586366	-0.867347	-0.148530
H69	H	-3.633446	-0.793657	-0.078513
H70	H	-3.704084	-0.808113	-0.227413
H71	H	-3.506820	-0.618828	-0.151440
C72	C	-3.411076	-0.455911	-0.151840
H73	H	-3.312382	-0.489960	-0.147582
H74	H	-3.359485	-0.416273	-0.077569
H75	H	-3.430113	-0.430729	-0.226470
C76	C	-4.234264	-0.720385	-0.174773
H77	H	-4.352651	-0.759232	-0.178050
H78	H	-4.268424	-0.695534	-0.249918
H79	H	-4.197823	-0.681083	-0.101019
H80	H	-3.723049	-0.748681	-0.156083
