data_functionalizedCrystal
_audit_creation_method	'MofGen! by Chris Wilmer'
_symmetry_space_group_name_H-M	'P1'
_symmetry_Int_Tables_number	1
_symmetry_cell_setting	triclinic
loop_
_symmetry_equiv_pos_as_xyz
  x,y,z
_cell_length_a	19.805405
_cell_length_b	12.759401
_cell_length_c	12.759393
_cell_angle_alpha	89.977503
_cell_angle_beta	90.036554
_cell_angle_gamma	89.972768
loop_
_atom_site_label
_atom_site_type_symbol
_atom_site_fract_x
_atom_site_fract_y
_atom_site_fract_z
Zn1	Zn	-0.269416	-1.606181	0.594020
Zn2	Zn	-0.382618	-1.606036	0.418321
Zn3	Zn	-0.269450	-1.430480	0.418350
Zn4	Zn	-0.382570	-1.430436	0.593954
O5	O	-0.326013	-1.518283	0.506161
O6	O	-0.284438	-1.753183	0.570728
O7	O	-0.367641	-1.582706	0.271304
O8	O	-0.174729	-1.453866	0.441693
O9	O	-0.367608	-1.753076	0.441643
O10	O	-0.174704	-1.582953	0.570756
O11	O	-0.284497	-1.453725	0.271325
O12	O	-0.284450	-1.283453	0.441629
O13	O	-0.367525	-1.453791	0.740983
O14	O	-0.367558	-1.283420	0.570644
O15	O	-0.284391	-1.582910	0.741032
O16	O	-0.477328	-1.582663	0.441579
O17	O	-0.477293	-1.453650	0.570616
C18	C	-0.326003	-1.245316	0.506133
C19	C	-0.326015	-1.128539	0.506146
C20	C	-0.369355	-1.073688	0.573217
C21	C	-0.369356	-0.963964	0.573234
C22	C	-0.282676	-0.963952	0.439101
C23	C	-0.282672	-1.073674	0.439090
C24	C	-0.501869	-1.518165	0.506110
C25	C	-0.577101	-1.518210	0.506124
C26	C	-0.612442	-1.585453	0.439005
C27	C	-0.683130	-1.585497	0.439028
C28	C	-0.718477	-1.518294	0.506166
C29	C	-0.683132	-1.451048	0.573292
C30	C	-0.612445	-1.451010	0.573273
C31	C	-0.968205	-1.451203	0.573370
C32	C	-1.038897	-1.451245	0.573381
C33	C	-1.038891	-1.585691	0.439124
C34	C	-0.968203	-1.585652	0.439106
C35	C	-0.932864	-1.518411	0.506235
C36	C	-0.856216	-1.518365	0.506211
C37	C	-0.795124	-1.518334	0.506186
C38	C	-0.149471	-1.518430	0.506235
C39	C	-0.074239	-1.518493	0.506267
C40	C	-0.325948	-1.518362	0.780195
C41	C	-0.325921	-1.518395	0.896971
C42	C	-0.326022	-0.792316	0.506183
C43	C	-0.326021	-0.909093	0.506175
C44	C	-0.326029	-1.518265	0.233194
C45	C	-0.325866	-1.518435	0.116418
C46	C	-0.282626	-1.585633	0.951860
C47	C	-0.282597	-1.585650	1.061584
C48	C	-0.369163	-1.451190	1.061521
C49	C	-0.369188	-1.451168	0.951799
H50	H	-0.404646	-1.118356	0.627821
C51	C	-0.416816	-1.377195	0.891417
N52	N	-0.452686	-1.321477	0.845938
C53	C	-0.234992	-1.134014	0.365302
N54	N	-0.199081	-1.179462	0.309729
H55	H	-0.404647	-0.919309	0.627852
C56	C	-1.077777	-1.377317	0.647247
N57	N	-1.107062	-1.321638	0.702880
H58	H	-0.583667	-1.640173	0.384329
H59	H	-0.247389	-0.919267	0.384505
C60	C	-0.722001	-1.659463	0.365185
N61	N	-0.751279	-1.715175	0.309562
H62	H	-0.939426	-1.640372	0.384433
C63	C	-1.077770	-1.659663	0.365285
N64	N	-1.107053	-1.715375	0.309668
C65	C	-0.929341	-1.377290	0.647268
N66	N	-0.900066	-1.321634	0.702952
C67	C	-0.722016	-1.377120	0.647141
N68	N	-0.751303	-1.321431	0.702761
H69	H	-0.247393	-1.640370	0.907223
C70	C	-0.573571	-1.377039	0.647110
N71	N	-0.544292	-1.321324	0.702729
H72	H	-0.247341	-1.640400	1.106270
C73	C	-0.416753	-1.377243	1.121842
N74	N	-0.452599	-1.321543	1.167274
