data_functionalizedCrystal
_audit_creation_method	'MofGen! by Chris Wilmer'
_symmetry_space_group_name_H-M	'P1'
_symmetry_Int_Tables_number	1
_symmetry_cell_setting	triclinic
loop_
_symmetry_equiv_pos_as_xyz
  x,y,z
_cell_length_a	14.853566
_cell_length_b	16.109301
_cell_length_c	14.586319
_cell_angle_alpha	89.994786
_cell_angle_beta	89.999342
_cell_angle_gamma	83.547948
loop_
_atom_site_label
_atom_site_type_symbol
_atom_site_fract_x
_atom_site_fract_y
_atom_site_fract_z
O1	O	1.196185	0.108541	-0.076183
O2	O	1.696185	0.608541	0.423817
O3	O	0.933704	0.121473	-0.076198
O4	O	1.433704	0.621473	0.423802
O5	O	1.072155	-0.006014	-0.076181
O6	O	1.572155	0.493986	0.423819
O7	O	1.057734	0.236028	-0.076200
O8	O	1.557734	0.736028	0.423800
O9	O	1.072145	-0.006015	0.076300
O10	O	1.572145	0.493985	0.576300
O11	O	0.933694	0.121471	0.076283
O12	O	1.433694	0.621471	0.576283
O13	O	1.196175	0.108540	0.076298
O14	O	1.696175	0.608540	0.576298
Cu15	Cu	1.064934	0.115005	0.090213
Cu16	Cu	1.564934	0.615005	0.590213
Cu17	Cu	1.064945	0.115007	-0.090113
Cu18	Cu	1.564945	0.615007	0.409887
O19	O	1.057724	0.236026	0.076281
O20	O	1.557724	0.736026	0.576281
C21	C	1.071566	-0.036990	0.000060
C22	C	1.571566	0.463010	0.500060
C23	C	1.069815	-0.129288	0.000061
C24	C	1.569815	0.370712	0.500061
C25	C	0.900111	0.120886	0.000040
C26	C	1.400111	0.620886	0.500040
C27	C	0.800031	0.119131	0.000035
C28	C	1.300031	0.619131	0.500035
C29	C	1.147897	-0.351451	0.000051
C30	C	1.647897	0.148549	0.500051
C31	C	1.146244	-0.438174	0.000044
C32	C	1.646244	0.061826	0.500044
C33	C	0.981977	-0.418529	0.000038
C34	C	1.481977	0.081471	0.500038
C35	C	0.983630	-0.331808	0.000039
C36	C	1.483630	0.168192	0.500039
C37	C	1.066593	-0.298272	0.000050
C38	C	1.566593	0.201728	0.500050
C39	C	1.063287	-0.471716	0.000042
C40	C	1.563287	0.028284	0.500042
C41	C	1.061494	-0.565744	0.000033
C42	C	1.561494	-0.065744	0.500033
C43	C	1.068386	-0.204237	0.000057
C44	C	1.568386	0.295763	0.500057
C45	C	0.376863	0.111708	-0.083066
C46	C	0.876863	0.611708	0.416934
C47	C	0.376874	0.111706	0.083175
C48	C	0.876874	0.611706	0.583175
C49	C	0.470905	0.113355	0.083172
C50	C	0.970905	0.613355	0.583172
C51	C	0.517920	0.114181	0.000049
C52	C	1.017920	0.614181	0.500049
C53	C	0.470903	0.113359	-0.083071
C54	C	0.970903	0.613359	0.416929
C55	C	0.517928	0.114185	0.166290
C56	C	1.017928	0.614185	0.666290
C57	C	0.611965	0.115835	0.166291
C58	C	1.111965	0.615835	0.666291
C59	C	0.658982	0.116655	0.083166
C60	C	1.158982	0.616655	0.583166
C61	C	0.611960	0.115832	0.000043
C62	C	1.111960	0.615832	0.500043
C63	C	0.658974	0.116658	-0.083080
C64	C	1.158974	0.616658	0.416920
C65	C	0.611954	0.115829	-0.166204
C66	C	1.111954	0.615829	0.333796
C67	C	0.517920	0.114179	-0.166195
C68	C	1.017920	0.614179	0.333805
C69	C	0.753016	0.118305	0.083158
C70	C	1.253016	0.618305	0.583158
C71	C	0.753014	0.118309	-0.083085
C72	C	1.253014	0.618309	0.416915
C73	C	1.229768	0.109126	0.000058
C74	C	1.729768	0.609126	0.500058
C75	C	1.329849	0.110882	0.000057
C76	C	1.829849	0.610882	0.500057
C77	C	1.058313	0.267003	0.000038
C78	C	1.558313	0.767003	0.500038
C79	C	1.060065	0.359301	0.000030
C80	C	1.560065	0.859301	0.500030
N81	N	1.064933	0.115003	0.217045
N82	N	1.564933	0.615003	0.717045
N83	N	1.064954	0.115003	-0.216945
N84	N	1.564954	0.615003	0.283055
C85	C	1.126259	0.058571	0.452059
C86	C	1.626259	0.558571	0.952059
C87	C	1.126262	0.058569	0.548040
C88	C	1.626262	0.558569	1.048040
C89	C	1.003621	0.171438	0.548034
C90	C	1.503621	0.671438	1.048034
C91	C	1.003615	0.171435	0.452055
C92	C	1.503615	0.671435	0.952055
C93	C	1.064939	0.115003	0.404070
C94	C	1.564939	0.615003	0.904070
C95	C	1.064948	0.115003	0.596030
C96	C	1.564948	0.615003	1.096030
C97	C	1.064950	0.115002	0.700097
C98	C	1.564950	0.615002	1.200097
C99	C	1.064936	0.115003	0.299996
C100	C	1.564936	0.615003	0.799996
H101	H	1.215450	-0.324149	0.000059
H102	H	1.715450	0.175851	0.500059
H103	H	1.212450	-0.481469	0.000043
H104	H	1.712450	0.018531	0.500043
O105	O	1.185874	0.003847	0.405384
O106	O	1.685874	0.503847	0.905384
C107	C	1.241465	0.048429	0.349808
C108	C	1.741465	0.548429	0.849808
H109	H	1.243030	0.113994	0.378721
H110	H	1.743030	0.613994	0.878721
H111	H	1.313110	0.014585	0.348680
H112	H	1.813110	0.514585	0.848680
H113	H	1.213209	0.052757	0.277083
H114	H	1.713209	0.552757	0.777083
H115	H	1.176193	0.012616	0.587111
H116	H	1.676193	0.512616	1.087111
H117	H	0.338576	0.111029	-0.150744
H118	H	0.838576	0.611029	0.349256
O119	O	0.944147	0.226228	0.594791
O120	O	1.444147	0.726228	1.094791
C121	C	0.957286	0.214119	0.689796
C122	C	1.457286	0.714119	1.189796
H123	H	1.028969	0.183162	0.702903
H124	H	1.528969	0.683162	1.202903
H125	H	0.947242	0.277067	0.726264
H126	H	1.447242	0.777067	1.226264
H127	H	0.906275	0.172337	0.717046
H128	H	1.406275	0.672337	1.217046
O129	O	0.944135	0.226373	0.405474
O130	O	1.444135	0.726373	0.905474
C131	C	0.958749	0.308702	0.428929
C132	C	1.458749	0.808702	0.928929
H133	H	1.030927	0.309230	0.455309
H134	H	1.530927	0.809230	0.955309
H135	H	0.948363	0.350407	0.365803
H136	H	1.448363	0.850407	0.865803
H137	H	0.908777	0.333042	0.484640
H138	H	1.408777	0.833042	0.984640
O139	O	0.901469	-0.451247	0.000076
O140	O	1.401469	0.048753	0.500076
C141	C	0.917442	-0.539193	0.000055
C142	C	1.417442	-0.039193	0.500055
H143	H	0.987802	-0.559481	0.028923
H144	H	1.487802	-0.059481	0.528923
H145	H	0.864359	-0.565881	0.044325
H146	H	1.364359	-0.065881	0.544325
H147	H	0.913079	-0.563333	-0.073097
H148	H	1.413079	-0.063333	0.426903
H149	H	0.917419	-0.288507	0.000035
H150	H	1.417419	0.211493	0.500035
H151	H	0.479641	0.113518	0.233964
H152	H	0.979641	0.613518	0.733964
H153	H	0.791287	0.118979	-0.150775
H154	H	1.291287	0.618979	0.349225
O155	O	0.657712	0.116747	-0.246889
O156	O	1.157712	0.616747	0.253111
C157	C	0.701847	0.189665	-0.251875
C158	C	1.201847	0.689665	0.248125
H159	H	0.712512	0.213900	-0.179708
H160	H	1.212512	0.713900	0.320292
H161	H	0.770279	0.174650	-0.287045
H162	H	1.270279	0.674650	0.212955
H163	H	0.658442	0.239406	-0.292902
H164	H	1.158442	0.739406	0.207098
H165	H	0.479628	0.113503	-0.233871
H166	H	0.979628	0.613503	0.266129
H167	H	0.338589	0.111039	0.150849
H168	H	0.838589	0.611039	0.650849
O169	O	0.657616	0.116484	0.247057
O170	O	1.157616	0.616484	0.747057
C171	C	0.644846	0.044142	0.297637
C172	C	1.144846	0.544142	0.797637
H173	H	0.626143	-0.006596	0.249005
H174	H	1.126143	0.493404	0.749005
H175	H	0.710120	0.021071	0.335341
H176	H	1.210120	0.521071	0.835341
H177	H	0.587950	0.059452	0.349465
H178	H	1.087950	0.559452	0.849465
O179	O	0.798673	0.118961	0.163917
O180	O	1.298673	0.618961	0.663917
C181	C	0.785907	0.046623	0.214506
C182	C	1.285907	0.546623	0.714506
H183	H	0.767203	-0.004119	0.165881
H184	H	1.267203	0.495881	0.665881
H185	H	0.851184	0.023557	0.252207
H186	H	1.351184	0.523557	0.752207
H187	H	0.729015	0.061936	0.266336
H188	H	1.229015	0.561936	0.766336
