data_functionalizedCrystal
_audit_creation_method	'MofGen! by Chris Wilmer'
_symmetry_space_group_name_H-M	'P1'
_symmetry_Int_Tables_number	1
_symmetry_cell_setting	triclinic
loop_
_symmetry_equiv_pos_as_xyz
  x,y,z
_cell_length_a	11.792254
_cell_length_b	11.792241
_cell_length_c	8.140239
_cell_angle_alpha	89.996328
_cell_angle_beta	89.997328
_cell_angle_gamma	84.196007
loop_
_atom_site_label
_atom_site_type_symbol
_atom_site_fract_x
_atom_site_fract_y
_atom_site_fract_z
O1	O	1.506897	0.155635	-0.136613
O2	O	1.756897	0.405635	0.113387
O3	O	2.006897	0.655635	0.363387
O4	O	2.256897	0.905635	0.613387
O5	O	1.176558	0.171652	-0.136616
O6	O	1.426558	0.421652	0.113384
O7	O	1.676558	0.671652	0.363384
O8	O	1.926558	0.921652	0.613384
O9	O	1.349744	-0.001527	-0.136603
O10	O	1.599744	0.248473	0.113397
O11	O	1.849744	0.498473	0.363397
O12	O	2.099744	0.748473	0.613397
O13	O	1.333711	0.328814	-0.136626
O14	O	1.583711	0.578814	0.113374
O15	O	1.833711	0.828814	0.363374
O16	O	2.083711	1.078814	0.613374
O17	O	1.349735	-0.001529	0.136624
O18	O	1.599735	0.248471	0.386624
O19	O	1.849735	0.498471	0.636624
O20	O	2.099735	0.748471	0.886624
O21	O	1.176549	0.171650	0.136611
O22	O	1.426549	0.421650	0.386611
O23	O	1.676549	0.671650	0.636611
O24	O	1.926549	0.921650	0.886611
O25	O	1.506888	0.155633	0.136614
O26	O	1.756888	0.405633	0.386614
O27	O	2.006888	0.655633	0.636614
O28	O	2.256888	0.905633	0.886614
Zn29	Zn	1.341717	0.163641	0.179993
Zn30	Zn	1.591717	0.413641	0.429993
Zn31	Zn	1.841717	0.663641	0.679993
Zn32	Zn	2.091717	0.913641	0.929993
Zn33	Zn	1.341729	0.163644	-0.179995
Zn34	Zn	1.591729	0.413644	0.070005
Zn35	Zn	1.841729	0.663644	0.320005
Zn36	Zn	2.091729	0.913644	0.570005
O37	O	1.333702	0.328812	0.136601
O38	O	1.583702	0.578812	0.386601
O39	O	1.833702	0.828812	0.636601
O40	O	2.083702	1.078812	0.886601
C41	C	1.134263	0.170642	-0.000003
C42	C	1.384263	0.420642	0.249997
C43	C	1.634263	0.670642	0.499997
C44	C	1.884263	0.920642	0.749997
C45	C	1.008250	0.167622	-0.000004
C46	C	1.258250	0.417622	0.249996
C47	C	1.508250	0.667622	0.499996
C48	C	1.758250	0.917622	0.749996
C49	C	0.905913	0.165168	-0.000011
C50	C	1.155913	0.415168	0.249989
C51	C	1.405913	0.665168	0.499989
C52	C	1.655913	0.915168	0.749989
C53	C	0.777527	0.162100	-0.000012
C54	C	1.027527	0.412100	0.249988
C55	C	1.277527	0.662100	0.499988
C56	C	1.527527	0.912100	0.749988
C57	C	1.348732	-0.043819	0.000010
C58	C	1.598732	0.206181	0.250010
C59	C	1.848732	0.456181	0.500010
C60	C	2.098732	0.706181	0.750010
C61	C	1.345718	-0.169832	0.000008
C62	C	1.595718	0.080168	0.250008
C63	C	1.845718	0.330168	0.500008
C64	C	2.095718	0.580168	0.750008
C65	C	1.340175	-0.400545	-0.000019
C66	C	1.590175	-0.150545	0.249981
C67	C	1.840175	0.099455	0.499981
C68	C	2.090175	0.349455	0.749981
C69	C	1.343255	-0.272160	-0.000004
C70	C	1.593255	-0.022160	0.249996
C71	C	1.843255	0.227840	0.499996
C72	C	2.093255	0.477840	0.749996
C73	C	1.549183	0.156643	-0.000002
C74	C	1.799183	0.406643	0.249998
C75	C	2.049183	0.656643	0.499998
C76	C	2.299183	0.906643	0.749998
C77	C	1.675196	0.159663	-0.000012
C78	C	1.925196	0.409663	0.249988
C79	C	2.175196	0.659663	0.499988
C80	C	2.425196	0.909663	0.749988
C81	C	1.334714	0.371104	-0.000016
C82	C	1.584714	0.621104	0.249984
C83	C	1.834714	0.871104	0.499984
C84	C	2.084714	1.121104	0.749984
C85	C	1.337728	0.497118	-0.000025
C86	C	1.587728	0.747118	0.249975
C87	C	1.837728	0.997118	0.499975
C88	C	2.087728	1.247118	0.749975
N89	N	1.341716	0.163639	0.425676
N90	N	1.591716	0.413639	0.675676
N91	N	1.841716	0.663639	0.925676
N92	N	2.091716	0.913639	1.175676
N93	N	1.341739	0.163637	-0.425678
N94	N	1.591739	0.413637	-0.175678
N95	N	1.841739	0.663637	0.074322
N96	N	2.091739	0.913637	0.324322
