data_functionalizedCrystal
_audit_creation_method	'MofGen! by Chris Wilmer'
_symmetry_space_group_name_H-M	'P1'
_symmetry_Int_Tables_number	1
_symmetry_cell_setting	triclinic
loop_
_symmetry_equiv_pos_as_xyz
  x,y,z
_cell_length_a	23.532361
_cell_length_b	23.532407
_cell_length_c	22.010155
_cell_angle_alpha	90.006286
_cell_angle_beta	89.997469
_cell_angle_gamma	97.160827
loop_
_atom_site_label
_atom_site_type_symbol
_atom_site_fract_x
_atom_site_fract_y
_atom_site_fract_z
O1	O	0.755276	-0.068996	0.050470
O2	O	1.088609	0.264338	0.383804
O3	O	1.421943	0.597671	0.717137
O4	O	0.589409	-0.079027	0.050486
O5	O	0.922742	0.254307	0.383819
O6	O	1.256076	0.587640	0.717152
O7	O	0.677344	0.008921	0.050466
O8	O	1.010678	0.342255	0.383800
O9	O	1.344011	0.675588	0.717133
O10	O	0.667341	-0.156944	0.050490
O11	O	1.000674	0.176390	0.383823
O12	O	1.334007	0.509723	0.717156
O13	O	0.677338	0.008898	-0.050584
O14	O	1.010671	0.342232	0.282749
O15	O	1.344005	0.675565	0.616083
O16	O	0.589403	-0.079050	-0.050565
O17	O	0.922736	0.254284	0.282769
O18	O	1.256069	0.587617	0.616102
O19	O	0.755270	-0.069019	-0.050580
O20	O	1.088603	0.264315	0.282753
O21	O	1.421937	0.597648	0.616087
Cu22	Cu	0.672336	-0.074036	-0.059799
Cu23	Cu	1.005669	0.259297	0.273534
Cu24	Cu	1.339002	0.592630	0.606868
Cu25	Cu	0.672343	-0.074009	0.059705
Cu26	Cu	1.005676	0.259324	0.393038
Cu27	Cu	1.339010	0.592658	0.726371
O28	O	0.667335	-0.156967	-0.050561
O29	O	1.000668	0.176367	0.282773
O30	O	1.334001	0.509700	0.616106
C31	C	0.568189	-0.078787	-0.000038
C32	C	0.901523	0.254546	0.333296
C33	C	1.234856	0.587880	0.666629
C34	C	0.504971	-0.078032	-0.000032
C35	C	0.838304	0.255302	0.333301
C36	C	1.171637	0.588635	0.666634
C37	C	0.677086	0.030126	-0.000060
C38	C	1.010420	0.363459	0.333273
C39	C	1.343753	0.696793	0.666606
C40	C	0.676320	0.093343	-0.000065
C41	C	1.009654	0.426676	0.333268
C42	C	1.342987	0.760009	0.666602
N43	N	0.672335	-0.074055	-0.143851
N44	N	1.005668	0.259278	0.189482
N45	N	1.339001	0.592612	0.522815
C46	C	0.231730	-0.074716	0.055046
C47	C	0.565064	0.258618	0.388380
C48	C	0.898397	0.591951	0.721713
C49	C	0.291130	-0.075431	0.055048
C50	C	0.624464	0.257903	0.388381
C51	C	0.957797	0.591236	0.721715
O52	O	0.321859	-0.075770	0.101892
O53	O	0.655192	0.257563	0.435226
O54	O	0.988526	0.590897	0.768559
N55	N	0.320832	-0.075804	-0.000035
N56	N	0.654166	0.257529	0.333298
N57	N	0.987499	0.590862	0.666632
C58	C	0.291133	-0.075457	-0.055123
C59	C	0.624466	0.257876	0.278211
C60	C	0.957799	0.591209	0.611544
O61	O	0.321851	-0.075840	-0.101975
O62	O	0.655185	0.257493	0.231359
O63	O	0.988518	0.590826	0.564692
C64	C	0.231735	-0.074738	-0.055124
C65	C	0.565068	0.258595	0.278210
C66	C	0.898401	0.591928	0.611543
C67	C	0.202035	-0.074370	-0.000037
C68	C	0.535368	0.258963	0.333296
C69	C	0.868701	0.592296	0.666629
C70	C	0.202030	-0.074347	0.110128
C71	C	0.535364	0.258986	0.443461
C72	C	0.868697	0.592319	0.776795
C73	C	0.142635	-0.073633	0.110126
C74	C	0.475968	0.259700	0.443460
C75	C	0.809301	0.593033	0.776793
C76	C	0.112939	-0.073288	0.055043
C77	C	0.446272	0.260045	0.388376
C78	C	0.779605	0.593379	0.721709
C79	C	0.142639	-0.073657	-0.000039
C80	C	0.475972	0.259677	0.333294
C81	C	0.809305	0.593010	0.666627
C82	C	0.202036	-0.074387	-0.110211
C83	C	0.535370	0.258946	0.223122
C84	C	0.868703	0.592280	0.556456
C85	C	0.142634	-0.073668	-0.110207
C86	C	0.475968	0.259666	0.223126
C87	C	0.809301	0.592999	0.556459
C88	C	0.112934	-0.073300	-0.055121
C89	C	0.446268	0.260034	0.278212
C90	C	0.779601	0.593367	0.611546
C91	C	0.053547	-0.072597	-0.055125
C92	C	0.386880	0.260736	0.278209
C93	C	0.720214	0.594069	0.611542
N94	N	0.023845	-0.072224	-0.000042
N95	N	0.357178	0.261110	0.333291
N96	N	0.690512	0.594443	0.666625
C97	C	0.053541	-0.072569	0.055042
C98	C	0.386874	0.260764	0.388375
C99	C	0.720207	0.594098	0.721708
C100	C	0.415873	-0.076966	-0.055117
C101	C	0.749206	0.256367	0.278217
C102	C	1.082540	0.589700	0.611550
C103	C	0.475269	-0.077689	-0.055116
C104	C	0.808603	0.255644	0.278217
C105	C	1.141936	0.588977	0.611550
C106	C	0.475263	-0.077662	0.055055
C107	C	0.808596	0.255672	0.388388
C108	C	1.141930	0.589005	0.721721
C109	C	0.415865	-0.076943	0.055054
C110	C	0.749198	0.256391	0.388387
C111	C	1.082531	0.589724	0.721720
C112	C	0.386171	-0.076593	-0.000034
C113	C	0.719504	0.256741	0.333299
C114	C	1.052837	0.590074	0.666633
C115	C	-0.071195	-0.071070	0.055034
C116	C	0.262139	0.262263	0.388367
C117	C	0.595472	0.595596	0.721700
C118	C	-0.130596	-0.070359	0.055027
C119	C	0.202737	0.262974	0.388360
C120	C	0.536070	0.596308	0.721694
C121	C	-0.130584	-0.070384	-0.055144
C122	C	0.202749	0.262950	0.278190
C123	C	0.536083	0.596283	0.611523
C124	C	-0.071188	-0.071098	-0.055137
C125	C	0.262145	0.262235	0.278196
C126	C	0.595478	0.595568	0.611529
C127	C	-0.041495	-0.071440	-0.000044
C128	C	0.291838	0.261894	0.333290
C129	C	0.625172	0.595227	0.666623
O130	O	0.022781	-0.072255	-0.101945
O131	O	0.356114	0.261078	0.231388
O132	O	0.689448	0.594411	0.564721
O133	O	0.022816	-0.072178	0.101886
O134	O	0.356149	0.261155	0.435219
O135	O	0.689483	0.594488	0.768552
C136	C	0.776489	-0.069258	-0.000055
C137	C	1.109823	0.264075	0.333278
C138	C	1.443156	0.597408	0.666611
C139	C	0.839708	-0.070014	-0.000057
C140	C	1.173041	0.263320	0.333277
C141	C	1.506375	0.596653	0.666610
C142	C	0.667592	-0.178171	-0.000033
C143	C	1.000926	0.155162	0.333301
C144	C	1.334259	0.488495	0.666634
C145	C	0.668358	-0.241388	-0.000024
C146	C	1.001692	0.091945	0.333309
C147	C	1.335025	0.425279	0.666643
C148	C	0.723555	0.492454	-0.000036
C149	C	1.056888	0.825787	0.333297
C150	C	1.390222	1.159120	0.666631
C151	C	0.722844	0.551854	-0.000031
C152	C	1.056177	0.885187	0.333302
C153	C	1.389510	1.218521	0.666635
O154	O	0.766630	0.588606	-0.000013
O155	O	1.099964	0.921939	0.333320
O156	O	1.433297	1.255272	0.666654
N157	N	0.670566	0.574471	-0.000027
N158	N	1.003899	0.907805	0.333306
N159	N	1.337233	1.241138	0.666640
C160	C	0.618997	0.537685	-0.000021
C161	C	0.952330	0.871018	0.333312
C162	C	1.285663	1.204352	0.666646
O163	O	0.574465	0.562377	-0.000016
O164	O	0.907799	0.895711	0.333317
O165	O	1.241132	1.229044	0.666651
C166	C	0.619709	0.478286	-0.000021
C167	C	0.953042	0.811619	0.333312
C168	C	1.286375	1.144953	0.666645
C169	C	0.671990	0.455672	-0.000032
C170	C	1.005323	0.789006	0.333301
C171	C	1.338656	1.122339	0.666635
C172	C	0.775832	0.469839	-0.000046
C173	C	1.109165	0.803173	0.333287
C174	C	1.442498	1.136506	0.666621
C175	C	0.776543	0.410443	-0.000052
C176	C	1.109876	0.743777	0.333282
C177	C	1.443210	1.077110	0.666615
C178	C	0.724977	0.373662	-0.000048
C179	C	1.058311	0.706995	0.333286
C180	C	1.391644	1.040328	0.666619
C181	C	0.672701	0.396276	-0.000038
C182	C	1.006034	0.729610	0.333296
C183	C	1.339367	1.062943	0.666629
C184	C	0.568140	0.441501	-0.000011
C185	C	0.901473	0.774834	0.333322
C186	C	1.234807	1.108168	0.666656
C187	C	0.568857	0.382099	-0.000011
C188	C	0.902190	0.715432	0.333322
C189	C	1.235523	1.048765	0.666656
C190	C	0.621137	0.359485	-0.000021
C191	C	0.954471	0.692818	0.333312
C192	C	1.287804	1.026151	0.666645
C193	C	0.621847	0.300099	-0.000039
C194	C	0.955180	0.633432	0.333294
C195	C	1.288513	0.966765	0.666627
N196	N	0.674124	0.277481	-0.000044
N197	N	1.007457	0.610815	0.333290
N198	N	1.340791	0.944148	0.666623
C199	C	0.725690	0.314263	-0.000048
C200	C	1.059023	0.647596	0.333285
C201	C	1.392356	0.980929	0.666619
C202	C	0.617505	0.662427	-0.000019
C203	C	0.950839	0.995761	0.333314
C204	C	1.284172	1.329094	0.666648
C205	C	0.616793	0.721825	-0.000023
C206	C	0.950126	1.055158	0.333310
C207	C	1.283459	1.388492	0.666643
C208	C	0.720640	0.735990	-0.000032
C209	C	1.053973	1.069323	0.333301
C210	C	1.387306	1.402657	0.666634
C211	C	0.721352	0.676591	-0.000033
C212	C	1.054685	1.009924	0.333301
C213	C	1.388018	1.343258	0.666634
C214	C	0.669783	0.639810	-0.000024
C215	C	1.003116	0.973143	0.333310
C216	C	1.336449	1.306477	0.666643
C217	C	0.727179	0.189526	-0.000061
C218	C	1.060513	0.522860	0.333273
C219	C	1.393846	0.856193	0.666606
C220	C	0.727886	0.130124	-0.000069
C221	C	1.061219	0.463458	0.333264
C222	C	1.394553	0.796791	0.666598
C223	C	0.624039	0.115965	-0.000057
C224	C	0.957372	0.449298	0.333277
C225	C	1.290706	0.782631	0.666610
C226	C	0.623332	0.175361	-0.000051
C227	C	0.956665	0.508695	0.333282
C228	C	1.289999	0.842028	0.666615
C229	C	0.674907	0.212141	-0.000051
C230	C	1.008240	0.545475	0.333282
C231	C	1.341574	0.878808	0.666615
O232	O	0.578083	0.263312	-0.000055
O233	O	0.911416	0.596645	0.333278
O234	O	1.244749	0.929979	0.666611
O235	O	0.770214	0.289562	-0.000045
O236	O	1.103547	0.622896	0.333289
O237	O	1.436880	0.956229	0.666622
C238	C	0.633384	-0.112953	-0.436455
C239	C	0.966717	0.220380	-0.103122
C240	C	1.300051	0.553713	0.230212
C241	C	0.633382	-0.112958	-0.372847
C242	C	0.966716	0.220375	-0.039514
C243	C	1.300049	0.553708	0.293819
O244	O	0.600248	-0.146054	-0.339949
O245	O	0.933581	0.187279	-0.006615
O246	O	1.266915	0.520612	0.326718
N247	N	0.672330	-0.074033	-0.341036
N248	N	1.005664	0.259300	-0.007702
N249	N	1.338997	0.592633	0.325631
C250	C	0.711278	-0.035097	-0.372835
C251	C	1.044612	0.298236	-0.039502
C252	C	1.377945	0.631570	0.293832
O253	O	0.744406	-0.001989	-0.339936
O254	O	1.077740	0.331345	-0.006603
O255	O	1.411073	0.664678	0.326731
C256	C	0.711277	-0.035090	-0.436441
C257	C	1.044610	0.298244	-0.103108
C258	C	1.377943	0.631577	0.230225
C259	C	0.672330	-0.074021	-0.468250
C260	C	1.005663	0.259312	-0.134916
C261	C	1.338997	0.592646	0.198417
C262	C	0.594440	-0.151881	-0.468263
C263	C	0.927773	0.181452	-0.134930
C264	C	1.261107	0.514786	0.198403
C265	C	0.594442	-0.151876	-0.531866
C266	C	0.927776	0.181457	-0.198533
C267	C	1.261109	0.514790	0.134800
C268	C	0.633389	-0.112944	-0.563661
C269	C	0.966722	0.220389	-0.230328
C270	C	1.300055	0.553723	0.103005
C271	C	0.672332	-0.074016	-0.531853
C272	C	1.005666	0.259317	-0.198520
C273	C	1.338999	0.592650	0.134814
C274	C	0.750222	0.003849	-0.468239
C275	C	1.083555	0.337182	-0.134906
C276	C	1.416888	0.670516	0.198427
C277	C	0.750216	0.003853	-0.531850
C278	C	1.083550	0.337187	-0.198517
C279	C	1.416883	0.670520	0.134816
C280	C	0.711270	-0.035078	-0.563659
C281	C	1.044603	0.298255	-0.230325
C282	C	1.377936	0.631589	0.103008
C283	C	0.711281	-0.035080	-0.627251
C284	C	1.044614	0.298254	-0.293918
C285	C	1.377948	0.631587	0.039416
N286	N	0.672333	-0.074004	-0.659063
N287	N	1.005666	0.259329	-0.325729
N288	N	1.339000	0.592662	0.007604
C289	C	0.633387	-0.112937	-0.627268
C290	C	0.966720	0.220397	-0.293934
C291	C	1.300053	0.553730	0.039399
C292	C	0.711278	-0.035115	-0.239257
C293	C	1.044612	0.298218	0.094076
C294	C	1.377945	0.631552	0.427410
C295	C	0.711283	-0.035125	-0.175652
C296	C	1.044617	0.298209	0.157681
C297	C	1.377950	0.631542	0.491015
C298	C	0.633386	-0.112985	-0.175669
C299	C	0.966720	0.220348	0.157665
C300	C	1.300053	0.553681	0.490998
C301	C	0.633385	-0.112978	-0.239275
C302	C	0.966718	0.220355	0.094058
C303	C	1.300051	0.553689	0.427392
C304	C	0.672330	-0.074040	-0.271069
C305	C	1.005664	0.259294	0.062265
C306	C	1.338997	0.592627	0.395598
C307	C	0.633395	-0.112924	-0.760839
C308	C	0.966728	0.220409	-0.427506
C309	C	1.300062	0.553742	-0.094172
C310	C	0.633402	-0.112918	-0.824448
C311	C	0.966736	0.220415	-0.491115
C312	C	1.300069	0.553749	-0.157781
C313	C	0.711297	-0.035056	-0.824426
C314	C	1.044630	0.298278	-0.491092
C315	C	1.377964	0.631611	-0.157759
C316	C	0.711292	-0.035064	-0.760822
C317	C	1.044625	0.298270	-0.427489
C318	C	1.377959	0.631603	-0.094156
C319	C	0.672336	-0.074000	-0.729031
C320	C	1.005669	0.259333	-0.395697
C321	C	1.339003	0.592666	-0.062364
O322	O	0.744397	-0.001999	-0.660190
O323	O	1.077730	0.331334	-0.326857
O324	O	1.411063	0.664668	0.006477
O325	O	0.600260	-0.146035	-0.660174
O326	O	0.933593	0.187299	-0.326841
O327	O	1.266926	0.520632	0.006492
N328	N	0.672349	-0.073986	0.143757
N329	N	1.005682	0.259348	0.477091
N330	N	1.339015	0.592681	0.810424
H331	H	-0.154776	-0.070061	0.099887
H332	H	0.178558	0.263272	0.433220
H333	H	0.511891	0.596606	0.766553
H334	H	0.819115	0.392037	-0.000058
H335	H	1.152449	0.725370	0.333276
H336	H	1.485782	1.058704	0.666609
C337	C	0.383213	-0.076593	-0.115717
C338	C	0.716546	0.256741	0.217617
C339	C	1.049879	0.590074	0.550950
H340	H	0.409413	-0.076924	-0.148518
H341	H	0.742746	0.256410	0.184816
H342	H	1.076079	0.589743	0.518149
H343	H	0.364575	-0.043099	-0.118020
H344	H	0.697908	0.290234	0.215313
H345	H	1.031242	0.623568	0.548646
H346	H	0.355508	-0.109535	-0.118002
H347	H	0.688842	0.223799	0.215332
H348	H	1.022175	0.557132	0.548665
H349	H	0.582056	0.086007	-0.000055
H350	H	0.915389	0.419340	0.333278
H351	H	1.248723	0.752673	0.666611
C352	C	0.832557	0.510293	-0.000049
C353	C	1.165891	0.843626	0.333284
C354	C	1.499224	1.176960	0.666618
H355	H	0.824656	0.548911	-0.000043
H356	H	1.157989	0.882244	0.333290
H357	H	1.491323	1.215578	0.666624
H358	H	0.854004	0.503460	-0.035289
H359	H	1.187337	0.836794	0.298044
H360	H	1.520671	1.170127	0.631377
H361	H	0.854007	0.503468	0.035192
H362	H	1.187340	0.836801	0.368525
H363	H	1.520674	1.170134	0.701859
C364	C	0.793059	0.046679	-0.433264
C365	C	1.126392	0.380012	-0.099931
C366	C	1.459726	0.713345	0.233403
H367	H	0.816244	0.069868	-0.461318
H368	H	1.149578	0.403201	-0.127985
H369	H	1.482911	0.736534	0.205348
H370	H	0.816655	0.026323	-0.408454
H371	H	1.149989	0.359657	-0.075121
H372	H	1.483322	0.692990	0.258212
H373	H	0.772702	0.070280	-0.408449
H374	H	1.106036	0.403613	-0.075116
H375	H	1.439369	0.736947	0.258218
H376	H	0.762627	0.765949	-0.000033
H377	H	1.095960	1.099282	0.333300
H378	H	1.429294	1.432615	0.666633
H379	H	0.743008	-0.003359	-0.850323
H380	H	1.076342	0.329974	-0.516990
H381	H	1.409675	0.663308	-0.183656
C382	C	0.785396	0.105250	-0.000081
C383	C	1.118729	0.438583	0.333252
C384	C	1.452062	0.771916	0.666586
H385	H	0.778438	0.064606	-0.000090
H386	H	1.111771	0.397939	0.333243
H387	H	1.445104	0.731272	0.666577
H388	H	0.806617	0.117896	0.035155
H389	H	1.139950	0.451230	0.368488
H390	H	1.473283	0.784563	0.701822
H391	H	0.806607	0.117896	-0.035326
H392	H	1.139941	0.451229	0.298007
H393	H	1.473274	0.784563	0.631340
C394	C	0.507934	-0.078037	0.115648
C395	C	0.841267	0.255296	0.448981
C396	C	1.174601	0.588630	0.782315
H397	H	0.481741	-0.077717	0.148457
H398	H	0.815075	0.255616	0.481790
H399	H	1.148408	0.588950	0.815124
H400	H	0.535640	-0.045100	0.117929
H401	H	0.868973	0.288233	0.451262
H402	H	1.202307	0.621566	0.784595
H403	H	0.526570	-0.111536	0.117941
H404	H	0.859903	0.221797	0.451274
H405	H	1.193236	0.555131	0.784608
C406	C	0.383200	-0.076537	0.115648
C407	C	0.716533	0.256796	0.448981
C408	C	1.049867	0.590130	0.782314
H409	H	0.409398	-0.076844	0.148451
H410	H	0.742732	0.256489	0.481784
H411	H	1.076065	0.589823	0.815117
H412	H	0.355493	-0.109471	0.117943
H413	H	0.688826	0.223862	0.451277
H414	H	1.022159	0.557195	0.784610
H415	H	0.364567	-0.043036	0.117937
H416	H	0.697900	0.290298	0.451271
H417	H	1.031233	0.623631	0.784604
C418	C	0.590549	-0.155758	-0.725877
C419	C	0.923882	0.177576	-0.392544
C420	C	1.257216	0.510909	-0.059210
H421	H	0.567363	-0.178942	-0.753938
H422	H	0.900696	0.154392	-0.420605
H423	H	1.234029	0.487725	-0.087271
H424	H	0.566954	-0.135404	-0.701057
H425	H	0.900287	0.197930	-0.367724
H426	H	1.233621	0.531263	-0.034391
H427	H	0.610904	-0.179364	-0.701073
H428	H	0.944237	0.153969	-0.367740
H429	H	1.277570	0.487303	-0.034406
H430	H	-0.047026	-0.071349	0.099896
H431	H	0.286308	0.261984	0.433229
H432	H	0.619641	0.595317	0.766563
C433	C	0.551602	-0.194702	-0.566848
C434	C	0.884935	0.138631	-0.233514
C435	C	1.218269	0.471964	0.099819
H436	H	0.528408	-0.217885	-0.538795
H437	H	0.861742	0.115449	-0.205461
H438	H	1.195075	0.448782	0.127872
H439	H	0.571953	-0.218302	-0.591665
H440	H	0.905286	0.115031	-0.258332
H441	H	1.238619	0.448364	0.075001
H442	H	0.528006	-0.174340	-0.591655
H443	H	0.861339	0.158994	-0.258322
H444	H	1.194672	0.492327	0.075012
C445	C	0.590546	-0.155811	-0.140686
C446	C	0.923880	0.177522	0.192647
C447	C	1.257213	0.510856	0.525981
H448	H	0.596125	-0.150234	-0.098250
H449	H	0.929459	0.183100	0.235084
H450	H	1.262792	0.516433	0.568417
H451	H	0.596513	-0.193788	-0.151117
H452	H	0.929846	0.139545	0.182216
H453	H	1.263180	0.472878	0.515549
H454	H	0.552570	-0.149822	-0.151102
H455	H	0.885903	0.183511	0.182231
H456	H	1.219236	0.516845	0.515564
C457	C	0.109974	-0.073214	0.170722
C458	C	0.443307	0.260119	0.504055
C459	C	0.776641	0.593453	0.837388
H460	H	0.136175	-0.073514	0.203523
H461	H	0.469508	0.259819	0.536856
H462	H	0.802842	0.593153	0.870190
H463	H	0.082264	-0.106146	0.173029
H464	H	0.415598	0.227188	0.506363
H465	H	0.748931	0.560521	0.839696
H466	H	0.091344	-0.039710	0.173002
H467	H	0.424677	0.293623	0.506335
H468	H	0.758011	0.626957	0.839668
H469	H	0.763923	0.658183	-0.000041
H470	H	1.097257	0.991517	0.333293
H471	H	1.430590	1.324850	0.666626
C472	C	0.559284	0.746694	-0.000016
C473	C	0.892617	1.080027	0.333317
C474	C	1.225950	1.413361	0.666650
H475	H	0.528678	0.716276	-0.000010
H476	H	0.862012	1.049610	0.333323
H477	H	1.195345	1.382943	0.666656
H478	H	0.556841	0.769571	-0.035251
H479	H	0.890174	1.102904	0.298082
H480	H	1.223507	1.436237	0.631415
H481	H	0.556849	0.769570	0.035230
H482	H	0.890182	1.102903	0.368563
H483	H	1.223516	1.436237	0.701897
C484	C	0.560775	0.621973	-0.000021
C485	C	0.894109	0.955306	0.333313
C486	C	1.227442	1.288639	0.666646
H487	H	0.529543	0.643954	-0.000024
H488	H	0.862876	0.977288	0.333310
H489	H	1.196209	1.310621	0.666643
H490	H	0.558890	0.598508	0.035216
H491	H	0.892223	0.931841	0.368549
H492	H	1.225557	1.265174	0.701883
H493	H	0.558892	0.598506	-0.035265
H494	H	0.892226	0.931839	0.298068
H495	H	1.225559	1.265173	0.631401
H496	H	0.743003	-0.003429	-0.149758
H497	H	1.076336	0.329904	0.183575
H498	H	1.409670	0.663238	0.516909
H499	H	0.601671	-0.144679	-0.265170
H500	H	0.935004	0.188655	0.068164
H501	H	1.268337	0.521988	0.401497
H502	H	0.742997	-0.003408	-0.265141
H503	H	1.076331	0.329925	0.068193
H504	H	1.409664	0.663258	0.401526
C505	C	0.510630	0.466363	0.000006
C506	C	0.843963	0.799697	0.333339
C507	C	1.177297	1.133030	0.666673
H508	H	0.480027	0.435943	0.000016
H509	H	0.813360	0.769276	0.333350
H510	H	1.146694	1.102610	0.666683
H511	H	0.508181	0.489238	-0.035229
H512	H	0.841514	0.822572	0.298104
H513	H	1.174848	1.155905	0.631438
H514	H	0.508197	0.489240	0.035252
H515	H	0.841530	0.822573	0.368586
H516	H	1.174864	1.155906	0.701919
C517	C	0.512129	0.341643	-0.000003
C518	C	0.845462	0.674976	0.333330
C519	C	1.178796	1.008309	0.666663
H520	H	0.480894	0.363622	-0.000001
H521	H	0.814228	0.696955	0.333332
H522	H	1.147561	1.030289	0.666666
H523	H	0.510249	0.318177	0.035233
H524	H	0.843583	0.651511	0.368566
H525	H	1.176916	0.984844	0.701900
H526	H	0.510243	0.318176	-0.035248
H527	H	0.843576	0.651510	0.298085
H528	H	1.176910	0.984843	0.631418
H529	H	0.226208	-0.074685	-0.155068
H530	H	0.559542	0.258648	0.178265
H531	H	0.892875	0.591982	0.511598
C532	C	0.793059	0.046686	-0.566820
C533	C	1.126392	0.380019	-0.233486
C534	C	1.459725	0.713352	0.099847
H535	H	0.816253	0.069865	-0.538762
H536	H	1.149587	0.403198	-0.205429
H537	H	1.482920	0.736532	0.127904
H538	H	0.772709	0.070288	-0.591628
H539	H	1.106042	0.403621	-0.258294
H540	H	1.439375	0.736955	0.075039
H541	H	0.816654	0.026323	-0.591636
H542	H	1.149987	0.359657	-0.258303
H543	H	1.483320	0.692990	0.075030
H544	H	0.601687	-0.144622	-0.850344
H545	H	0.935021	0.188711	-0.517011
H546	H	1.268354	0.522044	-0.183678
C547	C	-0.163250	-0.069955	-0.115731
C548	C	0.170083	0.263378	0.217603
C549	C	0.503416	0.596711	0.550936
H550	H	-0.202876	-0.069457	-0.107837
H551	H	0.130457	0.263877	0.225496
H552	H	0.463790	0.597210	0.558829
H553	H	-0.158068	-0.103277	-0.138397
H554	H	0.175265	0.230057	0.194937
H555	H	0.508598	0.563390	0.528270
H556	H	-0.148963	-0.036842	-0.138333
H557	H	0.184370	0.296492	0.195000
H558	H	0.517704	0.629825	0.528334
C559	C	0.109966	-0.073321	-0.170803
C560	C	0.443300	0.260012	0.162530
C561	C	0.776633	0.593345	0.495863
H562	H	0.070335	-0.072850	-0.162919
H563	H	0.403669	0.260484	0.170414
H564	H	0.737002	0.593817	0.503747
H565	H	0.115182	-0.106669	-0.193408
H566	H	0.448515	0.226664	0.139925
H567	H	0.781849	0.559997	0.473259
H568	H	0.124222	-0.040233	-0.193463
H569	H	0.457555	0.293100	0.139871
H570	H	0.790889	0.626433	0.473204
C571	C	0.234686	-0.074732	0.170726
C572	C	0.568020	0.258602	0.504059
C573	C	0.901353	0.591935	0.837392
H574	H	0.208482	-0.074414	0.203525
H575	H	0.541816	0.258920	0.536858
H576	H	0.875149	0.592253	0.870191
H577	H	0.262395	-0.041798	0.173022
H578	H	0.595729	0.291535	0.506355
H579	H	0.929062	0.624868	0.839688
H580	H	0.253317	-0.108234	0.173021
H581	H	0.586650	0.225099	0.506355
H582	H	0.919983	0.558433	0.839688
C583	C	0.507933	-0.078096	-0.115711
C584	C	0.841266	0.255237	0.217622
C585	C	1.174599	0.588570	0.550956
H586	H	0.481735	-0.077784	-0.148514
H587	H	0.815068	0.255550	0.184819
H588	H	1.148402	0.588883	0.518153
H589	H	0.526573	-0.111590	-0.118002
H590	H	0.859907	0.221744	0.215332
H591	H	1.193240	0.555077	0.548665
H592	H	0.535635	-0.045154	-0.118005
H593	H	0.868968	0.288179	0.215328
H594	H	1.202302	0.621513	0.548661
C595	C	0.754134	0.007756	-0.725832
C596	C	1.087468	0.341090	-0.392499
C597	C	1.420801	0.674423	-0.059165
H598	H	0.777328	0.030945	-0.753880
H599	H	1.110661	0.364278	-0.420547
H600	H	1.443995	0.697611	-0.087213
H601	H	0.777723	-0.012605	-0.701019
H602	H	1.111056	0.320728	-0.367686
H603	H	1.444389	0.654061	-0.034353
H604	H	0.733777	0.031359	-0.701019
H605	H	1.067111	0.364693	-0.367686
H606	H	1.400444	0.698026	-0.034352
H607	H	0.562723	-0.183584	-0.442382
H608	H	0.896056	0.149749	-0.109048
H609	H	1.229389	0.483083	0.224285
H610	H	0.769176	0.219466	-0.000058
H611	H	1.102510	0.552799	0.333275
H612	H	1.435843	0.886133	0.666608
C613	C	-0.038515	-0.071485	-0.115730
C614	C	0.294819	0.261848	0.217603
C615	C	0.628152	0.595182	0.550937
H616	H	-0.064709	-0.071168	-0.148536
H617	H	0.268624	0.262165	0.184798
H618	H	0.601958	0.595498	0.518131
H619	H	-0.019863	-0.104970	-0.118032
H620	H	0.313471	0.228363	0.215301
H621	H	0.646804	0.561696	0.548635
H622	H	-0.010821	-0.038534	-0.118009
H623	H	0.322512	0.294799	0.215325
H624	H	0.655846	0.628132	0.548658
H625	H	0.580761	0.193774	-0.000060
H626	H	0.914094	0.527108	0.333274
H627	H	1.247427	0.860441	0.666607
