data_functionalizedCrystal
_audit_creation_method	'MofGen! by Chris Wilmer'
_symmetry_space_group_name_H-M	'P1'
_symmetry_Int_Tables_number	1
_symmetry_cell_setting	triclinic
loop_
_symmetry_equiv_pos_as_xyz
  x,y,z
_cell_length_a	13.033293
_cell_length_b	19.120786
_cell_length_c	13.032268
_cell_angle_alpha	85.590044
_cell_angle_beta	90.920818
_cell_angle_gamma	99.298280
loop_
_atom_site_label
_atom_site_type_symbol
_atom_site_fract_x
_atom_site_fract_y
_atom_site_fract_z
Zn1	Zn	1.486522	-0.218229	0.766087
Zn2	Zn	1.502749	-0.319030	0.587002
Zn3	Zn	1.336584	-0.214525	0.572524
Zn4	Zn	1.307400	-0.348271	0.734979
O5	O	1.408314	-0.275014	0.665148
O6	O	1.633178	-0.220913	0.761409
O7	O	1.499712	-0.291380	0.442146
O8	O	1.361897	-0.116857	0.605159
O9	O	1.645100	-0.294971	0.629836
O10	O	1.472055	-0.119578	0.747369
O11	O	1.377632	-0.214600	0.431509
O12	O	1.188210	-0.242954	0.574996
O13	O	1.312156	-0.344808	0.882042
O14	O	1.166768	-0.341216	0.694351
O15	O	1.443756	-0.249267	0.904896
O16	O	1.471413	-0.421068	0.599673
O17	O	1.327891	-0.442551	0.708391
C18	C	1.140020	-0.294857	0.629728
C19	C	1.025239	-0.303365	0.614598
C20	C	0.968151	-0.270591	0.673043
C21	C	0.849518	-0.279384	0.657407
C22	C	1.398271	-0.457261	0.652253
C23	C	1.394064	-0.535224	0.646783
C24	C	1.449385	-0.573216	0.718301
C25	C	1.445428	-0.646471	0.713163
C26	C	1.386156	-0.681731	0.636502
C27	C	1.330828	-0.643734	0.564980
C28	C	1.334780	-0.570481	0.570124
C29	C	1.371352	-0.902838	0.617269
C30	C	1.367407	-0.976096	0.612129
C31	C	1.482006	-0.978828	0.760314
C32	C	1.485958	-0.905573	0.765447
C33	C	1.430626	-0.867583	0.693928
C34	C	1.382112	-0.756609	0.631246
C35	C	1.434664	-0.792708	0.699190
C36	C	1.677655	-0.255094	0.700707
C37	C	1.792432	-0.246605	0.715861
C38	C	1.372890	-0.300712	0.931567
C39	C	1.357794	-0.311664	1.045098
C40	C	1.418421	-0.092054	0.678119
C41	C	1.422728	-0.014088	0.683647
C42	C	1.443662	-0.249360	0.399777
C43	C	1.458968	-0.238196	0.286286
C44	C	1.416177	-0.269274	1.107022
C45	C	1.400577	-0.280592	1.224364
H46	H	1.497656	-0.544512	0.780723
H47	H	0.810571	-0.313953	0.595787
O48	O	1.281196	-0.533482	0.500623
C49	C	1.351091	-0.480386	0.445424
H50	H	1.425116	-0.467047	0.492610
H51	H	1.313637	-0.430693	0.429767
H52	H	1.371036	-0.500483	0.369260
O53	O	1.014769	-0.229400	0.746533
C54	C	1.122842	-0.229781	0.745771
H55	H	1.138956	-0.279562	0.710276
H56	H	1.154012	-0.229462	0.827998
H57	H	1.162949	-0.180627	0.698427
H58	H	0.986288	-0.337932	0.552982
O59	O	1.284523	-0.365027	1.085536
C60	C	1.332665	-0.411882	1.151826
H61	H	1.418009	-0.407111	1.130038
H62	H	1.292166	-0.468754	1.144383
H63	H	1.326749	-0.397672	1.234661
H64	H	1.520501	-0.193519	1.252436
O65	O	1.535902	-1.015678	0.829709
C66	C	1.642764	-0.987950	0.822353
H67	H	1.659994	-0.959575	0.742865
H68	H	1.689999	-1.033170	0.834567
H69	H	1.664712	-0.948686	0.883676
H70	H	1.319136	-1.004803	0.549700
H71	H	0.831378	-0.212030	0.777474
H72	H	1.490485	-0.677400	0.771394
H73	H	1.534222	-0.876866	0.827870
H74	H	1.282562	-0.672449	0.502564
O75	O	1.317594	-0.866041	0.547680
C76	C	1.264422	-0.912875	0.478926
H77	H	1.304372	-0.961600	0.477356
H78	H	1.265325	-0.884786	0.398476
H79	H	1.180573	-0.930109	0.505349
H80	H	1.482919	-0.763998	0.761611
O81	O	1.324473	-0.790956	0.556901
C82	C	1.247701	-0.843886	0.603211
H83	H	1.273164	-0.859592	0.684686
H84	H	1.236663	-0.892427	0.556163
H85	H	1.171199	-0.822442	0.606232
H86	H	1.477707	-0.224602	1.073166
H87	H	1.339033	-0.325261	1.258214
