data_functionalizedCrystal
_audit_creation_method	'MofGen! by Chris Wilmer'
_symmetry_space_group_name_H-M	'P1'
_symmetry_Int_Tables_number	1
_symmetry_cell_setting	triclinic
loop_
_symmetry_equiv_pos_as_xyz
  x,y,z
_cell_length_a	21.295412
_cell_length_b	19.805407
_cell_length_c	19.805405
_cell_angle_alpha	90.026410
_cell_angle_beta	90.029645
_cell_angle_gamma	90.017371
loop_
_atom_site_label
_atom_site_type_symbol
_atom_site_fract_x
_atom_site_fract_y
_atom_site_fract_z
Zn1	Zn	-0.355934	-1.034721	0.269477
Zn2	Zn	-0.250662	-1.034640	0.382666
Zn3	Zn	-0.250677	-0.921540	0.269496
Zn4	Zn	-0.355892	-0.921499	0.382629
O5	O	-0.303291	-0.978100	0.326067
O6	O	-0.341980	-1.129427	0.284499
O7	O	-0.162575	-1.019620	0.367677
O8	O	-0.264663	-0.936605	0.174777
O9	O	-0.264638	-1.129367	0.367658
O10	O	-0.341995	-1.019758	0.174763
O11	O	-0.162586	-0.936526	0.284532
O12	O	-0.264623	-0.826818	0.284496
O13	O	-0.443987	-0.936535	0.367596
O14	O	-0.341924	-0.826788	0.367614
O15	O	-0.444018	-1.019719	0.284463
O16	O	-0.264597	-1.019581	0.477377
O17	O	-0.341909	-0.936457	0.477350
C18	C	-0.303271	-0.802244	0.326054
C19	C	-0.303277	-0.727012	0.326065
C20	C	-0.303261	-0.978024	0.501923
C21	C	-0.303269	-0.978053	0.577155
C22	C	-0.467481	-0.978131	0.326023
C23	C	-0.537450	-0.978145	0.326004
C24	C	-1.036925	-1.021522	0.282610
C25	C	-0.971182	-1.021517	0.282627
C26	C	-0.938289	-0.978203	0.325915
C27	C	-0.971144	-0.934904	0.369203
C28	C	-1.036886	-0.934915	0.369190
N29	N	-0.835060	-0.918935	0.331123
N30	N	-0.772608	-0.918927	0.331131
C31	C	-0.740214	-0.978168	0.325957
N32	N	-0.772631	-1.037419	0.320762
N33	N	-0.835089	-1.037427	0.320750
C34	C	-0.867004	-0.978186	0.325934
C35	C	-0.636082	-1.021462	0.282694
C36	C	-0.570338	-1.021458	0.282715
C37	C	-0.570301	-0.934838	0.369287
C38	C	-0.636044	-0.934849	0.369270
C39	C	-0.668930	-0.978160	0.325969
C40	C	-0.139740	-0.978108	0.326061
C41	C	-0.069772	-0.978226	0.325889
C42	C	-0.303312	-1.154643	0.326080
C43	C	-0.303321	-1.229875	0.326086
C44	C	-0.343462	-0.691670	0.369409
C45	C	-0.343471	-0.620982	0.369411
C46	C	-0.303291	-0.585636	0.326070
C47	C	-0.263104	-0.620983	0.282720
C48	C	-0.263099	-0.691671	0.282716
C49	C	-0.263125	-0.335910	0.282735
C50	C	-0.263132	-0.265218	0.282744
C51	C	-0.343497	-0.265221	0.369430
C52	C	-0.343492	-0.335908	0.369426
C53	C	-0.303308	-0.371249	0.326074
C54	C	-0.303299	-0.447898	0.326072
C55	C	-0.303296	-0.508989	0.326074
C56	C	-0.303336	-0.978195	0.149524
C57	C	-0.303354	-0.978235	0.074292
C58	C	-0.263055	-1.021378	0.612490
C59	C	-0.263068	-1.021407	0.683179
C60	C	-0.303294	-0.978107	0.718530
C61	C	-0.343513	-0.934780	0.683190
C62	C	-0.343501	-0.934755	0.612503
C63	C	-0.343559	-0.934880	0.968263
C64	C	-0.343566	-0.934907	1.038955
C65	C	-0.263126	-1.021531	1.038939
C66	C	-0.263115	-1.021507	0.968252
C67	C	-0.303336	-0.978183	0.932918
C68	C	-0.303321	-0.978153	0.856269
C69	C	-0.303306	-0.978133	0.795177
H70	H	-1.063697	-1.056793	0.247354
Br71	Br	-0.680717	-1.080225	0.223916
H72	H	-0.230358	-1.056763	0.939471
Br73	Br	-0.398034	-0.217255	0.428267
Br74	Br	-0.398145	-0.876083	0.920318
H75	H	-0.230391	-0.592200	0.247428
Br76	Br	-1.081467	-0.876152	0.427932
Br77	Br	-0.208542	-1.080332	1.086897
Br78	Br	-0.208597	-0.217250	0.223921
Br79	Br	-0.208454	-1.080139	0.564520
Br80	Br	-0.398110	-0.876021	0.731166
H81	H	-0.376180	-0.720443	0.404705
Br82	Br	-0.208592	-0.383864	0.223897
Br83	Br	-0.680625	-0.876086	0.428010
H84	H	-0.230379	-0.720445	0.247417
H85	H	-0.543595	-1.056720	0.247473
Br86	Br	-0.208493	-1.080211	0.731132
H87	H	-0.376249	-0.899477	0.583733
H88	H	-0.376327	-0.899647	1.067736
H89	H	-0.944433	-1.056774	0.247381
H90	H	-0.543521	-0.899574	0.404536
Br91	Br	-0.398013	-0.573020	0.428237
Br92	Br	-0.926506	-0.876124	0.427956
H93	H	-0.376209	-0.364683	0.404720
