data_functionalizedCrystal
_audit_creation_method	'MofGen! by Chris Wilmer'
_symmetry_space_group_name_H-M	'P1'
_symmetry_Int_Tables_number	1
_symmetry_cell_setting	triclinic
loop_
_symmetry_equiv_pos_as_xyz
  x,y,z
_cell_length_a	11.026607
_cell_length_b	11.792241
_cell_length_c	10.065875
_cell_angle_alpha	98.849501
_cell_angle_beta	79.302338
_cell_angle_gamma	96.389716
loop_
_atom_site_label
_atom_site_type_symbol
_atom_site_fract_x
_atom_site_fract_y
_atom_site_fract_z
O1	O	1.630965	0.462836	-0.113504
O2	O	1.277303	0.408644	-0.113505
O3	O	1.462715	0.272275	-0.113495
O4	O	1.445553	0.599205	-0.113514
O5	O	1.427360	0.298412	0.113492
O6	O	1.241948	0.434781	0.113482
O7	O	1.595611	0.488973	0.113483
Zn8	Zn	1.413166	0.466027	0.149522
Zn9	Zn	1.459747	0.431590	-0.149543
O10	O	1.410198	0.625342	0.113473
C11	C	1.214349	0.411715	-0.000011
C12	C	1.079439	0.381912	-0.000011
C13	C	1.006175	0.464202	-0.000017
C14	C	0.866738	0.433401	-0.000017
C15	C	1.443960	0.242838	-0.000002
C16	C	1.440732	0.116183	-0.000003
C17	C	1.434802	-0.115710	-0.000026
C18	C	1.438097	0.013332	-0.000013
C19	C	1.658565	0.485901	-0.000014
C20	C	1.793477	0.515703	-0.000023
C21	C	1.428954	0.654778	-0.000023
C22	C	1.432183	0.781432	-0.000031
N23	N	1.381384	0.489530	0.353626
N24	N	1.491539	0.408079	-0.353647
C25	C	1.448682	0.439759	0.421408
C26	C	1.424231	0.457858	0.578574
H27	H	1.524395	0.383742	0.363088
H28	H	1.038938	0.288655	-0.000041
H29	H	1.567257	0.352060	0.588036
O30	O	1.333818	0.524535	0.648286
C31	C	1.245446	0.457947	0.730933
H32	H	1.289719	0.381213	0.752191
H33	H	1.164047	0.425762	0.675967
C34	C	1.144687	0.626587	0.840639
C35	C	1.199067	0.532347	0.866757
H36	H	1.116073	0.672480	0.924419
H37	H	1.204221	0.671449	0.784955
H38	H	1.076861	0.599752	0.794831
H39	H	1.266899	0.559182	0.912549
H40	H	1.139542	0.487491	0.922453
O41	O	1.290976	0.556203	0.423343
C42	C	1.202604	0.489615	0.505990
H43	H	1.246877	0.412881	0.527248
H44	H	1.121205	0.457431	0.451024
C45	C	1.101845	0.658256	0.615696
C46	C	1.156225	0.564015	0.641814
H47	H	1.073231	0.704149	0.699476
H48	H	1.161379	0.703118	0.560012
H49	H	1.034019	0.631421	0.569887
H50	H	1.224057	0.590850	0.687606
H51	H	1.096700	0.519159	0.697510
H52	H	1.046680	0.557456	-0.000015
H53	H	0.826244	0.340138	-0.000046
H54	H	0.833974	0.608964	-0.000019
