data_functionalizedCrystal
_audit_creation_method	'MofGen! by Chris Wilmer'
_symmetry_space_group_name_H-M	'P1'
_symmetry_Int_Tables_number	1
_symmetry_cell_setting	triclinic
loop_
_symmetry_equiv_pos_as_xyz
  x,y,z
_cell_length_a	17.640112
_cell_length_b	12.645330
_cell_length_c	17.639306
_cell_angle_alpha	101.188554
_cell_angle_beta	87.804122
_cell_angle_gamma	101.241872
loop_
_atom_site_label
_atom_site_type_symbol
_atom_site_fract_x
_atom_site_fract_y
_atom_site_fract_z
Zn1	Zn	1.247750	-0.136260	-0.195073
Zn2	Zn	1.747750	0.363740	0.304927
Zn3	Zn	1.222016	-0.286103	-0.068104
Zn4	Zn	1.722016	0.213897	0.431896
Zn5	Zn	1.095103	-0.150249	-0.093726
Zn6	Zn	1.595103	0.349751	0.406274
Zn7	Zn	1.120733	-0.354901	-0.220679
Zn8	Zn	1.620733	0.145099	0.279321
O9	O	1.171401	-0.231878	-0.144395
O10	O	1.671401	0.268122	0.355605
O11	O	1.350608	-0.121490	-0.156791
O12	O	1.850608	0.378510	0.343209
O13	O	1.183685	-0.245144	0.034764
O14	O	1.683685	0.254856	0.534764
O15	O	1.115396	-0.000036	-0.107176
O16	O	1.615396	0.499964	0.392824
O17	O	1.331701	-0.231579	-0.063508
O18	O	1.831701	0.268421	0.436492
O19	O	1.227545	0.010242	-0.181635
O20	O	1.727545	0.510242	0.318365
O21	O	1.090442	-0.145332	0.015940
O22	O	1.590442	0.354668	0.515940
O23	O	0.992232	-0.212043	-0.132005
O24	O	1.492232	0.287957	0.367995
O25	O	1.159078	-0.348835	-0.323549
O26	O	1.659078	0.151165	0.176451
O27	O	1.011062	-0.362400	-0.225277
O28	O	1.511062	0.137600	0.274723
O29	O	1.252397	-0.188201	-0.304736
O30	O	1.752397	0.311799	0.195264
O31	O	1.208537	-0.443587	-0.088337
O32	O	1.708537	0.056413	0.411663
O33	O	1.134124	-0.494132	-0.200433
O34	O	1.634124	0.005868	0.299567
C35	C	0.974092	-0.296206	-0.184201
C36	C	1.474092	0.203794	0.315799
C37	C	0.889686	-0.323755	-0.201248
C38	C	1.389686	0.176245	0.298752
C39	C	1.171343	-0.507324	-0.144396
C40	C	1.671343	-0.007324	0.355604
C41	C	1.171393	-0.625143	-0.144408
C42	C	1.671393	-0.125143	0.355592
C43	C	0.563038	-0.022573	-0.014898
C44	C	1.063038	0.477427	0.485102
C45	C	0.483728	-0.048484	-0.030926
C46	C	0.983728	0.451516	0.469074
C47	C	0.503356	-0.205201	-0.127883
C48	C	1.003356	0.294799	0.372117
C49	C	0.582670	-0.179300	-0.111865
C50	C	1.082670	0.320700	0.388135
C51	C	0.612504	-0.087986	-0.055371
C52	C	1.112504	0.412014	0.444629
C53	C	0.632136	-0.244713	-0.152339
C54	C	1.132136	0.255287	0.347661
C55	C	0.711442	-0.218818	-0.136319
C56	C	1.211442	0.281182	0.363681
C57	C	0.741282	-0.127510	-0.079826
C58	C	1.241282	0.372490	0.420174
C59	C	0.691810	-0.062091	-0.039352
C60	C	1.191810	0.437909	0.460648
C61	C	0.602299	-0.336032	-0.208829
C62	C	1.102299	0.163968	0.291171
C63	C	0.651765	-0.401445	-0.249302
C64	C	1.151765	0.098555	0.250698
C65	C	0.731074	-0.375545	-0.233287
C66	C	1.231074	0.124455	0.266713
C67	C	0.760914	-0.284237	-0.176794
C68	C	1.260914	0.215763	0.323206
C69	C	0.780546	-0.440964	-0.273761
C70	C	1.280546	0.059036	0.226239
C71	C	0.859852	-0.415069	-0.257742
C72	C	1.359852	0.084931	0.242258
C73	C	0.840220	-0.258342	-0.160774
C74	C	1.340220	0.241658	0.339226
C75	C	1.124859	-0.824510	-0.215059
C76	C	1.624859	-0.324510	0.284941
C77	C	1.124521	-0.702007	-0.214930
C78	C	1.624521	-0.202007	0.285070
C79	C	1.133561	-0.659489	-0.068746
C80	C	1.633561	-0.159489	0.431254
C81	C	1.133276	-0.782281	-0.069175
C82	C	1.633276	-0.282281	0.430825
C83	C	1.255986	-0.770435	-0.148697
C84	C	1.755986	-0.270435	0.351303
C85	C	1.255847	-0.648368	-0.150546
C86	C	1.755847	-0.148368	0.349454
C87	C	1.369480	-0.167300	-0.104435
C88	C	1.869480	0.332700	0.395565
C89	C	1.453889	-0.139781	-0.087406
C90	C	1.953889	0.360219	0.412594
C91	C	1.211467	-0.274632	-0.342467
C92	C	1.711467	0.225368	0.157533
C93	C	1.228541	-0.292851	-0.426874
C94	C	1.728541	0.207149	0.073126
C95	C	1.171482	0.044646	-0.144407
C96	C	1.671482	0.544646	0.355593
C97	C	1.171517	0.162484	-0.144412
C98	C	1.671517	0.662484	0.355588
C99	C	1.041987	-0.092978	-0.753498
C100	C	1.541987	0.407022	-0.253498
C101	C	1.058048	-0.110114	-0.832807
C102	C	1.558048	0.389886	-0.332807
C103	C	1.155131	-0.214037	-0.813188
C104	C	1.655131	0.285963	-0.313188
C105	C	1.139081	-0.196905	-0.733875
C106	C	1.639081	0.303095	-0.233875
C107	C	1.082508	-0.136376	-0.704036
C108	C	1.582508	0.363624	-0.204036
C109	C	1.179602	-0.240303	-0.684413
C110	C	1.679602	0.259697	-0.184413
C111	C	1.163550	-0.223176	-0.605108
C112	C	1.663550	0.276824	-0.105108
C113	C	1.106978	-0.162653	-0.575264
C114	C	1.606978	0.337347	-0.075264
C115	C	1.066456	-0.119249	-0.624731
C116	C	1.566456	0.380751	-0.124731
C117	C	1.236171	-0.300838	-0.714254
C118	C	1.736171	0.199162	-0.214254
C119	C	1.276692	-0.344236	-0.664792
C120	C	1.776692	0.155764	-0.164792
C121	C	1.260644	-0.327103	-0.585484
C122	C	1.760644	0.172897	-0.085484
C123	C	1.204072	-0.266580	-0.555640
C124	C	1.704072	0.233420	-0.055640
C125	C	1.301166	-0.370507	-0.536017
C126	C	1.801166	0.129493	-0.036017
C127	C	1.285114	-0.353380	-0.456712
C128	C	1.785114	0.146620	0.043288
C129	C	1.188020	-0.249453	-0.476335
C130	C	1.688020	0.250547	0.023665
C131	C	1.131534	-0.189200	0.052915
C132	C	1.631534	0.310800	0.552915
C133	C	1.114607	-0.170634	0.137350
C134	C	1.614607	0.329366	0.637350
H135	H	0.864515	-0.183972	-0.114783
H136	H	1.364515	0.316028	0.385217
F137	F	1.127815	-0.185018	-0.444574
F138	F	1.627815	0.314982	0.055426
F139	F	1.215336	-0.278460	-0.844953
F140	F	1.715336	0.221540	-0.344953
F141	F	1.043097	-0.685338	-0.212895
F142	F	1.543097	-0.185338	0.287105
H143	H	1.318120	-0.388702	-0.416436
H144	H	1.818120	0.111298	0.083564
F145	F	0.825687	-0.099954	-0.062773
F146	F	1.325687	0.400046	0.437227
F147	F	0.723567	0.035102	0.020771
F148	F	1.223567	0.535102	0.520771
H149	H	0.587332	0.051797	0.031094
H150	H	1.087332	0.551797	0.531094
F151	F	1.051940	-0.839909	-0.061970
F152	F	1.551940	-0.339909	0.438030
F153	F	1.253255	-0.319062	-0.798659
F154	F	1.753255	0.180938	-0.298659
H155	H	0.479053	-0.279551	-0.173878
H156	H	0.979053	0.220449	0.326122
F157	F	1.296966	-0.818546	-0.218469
F158	F	1.796966	-0.318546	0.281531
H159	H	0.443455	0.004797	0.002031
H160	H	0.943455	0.504797	0.502031
F161	F	1.336896	-0.408658	-0.696558
F162	F	1.836896	0.091342	-0.196558
F163	F	1.361365	-0.434937	-0.567785
F164	F	1.861365	0.065063	-0.067785
F165	F	1.158130	-0.874068	-0.289342
F166	F	1.658130	-0.374068	0.210658
H167	H	1.293736	-0.594147	-0.101550
H168	H	1.793736	-0.094147	0.398450
F169	F	0.517891	-0.363599	-0.225869
F170	F	1.017891	0.136401	0.274131
H171	H	1.150064	-0.680271	-0.271540
H172	H	1.650064	-0.180271	0.228460
F173	F	1.174615	-0.790843	0.000836
F174	F	1.674615	-0.290843	0.500836
F175	F	0.620003	-0.498634	-0.309417
F176	F	1.120003	0.001366	0.190583
H177	H	1.093904	-0.148719	-0.510689
H178	H	1.593904	0.351281	-0.010689
H179	H	1.165752	-0.607122	-0.015381
H180	H	1.665752	-0.107122	0.484619
H181	H	0.756241	-0.515318	-0.319753
H182	H	1.256241	-0.015318	0.180247
H183	H	0.900129	-0.468334	-0.290700
H184	H	1.400129	0.031666	0.209300
H185	H	1.071881	-0.644006	-0.062796
H186	H	1.571881	-0.144006	0.437204
F187	F	1.043971	-0.886358	-0.213162
F188	F	1.543971	-0.386358	0.286838
F189	F	0.981782	-0.028543	-0.721736
F190	F	1.481782	0.471457	-0.221736
F191	F	1.292756	-0.619957	-0.223224
F192	F	1.792756	-0.119957	0.276776
F193	F	1.301687	-0.777631	-0.081193
F194	F	1.801687	-0.277631	0.418807
F195	F	1.006251	-0.054814	-0.592970
F196	F	1.506251	0.445186	-0.092970
H197	H	1.025050	-0.074765	-0.873077
H198	H	1.525050	0.425235	-0.373077
