data_functionalizedCrystal
_audit_creation_method	'MofGen! by Chris Wilmer'
_symmetry_space_group_name_H-M	'P1'
_symmetry_Int_Tables_number	1
_symmetry_cell_setting	triclinic
loop_
_symmetry_equiv_pos_as_xyz
  x,y,z
_cell_length_a	15.944551
_cell_length_b	14.853567
_cell_length_c	13.330367
_cell_angle_alpha	90.000844
_cell_angle_beta	89.996937
_cell_angle_gamma	96.433166
loop_
_atom_site_label
_atom_site_type_symbol
_atom_site_fract_x
_atom_site_fract_y
_atom_site_fract_z
O1	O	1.114658	-0.116273	-0.083310
O2	O	0.870124	-0.130608	-0.083334
O3	O	0.998923	0.007798	-0.083325
O4	O	0.985859	-0.254678	-0.083320
O5	O	0.998904	0.007801	0.083522
O6	O	0.870105	-0.130605	0.083513
O7	O	1.114639	-0.116270	0.083537
Cu8	Cu	0.992370	-0.123437	0.098759
Cu9	Cu	0.992392	-0.123441	-0.098557
O10	O	0.985840	-0.254675	0.083527
C11	C	0.838820	-0.130011	0.000086
C12	C	0.745572	-0.128227	0.000077
C13	C	0.998321	0.041387	0.000096
C14	C	0.996547	0.141469	0.000087
N15	N	0.992361	-0.123434	0.237541
C16	C	0.530615	-0.038172	0.000094
C17	C	0.469651	-0.079992	-0.082169
C18	C	0.574842	-0.124999	0.000088
C19	C	0.469654	-0.080010	0.082329
C20	C	0.409926	-0.121875	0.000104
C21	C	0.515106	-0.166843	-0.082243
C22	C	0.515116	-0.166849	0.082329
C23	C	0.454170	-0.208732	0.000045
C24	C	0.669847	-0.126797	0.000078
C25	C	0.314923	-0.120085	0.000107
C26	C	1.145943	-0.116866	0.000114
C27	C	1.239191	-0.118650	0.000117
C28	C	0.986441	-0.288265	0.000104
C29	C	0.988215	-0.388346	0.000107
C30	C	0.912540	0.553895	0.000098
C31	C	1.065556	0.575372	0.000113
C32	C	1.067224	0.481341	0.000107
C33	C	0.991549	0.423582	0.000098
C34	C	0.914206	0.459854	0.000095
C35	C	1.144565	0.445061	0.000120
C36	C	1.146236	0.351024	0.000116
C37	C	1.070560	0.293263	0.000100
C38	C	0.993214	0.329541	0.000096
C39	C	0.917539	0.271782	0.000087
C40	C	0.840192	0.308058	0.000075
C41	C	0.838530	0.402093	0.000079
C42	C	1.072223	0.199228	0.000096
C43	C	0.919205	0.177741	0.000084
N44	N	0.992408	-0.123437	-0.237338
C45	C	0.935358	-0.184703	0.710159
C46	C	1.049450	-0.062172	0.710136
C47	C	1.049440	-0.062169	0.605118
C48	C	0.992389	-0.123435	0.552615
C49	C	0.935348	-0.184704	0.605131
C50	C	1.106486	-0.000907	0.552594
C51	C	1.106479	-0.000903	0.447569
C52	C	1.049424	-0.062165	0.395065
C53	C	0.992380	-0.123436	0.447587
C54	C	0.935329	-0.184702	0.395085
C55	C	0.878280	-0.245969	0.447606
C56	C	0.878293	-0.245966	0.552627
C57	C	1.049411	-0.062168	0.290043
C58	C	0.935320	-0.184703	0.290057
H59	H	0.449507	-0.043269	-0.151719
C60	C	1.112156	0.005214	0.232270
H61	H	1.103983	-0.003563	0.162203
H62	H	1.102976	0.065391	0.249486
H63	H	1.168226	-0.004629	0.249469
H64	H	1.206176	0.492094	0.000137
C65	C	0.575508	0.059183	-0.000009
H66	H	0.609423	0.068514	0.058470
H67	H	0.610188	0.068076	-0.057902
H68	H	0.534604	0.101023	-0.000644
C69	C	0.872567	-0.252098	0.232308
H70	H	0.880728	-0.243324	0.162238
H71	H	0.881756	-0.312272	0.249522
H72	H	0.816498	-0.242261	0.249526
C73	C	0.542164	-0.216438	-0.176287
H74	H	0.601657	-0.217245	-0.175731
H75	H	0.515295	-0.276840	-0.176498
H76	H	0.526246	-0.185814	-0.234649
H77	H	0.888907	-0.234583	0.752924
H78	H	0.831833	-0.295856	0.404846
H79	H	1.127167	0.622405	0.000128
H80	H	0.421092	-0.280866	0.000001
C81	C	0.756952	0.244522	0.000067
H82	H	0.710648	0.279589	0.000066
H83	H	0.754433	0.207388	-0.058113
H84	H	0.754419	0.207397	0.058261
H85	H	0.449519	-0.043268	0.151874
H86	H	1.095903	-0.012295	0.752887
C87	C	0.753458	0.441999	0.000081
H88	H	0.763307	0.506275	0.000097
H89	H	0.722295	0.422183	-0.058103
H90	H	0.722295	0.422171	0.058271
C91	C	1.157293	0.159326	0.000111
H92	H	1.202123	0.207193	0.000115
H93	H	1.161113	0.123085	0.058292
H94	H	1.161133	0.123095	-0.058082
C95	C	1.169236	0.066477	0.610345
H96	H	1.161064	0.057709	0.680414
H97	H	1.225303	0.056647	0.593129
H98	H	1.160044	0.126657	0.593136
C99	C	0.542368	-0.216414	0.176285
H100	H	0.526986	-0.185475	0.234683
H101	H	0.515139	-0.276663	0.176878
H102	H	0.601802	-0.217660	0.175272
H103	H	1.152930	0.048984	0.404813
C104	C	0.815520	-0.313326	0.610396
H105	H	0.781526	-0.349800	0.564089
H106	H	0.845752	-0.350888	0.651377
H107	H	0.780535	-0.280832	0.651354
C108	C	0.835960	0.114213	0.000075
H109	H	0.789661	0.149288	0.000076
H110	H	0.833435	0.077080	-0.058106
H111	H	0.833422	0.077087	0.058268
C112	C	0.827465	0.593793	0.000090
H113	H	0.837307	0.658070	0.000098
H114	H	0.796307	0.573967	-0.058095
H115	H	0.796300	0.573968	0.058279
H116	H	1.209217	0.321496	0.000124
