data_functionalizedCrystal
_audit_creation_method	'MofGen! by Chris Wilmer'
_symmetry_space_group_name_H-M	'P1'
_symmetry_Int_Tables_number	1
_symmetry_cell_setting	triclinic
loop_
_symmetry_equiv_pos_as_xyz
  x,y,z
_cell_length_a	14.044220
_cell_length_b	10.654550
_cell_length_c	9.730223
_cell_angle_alpha	89.997037
_cell_angle_beta	90.003116
_cell_angle_gamma	88.836890
loop_
_atom_site_label
_atom_site_type_symbol
_atom_site_fract_x
_atom_site_fract_y
_atom_site_fract_z
O1	O	-1.259695	-0.302985	0.114137
O2	O	-0.983654	-0.292052	0.114172
O3	O	-1.128021	-0.115417	0.114149
O4	O	-1.115328	-0.479620	0.114161
O5	O	-1.128016	-0.115412	-0.114431
O6	O	-0.983648	-0.292047	-0.114408
O7	O	-1.259689	-0.302980	-0.114443
Zn8	Zn	-1.121668	-0.297512	-0.150717
Zn9	Zn	-1.121675	-0.297519	0.150447
O10	O	-1.115322	-0.479615	-0.114419
C11	C	-0.948305	-0.287263	-0.000113
C12	C	-0.842986	-0.272988	-0.000100
C13	C	-1.295038	-0.307769	-0.000154
C14	C	-1.400358	-0.322044	-0.000159
C15	C	-0.650153	-0.246889	-0.000128
C16	C	-0.593185	-0.348137	-0.000130
C17	C	-0.485886	-0.333615	-0.000146
C18	C	-0.757461	-0.261409	-0.000112
C19	C	-1.127086	-0.068523	-0.000139
C20	C	-1.124298	0.071201	-0.000134
N21	N	-1.121670	-0.297508	-0.356254
C22	C	-1.116257	-0.526509	-0.000128
C23	C	-1.119045	-0.666233	-0.000124
C24	C	-1.209299	0.142145	-0.000149
C25	C	-1.206673	0.273429	-0.000139
C26	C	-1.034038	0.262814	-0.000105
C27	C	-1.036664	0.131532	-0.000105
C28	C	-1.308969	0.148274	-0.000175
C29	C	-1.306343	0.279559	-0.000165
C30	C	-1.063650	-0.214794	-0.428197
C31	C	-1.063652	-0.214800	-0.572080
C32	C	-1.179703	-0.380238	-0.572064
C33	C	-1.179695	-0.380237	-0.428183
C34	C	-0.996652	-0.119276	-0.428207
C35	C	-0.996654	-0.119282	-0.572090
N36	N	-1.121680	-0.297515	0.355983
H37	H	-0.624998	-0.445725	-0.000121
H38	H	-1.026509	-0.027715	-0.383585
N39	N	-1.242283	-0.469466	-0.649645
H40	H	-1.233483	-0.456920	-0.751710
H41	H	-1.311106	-0.452421	-0.624499
N42	N	-0.608011	-0.117636	-0.000126
H43	H	-0.629780	-0.070433	0.084614
H44	H	-0.629804	-0.070515	-0.084911
N45	N	-0.944986	0.055011	-0.000064
H46	H	-0.889075	0.113154	-0.000048
H47	H	-0.942304	0.000311	-0.084799
N48	N	-0.902025	-0.162024	-0.631217
H49	H	-0.856300	-0.182672	-0.553959
H50	H	-0.875255	-0.092802	-0.689670
N51	N	-1.027604	0.008783	-0.623854
H52	H	-0.982052	0.073790	-0.589288
H53	H	-1.093896	0.029422	-0.589290
N54	N	-0.939523	0.327886	-0.000072
H55	H	-0.950755	0.421818	-0.000070
H56	H	-0.902284	0.302628	-0.084804
H57	H	-1.347956	0.114996	0.095474
H58	H	-1.340705	0.109460	-0.098875
H59	H	-1.343895	0.317547	-0.095828
N60	N	-1.346269	0.336023	0.130536
H61	H	-1.367489	0.266745	0.193684
H62	H	-1.402472	0.392869	0.107655
N63	N	-0.897552	-0.150195	-0.376482
H64	H	-0.876805	-0.235850	-0.411042
H65	H	-0.897576	-0.150130	-0.272686
H66	H	-1.226933	-0.447600	-0.369613
