data_functionalizedCrystal
_audit_creation_method	'MofGen! by Chris Wilmer'
_symmetry_space_group_name_H-M	'P1'
_symmetry_Int_Tables_number	1
_symmetry_cell_setting	triclinic
loop_
_symmetry_equiv_pos_as_xyz
  x,y,z
_cell_length_a	18.266242
_cell_length_b	19.188930
_cell_length_c	19.188924
_cell_angle_alpha	96.856628
_cell_angle_beta	89.991576
_cell_angle_gamma	90.022918
loop_
_atom_site_label
_atom_site_type_symbol
_atom_site_fract_x
_atom_site_fract_y
_atom_site_fract_z
O1	O	-0.061120	-0.926147	0.087169
O2	O	0.438880	-0.426147	0.587169
O3	O	-0.061070	-0.722836	0.098903
O4	O	0.438930	-0.222836	0.598903
O5	O	-0.061088	-0.830361	-0.008620
O6	O	0.438912	-0.330361	0.491380
O7	O	-0.061102	-0.818622	0.194692
O8	O	0.438898	-0.318622	0.694692
O9	O	0.060674	-0.830343	-0.008625
O10	O	0.560674	-0.330343	0.491375
O11	O	0.060692	-0.722817	0.098898
O12	O	0.560692	-0.222817	0.598898
O13	O	0.060642	-0.926129	0.087164
O14	O	0.560642	-0.426129	0.587164
Zn15	Zn	0.080000	-0.824470	0.093030
Zn16	Zn	0.580000	-0.324470	0.593030
Zn17	Zn	-0.080427	-0.824494	0.093037
Zn18	Zn	0.419573	-0.324494	0.593037
O19	O	0.060660	-0.818604	0.194687
O20	O	0.560660	-0.318604	0.694687
C21	C	-0.000182	-0.696815	0.098521
C22	C	0.499818	-0.196815	0.598521
C23	C	-0.000163	-0.619311	0.097380
C24	C	0.499837	-0.119311	0.597380
N25	N	0.189487	-0.824459	0.093024
N26	N	0.689487	-0.324459	0.593024
N27	N	-0.189914	-0.824511	0.093037
N28	N	0.310086	-0.324511	0.593037
C29	C	0.227788	-0.872087	0.045436
C30	C	0.727788	-0.372087	0.545436
C31	C	0.304432	-0.872091	0.045433
C32	C	0.804432	-0.372091	0.545433
C33	C	0.342773	-0.824475	0.093030
C34	C	0.842773	-0.324475	0.593030
C35	C	0.304463	-0.776838	0.140622
C36	C	0.804463	-0.276838	0.640622
C37	C	0.227820	-0.776830	0.140619
C38	C	0.727820	-0.276830	0.640619
N39	N	0.463103	-0.815397	0.154838
N40	N	0.963103	-0.315397	0.654838
N41	N	0.535911	-0.815409	0.154838
N42	N	1.035911	-0.315409	0.654838
C43	C	0.573696	-0.824494	0.093040
C44	C	1.073696	-0.324494	0.593040
N45	N	0.535922	-0.833581	0.031240
N46	N	1.035922	-0.333581	0.531240
N47	N	0.463107	-0.833573	0.031240
N48	N	0.963107	-0.333573	0.531240
C49	C	0.425880	-0.824477	0.093038
C50	C	0.925880	-0.324477	0.593038
C51	C	0.695104	-0.872129	0.045445
C52	C	1.195104	-0.372129	0.545445
C53	C	0.771750	-0.872129	0.045440
C54	C	1.271750	-0.372129	0.545440
C55	C	0.771780	-0.776879	0.140635
C56	C	1.271780	-0.276879	0.640635
C57	C	0.695135	-0.776876	0.140633
C58	C	1.195135	-0.276876	0.640633
C59	C	0.656802	-0.824505	0.093039
C60	C	1.156802	-0.324505	0.593039
C61	C	-0.000206	-0.829973	-0.034634
C62	C	0.499794	-0.329973	0.465366
C63	C	-0.000204	-0.828834	-0.112138
C64	C	0.499796	-0.328834	0.387862
C65	C	-0.000247	-0.952149	0.087546
C66	C	0.499753	-0.452149	0.587546
C67	C	-0.000271	-1.029654	0.088687
C68	C	0.499729	-0.529654	0.588687
C69	C	-0.000179	-0.574386	0.160471
C70	C	0.499821	-0.074386	0.660471
C71	C	-0.000187	-0.501562	0.159399
C72	C	0.499813	-0.001562	0.659399
C73	C	-0.000194	-0.473667	0.095233
C74	C	0.499806	0.026333	0.595233
C75	C	-0.000174	-0.518602	0.032134
C76	C	0.499826	-0.018602	0.532134
C77	C	-0.000158	-0.591424	0.033207
C78	C	0.499842	-0.091424	0.533207
N79	N	-0.041661	-0.365694	0.046188
N80	N	0.458339	0.134306	0.546188
N81	N	-0.041677	-0.296515	0.045172
N82	N	0.458323	0.203485	0.545172
C83	C	-0.000238	-0.254258	0.091995
C84	C	0.499762	0.245742	0.591995
N85	N	0.041208	-0.283792	0.139882
N86	N	0.541208	0.216208	0.639882
N87	N	0.041221	-0.352976	0.140899
N88	N	0.541221	0.147024	0.640899
C89	C	-0.000210	-0.394704	0.094062
C90	C	0.499790	0.105296	0.594062
C91	C	-0.000262	-0.130368	0.153928
C92	C	0.499738	0.369632	0.653928
C93	C	-0.000265	-0.057543	0.152854
C94	C	0.499735	0.442457	0.652854
C95	C	-0.000259	-0.074585	0.025586
C96	C	0.499741	0.425415	0.525586
C97	C	-0.000248	-0.147409	0.026663
C98	C	0.499752	0.352591	0.526663
C99	C	-0.000253	-0.175295	0.090835
C100	C	0.499747	0.324705	0.590835
C101	C	-0.066576	-0.828312	-0.148534
C102	C	0.433424	-0.328312	0.351466
C103	C	-0.066581	-0.827232	-0.221357
C104	C	0.433419	-0.327232	0.278643
C105	C	-0.000210	-0.826688	-0.257783
C106	C	0.499790	-0.326688	0.242217
C107	C	0.066171	-0.827206	-0.221378
C108	C	0.566171	-0.327206	0.278622
C109	C	0.066174	-0.828279	-0.148555
C110	C	0.566174	-0.328279	0.351445
N111	N	0.049179	-0.864728	-0.377448
N112	N	0.549179	-0.364728	0.122552
N113	N	0.049171	-0.863711	-0.446627
N114	N	0.549171	-0.363711	0.053373
C115	C	-0.000217	-0.823454	-0.477192
C116	C	0.499783	-0.323454	0.022808
N117	N	-0.049607	-0.784262	-0.435967
N118	N	0.450393	-0.284262	0.064033
N119	N	-0.049602	-0.785283	-0.366783
N120	N	0.450398	-0.285283	0.133217
C121	C	-0.000207	-0.825524	-0.336746
C122	C	0.499793	-0.325524	0.163254
C123	C	-0.066599	-0.821760	-0.592551
C124	C	0.433401	-0.321760	-0.092551
C125	C	-0.066602	-0.820676	-0.665374
C126	C	0.433398	-0.320676	-0.165374
C127	C	0.066152	-0.820657	-0.665394
C128	C	0.566152	-0.320657	-0.165394
C129	C	0.066153	-0.821734	-0.592571
C130	C	0.566153	-0.321734	-0.092571
C131	C	-0.000225	-0.822289	-0.556154
C132	C	0.499775	-0.322289	-0.056154
C133	C	-0.000223	-0.818992	0.220700
C134	C	0.499777	-0.318992	0.720700
C135	C	-0.000230	-0.820131	0.298205
C136	C	0.499770	-0.320131	0.798205
H137	H	0.335623	-0.910877	0.006680
H138	H	0.835623	-0.410877	0.506680
H139	H	0.120193	-0.820208	-0.695051
H140	H	0.620193	-0.320208	-0.195051
H141	H	0.335684	-0.738066	0.179374
H142	H	0.835684	-0.238066	0.679374
N143	N	-0.000248	-0.158849	0.219481
N144	N	0.499752	0.341151	0.719481
N145	N	0.051079	-0.144983	0.261960
N146	N	0.551079	0.355017	0.761960
H147	H	0.051091	-0.165096	0.308258
H148	H	0.551091	0.334904	0.808258
H149	H	-0.000239	-0.183988	-0.024713
H150	H	0.499761	0.316012	0.475287
N151	N	-0.134391	-0.822325	-0.555333
N152	N	0.365609	-0.322325	-0.055333
N153	N	-0.149209	-0.872133	-0.521284
N154	N	0.350791	-0.372133	-0.021284
H155	H	-0.197087	-0.872532	-0.494999
H156	H	0.302913	-0.372532	0.005001
H157	H	0.120201	-0.822164	-0.562938
H158	H	0.620201	-0.322164	-0.062938
H159	H	0.120224	-0.828700	-0.118922
H160	H	0.620224	-0.328700	0.381078
N161	N	-0.000247	-0.046103	-0.039960
N162	N	0.499753	0.453897	0.460040
N163	N	0.051078	-0.007345	-0.054758
N164	N	0.551078	0.492655	0.445242
H165	H	0.051092	0.012772	-0.101053
H166	H	0.551092	0.512772	0.398947
N167	N	-0.000162	-0.637318	-0.031242
N168	N	0.499838	-0.137318	0.468758
N169	N	-0.051483	-0.679879	-0.044838
N170	N	0.448517	-0.179879	0.455162
H171	H	-0.051488	-0.712294	-0.090356
H172	H	0.448512	-0.212294	0.409644
H173	H	0.802996	-0.738106	0.179386
H174	H	1.302996	-0.238106	0.679386
H175	H	-0.000274	-0.020965	0.204232
H176	H	0.499726	0.479035	0.704232
H177	H	-0.120626	-0.828762	-0.118888
H178	H	0.379374	-0.328762	0.381112
N179	N	-0.134389	-0.826697	-0.258534
N180	N	0.365611	-0.326697	0.241466
N181	N	-0.193647	-0.827190	-0.226010
N182	N	0.306353	-0.327190	0.273990
H183	H	-0.241537	-0.826812	-0.252264
H184	H	0.258463	-0.326812	0.247736
H185	H	0.120211	-0.826761	-0.251040
H186	H	0.620211	-0.326761	0.248960
N187	N	-0.134410	-0.820134	-0.702542
N188	N	0.365590	-0.320134	-0.202542
N189	N	-0.193666	-0.820628	-0.670014
N190	N	0.306334	-0.320628	-0.170014
H191	H	-0.241558	-0.820245	-0.696264
H192	H	0.258442	-0.320245	-0.196264
H193	H	0.196579	-0.910867	0.006681
H194	H	0.696579	-0.410867	0.506681
H195	H	0.196634	-0.738045	0.179371
H196	H	0.696634	-0.238045	0.679371
H197	H	0.663892	-0.910910	0.006688
H198	H	1.163892	-0.410910	0.506688
H199	H	0.802936	-0.910911	0.006685
H200	H	1.302936	-0.410911	0.506685
H201	H	0.663948	-0.738096	0.179386
H202	H	1.163948	-0.238096	0.679386
N203	N	-0.000169	-0.602856	0.226027
N204	N	0.499831	-0.102856	0.726027
N205	N	0.051152	-0.588981	0.268510
N206	N	0.551152	-0.088981	0.768510
H207	H	0.051161	-0.609088	0.314811
H208	H	0.551161	-0.109088	0.814811
N209	N	-0.000193	-0.455659	0.223847
N210	N	0.499807	0.044341	0.723847
N211	N	0.051128	-0.458050	0.266576
N212	N	0.551128	0.041950	0.766576
H213	H	0.051124	-0.425632	0.312091
H214	H	0.551124	0.074368	0.812091
N215	N	-0.000173	-0.490100	-0.033405
N216	N	0.499827	0.009900	0.466595
N217	N	-0.000187	-0.425080	-0.034355
N218	N	0.499813	0.074920	0.465645
H219	H	-0.000183	-0.404950	-0.080644
H220	H	0.499817	0.095050	0.419356
