data_functionalizedCrystal
_audit_creation_method	'MofGen! by Chris Wilmer'
_symmetry_space_group_name_H-M	'P1'
_symmetry_Int_Tables_number	1
_symmetry_cell_setting	triclinic
loop_
_symmetry_equiv_pos_as_xyz
  x,y,z
_cell_length_a	14.908571
_cell_length_b	18.101395
_cell_length_c	14.908694
_cell_angle_alpha	93.269480
_cell_angle_beta	83.592472
_cell_angle_gamma	86.727274
loop_
_atom_site_label
_atom_site_type_symbol
_atom_site_fract_x
_atom_site_fract_y
_atom_site_fract_z
Zn1	Zn	1.413252	-0.389879	-0.591502
Zn2	Zn	1.404393	-0.506142	-0.440135
Zn3	Zn	1.253157	-0.374732	-0.431437
Zn4	Zn	1.261825	-0.506085	-0.582733
O5	O	1.333157	-0.444210	-0.511452
O6	O	1.538742	-0.411665	-0.578732
O7	O	1.376996	-0.482395	-0.312316
O8	O	1.274474	-0.273114	-0.452700
O9	O	1.532234	-0.497083	-0.467524
O10	O	1.392095	-0.284242	-0.570298
O11	O	1.265884	-0.385849	-0.305926
O12	O	1.127641	-0.385793	-0.444197
O13	O	1.289247	-0.496985	-0.710562
O14	O	1.134010	-0.482297	-0.555354
O15	O	1.400499	-0.411609	-0.717004
O16	O	1.385401	-0.609762	-0.459022
O17	O	1.280657	-0.609720	-0.563788
C18	C	1.097983	-0.432396	-0.497881
C19	C	0.997375	-0.427361	-0.492097
C20	C	0.814994	-0.518528	-0.596819
C21	C	0.720465	-0.513800	-0.591388
C22	C	0.713786	-0.413172	-0.475807
C23	C	0.808315	-0.417901	-0.481238
C24	C	0.858916	-0.470581	-0.541746
C25	C	0.953447	-0.475313	-0.547172
C26	C	0.946767	-0.374682	-0.431597
C27	C	0.852237	-0.369954	-0.426165
C28	C	1.333034	-0.636613	-0.511418
C29	C	1.333066	-0.718929	-0.511439
C30	C	1.333267	-1.018033	-0.511499
C31	C	1.267537	-0.986729	-0.577598
C32	C	1.267193	-0.901083	-0.577360
C33	C	1.333168	-0.869644	-0.511470
C34	C	1.301840	-0.894723	-0.414588
C35	C	1.301414	-0.980366	-0.414981
C36	C	1.430430	-0.992404	-0.541452
C37	C	1.429987	-0.906829	-0.543511
C38	C	1.333112	-0.785781	-0.511448
C39	C	1.333320	-1.101895	-0.511515
C40	C	1.569249	-0.456070	-0.525076
C41	C	1.669857	-0.461124	-0.530882
C42	C	1.346828	-0.455980	-0.747544
C43	C	1.352654	-0.460996	-0.848153
C44	C	1.333306	-0.251057	-0.511507
C45	C	1.333369	-0.168747	-0.511530
C46	C	1.247879	-0.369889	-1.030553
C47	C	1.253350	-0.374600	-1.125084
C48	C	1.369061	-0.475131	-1.131746
C49	C	1.363591	-0.470420	-1.037215
C50	C	1.302998	-0.417797	-0.986622
C51	C	1.297533	-0.413084	-0.892090
C52	C	1.413239	-0.513618	-0.898754
C53	C	1.418710	-0.518328	-0.993284
C54	C	1.319590	-0.432434	-0.276281
C55	C	1.313940	-0.427218	-0.175683
H56	H	0.672571	-0.370278	-0.426551
H57	H	0.856194	-0.561426	-0.646082
N58	N	1.213430	-0.862236	-0.383137
N59	N	1.176262	-0.875484	-0.306889
H60	H	1.113820	-0.852543	-0.284680
N61	N	1.212115	-0.999812	-0.383942
N62	N	1.176350	-0.977377	-0.306631
H63	H	1.113280	-0.991107	-0.284709
N64	N	1.005151	-0.529111	-0.608979
N65	N	1.089551	-0.533327	-0.613824
H66	H	1.126066	-0.571322	-0.657479
N67	N	0.991646	-0.325712	-0.375336
N68	N	1.076046	-0.329943	-0.380187
H69	H	1.107744	-0.295361	-0.340452
N70	N	1.186007	-0.316136	-0.978851
N71	N	1.214847	-0.267925	-0.927952
H72	H	1.171152	-0.229960	-0.891435
N73	N	1.359680	-0.868892	-0.350797
N74	N	1.345106	-0.883587	-0.269756
H75	H	1.385955	-0.865342	-0.224702
N76	N	1.197036	-0.325661	-1.169944
N77	N	1.142941	-0.278684	-1.124757
H78	H	1.103165	-0.244120	-1.156438
N79	N	0.675614	-0.562778	-0.647654
N80	N	0.720808	-0.609806	-0.701674
H81	H	0.689133	-0.644399	-0.741417
N82	N	1.469571	-0.562544	-0.853887
N83	N	1.524222	-0.536744	-0.804491
H84	H	1.564014	-0.571294	-0.772806
H85	H	1.457919	-1.018557	-0.611184
N86	N	1.495242	-0.880446	-0.488081
N87	N	1.561396	-0.848274	-0.522544
H88	H	1.607480	-0.829641	-0.483390
N89	N	1.430933	-0.528884	-1.183446
N90	N	1.435798	-0.533085	-1.267847
H91	H	1.479494	-0.571050	-1.304362
H92	H	1.195285	-0.876288	-0.557085
H93	H	1.468039	-0.561174	-1.034490
H94	H	0.811025	-0.327061	-0.376904
H95	H	1.287628	-1.011632	-0.649483
N96	N	1.292583	-0.880125	-0.667265
N97	N	1.310680	-0.928798	-0.730627
H98	H	1.328609	-0.914001	-0.794128
N99	N	1.177890	-1.008372	-0.552449
N100	N	1.162198	-1.046751	-0.486056
H101	H	1.098885	-1.062039	-0.468291
H102	H	1.248199	-0.370232	-0.850899
N103	N	1.358472	-1.006014	-0.350700
N104	N	1.398476	-0.960660	-0.305686
H105	H	1.438762	-0.978769	-0.260278
H106	H	1.453512	-0.890959	-0.614838
H107	H	1.479469	-1.012704	-0.493376
