data_functionalizedCrystal
_audit_creation_method	'MofGen! by Chris Wilmer'
_symmetry_space_group_name_H-M	'P1'
_symmetry_Int_Tables_number	1
_symmetry_cell_setting	triclinic
loop_
_symmetry_equiv_pos_as_xyz
  x,y,z
_cell_length_a	17.038278
_cell_length_b	17.038272
_cell_length_c	13.596369
_cell_angle_alpha	89.993837
_cell_angle_beta	89.994703
_cell_angle_gamma	91.111028
loop_
_atom_site_label
_atom_site_type_symbol
_atom_site_fract_x
_atom_site_fract_y
_atom_site_fract_z
O1	O	1.048755	0.170528	-0.081801
O2	O	1.382088	0.503862	0.251532
O3	O	1.715422	0.837195	0.584866
O4	O	0.820943	0.167823	-0.081801
O5	O	1.154277	0.501156	0.251532
O6	O	1.487610	0.834489	0.584865
O7	O	0.933495	0.055270	-0.081793
O8	O	1.266829	0.388603	0.251540
O9	O	1.600162	0.721936	0.584873
O10	O	0.936203	0.283081	-0.081809
O11	O	1.269536	0.616415	0.251524
O12	O	1.602870	0.949748	0.584858
O13	O	0.933483	0.055263	0.081790
O14	O	1.266816	0.388596	0.415123
O15	O	1.600149	0.721929	0.748456
O16	O	0.820931	0.167816	0.081782
O17	O	1.154264	0.501149	0.415115
O18	O	1.487598	0.834482	0.748448
O19	O	1.048742	0.170521	0.081782
O20	O	1.382076	0.503855	0.415115
O21	O	1.715409	0.837188	0.748449
Zn22	Zn	0.934835	0.169167	0.107754
Zn23	Zn	1.268168	0.502501	0.441087
Zn24	Zn	1.601501	0.835834	0.774421
Zn25	Zn	0.934851	0.169177	-0.107773
Zn26	Zn	1.268184	0.502510	0.225560
Zn27	Zn	1.601518	0.835843	0.558893
O28	O	0.936191	0.283074	0.081774
O29	O	1.269524	0.616408	0.415107
O30	O	1.602857	0.949741	0.748441
C31	C	0.791645	0.165356	-0.000010
C32	C	1.124978	0.498690	0.333324
C33	C	1.458311	0.832023	0.666657
C34	C	0.704361	0.158009	-0.000010
C35	C	1.037694	0.491343	0.333324
C36	C	1.371028	0.824676	0.666657
C37	C	0.210935	0.112872	-0.000010
C38	C	0.544269	0.446205	0.333323
C39	C	0.877602	0.779538	0.666656
C40	C	0.292947	0.119781	-0.000005
C41	C	0.626280	0.453114	0.333328
C42	C	0.959614	0.786448	0.666662
C43	C	0.329347	0.194155	-0.000014
C44	C	0.662680	0.527488	0.333319
C45	C	0.996014	0.860821	0.666652
C46	C	0.283730	0.261623	-0.000019
C47	C	0.617064	0.594956	0.333314
C48	C	0.950397	0.928290	0.666647
C49	C	0.201720	0.254713	-0.000018
C50	C	0.535054	0.588046	0.333315
C51	C	0.868387	0.921379	0.666649
C52	C	0.576734	0.218567	-0.000013
C53	C	0.910068	0.551901	0.333320
C54	C	1.243401	0.885234	0.666654
C55	C	0.658751	0.225473	-0.000018
C56	C	0.992084	0.558806	0.333316
C57	C	1.325417	0.892139	0.666649
C58	C	0.667962	0.083630	-0.000001
C59	C	1.001295	0.416963	0.333332
C60	C	1.334628	0.750297	0.666665
C61	C	0.585949	0.076726	-0.000006
C62	C	0.919283	0.410059	0.333328
C63	C	1.252616	0.743393	0.666661
C64	C	0.540340	0.144194	-0.000005
C65	C	0.873673	0.477528	0.333328
C66	C	1.207007	0.810861	0.666661
C67	C	0.413176	0.201219	-0.000012
C68	C	0.746509	0.534552	0.333321
C69	C	1.079843	0.867886	0.666655
C70	C	0.456513	0.137129	-0.000001
C71	C	0.789846	0.470463	0.333332
C72	C	1.123179	0.803796	0.666666
C73	C	0.931026	0.025974	-0.000002
C74	C	1.264359	0.359307	0.333331
C75	C	1.597693	0.692640	0.666665
C76	C	0.923678	-0.061310	-0.000002
C77	C	1.257011	0.272023	0.333331
C78	C	1.590345	0.605357	0.666664
C79	C	0.991142	-0.106920	-0.000001
C80	C	1.324475	0.226414	0.333332
C81	C	1.657808	0.559747	0.666665
C82	C	0.984233	-0.188932	-0.000011
C83	C	1.317566	0.144402	0.333323
C84	C	1.650899	0.477735	0.666656
C85	C	0.909859	-0.225332	-0.000014
C86	C	1.243193	0.108001	0.333319
C87	C	1.576526	0.441335	0.666653
C88	C	0.842391	-0.179716	-0.000018
C89	C	1.175724	0.153617	0.333315
C90	C	1.509058	0.486951	0.666649
C91	C	0.849300	-0.097706	-0.000016
C92	C	1.182634	0.235627	0.333318
C93	C	1.515967	0.568961	0.666651
C94	C	0.885449	-0.472720	-0.000027
C95	C	1.218782	-0.139386	0.333306
C96	C	1.552116	0.193947	0.666639
C97	C	0.878544	-0.554736	-0.000027
C98	C	1.211878	-0.221403	0.333307
C99	C	1.545211	0.111930	0.666640
C100	C	1.020387	-0.563946	-0.000021
C101	C	1.353720	-0.230613	0.333312
C102	C	1.687054	0.102721	0.666646
C103	C	1.027290	-0.481934	-0.000013
C104	C	1.360623	-0.148600	0.333320
C105	C	1.693957	0.184733	0.666654
C106	C	0.959821	-0.436325	-0.000022
C107	C	1.293155	-0.102992	0.333311
C108	C	1.626488	0.230342	0.666644
C109	C	0.902796	-0.309161	-0.000020
C110	C	1.236129	0.024172	0.333313
C111	C	1.569462	0.357505	0.666646
C112	C	0.966886	-0.352497	-0.000023
C113	C	1.300219	-0.019164	0.333311
C114	C	1.633553	0.314169	0.666644
C115	C	1.078041	0.172988	-0.000012
C116	C	1.411375	0.506321	0.333322
C117	C	1.744708	0.839654	0.666655
C118	C	1.165325	0.180335	-0.000018
C119	C	1.498658	0.513668	0.333315
C120	C	1.831992	0.847001	0.666648
C121	C	0.938660	0.312370	-0.000020
C122	C	1.271993	0.645704	0.333314
C123	C	1.605326	0.979037	0.666647
C124	C	0.946008	0.399654	-0.000026
C125	C	1.279341	0.732987	0.333308
C126	C	1.612675	1.066321	0.666641
N127	N	0.934829	0.169161	0.254846
N128	N	1.268163	0.502494	0.588179
N129	N	1.601496	0.835827	0.921513
N130	N	0.934862	0.169177	-0.254865
N131	N	1.268196	0.502511	0.078468
N132	N	1.601529	0.835844	0.411801
C133	C	0.934850	0.169177	0.656137
C134	C	1.268183	0.502511	0.989470
C135	C	1.601517	0.835844	1.322804
C136	C	0.934842	0.169175	0.544486
C137	C	1.268176	0.502509	0.877819
C138	C	1.601509	0.835842	1.211152
C139	C	0.934840	0.169170	0.455495
C140	C	1.268173	0.502503	0.788828
C141	C	1.601507	0.835836	1.122162
C142	C	0.934831	0.169166	0.343836
C143	C	1.268165	0.502500	0.677170
C144	C	1.601498	0.835833	1.010503
H145	H	0.330080	0.064845	0.000006
H146	H	0.663413	0.398178	0.333339
H147	H	0.996746	0.731512	0.666672
H148	H	0.426872	0.076575	-0.000004
H149	H	0.760206	0.409908	0.333329
H150	H	1.093539	0.743241	0.666662
H151	H	0.556319	0.016163	0.000002
H152	H	0.889652	0.349497	0.333336
H153	H	1.222985	0.682830	0.666669
H154	H	0.442822	0.261775	-0.000022
H155	H	0.776155	0.595108	0.333311
H156	H	1.109489	0.928441	0.666644
H157	H	0.313374	0.322180	-0.000021
H158	H	0.646707	0.655513	0.333312
H159	H	0.980040	0.988846	0.666646
H160	H	0.781834	-0.209360	-0.000027
H161	H	1.115168	0.123974	0.333306
H162	H	1.448501	0.457307	0.666640
H163	H	0.705105	0.028701	-0.000000
H164	H	1.038439	0.362035	0.333333
H165	H	1.371772	0.695368	0.666667
H166	H	1.051704	-0.077289	0.000008
H167	H	1.385038	0.256044	0.333341
H168	H	1.718371	0.589378	0.666674
H169	H	0.688384	0.286039	-0.000011
H170	H	1.021718	0.619373	0.333322
H171	H	1.355051	0.952706	0.666655
H172	H	0.539609	0.273505	-0.000018
H173	H	0.872942	0.606838	0.333315
H174	H	1.206276	0.940172	0.666649
H175	H	1.039169	-0.226064	-0.000007
H176	H	1.372502	0.107269	0.333326
H177	H	1.705836	0.440603	0.666659
H178	H	1.027440	-0.322857	-0.000042
H179	H	1.360774	0.010477	0.333292
H180	H	1.694107	0.343810	0.666625
H181	H	1.087852	-0.452303	-0.000010
H182	H	1.421186	-0.118969	0.333323
H183	H	1.754519	0.214364	0.666657
H184	H	0.794364	-0.060571	-0.000017
H185	H	1.127698	0.272762	0.333317
H186	H	1.461031	0.606096	0.666650
H187	H	0.164585	0.309649	-0.000021
H188	H	0.497918	0.642982	0.333312
H189	H	0.831251	0.976315	0.666646
H190	H	0.842240	-0.338808	-0.000021
H191	H	1.175574	-0.005474	0.333312
H192	H	1.508907	0.327859	0.666646
H193	H	0.830511	-0.435595	-0.000035
H194	H	1.163844	-0.102261	0.333299
H195	H	1.497177	0.231072	0.666632
H196	H	0.181305	0.052309	-0.000009
H197	H	0.514638	0.385642	0.333325
H198	H	0.847972	0.718975	0.666658
H199	H	1.075316	-0.601089	-0.000015
H200	H	1.408649	-0.267756	0.333318
H201	H	1.741982	0.065577	0.666651
H202	H	0.817978	-0.584370	-0.000014
H203	H	1.151311	-0.251037	0.333320
H204	H	1.484644	0.082296	0.666653
