data_functionalizedCrystal
_audit_creation_method	'MofGen! by Chris Wilmer'
_symmetry_space_group_name_H-M	'P1'
_symmetry_Int_Tables_number	1
_symmetry_cell_setting	triclinic
loop_
_symmetry_equiv_pos_as_xyz
  x,y,z
_cell_length_a	11.792254
_cell_length_b	10.654550
_cell_length_c	9.130313
_cell_angle_alpha	90.004369
_cell_angle_beta	89.996532
_cell_angle_gamma	95.658236
loop_
_atom_site_label
_atom_site_type_symbol
_atom_site_fract_x
_atom_site_fract_y
_atom_site_fract_z
O1	O	1.507296	-0.172211	-0.121798
O2	O	2.007296	0.327789	0.378202
O3	O	1.176998	-0.189935	-0.121801
O4	O	1.676998	0.310065	0.378199
O5	O	1.349742	0.001688	-0.121790
O6	O	1.849742	0.501688	0.378210
O7	O	1.334553	-0.363833	-0.121809
O8	O	1.834553	0.136167	0.378191
O9	O	1.349730	0.001693	0.121809
O10	O	1.849730	0.501693	0.621809
O11	O	1.176986	-0.189929	0.121798
O12	O	1.676986	0.310071	0.621798
O13	O	1.507285	-0.172205	0.121801
O14	O	2.007285	0.327795	0.621801
Cu15	Cu	1.342134	-0.181067	0.144042
Cu16	Cu	1.842134	0.318933	0.644042
Cu17	Cu	1.342148	-0.181073	-0.144042
Cu18	Cu	1.842148	0.318927	0.355958
O19	O	1.334541	-0.363828	0.121790
O20	O	1.834541	0.136172	0.621790
C21	C	1.134699	-0.188815	-0.000002
C22	C	1.634699	0.311185	0.499998
C23	C	1.008678	-0.185474	-0.000003
C24	C	1.508678	0.314526	0.499997
C25	C	0.906335	-0.182758	-0.000009
C26	C	1.406335	0.317242	0.499991
C27	C	0.777941	-0.179363	-0.000010
C28	C	1.277941	0.320637	0.499990
C29	C	1.348620	0.048485	0.000009
C30	C	1.848620	0.548485	0.500009
C31	C	1.345284	0.187919	0.000006
C32	C	1.845284	0.687919	0.500006
C33	C	1.549584	-0.173325	-0.000001
C34	C	2.049584	0.326675	0.499999
C35	C	1.675605	-0.176666	-0.000010
C36	C	2.175605	0.323334	0.499990
C37	C	1.335662	-0.410625	-0.000012
C38	C	1.835662	0.089375	0.499988
C39	C	1.338999	-0.550059	-0.000019
C40	C	1.838999	-0.050059	0.499981
N41	N	1.342133	-0.181061	0.346665
N42	N	1.842133	0.318939	0.846665
C43	C	1.446992	0.267687	0.000007
C44	C	1.946992	0.767687	0.500007
C45	C	1.443850	0.398699	-0.000011
C46	C	1.943850	0.898699	0.499989
C47	C	1.237283	0.370162	-0.000024
C48	C	1.737283	0.870162	0.499976
C49	C	1.240426	0.239153	-0.000016
C50	C	1.740426	0.739153	0.499984
N51	N	1.342159	-0.181069	-0.346664
N52	N	1.842159	0.318931	0.153336
C53	C	1.418649	-0.096247	0.423321
C54	C	1.918649	0.403753	0.923321
C55	C	1.418660	-0.096247	0.576658
C56	C	1.918660	0.403753	1.076658
C57	C	1.265634	-0.265887	0.576668
C58	C	1.765634	0.234113	1.076668
C59	C	1.265619	-0.265880	0.423334
C60	C	1.765619	0.234120	0.923334
H61	H	1.532374	0.225978	0.000022
H62	H	2.032374	0.725978	0.500022
H63	H	1.480966	-0.027182	0.639068
H64	H	1.980966	0.472818	1.139068
H65	H	1.203304	-0.334947	0.360916
H66	H	1.703304	0.165053	0.860916
H67	H	1.151911	0.411893	-0.000039
H68	H	1.651911	0.911893	0.499961
H69	H	1.203339	-0.334947	0.639108
H70	H	1.703339	0.165053	1.139108
H71	H	1.526672	0.463642	-0.000014
H72	H	2.026672	0.963642	0.499986
H73	H	1.157597	0.174202	-0.000021
H74	H	1.657597	0.674202	0.499979
H75	H	1.480950	-0.027181	0.360901
H76	H	1.980950	0.472819	0.860901
