data_functionalizedCrystal
_audit_creation_method	'MofGen! by Chris Wilmer'
_symmetry_space_group_name_H-M	'P1'
_symmetry_Int_Tables_number	1
_symmetry_cell_setting	triclinic
loop_
_symmetry_equiv_pos_as_xyz
  x,y,z
_cell_length_a	19.805407
_cell_length_b	16.959454
_cell_length_c	16.959447
_cell_angle_alpha	89.973264
_cell_angle_beta	89.983607
_cell_angle_gamma	90.020075
loop_
_atom_site_label
_atom_site_type_symbol
_atom_site_fract_x
_atom_site_fract_y
_atom_site_fract_z
Zn1	Zn	1.034744	-0.314666	-0.446972
Zn2	Zn	1.034678	-0.446858	-0.314802
Zn3	Zn	0.921565	-0.314698	-0.314805
Zn4	Zn	0.921535	-0.446806	-0.446936
O5	O	0.978131	-0.380757	-0.380879
O6	O	1.129452	-0.332210	-0.429453
O7	O	1.019658	-0.429362	-0.204191
O8	O	0.936619	-0.204083	-0.332354
O9	O	1.129403	-0.429331	-0.332348
O10	O	1.019771	-0.204059	-0.429456
O11	O	0.936555	-0.332264	-0.204193
O12	O	0.826845	-0.332214	-0.332318
O13	O	0.936567	-0.429243	-0.557551
O14	O	0.826822	-0.429273	-0.429394
O15	O	1.019742	-0.332160	-0.557578
O16	O	1.019629	-0.557462	-0.332313
O17	O	0.936503	-0.557424	-0.429391
C18	C	0.802275	-0.380742	-0.380853
C19	C	0.727043	-0.380755	-0.380861
C20	C	0.691705	-0.431370	-0.431326
C21	C	0.621016	-0.431371	-0.431338
C22	C	0.585667	-0.380761	-0.380879
C23	C	0.621010	-0.330140	-0.330411
C24	C	0.691697	-0.330135	-0.330404
C25	C	0.335937	-0.330158	-0.330437
C26	C	0.265245	-0.330168	-0.330446
C27	C	0.265256	-0.431393	-0.431370
C28	C	0.335943	-0.431388	-0.431364
C29	C	0.371280	-0.380765	-0.380899
C30	C	0.447928	-0.380763	-0.380889
C31	C	0.509020	-0.380766	-0.380884
C32	C	0.978074	-0.586123	-0.380865
C33	C	0.978112	-0.673980	-0.380886
C34	C	0.934910	-1.045466	-0.431422
C35	C	1.021540	-1.045445	-0.330416
C36	C	1.021516	-0.962900	-0.330409
C37	C	0.978188	-0.921633	-0.380908
C38	C	0.934883	-0.962912	-0.431414
C39	C	1.064815	-0.921614	-0.279897
C40	C	1.064793	-0.839063	-0.279887
C41	C	1.021467	-0.797795	-0.330391
C42	C	0.978162	-0.839079	-0.380900
C43	C	0.934833	-0.797813	-0.431400
C44	C	0.891531	-0.839095	-0.481913
C45	C	0.891558	-0.921644	-0.481918
C46	C	1.021440	-0.715247	-0.330387
C47	C	0.934807	-0.715259	-0.431392
C48	C	1.154673	-0.380773	-0.380905
C49	C	1.229905	-0.380780	-0.380916
C50	C	0.978159	-0.380692	-0.587047
C51	C	0.978171	-0.380664	-0.674904
C52	C	0.978206	-0.174589	-0.380909
C53	C	0.978238	-0.086732	-0.380922
C54	C	0.934946	-0.431127	-1.046368
C55	C	1.021557	-0.330034	-1.046391
C56	C	1.021539	-0.330051	-0.963845
C57	C	0.978225	-0.380607	-0.922557
C58	C	0.934929	-0.431147	-0.963814
C59	C	1.064839	-0.279517	-0.922581
C60	C	1.064823	-0.279533	-0.840030
C61	C	1.021505	-0.330086	-0.798740
C62	C	0.978207	-0.380627	-0.840003
C63	C	0.934893	-0.431184	-0.798715
C64	C	0.891590	-0.481722	-0.839976
C65	C	0.891610	-0.481700	-0.922525
C66	C	1.021485	-0.330107	-0.716192
C67	C	0.934875	-0.431204	-0.716161
C68	C	0.978141	-0.380765	-0.175512
C69	C	0.978261	-0.380570	-0.087656
H70	H	0.592223	-0.288929	-0.289329
C71	C	0.887276	-1.090877	-0.486981
N72	N	0.851396	-1.125081	-0.528827
C73	C	1.069195	-0.274420	-1.091811
N74	N	1.105075	-0.232525	-1.126024
C75	C	1.112463	-0.967012	-0.224341
N76	N	1.148351	-1.001210	-0.182491
C77	C	1.069115	-0.274520	-0.670808
N78	N	1.104991	-0.232647	-0.636626
H79	H	1.056812	-1.079050	-0.289297
C80	C	1.112422	-0.793660	-0.224317
N81	N	1.148296	-0.759461	-0.182460
C82	C	0.843946	-0.537332	-0.794548
N83	N	0.808061	-0.579216	-0.760329
H84	H	0.856358	-0.522848	-0.956127
H85	H	1.100107	-0.238362	-0.956204
C86	C	0.374823	-0.487065	-0.486871
N87	N	0.404106	-0.528999	-0.528683
C88	C	0.887311	-0.486710	-1.091755
N89	N	0.851431	-0.528575	-1.125942
C90	C	1.112449	-0.223932	-0.794650
N91	N	1.148318	-0.182050	-0.760470
H92	H	0.720481	-0.472585	-0.472414
C93	C	0.887149	-0.669872	-0.486956
N94	N	0.851256	-0.635688	-0.528810
H95	H	0.236465	-0.288950	-0.289356
H96	H	1.056693	-0.681638	-0.289255
C97	C	0.582147	-0.487067	-0.486839
N98	N	0.552872	-0.529024	-0.528640
H99	H	0.236476	-0.472610	-0.472464
C100	C	0.843922	-0.967061	-0.537469
N101	N	0.808039	-1.001272	-0.579306
H102	H	0.364699	-0.288943	-0.289339
C103	C	0.843871	-0.793691	-0.537460
N104	N	0.807975	-0.759490	-0.579298
C105	C	0.730568	-0.274457	-0.274886
N106	N	0.759846	-0.232516	-0.233070
H107	H	0.899596	-0.472366	-0.682550
