data_functionalizedCrystal
_audit_creation_method	'MofGen! by Chris Wilmer'
_symmetry_space_group_name_H-M	'P1'
_symmetry_Int_Tables_number	1
_symmetry_cell_setting	triclinic
loop_
_symmetry_equiv_pos_as_xyz
  x,y,z
_cell_length_a	11.026607
_cell_length_b	10.066323
_cell_length_c	16.109298
_cell_angle_alpha	81.212695
_cell_angle_beta	83.976898
_cell_angle_gamma	79.309054
loop_
_atom_site_label
_atom_site_type_symbol
_atom_site_fract_x
_atom_site_fract_y
_atom_site_fract_z
O1	O	1.592266	0.113441	-0.357685
O2	O	1.238975	0.113448	-0.318044
O3	O	1.425326	0.113454	-0.218289
O4	O	1.405915	0.113435	-0.457441
O5	O	1.460832	-0.113518	-0.199166
O6	O	1.274481	-0.113524	-0.298921
O7	O	1.627772	-0.113531	-0.338562
Zn8	Zn	1.456763	-0.149565	-0.315705
Zn9	Zn	1.409983	0.149481	-0.340901
O10	O	1.441420	-0.113537	-0.438317
C11	C	1.211520	-0.000037	-0.301170
C12	C	1.076814	-0.000033	-0.279369
N13	N	1.488698	-0.353656	-0.298510
C14	C	1.421078	-0.421465	-0.334917
C15	C	1.445688	-0.578621	-0.321679
C16	C	1.002984	-0.000037	-0.339565
C17	C	0.863759	-0.000034	-0.317034
C18	C	1.655226	-0.000043	-0.355437
C19	C	1.789931	-0.000038	-0.377238
C20	C	1.442292	-0.000027	-0.177635
C21	C	1.439934	-0.000011	-0.084988
N22	N	1.378058	0.353572	-0.358091
C23	C	1.424454	-0.000054	-0.478971
C24	C	1.426811	-0.000061	-0.571619
C25	C	1.412897	0.123684	0.204811
C26	C	1.415125	0.123693	0.117756
C27	C	1.453853	-0.123765	0.138588
C28	C	1.451633	-0.123773	0.225641
C29	C	1.431148	-0.000045	0.258750
C30	C	1.435597	-0.000027	0.084643
C31	C	1.438013	-0.000017	-0.009746
C32	C	1.428734	-0.000054	0.353145
H33	H	1.344971	-0.363176	-0.375890
C34	C	1.390389	0.259788	0.241226
N35	N	1.373446	0.362306	0.268650
C36	C	1.471708	-0.259891	0.284979
N37	N	1.486830	-0.362410	0.329671
H38	H	1.521809	-0.636908	-0.280711
C39	C	1.056834	-0.000050	-0.431722
N40	N	1.097391	-0.000059	-0.501138
C41	C	1.395044	0.259805	0.058426
N42	N	1.379918	0.362330	0.013739
C43	C	1.275226	-0.567691	-0.413443
N44	N	1.197773	-0.508386	-0.455132
C45	C	1.591523	-0.432400	-0.243161
N46	N	1.668972	-0.491708	-0.201469
C47	C	0.809916	-0.000026	-0.224871
N48	N	0.769359	-0.000019	-0.155456
H49	H	0.829789	-0.000052	-0.445458
C50	C	1.022966	-0.000026	-0.187211
N51	N	0.982409	-0.000018	-0.117795
H52	H	1.470529	-0.224500	0.111620
