data_functionalizedCrystal
_audit_creation_method	'MofGen! by Chris Wilmer'
_symmetry_space_group_name_H-M	'P1'
_symmetry_Int_Tables_number	1
_symmetry_cell_setting	triclinic
loop_
_symmetry_equiv_pos_as_xyz
  x,y,z
_cell_length_a	8.597340
_cell_length_b	14.044190
_cell_length_c	7.088929
_cell_angle_alpha	83.202929
_cell_angle_beta	103.954719
_cell_angle_gamma	89.225172
loop_
_atom_site_label
_atom_site_type_symbol
_atom_site_fract_x
_atom_site_fract_y
_atom_site_fract_z
O1	O	2.119902	0.130165	0.190201
O2	O	1.657422	0.145637	0.114010
O3	O	1.881718	-0.000080	0.150999
O4	O	1.895606	0.275882	0.153212
O5	O	1.911686	-0.019598	0.473916
O6	O	1.687391	0.126119	0.436927
O7	O	2.149870	0.110647	0.513118
Cu8	Cu	1.921367	0.116601	0.504508
Cu9	Cu	1.885926	0.139683	0.122620
O10	O	1.925575	0.256365	0.476129
C11	C	1.612861	0.135304	0.265659
C12	C	1.435435	0.133581	0.236431
C13	C	1.890624	-0.045149	0.311462
C14	C	1.872493	-0.150361	0.308492
C15	C	1.967934	-0.400722	0.324140
C16	C	1.839364	-0.342987	0.302972
C17	C	1.857801	-0.235800	0.306044
C18	C	1.949499	-0.507919	0.321069
C19	C	2.194431	0.120981	0.361464
C20	C	2.371856	0.122704	0.390680
C21	C	1.916668	0.301434	0.315662
C22	C	1.934798	0.406646	0.318619
N23	N	1.946306	0.100366	0.773108
N24	N	1.860998	0.155911	-0.145979
H25	H	1.354121	0.141577	0.081993
H26	H	2.091845	-0.369653	0.344573
H27	H	1.772586	0.213471	0.757795
Cl28	Cl	2.082837	0.011501	0.921684
H29	H	1.453162	0.114702	0.545108
H30	H	1.715444	-0.374059	0.282546
