data_functionalizedCrystal
_audit_creation_method	'MofGen! by Chris Wilmer'
_symmetry_space_group_name_H-M	'P1'
_symmetry_Int_Tables_number	1
_symmetry_cell_setting	triclinic
loop_
_symmetry_equiv_pos_as_xyz
  x,y,z
_cell_length_a	23.532407
_cell_length_b	19.288865
_cell_length_c	22.010155
_cell_angle_alpha	89.990247
_cell_angle_beta	90.018154
_cell_angle_gamma	97.007538
loop_
_atom_site_label
_atom_site_type_symbol
_atom_site_fract_x
_atom_site_fract_y
_atom_site_fract_z
O1	O	0.755444	-0.084316	0.050566
O2	O	1.088777	0.249017	0.383899
O3	O	1.422110	0.582350	0.717233
O4	O	0.589606	-0.096517	0.050561
O5	O	0.922939	0.236817	0.383894
O6	O	1.256272	0.570150	0.717227
O7	O	0.677317	0.010729	0.050552
O8	O	1.010650	0.344062	0.383885
O9	O	1.343983	0.677395	0.717218
O10	O	0.667733	-0.191562	0.050575
O11	O	1.001066	0.141772	0.383909
O12	O	1.334399	0.475105	0.717242
O13	O	0.677290	0.010729	-0.050499
O14	O	1.010624	0.344062	0.282835
O15	O	1.343957	0.677395	0.616168
O16	O	0.589579	-0.096517	-0.050490
O17	O	0.922913	0.236817	0.282844
O18	O	1.256246	0.570150	0.616177
O19	O	0.755417	-0.084317	-0.050484
O20	O	1.088751	0.249017	0.282849
O21	O	1.422084	0.582350	0.616182
Cu22	Cu	0.672496	-0.090417	-0.059714
Cu23	Cu	1.005829	0.242917	0.273620
Cu24	Cu	1.339163	0.576250	0.606953
Cu25	Cu	0.672527	-0.090417	0.059790
Cu26	Cu	1.005860	0.242917	0.393123
Cu27	Cu	1.339194	0.576250	0.726457
O28	O	0.667706	-0.191562	-0.050475
O29	O	1.001040	0.141772	0.282858
O30	O	1.334373	0.475105	0.616192
C31	C	0.568376	-0.096206	0.000035
C32	C	0.901709	0.237127	0.333368
C33	C	1.235042	0.570461	0.666701
C34	C	0.505157	-0.095272	0.000032
C35	C	0.838490	0.238061	0.333365
C36	C	1.171823	0.571395	0.666699
C37	C	0.776647	-0.084627	0.000043
C38	C	1.109981	0.248706	0.333376
C39	C	1.443314	0.582039	0.666710
C40	C	0.839866	-0.085561	0.000050
C41	C	1.173200	0.247772	0.333383
C42	C	1.506533	0.581105	0.666716
C43	C	0.676995	0.036604	0.000025
C44	C	1.010328	0.369937	0.333358
C45	C	1.343662	0.703271	0.666691
C46	C	0.676069	0.113705	0.000019
C47	C	1.009403	0.447038	0.333352
C48	C	1.342736	0.780371	0.666686
C49	C	1.238850	-0.027954	0.000022
C50	C	1.572183	0.305379	0.333355
C51	C	1.905517	0.638712	0.666688
C52	C	1.298252	-0.028822	0.000019
C53	C	1.631585	0.304511	0.333353
C54	C	1.964919	0.637845	0.666686
O55	O	1.334886	0.024580	-0.000009
O56	O	1.668219	0.357913	0.333325
O57	O	2.001552	0.691247	0.666658
N58	N	1.321010	-0.092579	0.000028
N59	N	1.654344	0.240754	0.333362
N60	N	1.987677	0.574087	0.666695
C61	C	1.284363	-0.155473	0.000034
C62	C	1.617696	0.177860	0.333367
C63	C	1.951030	0.511194	0.666701
O64	O	1.309175	-0.209783	0.000041
O65	O	1.642509	0.123550	0.333375
O66	O	1.975842	0.456884	0.666708
C67	C	1.224962	-0.154604	0.000032
C68	C	1.558295	0.178729	0.333366
C69	C	1.891629	0.512062	0.666699
C70	C	1.202207	-0.090843	0.000029
C71	C	1.535541	0.242490	0.333363
C72	C	1.868874	0.575824	0.666696
C73	C	1.216094	0.035802	0.000018
C74	C	1.549428	0.369135	0.333351
C75	C	1.882761	0.702468	0.666685
C76	C	1.156696	0.036669	0.000022
C77	C	1.490030	0.370002	0.333355
C78	C	1.823363	0.703336	0.666688
C79	C	1.120054	-0.026220	0.000029
C80	C	1.453387	0.307114	0.333363
C81	C	1.786721	0.640447	0.666696
C82	C	1.142809	-0.089976	0.000033
C83	C	1.476143	0.243358	0.333366
C84	C	1.809476	0.576691	0.666700
C85	C	1.188316	-0.217497	0.000034
C86	C	1.521649	0.115836	0.333367
C87	C	1.854983	0.449169	0.666700
C88	C	1.128912	-0.216623	0.000032
C89	C	1.462245	0.116710	0.333365
C90	C	1.795578	0.450043	0.666698
C91	C	1.106157	-0.152862	0.000028
C92	C	1.439490	0.180471	0.333362
C93	C	1.772824	0.513805	0.666695
C94	C	1.046769	-0.151997	0.000044
C95	C	1.380102	0.181336	0.333378
C96	C	1.713436	0.514670	0.666711
N97	N	1.024011	-0.088240	0.000035
N98	N	1.357344	0.245093	0.333368
N99	N	1.690677	0.578427	0.666702
C100	C	1.060653	-0.025351	0.000028
C101	C	1.393986	0.307982	0.333361
C102	C	1.727320	0.641316	0.666694
C103	C	1.409109	-0.157292	0.000037
C104	C	1.742443	0.176041	0.333370
C105	C	2.075776	0.509375	0.666703
C106	C	1.468509	-0.158161	0.000043
C107	C	1.801842	0.175172	0.333376
C108	C	2.135176	0.508506	0.666710
C109	C	1.482394	-0.031510	0.000027
C110	C	1.815727	0.301823	0.333360
C111	C	2.149061	0.635157	0.666693
C112	C	1.422993	-0.030641	0.000025
C113	C	1.756326	0.302692	0.333358
C114	C	2.089660	0.636025	0.666692
C115	C	1.386351	-0.093535	0.000028
C116	C	1.719684	0.239799	0.333361
C117	C	2.053018	0.573132	0.666694
C118	C	0.935913	-0.023534	0.000036
C119	C	1.269246	0.309799	0.333369
C120	C	1.602579	0.643132	0.666703
C121	C	0.876509	-0.022672	0.000042
C122	C	1.209842	0.310661	0.333375
C123	C	1.543175	0.643994	0.666709
C124	C	0.862629	-0.149323	0.000055
C125	C	1.195962	0.184010	0.333388
C126	C	1.529296	0.517343	0.666722
C127	C	0.922028	-0.150185	0.000052
C128	C	1.255361	0.183148	0.333385
C129	C	1.588694	0.516481	0.666719
C130	C	0.958669	-0.087285	0.000040
C131	C	1.292002	0.246048	0.333374
C132	C	1.625335	0.579381	0.666707
O133	O	1.010100	-0.205371	0.000070
O134	O	1.343434	0.127962	0.333403
O135	O	1.676767	0.461295	0.666736
O136	O	1.035833	0.028950	0.000012
O137	O	1.369166	0.362283	0.333346
O138	O	1.702499	0.695617	0.666679
C139	C	0.668028	-0.217437	0.000053
C140	C	1.001361	0.115896	0.333387
C141	C	1.334695	0.449230	0.666720
C142	C	0.668954	-0.294538	0.000063
C143	C	1.002287	0.038795	0.333396
C144	C	1.335620	0.372129	0.666729
N145	N	0.672478	-0.090416	-0.143766
N146	N	1.005812	0.242917	0.189567
N147	N	1.339145	0.576251	0.522901
C148	C	0.727534	0.158560	0.000018
C149	C	1.060868	0.491893	0.333351
C150	C	1.394201	0.825226	0.666684
C151	C	0.726664	0.231004	0.000027
C152	C	1.059998	0.564337	0.333361
C153	C	1.393331	0.897671	0.666694
C154	C	0.674327	0.258590	0.000026
C155	C	1.007660	0.591924	0.333359
C156	C	1.340994	0.925257	0.666693
C157	C	0.622855	0.213725	0.000031
C158	C	0.956189	0.547059	0.333364
C159	C	1.289522	0.880392	0.666698
C160	C	0.623727	0.141283	0.000027
C161	C	0.957060	0.474616	0.333361
C162	C	1.290393	0.807949	0.666694
C163	C	0.633174	0.366751	-0.035371
C164	C	0.966508	0.700084	0.297962
C165	C	1.299841	1.033417	0.631296
C166	C	0.632306	0.439193	-0.035371
C167	C	0.965639	0.772526	0.297962
C168	C	1.298972	1.105859	0.631295
C169	C	0.671638	0.482028	0.000040
C170	C	1.004971	0.815361	0.333373
C171	C	1.338305	1.148694	0.666706
C172	C	0.711849	0.452413	0.035443
C173	C	1.045183	0.785747	0.368776
C174	C	1.378516	1.119080	0.702110
C175	C	0.712720	0.379971	0.035439
C176	C	1.046054	0.713304	0.368773
C177	C	1.379387	1.046637	0.702106
C178	C	0.673377	0.337141	0.000030
C179	C	1.006710	0.670475	0.333364
C180	C	1.340043	1.003808	0.666697
C181	C	0.722163	0.605436	0.000050
C182	C	1.055497	0.938769	0.333383
C183	C	1.388830	1.272102	0.666716
C184	C	0.721292	0.677881	0.000063
C185	C	1.054625	1.011214	0.333396
C186	C	1.387958	1.344548	0.666730
C187	C	0.617481	0.660601	0.000060
C188	C	0.950814	0.993934	0.333394
C189	C	1.284148	1.327267	0.666727
C190	C	0.618354	0.588157	0.000053
C191	C	0.951688	0.921490	0.333386
C192	C	1.285021	1.254824	0.666720
C193	C	0.670697	0.560579	0.000045
C194	C	1.004030	0.893912	0.333378
C195	C	1.337364	1.227246	0.666711
C196	C	0.706959	-0.132323	-0.563539
C197	C	1.040293	0.201010	-0.230206
C198	C	1.373626	0.534343	0.103127
C199	C	0.706966	-0.132321	-0.627147
C200	C	1.040300	0.201012	-0.293813
C201	C	1.373633	0.534345	0.039520
O202	O	0.736263	-0.167948	-0.660033
O203	O	1.069596	0.165385	-0.326700
O204	O	1.402930	0.498719	0.006634
N205	N	0.672538	-0.090409	-0.658973
N206	N	1.005872	0.242925	-0.325640
N207	N	1.339205	0.576258	0.007693
C208	C	0.638106	-0.048489	-0.627189
C209	C	0.971439	0.284844	-0.293855
C210	C	1.304772	0.618177	0.039478
O211	O	0.608823	-0.012838	-0.660100
O212	O	0.942156	0.320495	-0.326767
O213	O	1.275490	0.653828	0.006566
C214	C	0.638102	-0.048488	-0.563582
C215	C	0.971436	0.284846	-0.230249
C216	C	1.304769	0.618179	0.103084
C217	C	0.672528	-0.090409	-0.531759
C218	C	1.005862	0.242925	-0.198426
C219	C	1.339195	0.576258	0.134907
C220	C	0.741383	-0.174240	-0.531716
C221	C	1.074716	0.159093	-0.198383
C222	C	1.408050	0.492426	0.134951
C223	C	0.741375	-0.174243	-0.468113
C224	C	1.074709	0.159091	-0.134779
C225	C	1.408042	0.492424	0.198554
C226	C	0.706944	-0.132328	-0.436333
C227	C	1.040278	0.201005	-0.102999
C228	C	1.373611	0.534338	0.230334
C229	C	0.672521	-0.090411	-0.468156
C230	C	1.005854	0.242922	-0.134823
C231	C	1.339187	0.576255	0.198511
C232	C	0.603673	-0.006565	-0.531799
C233	C	0.937007	0.326768	-0.198466
C234	C	1.270340	0.660101	0.134868
C235	C	0.603673	-0.006567	-0.468188
C236	C	0.937007	0.326766	-0.134855
C237	C	1.270340	0.660100	0.198478
C238	C	0.638099	-0.048488	-0.436365
C239	C	0.971433	0.284845	-0.103032
C240	C	1.304766	0.618179	0.230302
C241	C	0.638082	-0.048500	-0.372773
C242	C	0.971415	0.284834	-0.039439
C243	C	1.304748	0.618167	0.293894
N244	N	0.672510	-0.090412	-0.340946
N245	N	1.005843	0.242921	-0.007613
N246	N	1.339176	0.576254	0.325720
C247	C	0.706941	-0.132327	-0.372726
C248	C	1.040274	0.201006	-0.039393
C249	C	1.373608	0.534340	0.293940
C250	C	0.638116	-0.048495	-0.760767
C251	C	0.971449	0.284839	-0.427433
C252	C	1.304783	0.618172	-0.094100
C253	C	0.638116	-0.048500	-0.824372
C254	C	0.971449	0.284834	-0.491039
C255	C	1.304782	0.618167	-0.157705
C256	C	0.706977	-0.132331	-0.824325
C257	C	1.040310	0.201002	-0.490992
C258	C	1.373644	0.534336	-0.157659
C259	C	0.706974	-0.132329	-0.760719
C260	C	1.040307	0.201004	-0.427386
C261	C	1.373641	0.534337	-0.094052
C262	C	0.672544	-0.090408	-0.728940
C263	C	1.005877	0.242926	-0.395607
C264	C	1.339210	0.576259	-0.062273
C265	C	0.706922	-0.132330	-0.239155
C266	C	1.040255	0.201004	0.094178
C267	C	1.373589	0.534337	0.427512
C268	C	0.706909	-0.132331	-0.175546
C269	C	1.040243	0.201003	0.157787
C270	C	1.373576	0.534336	0.491121
C271	C	0.638050	-0.048497	-0.175598
C272	C	0.971384	0.284837	0.157735
C273	C	1.304717	0.618170	0.491069
C274	C	0.638060	-0.048498	-0.239201
C275	C	0.971394	0.284835	0.094132
C276	C	1.304727	0.618169	0.427465
C277	C	0.672501	-0.090417	-0.270978
C278	C	1.005834	0.242917	0.062355
C279	C	1.339167	0.576250	0.395688
O280	O	0.608802	-0.012889	-0.339846
O281	O	0.942135	0.320444	-0.006513
O282	O	1.275468	0.653778	0.326820
O283	O	0.736224	-0.167965	-0.339807
O284	O	1.069558	0.165368	-0.006474
O285	O	1.402891	0.498702	0.326860
N286	N	0.672549	-0.090411	0.143843
N287	N	1.005883	0.242922	0.477176
N288	N	1.339216	0.576255	0.810509
H289	H	0.857986	0.029252	0.000041
H290	H	1.191319	0.362585	0.333375
H291	H	1.524652	0.695918	0.666708
F292	F	0.567031	0.038058	-0.434371
F293	F	0.900364	0.371391	-0.101037
F294	F	1.233698	0.704725	0.232296
H295	H	0.764784	0.582981	0.000046
H296	H	1.098117	0.916314	0.333379
H297	H	1.431451	1.249647	0.666712
F298	F	0.567154	0.243085	0.000033
F299	F	0.900488	0.576419	0.333367
F300	F	1.233821	0.909752	0.666700
F301	F	1.089917	-0.283565	0.000032
F302	F	1.423251	0.049768	0.333365
F303	F	1.756584	0.383102	0.666698
F304	F	0.743577	-0.176944	-0.272965
F305	F	1.076911	0.156390	0.060368
F306	F	1.410244	0.489723	0.393701
H307	H	0.610021	-0.014372	-0.265113
H308	H	0.943354	0.318962	0.068220
H309	H	1.276687	0.652295	0.401554
F310	F	0.783242	0.129214	0.000022
F311	F	1.116576	0.462547	0.333356
F312	F	1.449909	0.795880	0.666689
F313	F	0.743616	-0.176945	-0.726856
F314	F	1.076949	0.156389	-0.393523
F315	F	1.410283	0.489722	-0.060189
H316	H	0.575641	0.027572	-0.557699
H317	H	0.908974	0.360906	-0.224365
H318	H	1.242307	0.694239	0.108968
F319	F	1.398781	0.037221	0.000020
F320	F	1.732115	0.370554	0.333353
F321	F	2.065448	0.703888	0.666686
H322	H	0.581816	0.104761	0.000028
H323	H	0.915150	0.438094	0.333362
H324	H	1.248483	0.771428	0.666695
F325	F	0.743625	-0.176938	-0.858159
F326	F	1.076958	0.156396	-0.524826
F327	F	1.410291	0.489729	-0.191493
H328	H	0.610073	-0.014360	-0.734896
H329	H	0.943407	0.318974	-0.401563
H330	H	1.276740	0.652307	-0.068229
F331	F	0.591309	0.321169	-0.073064
F332	F	0.924643	0.654502	0.260270
F333	F	1.257976	0.987836	0.593603
H334	H	0.610076	-0.014372	-0.850277
H335	H	0.943409	0.318962	-0.516944
H336	H	1.276742	0.652295	-0.183610
F337	F	0.561779	0.689955	0.000062
F338	F	0.895112	1.023288	0.333395
F339	F	1.228446	1.356622	0.666729
F340	F	1.255084	0.102743	0.000008
F341	F	1.588418	0.436076	0.333342
F342	F	1.921751	0.769410	0.666675
H343	H	0.610016	-0.014373	-0.149711
H344	H	0.943349	0.318960	0.183622
H345	H	1.276682	0.652294	0.516955
H346	H	0.965739	0.027685	0.000027
H347	H	1.299073	0.361018	0.333360
H348	H	1.632406	0.694352	0.666693
F349	F	0.776071	0.725620	0.000065
F350	F	1.109404	1.058953	0.333399
F351	F	1.442737	1.392287	0.666732
H352	H	0.576446	0.551635	0.000051
H353	H	0.909779	0.884968	0.333384
H354	H	1.243113	1.218301	0.666717
H355	H	1.138175	0.088590	0.000017
H356	H	1.471509	0.421923	0.333350
H357	H	1.804842	0.755257	0.666683
H358	H	0.940555	-0.202105	0.000055
H359	H	1.273889	0.131228	0.333389
H360	H	1.607222	0.464562	0.666722
H361	H	1.512239	0.019698	0.000021
H362	H	1.845573	0.353031	0.333354
H363	H	2.178906	0.686364	0.666687
F364	F	0.778009	-0.218870	-0.434252
F365	F	1.111343	0.114463	-0.100919
F366	F	1.444676	0.447797	0.232415
F367	F	1.492720	-0.226024	0.000058
F368	F	1.826053	0.107309	0.333391
F369	F	2.159386	0.440642	0.666724
F370	F	1.370116	-0.224236	0.000046
F371	F	1.703450	0.109097	0.333379
F372	F	2.036783	0.442431	0.666713
H373	H	0.832784	-0.200525	0.000064
H374	H	1.166118	0.132808	0.333397
H375	H	1.499451	0.466141	0.666731
F376	F	1.212520	-0.285362	0.000037
F377	F	1.545853	0.047971	0.333371
F378	F	1.879187	0.381305	0.666704
F379	F	0.781443	0.278751	0.000027
F380	F	1.114776	0.612084	0.333360
F381	F	1.448109	0.945418	0.666694
H382	H	0.745461	0.355862	0.064267
H383	H	1.078794	0.689195	0.397600
H384	H	1.412127	1.022529	0.730934
H385	H	0.743877	0.487289	0.064278
H386	H	1.077211	0.820622	0.397611
H387	H	1.410544	1.153955	0.730945
F388	F	0.743548	-0.176955	-0.141681
F389	F	1.076881	0.156378	0.191652
F390	F	1.410215	0.489712	0.524986
F391	F	0.589512	0.470704	-0.073052
F392	F	0.922845	0.804037	0.260281
F393	F	1.256179	1.137370	0.593614
H394	H	0.769424	-0.208372	-0.557585
H395	H	1.102757	0.124961	-0.224251
H396	H	1.436091	0.458295	0.109082
