data_functionalizedCrystal
_audit_creation_method	'MofGen! by Chris Wilmer'
_symmetry_space_group_name_H-M	'P1'
_symmetry_Int_Tables_number	1
_symmetry_cell_setting	triclinic
loop_
_symmetry_equiv_pos_as_xyz
  x,y,z
_cell_length_a	13.262390
_cell_length_b	14.519709
_cell_length_c	12.376457
_cell_angle_alpha	78.703458
_cell_angle_beta	116.831551
_cell_angle_gamma	84.070969
loop_
_atom_site_label
_atom_site_type_symbol
_atom_site_fract_x
_atom_site_fract_y
_atom_site_fract_z
O1	O	1.512441	0.019563	0.559020
O2	O	1.185380	0.051895	0.458464
O3	O	1.357580	-0.098987	0.511397
O4	O	1.340241	0.170445	0.506087
O5	O	1.314545	-0.061316	0.310157
O6	O	1.142345	0.089566	0.257224
O7	O	1.469406	0.057235	0.357779
Zn8	Zn	1.299043	0.079382	0.275550
Zn9	Zn	1.355743	0.029748	0.540693
O10	O	1.297206	0.208117	0.304846
C11	C	1.122005	0.072383	0.344975
C12	C	0.997283	0.077295	0.306629
C13	C	0.739558	0.008987	0.637341
C14	C	0.856741	0.004367	0.673371
C15	C	0.891883	0.022599	0.581689
C16	C	0.809829	0.045451	0.453970
C17	C	0.692635	0.050065	0.417936
C18	C	0.844960	0.063676	0.362284
C19	C	0.762905	0.086529	0.234565
C20	C	0.645723	0.091142	0.198538
C21	C	0.610582	0.072910	0.290220
C22	C	0.962154	0.059063	0.398318
C23	C	0.915230	0.100141	0.178913
C24	C	0.798047	0.104761	0.142883
C25	C	1.335254	-0.114466	0.410528
C26	C	1.332832	-0.216713	0.409783
C27	C	1.323922	-0.591122	0.407073
C28	C	1.326396	-0.486949	0.407825
C29	C	1.328376	-0.403921	0.408427
C30	C	1.330851	-0.299742	0.409181
C31	C	1.532782	0.036746	0.471271
C32	C	1.657505	0.031833	0.509625
C33	C	1.319533	0.223596	0.405718
C34	C	1.321956	0.325841	0.406471
N35	N	1.260355	0.113255	0.094599
C36	C	1.484247	-0.082780	-0.191563
C37	C	1.511319	-0.106487	-0.064902
C38	C	1.448580	-0.051554	-0.025020
C39	C	1.358765	0.027091	-0.111812
C40	C	1.331697	0.050805	-0.238484
C41	C	1.296029	0.082031	-0.071941
C42	C	1.206215	0.160676	-0.158734
C43	C	1.179150	0.184386	-0.285393
C44	C	1.241890	0.129453	-0.325275
C45	C	1.323098	0.058317	0.054731
C46	C	1.170547	0.191902	0.007809
C47	C	1.143476	0.215609	-0.118852
N48	N	1.394440	-0.004132	0.721647
H49	H	0.710934	-0.005864	0.711976
O50	O	0.949320	0.117697	0.089802
C51	C	0.918954	0.050835	0.018097
H52	H	0.909246	-0.016176	0.075073
H53	H	0.989599	0.030097	-0.006671
H54	H	0.833465	0.084517	-0.072091
O55	O	1.109511	0.245396	0.046334
C56	C	1.024424	0.319884	-0.057434
H57	H	1.051191	0.335367	-0.133555
H58	H	1.015249	0.387590	-0.026053
H59	H	0.938029	0.296931	-0.096602
O60	O	1.041782	0.037036	0.522381
C61	C	1.014831	0.106154	0.576460
H62	H	0.960109	0.175701	0.499672
H63	H	1.098318	0.120827	0.648624
H64	H	0.964273	0.077827	0.624815
O65	O	0.566147	0.113217	0.074440
C66	C	0.593066	0.044072	0.020375
H67	H	0.689010	0.008047	0.079018
H68	H	0.572795	0.080805	-0.079614
H69	H	0.539160	-0.012546	0.017999
H70	H	0.515163	0.076674	0.260891
O71	O	1.005752	0.018117	0.616899
C72	C	1.070644	-0.005986	0.749285
H73	H	1.011803	0.014463	0.789235
H74	H	1.143426	0.034804	0.777899
H75	H	1.109175	-0.086712	0.787773
H76	H	0.731222	0.123367	0.038892
H77	H	0.923543	-0.014244	0.777360
H78	H	1.470626	-0.070860	0.078115
O79	O	1.545156	-0.136284	-0.230195
C80	C	1.533299	-0.232378	-0.204966
H81	H	1.509661	-0.247170	-0.126311
H82	H	1.618577	-0.283122	-0.174705
H83	H	1.462076	-0.244545	-0.293479
H84	H	1.396225	-0.005716	0.125387
H85	H	1.584446	-0.170518	0.005761
H86	H	1.219845	0.148752	-0.428413
O87	O	1.091769	0.260693	-0.369694
C88	C	0.987146	0.245871	-0.372945
H89	H	0.993892	0.165553	-0.338350
H90	H	0.912984	0.275091	-0.473583
H91	H	0.969960	0.284982	-0.309534
H92	H	1.070347	0.279644	-0.189534
