data_functionalizedCrystal
_audit_creation_method	'MofGen! by Chris Wilmer'
_symmetry_space_group_name_H-M	'P1'
_symmetry_Int_Tables_number	1
_symmetry_cell_setting	triclinic
loop_
_symmetry_equiv_pos_as_xyz
  x,y,z
_cell_length_a	13.897449
_cell_length_b	16.120297
_cell_length_c	13.897448
_cell_angle_alpha	92.873468
_cell_angle_beta	90.018519
_cell_angle_gamma	92.876717
loop_
_atom_site_label
_atom_site_type_symbol
_atom_site_fract_x
_atom_site_fract_y
_atom_site_fract_z
Zn1	Zn	1.447027	-0.471424	-0.411676
Zn2	Zn	1.780361	-0.138091	-0.078342
Zn3	Zn	2.113694	0.195242	0.254991
Zn4	Zn	1.455105	-0.332016	-0.564802
Zn5	Zn	1.788439	0.001317	-0.231469
Zn6	Zn	2.121772	0.334650	0.101864
Zn7	Zn	1.293900	-0.332025	-0.403526
Zn8	Zn	1.627233	0.001309	-0.070192
Zn9	Zn	1.960567	0.334642	0.263141
Zn10	Zn	1.285701	-0.471378	-0.572930
Zn11	Zn	1.619034	-0.138045	-0.239597
Zn12	Zn	1.952368	0.195288	0.093737
O13	O	1.370433	-0.401711	-0.488233
O14	O	1.703767	-0.068378	-0.154900
O15	O	2.037100	0.264956	0.178433
O16	O	1.583080	-0.452948	-0.431998
O17	O	1.916413	-0.119614	-0.098664
O18	O	2.249746	0.213719	0.234669
O19	O	1.440533	-0.215355	-0.536596
O20	O	1.773867	0.117979	-0.203263
O21	O	2.107200	0.451312	0.130070
O22	O	1.314263	-0.350539	-0.269627
O23	O	1.647597	-0.017206	0.063707
O24	O	1.980930	0.316128	0.397040
O25	O	1.589014	-0.350525	-0.544499
O26	O	1.922348	-0.017192	-0.211166
O27	O	2.255681	0.316142	0.122168
O28	O	1.426765	-0.452956	-0.275614
O29	O	1.760099	-0.119622	0.057719
O30	O	2.093432	0.213711	0.391052
O31	O	1.322096	-0.215361	-0.418107
O32	O	1.655430	0.117973	-0.084774
O33	O	1.988763	0.451306	0.248560
O34	O	1.157832	-0.350494	-0.425988
O35	O	1.491165	-0.017161	-0.092655
O36	O	1.824498	0.316172	0.240678
O37	O	1.300289	-0.588047	-0.558352
O38	O	1.633622	-0.254714	-0.225018
O39	O	1.966956	0.078619	0.108315
O40	O	1.151808	-0.452877	-0.550449
O41	O	1.485141	-0.119543	-0.217116
O42	O	1.818474	0.213790	0.116218
O43	O	1.418815	-0.588081	-0.439879
O44	O	1.752148	-0.254748	-0.106546
O45	O	2.085482	0.078586	0.226788
O46	O	1.432583	-0.350480	-0.700861
O47	O	1.765916	-0.017147	-0.367527
O48	O	2.099249	0.316186	-0.034194
O49	O	1.308122	-0.452869	-0.706832
O50	O	1.641455	-0.119535	-0.373499
O51	O	1.974789	0.213798	-0.040166
C52	C	1.119821	-0.401682	-0.488217
C53	C	1.453154	-0.068349	-0.154884
C54	C	1.786487	0.264985	0.178450
C55	C	1.012606	-0.401689	-0.488234
C56	C	1.345940	-0.068356	-0.154901
C57	C	1.679273	0.264977	0.178432
C58	C	0.925536	-0.401703	-0.488238
C59	C	1.258869	-0.068370	-0.154905
C60	C	1.592202	0.264964	0.178428
C61	C	0.816302	-0.401728	-0.488247
C62	C	1.149635	-0.068395	-0.154913
C63	C	1.482969	0.264938	0.178420
C64	C	1.357736	-0.619159	-0.500931
C65	C	1.691070	-0.285826	-0.167598
C66	C	2.024403	0.047507	0.165736
C67	C	1.352326	-0.711823	-0.506342
C68	C	1.685659	-0.378490	-0.173009
C69	C	2.018992	-0.045156	0.160325
C70	C	1.342412	-0.881480	-0.516200
C71	C	1.675745	-0.548147	-0.182866
C72	C	2.009078	-0.214814	0.150467
C73	C	1.398645	-0.922793	-0.459978
C74	C	1.731979	-0.589460	-0.126645
C75	C	2.065312	-0.256127	0.206688
C76	C	1.393129	-1.017197	-0.465463
C77	C	1.726462	-0.683863	-0.132130
C78	C	2.059796	-0.350530	0.201203
C79	C	1.347927	-0.787069	-0.510716
C80	C	1.681260	-0.453735	-0.177383
C81	C	2.014593	-0.120402	0.155951
C82	C	1.622025	-0.401741	-0.488251
C83	C	1.955358	-0.068407	-0.154917
C84	C	2.288691	0.264926	0.178416
C85	C	1.729238	-0.401753	-0.488258
C86	C	2.062571	-0.068420	-0.154925
C87	C	2.395904	0.264913	0.178408
C88	C	1.370364	-0.401687	-0.738846
C89	C	1.703698	-0.068353	-0.405513
C90	C	2.037031	0.264980	-0.072180
C91	C	1.370422	-0.401704	-0.846061
C92	C	1.703755	-0.068371	-0.512728
C93	C	2.037088	0.264962	-0.179395
C94	C	1.383137	-0.185108	-0.475516
C95	C	1.716470	0.148225	-0.142182
C96	C	2.049803	0.481558	0.191151
C97	C	1.388734	-0.092445	-0.469833
C98	C	1.722067	0.240888	-0.136500
C99	C	2.055401	0.574221	0.196834
C100	C	1.370520	-0.401757	-1.042359
C101	C	1.703853	-0.068423	-0.709026
C102	C	2.037186	0.264910	-0.375693
C103	C	1.370462	-0.401730	-0.933125
C104	C	1.703796	-0.068397	-0.599792
C105	C	2.037129	0.264937	-0.266459
C106	C	1.370528	-0.401753	-0.236643
C107	C	1.703861	-0.068420	0.096690
C108	C	2.037195	0.264913	0.430024
C109	C	1.370568	-0.401771	-0.129430
C110	C	1.703901	-0.068438	0.203903
C111	C	2.037235	0.264895	0.537237
H112	H	1.450930	-0.887264	-0.407726
H113	H	1.784264	-0.553930	-0.074392
H114	H	2.117597	-0.220597	0.258941
H115	H	1.290131	-0.917008	-0.568448
H116	H	1.623464	-0.583675	-0.235115
H117	H	1.956797	-0.250341	0.098219
