data_functionalizedCrystal
_audit_creation_method	'MofGen! by Chris Wilmer'
_symmetry_space_group_name_H-M	'P1'
_symmetry_Int_Tables_number	1
_symmetry_cell_setting	triclinic
loop_
_symmetry_equiv_pos_as_xyz
  x,y,z
_cell_length_a	15.995350
_cell_length_b	17.699083
_cell_length_c	16.776229
_cell_angle_alpha	90.007545
_cell_angle_beta	90.003494
_cell_angle_gamma	83.387695
loop_
_atom_site_label
_atom_site_type_symbol
_atom_site_fract_x
_atom_site_fract_y
_atom_site_fract_z
O1	O	-1.110790	-0.097560	-0.066222
O2	O	-0.866990	-0.109607	-0.066239
O3	O	-0.995778	0.006594	-0.066223
O4	O	-0.982002	-0.213761	-0.066238
O5	O	-0.995761	0.006602	0.066353
O6	O	-0.866973	-0.109600	0.066338
O7	O	-1.110773	-0.097553	0.066354
Zn8	Zn	-0.988870	-0.103575	0.087395
Zn9	Zn	-0.988893	-0.103584	-0.087280
O10	O	-0.981985	-0.213754	0.066338
C11	C	-0.835788	-0.109105	0.000047
C12	C	-0.742841	-0.107612	0.000041
C13	C	-0.995276	0.034796	0.000065
C14	C	-0.993795	0.118816	0.000065
C15	C	-1.141975	-0.098054	0.000066
C16	C	-1.234923	-0.099547	0.000067
C17	C	-0.405104	-0.102250	0.000058
C18	C	-0.452706	-0.019493	0.000360
C19	C	-0.549394	-0.020987	0.000055
C20	C	-0.572659	-0.104910	0.000050
C21	C	-0.531499	-0.145732	-0.075657
C22	C	-0.434867	-0.143653	-0.075715
C23	C	-0.434505	-0.145355	0.075049
C24	C	-0.531451	-0.145335	0.076044
C25	C	-0.667354	-0.106417	0.000043
C26	C	-0.310409	-0.100745	0.000060
C27	C	-0.982487	-0.241955	0.000048
C28	C	-0.983968	-0.325976	0.000043
N29	N	-0.988861	-0.103568	0.206607
C30	C	-1.069391	0.167312	0.000072
C31	C	-1.067994	0.246257	0.000065
C32	C	-0.991001	0.276706	0.000057
C33	C	-0.915400	0.228205	0.000048
C34	C	-0.916797	0.149261	0.000050
C35	C	-0.909763	0.546577	0.000041
C36	C	-0.908372	0.625527	0.000042
C37	C	-1.060960	0.643574	0.000056
C38	C	-1.062358	0.564630	0.000058
C39	C	-0.986757	0.516135	0.000045
C40	C	-0.988272	0.430533	0.000051
C41	C	-0.989485	0.362306	0.000056
N42	N	-0.988909	-0.103585	-0.206491
C43	C	-1.045906	-0.052135	0.248331
C44	C	-1.045910	-0.052135	0.331783
C45	C	-0.988874	-0.103571	0.373509
C46	C	-0.931823	-0.155006	0.331779
C47	C	-0.931815	-0.155003	0.248329
C48	C	-0.931853	-0.155021	0.668327
C49	C	-0.931867	-0.155022	0.751783
C50	C	-1.045949	-0.052153	0.751781
C51	C	-1.045941	-0.052150	0.668330
C52	C	-0.988887	-0.103582	0.626607
C53	C	-0.988882	-0.103581	0.536119
C54	C	-0.988883	-0.103576	0.463996
H55	H	-0.577881	0.011101	0.054326
C56	C	-1.152925	0.134152	-0.000045
C57	C	-1.158183	0.089333	-0.068241
C58	C	-1.235119	0.058768	-0.068374
H59	H	-1.197819	0.174264	-0.000085
H60	H	-1.156645	0.103694	0.046164
H61	H	-1.154470	0.119789	-0.114439
H62	H	-1.113306	0.049209	-0.068216
H63	H	-1.238839	0.028311	-0.022165
H64	H	-1.280007	0.098885	-0.068412
H65	H	-1.238693	0.028350	-0.114640
H66	H	-0.433187	0.013431	-0.053630
H67	H	-0.885418	-0.196910	0.785756
H68	H	-0.885363	-0.196884	0.214358
C69	C	-0.551936	-0.226891	0.082101
C70	C	-0.639285	-0.227265	0.086743
C71	C	-0.658187	-0.302384	0.092304
H72	H	-0.526339	-0.249977	0.128510
H73	H	-0.531114	-0.254506	0.036302
H74	H	-0.660098	-0.199660	0.132538
H75	H	-0.664903	-0.204194	0.040339
H76	H	-0.637365	-0.329999	0.046505
H77	H	-0.632585	-0.325463	0.138713
H78	H	-0.717454	-0.302648	0.095447
H79	H	-1.122518	0.683068	0.000063
C80	C	-0.391948	-0.226696	0.075886
C81	C	-0.344199	-0.239070	0.145595
C82	C	-0.304989	-0.313991	0.146385
H83	H	-0.356165	-0.234913	0.030777
H84	H	-0.433530	-0.260912	0.074259
H85	H	-0.302623	-0.204865	0.147214
H86	H	-0.379963	-0.230870	0.190716
H87	H	-0.346571	-0.348207	0.144758
H88	H	-0.269210	-0.322201	0.101273
H89	H	-0.272593	-0.322399	0.193685
C90	C	-1.149981	0.299035	0.000028
C91	C	-1.132282	0.374689	-0.000004
C92	C	-1.207791	0.423329	-0.000053
H93	H	-1.181615	0.289915	0.046250
H94	H	-1.181569	0.289839	-0.046221
H95	H	-1.100708	0.383881	0.046240
H96	H	-1.100661	0.383833	-0.046223
H97	H	-1.239378	0.414132	-0.046301
H98	H	-1.239419	0.414201	0.046170
H99	H	-1.195793	0.474664	-0.000082
H100	H	-1.125053	0.539843	0.000068
C101	C	-0.869990	-0.210819	0.377224
C102	C	-0.882222	-0.199831	0.459238
C103	C	-0.825285	-0.251242	0.501124
H104	H	-0.814090	-0.202620	0.363656
H105	H	-0.878984	-0.261353	0.363580
H106	H	-0.873222	-0.149309	0.472876
H107	H	-0.938110	-0.208037	0.472829
H108	H	-0.834278	-0.301775	0.487480
H109	H	-0.769388	-0.243038	0.487549
H110	H	-0.833581	-0.243798	0.556774
C111	C	-0.586479	0.022072	-0.072498
C112	C	-0.521815	0.049537	-0.116231
C113	C	-0.555944	0.089198	-0.183081
H114	H	-0.625519	0.063539	-0.055716
H115	H	-0.614442	-0.011130	-0.104972
H116	H	-0.493865	0.082737	-0.083763
H117	H	-0.482770	0.008086	-0.133033
H118	H	-0.583908	0.055996	-0.215555
H119	H	-0.594984	0.130661	-0.166291
H120	H	-0.512075	0.107831	-0.212766
C121	C	-0.827594	0.494059	0.000080
C122	C	-0.759871	0.537625	0.000101
C123	C	-0.684161	0.489267	0.000151
H124	H	-0.824846	0.462863	-0.046138
H125	H	-0.824917	0.462905	0.046332
H126	H	-0.762547	0.568765	-0.046147
H127	H	-0.762591	0.568819	0.046316
H128	H	-0.681484	0.458114	0.046403
H129	H	-0.681422	0.458074	-0.046069
H130	H	-0.638202	0.518820	0.000172
H131	H	-1.092355	-0.010253	0.214362
C132	C	-0.824834	0.658691	-0.000098
C133	C	-0.819606	0.703497	-0.068296
C134	C	-0.742674	0.734068	-0.068447
H135	H	-0.779936	0.618582	-0.000149
H136	H	-0.821100	0.689160	0.046110
H137	H	-0.823332	0.673030	-0.114492
H138	H	-0.864486	0.743617	-0.068259
H139	H	-0.738940	0.764536	-0.022238
H140	H	-0.697782	0.693955	-0.068496
H141	H	-0.739120	0.764478	-0.114714
C142	C	-0.567782	-0.105530	0.150751
C143	C	-0.502977	-0.078188	0.194405
C144	C	-0.536422	-0.041505	0.263220
H145	H	-0.594071	-0.140487	0.182440
H146	H	-0.608132	-0.064224	0.136125
H147	H	-0.462641	-0.119488	0.209031
H148	H	-0.476682	-0.043221	0.162739
H149	H	-0.576773	-0.000198	0.248595
H150	H	-0.562711	-0.076466	0.294903
H151	H	-0.492460	-0.022942	0.292844
H152	H	-0.416627	-0.113890	-0.132304
C153	C	-0.391853	-0.224716	-0.080360
C154	C	-0.452906	-0.275347	-0.083099
C155	C	-0.413318	-0.350025	-0.087398
H156	H	-0.357316	-0.235264	-0.034729
H157	H	-0.358130	-0.230483	-0.127063
H158	H	-0.486615	-0.269584	-0.036401
H159	H	-0.487447	-0.264824	-0.128728
H160	H	-0.379595	-0.355793	-0.134101
H161	H	-0.378782	-0.360566	-0.041765
H162	H	-0.454736	-0.384387	-0.089264
C163	C	-0.831891	0.261407	0.000081
C164	C	-0.846845	0.340923	0.000104
C165	C	-0.769935	0.371533	0.000148
H166	H	-0.800712	0.244841	-0.046141
H167	H	-0.800758	0.244807	0.046329
H168	H	-0.877964	0.357516	-0.046140
H169	H	-0.878010	0.357511	0.046323
H170	H	-0.738802	0.354933	0.046397
H171	H	-0.738762	0.354961	-0.046075
H172	H	-0.780071	0.425487	0.000172
H173	H	-0.545499	-0.207388	-0.078476
H174	H	-1.092360	-0.010254	0.365754
H175	H	-0.855239	0.109776	0.000044
C176	C	-1.107903	0.003782	0.623172
C177	C	-1.157847	0.048841	0.677574
C178	C	-1.214927	0.100383	0.636005
H179	H	-1.142776	-0.023372	0.590603
H180	H	-1.077866	0.035347	0.590647
H181	H	-1.187883	0.017280	0.710086
H182	H	-1.122998	0.076011	0.710145
H183	H	-1.184890	0.131948	0.603480
H184	H	-1.249794	0.073222	0.603438
H185	H	-1.248816	0.130966	0.672911
C186	C	-0.869879	-0.210950	0.623179
C187	C	-0.819951	-0.256009	0.677586
C188	C	-0.762857	-0.307548	0.636022
H189	H	-0.834997	-0.183793	0.590634
H190	H	-0.899905	-0.242514	0.590630
H191	H	-0.789927	-0.224449	0.710121
H192	H	-0.854810	-0.283182	0.710132
H193	H	-0.792883	-0.339113	0.603473
H194	H	-0.727981	-0.280385	0.603478
H195	H	-0.728979	-0.338132	0.672930
H196	H	-0.559938	-0.117384	-0.131997
C197	C	-0.427948	0.024509	0.072780
C198	C	-0.369478	-0.021926	0.118456
C199	C	-0.346638	0.018587	0.185172
H200	H	-0.476486	0.039738	0.104041
H201	H	-0.403561	0.068258	0.055788
H202	H	-0.393867	-0.065660	0.135449
H203	H	-0.320927	-0.037156	0.087219
H204	H	-0.322251	0.062336	0.168180
H205	H	-0.395181	0.033814	0.216426
H206	H	-0.306959	-0.012910	0.216168
H207	H	-0.414018	-0.118297	0.132434
H208	H	-1.092402	-0.010272	0.785760
