data_functionalizedCrystal
_audit_creation_method	'MofGen! by Chris Wilmer'
_symmetry_space_group_name_H-M	'P1'
_symmetry_Int_Tables_number	1
_symmetry_cell_setting	triclinic
loop_
_symmetry_equiv_pos_as_xyz
  x,y,z
_cell_length_a	14.519709
_cell_length_b	14.421503
_cell_length_c	14.519709
_cell_angle_alpha	89.999403
_cell_angle_beta	83.680145
_cell_angle_gamma	89.987312
loop_
_atom_site_label
_atom_site_type_symbol
_atom_site_fract_x
_atom_site_fract_y
_atom_site_fract_z
O1	O	1.223853	0.076993	0.120884
O2	O	1.723853	0.576993	0.620884
O3	O	0.955376	0.077022	0.135121
O4	O	1.455376	0.577022	0.635121
O5	O	1.096733	0.076998	-0.006236
O6	O	1.596733	0.576998	0.493764
O7	O	1.082496	0.077016	0.262241
O8	O	1.582496	0.577016	0.762241
O9	O	1.096750	-0.077225	-0.006227
O10	O	1.596750	0.422775	0.493773
O11	O	0.955393	-0.077202	0.135130
O12	O	1.455393	0.422798	0.635130
O13	O	1.223870	-0.077230	0.120894
O14	O	1.723870	0.422770	0.620894
Cu15	Cu	1.089633	-0.091298	0.128013
Cu16	Cu	1.589633	0.408702	0.628013
Cu17	Cu	1.089613	0.091089	0.128002
Cu18	Cu	1.589613	0.591089	0.628002
O19	O	1.082513	-0.077207	0.262250
O20	O	1.582513	0.422793	0.762250
C21	C	0.921025	-0.000087	0.134462
C22	C	1.421025	0.499913	0.634462
C23	C	0.818643	-0.000076	0.132474
C24	C	1.318643	0.499924	0.632474
N25	N	1.089654	-0.219579	0.128020
N26	N	1.589654	0.280421	0.628020
C27	C	0.443748	-0.000119	0.125154
C28	C	0.943748	0.499881	0.625154
C29	C	0.548056	-0.000106	0.127187
C30	C	1.048056	0.499894	0.627187
C31	C	0.631192	-0.000096	0.128814
C32	C	1.131192	0.499904	0.628814
C33	C	0.735507	-0.000086	0.130847
C34	C	1.235507	0.499914	0.630847
C35	C	1.155032	-0.469219	0.062642
C36	C	1.655032	0.030781	0.562642
C37	C	1.071670	-0.531008	0.044594
C38	C	1.571670	-0.031008	0.544594
C39	C	1.089634	-0.408741	0.128009
C40	C	1.589634	0.091259	0.628009
C41	C	1.172975	-0.531045	0.146003
C42	C	1.672975	-0.031045	0.646003
C43	C	1.089621	-0.591462	0.127996
C44	C	1.589621	-0.091462	0.627996
C45	C	1.006230	-0.469169	0.109919
C46	C	1.506230	0.030831	0.609919
C47	C	1.107590	-0.469201	0.211364
C48	C	1.607590	0.030799	0.711364
C49	C	1.024168	-0.530962	0.193352
C50	C	1.524168	-0.030962	0.693352
C51	C	1.089642	-0.303480	0.128014
C52	C	1.589642	0.196520	0.628014
C53	C	1.089603	-0.696721	0.127991
C54	C	1.589603	-0.196721	0.627991
C55	C	1.258221	-0.000120	0.121553
C56	C	1.758221	0.499880	0.621553
C57	C	1.360602	-0.000125	0.123541
C58	C	1.860602	0.499875	0.623541
C59	C	1.096078	-0.000114	-0.040591
C60	C	1.596078	0.499886	0.459409
C61	C	1.094090	-0.000114	-0.142972
C62	C	1.594090	0.499886	0.357028
N63	N	1.089599	0.219370	0.127987
N64	N	1.589599	0.719370	0.627987
C65	C	1.086770	-0.000089	-0.517868
C66	C	1.586770	0.499911	-0.017868
C67	C	1.088803	-0.000096	-0.413560
C68	C	1.588803	0.499904	0.086440
C69	C	1.090430	-0.000102	-0.330423
C70	C	1.590430	0.499898	0.169577
C71	C	1.092463	-0.000108	-0.226109
C72	C	1.592463	0.499892	0.273891
C73	C	1.083168	-0.000093	0.296606
C74	C	1.583168	0.499907	0.796606
C75	C	1.085156	-0.000087	0.398987
C76	C	1.585156	0.499913	0.898987
H77	H	1.210278	-0.442108	0.007333
H78	H	1.710278	0.057892	0.507333
H79	H	1.122816	-0.442031	0.281840
H80	H	1.622816	0.057969	0.781840
F81	F	0.914078	-0.433797	0.089912
F82	F	1.414078	0.066203	0.589912
F83	F	0.951798	-0.566176	0.265603
F84	F	1.451798	-0.066176	0.765603
H85	H	1.056470	-0.558158	-0.025903
H86	H	1.556470	-0.058158	0.474097
F87	F	1.265104	-0.566575	0.165902
F88	F	1.765104	-0.066575	0.665902
