data_functionalizedCrystal
_audit_creation_method	'MofGen! by Chris Wilmer'
_symmetry_space_group_name_H-M	'P1'
_symmetry_Int_Tables_number	1
_symmetry_cell_setting	triclinic
loop_
_symmetry_equiv_pos_as_xyz
  x,y,z
_cell_length_a	23.204063
_cell_length_b	23.204065
_cell_length_c	23.204116
_cell_angle_alpha	59.997987
_cell_angle_beta	89.998953
_cell_angle_gamma	60.000253
loop_
_atom_site_label
_atom_site_type_symbol
_atom_site_fract_x
_atom_site_fract_y
_atom_site_fract_z
O1	O	-0.491197	-0.412484	0.017135
O2	O	-0.407392	-0.294473	-0.017070
O3	O	-0.407389	-0.412483	0.100940
O4	O	-0.491200	-0.294474	-0.100875
O5	O	-0.311538	-0.508333	0.100940
O6	O	-0.311541	-0.390323	-0.017071
O7	O	-0.395346	-0.508335	0.017135
Zn8	Zn	-0.338225	-0.464547	0.000032
Zn9	Zn	-0.464513	-0.338260	0.000033
O10	O	-0.395349	-0.390324	-0.100876
C11	C	-0.310652	-0.181456	-0.024838
C12	C	-0.346214	-0.110333	-0.019942
C13	C	-0.241294	-0.215971	-0.025323
C14	C	-0.310655	-0.285810	-0.024846
C15	C	-0.346219	-0.326263	-0.019957
C16	C	-0.241297	-0.320167	-0.025331
C17	C	-0.206293	-0.285815	-0.024838
C18	C	-0.130274	-0.326273	-0.019941
C19	C	-0.345497	-0.215967	-0.025331
C20	C	-0.658540	-0.590043	0.035860
C21	C	-0.734559	-0.549588	0.030967
C22	C	-0.623539	-0.659889	0.036349
C23	C	-0.554183	-0.590040	0.035855
C24	C	-0.518621	-0.549582	0.030958
C25	C	-0.519339	-0.659886	0.036344
C26	C	-0.554182	-0.694402	0.035859
C27	C	-0.518619	-0.765527	0.030967
C28	C	-0.623539	-0.555686	0.036345
C29	C	-0.489889	-0.822989	0.027012
C30	C	-0.795974	-0.516903	0.027013
C31	C	-0.489891	-0.516895	0.027000
C32	C	-0.453845	-0.895077	0.022052
C33	C	-0.873022	-0.475899	0.022054
C34	C	-0.453848	-0.475888	0.022036
C35	C	-0.554187	-0.212776	-0.445775
C36	C	-0.518624	-0.253233	-0.481336
C37	C	-0.623545	-0.142931	-0.480619
C38	C	-0.554188	-0.212775	-0.341416
C39	C	-0.518626	-0.253231	-0.265397
C40	C	-0.623546	-0.142930	-0.376419
C41	C	-0.658547	-0.108416	-0.445777
C42	C	-0.734566	-0.037291	-0.481340
C43	C	-0.519344	-0.247131	-0.376417
C44	C	-0.795982	0.020169	-0.510072
C45	C	-0.489893	-0.285920	-0.510065
C46	C	-0.489896	-0.285917	-0.203980
C47	C	-0.873032	0.092257	-0.546117
C48	C	-0.453848	-0.326925	-0.546108
C49	C	-0.453852	-0.326922	-0.126930
O50	O	0.100922	-0.508345	0.017151
O51	O	-0.100892	-0.390333	-0.017055
O52	O	0.017109	-0.508348	0.100956
O53	O	-0.017080	-0.390330	-0.100860
O54	O	0.017112	-0.412502	0.100963
O55	O	-0.100890	-0.294486	-0.017048
O56	O	0.100924	-0.412499	0.017158
Zn57	Zn	0.000018	-0.338275	0.000056
Zn58	Zn	0.000014	-0.464556	0.000047
O59	O	-0.017077	-0.294483	-0.100853
O60	O	-0.395342	0.083766	0.017156
O61	O	-0.311534	-0.083842	-0.017048
O62	O	-0.311538	-0.083852	0.100962
O63	O	-0.395338	0.083777	-0.100854
O64	O	-0.407391	-0.083849	0.100954
O65	O	-0.407387	-0.083839	-0.017056
O66	O	-0.491195	0.083770	0.017149
Zn67	Zn	-0.464510	-0.000034	0.000045
Zn68	Zn	-0.338219	-0.000039	0.000055
O69	O	-0.491191	0.083780	-0.100861
O70	O	-1.100901	0.281028	-0.592582
O71	O	-0.899087	0.113413	-0.508770
O72	O	-1.017091	0.113409	-0.508767
O73	O	-0.982897	0.281032	-0.592584
O74	O	-1.017088	0.113407	-0.604617
O75	O	-0.899085	0.113411	-0.604619
O76	O	-1.100898	0.281026	-0.688432
Zn77	Zn	-0.999991	0.197218	-0.661744
Zn78	Zn	-0.999994	0.197221	-0.535458
O79	O	-0.982895	0.281030	-0.688434
O80	O	-0.407389	-0.412483	-0.688416
O81	O	-0.491197	-0.294477	-0.604610
O82	O	-0.491195	-0.412486	-0.604605
O83	O	-0.407390	-0.294474	-0.688421
O84	O	-0.395343	-0.508338	-0.508754
O85	O	-0.395345	-0.390329	-0.508759
O86	O	-0.311537	-0.508334	-0.592565
Zn87	Zn	-0.338222	-0.464550	-0.535443
Zn88	Zn	-0.464511	-0.338262	-0.661732
O89	O	-0.311539	-0.390326	-0.592570
C90	C	-0.206294	-0.621360	0.310702
C91	C	-0.130275	-0.692485	0.346265
C92	C	-0.241296	-0.586846	0.345545
C93	C	-0.310654	-0.517001	0.206342
C94	C	-0.346216	-0.476544	0.130323
C95	C	-0.345497	-0.482645	0.241343
C96	C	-0.310653	-0.517001	0.310701
C97	C	-0.346216	-0.476544	0.346263
C98	C	-0.241296	-0.586846	0.241345
C99	C	0.024887	-0.517030	0.310724
C100	C	0.019993	-0.476577	0.346290
C101	C	0.025371	-0.586874	0.345565
C102	C	0.024889	-0.517022	0.206362
C103	C	0.019998	-0.476562	0.130342
C104	C	0.025374	-0.586867	0.241361
C105	C	0.024884	-0.621384	0.310718
C106	C	0.019987	-0.692509	0.346278
C107	C	0.025377	-0.482671	0.241366
C108	C	-0.310656	-0.285855	0.310709
C109	C	-0.346220	-0.326314	0.346266
C110	C	-0.241298	-0.320218	0.345555
C111	C	-0.310655	-0.181484	0.206357
C112	C	-0.346217	-0.110348	0.130340
C113	C	-0.241296	-0.216005	0.241362
C114	C	-0.206295	-0.285860	0.310717
C115	C	-0.130275	-0.326323	0.346282
C116	C	-0.345499	-0.216001	0.241354
C117	C	-0.035774	-0.108410	-0.445754
C118	C	-0.030877	-0.037285	-0.481314
C119	C	-0.036262	-0.142920	-0.480600
C120	C	-0.035780	-0.212771	-0.341397
C121	C	-0.030889	-0.253231	-0.265377
C122	C	-0.036268	-0.247124	-0.376401
C123	C	-0.035777	-0.212765	-0.445759
C124	C	-0.030883	-0.253218	-0.481324
C125	C	-0.036265	-0.142927	-0.376396
C126	C	-0.026928	-0.285901	-0.510056
C127	C	-0.026920	0.020175	-0.510042
C128	C	-0.026936	-0.285920	-0.203961
C129	C	-0.021967	-0.326903	-0.546103
C130	C	-0.021955	0.092262	-0.546083
C131	C	-0.021978	-0.326928	-0.126911
O132	O	-0.017120	-0.390358	0.491266
O133	O	0.017098	-0.508368	0.407461
O134	O	-0.100916	-0.390357	0.407446
O135	O	0.100893	-0.508369	0.491281
O136	O	-0.100904	-0.294507	0.311599
O137	O	0.017110	-0.412518	0.311614
O138	O	-0.017109	-0.294509	0.395420
Zn139	Zn	0.000002	-0.338295	0.338299
Zn140	Zn	-0.000013	-0.464581	0.464581
O141	O	0.100905	-0.412519	0.395435
C142	C	-0.658539	0.410016	-0.445751
C143	C	-0.734559	0.450479	-0.481316
C144	C	-0.623536	0.444375	-0.480590
C145	C	-0.554179	0.305641	-0.341392
C146	C	-0.518616	0.234505	-0.265374
C147	C	-0.519335	0.340158	-0.376388
C148	C	-0.554178	0.410013	-0.445743
C149	C	-0.518614	0.450471	-0.481300
C150	C	-0.623537	0.340162	-0.376396
C151	C	-0.489883	0.483159	-0.510025
C152	C	-0.795975	0.483170	-0.510049
C153	C	-0.489886	0.177036	-0.203959
C154	C	-0.453838	0.524167	-0.546063
C155	C	-0.873025	0.524182	-0.546095
C156	C	-0.453842	0.104937	-0.126912
H157	H	-0.213196	-0.187082	-0.026109
C158	C	-0.422485	-0.176936	-0.026402
C159	C	-0.480539	-0.145886	-0.087901
C160	C	-0.557525	-0.106854	-0.088975
C161	C	-0.576458	-0.098874	-0.028552
C162	C	-0.518403	-0.129925	0.032951
C163	C	-0.441417	-0.168956	0.034026
H164	H	-0.466525	-0.151793	-0.132634
H165	H	-0.600501	-0.083868	-0.134504
H166	H	-0.633447	-0.069980	-0.029348
H167	H	-0.532416	-0.124018	0.077684
H168	H	-0.398441	-0.191943	0.079555
H169	H	-0.462354	-0.688766	0.037124
C170	C	-0.203331	-0.625876	0.422532
C171	C	-0.192396	-0.576394	0.441463
C172	C	-0.154432	-0.615426	0.518447
C173	C	-0.127401	-0.703940	0.576501
C174	C	-0.138335	-0.753428	0.557572
C175	C	-0.176300	-0.714396	0.480588
H176	H	-0.212406	-0.510866	0.398486
H177	H	-0.146338	-0.578791	0.532459
H178	H	-0.099298	-0.732834	0.633489
H179	H	-0.118325	-0.818956	0.600548
H180	H	-0.184393	-0.751030	0.466575
C181	C	-0.661501	-0.479760	0.037404
C182	C	-0.672432	-0.400415	-0.023019
C183	C	-0.710393	-0.324492	-0.021960
C184	C	-0.737422	-0.327916	0.039521
C185	C	-0.726492	-0.407265	0.099948
C186	C	-0.688532	-0.483187	0.098889
H187	H	-0.652423	-0.397878	-0.068535
H188	H	-0.718484	-0.265753	-0.066693
H189	H	-0.765523	-0.271714	0.040305
H190	H	-0.746502	-0.409802	0.145464
H191	H	-0.680441	-0.541926	0.143622
C192	C	-0.037312	-0.103899	-0.557583
C193	C	0.023114	-0.153395	-0.576497
C194	C	0.022067	-0.114377	-0.653476
C195	C	-0.039405	-0.025862	-0.711540
C196	C	-0.099835	0.023640	-0.692628
C197	C	-0.098789	-0.015379	-0.615649
H198	H	0.068623	-0.218924	-0.533513
H199	H	0.066802	-0.151022	-0.667476
H200	H	-0.040180	0.003022	-0.768524
H201	H	-0.145345	0.089168	-0.735612
H202	H	-0.143524	0.021266	-0.601649
H203	H	-0.651642	-0.688773	0.037135
C204	C	-0.661516	-0.103910	-0.338458
C205	C	-0.623034	-0.141877	-0.261999
C206	C	-0.661006	-0.102860	-0.224040
C207	C	-0.737459	-0.025876	-0.262539
C208	C	-0.775945	0.012095	-0.339002
C209	C	-0.737973	-0.026922	-0.376962
H210	H	-0.566435	-0.198869	-0.233496
H211	H	-0.632516	-0.130969	-0.167437
H212	H	-0.765569	0.003006	-0.234439
H213	H	-0.832544	0.069087	-0.367505
H214	H	-0.766463	0.001187	-0.433565
H215	H	0.026144	-0.615754	0.402549
H216	H	-0.651638	-0.114039	-0.537611
C217	C	-0.442345	-0.323027	-0.338464
C218	C	-0.403841	-0.360978	-0.376958
C219	C	-0.326838	-0.436856	-0.339012
C220	C	-0.288340	-0.474784	-0.262572
C221	C	-0.326845	-0.436833	-0.224074
C222	C	-0.403847	-0.360955	-0.262020
H223	H	-0.432339	-0.332901	-0.433547
H224	H	-0.298335	-0.464949	-0.367512
H225	H	-0.231339	-0.530954	-0.234483
H226	H	-0.298346	-0.464910	-0.167485
H227	H	-0.432350	-0.332862	-0.233521
C228	C	-0.661483	0.520317	-0.557569
C229	C	-0.672386	0.599637	-0.576454
C230	C	-0.710324	0.675579	-0.653429
C231	C	-0.737359	0.672201	-0.711518
C232	C	-0.726456	0.592878	-0.692635
C233	C	-0.688519	0.516936	-0.615660
H234	H	-0.652373	0.602140	-0.533452
H235	H	-0.718394	0.734299	-0.667408
H236	H	-0.765443	0.728418	-0.768500
H237	H	-0.746470	0.590375	-0.735637
H238	H	-0.680448	0.458216	-0.601681
C239	C	-0.422482	-0.406721	0.203388
C240	C	-0.480544	-0.410141	0.176362
C241	C	-0.557526	-0.334220	0.138411
C242	C	-0.576447	-0.254879	0.127486
C243	C	-0.518384	-0.251456	0.154512
C244	C	-0.441402	-0.327377	0.192463
H245	H	-0.466539	-0.468876	0.184449
H246	H	-0.600508	-0.336754	0.118404
H247	H	-0.633434	-0.198678	0.099393
H248	H	-0.532389	-0.192721	0.146426
H249	H	-0.398420	-0.324843	0.212470
C250	C	-0.203339	-0.625856	0.203372
C251	C	-0.134940	-0.633821	0.192420
C252	C	-0.096987	-0.672823	0.154444
C253	C	-0.127434	-0.703860	0.127421
C254	C	-0.195837	-0.695896	0.138373
C255	C	-0.233789	-0.656894	0.176349
H256	H	-0.112398	-0.610845	0.212424
H257	H	-0.046351	-0.678718	0.146337
H258	H	-0.099339	-0.732732	0.099309
H259	H	-0.218378	-0.718872	0.118369
H260	H	-0.284426	-0.650998	0.184456
H261	H	-0.402486	-0.187114	0.213252
C262	C	0.026432	-0.625890	0.203401
C263	C	0.087916	-0.714399	0.233850
C264	C	0.088972	-0.753423	0.195895
C265	C	0.028543	-0.703938	0.127490
C266	C	-0.032945	-0.615424	0.097036
C267	C	-0.034001	-0.576400	0.134992
H268	H	0.132652	-0.751035	0.284491
H269	H	0.134490	-0.818947	0.218439
H270	H	0.029325	-0.732826	0.099393
H271	H	-0.077682	-0.578788	0.046395
H272	H	-0.079519	-0.510876	0.112448
C273	C	-0.037336	-0.323045	-0.338443
C274	C	-0.098828	-0.319605	-0.368896
C275	C	-0.099898	-0.395521	-0.330940
C276	C	-0.039476	-0.474877	-0.262532
C277	C	0.022021	-0.478320	-0.232075
C278	C	0.023091	-0.402403	-0.270031
H279	H	-0.143559	-0.260859	-0.419539
H280	H	-0.145422	-0.392973	-0.353486
H281	H	-0.040268	-0.531075	-0.234435
H282	H	0.066753	-0.537066	-0.181432
H283	H	0.068615	-0.404952	-0.247485
C284	C	0.026409	-0.406725	0.203378
C285	C	-0.034042	-0.327379	0.192421
C286	C	-0.033025	-0.251426	0.154420
C287	C	0.028442	-0.254820	0.127375
C288	C	0.088897	-0.334169	0.138330
C289	C	0.087880	-0.410122	0.176332
H290	H	-0.079547	-0.324864	0.212442
H291	H	-0.077778	-0.192686	0.146310
H292	H	0.029194	-0.198595	0.099244
H293	H	0.134403	-0.336684	0.118309
H294	H	0.132634	-0.468861	0.184442
H295	H	-0.213195	-0.187119	0.213260
C296	C	-0.203330	-0.396150	0.422540
C297	C	-0.134915	-0.475489	0.441457
C298	C	-0.096946	-0.551416	0.518439
C299	C	-0.127393	-0.548005	0.576503
C300	C	-0.195812	-0.468663	0.557587
C301	C	-0.233780	-0.392736	0.480606
H302	H	-0.112373	-0.478017	0.398473
H303	H	-0.046298	-0.610150	0.532441
H304	H	-0.099286	-0.604211	0.633489
H305	H	-0.218353	-0.466135	0.600571
H306	H	-0.284429	-0.334002	0.466603
C307	C	-0.037324	-0.103912	-0.338427
C308	C	-0.037843	-0.026935	-0.376909
C309	C	-0.038902	0.012077	-0.338940
C310	C	-0.039443	-0.025889	-0.262489
C311	C	-0.038925	-0.102870	-0.224003
C312	C	-0.037865	-0.141882	-0.261972
H313	H	-0.037443	0.001174	-0.433506
H314	H	-0.039286	0.069064	-0.367430
H315	H	-0.040227	0.002990	-0.234382
H316	H	-0.039325	-0.130979	-0.167406
H317	H	-0.037482	-0.198868	-0.233482
H318	H	-0.651648	0.311288	-0.348296
C319	C	-0.203306	-0.396111	-0.026362
C320	C	-0.176255	-0.392715	-0.087827
C321	C	-0.138251	-0.468666	-0.088843
C322	C	-0.127298	-0.548014	-0.028394
C323	C	-0.154349	-0.551413	0.033075
C324	C	-0.192353	-0.475462	0.034091
H325	H	-0.184363	-0.333974	-0.132579
H326	H	-0.118226	-0.466149	-0.134347
H327	H	-0.099166	-0.604237	-0.029146
H328	H	-0.146242	-0.610154	0.077828
H329	H	-0.212378	-0.477979	0.079596
C330	C	-0.442347	0.301128	-0.338428
C331	C	-0.403852	0.224137	-0.261976
C332	C	-0.326867	0.185109	-0.224021
C333	C	-0.288376	0.223072	-0.262517
C334	C	-0.326871	0.300067	-0.338973
C335	C	-0.403856	0.339095	-0.376929
H336	H	-0.432345	0.196031	-0.233475
H337	H	-0.298371	0.128112	-0.167423
H338	H	-0.231387	0.194181	-0.234420
H339	H	-0.298378	0.328173	-0.367474
H340	H	-0.432353	0.396092	-0.433527
