data_functionalizedCrystal
_audit_creation_method	'MofGen! by Chris Wilmer'
_symmetry_space_group_name_H-M	'P1'
_symmetry_Int_Tables_number	1
_symmetry_cell_setting	triclinic
loop_
_symmetry_equiv_pos_as_xyz
  x,y,z
_cell_length_a	16.109302
_cell_length_b	8.597304
_cell_length_c	15.186229
_cell_angle_alpha	82.296375
_cell_angle_beta	89.994701
_cell_angle_gamma	84.402578
loop_
_atom_site_label
_atom_site_type_symbol
_atom_site_fract_x
_atom_site_fract_y
_atom_site_fract_z
O1	O	1.104799	0.201736	-0.088570
O2	O	1.604799	0.701736	0.411430
O3	O	0.862945	0.226840	-0.090468
O4	O	1.362945	0.726840	0.409532
O5	O	0.988632	-0.014182	-0.072183
O6	O	1.488632	0.485818	0.427817
O7	O	0.979113	0.442757	-0.106854
O8	O	1.479113	0.942757	0.393146
O9	O	0.988623	-0.014185	0.074274
O10	O	1.488623	0.485815	0.574274
O11	O	0.862937	0.226836	0.055990
O12	O	1.362937	0.726836	0.555990
O13	O	1.104791	0.201732	0.057887
O14	O	1.604791	0.701732	0.557887
Zn15	Zn	0.983862	0.214284	0.080192
Zn16	Zn	1.483862	0.714284	0.580192
Zn17	Zn	0.983874	0.214288	-0.112772
Zn18	Zn	1.483874	0.714288	0.387228
O19	O	0.979104	0.442754	0.039603
O20	O	1.479104	0.942754	0.539603
C21	C	0.831958	0.225821	-0.017161
C22	C	1.331958	0.725821	0.482839
C23	C	0.739637	0.222771	-0.016927
C24	C	1.239637	0.722771	0.483073
C25	C	0.527233	0.215719	0.063434
C26	C	1.027233	0.715719	0.563434
C27	C	0.440489	0.212837	0.063649
C28	C	0.940489	0.712837	0.563649
C29	C	0.440509	0.212849	-0.096027
C30	C	0.940509	0.712849	0.403973
C31	C	0.527252	0.215719	-0.096241
C32	C	1.027252	0.715719	0.403759
C33	C	0.570611	0.217162	-0.016509
C34	C	1.070611	0.717162	0.483491
C35	C	0.397124	0.211410	-0.016079
C36	C	0.897124	0.711410	0.483921
C37	C	0.303073	0.208285	-0.015846
C38	C	0.803073	0.708285	0.484154
C39	C	0.664669	0.220284	-0.016741
C40	C	1.164669	0.720284	0.483259
C41	C	0.987605	-0.072654	0.005480
C42	C	1.487605	0.427346	0.505480
C43	C	0.984548	-0.246880	0.018695
C44	C	1.484548	0.253120	0.518695
C45	C	1.135778	0.202751	-0.015422
C46	C	1.635778	0.702751	0.484578
C47	C	1.228099	0.205800	-0.015661
C48	C	1.728099	0.705800	0.484339
C49	C	0.980131	0.501226	-0.038062
C50	C	1.480131	1.001226	0.461938
C51	C	0.983188	0.675451	-0.051283
C52	C	1.483188	1.175451	0.448717
N53	N	0.983861	0.214280	0.211885
N54	N	1.483861	0.714280	0.711885
N55	N	0.983882	0.214280	-0.244464
N56	N	1.483882	0.714280	0.255536
C57	C	1.039534	0.107591	0.445701
C58	C	1.539534	0.607591	0.945701
C59	C	1.039537	0.107588	0.537891
C60	C	1.539537	0.607588	1.037891
C61	C	0.928202	0.320973	0.521713
C62	C	1.428202	0.820973	1.021713
C63	C	0.928196	0.320968	0.429525
C64	C	1.428196	0.820968	0.929525
C65	C	0.983867	0.214279	0.391522
C66	C	1.483867	0.714279	0.891522
C67	C	0.983875	0.214280	0.575899
C68	C	1.483875	0.714280	1.075899
C69	C	0.983878	0.214277	0.675855
C70	C	1.483878	0.714277	1.175855
C71	C	0.983864	0.214280	0.291559
C72	C	1.483864	0.714280	0.791559
H73	H	0.562534	0.216894	0.128357
H74	H	1.062534	0.716894	0.628357
H75	H	0.882861	0.407847	0.385408
H76	H	1.382861	0.907847	0.885408
H77	H	1.084863	0.020717	0.414762
H78	H	1.584863	0.520717	0.914762
H79	H	0.983365	-0.313677	0.088724
H80	H	1.483365	0.186323	0.588724
H81	H	0.405174	0.211662	0.128746
H82	H	0.905174	0.711662	0.628746
H83	H	0.984358	-0.257756	-0.121308
H84	H	1.484358	0.242244	0.378692
H85	H	1.084865	0.020711	0.582003
H86	H	1.584865	0.520711	1.082003
H87	H	0.405195	0.211675	-0.160943
H88	H	0.905195	0.711675	0.339057
H89	H	0.562572	0.216891	-0.161344
H90	H	1.062572	0.716891	0.338656
H91	H	0.882877	0.407839	0.552664
H92	H	1.382877	0.907839	1.052664
