data_functionalizedCrystal
_audit_creation_method	'MofGen! by Chris Wilmer'
_symmetry_space_group_name_H-M	'P1'
_symmetry_Int_Tables_number	1
_symmetry_cell_setting	triclinic
loop_
_symmetry_equiv_pos_as_xyz
  x,y,z
_cell_length_a	6.817900
_cell_length_b	27.923327
_cell_length_c	27.923559
_cell_angle_alpha	97.578015
_cell_angle_beta	98.965071
_cell_angle_gamma	98.960721
loop_
_atom_site_label
_atom_site_type_symbol
_atom_site_fract_x
_atom_site_fract_y
_atom_site_fract_z
V1	V	-3.954299	-0.067816	-0.151575
O2	O	-3.966069	0.002549	-0.148377
O3	O	-3.884309	-0.133785	-0.150840
O4	O	-3.884333	-0.067085	-0.217545
O5	O	-3.966045	-0.064614	-0.081210
V6	V	-4.443519	-0.059363	-0.143123
O7	O	-4.203061	-0.086359	-0.170117
O8	O	-4.644955	-0.040820	-0.124580
O9	O	-4.290302	0.006606	-0.143858
O10	O	-4.549146	-0.129728	-0.146321
O11	O	-4.549170	-0.062566	-0.213488
O12	O	-4.290278	-0.060095	-0.077153
C13	C	-3.724755	-0.149857	-0.148526
C14	C	-3.748673	-0.203790	-0.148364
C15	C	-3.739353	-0.586463	-0.144854
C16	C	-3.649263	-0.383755	-0.145423
O17	O	-3.484129	-0.355439	-0.143447
N18	N	-3.818490	-0.360887	-0.147926
C19	C	-4.010256	-0.388701	-0.150291
O20	O	-4.152130	-0.364600	-0.152438
C21	C	-4.100345	-0.591408	-0.149726
C22	C	-3.931103	-0.614272	-0.147217
C23	C	-3.570126	-0.609327	-0.142346
C24	C	-3.592647	-0.660001	-0.142201
C25	C	-3.784396	-0.687810	-0.144564
C26	C	-3.953624	-0.664946	-0.147072
C27	C	-4.292110	-0.619221	-0.152094
C28	C	-4.314618	-0.669901	-0.151953
C29	C	-4.145376	-0.692765	-0.149445
C30	C	-4.167895	-0.743429	-0.149290
N31	N	-3.998668	-0.766296	-0.146787
C32	C	-3.806919	-0.738487	-0.144424
C33	C	-3.962945	-0.282276	-0.150587
C34	C	-3.940422	-0.231599	-0.150727
C35	C	-3.579431	-0.226657	-0.145860
C36	C	-3.601954	-0.277334	-0.145716
C37	C	-3.793717	-0.305144	-0.148083
C38	C	-3.854229	-0.844905	-0.144119
C39	C	-3.876767	-0.895583	-0.143973
C40	C	-4.237757	-0.900521	-0.148842
C41	C	-4.215220	-0.849847	-0.148986
C42	C	-4.023442	-0.822040	-0.146626
O43	O	-4.332966	-0.771775	-0.151270
O44	O	-3.665078	-0.762598	-0.142287
C45	C	-3.716832	-0.535789	-0.144999
C46	C	-3.886059	-0.512925	-0.147507
C47	C	-4.077809	-0.540734	-0.149870
C48	C	-3.863537	-0.462248	-0.147647
C49	C	-3.671788	-0.434439	-0.145284
C50	C	-3.502561	-0.457307	-0.142781
C51	C	-3.525082	-0.507980	-0.142636
C52	C	-4.247036	-0.517867	-0.152373
C53	C	-4.224499	-0.467193	-0.152517
C54	C	-4.032750	-0.439384	-0.150154
C55	C	-3.724785	-0.064773	-0.233615
C56	C	-3.748721	-0.064612	-0.287548
C57	C	-3.920562	-0.108129	-0.629131
C58	C	-4.010622	-0.107551	-0.831837
O59	O	-4.042070	-0.145289	-0.864113
N60	N	-3.998689	-0.063016	-0.850051
C61	C	-3.964252	-0.018623	-0.817586
O62	O	-3.956189	0.019270	-0.837730
C63	C	-3.874207	-0.019202	-0.614881
C64	C	-3.886122	-0.063740	-0.596669
C65	C	-3.932477	-0.152663	-0.610918
C66	C	-3.909953	-0.152807	-0.560245
C67	C	-3.875513	-0.108417	-0.527783
C68	C	-3.863597	-0.063884	-0.545996
C69	C	-3.839784	0.025190	-0.582417
C70	C	-3.817279	0.025041	-0.531738
C71	C	-3.829194	-0.019496	-0.513526
C72	C	-3.806633	-0.019638	-0.462861
N73	N	-3.818565	-0.064173	-0.444646
C74	C	-3.853005	-0.108562	-0.477107
C75	C	-4.011524	-0.018322	-0.924009
C76	C	-4.034032	-0.018177	-0.974685
C77	C	-4.080404	-0.107105	-0.988933
C78	C	-4.057882	-0.107249	-0.938256
C79	C	-4.023457	-0.062857	-0.905795
C80	C	-3.805698	-0.108862	-0.370688
C81	C	-3.783161	-0.109002	-0.320009
C82	C	-3.736802	-0.020074	-0.305767
C83	C	-3.759326	-0.019933	-0.356441
C84	C	-3.793783	-0.064331	-0.388901
O85	O	-3.775203	0.018080	-0.430556
O86	O	-3.861105	-0.146450	-0.456954
C87	C	-3.943087	-0.107985	-0.679805
C88	C	-3.931171	-0.063451	-0.698017
C89	C	-3.896731	-0.019062	-0.665555
C90	C	-3.953679	-0.063306	-0.748693
C91	C	-3.988119	-0.107696	-0.781154
C92	C	-4.000052	-0.152231	-0.762940
C93	C	-3.977527	-0.152375	-0.712266
C94	C	-3.884799	0.025473	-0.683770
C95	C	-3.907323	0.025614	-0.734444
C96	C	-3.941763	-0.018776	-0.766906
C97	C	-4.113198	0.022676	-0.146171
C98	C	-4.068517	0.076608	-0.146336
C99	C	-4.113168	-0.062407	-0.061080
C100	C	-4.068472	-0.062566	-0.007147
H101	H	-3.738941	-0.914196	-0.141930
H102	H	-4.429932	-0.600615	-0.154138
H103	H	-3.698069	-0.822271	-0.142199
H104	H	-4.024300	0.018090	-0.989508
Br105	Br	-3.690050	0.040167	-0.261703
Br106	Br	-3.891126	0.086063	-0.759153
Br107	Br	-3.964718	0.041933	-0.879961
H108	H	-3.987232	-0.188642	-0.697443
Br109	Br	-4.046793	-0.212474	-0.807004
H110	H	-4.362329	-0.448581	-0.154556
H111	H	-3.387265	-0.526591	-0.140594
Br112	Br	-3.837984	0.085724	-0.639721
H113	H	-3.789253	0.061192	-0.505310
H114	H	-3.454828	-0.678612	-0.140157
Br115	Br	-3.309865	-0.571595	-0.139139
Br116	Br	-3.372258	-0.308359	-0.142312
Br117	Br	-4.507289	-0.555600	-0.155580
Br118	Br	-3.319198	-0.188907	-0.142655
H119	H	-4.078236	-0.212987	-0.152762
H120	H	-3.830063	0.061458	-0.597235
Br121	Br	-4.223216	-0.320010	-0.153798
H122	H	-4.393878	-0.923172	-0.150765
Br123	Br	-4.574884	-0.707640	-0.155169
Br124	Br	-4.074054	-0.167695	-0.913545
H125	H	-4.353026	-0.831229	-0.151018
H126	H	-3.792861	-0.145271	-0.305185
Br127	Br	-3.242325	-0.419555	-0.139570
H128	H	-4.108443	-0.143249	-1.015372
Br129	Br	-3.743126	0.040511	-0.381158
Br130	Br	-3.852458	-0.169116	-0.414734
H131	H	-3.919669	-0.189074	-0.545422
H132	H	-3.960526	-0.188813	-0.637344
