data_functionalizedCrystal
_audit_creation_method	'MofGen! by Chris Wilmer'
_symmetry_space_group_name_H-M	'P1'
_symmetry_Int_Tables_number	1
_symmetry_cell_setting	triclinic
loop_
_symmetry_equiv_pos_as_xyz
  x,y,z
_cell_length_a	25.639242
_cell_length_b	18.215405
_cell_length_c	18.215399
_cell_angle_alpha	90.030551
_cell_angle_beta	89.971544
_cell_angle_gamma	89.979588
loop_
_atom_site_label
_atom_site_type_symbol
_atom_site_fract_x
_atom_site_fract_y
_atom_site_fract_z
Zn1	Zn	0.799308	0.293080	-0.416272
Zn2	Zn	1.299308	0.793080	0.083728
Zn3	Zn	0.799243	0.416151	-0.293200
Zn4	Zn	1.299243	0.916151	0.206800
Zn5	Zn	0.711874	0.293093	-0.293201
Zn6	Zn	1.211874	0.793093	0.206799
Zn7	Zn	0.711850	0.416099	-0.416206
Zn8	Zn	1.211850	0.916099	0.083794
O9	O	0.755569	0.354606	-0.354720
O10	O	1.255569	0.854606	0.145280
O11	O	0.872464	0.309421	-0.399973
O12	O	1.372464	0.809421	0.100027
O13	O	0.787636	0.399854	-0.190216
O14	O	1.287636	0.899854	0.309784
O15	O	0.723510	0.190107	-0.309554
O16	O	1.223510	0.690107	0.190446
O17	O	0.872416	0.399841	-0.309553
O18	O	1.372416	0.899841	0.190447
O19	O	0.787747	0.190097	-0.399974
O20	O	1.287747	0.690097	0.100026
O21	O	0.723447	0.309444	-0.190216
O22	O	1.223447	0.809444	0.309784
O23	O	0.638706	0.309394	-0.309491
O24	O	1.138706	0.809394	0.190509
O25	O	0.723469	0.399753	-0.519199
O26	O	1.223469	0.899753	-0.019199
O27	O	0.638688	0.399766	-0.399862
O28	O	1.138688	0.899766	0.100138
O29	O	0.787723	0.309371	-0.519247
O30	O	1.287723	0.809371	-0.019247
O31	O	0.787612	0.519128	-0.309489
O32	O	1.287612	1.019128	0.190511
O33	O	0.723406	0.519090	-0.399862
O34	O	1.223406	1.019090	0.100138
C35	C	0.619726	0.354577	-0.354670
C36	C	1.119726	0.854577	0.145330
C37	C	0.561612	0.354582	-0.354666
C38	C	1.061612	0.854582	0.145334
C39	C	0.755601	0.354555	-0.546673
C40	C	1.255601	0.854555	-0.046673
C41	C	0.755614	0.354533	-0.628472
C42	C	1.255614	0.854533	-0.128472
C43	C	0.755514	0.545812	-0.354684
C44	C	1.255514	1.045812	0.145316
C45	C	0.755538	0.627611	-0.354694
C46	C	1.255538	1.127611	0.145306
C47	C	0.201249	0.401741	-0.401732
C48	C	0.701249	0.901741	0.098268
C49	C	0.146644	0.401746	-0.401743
C50	C	0.646644	0.901746	0.098257
O51	O	0.118407	0.441806	-0.441718
O52	O	0.618407	0.941806	0.058282
N53	N	0.119330	0.354626	-0.354768
N54	N	0.619330	0.854626	0.145232
C55	C	0.146622	0.307493	-0.307783
C56	C	0.646622	0.807493	0.192217
O57	O	0.118375	0.267414	-0.267828
O58	O	0.618375	0.767414	0.232172
C59	C	0.201225	0.307486	-0.307775
C60	C	0.701225	0.807486	0.192225
C61	C	0.228537	0.354614	-0.354749
C62	C	0.728537	0.854614	0.145251
C63	C	0.228561	0.448865	-0.448702
C64	C	0.728561	0.948865	0.051298
C65	C	0.283161	0.448861	-0.448689
C66	C	0.783161	0.948861	0.051311
C67	C	0.310450	0.401734	-0.401706
C68	C	0.810450	0.901734	0.098294
C69	C	0.283138	0.354610	-0.354736
C70	C	0.783138	0.854610	0.145264
C71	C	0.228517	0.260350	-0.260795
C72	C	0.728517	0.760350	0.239205
C73	C	0.283124	0.260346	-0.260792
C74	C	0.783124	0.760346	0.239208
C75	C	0.310436	0.307474	-0.307765
C76	C	0.810436	0.807474	0.192235
C77	C	0.365027	0.307479	-0.307740
C78	C	0.865027	0.807479	0.192260
N79	N	0.392342	0.354599	-0.354716
N80	N	0.892342	0.854599	0.145284
C81	C	0.365053	0.401726	-0.401699
C82	C	0.865053	0.901726	0.098301
C83	C	0.031951	0.307512	-0.307803
C84	C	0.531951	0.807512	0.192197
C85	C	-0.022651	0.307523	-0.307806
C86	C	0.477349	0.807523	0.192194
C87	C	-0.022625	0.401774	-0.401767
C88	C	0.477375	0.901774	0.098233
C89	C	0.031979	0.401767	-0.401760
C90	C	0.531979	0.901767	0.098240
C91	C	0.059266	0.354632	-0.354778
C92	C	0.559266	0.854632	0.145222
C93	C	0.479718	0.401715	-0.401668
C94	C	0.979718	0.901715	0.098332
C95	C	0.534324	0.401709	-0.401649
C96	C	1.034324	0.901709	0.098351
C97	C	0.534293	0.307456	-0.307690
C98	C	1.034293	0.807456	0.192310
C99	C	0.479692	0.307464	-0.307706
C100	C	0.979692	0.807464	0.192294
C101	C	0.452406	0.354596	-0.354701
C102	C	0.952406	0.854596	0.145299
O103	O	0.393299	0.267437	-0.267788
O104	O	0.893299	0.767437	0.232212
O105	O	0.393307	0.441792	-0.441654
O106	O	0.893307	0.941792	0.058346
C107	C	0.891942	0.354635	-0.354770
C108	C	1.391942	0.854635	0.145230
C109	C	0.950056	0.354648	-0.354792
C110	C	1.450056	0.854648	0.145208
C111	C	0.755638	0.162653	-0.354771
C112	C	1.255638	0.662653	0.145229
C113	C	0.755668	0.080854	-0.354793
C114	C	1.255668	0.580854	0.145207
C115	C	0.789049	0.815800	-0.307724
C116	C	1.289049	1.315800	0.192276
C117	C	0.789072	0.892659	-0.307741
C118	C	1.289072	1.392659	0.192259
C119	C	0.722156	0.892659	-0.401769
C120	C	1.222156	1.392659	0.098231
C121	C	0.722135	0.815802	-0.401754
C122	C	1.222135	1.315802	0.098246
C123	C	0.755581	0.777374	-0.354727
C124	C	1.255581	1.277374	0.145273
C125	C	0.755625	0.931090	-0.354760
C126	C	1.255625	1.431090	0.145240
C127	C	0.755650	1.014424	-0.354779
C128	C	1.255650	1.514424	0.145221
C129	C	0.755557	0.694035	-0.354708
C130	C	1.255557	1.194035	0.145292
C131	C	0.789084	0.307427	-0.816692
C132	C	1.289084	0.807427	-0.316692
C133	C	0.789090	0.307406	-0.893551
C134	C	1.289090	0.807406	-0.393551
C135	C	0.722182	0.401525	-0.893489
C136	C	1.222182	0.901525	-0.393489
C137	C	0.722173	0.401543	-0.816632
C138	C	1.222173	0.901543	-0.316632
C139	C	0.755627	0.354495	-0.778235
C140	C	1.255627	0.854495	-0.278235
C141	C	0.755642	0.354456	-0.931951
C142	C	1.255642	0.854456	-0.431951
C143	C	0.755648	0.354433	-1.015285
C144	C	1.255648	0.854433	-0.515285
C145	C	0.755620	0.354516	-0.694896
C146	C	1.255620	0.854516	-0.194896
C147	C	0.755567	0.354603	-0.163513
C148	C	1.255567	0.854603	0.336487
C149	C	0.755655	0.354417	-0.081715
C150	C	1.255655	0.854417	0.418285
H151	H	0.457508	0.440093	-0.439937
H152	H	0.957508	0.940093	0.060063
O153	O	0.199068	0.209517	-0.210130
O154	O	0.699068	0.709517	0.289870
H155	H	0.174211	0.172122	-0.243142
H156	H	0.674211	0.672122	0.256858
H157	H	0.206348	0.487242	-0.486965
H158	H	0.706348	0.987242	0.013035
O159	O	0.686082	0.934111	-0.452483
O160	O	1.186082	1.434111	0.047517
H161	H	0.662810	0.894477	-0.485171
H162	H	1.162810	1.394477	0.014829
O163	O	0.825173	0.934108	-0.257052
O164	O	1.325173	1.434108	0.242948
H165	H	0.801802	0.969187	-0.219586
H166	H	1.301802	1.469187	0.280414
O167	O	0.312617	0.499681	-0.499364
O168	O	0.812617	0.999681	0.000636
H169	H	0.284460	0.532441	-0.532038
H170	H	0.784460	1.032441	-0.032038
O171	O	0.825132	0.774358	-0.257014
O172	O	1.325132	1.274358	0.242986
H173	H	0.851704	0.739292	-0.289996
H174	H	1.351704	1.239292	0.210004
O175	O	0.686070	0.452296	-0.775157
O176	O	1.186070	0.952296	-0.275157
H177	H	0.695009	0.510060	-0.789882
H178	H	1.195009	1.010060	-0.289882
H179	H	0.816323	0.269116	-0.785432
H180	H	1.316323	0.769116	-0.285432
O181	O	0.825171	0.256631	-0.935026
O182	O	1.325171	0.756631	-0.435026
H183	H	0.819552	0.264511	-0.994921
H184	H	1.319552	0.764511	-0.494921
O185	O	0.061384	0.256679	-0.257119
O186	O	0.561384	0.756679	0.242881
H187	H	0.086241	0.289569	-0.219619
H188	H	0.586241	0.789569	0.280381
H189	H	0.556558	0.440089	-0.439901
H190	H	1.056558	0.940089	0.060099
H191	H	0.694882	0.784514	-0.440034
H192	H	1.194882	1.284514	0.059966
O193	O	0.686100	0.452268	-0.934904
O194	O	1.186100	0.952268	-0.434904
H195	H	0.709491	0.489712	-0.969916
H196	H	1.209491	0.989712	-0.469916
O197	O	0.061436	0.452589	-0.452431
O198	O	0.561436	0.952589	0.047569
H199	H	0.033281	0.485354	-0.485103
H200	H	0.533281	0.985354	0.014897
H201	H	-0.044853	0.440146	-0.440026
H202	H	0.455147	0.940146	0.059974
H203	H	0.457454	0.269090	-0.269455
H204	H	0.957454	0.769090	0.230545
O205	O	-0.052111	0.256704	-0.257135
O206	O	0.447889	0.756704	0.242865
H207	H	-0.041616	0.198960	-0.269862
H208	H	0.458384	0.698960	0.230138
O209	O	0.312557	0.209516	-0.210108
O210	O	0.812557	0.709516	0.289892
H211	H	0.284388	0.176757	-0.177444
H212	H	0.784388	0.676757	0.322556
O213	O	0.563730	0.256622	-0.257020
O214	O	1.063730	0.756622	0.242980
H215	H	0.606286	0.264535	-0.264915
H216	H	1.106286	0.764535	0.235085
