data_functionalizedCrystal
_audit_creation_method	'MofGen! by Chris Wilmer'
_symmetry_space_group_name_H-M	'P1'
_symmetry_Int_Tables_number	1
_symmetry_cell_setting	triclinic
loop_
_symmetry_equiv_pos_as_xyz
  x,y,z
_cell_length_a	29.839131
_cell_length_b	25.639242
_cell_length_c	25.639234
_cell_angle_alpha	90.029352
_cell_angle_beta	89.974256
_cell_angle_gamma	89.963053
loop_
_atom_site_label
_atom_site_type_symbol
_atom_site_fract_x
_atom_site_fract_y
_atom_site_fract_z
Zn1	Zn	-0.178934	-0.799252	-0.295739
Zn2	Zn	0.071066	-0.549252	-0.045739
Zn3	Zn	0.321066	-0.299252	0.204261
Zn4	Zn	0.571066	-0.049252	0.454261
Zn5	Zn	-0.254057	-0.799161	-0.208302
Zn6	Zn	-0.004057	-0.549161	0.041698
Zn7	Zn	0.245943	-0.299161	0.291698
Zn8	Zn	0.495943	-0.049161	0.541698
Zn9	Zn	-0.178936	-0.711818	-0.208303
Zn10	Zn	0.071064	-0.461818	0.041697
Zn11	Zn	0.321064	-0.211818	0.291697
Zn12	Zn	0.571064	0.038182	0.541697
Zn13	Zn	-0.254032	-0.711769	-0.295692
Zn14	Zn	-0.004032	-0.461769	-0.045692
Zn15	Zn	0.245968	-0.211769	0.204308
Zn16	Zn	0.495968	0.038231	0.454308
O17	O	-0.216490	-0.755500	-0.252009
O18	O	0.033510	-0.505500	-0.002009
O19	O	0.283510	-0.255500	0.247991
O20	O	0.533510	-0.005500	0.497991
O21	O	-0.188909	-0.872405	-0.284160
O22	O	0.061091	-0.622405	-0.034160
O23	O	0.311091	-0.372405	0.215840
O24	O	0.561091	-0.122405	0.465840
O25	O	-0.244103	-0.787556	-0.135137
O26	O	0.005897	-0.537556	0.114863
O27	O	0.255897	-0.287556	0.364863
O28	O	0.505897	-0.037556	0.614863
O29	O	-0.116068	-0.723474	-0.219922
O30	O	0.133932	-0.473474	0.030078
O31	O	0.383932	-0.223474	0.280078
O32	O	0.633932	0.026526	0.530078
O33	O	-0.244101	-0.872338	-0.219920
O34	O	0.005899	-0.622338	0.030080
O35	O	0.255899	-0.372338	0.280080
O36	O	0.505899	-0.122338	0.530080
O37	O	-0.116067	-0.787712	-0.284161
O38	O	0.133933	-0.537712	-0.034161
O39	O	0.383933	-0.287712	0.215839
O40	O	0.633933	-0.037712	0.465839
O41	O	-0.188912	-0.723386	-0.135138
O42	O	0.061088	-0.473386	0.114862
O43	O	0.311088	-0.223386	0.364862
O44	O	0.561088	0.026614	0.614862
O45	O	-0.188888	-0.638646	-0.219876
O46	O	0.061112	-0.388646	0.030124
O47	O	0.311112	-0.138646	0.280124
O48	O	0.561112	0.111354	0.530124
O49	O	-0.244059	-0.723392	-0.368864
O50	O	0.005941	-0.473392	-0.118864
O51	O	0.255941	-0.223392	0.131136
O52	O	0.505941	0.026608	0.381136
O53	O	-0.244061	-0.638611	-0.284081
O54	O	0.005939	-0.388611	-0.034081
O55	O	0.255939	-0.138611	0.215919
O56	O	0.505939	0.111389	0.465919
O57	O	-0.188885	-0.787666	-0.368898
O58	O	0.061115	-0.537666	-0.118898
O59	O	0.311115	-0.287666	0.131102
O60	O	0.561115	-0.037666	0.381102
O61	O	-0.316921	-0.787509	-0.219875
O62	O	-0.066921	-0.537509	0.030125
O63	O	0.183079	-0.287509	0.280125
O64	O	0.433079	-0.037509	0.530125
O65	O	-0.316903	-0.723304	-0.284080
O66	O	-0.066903	-0.473304	-0.034080
O67	O	0.183097	-0.223304	0.215920
O68	O	0.433097	0.026696	0.465920
C69	C	-0.216472	-0.619657	-0.251974
C70	C	0.033528	-0.369657	-0.001974
C71	C	0.283528	-0.119657	0.248026
C72	C	0.533528	0.130343	0.498026
C73	C	-0.216475	-0.561543	-0.251971
C74	C	0.033525	-0.311543	-0.001971
C75	C	0.283525	-0.061543	0.248029
C76	C	0.533525	0.188457	0.498029
C77	C	-0.333212	-0.755406	-0.251983
C78	C	-0.083212	-0.505406	-0.001983
C79	C	0.166788	-0.255406	0.248017
C80	C	0.416788	-0.005406	0.498017
C81	C	-0.383147	-0.755413	-0.251990
C82	C	-0.133147	-0.505413	-0.001990
C83	C	0.116853	-0.255413	0.248010
C84	C	0.366853	-0.005413	0.498010
C85	C	-0.216469	-0.755534	-0.388382
C86	C	0.033531	-0.505534	-0.138382
C87	C	0.283531	-0.255534	0.111618
C88	C	0.533531	-0.005534	0.361618
C89	C	-0.216461	-0.755548	-0.446496
C90	C	0.033539	-0.505548	-0.196496
C91	C	0.283539	-0.255548	0.053504
C92	C	0.533539	-0.005548	0.303504
C93	C	-0.692787	-0.788993	-0.218627
C94	C	-0.442787	-0.538993	0.031373
C95	C	-0.192787	-0.288993	0.281373
C96	C	0.057213	-0.038993	0.531373
C97	C	-0.880460	-0.789057	-0.218647
C98	C	-0.630460	-0.539057	0.031353
C99	C	-0.380460	-0.289057	0.281353
C100	C	-0.130460	-0.039057	0.531353
O101	O	-0.904722	-0.817533	-0.190260
O102	O	-0.654722	-0.567533	0.059740
O103	O	-0.404722	-0.317533	0.309740
O104	O	-0.154722	-0.067533	0.559740
N105	N	-0.903932	-0.755608	-0.252049
N106	N	-0.653932	-0.505608	-0.002049
N107	N	-0.403932	-0.255608	0.247951
N108	N	-0.153932	-0.005608	0.497951
C109	C	-0.880482	-0.722143	-0.285450
C110	C	-0.630482	-0.472143	-0.035450
C111	C	-0.380482	-0.222143	0.214550
C112	C	-0.130482	0.027857	0.464550
O113	O	-0.904753	-0.693698	-0.313865
O114	O	-0.654753	-0.443698	-0.063865
O115	O	-0.404753	-0.193698	0.186135
O116	O	-0.154753	0.056302	0.436135
C117	C	-0.692810	-0.722082	-0.285432
C118	C	-0.442810	-0.472082	-0.035432
C119	C	-0.192810	-0.222082	0.214568
C120	C	0.057190	0.027918	0.464568
C121	C	-0.669341	-0.755529	-0.252024
C122	C	-0.419341	-0.505529	-0.002024
C123	C	-0.169341	-0.255529	0.247976
C124	C	0.080659	-0.005529	0.497976
C125	C	-0.669318	-0.822438	-0.185222
C126	C	-0.419318	-0.572438	0.064778
C127	C	-0.169318	-0.322438	0.314778
C128	C	0.080682	-0.072438	0.564778
C129	C	-0.622402	-0.822419	-0.185215
C130	C	-0.372402	-0.572419	0.064785
C131	C	-0.122402	-0.322419	0.314785
C132	C	0.127598	-0.072419	0.564785
C133	C	-0.598956	-0.788956	-0.218613
C134	C	-0.348956	-0.538956	0.031387
C135	C	-0.098956	-0.288956	0.281387
C136	C	0.151044	-0.038956	0.531387
C137	C	-0.622425	-0.755511	-0.252018
C138	C	-0.372425	-0.505511	-0.002018
C139	C	-0.122425	-0.255511	0.247982
C140	C	0.127575	-0.005511	0.497982
C141	C	-0.669362	-0.688620	-0.318836
C142	C	-0.419362	-0.438620	-0.068836
C143	C	-0.169362	-0.188620	0.181164
C144	C	0.080638	0.061380	0.431164
C145	C	-0.622441	-0.688608	-0.318829
C146	C	-0.372441	-0.438608	-0.068829
C147	C	-0.122441	-0.188608	0.181171
C148	C	0.127559	0.061392	0.431171
C149	C	-0.598971	-0.722056	-0.285422
C150	C	-0.348971	-0.472056	-0.035422
C151	C	-0.098971	-0.222056	0.214578
C152	C	0.151029	0.027944	0.464578
C153	C	-0.552064	-0.722029	-0.285409
C154	C	-0.302064	-0.472029	-0.035409
C155	C	-0.052064	-0.222029	0.214591
C156	C	0.197936	0.027971	0.464591
N157	N	-0.528592	-0.755478	-0.252007
N158	N	-0.278592	-0.505478	-0.002007
N159	N	-0.028592	-0.255478	0.247993
N160	N	0.221408	-0.005478	0.497993
C161	C	-0.552038	-0.788941	-0.218609
C162	C	-0.302038	-0.538941	0.031391
C163	C	-0.052038	-0.288941	0.281391
C164	C	0.197962	-0.038941	0.531391
C165	C	-0.979013	-0.722177	-0.285457
C166	C	-0.729013	-0.472177	-0.035457
C167	C	-0.479013	-0.222177	0.214543
C168	C	-0.229013	0.027823	0.464543
C169	C	-1.025931	-0.722192	-0.285461
C170	C	-0.775931	-0.472192	-0.035461
C171	C	-0.525931	-0.222192	0.214539
C172	C	-0.275931	0.027808	0.464539
C173	C	-1.025905	-0.789107	-0.218658
C174	C	-0.775905	-0.539107	0.031342
C175	C	-0.525905	-0.289107	0.281342
C176	C	-0.275905	-0.039107	0.531342
C177	C	-0.978986	-0.789089	-0.218652
C178	C	-0.728986	-0.539089	0.031348
C179	C	-0.478986	-0.289089	0.281348
C180	C	-0.228986	-0.039089	0.531348
C181	C	-0.955541	-0.755626	-0.252055
C182	C	-0.705541	-0.505626	-0.002055
C183	C	-0.455541	-0.255626	0.247945
C184	C	-0.205541	-0.005626	0.497945
C185	C	-0.453512	-0.788899	-0.218597
C186	C	-0.203512	-0.538899	0.031403
C187	C	0.046488	-0.288899	0.281403
C188	C	0.296488	-0.038899	0.531403
C189	C	-0.406593	-0.788877	-0.218592
C190	C	-0.156593	-0.538877	0.031408
C191	C	0.093407	-0.288877	0.281408
C192	C	0.343407	-0.038877	0.531408
C193	C	-0.406623	-0.721964	-0.285396
C194	C	-0.156623	-0.471964	-0.035396
C195	C	0.093377	-0.221964	0.214604
C196	C	0.343377	0.028036	0.464604
C197	C	-0.453538	-0.721985	-0.285400
C198	C	-0.203538	-0.471985	-0.035400
C199	C	0.046462	-0.221985	0.214600
C200	C	0.296462	0.028015	0.464600
C201	C	-0.476982	-0.755457	-0.251999
C202	C	-0.226982	-0.505457	-0.001999
C203	C	0.023018	-0.255457	0.248001
C204	C	0.273018	-0.005457	0.498001
O205	O	-0.527773	-0.693572	-0.313785
O206	O	-0.277773	-0.443572	-0.063785
O207	O	-0.027773	-0.193572	0.186215
O208	O	0.222227	0.056428	0.436215
O209	O	-0.527760	-0.817390	-0.190207
O210	O	-0.277760	-0.567390	0.059793
O211	O	-0.027760	-0.317390	0.309793
O212	O	0.222240	-0.067390	0.559793
C213	C	-0.739702	-0.789011	-0.218633
C214	C	-0.489702	-0.539011	0.031367
C215	C	-0.239702	-0.289011	0.281367
C216	C	0.010298	-0.039011	0.531367
C217	C	-0.763172	-0.755566	-0.252038
C218	C	-0.513172	-0.505566	-0.002038
C219	C	-0.263172	-0.255566	0.247962
C220	C	-0.013172	-0.005566	0.497962
C221	C	-0.739726	-0.722103	-0.285436
C222	C	-0.489726	-0.472103	-0.035436
C223	C	-0.239726	-0.222103	0.214564
C224	C	0.010274	0.027897	0.464564
C225	C	-0.810090	-0.755581	-0.252042
C226	C	-0.560090	-0.505581	-0.002042
C227	C	-0.310090	-0.255581	0.247958
C228	C	-0.060090	-0.005581	0.497958
C229	C	-0.833536	-0.789044	-0.218644
C230	C	-0.583536	-0.539044	0.031356
C231	C	-0.333536	-0.289044	0.281356
C232	C	-0.083536	-0.039044	0.531356
C233	C	-0.810064	-0.822493	-0.185242
C234	C	-0.560064	-0.572493	0.064758
C235	C	-0.310064	-0.322493	0.314758
C236	C	-0.060064	-0.072493	0.564758
C237	C	-0.763148	-0.822475	-0.185235
C238	C	-0.513148	-0.572475	0.064765
C239	C	-0.263148	-0.322475	0.314765
C240	C	-0.013148	-0.072475	0.564765
C241	C	-0.763198	-0.688654	-0.318838
C242	C	-0.513198	-0.438654	-0.068838
C243	C	-0.263198	-0.188654	0.181162
C244	C	-0.013198	0.061346	0.431162
C245	C	-0.810113	-0.688675	-0.318841
C246	C	-0.560113	-0.438675	-0.068841
C247	C	-0.310113	-0.188675	0.181159
C248	C	-0.060113	0.061325	0.431159
C249	C	-0.833559	-0.722138	-0.285443
C250	C	-0.583559	-0.472138	-0.035443
C251	C	-0.333559	-0.222138	0.214557
C252	C	-0.083559	0.027862	0.464557
C253	C	-0.099311	-0.755609	-0.252047
C254	C	0.150689	-0.505609	-0.002047
C255	C	0.400689	-0.255609	0.247953
C256	C	0.650689	-0.005609	0.497953
C257	C	-0.049377	-0.755655	-0.252063
C258	C	0.200623	-0.505655	-0.002063
C259	C	0.450623	-0.255655	0.247937
C260	C	0.700623	-0.005655	0.497937
C261	C	-0.216508	-0.891873	-0.252045
C262	C	0.033492	-0.641873	-0.002045
C263	C	0.283492	-0.391873	0.247955
C264	C	0.533492	-0.141873	0.497955
C265	C	-0.216516	-0.949987	-0.252060
C266	C	0.033484	-0.699987	-0.002060
C267	C	0.283484	-0.449987	0.247940
C268	C	0.533484	-0.199987	0.497940
C269	C	-0.245266	-0.201171	-0.285409
C270	C	0.004734	0.048829	-0.035409
C271	C	0.254734	0.298829	0.214591
C272	C	0.504734	0.548829	0.464591
C273	C	-0.245269	-0.146566	-0.285417
C274	C	0.004731	0.103434	-0.035417
C275	C	0.254731	0.353434	0.214583
C276	C	0.504731	0.603434	0.464583
O277	O	-0.269726	-0.118322	-0.313817
O278	O	-0.019726	0.131678	-0.063817
O279	O	0.230274	0.381678	0.186183
O280	O	0.480274	0.631678	0.436183
N281	N	-0.216502	-0.119261	-0.252043
N282	N	0.033498	0.130739	-0.002043
N283	N	0.283498	0.380739	0.247957
N284	N	0.533498	0.630739	0.497957
C285	C	-0.187727	-0.146562	-0.218663
C286	C	0.062273	0.103438	0.031337
C287	C	0.312273	0.353438	0.281337
C288	C	0.562273	0.603438	0.531337
O289	O	-0.163259	-0.118323	-0.190277
O290	O	0.086741	0.131677	0.059723
O291	O	0.336741	0.381677	0.309723
O292	O	0.586741	0.631677	0.559723
C293	C	-0.187723	-0.201166	-0.218658
C294	C	0.062277	0.048834	0.031342
C295	C	0.312277	0.298834	0.281342
C296	C	0.562277	0.548834	0.531342
C297	C	-0.216495	-0.228469	-0.252030
C298	C	0.033505	0.021531	-0.002030
C299	C	0.283505	0.271531	0.247970
C300	C	0.533505	0.521531	0.497970
C301	C	-0.274036	-0.228474	-0.318778
C302	C	-0.024036	0.021526	-0.068778
C303	C	0.225964	0.271526	0.181222
C304	C	0.475964	0.521526	0.431222
C305	C	-0.274033	-0.283074	-0.318769
C306	C	-0.024033	-0.033074	-0.068769
C307	C	0.225967	0.216926	0.181231
C308	C	0.475967	0.466926	0.431231
C309	C	-0.245262	-0.310372	-0.285391
C310	C	0.004738	-0.060372	-0.035391
C311	C	0.254738	0.189628	0.214609
C312	C	0.504738	0.439628	0.464609
C313	C	-0.216492	-0.283069	-0.252021
C314	C	0.033508	-0.033069	-0.002021
C315	C	0.283508	0.216931	0.247979
C316	C	0.533508	0.466931	0.497979
C317	C	-0.158946	-0.228466	-0.185281
C318	C	0.091054	0.021534	0.064719
C319	C	0.341054	0.271534	0.314719
C320	C	0.591054	0.521534	0.564719
C321	C	-0.158943	-0.283073	-0.185279
C322	C	0.091057	-0.033073	0.064721
C323	C	0.341057	0.216927	0.314721
C324	C	0.591057	0.466927	0.564721
C325	C	-0.187716	-0.310376	-0.218651
C326	C	0.062284	-0.060376	0.031349
C327	C	0.312284	0.189624	0.281349
C328	C	0.562284	0.439624	0.531349
C329	C	-0.187719	-0.364967	-0.218633
C330	C	0.062281	-0.114967	0.031367
C331	C	0.312281	0.135033	0.281367
C332	C	0.562281	0.385033	0.531367
N333	N	-0.216485	-0.392273	-0.252007
N334	N	0.033515	-0.142273	-0.002007
N335	N	0.283515	0.107727	0.247993
N336	N	0.533515	0.357727	0.497993
C337	C	-0.245257	-0.364975	-0.285385
C338	C	0.004743	-0.114975	-0.035385
C339	C	0.254743	0.135025	0.214615
C340	C	0.504743	0.385025	0.464615
C341	C	-0.187739	-0.031892	-0.218677
C342	C	0.062261	0.218108	0.031323
C343	C	0.312261	0.468108	0.281323
C344	C	0.562261	0.718108	0.531323
C345	C	-0.187745	0.022711	-0.218679
C346	C	0.062255	0.272711	0.031321
C347	C	0.312255	0.522711	0.281321
C348	C	0.562255	0.772711	0.531321
C349	C	-0.245287	0.022703	-0.285434
C350	C	0.004713	0.272703	-0.035434
C351	C	0.254713	0.522703	0.214566
C352	C	0.504713	0.772703	0.464566
C353	C	-0.245282	-0.031901	-0.285429
C354	C	0.004718	0.218099	-0.035429
C355	C	0.254718	0.468099	0.214571
C356	C	0.504718	0.718099	0.464571
C357	C	-0.216506	-0.059197	-0.252051
C358	C	0.033494	0.190803	-0.002051
C359	C	0.283494	0.440803	0.247949
C360	C	0.533494	0.690803	0.497949
C361	C	-0.245250	-0.479640	-0.285363
C362	C	0.004750	-0.229640	-0.035363
C363	C	0.254750	0.020360	0.214637
C364	C	0.504750	0.270360	0.464637
C365	C	-0.245247	-0.534246	-0.285350
C366	C	0.004753	-0.284246	-0.035350
C367	C	0.254753	-0.034246	0.214650
C368	C	0.504753	0.215754	0.464650
C369	C	-0.187704	-0.534233	-0.218597
C370	C	0.062296	-0.284233	0.031403
C371	C	0.312296	-0.034233	0.281403
C372	C	0.562296	0.215767	0.531403
C373	C	-0.187709	-0.479632	-0.218609
C374	C	0.062291	-0.229632	0.031391
C375	C	0.312291	0.020368	0.281391
C376	C	0.562291	0.270368	0.531391
C377	C	-0.216484	-0.452337	-0.251996
C378	C	0.033516	-0.202337	-0.001996
C379	C	0.283516	0.047663	0.248004
C380	C	0.533516	0.297663	0.498004
O381	O	-0.163273	-0.393247	-0.190249
O382	O	0.086727	-0.143247	0.059751
O383	O	0.336727	0.106753	0.309751
O384	O	0.586727	0.356753	0.559751
O385	O	-0.269717	-0.393221	-0.313771
O386	O	-0.019717	-0.143221	-0.063771
O387	O	0.230283	0.106779	0.186229
O388	O	0.480283	0.356779	0.436229
C389	C	-0.187669	-0.722150	-0.806865
C390	C	0.062331	-0.472150	-0.556865
C391	C	0.312331	-0.222150	-0.306865
C392	C	0.562331	0.027850	-0.056865
C393	C	-0.187661	-0.722152	-0.861470
C394	C	0.062339	-0.472152	-0.611470
C395	C	0.312339	-0.222152	-0.361470
C396	C	0.562339	0.027848	-0.111470
O397	O	-0.163231	-0.693729	-0.889712
O398	O	0.086769	-0.443729	-0.639712
O399	O	0.336769	-0.193729	-0.389712
O400	O	0.586769	0.056271	-0.139712
N401	N	-0.216390	-0.755566	-0.888779
N402	N	0.033610	-0.505566	-0.638779
N403	N	0.283610	-0.255566	-0.388779
N404	N	0.533610	-0.005566	-0.138779
C405	C	-0.245132	-0.788975	-0.861481
C406	C	0.004868	-0.538975	-0.611481
C407	C	0.254868	-0.288975	-0.361481
C408	C	0.504868	-0.038975	-0.111481
O409	O	-0.269568	-0.817396	-0.889724
O410	O	-0.019568	-0.567396	-0.639724
O411	O	0.230432	-0.317396	-0.389724
O412	O	0.480432	-0.067396	-0.139724
C413	C	-0.245143	-0.788969	-0.806878
C414	C	0.004857	-0.538969	-0.556878
C415	C	0.254857	-0.288969	-0.306878
C416	C	0.504857	-0.038969	-0.056878
C417	C	-0.216408	-0.755557	-0.779571
C418	C	0.033592	-0.505557	-0.529571
C419	C	0.283592	-0.255557	-0.279571
C420	C	0.533592	-0.005557	-0.029571
C421	C	-0.158937	-0.688740	-0.779559
C422	C	0.091063	-0.438740	-0.529559
C423	C	0.341063	-0.188740	-0.279559
C424	C	0.591063	0.061260	-0.029559
C425	C	-0.158945	-0.688738	-0.724958
C426	C	0.091055	-0.438738	-0.474958
C427	C	0.341055	-0.188738	-0.224958
C428	C	0.591055	0.061262	0.025042
C429	C	-0.187684	-0.722146	-0.697664
C430	C	0.062316	-0.472146	-0.447664
C431	C	0.312316	-0.222146	-0.197664
C432	C	0.562316	0.027854	0.052336
C433	C	-0.216416	-0.755555	-0.724971
C434	C	0.033584	-0.505555	-0.474971
C435	C	0.283584	-0.255555	-0.224971
C436	C	0.533584	-0.005555	0.025029
C437	C	-0.273887	-0.822375	-0.779581
C438	C	-0.023887	-0.572375	-0.529581
C439	C	0.226113	-0.322375	-0.279581
C440	C	0.476113	-0.072375	-0.029581
C441	C	-0.273895	-0.822366	-0.724974
C442	C	-0.023895	-0.572366	-0.474974
C443	C	0.226105	-0.322366	-0.224974
C444	C	0.476105	-0.072366	0.025026
C445	C	-0.245160	-0.788954	-0.697667
C446	C	0.004840	-0.538954	-0.447667
C447	C	0.254840	-0.288954	-0.197667
C448	C	0.504840	-0.038954	0.052333
C449	C	-0.245163	-0.788961	-0.643076
C450	C	0.004837	-0.538961	-0.393076
C451	C	0.254837	-0.288961	-0.143076
C452	C	0.504837	-0.038961	0.106924
N453	N	-0.216434	-0.755547	-0.615767
N454	N	0.033566	-0.505547	-0.365767
N455	N	0.283566	-0.255547	-0.115767
N456	N	0.533566	-0.005547	0.134233
C457	C	-0.187694	-0.722140	-0.643061
C458	C	0.062306	-0.472140	-0.393061
C459	C	0.312306	-0.222140	-0.143061
C460	C	0.562306	0.027860	0.106939
C461	C	-0.245110	-0.788984	-0.976152
C462	C	0.004890	-0.538984	-0.726152
C463	C	0.254890	-0.288984	-0.476152
C464	C	0.504890	-0.038984	-0.226152
C465	C	-0.245098	-0.788993	-1.030754
C466	C	0.004902	-0.538993	-0.780754
C467	C	0.254902	-0.288993	-0.530754
C468	C	0.504902	-0.038993	-0.280754
C469	C	-0.187627	-0.722169	-1.030739
C470	C	0.062373	-0.472169	-0.780739
C471	C	0.312373	-0.222169	-0.530739
C472	C	0.562373	0.027831	-0.280739
C473	C	-0.187637	-0.722164	-0.976136
C474	C	0.062363	-0.472164	-0.726136
C475	C	0.312363	-0.222164	-0.476136
C476	C	0.562363	0.027836	-0.226136
C477	C	-0.216381	-0.755571	-0.948843
C478	C	0.033619	-0.505571	-0.698843
C479	C	0.283619	-0.255571	-0.448843
C480	C	0.533619	-0.005571	-0.198843
C481	C	-0.187712	-0.722138	-0.528396
C482	C	0.062288	-0.472138	-0.278396
C483	C	0.312288	-0.222138	-0.028396
C484	C	0.562288	0.027862	0.221604
C485	C	-0.187721	-0.722141	-0.473790
C486	C	0.062279	-0.472141	-0.223790
C487	C	0.312279	-0.222141	0.026210
C488	C	0.562279	0.027859	0.276210
C489	C	-0.245194	-0.788962	-0.473810
C490	C	0.004806	-0.538962	-0.223810
C491	C	0.254806	-0.288962	0.026190
C492	C	0.504806	-0.038962	0.276190
C493	C	-0.245184	-0.788962	-0.528411
C494	C	0.004816	-0.538962	-0.278411
C495	C	0.254816	-0.288962	-0.028411
C496	C	0.504816	-0.038962	0.221589
C497	C	-0.216441	-0.755546	-0.555702
C498	C	0.033559	-0.505546	-0.305702
C499	C	0.283559	-0.255546	-0.055702
C500	C	0.533559	-0.005546	0.194298
O501	O	-0.269582	-0.817368	-0.614800
O502	O	-0.019582	-0.567368	-0.364800
O503	O	0.230418	-0.317368	-0.114800
O504	O	0.480418	-0.067368	0.135200
O505	O	-0.163267	-0.693719	-0.614812
O506	O	0.086733	-0.443719	-0.364812
O507	O	0.336733	-0.193719	-0.114812
O508	O	0.586733	0.056281	0.135188
C509	C	-0.216478	-0.755496	-0.116167
C510	C	0.033522	-0.505496	0.133833
C511	C	0.283522	-0.255496	0.383833
C512	C	0.533522	-0.005496	0.633833
C513	C	-0.216360	-0.755583	-0.058053
C514	C	0.033640	-0.505583	0.191947
C515	C	0.283640	-0.255583	0.441947
C516	C	0.533640	-0.005583	0.691947
H517	H	-0.387485	-0.816113	-0.191385
H518	H	-0.137485	-0.566113	0.058615
H519	H	0.112515	-0.316113	0.308615
H520	H	0.362515	-0.066113	0.558615
H521	H	-0.164307	-0.694928	-0.550610
H522	H	0.085693	-0.444928	-0.300610
H523	H	0.335693	-0.194928	-0.050610
H524	H	0.585693	0.055072	0.199390
Br525	Br	-0.284089	-0.834348	-1.067806
Br526	Br	-0.034089	-0.584348	-0.817806
Br527	Br	0.215911	-0.334348	-0.567806
Br528	Br	0.465911	-0.084348	-0.317806
H529	H	-0.164306	-0.054114	-0.191493
H530	H	0.085694	0.195886	0.058507
H531	H	0.335694	0.445886	0.308507
H532	H	0.585694	0.695886	0.558507
H533	H	-0.164280	-0.556469	-0.191419
H534	H	0.085720	-0.306469	0.058581
H535	H	0.335720	-0.056469	0.308581
H536	H	0.585720	0.193531	0.558581
H537	H	-0.297465	-0.206254	-0.345962
H538	H	-0.047465	0.043746	-0.095962
H539	H	0.202535	0.293746	0.154038
H540	H	0.452535	0.543746	0.404038
Br541	Br	-0.841893	-0.867905	-0.139915
Br542	Br	-0.591893	-0.617905	0.110085
Br543	Br	-0.341893	-0.367905	0.360085
Br544	Br	-0.091893	-0.117905	0.610085
H545	H	-1.045036	-0.694951	-0.312660
H546	H	-0.795036	-0.444951	-0.062660
H547	H	-0.545036	-0.194951	0.187340
H548	H	-0.295036	0.055049	0.437340
Br549	Br	-0.485322	-0.834326	-0.173266
Br550	Br	-0.235322	-0.584326	0.076734
Br551	Br	0.014678	-0.334326	0.326734
Br552	Br	0.264678	-0.084326	0.576734
Br553	Br	-0.119886	-0.320116	-0.139979
Br554	Br	0.130114	-0.070116	0.110021
Br555	Br	0.380114	0.179884	0.360021
Br556	Br	0.630114	0.429884	0.610021
Br557	Br	-0.284299	-0.571296	-0.330641
Br558	Br	-0.034299	-0.321296	-0.080641
Br559	Br	0.215701	-0.071296	0.169359
Br560	Br	0.465701	0.178704	0.419359
H561	H	-0.164238	-0.694957	-0.953906
H562	H	0.085762	-0.444957	-0.703906
H563	H	0.335762	-0.194957	-0.453906
H564	H	0.585762	0.055043	-0.203906
H565	H	-0.135548	-0.661528	-0.702730
H566	H	0.114452	-0.411528	-0.452730
H567	H	0.364452	-0.161528	-0.202730
H568	H	0.614452	0.088472	0.047270
H569	H	-0.688402	-0.849691	-0.158025
H570	H	-0.438402	-0.599691	0.091975
H571	H	-0.188402	-0.349691	0.341975
H572	H	0.061598	-0.099691	0.591975
H573	H	-0.297462	-0.305299	-0.345945
H574	H	-0.047462	-0.055299	-0.095945
H575	H	0.202538	0.194701	0.154055
H576	H	0.452538	0.444701	0.404055
H577	H	-0.829218	-0.661433	-0.346045
H578	H	-0.579218	-0.411433	-0.096045
H579	H	-0.329218	-0.161433	0.153955
H580	H	-0.079218	0.088567	0.403955
Br581	Br	-0.947201	-0.676759	-0.330794
Br582	Br	-0.697201	-0.426759	-0.080794
Br583	Br	-0.447201	-0.176759	0.169206
Br584	Br	-0.197201	0.073241	0.419206
H585	H	-0.268576	-0.816174	-0.550645
H586	H	-0.018576	-0.566174	-0.300645
H587	H	0.231424	-0.316174	-0.050645
H588	H	0.481424	-0.066174	0.199355
Br589	Br	-0.590558	-0.867822	-0.139881
Br590	Br	-0.340558	-0.617822	0.110119
Br591	Br	-0.090558	-0.367822	0.360119
Br592	Br	0.159442	-0.117822	0.610119
H593	H	-0.164321	0.044936	-0.191499
H594	H	0.085679	0.294936	0.058501
H595	H	0.335679	0.544936	0.308501
H596	H	0.585679	0.794936	0.558501
H597	H	-0.959880	-0.816325	-0.191448
H598	H	-0.709880	-0.566325	0.058552
H599	H	-0.459880	-0.316325	0.308552
H600	H	-0.209880	-0.066325	0.558552
H601	H	-0.268710	-0.054127	-0.312604
H602	H	-0.018710	0.195873	-0.062604
H603	H	0.231290	0.445873	0.187396
H604	H	0.481290	0.695873	0.437396
H605	H	-0.268713	0.044938	-0.312615
H606	H	-0.018713	0.294938	-0.062615
H607	H	0.231287	0.544938	0.187385
H608	H	0.481287	0.794938	0.437385
H609	H	-0.164226	-0.694967	-1.052972
H610	H	0.085774	-0.444967	-0.802972
H611	H	0.335774	-0.194967	-0.552972
H612	H	0.585774	0.055033	-0.302972
H613	H	-0.268514	-0.816194	-0.953933
H614	H	-0.018514	-0.566194	-0.703933
H615	H	0.231486	-0.316194	-0.453933
H616	H	0.481486	-0.066194	-0.203933
H617	H	-1.045003	-0.816354	-0.191464
H618	H	-0.795003	-0.566354	0.058536
H619	H	-0.545003	-0.316354	0.308536
H620	H	-0.295003	-0.066354	0.558536
Br621	Br	-0.119893	-0.191426	-0.139990
Br622	Br	0.130107	0.058574	0.110010
Br623	Br	0.380107	0.308574	0.360010
Br624	Br	0.630107	0.558574	0.610010
Br625	Br	-0.284302	-0.442605	-0.330675
Br626	Br	-0.034302	-0.192605	-0.080675
Br627	Br	0.215698	0.057395	0.169325
Br628	Br	0.465698	0.307395	0.419325
Br629	Br	-0.312889	-0.867719	-0.816626
Br630	Br	-0.062889	-0.617719	-0.566626
Br631	Br	0.187111	-0.367719	-0.316626
Br632	Br	0.437111	-0.117719	-0.066626
H633	H	-0.297299	-0.849574	-0.702754
H634	H	-0.047299	-0.599574	-0.452754
H635	H	0.202701	-0.349574	-0.202754
H636	H	0.452701	-0.099574	0.047246
H637	H	-0.268591	-0.816163	-0.451578
H638	H	-0.018591	-0.566163	-0.201578
H639	H	0.231409	-0.316163	0.048422
H640	H	0.481409	-0.066163	0.298422
H641	H	-0.688463	-0.661381	-0.346038
H642	H	-0.438463	-0.411381	-0.096038
H643	H	-0.188463	-0.161381	0.153962
H644	H	0.061537	0.088619	0.403962
H645	H	-0.603354	-0.661360	-0.346032
H646	H	-0.353354	-0.411360	-0.096032
H647	H	-0.103354	-0.161360	0.153968
H648	H	0.146646	0.088640	0.403968
Br649	Br	-0.119936	-0.643387	-0.816591
Br650	Br	0.130064	-0.393387	-0.566591
Br651	Br	0.380064	-0.143387	-0.316591
Br652	Br	0.630064	0.106613	-0.066591
H653	H	-0.164282	-0.457401	-0.191433
H654	H	0.085718	-0.207401	0.058567
H655	H	0.335718	0.042599	0.308567
H656	H	0.585718	0.292599	0.558567
H657	H	-0.164320	-0.694933	-0.451560
H658	H	0.085680	-0.444933	-0.201560
H659	H	0.335680	-0.194933	0.048440
H660	H	0.585680	0.055067	0.298440
H661	H	-0.472648	-0.694751	-0.312605
H662	H	-0.222648	-0.444751	-0.062605
H663	H	0.027352	-0.194751	0.187395
H664	H	0.277352	0.055249	0.437395
H665	H	-0.387526	-0.694717	-0.312587
H666	H	-0.137526	-0.444717	-0.062587
H667	H	0.112474	-0.194717	0.187413
H668	H	0.362474	0.055283	0.437413
Br669	Br	-0.731385	-0.643235	-0.364169
Br670	Br	-0.481385	-0.393235	-0.114169
Br671	Br	-0.231385	-0.143235	0.135831
Br672	Br	0.018615	0.106765	0.385831
H673	H	-0.744043	-0.849711	-0.158032
H674	H	-0.494043	-0.599711	0.091968
H675	H	-0.244043	-0.349711	0.341968
H676	H	0.005957	-0.099711	0.591968
