data_functionalizedCrystal
_audit_creation_method	'MofGen! by Chris Wilmer'
_symmetry_space_group_name_H-M	'P1'
_symmetry_Int_Tables_number	1
_symmetry_cell_setting	triclinic
loop_
_symmetry_equiv_pos_as_xyz
  x,y,z
_cell_length_a	18.215405
_cell_length_b	18.215407
_cell_length_c	18.215399
_cell_angle_alpha	89.986109
_cell_angle_beta	89.967040
_cell_angle_gamma	90.022344
loop_
_atom_site_label
_atom_site_type_symbol
_atom_site_fract_x
_atom_site_fract_y
_atom_site_fract_z
Zn1	Zn	-0.293024	1.125050	-0.416045
Zn2	Zn	0.206976	1.625050	0.083955
Zn3	Zn	-0.416101	1.124965	-0.292973
Zn4	Zn	0.083899	1.624965	0.207027
Zn5	Zn	-0.293047	1.001989	-0.292999
Zn6	Zn	0.206953	1.501989	0.207001
Zn7	Zn	-0.416048	1.001949	-0.416004
Zn8	Zn	0.083952	1.501949	0.083996
O9	O	-0.354555	1.063488	-0.354505
O10	O	0.145445	1.563488	0.145495
O11	O	-0.309363	1.228023	-0.399726
O12	O	0.190637	1.728023	0.100274
O13	O	-0.399809	1.108633	-0.189992
O14	O	0.100191	1.608633	0.310008
O15	O	-0.190060	1.018366	-0.309349
O16	O	0.309940	1.518366	0.190651
O17	O	-0.399787	1.227960	-0.309305
O18	O	0.100213	1.727960	0.190695
O19	O	-0.190043	1.108778	-0.399750
O20	O	0.309957	1.608778	0.100250
O21	O	-0.309402	1.018283	-0.190011
O22	O	0.190598	1.518283	0.309989
O23	O	-0.309351	0.898999	-0.309309
O24	O	0.190649	1.398999	0.190691
O25	O	-0.399697	1.018297	-0.518994
O26	O	0.100303	1.518297	-0.018994
O27	O	-0.399719	0.898970	-0.399681
O28	O	0.100281	1.398970	0.100319
O29	O	-0.309312	1.108739	-0.519024
O30	O	0.190688	1.608739	-0.019024
O31	O	-0.519078	1.108594	-0.309266
O32	O	-0.019078	1.608594	0.190734
O33	O	-0.519039	1.018214	-0.399656
O34	O	-0.019039	1.518214	0.100344
C35	C	-0.354532	0.872282	-0.354494
C36	C	0.145468	1.372282	0.145506
C37	C	-0.354541	0.790483	-0.354507
C38	C	0.145459	1.290483	0.145493
C39	C	-0.401687	0.525429	-0.401497
C40	C	0.098313	1.025429	0.098503
C41	C	-0.401681	0.602288	-0.401494
C42	C	0.098319	1.102288	0.098506
C43	C	-0.307439	0.602288	-0.307526
C44	C	0.192561	1.102288	0.192474
C45	C	-0.307450	0.525431	-0.307527
C46	C	0.192550	1.025431	0.192473
C47	C	-0.354573	0.487003	-0.354516
C48	C	0.145427	0.987003	0.145484
C49	C	-0.354556	0.640720	-0.354512
C50	C	0.145444	1.140720	0.145488
C51	C	-0.354549	0.724053	-0.354508
C52	C	0.145451	1.224053	0.145492
C53	C	-0.354581	0.403664	-0.354520
C54	C	0.145419	0.903664	0.145480
C55	C	-0.545761	1.063410	-0.354470
C56	C	-0.045761	1.563410	0.145530
C57	C	-0.627560	1.063445	-0.354479
C58	C	-0.127560	1.563445	0.145521
C59	C	-0.815750	1.110616	-0.307500
C60	C	-0.315750	1.610616	0.192500
C61	C	-0.892609	1.110649	-0.307517
C62	C	-0.392609	1.610649	0.192483
C63	C	-0.892608	1.016455	-0.401564
C64	C	-0.392608	1.516455	0.098436
C65	C	-0.815751	1.016426	-0.401549
C66	C	-0.315751	1.516426	0.098451
C67	C	-0.777324	1.063505	-0.354513
C68	C	-0.277324	1.563505	0.145487
C69	C	-0.931040	1.063567	-0.354545
C70	C	-0.431040	1.563567	0.145455
C71	C	-1.014373	1.063602	-0.354565
C72	C	-0.514373	1.563602	0.145435
C73	C	-0.693985	1.063471	-0.354494
C74	C	-0.193985	1.563471	0.145506
C75	C	-0.162602	1.063586	-0.354557
C76	C	0.337398	1.563586	0.145443
C77	C	-0.080803	1.063628	-0.354579
C78	C	0.419197	1.563628	0.145421
C79	C	-0.354496	1.063523	-0.546458
C80	C	0.145504	1.563523	-0.046458
C81	C	-0.354471	1.063538	-0.628257
C82	C	0.145529	1.563538	-0.128257
C83	C	-0.354578	1.255441	-0.354517
C84	C	0.145422	1.755441	0.145483
C85	C	-0.354588	1.337240	-0.354522
C86	C	0.145412	1.837240	0.145478
C87	C	-0.307365	1.016532	-0.816462
C88	C	0.192635	1.516532	-0.316462
C89	C	-0.307350	1.016545	-0.893321
C90	C	0.192650	1.516545	-0.393321
C91	C	-0.401490	1.110631	-0.893290
C92	C	0.098510	1.610631	-0.393290
C93	C	-0.401508	1.110614	-0.816433
C94	C	0.098492	1.610614	-0.316433
C95	C	-0.354441	1.063566	-0.778021
C96	C	0.145559	1.563566	-0.278021
C97	C	-0.354408	1.063596	-0.931737
C98	C	0.145592	1.563596	-0.431737
C99	C	-0.354393	1.063610	-1.015071
C100	C	0.145607	1.563610	-0.515071
C101	C	-0.354458	1.063550	-0.694682
C102	C	0.145542	1.563550	-0.194682
C103	C	-0.354561	1.063496	-0.163299
C104	C	0.145439	1.563496	0.336701
C105	C	-0.354378	1.063624	-0.081500
C106	C	0.145622	1.563624	0.418500
H107	H	-0.440047	0.633571	-0.439749
H108	H	0.059953	1.133571	0.060251
H109	H	-0.784464	1.148952	-0.269201
H110	H	-0.284464	1.648952	0.230799
H111	H	-0.923905	0.978123	-0.439858
H112	H	-0.423905	1.478123	0.060142
F113	F	-0.451619	1.160674	-0.775519
F114	F	0.048381	1.660674	-0.275519
H115	H	-0.784462	0.978063	-0.439837
H116	H	-0.284462	1.478063	0.060163
F117	F	-0.451578	1.160702	-0.934178
F118	F	0.048422	1.660702	-0.434178
F119	F	-0.257274	0.966458	-0.775583
F120	F	0.242726	1.466458	-0.275583
F121	F	-0.257288	0.643192	-0.257522
F122	F	0.242712	1.143192	0.242478
F123	F	-0.933501	1.160792	-0.257481
F124	F	-0.433501	1.660792	0.242519
H125	H	-0.269083	0.494144	-0.269266
H126	H	0.230917	0.994144	0.230734
F127	F	-0.451841	0.484534	-0.451506
F128	F	0.048159	0.984534	0.048494
F129	F	-0.257252	0.966478	-0.934229
F130	F	0.242748	1.466478	-0.434229
