data_functionalizedCrystal
_audit_creation_method	'MofGen! by Chris Wilmer'
_symmetry_space_group_name_H-M	'P1'
_symmetry_Int_Tables_number	1
_symmetry_cell_setting	triclinic
loop_
_symmetry_equiv_pos_as_xyz
  x,y,z
_cell_length_a	15.298206
_cell_length_b	15.299816
_cell_length_c	12.759393
_cell_angle_alpha	99.650122
_cell_angle_beta	99.668792
_cell_angle_gamma	69.257501
loop_
_atom_site_label
_atom_site_type_symbol
_atom_site_fract_x
_atom_site_fract_y
_atom_site_fract_z
Zn1	Zn	1.485544	-0.615753	-0.418318
Zn2	Zn	1.512332	-0.771226	-0.268592
Zn3	Zn	1.330056	-0.588926	-0.268633
Zn4	Zn	1.356907	-0.744293	-0.470175
O5	O	1.421209	-0.680049	-0.356430
O6	O	1.619215	-0.658875	-0.376738
O7	O	1.488126	-0.747088	-0.121591
O8	O	1.328234	-0.462397	-0.266804
O9	O	1.638896	-0.773100	-0.266735
O10	O	1.442470	-0.482106	-0.376777
O11	O	1.354209	-0.613153	-0.121621
O12	O	1.203500	-0.587037	-0.317087
O13	O	1.373997	-0.727198	-0.610303
O14	O	1.223227	-0.701185	-0.465159
O15	O	1.468506	-0.632760	-0.572204
O16	O	1.514162	-0.897741	-0.317018
O17	O	1.399972	-0.877954	-0.465120
C18	C	1.179625	-0.638278	-0.396755
C19	C	1.076278	-0.620431	-0.414035
C20	C	1.017501	-0.552667	-0.479552
C21	C	0.920400	-0.535890	-0.495788
C22	C	0.882067	-0.586880	-0.446517
C23	C	0.940845	-0.654650	-0.381006
C24	C	1.037955	-0.671423	-0.364761
C25	C	0.902521	-0.705636	-0.331726
C26	C	0.961299	-0.773406	-0.266215
C27	C	1.058399	-0.790177	-0.249973
C28	C	1.096732	-0.739187	-0.299245
C29	C	0.805411	-0.688862	-0.347971
C30	C	0.825865	-0.807618	-0.233180
C31	C	0.922966	-0.824396	-0.216943
C32	C	1.462913	-0.921582	-0.396710
C33	C	1.480839	-1.024926	-0.413963
C34	C	1.293699	-1.275526	-0.233375
C35	C	1.276852	-1.178429	-0.217168
C36	C	1.327847	-1.140048	-0.266365
C37	C	1.395693	-1.198774	-0.331772
C38	C	1.412536	-1.295880	-0.347987
C39	C	1.446685	-1.160402	-0.380977
C40	C	1.514530	-1.219128	-0.446385
C41	C	1.531371	-1.316224	-0.462596
C42	C	1.480375	-1.354605	-0.413399
C43	C	1.429841	-1.063297	-0.364762
C44	C	1.548678	-1.083650	-0.479375
C45	C	1.565525	-1.180747	-0.495582
C46	C	1.663737	-0.721984	-0.315947
C47	C	1.767088	-0.739854	-0.298696
C48	C	1.421258	-0.679967	-0.630437
C49	C	1.421279	-0.679932	-0.747202
C50	C	1.379368	-0.437578	-0.316011
C51	C	1.361538	-0.334251	-0.298787
C52	C	1.470497	-0.630753	-0.782225
C53	C	1.470513	-0.630724	-0.891940
C54	C	1.372092	-0.729058	-0.931600
C55	C	1.372071	-0.729082	-0.821887
C56	C	1.519705	-0.581603	-0.707540
C57	C	1.568928	-0.532422	-0.742562
C58	C	1.568944	-0.532392	-0.852277
C59	C	1.519738	-0.581544	-0.926970
C60	C	1.421203	-0.680074	-0.083469
C61	C	1.421317	-0.679878	0.033370
H62	H	1.048721	-0.511154	-0.519655
H63	H	0.794656	-0.849139	-0.193060
H64	H	1.175801	-0.752856	-0.286043
H65	H	1.221612	-1.130618	-0.163915
H66	H	1.590201	-1.052402	-0.519438
H67	H	1.586611	-1.364036	-0.515860
H68	H	1.252182	-1.306785	-0.193331
H69	H	1.620765	-1.228576	-0.548837
H70	H	1.494092	-1.433669	-0.426587
H71	H	1.519700	-0.581625	-0.618203
H72	H	0.803002	-0.573212	-0.459737
H73	H	1.374601	-1.015490	-0.311508
H74	H	1.106253	-0.845352	-0.196620
H75	H	1.332030	-0.769074	-0.992423
H76	H	0.970837	-0.879575	-0.163603
H77	H	1.608983	-0.492398	-0.681741
H78	H	1.609016	-0.492339	-0.880788
H79	H	0.872550	-0.480712	-0.549129
H80	H	1.519742	-0.581503	-1.016306
H81	H	1.331977	-0.769110	-0.793372
H82	H	0.757563	-0.633681	-0.401309
H83	H	1.314127	-1.060987	-0.253164
