data_functionalizedCrystal
_audit_creation_method	'MofGen! by Chris Wilmer'
_symmetry_space_group_name_H-M	'P1'
_symmetry_Int_Tables_number	1
_symmetry_cell_setting	triclinic
loop_
_symmetry_equiv_pos_as_xyz
  x,y,z
_cell_length_a	14.853566
_cell_length_b	14.044220
_cell_length_c	13.930277
_cell_angle_alpha	89.994760
_cell_angle_beta	89.995631
_cell_angle_gamma	88.411646
loop_
_atom_site_label
_atom_site_type_symbol
_atom_site_fract_x
_atom_site_fract_y
_atom_site_fract_z
O1	O	1.206174	0.123761	-0.079770
O2	O	0.944883	0.138506	-0.079786
O3	O	1.071607	-0.006856	-0.079768
O4	O	1.079451	0.269123	-0.079787
O5	O	1.071587	-0.006859	0.079893
O6	O	0.944864	0.138503	0.079876
O7	O	1.206155	0.123758	0.079892
Zn8	Zn	1.075506	0.131130	0.105234
Zn9	Zn	1.075532	0.131134	-0.105127
O10	O	1.079431	0.269120	0.079875
C11	C	0.911232	0.137836	0.000043
C12	C	0.810989	0.135835	0.000037
C13	C	0.387144	0.127371	-0.086977
C14	C	0.387145	0.127369	0.087093
C15	C	0.481328	0.129248	0.087089
C16	C	0.528423	0.130191	0.000052
C17	C	0.481336	0.129254	-0.086983
C18	C	0.528421	0.130195	0.174122
C19	C	0.622610	0.132075	0.174123
C20	C	0.669708	0.133011	0.087084
C21	C	0.622615	0.132073	0.000046
C22	C	0.669710	0.133016	-0.086992
C23	C	0.622619	0.132071	-0.174031
C24	C	0.528434	0.130190	-0.174021
C25	C	0.763894	0.134892	0.087075
C26	C	0.763902	0.134898	-0.086997
C27	C	1.068163	-0.042177	0.000063
C28	C	1.057922	-0.147416	0.000063
C29	C	1.039198	-0.340102	0.000048
C30	C	1.111836	-0.397640	0.000050
C31	C	1.101418	-0.504857	0.000041
C32	C	1.049615	-0.232875	0.000057
C33	C	1.239806	0.124427	0.000061
C34	C	1.340049	0.126429	0.000061
C35	C	1.082875	0.304441	0.000042
C36	C	1.093116	0.409680	0.000035
N37	N	1.075495	0.131126	0.248800
N38	N	1.075549	0.131130	-0.248694
C39	C	1.019414	0.195475	0.701062
C40	C	1.131674	0.066786	0.701046
C41	C	1.131663	0.066783	0.600551
C42	C	1.075528	0.131128	0.550306
C43	C	1.019403	0.195476	0.600557
C44	C	1.187793	0.002442	0.550292
C45	C	1.187785	0.002437	0.449790
C46	C	1.131644	0.066779	0.399544
C47	C	1.075517	0.131129	0.449801
C48	C	1.019382	0.195474	0.399556
C49	C	0.963249	0.259820	0.449811
C50	C	0.963263	0.259817	0.550310
C51	C	1.131630	0.066781	0.299045
C52	C	1.019371	0.195475	0.299051
H53	H	0.660944	0.132843	0.244995
H54	H	0.973709	0.247863	0.741982
H55	H	0.660977	0.132845	-0.244897
H56	H	0.969191	-0.371363	0.000042
H57	H	0.802231	0.135671	0.157941
H58	H	0.973655	0.247869	0.258147
H59	H	1.181849	-0.366377	-0.000010
N60	N	0.902710	0.329225	0.395615
H61	H	0.911228	0.319459	0.324325
H62	H	0.837867	0.318148	0.413186
H63	H	1.177337	0.014396	0.258132
H64	H	1.177382	0.014402	0.741959
N65	N	0.477638	0.129176	0.267999
H66	H	0.492394	0.187576	0.306609
H67	H	0.410795	0.129111	0.254730
H68	H	0.917563	0.312207	0.591234
N69	N	0.336358	0.126362	-0.180850
H70	H	0.380488	0.127247	-0.235985
H71	H	0.299869	0.066859	-0.184638
H72	H	1.233501	-0.049942	0.591205
H73	H	1.233489	-0.049958	0.408879
H74	H	0.490084	0.129419	-0.244884
N75	N	0.814689	0.135906	-0.180880
H76	H	0.795709	0.194295	-0.218937
H77	H	0.881487	0.137207	-0.167604
N78	N	0.336355	0.126363	0.180965
H79	H	0.269495	0.126326	0.167769
H80	H	0.354506	0.067313	0.218407
