data_functionalizedCrystal
_audit_creation_method	'MofGen! by Chris Wilmer'
_symmetry_space_group_name_H-M	'P1'
_symmetry_Int_Tables_number	1
_symmetry_cell_setting	triclinic
loop_
_symmetry_equiv_pos_as_xyz
  x,y,z
_cell_length_a	23.532407
_cell_length_b	23.532407
_cell_length_c	18.366186
_cell_angle_alpha	89.989089
_cell_angle_beta	89.996288
_cell_angle_gamma	82.848678
loop_
_atom_site_label
_atom_site_type_symbol
_atom_site_fract_x
_atom_site_fract_y
_atom_site_fract_z
O1	O	0.755263	0.069136	-0.060466
O2	O	0.589400	0.079139	-0.060489
O3	O	0.677333	-0.008794	-0.060463
O4	O	0.667330	0.157069	-0.060491
O5	O	0.677318	-0.008799	0.060636
O6	O	0.589385	0.079135	0.060611
O7	O	0.755248	0.069131	0.060633
Zn8	Zn	0.672314	0.074132	0.079849
Zn9	Zn	0.672334	0.074138	-0.079704
O10	O	0.667315	0.157065	0.060608
C11	C	0.568176	0.078882	0.000058
C12	C	0.504959	0.078116	0.000051
C13	C	0.105856	0.125350	0.000076
C14	C	0.046456	0.124638	0.000080
O15	O	0.009711	0.168424	0.000099
N16	N	0.023830	0.072362	0.000088
C17	C	0.060607	0.020794	0.000098
O18	O	0.035908	-0.023737	0.000106
C19	C	0.120006	0.021506	0.000099
C20	C	0.142629	0.073785	0.000084
C21	C	0.128479	0.177625	0.000061
C22	C	0.187876	0.178336	0.000055
C23	C	0.224649	0.126772	0.000064
C24	C	0.202025	0.074496	0.000078
C25	C	0.156783	-0.030062	0.000114
C26	C	0.216185	-0.029345	0.000116
C27	C	0.238808	0.022934	0.000101
C28	C	0.298194	0.023643	0.000080
N29	N	0.320820	0.075920	0.000073
C30	C	0.284048	0.127484	0.000064
C31	C	-0.064135	0.019302	0.000098
C32	C	-0.123533	0.018589	0.000092
C33	C	-0.137680	0.122434	0.000076
C34	C	-0.078281	0.123146	0.000076
C35	C	-0.041509	0.071578	0.000090
C36	C	0.408784	0.128974	0.000051
C37	C	0.468186	0.129680	0.000042
C38	C	0.482329	0.025836	0.000063
C39	C	0.422932	0.025129	0.000068
C40	C	0.386160	0.076702	0.000065
O41	O	0.334974	-0.020119	0.000064
O42	O	0.308755	0.172007	0.000066
C43	C	0.677071	-0.030013	0.000088
C44	C	0.676305	-0.093230	0.000094
C45	C	0.723539	-0.492333	0.000060
C46	C	0.722827	-0.551733	0.000055
O47	O	0.766613	-0.588478	0.000034
N48	N	0.670551	-0.574359	0.000048
C49	C	0.618983	-0.537582	0.000040
O50	O	0.574452	-0.562281	0.000033
C51	C	0.619695	-0.478182	0.000040
C52	C	0.671974	-0.455560	0.000054
C53	C	0.775814	-0.469710	0.000073
C54	C	0.776525	-0.410313	0.000080
C55	C	0.724961	-0.373540	0.000074
C56	C	0.672685	-0.396164	0.000061
C57	C	0.568127	-0.441406	0.000027
C58	C	0.568844	-0.382004	0.000026
C59	C	0.621123	-0.359381	0.000040
C60	C	0.621832	-0.299995	0.000062
N61	N	0.674109	-0.277368	0.000068
C62	C	0.725673	-0.314141	0.000075
C63	C	0.617491	-0.662324	0.000038
C64	C	0.616778	-0.721722	0.000042
C65	C	0.720623	-0.735869	0.000056
C66	C	0.721335	-0.676470	0.000056
C67	C	0.669767	-0.639698	0.000044
C68	C	0.727163	-0.189405	0.000090
C69	C	0.727869	-0.130003	0.000100
C70	C	0.624025	-0.115860	0.000083
C71	C	0.623318	-0.175257	0.000076
C72	C	0.674891	-0.212029	0.000078
O73	O	0.578070	-0.263215	0.000080
O74	O	0.770196	-0.289433	0.000072
C75	C	0.776472	0.069388	0.000085
C76	C	0.839689	0.070154	0.000088
C77	C	0.667577	0.178283	0.000055
C78	C	0.668343	0.241500	0.000045
N79	N	0.672305	0.074128	0.188740
N80	N	0.672348	0.074138	-0.188596
C81	C	0.711255	0.035210	0.226852
C82	C	0.711258	0.035208	0.303080
C83	C	0.672318	0.074133	0.341193
C84	C	0.633361	0.113054	0.303072
C85	C	0.633355	0.113051	0.226846
C86	C	0.664563	0.126043	0.461944
C87	C	0.664573	0.126047	0.538169
C88	C	0.672334	0.074140	0.576301
C89	C	0.680097	0.022228	0.538198
C90	C	0.680090	0.022225	0.461972
C91	C	0.672320	0.074139	0.423848
C92	C	0.711289	0.035216	0.697067
C93	C	0.711289	0.035213	0.773296
C94	C	0.633395	0.113064	0.773287
C95	C	0.633392	0.113062	0.697060
C96	C	0.672343	0.074139	0.658954
H97	H	0.246123	-0.071339	0.000128
N98	N	0.514719	-0.464495	0.000011
N99	N	0.468688	-0.431645	-0.000003
H100	H	0.430965	-0.447949	-0.000016
N101	N	0.774732	-0.653354	0.000072
N102	N	0.786709	-0.621794	0.051120
H103	H	0.824422	-0.605470	0.051130
H104	H	0.601637	0.144743	0.195815
H105	H	0.742976	0.003515	0.334116
H106	H	0.686409	-0.020043	0.430951
N107	N	0.781269	-0.106886	0.000120
N108	N	0.793246	-0.075330	0.051172
H109	H	0.830958	-0.059004	0.051186
H110	H	0.686416	-0.020040	0.569243
N111	N	0.090920	0.230300	0.000040
N112	N	0.056202	0.241495	-0.051011
H113	H	0.029678	0.278700	-0.051030
H114	H	0.206289	0.220908	0.000043
N115	N	0.751062	-0.004552	0.812240
N116	N	0.751051	-0.004556	0.880299
H117	H	0.779135	-0.032646	0.907805
H118	H	0.658233	0.168315	0.430904
H119	H	0.574207	-0.740136	0.000044
H120	H	0.138375	-0.072634	0.000127
H121	H	0.582043	-0.085909	0.000080
H122	H	0.601686	0.144755	0.804319
H123	H	0.580748	-0.193677	0.000085
H124	H	-0.034198	-0.022693	0.000103
H125	H	-0.059867	0.165717	0.000068
N126	N	0.751091	-0.004504	0.187941
N127	N	0.785897	-0.039218	0.221984
H128	H	0.814051	-0.067249	0.194503
H129	H	0.512280	-0.016146	0.000067
N130	N	-0.146648	-0.034807	0.000094
N131	N	-0.178215	-0.046790	-0.050946
H132	H	-0.194540	-0.084503	-0.050941
H133	H	-0.167632	0.164421	0.000072
H134	H	0.404512	-0.017441	0.000069
H135	H	0.769159	-0.219337	0.000088
H136	H	0.819097	-0.391900	0.000089
H137	H	0.817806	-0.499645	0.000076
H138	H	0.743004	0.003521	0.666040
N139	N	0.593602	0.152820	0.658137
N140	N	0.558834	0.187571	0.692172
H141	H	0.530728	0.215651	0.664683
N142	N	0.593577	0.152807	0.342001
N143	N	0.558335	0.134914	0.384549
H144	H	0.530234	0.162988	0.412043
N145	N	0.773303	-0.773429	0.000063
N146	N	0.808144	-0.771545	0.051113
H147	H	0.845347	-0.798071	0.051119
N148	N	0.564807	-0.624772	0.000028
N149	N	0.518139	-0.644987	0.000021
H150	H	0.480930	-0.618469	0.000012
N151	N	0.516161	-0.344450	0.000005
N152	N	0.469491	-0.364662	-0.000011
H153	H	0.432284	-0.338142	-0.000027
H154	H	0.378851	0.170970	0.000051
H155	H	0.658256	0.168316	0.569186
H156	H	0.486602	0.172255	0.000030
