data_functionalizedCrystal
_audit_creation_method	'MofGen! by Chris Wilmer'
_symmetry_space_group_name_H-M	'P1'
_symmetry_Int_Tables_number	1
_symmetry_cell_setting	triclinic
loop_
_symmetry_equiv_pos_as_xyz
  x,y,z
_cell_length_a	19.121063
_cell_length_b	17.639504
_cell_length_c	17.640968
_cell_angle_alpha	70.332680
_cell_angle_beta	98.351500
_cell_angle_gamma	75.919471
loop_
_atom_site_label
_atom_site_type_symbol
_atom_site_fract_x
_atom_site_fract_y
_atom_site_fract_z
Zn1	Zn	0.092852	-1.358111	0.717567
Zn2	Zn	0.592852	-0.858111	1.217567
Zn3	Zn	-0.054391	-1.324240	0.585580
Zn4	Zn	0.445609	-0.824240	1.085580
Zn5	Zn	0.033334	-1.190014	0.554203
Zn6	Zn	0.533334	-0.690014	1.054203
Zn7	Zn	-0.054319	-1.214332	0.695458
Zn8	Zn	0.445681	-0.714332	1.195458
O9	O	0.004369	-1.271674	0.638202
O10	O	0.504369	-0.771674	1.138202
O11	O	0.098198	-1.469963	0.722443
O12	O	0.598198	-0.969963	1.222443
O13	O	-0.067693	-1.282083	0.467065
O14	O	0.432307	-0.782083	0.967065
O15	O	0.139534	-1.216310	0.571995
O16	O	0.639534	-0.716310	1.071995
O17	O	-0.009981	-1.445079	0.625472
O18	O	0.490019	-0.945079	1.125472
O19	O	0.183262	-1.339810	0.692018
O20	O	0.683262	-0.839810	1.192018
O21	O	-0.003242	-1.183467	0.444012
O22	O	0.496758	-0.683467	0.944012
O23	O	-0.003172	-1.076894	0.550557
O24	O	0.496828	-0.576894	1.050557
O25	O	-0.009857	-1.257757	0.812744
O26	O	0.490143	-0.757757	1.312744
O27	O	-0.067570	-1.094761	0.654337
O28	O	0.432430	-0.594761	1.154337
O29	O	0.098269	-1.363390	0.828987
O30	O	0.598269	-0.863390	1.328987
O31	O	-0.152686	-1.305663	0.604034
O32	O	0.347314	-0.805663	1.104034
O33	O	-0.152633	-1.224914	0.684761
O34	O	0.347367	-0.724914	1.184761
C35	C	-0.041822	-1.055660	0.596643
C36	C	0.458178	-0.555660	1.096643
C37	C	-0.061595	-0.963252	0.578885
C38	C	0.438405	-0.463252	1.078885
C39	C	0.154691	-0.724147	0.773300
C40	C	0.654691	-0.224147	1.273300
C41	C	0.136090	-0.637311	0.756597
C42	C	0.636090	-0.137311	1.256597
C43	C	0.023559	-0.611395	0.655465
C44	C	0.523559	-0.111395	1.155465
C45	C	0.042149	-0.698231	0.672162
C46	C	0.542149	-0.198231	1.172162
C47	C	0.107717	-0.754601	0.731080
C48	C	0.607717	-0.254601	1.231080
C49	C	-0.004825	-0.728685	0.629942
C50	C	0.495175	-0.228685	1.129942
C51	C	0.013765	-0.815512	0.646636
C52	C	0.513765	-0.315512	1.146636
C53	C	0.079331	-0.871887	0.705549
C54	C	0.579331	-0.371887	1.205549
C55	C	0.126307	-0.841429	0.747773
C56	C	0.626307	-0.341429	1.247773
C57	C	-0.070389	-0.672313	0.571021
C58	C	0.429611	-0.172313	1.071021
C59	C	-0.117364	-0.702766	0.528801
C60	C	0.382636	-0.202766	1.028801
C61	C	-0.098776	-0.789596	0.545498
C62	C	0.401224	-0.289596	1.045498
C63	C	-0.033211	-0.845971	0.604411
C64	C	0.466789	-0.345971	1.104411
C65	C	-0.145753	-0.820054	0.503274
C66	C	0.354247	-0.320054	1.003274
C67	C	-0.127162	-0.906882	0.519967
C68	C	0.372838	-0.406882	1.019967
C69	C	-0.014620	-0.932799	0.621104
C70	C	0.485380	-0.432799	1.121104
C71	C	-0.178140	-1.264279	0.645425
C72	C	0.321860	-0.764279	1.145425
C73	C	-0.256196	-1.261197	0.648557
C74	C	0.243804	-0.761197	1.148557
C75	C	-0.292853	-1.301841	0.608050
C76	C	0.207147	-0.801841	1.108050
C77	C	-0.366193	-1.298948	0.611001
C78	C	0.133807	-0.798948	1.111001
C79	C	-0.402876	-1.255406	0.654456
C80	C	0.097124	-0.755406	1.154456
C81	C	-0.366213	-1.214761	0.694968
C82	C	0.133787	-0.714761	1.194968
C83	C	-0.292873	-1.217659	0.692021
C84	C	0.207127	-0.717659	1.192021
C85	C	-0.624315	-1.244554	0.665458
C86	C	-0.124315	-0.744554	1.165458
C87	C	-0.697661	-1.241656	0.668400
C88	C	-0.197661	-0.741656	1.168400
C89	C	-0.697636	-1.325846	0.584434
C90	C	-0.197636	-0.825846	1.084434
C91	C	-0.624296	-1.328736	0.581486
C92	C	-0.124296	-0.828736	1.081486
C93	C	-0.587638	-1.288094	0.622003
C94	C	-0.087638	-0.788094	1.122003
C95	C	-0.477842	-1.252446	0.657471
C96	C	0.022158	-0.752446	1.157471
C97	C	-0.512671	-1.291060	0.618992
C98	C	-0.012671	-0.791060	1.118992
C99	C	0.187600	-1.279125	0.630973
C100	C	0.687600	-0.779125	1.130973
C101	C	0.265682	-1.282301	0.627892
C102	C	0.765682	-0.782301	1.127892
C103	C	0.050853	-1.317064	0.851345
C104	C	0.550853	-0.817064	1.351345
C105	C	0.070662	-1.336407	0.942174
C106	C	0.570662	-0.836407	1.442174
C107	C	0.050749	-0.488532	0.679920
C108	C	0.550749	0.011468	1.179920
C109	C	0.070538	-0.580943	0.697689
C110	C	0.570538	-0.080943	1.197689
C111	C	-0.041873	-1.226511	0.425895
C112	C	0.458127	-0.726511	0.925895
C113	C	-0.061450	-1.207337	0.335090
C114	C	0.438550	-0.707337	0.835090
C115	C	-0.145665	-1.125066	1.198620
C116	C	0.354335	-0.625066	1.698620
C117	C	-0.127039	-1.143259	1.283970
C118	C	0.372961	-0.643259	1.783970
C119	C	-0.014458	-1.253245	1.300872
C120	C	0.485542	-0.753245	1.800872
C121	C	-0.033072	-1.235059	1.215521
C122	C	0.466928	-0.735059	1.715521
C123	C	-0.098678	-1.170969	1.164401
C124	C	0.401322	-0.670969	1.664401
C125	C	0.013915	-1.280962	1.181303
C126	C	0.513915	-0.780962	1.681303
C127	C	-0.004700	-1.262779	1.095959
C128	C	0.495300	-0.762779	1.595959
C129	C	-0.070303	-1.198694	1.044834
C130	C	0.429697	-0.698694	1.544834
C131	C	-0.117293	-1.152786	1.079058
C132	C	0.382707	-0.652786	1.579058
C133	C	0.079517	-1.345055	1.232425
C134	C	0.579517	-0.845055	1.732425
C135	C	0.126505	-1.390958	1.198206
C136	C	0.626505	-0.890958	1.698206
C137	C	0.107893	-1.372772	1.112861
C138	C	0.607893	-0.872772	1.612861
C139	C	0.042289	-1.308687	1.061736
C140	C	0.542289	-0.808687	1.561736
C141	C	0.154882	-1.418680	1.078637
C142	C	0.654882	-0.918680	1.578637
C143	C	0.136267	-1.400497	0.993294
C144	C	0.636267	-0.900497	1.493294
C145	C	0.023674	-1.290504	0.976392
C146	C	0.523674	-0.790504	1.476392
H147	H	0.094468	-0.942587	0.719136
H148	H	0.594468	-0.442587	1.219136
H149	H	-0.029736	-1.238296	0.934763
H150	H	0.470264	-0.738296	1.434763
H151	H	0.179697	-0.887329	0.795753
H152	H	0.679697	-0.387329	1.295753
H153	H	-0.263027	-1.184563	0.725008
H154	H	0.236973	-0.684563	1.225008
H155	H	-0.085461	-1.183894	0.975343
H156	H	0.414539	-0.683894	1.475343
Cl157	Cl	-0.186222	-0.945172	0.466898
Cl158	Cl	0.313778	-0.445172	0.966898
Cl159	Cl	-0.199787	-0.631894	0.454733
Cl160	Cl	0.300213	-0.131894	0.954733
Cl161	Cl	-0.186116	-1.085542	1.326984
Cl162	Cl	0.313884	-0.585542	1.826984
H163	H	0.179920	-1.443143	1.239840
H164	H	0.679920	-0.943143	1.739840
H165	H	-0.029824	-0.565487	0.607491
H166	H	0.470176	-0.065487	1.107491
H167	H	0.208081	-0.770048	0.821280
H168	H	0.708081	-0.270048	1.321280
H169	H	-0.262992	-1.337293	0.572660
H170	H	0.237008	-0.837293	1.072660
H171	H	-0.199075	-1.072858	1.156990
H172	H	0.300925	-0.572858	1.656990
H173	H	-0.170703	-1.100578	1.037428
H174	H	0.329297	-0.600578	1.537428
Cl175	Cl	-0.412272	-1.350050	0.560078
Cl176	Cl	0.087728	-0.850050	1.060078
H177	H	-0.594430	-1.364191	0.546102
H178	H	-0.094430	-0.864191	1.046102
H179	H	0.208294	-1.470867	1.120273
H180	H	0.708294	-0.970867	1.620273
Cl181	Cl	0.195155	-0.599030	0.809676
Cl182	Cl	0.695155	-0.099030	1.309676
Cl183	Cl	-0.412327	-1.160027	0.749603
Cl184	Cl	0.087673	-0.660027	1.249603
H185	H	-0.482801	-1.326516	0.583614
H186	H	0.017199	-0.826516	1.083614
Cl187	Cl	-0.093757	-0.563155	0.550030
Cl188	Cl	0.406243	-0.063155	1.050030
Cl189	Cl	-0.743722	-1.376941	0.533509
Cl190	Cl	-0.243722	-0.876941	1.033509
H191	H	0.174530	-1.437875	0.965433
H192	H	0.674530	-0.937875	1.465433
Cl193	Cl	0.068013	-1.333815	1.365145
Cl194	Cl	0.568013	-0.833815	1.865145
Cl195	Cl	-0.743781	-1.186900	0.723020
Cl196	Cl	-0.243781	-0.686900	1.223020
Cl197	Cl	-0.578241	-1.193459	0.716392
Cl198	Cl	-0.078241	-0.693459	1.216392
Cl199	Cl	0.067804	-1.003671	0.695181
Cl200	Cl	0.567804	-0.503671	1.195181
Cl201	Cl	-0.228171	-0.749179	0.429200
Cl202	Cl	0.271829	-0.249179	0.929200
H203	H	-0.507718	-1.216991	0.692850
H204	H	-0.007718	-0.716991	1.192850
H205	H	0.094671	-1.359859	1.301917
H206	H	0.594671	-0.859859	1.801917
