data_functionalizedCrystal
_audit_creation_method	'MofGen! by Chris Wilmer'
_symmetry_space_group_name_H-M	'P1'
_symmetry_Int_Tables_number	1
_symmetry_cell_setting	triclinic
loop_
_symmetry_equiv_pos_as_xyz
  x,y,z
_cell_length_a	14.395555
_cell_length_b	19.377369
_cell_length_c	19.377372
_cell_angle_alpha	62.058157
_cell_angle_beta	89.999543
_cell_angle_gamma	48.635948
loop_
_atom_site_label
_atom_site_type_symbol
_atom_site_fract_x
_atom_site_fract_y
_atom_site_fract_z
Zr1	Zr	0.727755	0.759440	0.055832
O2	O	0.512278	0.943868	-0.042100
O3	O	0.811362	0.607633	0.064497
O4	O	0.731394	0.806472	-0.072892
O5	O	0.635360	0.696553	0.227957
O6	O	0.884272	0.806465	-0.072886
O7	O	0.592246	0.745029	0.095288
O8	O	1.027319	0.450777	0.172877
O9	O	0.492313	1.052241	-0.017806
O10	O	0.939904	0.657986	0.094000
O11	O	0.857990	0.621815	0.193004
O12	O	0.763838	0.855923	0.031248
O13	O	0.681924	0.819752	0.130252
Zr14	Zr	1.040339	0.682116	0.267433
Zr15	Zr	0.971577	0.759428	0.055842
Zr16	Zr	0.796518	0.682128	0.267424
Zr17	Zr	0.695913	0.932282	0.094580
Zr18	Zr	1.072182	0.509274	0.228686
O19	O	0.956733	0.833923	0.258769
O20	O	0.858961	0.943851	-0.042087
O21	O	0.610050	0.833940	0.258756
O22	O	1.255816	0.497687	0.365366
O23	O	1.158045	0.607616	0.064510
O24	O	0.909133	0.497704	0.365353
O25	O	1.132734	0.745002	0.095309
O26	O	1.036700	0.635083	0.396157
O27	O	0.883823	0.635091	0.396151
O28	O	1.175849	0.696527	0.227978
O29	O	0.686119	1.052232	-0.017798
O30	O	1.081976	0.389324	0.341064
O31	O	1.275782	0.389315	0.341071
O32	O	1.221124	0.450768	0.172884
O33	O	0.546970	0.990788	0.150382
O34	O	0.740776	0.990778	0.150389
O35	O	1.004256	0.585633	0.292018
O36	O	1.086171	0.621804	0.193013
O37	O	0.910105	0.819741	0.130261
O38	O	0.828190	0.783570	0.229266
C39	C	0.923877	0.504579	0.113166
C40	C	0.937395	0.431203	0.096717
C41	C	0.579064	0.720793	0.161621
C42	C	0.475555	0.720798	0.161617
C43	C	0.768635	0.095063	0.301295
C44	C	0.781516	0.025998	0.285909
C45	C	0.867029	0.063767	0.182555
C46	C	0.854161	0.132832	0.197936
C47	C	0.804962	0.148474	0.257306
C48	C	0.890489	0.186243	0.153947
C49	C	0.877615	0.255307	0.169323
C50	C	0.828415	0.270958	0.228688
C51	C	0.792089	0.217538	0.272682
C52	C	0.939678	0.170606	0.094573
C53	C	0.976005	0.224018	0.050584
C54	C	0.963142	0.293076	0.065964
C55	C	0.913941	0.308728	0.125329
C56	C	0.999467	0.346497	0.021970
C57	C	0.986594	0.415560	0.037347
C58	C	0.901068	0.377791	0.140706
C59	C	0.318970	0.828719	0.127410
C60	C	0.283544	0.798922	0.078407
C61	C	0.326556	0.750594	0.210612
C62	C	0.441475	0.691020	0.112559
C63	C	0.484498	0.642686	0.244818
C64	C	0.449165	0.612816	0.195824
C65	C	1.189031	0.720763	0.161645
C66	C	1.292540	0.720758	0.161649
C67	C	0.798036	0.817484	-0.103036
C68	C	0.768844	0.850305	-0.192862
C69	C	0.844217	0.936977	0.210100
C70	C	0.830699	1.010353	0.226549
C71	C	1.132320	0.441657	-0.324513
C72	C	1.104861	0.472525	-0.408927
C73	C	0.921061	0.679156	-0.474426
C74	C	0.948510	0.648305	-0.390016
C75	C	1.054140	0.529554	-0.315065
C76	C	0.870329	0.736202	-0.380568
C77	C	0.897771	0.705354	-0.296165
C78	C	1.003393	0.586608	-0.221211
C79	C	1.081582	0.498706	-0.230662
C80	C	0.764693	0.854953	-0.455520
C81	C	0.686513	0.942850	-0.446072
C82	C	0.713961	0.912002	-0.361668
C83	C	0.819583	0.793257	-0.286713
C84	C	0.635772	0.999905	-0.352216
C85	C	0.663214	0.969057	-0.267813
C86	C	0.847025	0.762408	-0.202311
C87	C	0.970059	0.624072	0.426302
C88	C	0.999250	0.591250	0.516128
C89	C	1.228861	0.504564	0.113178
C90	C	1.345887	0.431183	0.096733
C91	C	1.009889	0.407873	0.377835
C92	C	1.052598	0.301675	0.451212
C93	C	1.314872	0.407858	0.377847
C94	C	1.461090	0.301655	0.451228
C95	C	0.453222	1.033698	-0.054581
C96	C	0.307004	1.139900	-0.127962
C97	C	0.539234	0.936992	0.210088
C98	C	0.422207	1.010373	0.226533
C99	C	0.758206	1.033683	-0.054569
C100	C	0.715496	1.139880	-0.127946
C101	C	1.324492	0.415612	0.037317
C102	C	1.434433	0.346680	0.021847
C103	C	1.565772	0.293312	0.065799
C104	C	1.587164	0.308889	0.125218
C105	C	1.477221	0.377827	0.140682
C106	C	1.149007	0.232914	0.537363
C107	C	1.189134	0.133137	0.606319
C108	C	1.132857	0.102119	0.589120
C109	C	1.036436	0.170891	0.502960
C110	C	0.996304	0.270670	0.434007
C111	C	1.572525	0.270663	0.434009
C112	C	1.709917	0.170887	0.502952
C113	C	1.735873	0.102101	0.589113
C114	C	1.624425	0.133101	0.606331
C115	C	1.487035	0.232880	0.537390
C116	C	0.195568	1.170901	-0.110741
C117	C	0.058172	1.270699	-0.179680
C118	C	0.032215	1.339488	-0.265839
C119	C	0.143664	1.308484	-0.283059
C120	C	0.281056	1.208693	-0.214120
C121	C	0.443598	1.025954	0.285942
C122	C	0.333646	1.094914	0.301392
C123	C	0.202306	1.148285	0.257438
C124	C	0.180915	1.132704	0.198022
C125	C	0.290864	1.063751	0.182568
C126	C	0.771799	1.170865	-0.110720
C127	C	0.731696	1.270637	-0.179660
C128	C	0.635282	1.339426	-0.265823
C129	C	0.578979	1.308434	-0.283048
C130	C	0.619090	1.208659	-0.214111
H131	H	0.861006	0.390527	0.189051
C132	C	1.295213	0.057496	0.701086
N133	N	1.375115	0.000523	0.772463
C134	C	0.804875	0.809778	-0.556880
N135	N	0.717365	0.908165	-0.618984
H136	H	0.371786	1.183456	-0.228153
H137	H	1.217554	0.459070	0.001513
C138	C	0.877867	1.095207	-0.015946
N139	N	0.957767	1.038222	0.055435
C140	C	0.577215	1.065748	-0.257419
N141	N	0.512436	1.138579	-0.249591
H142	H	1.016174	0.459051	0.001525
H143	H	0.122512	1.364505	-0.353218
C144	C	0.224086	1.095254	-0.015968
N145	N	0.245554	1.038287	0.055414
C146	C	1.030126	0.206799	-0.014720
N147	N	1.070897	0.193827	-0.063904
H148	H	0.817928	0.327200	0.241203
H149	H	0.752027	0.230273	0.321028
H150	H	0.550535	0.982500	0.321743
H151	H	0.728573	0.107798	0.349640
H152	H	-0.079665	1.420741	-0.321966
H153	H	0.073964	1.176169	0.162239
C154	C	1.686703	0.217472	0.048784
N155	N	1.777785	0.160346	0.035969
C156	C	0.357210	1.112028	0.366760
N157	N	0.374963	1.124913	0.415997
C158	C	0.081375	1.224125	0.274453
N159	N	-0.009703	1.281243	0.287274
C160	C	1.544005	0.346317	0.339238
N161	N	1.522534	0.403299	0.267858
H162	H	1.800647	0.145660	0.488916
C163	C	0.793638	1.304712	-0.160692
N164	N	0.840293	1.330375	-0.146402
H165	H	1.165547	0.020869	0.645274
C166	C	0.591170	1.449180	-0.341647
N167	N	0.557948	1.531847	-0.398754
C168	C	1.731652	0.250166	0.173565
N169	N	1.840487	0.205926	0.209985
C170	C	0.259517	0.784649	0.266577
N171	N	0.209020	0.810308	0.308725
C172	C	1.053575	0.329286	-0.043339
N173	N	1.094331	0.316322	-0.092530
C174	C	0.167372	0.888137	-0.016620
N175	N	0.079855	0.955343	-0.088190
C176	C	0.508265	0.657072	0.056484
N177	N	0.558568	0.631508	0.014245
H178	H	1.416989	0.334008	-0.026536
H179	H	0.549760	1.096591	-0.413252
C180	C	0.472976	1.384083	-0.377843
N181	N	0.393148	1.441057	-0.449246
H182	H	1.218341	0.344958	-0.263482
H183	H	1.494663	0.390491	0.189068
C184	C	1.210923	0.267018	0.556305
N185	N	1.257558	0.292702	0.570580
H186	H	0.990624	0.145620	0.488969
H187	H	0.917805	0.326647	0.363860
H188	H	0.573231	1.183444	-0.228148
H189	H	0.264929	0.920003	0.098412
H190	H	0.742353	0.880065	-0.524245
C191	C	1.887017	-0.007663	0.664940
N192	N	2.000862	-0.090339	0.722049
H193	H	1.396310	0.258100	0.551421
C194	C	0.600621	0.553554	0.339839
N195	N	0.688083	0.486433	0.411410
C196	C	0.963229	0.631775	-0.119858
N197	N	1.050749	0.533387	-0.057756
H198	H	0.907082	0.051026	0.134213
C199	C	1.197786	0.368073	-0.148210
N200	N	1.285306	0.269684	-0.086108
H201	H	0.751926	-0.017487	0.321732
H202	H	0.503409	0.521495	0.224745
C203	C	0.570326	1.073473	-0.528526
N204	N	0.482817	1.171860	-0.590629
H205	H	0.950148	0.114376	0.082051
H206	H	1.025728	0.561494	-0.152486
H207	H	1.168529	0.400940	-0.416611
H208	H	1.645581	0.077081	0.676492
H209	H	-0.032556	1.295924	-0.165642
H210	H	0.273429	1.051069	0.134194
