data_functionalizedCrystal
_audit_creation_method	'MofGen! by Chris Wilmer'
_symmetry_space_group_name_H-M	'P1'
_symmetry_Int_Tables_number	1
_symmetry_cell_setting	triclinic
loop_
_symmetry_equiv_pos_as_xyz
  x,y,z
_cell_length_a	19.805405
_cell_length_b	18.050591
_cell_length_c	19.805398
_cell_angle_alpha	90.024004
_cell_angle_beta	89.972363
_cell_angle_gamma	89.980508
loop_
_atom_site_label
_atom_site_type_symbol
_atom_site_fract_x
_atom_site_fract_y
_atom_site_fract_z
Zn1	Zn	-0.269615	-1.135302	-0.382858
Zn2	Zn	0.230385	-0.635302	0.117142
Zn3	Zn	-0.382800	-1.135217	-0.269667
Zn4	Zn	0.117200	-0.635217	0.230333
Zn5	Zn	-0.269617	-1.011121	-0.269667
Zn6	Zn	0.230383	-0.511121	0.230333
Zn7	Zn	-0.382754	-1.011073	-0.382797
Zn8	Zn	0.117246	-0.511073	0.117203
O9	O	-0.326196	-1.073178	-0.326247
O10	O	0.173804	-0.573178	0.173753
O11	O	-0.284648	-1.239215	-0.367869
O12	O	0.215352	-0.739215	0.132131
O13	O	-0.367806	-1.118739	-0.174950
O14	O	0.132194	-0.618739	0.325050
O15	O	-0.174900	-1.027650	-0.284708
O16	O	0.325100	-0.527650	0.215292
O17	O	-0.367804	-1.239152	-0.284707
O18	O	0.132196	-0.739152	0.215293
O19	O	-0.174898	-1.118885	-0.367869
O20	O	0.325102	-0.618885	0.132131
O21	O	-0.284651	-1.027567	-0.174950
O22	O	0.215349	-0.527567	0.325050
O23	O	-0.284606	-0.907190	-0.284649
O24	O	0.215394	-0.407190	0.215351
O25	O	-0.367725	-1.027568	-0.477522
O26	O	0.132275	-0.527568	0.022478
O27	O	-0.367727	-0.907155	-0.367765
O28	O	0.132273	-0.407155	0.132235
O29	O	-0.284603	-1.118838	-0.477567
O30	O	0.215397	-0.618838	0.022433
O31	O	-0.477510	-1.118693	-0.284648
O32	O	0.022490	-0.618693	0.215352
O33	O	-0.477476	-1.027485	-0.367765
O34	O	0.022524	-0.527485	0.132235
C35	C	-0.502052	-1.073095	-0.326215
C36	C	-0.002052	-0.573095	0.173785
C37	C	-0.577284	-1.073127	-0.326223
C38	C	-0.077284	-0.573127	0.173777
C39	C	-0.326162	-0.880226	-0.326201
C40	C	0.173838	-0.380226	0.173799
C41	C	-0.326164	-0.797680	-0.326197
C42	C	0.173836	-0.297680	0.173803
C43	C	-0.612624	-1.120665	-0.282990
C44	C	-0.112624	-0.620665	0.217010
C45	C	-0.683312	-1.120696	-0.283005
C46	C	-0.183312	-0.620696	0.216995
C47	C	-0.718660	-1.073186	-0.326250
C48	C	-0.218660	-0.573186	0.173750
C49	C	-0.683315	-1.025646	-0.369489
C50	C	-0.183315	-0.525646	0.130511
C51	C	-0.612628	-1.025618	-0.369477
C52	C	-0.112628	-0.525618	0.130523
C53	C	-0.968389	-1.025755	-0.369539
C54	C	-0.468389	-0.525755	0.130461
C55	C	-1.039081	-1.025784	-0.369546
C56	C	-0.539081	-0.525784	0.130454
C57	C	-1.039072	-1.120833	-0.283067
C58	C	-0.539072	-0.620833	0.216933
C59	C	-0.968385	-1.120806	-0.283055
C60	C	-0.468385	-0.620806	0.216945
C61	C	-0.933047	-1.073269	-0.326295
C62	C	-0.433047	-0.573269	0.173705
C63	C	-0.856399	-1.073236	-0.326280
C64	C	-0.356399	-0.573236	0.173720
C65	C	-0.795307	-1.073214	-0.326263
C66	C	-0.295307	-0.573214	0.173737
C67	C	-0.280901	-0.598227	-0.281092
C68	C	0.219099	-0.098227	0.218908
C69	C	-0.342633	-0.548810	-0.264430
C70	C	0.157367	-0.048810	0.235570
C71	C	-0.326177	-0.646550	-0.326220
C72	C	0.173823	-0.146550	0.173780
C73	C	-0.264459	-0.548886	-0.342873
C74	C	0.235541	-0.048886	0.157127
C75	C	-0.326185	-0.500565	-0.326241
C76	C	0.173815	-0.000565	0.173759
C77	C	-0.387942	-0.598220	-0.309526
C78	C	0.112058	-0.098220	0.190474
C79	C	-0.309727	-0.598300	-0.387997
C80	C	0.190273	-0.098300	0.112003
C81	C	-0.371502	-0.548905	-0.371358
C82	C	0.128498	-0.048905	0.128642
C83	C	-0.326172	-0.730648	-0.326206
C84	C	0.173828	-0.230648	0.173794
C85	C	-0.326197	-0.416468	-0.326255
C86	C	0.173803	0.083532	0.173745
C87	C	-0.149653	-1.073282	-0.326295
C88	C	0.350347	-0.573282	0.173705
C89	C	-0.074421	-1.073327	-0.326315
C90	C	0.425579	-0.573327	0.173685
C91	C	-0.326159	-1.073207	-0.502790
C92	C	0.173841	-0.573207	-0.002790
C93	C	-0.326143	-1.073220	-0.578022
C94	C	0.173857	-0.573220	-0.078022
C95	C	-0.326219	-0.266884	-0.326283
C96	C	0.173781	0.233116	0.173717
C97	C	-0.326199	-0.349430	-0.326266
C98	C	0.173801	0.150570	0.173734
C99	C	-0.282741	-1.120834	-1.039838
C100	C	0.217259	-0.620834	-0.539838
C101	C	-0.282762	-1.120822	-0.969149
C102	C	0.217238	-0.620822	-0.469149
C103	C	-0.326049	-1.073296	-0.933784
C104	C	0.173951	-0.573296	-0.433784
C105	C	-0.369322	-1.025783	-0.969111
C106	C	0.130678	-0.525783	-0.469111
C107	C	-0.369305	-1.025799	-1.039798
C108	C	0.130695	-0.525799	-0.539798
C109	C	-0.369396	-1.025719	-0.684038
C110	C	0.130604	-0.525719	-0.184038
C111	C	-0.369409	-1.025705	-0.613345
C112	C	0.130591	-0.525705	-0.113345
C113	C	-0.282853	-1.120742	-0.613389
C114	C	0.217147	-0.620742	-0.113389
C115	C	-0.282835	-1.120758	-0.684076
C116	C	0.217165	-0.620758	-0.184076
C117	C	-0.326111	-1.073248	-0.719397
C118	C	0.173889	-0.573248	-0.219397
C119	C	-0.326089	-1.073262	-0.796045
C120	C	0.173911	-0.573262	-0.296045
C121	C	-0.326068	-1.073277	-0.857137
C122	C	0.173932	-0.573277	-0.357137
C123	C	-0.326185	-1.073192	-0.150391
C124	C	0.173815	-0.573192	0.349609
C125	C	-0.326010	-1.073323	-0.075160
C126	C	0.173990	-0.573323	0.424840
H127	H	-0.583848	-1.159350	-0.247771
H128	H	-0.083848	-0.659350	0.252229
H129	H	-0.404658	-0.986999	-0.584553
H130	H	0.095342	-0.486999	-0.084553
H131	H	-0.583856	-0.986909	-0.404682
H132	H	-0.083856	-0.486909	0.095318
C133	C	-0.483998	-0.989481	-0.705733
C134	C	0.016002	-0.489481	-0.205733
C135	C	-0.416965	-0.973490	-0.722847
C136	C	0.083035	-0.473490	-0.222847
H137	H	-0.513367	-0.957231	-0.729690
H138	H	-0.013367	-0.457231	-0.229690
H139	H	-0.493907	-1.039368	-0.717334
H140	H	0.006093	-0.539368	-0.217334
H141	H	-0.490184	-0.982676	-0.658570
H142	H	0.009816	-0.482676	-0.158570
H143	H	-0.410778	-0.980301	-0.770010
H144	H	0.089222	-0.480301	-0.270010
H145	H	-0.407054	-0.923592	-0.711251
H146	H	0.092946	-0.423592	-0.211251
C147	C	-0.501820	-0.567436	-0.278728
C148	C	-0.001820	-0.067436	0.221272
C149	C	-0.458428	-0.627344	-0.290438
C150	C	0.041572	-0.127344	0.209562
H151	H	-0.545334	-0.585419	-0.266947
H152	H	-0.045334	-0.085419	0.233053
H153	H	-0.484571	-0.538098	-0.242849
H154	H	0.015429	-0.038098	0.257151
H155	H	-0.504992	-0.538170	-0.318453
H156	H	-0.004992	-0.038170	0.181547
H157	H	-0.455253	-0.656608	-0.250711
H158	H	0.044747	-0.156608	0.249289
H159	H	-0.475682	-0.656695	-0.326320
H160	H	0.024318	-0.156695	0.173680
C161	C	-0.455432	-0.579791	-0.454149
C162	C	0.044568	-0.079791	0.045851
C163	C	-0.423252	-0.519846	-0.422887
C164	C	0.076748	-0.019846	0.077113
H165	H	-0.487385	-0.561849	-0.485955
H166	H	0.012615	-0.061849	0.014045
H167	H	-0.422817	-0.609440	-0.476684
H168	H	0.077183	-0.109440	0.023316
H169	H	-0.477929	-0.608732	-0.421009
H170	H	0.022071	-0.108732	0.078991
H171	H	-0.400751	-0.490908	-0.456027
H172	H	0.099249	0.009092	0.043973
H173	H	-0.455873	-0.490185	-0.400352
H174	H	0.044127	0.009815	0.099648
H175	H	-0.404570	-0.987090	-0.940311
H176	H	0.095430	-0.487090	-0.440311
C177	C	-1.147444	-0.983623	-0.407962
C178	C	-0.647444	-0.483623	0.092038
C179	C	-1.077938	-0.973561	-0.417089
C180	C	-0.577938	-0.473561	0.082911
H181	H	-1.171432	-0.951381	-0.437308
H182	H	-0.671432	-0.451381	0.062692
H183	H	-1.158986	-1.033514	-0.417914
H184	H	-0.658986	-0.533514	0.082086
H185	H	-1.159055	-0.972785	-0.362474
H186	H	-0.659055	-0.472785	0.137526
H187	H	-1.066326	-0.984405	-0.462576
H188	H	-0.566326	-0.484405	0.037424
H189	H	-1.066391	-0.923659	-0.407141
H190	H	-0.566391	-0.423659	0.092859
C191	C	-0.888829	-1.220671	-0.273739
C192	C	-0.388829	-0.720671	0.226261
C193	C	-0.929529	-1.173030	-0.235519
C194	C	-0.429529	-0.673030	0.264481
H195	H	-0.864839	-1.252910	-0.244391
H196	H	-0.364839	-0.752910	0.255609
H197	H	-0.916369	-1.249067	-0.303254
H198	H	-0.416369	-0.749067	0.196746
H199	H	-0.857669	-1.192345	-0.299483
H200	H	-0.357669	-0.692345	0.200517
H201	H	-0.960693	-1.201356	-0.209779
H202	H	-0.460693	-0.701356	0.290221
H203	H	-0.901987	-1.144632	-0.205993
H204	H	-0.401987	-0.644632	0.294007
H205	H	-0.712082	-1.159406	-0.247799
H206	H	-0.212082	-0.659406	0.252201
C207	C	-0.226219	-0.602819	-0.475819
C208	C	0.273781	-0.102819	0.024181
C209	C	-0.290908	-0.627677	-0.458490
C210	C	0.209092	-0.127677	0.041510
H211	H	-0.214596	-0.620962	-0.519336
H212	H	0.285404	-0.120962	-0.019336
H213	H	-0.225681	-0.550205	-0.476242
H214	H	0.274319	-0.050205	0.023758
H215	H	-0.194508	-0.620446	-0.443635
H216	H	0.305492	-0.120446	0.056365
H217	H	-0.322621	-0.610046	-0.490671
H218	H	0.177379	-0.110046	0.009329
H219	H	-0.291452	-0.680302	-0.458072
H220	H	0.208548	-0.180302	0.041928
H221	H	-0.247530	-1.159512	-0.940393
H222	H	0.252470	-0.659512	-0.440393
H223	H	-0.212269	-0.527176	-0.356926
H224	H	0.287731	-0.027176	0.143074
C225	C	-0.197285	-1.214684	-0.620533
C226	C	0.302715	-0.714684	-0.120533
C227	C	-0.235286	-1.172972	-0.574563
C228	C	0.264714	-0.672972	-0.074563
H229	H	-0.167916	-1.246922	-0.596564
H230	H	0.332084	-0.746922	-0.096564
H231	H	-0.226771	-1.243079	-0.648101
H232	H	0.273229	-0.743079	-0.148101
H233	H	-0.171386	-1.182337	-0.648104
H234	H	0.328614	-0.682337	-0.148104
H235	H	-0.261188	-1.205319	-0.546996
H236	H	0.238812	-0.705319	-0.046996
H237	H	-0.205795	-1.144574	-0.546983
H238	H	0.294205	-0.644574	-0.046983
H239	H	-0.247584	-1.159456	-0.712867
H240	H	0.252416	-0.659456	-0.212867
H241	H	-0.247487	-1.159530	-1.068627
H242	H	0.252513	-0.659530	-0.568627
H243	H	-1.067853	-1.159543	-0.247861
H244	H	-0.567853	-0.659543	0.252139
C245	C	-0.483903	-0.989560	-1.061523
C246	C	0.016097	-0.489560	-0.561523
C247	C	-0.416867	-0.973573	-1.078625
C248	C	0.083133	-0.473573	-0.578625
H249	H	-0.513267	-0.957315	-1.085491
H250	H	-0.013267	-0.457315	-0.585491
H251	H	-0.493809	-1.039449	-1.073118
H252	H	0.006191	-0.539449	-0.573118
H253	H	-0.490099	-0.982747	-1.014362
H254	H	0.009901	-0.482747	-0.514362
H255	H	-0.410670	-0.980391	-1.125786
H256	H	0.089330	-0.480391	-0.625786
H257	H	-0.406958	-0.923672	-1.067035
H258	H	0.093042	-0.423672	-0.567035
C259	C	-0.975507	-0.931787	-0.455005
C260	C	-0.475507	-0.431787	0.044995
C261	C	-0.929551	-0.973489	-0.417055
C262	C	-0.429551	-0.473489	0.082945
H263	H	-0.951527	-0.899512	-0.484335
H264	H	-0.451527	-0.399512	0.015665
H265	H	-1.003035	-0.964133	-0.480937
H266	H	-0.503035	-0.464133	0.019063
H267	H	-1.003119	-0.903423	-0.425479
H268	H	-0.503119	-0.403423	0.074521
H269	H	-0.901942	-1.001856	-0.446581
H270	H	-0.401942	-0.501856	0.053419
H271	H	-0.902011	-0.941138	-0.391121
H272	H	-0.402011	-0.441138	0.108879
H273	H	-0.242656	-0.619884	-0.242891
H274	H	0.257344	-0.119884	0.257109
C275	C	-0.791676	-0.983475	-0.407902
C276	C	-0.291676	-0.483475	0.092098
C277	C	-0.722168	-0.973418	-0.417024
C278	C	-0.222168	-0.473418	0.082976
H279	H	-0.815659	-0.951226	-0.437245
H280	H	-0.315659	-0.451226	0.062755
H281	H	-0.803221	-1.033364	-0.417861
H282	H	-0.303221	-0.533364	0.082139
H283	H	-0.803288	-0.972644	-0.362413
H284	H	-0.303288	-0.472644	0.137587
H285	H	-0.710555	-0.984255	-0.462511
H286	H	-0.210555	-0.484255	0.037489
H287	H	-0.710619	-0.923518	-0.407069
H288	H	-0.210619	-0.423518	0.092931
H289	H	-0.356555	-0.527072	-0.212195
H290	H	0.143445	-0.027072	0.287805
