data_functionalizedCrystal
_audit_creation_method	'MofGen! by Chris Wilmer'
_symmetry_space_group_name_H-M	'P1'
_symmetry_Int_Tables_number	1
_symmetry_cell_setting	triclinic
loop_
_symmetry_equiv_pos_as_xyz
  x,y,z
_cell_length_a	21.395364
_cell_length_b	19.805405
_cell_length_c	21.395355
_cell_angle_alpha	90.017223
_cell_angle_beta	90.024552
_cell_angle_gamma	90.041677
loop_
_atom_site_label
_atom_site_type_symbol
_atom_site_fract_x
_atom_site_fract_y
_atom_site_fract_z
Zn1	Zn	0.957877	-0.269272	0.354267
Zn2	Zn	0.957786	-0.382441	0.249492
Zn3	Zn	0.853092	-0.269301	0.249504
Zn4	Zn	0.853068	-0.382453	0.354232
O5	O	0.905456	-0.325867	0.301874
O6	O	1.045542	-0.284266	0.340378
O7	O	0.943870	-0.367440	0.161816
O8	O	0.867039	-0.174581	0.263420
O9	O	1.045476	-0.367412	0.263400
O10	O	0.944024	-0.174559	0.340390
O11	O	0.866952	-0.284317	0.161824
O12	O	0.765411	-0.284329	0.263387
O13	O	0.866999	-0.367432	0.441915
O14	O	0.765393	-0.367461	0.340330
O15	O	0.944001	-0.284278	0.441940
O16	O	0.943848	-0.477160	0.263366
O17	O	0.866911	-0.477168	0.340319
C18	C	0.742668	-0.325900	0.301856
C19	C	0.673027	-0.325930	0.301864
C20	C	0.640370	-0.282707	0.342008
C21	C	0.574935	-0.282689	0.342010
C22	C	0.542158	-0.325906	0.301875
C23	C	0.574823	-0.369132	0.261723
C24	C	0.640257	-0.369144	0.261717
C25	C	0.438438	-0.386861	0.296839
C26	C	0.373005	-0.386850	0.296849
C27	C	0.340338	-0.325869	0.301889
C28	C	0.373111	-0.264897	0.306932
C29	C	0.438545	-0.264909	0.306926
C30	C	0.471206	-0.325898	0.301876
C31	C	0.236729	-0.282623	0.342038
C32	C	0.171292	-0.282604	0.342036
C33	C	0.171181	-0.369053	0.261752
C34	C	0.236616	-0.369066	0.261751
C35	C	0.269386	-0.325852	0.301897
C36	C	0.905384	-0.501723	0.301851
C37	C	0.905411	-0.576955	0.301862
C38	C	0.945473	-0.612230	0.341972
C39	C	0.945496	-0.682918	0.341983
C40	C	0.905459	-0.718330	0.301882
C41	C	0.865392	-0.683051	0.261771
C42	C	0.865367	-0.612364	0.261763
C43	C	0.865493	-0.968124	0.261803
C44	C	0.865522	-1.038816	0.261813
C45	C	0.945622	-1.038678	0.342023
C46	C	0.945597	-0.967991	0.342015
C47	C	0.905528	-0.932718	0.301907
C48	C	0.905503	-0.856069	0.301896
C49	C	0.905486	-0.794978	0.301890
C50	C	1.068879	-0.325834	0.301892
C51	C	1.138520	-0.325820	0.301899
C52	C	0.905508	-0.325853	0.465297
C53	C	0.905530	-0.325847	0.534938
C54	C	0.905544	-0.149324	0.301910
C55	C	0.905582	-0.074092	0.301926
C56	C	0.905440	-0.325832	0.139086
C57	C	0.905539	-0.325647	0.069445
C58	C	0.945623	-0.282547	0.567666
C59	C	0.945622	-0.282518	0.633101
C60	C	0.905535	-0.325801	0.665807
C61	C	0.865433	-0.369105	0.633071
C62	C	0.865431	-0.369128	0.567637
C63	C	0.900563	-0.386747	0.769474
C64	C	0.900569	-0.386725	0.834907
C65	C	0.905539	-0.325730	0.867628
C66	C	0.910514	-0.264754	0.834908
C67	C	0.910511	-0.264778	0.769473
C68	C	0.905533	-0.325781	0.736759
C69	C	0.945633	-0.282394	0.971308
C70	C	0.945628	-0.282364	1.036744
C71	C	0.865442	-0.368957	1.036713
C72	C	0.865444	-0.368981	0.971278
C73	C	0.905543	-0.325701	0.938579
H74	H	0.465227	-0.215264	0.311031
Br75	Br	0.684841	-0.224060	0.396492
Br76	Br	0.917263	-0.181969	0.879306
H77	H	0.896349	-0.436404	0.742838
H78	H	0.832916	-1.067647	0.229157
Br79	Br	0.684579	-0.427805	0.207228
H80	H	0.346515	-0.215241	0.311036
Br81	Br	1.000001	-1.086553	0.396459
Br82	Br	0.281206	-0.223973	0.396517
H83	H	0.832792	-0.404344	0.659704
H84	H	0.978274	-0.247304	0.541047
Br85	Br	0.999938	-0.919935	0.396437
Br86	Br	0.811013	-0.427896	0.523218
Br87	Br	0.811047	-0.731110	0.207355
H88	H	0.978079	-0.583401	0.374624
H89	H	0.978124	-0.711635	0.374639
H90	H	0.978270	-0.247254	0.659753
Br91	Br	0.810992	-0.564490	0.207330
H92	H	0.144705	-0.247402	0.374725
H93	H	0.914561	-0.215129	0.742836
H94	H	0.978280	-0.247149	0.944683
Br95	Br	0.811028	-0.427691	1.081092
Br96	Br	0.811106	-0.920262	0.207378
Br97	Br	1.000055	-0.223604	1.081162
Br98	Br	0.811030	-0.427750	0.926859
Br99	Br	0.893826	-0.469476	0.879306
H100	H	0.144495	-0.404241	0.229073
Br101	Br	0.530606	-0.224023	0.396493
H102	H	0.263205	-0.404266	0.229063
H103	H	0.346326	-0.436497	0.292745
Br104	Br	0.530342	-0.427779	0.207248
Br105	Br	0.482765	-0.469627	0.289986
