data_functionalizedCrystal
_audit_creation_method	'MofGen! by Chris Wilmer'
_symmetry_space_group_name_H-M	'P1'
_symmetry_Int_Tables_number	1
_symmetry_cell_setting	triclinic
loop_
_symmetry_equiv_pos_as_xyz
  x,y,z
_cell_length_a	13.897449
_cell_length_b	21.295417
_cell_length_c	13.897441
_cell_angle_alpha	89.964549
_cell_angle_beta	89.978743
_cell_angle_gamma	90.031333
loop_
_atom_site_label
_atom_site_type_symbol
_atom_site_fract_x
_atom_site_fract_y
_atom_site_fract_z
Zn1	Zn	1.474596	-0.250581	-0.545411
Zn2	Zn	1.474460	-0.355858	-0.384096
Zn3	Zn	1.313292	-0.250609	-0.384121
Zn4	Zn	1.313231	-0.355818	-0.545341
O5	O	1.393895	-0.303217	-0.464742
O6	O	1.609560	-0.264552	-0.524030
O7	O	1.453049	-0.341925	-0.249117
O8	O	1.334771	-0.162516	-0.405557
O9	O	1.609460	-0.341899	-0.405513
O10	O	1.453281	-0.162496	-0.524055
O11	O	1.334639	-0.264599	-0.249136
O12	O	1.178302	-0.264559	-0.405489
O13	O	1.334668	-0.341830	-0.680332
O14	O	1.178258	-0.341856	-0.523936
O15	O	1.453223	-0.264513	-0.680383
O16	O	1.452991	-0.443943	-0.405445
O17	O	1.334536	-0.443913	-0.523911
C18	C	1.143281	-0.303207	-0.464708
C19	C	1.036067	-0.303218	-0.464717
C20	C	0.948997	-0.303220	-0.464733
C21	C	0.839764	-0.303224	-0.464762
C22	C	1.393768	-0.466768	-0.464689
C23	C	1.393803	-0.536736	-0.464698
C24	C	1.455537	-0.569598	-0.403076
C25	C	1.455582	-0.635340	-0.403098
C26	C	1.393876	-0.668219	-0.464731
C27	C	1.332137	-0.635350	-0.526365
C28	C	1.332101	-0.569608	-0.526349
N29	N	1.309495	-0.771485	-0.472074
N30	N	1.309532	-0.833937	-0.472084
C31	C	1.393984	-0.866294	-0.464787
N32	N	1.478399	-0.833840	-0.457460
N33	N	1.478360	-0.771383	-0.457445
C34	C	1.393909	-0.739504	-0.464757
C35	C	1.455772	-0.970440	-0.403185
C36	C	1.455819	-1.036184	-0.403213
C37	C	1.332366	-1.036192	-0.526476
C38	C	1.332328	-0.970450	-0.526453
C39	C	1.394029	-0.937578	-0.464802
C40	C	1.645488	-0.303227	-0.464776
C41	C	1.752702	-0.303231	-0.464791
C42	C	1.393954	-0.303164	-0.716335
C43	C	1.393979	-0.303141	-0.823549
C44	C	1.394048	-0.139026	-0.464817
C45	C	1.394113	-0.069058	-0.464849
C46	C	1.393999	-0.303123	-0.910619
C47	C	1.394027	-0.303095	-1.019852
C48	C	1.393892	-0.303224	-0.214128
C49	C	1.394053	-0.303069	-0.106914
H50	H	1.505856	-0.662101	-0.352918
H51	H	1.281898	-0.662124	-0.576550
H52	H	1.281829	-0.542852	-0.576530
N53	N	1.518802	-0.936867	-0.340208
N54	N	1.573925	-0.966219	-0.285196
H55	H	1.618441	-0.942510	-0.240717
H56	H	1.506096	-1.062938	-0.353035
H57	H	1.505780	-0.542835	-0.352879
H58	H	1.282128	-1.062962	-0.576664
H59	H	1.282054	-0.943693	-0.576627
