data_functionalizedCrystal
_audit_creation_method	'MofGen! by Chris Wilmer'
_symmetry_space_group_name_H-M	'P1'
_symmetry_Int_Tables_number	1
_symmetry_cell_setting	triclinic
loop_
_symmetry_equiv_pos_as_xyz
  x,y,z
_cell_length_a	14.519709
_cell_length_b	10.654550
_cell_length_c	12.996460
_cell_angle_alpha	90.000521
_cell_angle_beta	89.999398
_cell_angle_gamma	95.917476
loop_
_atom_site_label
_atom_site_type_symbol
_atom_site_fract_x
_atom_site_fract_y
_atom_site_fract_z
O1	O	-1.224724	0.164614	0.085433
O2	O	-0.724724	0.664614	0.585433
O3	O	-0.956348	0.184001	0.085465
O4	O	-0.456348	0.684001	0.585465
O5	O	-1.096706	-0.008491	0.085441
O6	O	-0.596706	0.491509	0.585441
O7	O	-1.084365	0.357106	0.085457
O8	O	-0.584365	0.857106	0.585457
O9	O	-1.096688	-0.008480	-0.085693
O10	O	-0.596688	0.491520	0.414307
O11	O	-0.956329	0.184012	-0.085669
O12	O	-0.456329	0.684012	0.414331
O13	O	-1.224706	0.164626	-0.085700
O14	O	-0.724706	0.664626	0.414300
Cu15	Cu	-1.090516	0.174320	-0.101310
Cu16	Cu	-0.590516	0.674320	0.398690
Cu17	Cu	-1.090537	0.174307	0.101075
Cu18	Cu	-0.590537	0.674307	0.601075
O19	O	-1.084347	0.357117	-0.085676
O20	O	-0.584347	0.857117	0.414324
C21	C	-0.921974	0.183103	-0.000098
C22	C	-0.421974	0.683103	0.499902
C23	C	-0.819579	0.180396	-0.000086
C24	C	-0.319579	0.680396	0.499914
C25	C	-1.095791	-0.055275	-0.000126
C26	C	-0.595791	0.444725	0.499874
C27	C	-1.093080	-0.194692	-0.000124
C28	C	-0.593080	0.305308	0.499876
C29	C	-1.259079	0.165524	-0.000135
C30	C	-0.759079	0.665524	0.499865
C31	C	-1.361475	0.168231	-0.000140
C32	C	-0.861475	0.668231	0.499860
C33	C	-0.444631	0.170428	-0.000133
C34	C	0.055369	0.670428	0.499867
C35	C	-0.548954	0.173196	-0.000120
C36	C	-0.048954	0.673196	0.499880
C37	C	-0.632102	0.175412	-0.000109
C38	C	-0.132102	0.675412	0.499891
C39	C	-0.736431	0.178180	-0.000097
C40	C	-0.236431	0.678180	0.499903
C41	C	-1.085262	0.403901	-0.000108
C42	C	-0.585262	0.903901	0.499892
C43	C	-1.087973	0.543318	-0.000102
C44	C	-0.587973	1.043318	0.499898
N45	N	-1.090508	0.174328	-0.243658
N46	N	-0.590508	0.674328	0.256342
C47	C	-1.005332	0.623599	-0.000102
C48	C	-0.505332	1.123599	0.499898
C49	C	-1.007885	0.754595	-0.000110
C50	C	-0.507885	1.254595	0.499890
C51	C	-1.175727	0.725018	-0.000121
C52	C	-0.675727	1.225018	0.499879
C53	C	-1.173173	0.594024	-0.000106
C54	C	-0.673173	1.094024	0.499894
C55	C	-0.920132	0.572893	-0.000098
C56	C	-0.420132	1.072893	0.499902
C57	C	-0.837485	0.653175	-0.000099
C58	C	-0.337485	1.153175	0.499901
C59	C	-0.840037	0.784171	-0.000106
C60	C	-0.340037	1.284171	0.499894
C61	C	-0.925238	0.834886	-0.000113
C62	C	-0.425238	1.334886	0.499887
C63	C	-1.090512	0.174332	-0.336764
C64	C	-0.590512	0.674332	0.163236
C65	C	-1.090520	0.174323	-0.453569
C66	C	-0.590520	0.674323	0.046431
C67	C	-1.090532	0.174309	-0.546667
C68	C	-0.590532	0.674309	-0.046667
C69	C	-1.090542	0.174302	-0.663480
C70	C	-0.590542	0.674302	-0.163480
N71	N	-1.090553	0.174288	0.243422
N72	N	-0.590553	0.674288	0.743422
H73	H	-0.918044	0.466231	-0.000093
H74	H	-0.418044	0.966231	0.499907
C75	C	-1.269442	0.780802	-0.000139
C76	C	-0.769442	1.280802	0.499861
C77	C	-1.294266	0.866772	-0.089021
C78	C	-0.794266	1.366772	0.410979
C79	C	-1.387983	0.922555	-0.089044
C80	C	-0.887983	1.422555	0.410956
C81	C	-1.456875	0.892368	-0.000184
C82	C	-0.956875	1.392368	0.499816
C83	C	-1.432053	0.806393	0.088704
C84	C	-0.932053	1.306393	0.588704
C85	C	-1.338337	0.750611	0.088727
C86	C	-0.838337	1.250611	0.588727
H87	H	-1.243266	0.889122	-0.154806
H88	H	-0.743266	1.389122	0.345194
H89	H	-1.406357	0.986199	-0.154845
H90	H	-0.906357	1.486199	0.345155
H91	H	-1.526250	0.933661	-0.000201
H92	H	-1.026250	1.433661	0.499799
H93	H	-1.483053	0.784043	0.154489
H94	H	-0.983053	1.284043	0.654489
H95	H	-1.319962	0.686967	0.154528
H96	H	-0.819962	1.186967	0.654528
H97	H	-0.768117	0.611874	-0.000085
H98	H	-0.268117	1.111874	0.499915
C99	C	-1.264076	0.505703	-0.000111
C100	C	-0.764076	1.005703	0.499889
C101	C	-1.333653	0.511486	-0.088986
C102	C	-0.833653	1.011486	0.411014
C103	C	-1.424557	0.423163	-0.088987
C104	C	-0.924557	0.923163	0.411013
C105	C	-1.445885	0.329056	-0.000112
C106	C	-0.945885	0.829056	0.499888
C107	C	-1.376306	0.323268	0.088770
C108	C	-0.876306	0.823268	0.588770
C109	C	-1.285402	0.411592	0.088770
C110	C	-0.785402	0.911592	0.588770
H111	H	-1.317866	0.581153	-0.154783
H112	H	-0.817866	1.081153	0.345217
H113	H	-1.476063	0.427448	-0.154783
H114	H	-0.976063	0.927448	0.345217
H115	H	-1.513177	0.263673	-0.000112
H116	H	-1.013177	0.763673	0.499888
H117	H	-1.392093	0.253601	0.154566
H118	H	-0.892093	0.753601	0.654566
H119	H	-1.233896	0.407307	0.154567
H120	H	-0.733896	0.907307	0.654567
H121	H	-0.772742	0.849533	-0.000098
H122	H	-0.272742	1.349533	0.499902
H123	H	-0.927310	0.941553	-0.000114
H124	H	-0.427310	1.441553	0.499886
