data_functionalizedCrystal
_audit_creation_method	'MofGen! by Chris Wilmer'
_symmetry_space_group_name_H-M	'P1'
_symmetry_Int_Tables_number	1
_symmetry_cell_setting	triclinic
loop_
_symmetry_equiv_pos_as_xyz
  x,y,z
_cell_length_a	11.792241
_cell_length_b	19.188930
_cell_length_c	10.868271
_cell_angle_alpha	89.989749
_cell_angle_beta	89.999893
_cell_angle_gamma	83.669099
loop_
_atom_site_label
_atom_site_type_symbol
_atom_site_fract_x
_atom_site_fract_y
_atom_site_fract_z
O1	O	1.505476	0.095695	-0.102218
O2	O	1.174987	0.105557	-0.102248
O3	O	1.349769	-0.000975	-0.102208
O4	O	1.330695	0.202228	-0.102258
O5	O	1.349755	-0.000980	0.102437
O6	O	1.174973	0.105553	0.102396
O7	O	1.505462	0.095691	0.102427
Zn8	Zn	1.340215	0.100621	0.134903
Zn9	Zn	1.340234	0.100627	-0.134725
O10	O	1.330680	0.202224	0.102387
C11	C	1.132699	0.104936	0.000071
C12	C	1.006713	0.103082	0.000060
C13	C	0.776051	0.099672	0.000096
C14	C	0.904408	0.101566	0.000076
C15	C	1.349144	-0.026992	0.000118
C16	C	1.347290	-0.104507	0.000128
C17	C	1.449846	-0.148850	0.000143
C18	C	1.448104	-0.221684	0.000123
C19	C	1.343800	-0.250171	0.000113
C20	C	1.241230	-0.205818	0.000091
C21	C	1.242975	-0.132986	0.000098
N22	N	1.264067	-0.358629	0.069750
N23	N	1.262417	-0.427817	0.069746
C24	C	1.338536	-0.469609	0.000088
N25	N	1.416386	-0.439602	-0.069550
N26	N	1.418040	-0.370408	-0.069540
C27	C	1.341896	-0.329144	0.000104
C28	C	1.439211	-0.592928	0.000080
C29	C	1.437464	-0.665762	0.000052
C30	C	1.230588	-0.649895	0.000032
C31	C	1.232337	-0.577062	0.000047
C32	C	1.336652	-0.548583	0.000077
C33	C	1.547751	0.096313	0.000105
C34	C	1.673737	0.098167	0.000108
C35	C	1.331305	0.228240	0.000058
C36	C	1.333159	0.305755	0.000040
N37	N	1.340211	0.100617	0.318917
N38	N	1.340248	0.100626	-0.318739
C39	C	1.340228	0.100625	0.569923
C40	C	1.340215	0.100623	0.430246
H41	H	1.534787	-0.125667	0.000163
O42	O	1.540563	-0.565289	-0.000130
C43	C	1.603073	-0.587908	-0.106104
H44	H	1.542073	-0.603279	-0.180186
H45	H	1.666559	-0.635132	-0.082148
C46	C	1.742919	-0.509181	-0.063164
C47	C	1.667997	-0.528055	-0.154157
H48	H	1.782972	-0.472263	-0.092804
H49	H	1.700808	-0.493944	0.008235
H50	H	1.795813	-0.548539	-0.043209
H51	H	1.615096	-0.488699	-0.174099
H52	H	1.710101	-0.543284	-0.225562
H53	H	1.531620	-0.257795	0.000131
H54	H	1.148825	-0.540957	0.000042
O55	O	1.129196	-0.677478	0.000184
C56	C	1.066699	-0.654886	0.106181
H57	H	1.097372	-0.604265	0.141530
H58	H	1.080049	-0.696987	0.180392
C59	C	0.901288	-0.703887	0.030555
C60	C	0.938955	-0.641711	0.073964
H61	H	0.822489	-0.695764	0.010685
H62	H	0.943394	-0.719111	-0.040856
H63	H	0.912424	-0.738966	0.092404
H64	H	0.927832	-0.606637	0.012110
H65	H	0.896844	-0.626482	0.145365
H66	H	1.520981	-0.701866	0.000058
O67	O	1.139881	-0.233455	-0.000136
C68	C	1.077382	-0.210807	-0.106116
H69	H	1.138389	-0.195418	-0.180185
H70	H	1.013896	-0.163588	-0.082161
C71	C	0.937527	-0.289541	-0.063213
C72	C	1.012459	-0.270646	-0.154191
H73	H	0.897475	-0.326451	-0.092866
H74	H	0.979631	-0.304798	0.008190
H75	H	0.884633	-0.250187	-0.043259
H76	H	1.065359	-0.309997	-0.174132
H77	H	0.970362	-0.255397	-0.225599
O78	O	1.143377	-0.089879	-0.000128
C79	C	1.138221	-0.047246	-0.106092
H80	H	1.196397	-0.073685	-0.180168
H81	H	1.167332	0.005816	-0.082114
C82	C	0.943224	-0.004169	-0.063183
C83	C	1.014670	-0.036644	-0.154169
H84	H	0.867012	0.002374	-0.092838
H85	H	0.946698	-0.032889	0.008209
H86	H	0.967497	0.040047	-0.043211
H87	H	0.990405	-0.080862	-0.174129
H88	H	1.011188	-0.007931	-0.225566
