data_functionalizedCrystal
_audit_creation_method	'MofGen! by Chris Wilmer'
_symmetry_space_group_name_H-M	'P1'
_symmetry_Int_Tables_number	1
_symmetry_cell_setting	triclinic
loop_
_symmetry_equiv_pos_as_xyz
  x,y,z
_cell_length_a	18.050591
_cell_length_b	25.639240
_cell_length_c	18.050582
_cell_angle_alpha	90.031820
_cell_angle_beta	90.020922
_cell_angle_gamma	90.028762
loop_
_atom_site_label
_atom_site_type_symbol
_atom_site_fract_x
_atom_site_fract_y
_atom_site_fract_z
Zn1	Zn	1.135269	-0.208240	0.419984
Zn2	Zn	1.635269	0.291760	0.919984
Zn3	Zn	1.135170	-0.295667	0.295774
Zn4	Zn	1.635170	0.204333	0.795774
Zn5	Zn	1.011088	-0.208242	0.295795
Zn6	Zn	1.511088	0.291758	0.795795
Zn7	Zn	1.011026	-0.295640	0.419909
Zn8	Zn	1.511026	0.204360	0.919909
O9	O	1.073138	-0.251947	0.357865
O10	O	1.573138	0.248053	0.857865
O11	O	1.239181	-0.219848	0.403529
O12	O	1.739181	0.280152	0.903529
O13	O	1.118695	-0.284083	0.191852
O14	O	1.618695	0.215917	0.691852
O15	O	1.027629	-0.135076	0.312309
O16	O	1.527629	0.364924	0.812309
O17	O	1.239108	-0.284081	0.312273
O18	O	1.739108	0.215919	0.812273
O19	O	1.118864	-0.135075	0.403550
O20	O	1.618864	0.364925	0.903550
O21	O	1.027532	-0.219851	0.191867
O22	O	1.527532	0.280149	0.691867
O23	O	0.907156	-0.219825	0.312236
O24	O	1.407156	0.280175	0.812236
O25	O	1.027523	-0.284034	0.523844
O26	O	1.527523	0.215966	1.023844
O27	O	0.907110	-0.284036	0.403423
O28	O	1.407110	0.215964	0.903423
O29	O	1.118804	-0.219821	0.523898
O30	O	1.618804	0.280179	1.023898
O31	O	1.118635	-0.368829	0.312200
O32	O	1.618635	0.131171	0.812200
O33	O	1.027427	-0.368809	0.403402
O34	O	1.527427	0.131191	0.903402
C35	C	0.880186	-0.251928	0.357824
C36	C	1.380186	0.248072	0.857824
C37	C	0.797641	-0.251932	0.357824
C38	C	1.297641	0.248068	0.857824
C39	C	0.598193	-0.216974	0.308351
C40	C	1.098193	0.283026	0.808351
C41	C	0.548768	-0.264661	0.290064
C42	C	1.048768	0.235339	0.790064
C43	C	0.646510	-0.251948	0.357858
C44	C	1.146510	0.248052	0.857858
C45	C	0.548854	-0.204277	0.376143
C46	C	1.048854	0.295723	0.876143
C47	C	0.500525	-0.251959	0.357889
C48	C	1.000525	0.248041	0.857889
C49	C	0.598172	-0.299660	0.339535
C50	C	1.098172	0.200340	0.839535
C51	C	0.598262	-0.239244	0.425646
C52	C	1.098262	0.260756	0.925646
C53	C	0.548859	-0.286965	0.407384
C54	C	1.048859	0.213035	0.907384
C55	C	0.730608	-0.251941	0.357838
C56	C	1.230608	0.248059	0.857838
C57	C	0.416429	-0.251971	0.357909
C58	C	0.916429	0.248029	0.857909
C59	C	1.073034	-0.387790	0.357807
C60	C	1.573034	0.112210	0.857807
C61	C	1.073057	-0.445904	0.357807
C62	C	1.573057	0.054096	0.857807
C63	C	1.120668	-0.806228	0.405460
C64	C	1.620668	-0.306228	0.905460
C65	C	1.120690	-0.860832	0.405475
C66	C	1.620690	-0.360832	0.905475
O67	O	1.161046	-0.889035	0.445932
O68	O	1.661046	-0.389035	0.945932
N69	N	1.073241	-0.888186	0.357937
N70	N	1.573241	-0.388186	0.857937
C71	C	1.025763	-0.860933	0.310386
C72	C	1.525763	-0.360933	0.810386
O73	O	0.985405	-0.889214	0.269953
O74	O	1.485405	-0.389214	0.769953
C75	C	1.025738	-0.806330	0.310375
C76	C	1.525738	-0.306330	0.810375
C77	C	1.073195	-0.778979	0.357911
C78	C	1.573195	-0.278979	0.857911
C79	C	1.168121	-0.778876	0.452993
C80	C	1.668121	-0.278876	0.952993
C81	C	1.168100	-0.724275	0.452977
C82	C	1.668100	-0.224275	0.952977
C83	C	1.120626	-0.697027	0.405428
C84	C	1.620626	-0.197027	0.905428
C85	C	1.073173	-0.724378	0.357895
C86	C	1.573173	-0.224378	0.857895
C87	C	0.978255	-0.779078	0.262828
C88	C	1.478255	-0.279078	0.762828
C89	C	0.978234	-0.724471	0.262822
C90	C	1.478234	-0.224471	0.762822
C91	C	1.025691	-0.697120	0.310358
C92	C	1.525691	-0.197120	0.810358
C93	C	1.025679	-0.642529	0.310330
C94	C	1.525679	-0.142529	0.810330
N95	N	1.073127	-0.615174	0.357868
N96	N	1.573127	-0.115174	0.857868
C97	C	1.120601	-0.642423	0.405417
C98	C	1.620601	-0.142423	0.905417
C99	C	1.025818	-0.975604	0.310413
C100	C	1.525818	-0.475604	0.810413
C101	C	1.025846	-1.030206	0.310420
C102	C	1.525846	-0.530206	0.810420
C103	C	1.120773	-1.030101	0.405510
C104	C	1.620773	-0.530101	0.905510
C105	C	1.120748	-0.975498	0.405499
C106	C	1.620748	-0.475498	0.905499
C107	C	1.073267	-0.948250	0.357951
C108	C	1.573267	-0.448250	0.857951
C109	C	1.120553	-0.527758	0.405379
C110	C	1.620553	-0.027758	0.905379
C111	C	1.120530	-0.473153	0.405356
C112	C	1.620530	0.026847	0.905356
C113	C	1.025601	-0.473263	0.310269
C114	C	1.525601	0.026737	0.810269
C115	C	1.025627	-0.527863	0.310288
C116	C	1.525627	-0.027863	0.810288
C117	C	1.073105	-0.555110	0.357849
C118	C	1.573105	-0.055110	0.857849
O119	O	0.985341	-0.614291	0.269896
O120	O	1.485341	-0.114291	0.769896
O121	O	1.160944	-0.614136	0.445850
O122	O	1.660944	-0.114136	0.945850
C123	C	1.266844	-0.251967	0.357907
C124	C	1.766844	0.248033	0.857907
C125	C	1.349390	-0.251976	0.357925
C126	C	1.849390	0.248024	0.857925
C127	C	1.073168	-0.251924	0.551571
C128	C	1.573168	0.248076	1.051571
C129	C	1.073180	-0.251914	0.634117
C130	C	1.573180	0.248086	1.134117
C131	C	1.073264	-0.115574	0.357940
C132	C	1.573264	0.384426	0.857940
C133	C	1.073318	-0.057460	0.357972
C134	C	1.573318	0.442540	0.857972
C135	C	1.073152	-0.251933	0.164913
C136	C	1.573152	0.248067	0.664913
C137	C	1.073284	-0.251795	0.082368
C138	C	1.573284	0.248205	0.582368
C139	C	1.023580	-0.286785	0.833538
C140	C	1.523580	0.213215	1.333538
C141	C	1.091333	-0.299569	0.882933
C142	C	1.591333	0.200431	1.382933
C143	C	1.073217	-0.251874	0.785247
C144	C	1.573217	0.248126	1.285247
C145	C	1.005500	-0.239076	0.882934
C146	C	1.505500	0.260924	1.382934
C147	C	1.073246	-0.251837	0.931232
C148	C	1.573246	0.248163	1.431232
C149	C	1.141006	-0.264683	0.833556
C150	C	1.641006	0.235317	1.333556
C151	C	1.055127	-0.204168	0.833551
C152	C	1.555127	0.295832	1.333551
C153	C	1.122927	-0.216933	0.882925
C154	C	1.622927	0.283067	1.382925
C155	C	1.073199	-0.251897	0.701149
C156	C	1.573199	0.248103	1.201149
C157	C	1.073272	-0.251814	1.015329
C158	C	1.573272	0.248186	1.515329
H159	H	0.620019	-0.228476	0.482942
H160	H	1.120019	0.271524	0.982942
N161	N	1.171962	-1.059487	0.456825
N162	N	1.671962	-0.559487	0.956825
H163	H	1.225033	-1.049966	0.445361
H164	H	1.725033	-0.549966	0.945361
H165	H	1.164712	-1.098220	0.449608
H166	H	1.664712	-0.598220	0.949608
N167	N	0.974672	-1.059704	0.259138
N168	N	1.474672	-0.559704	0.759138
H169	H	0.944599	-1.034151	0.229015
H170	H	1.444599	-0.534151	0.729015
H171	H	0.940289	-1.082363	0.289334
H172	H	1.440289	-0.582363	0.789334
N173	N	1.171769	-0.557133	0.456676
N174	N	1.671769	-0.057133	0.956676
H175	H	1.206218	-0.579784	0.426541
H176	H	1.706218	-0.079784	0.926541
H177	H	1.141531	-0.579756	0.491066
H178	H	1.641531	-0.079756	0.991066
N179	N	1.219274	-0.694778	0.504258
N180	N	1.719274	-0.194778	1.004258
H181	H	1.253707	-0.672118	0.474118
H182	H	1.753707	-0.172118	0.974118
H183	H	1.249295	-0.720365	0.534371
H184	H	1.749295	-0.220365	1.034371
N185	N	0.626899	-0.177838	0.252844
N186	N	1.126899	0.322162	0.752844
H187	H	0.583772	-0.160322	0.227332
H188	H	1.083772	0.339678	0.727332
H189	H	0.658443	-0.196322	0.214822
H190	H	1.158443	0.303678	0.714822
H191	H	1.206779	-0.801056	0.491717
H192	H	1.706779	-0.301056	0.991717
N193	N	0.626737	-0.353083	0.318967
N194	N	1.126737	0.146917	0.818967
H195	H	0.608371	-0.379537	0.356118
H196	H	1.108371	0.120463	0.856118
H197	H	0.682686	-0.352700	0.319047
H198	H	1.182686	0.147300	0.819047
H199	H	0.527150	-0.163963	0.391570
H200	H	1.027150	0.336037	0.891570
N201	N	1.171932	-0.945999	0.456770
N202	N	1.671932	-0.445999	0.956770
H203	H	1.202008	-0.971552	0.486890
H204	H	1.702008	-0.471552	0.986890
H205	H	1.141670	-0.923346	0.491107
H206	H	1.641670	-0.423346	0.991107
H207	H	1.159178	-0.450885	0.444065
H208	H	1.659178	0.049115	0.944065
H209	H	0.987155	-0.953421	0.271688
H210	H	1.487155	-0.453421	0.771688
H211	H	0.939611	-0.801339	0.224119
H212	H	1.439611	-0.301339	0.724119
N213	N	1.111623	-0.352988	0.911666
N214	N	1.611623	0.147012	1.411666
H215	H	1.069891	-0.366922	0.943236
H216	H	1.569891	0.133078	1.443236
H217	H	1.158235	-0.350448	0.942427
H218	H	1.658235	0.149552	1.442427
H219	H	0.527029	-0.275415	0.232751
H220	H	1.027029	0.224585	0.732751
H221	H	0.527335	-0.316580	0.449263
H222	H	1.027335	0.183420	0.949263
N223	N	1.034812	-0.150767	0.804783
N224	N	1.534812	0.349233	1.304783
H225	H	1.025112	-0.126579	0.847879
H226	H	1.525112	0.373421	1.347879
H227	H	0.988785	-0.153455	0.773176
H228	H	1.488785	0.346545	1.273176
N229	N	0.927019	-0.695083	0.211539
N230	N	1.427019	-0.195083	0.711539
H231	H	0.896963	-0.720699	0.181430
H232	H	1.396963	-0.220699	0.681430
H233	H	0.957260	-0.672429	0.177192
H234	H	1.457260	-0.172429	0.677192
N235	N	0.974452	-0.557368	0.259010
N236	N	1.474452	-0.057368	0.759010
H237	H	0.944377	-0.531818	0.228884
H238	H	1.444377	-0.031818	0.728884
H239	H	0.940070	-0.580023	0.289213
H240	H	1.440070	-0.080023	0.789213
N241	N	0.974404	-0.443868	0.258981
N242	N	1.474404	0.056132	0.758981
H243	H	0.981594	-0.405127	0.266190
H244	H	1.481594	0.094873	0.766190
H245	H	0.921360	-0.453433	0.270489
H246	H	1.421360	0.046567	0.770489
N247	N	0.968029	-0.325938	0.804806
N248	N	1.468029	0.174062	1.304806
H249	H	0.981806	-0.361952	0.822769
H250	H	1.481806	0.138048	1.322769
H251	H	0.968102	-0.325395	0.748861
H252	H	1.468102	0.174605	1.248861
H253	H	1.198302	-0.275538	0.811957
H254	H	1.698302	0.224462	1.311957
H255	H	1.164965	-0.187394	0.904472
H256	H	1.664965	0.312606	1.404472
H257	H	0.948221	-0.228267	0.904624
H258	H	1.448221	0.271733	1.404624
