data_functionalizedCrystal
_audit_creation_method	'MofGen! by Chris Wilmer'
_symmetry_space_group_name_H-M	'P1'
_symmetry_Int_Tables_number	1
_symmetry_cell_setting	triclinic
loop_
_symmetry_equiv_pos_as_xyz
  x,y,z
_cell_length_a	15.500227
_cell_length_b	15.944551
_cell_length_c	15.944499
_cell_angle_alpha	96.511826
_cell_angle_beta	87.172703
_cell_angle_gamma	87.159793
loop_
_atom_site_label
_atom_site_type_symbol
_atom_site_fract_x
_atom_site_fract_y
_atom_site_fract_z
O1	O	0.071854	-1.118407	0.104440
O2	O	0.571854	-0.618407	0.604440
O3	O	0.071876	-0.873856	0.117796
O4	O	0.571876	-0.373856	0.617796
O5	O	0.071858	-1.002832	-0.011159
O6	O	0.571858	-0.502832	0.488841
O7	O	0.071873	-0.989431	0.233395
O8	O	0.571873	-0.489431	0.733395
O9	O	-0.072030	-0.995005	-0.003365
O10	O	0.427970	-0.495005	0.496635
O11	O	-0.072012	-0.866029	0.125590
O12	O	0.427988	-0.366029	0.625590
O13	O	-0.072033	-1.110580	0.112235
O14	O	0.427967	-0.610580	0.612235
Cu15	Cu	-0.085160	-0.987590	0.119624
Cu16	Cu	0.414840	-0.487590	0.619624
Cu17	Cu	0.085003	-0.996846	0.110406
Cu18	Cu	0.585003	-0.496846	0.610406
O19	O	-0.072015	-0.981604	0.241190
O20	O	0.427985	-0.481604	0.741190
C21	C	-0.000065	-0.838649	0.121138
C22	C	0.499935	-0.338649	0.621138
C23	C	-0.000057	-0.745404	0.119475
C24	C	0.499943	-0.245404	0.619475
N25	N	-0.204844	-0.981086	0.126107
N26	N	0.295156	-0.481086	0.626107
C27	C	-0.250129	-1.035757	0.071485
C28	C	0.249871	-0.535757	0.571485
C29	C	-0.340701	-1.030846	0.076395
C30	C	0.159299	-0.530846	0.576395
C31	C	-0.385987	-0.971268	0.135933
C32	C	0.114013	-0.471268	0.635933
C33	C	-0.340696	-0.916591	0.190558
C34	C	0.159304	-0.416591	0.690558
C35	C	-0.250126	-0.921499	0.185643
C36	C	0.249874	-0.421499	0.685643
C37	C	-0.659452	-0.953588	0.153626
C38	C	-0.159452	-0.453588	0.653626
C39	C	-0.750028	-0.948686	0.158539
C40	C	-0.250028	-0.448686	0.658539
C41	C	-0.750027	-1.062940	0.044375
C42	C	-0.250027	-0.562940	0.544375
C43	C	-0.659454	-1.067846	0.039468
C44	C	-0.159454	-0.567846	0.539468
C45	C	-0.614172	-1.013167	0.094090
C46	C	-0.114172	-0.513167	0.594090
C47	C	-0.478566	-0.966248	0.140956
C48	C	0.021434	-0.466248	0.640956
C49	C	-0.521594	-1.018183	0.089063
C50	C	-0.021594	-0.518183	0.589063
C51	C	-0.000086	-0.998370	-0.038557
C52	C	0.499914	-0.498370	0.461443
C53	C	-0.000085	-0.996725	-0.131805
C54	C	0.499915	-0.496725	0.368195
N55	N	0.204687	-1.003357	0.103917
N56	N	0.704687	-0.503357	0.603917
C57	C	-0.000090	-1.145787	0.108892
C58	C	0.499910	-0.645787	0.608892
C59	C	-0.000093	-1.239033	0.110555
C60	C	0.499907	-0.739033	0.610555
C61	C	-0.000079	-0.530561	0.035570
C62	C	0.499921	-0.030561	0.535570
C63	C	0.070868	-0.473393	0.070690
C64	C	0.570868	0.026607	0.570690
C65	C	-0.000067	-0.574678	0.116469
C66	C	0.499933	-0.074678	0.616469
C67	C	-0.070994	-0.465699	0.078394
C68	C	0.429006	0.034301	0.578394
C69	C	-0.000081	-0.409765	0.113559
C70	C	0.499919	0.090235	0.613559
C71	C	0.070938	-0.518741	0.151608
C72	C	0.570938	-0.018741	0.651608
C73	C	-0.070988	-0.511050	0.159304
C74	C	0.429012	-0.011050	0.659304
C75	C	-0.000024	-0.453900	0.194482
C76	C	0.499976	0.046100	0.694482
C77	C	-0.000059	-0.669680	0.118143
C78	C	0.499941	-0.169680	0.618143
C79	C	-0.000084	-0.314764	0.111890
C80	C	0.499916	0.185236	0.611890
C81	C	-0.000070	-0.986067	0.268587
C82	C	0.499930	-0.486067	0.768587
C83	C	-0.000064	-0.987712	0.361835
C84	C	0.499936	-0.487712	0.861835
C85	C	-0.000066	-0.912779	0.653371
C86	C	0.499934	-0.412779	1.153371
C87	C	-0.071016	-0.947872	0.596186
C88	C	0.428984	-0.447872	1.096186
C89	C	-0.000080	-0.993687	0.697473
C90	C	0.499920	-0.493687	1.197473
C91	C	0.070846	-0.955610	0.588515
C92	C	0.570846	-0.455610	1.088515
C93	C	-0.000071	-0.990747	0.532563
C94	C	0.499929	-0.490747	1.032563
C95	C	-0.071088	-1.028799	0.641518
C96	C	0.428912	-0.528799	1.141518
C97	C	0.070837	-1.036529	0.633850
C98	C	0.570837	-0.536529	1.133850
C99	C	-0.000130	-1.071679	0.576683
C100	C	0.499870	-0.571679	1.076683
C101	C	-0.000086	-0.995378	0.792473
C102	C	0.499914	-0.495378	1.292473
C103	C	-0.000071	-0.989062	0.437564
C104	C	0.499929	-0.489062	0.937564
H105	H	-0.377571	-1.075362	0.031917
H106	H	0.122429	-0.575362	0.531917
N107	N	-0.150454	-0.898221	0.573859
N108	N	0.349546	-0.398221	1.073859
H109	H	-0.185993	-0.936055	0.535712
H110	H	0.314007	-0.436055	1.035712
H111	H	-0.186176	-0.876344	0.627252
H112	H	0.313824	-0.376344	1.127252
N113	N	-0.150643	-1.069739	0.672288
N114	N	0.349357	-0.569739	1.172288
H115	H	-0.186649	-1.087174	0.622814
H116	H	0.313351	-0.587174	1.122814
H117	H	-0.132604	-1.121243	0.700028
H118	H	0.367396	-0.621243	1.200028
H119	H	-0.000178	-1.138881	0.543503
H120	H	0.499822	-0.638881	1.043503
N121	N	-0.610610	-0.894629	0.212544
N122	N	-0.110610	-0.394629	0.712544
H123	H	-0.573044	-0.859480	0.178383
H124	H	-0.073044	-0.359480	0.678383
H125	H	-0.653092	-0.856198	0.251000
H126	H	-0.153092	-0.356198	0.751000
N127	N	-0.150447	-0.533383	0.208883
N128	N	0.349553	-0.033383	0.708883
H129	H	-0.149562	-0.596613	0.210099
H130	H	0.350438	-0.096613	0.710099
H131	H	-0.150973	-0.504275	0.268576
H132	H	0.349027	-0.004275	0.768576
N133	N	-0.150442	-0.434774	0.037362
N134	N	0.349558	0.065226	0.537362
H135	H	-0.150378	-0.462955	-0.022660
H136	H	0.349622	0.037045	0.477340
H137	H	-0.203980	-0.449173	0.070275
H138	H	0.296020	0.050827	0.570275
H139	H	0.000005	-0.563911	-0.031574
H140	H	0.500005	-0.063911	0.468426
H141	H	-0.000130	-0.845631	0.686706
H142	H	0.499870	-0.345631	1.186706
N143	N	0.150300	-0.914592	0.557623
N144	N	0.650300	-0.414592	1.057623
H145	H	0.185846	-0.956284	0.515633
H146	H	0.685846	-0.456284	1.015633
H147	H	0.132137	-0.863394	0.529465
H148	H	0.632137	-0.363394	1.029465
N149	N	0.000036	-0.409954	0.283499
N150	N	0.500036	0.090046	0.783499
H151	H	-0.000473	-0.346786	0.281922
H152	H	0.499527	0.153214	0.781922
H153	H	-0.053028	-0.424361	0.317132
H154	H	0.446972	0.075639	0.817132
N155	N	0.150280	-1.086150	0.656194
N156	N	0.650280	-0.586150	1.156194
H157	H	0.203848	-1.058448	0.637000
H158	H	0.703848	-0.558448	1.137000
H159	H	0.149307	-1.087364	0.719426
H160	H	0.649307	-0.587364	1.219426
N161	N	-0.610610	-1.132112	-0.024741
N162	N	-0.110610	-0.632112	0.475259
H163	H	-0.573036	-1.102066	-0.063993
H164	H	-0.073036	-0.602066	0.436007
H165	H	-0.573078	-1.171305	0.005423
H166	H	-0.073078	-0.671305	0.505423
N167	N	0.150482	-0.549519	0.192585
N168	N	0.650482	-0.049519	0.692585
H169	H	0.132498	-0.577245	0.244110
H170	H	0.632498	-0.077245	0.744110
H171	H	0.185730	-0.591853	0.150997
H172	H	0.685730	-0.091853	0.650997
H173	H	-0.213263	-1.084275	0.023006
H174	H	0.286737	-0.584275	0.523006
H175	H	-0.786904	-1.107457	-0.000097
H176	H	-0.286904	-0.607457	0.499903
H177	H	-0.213256	-0.876979	0.230121
H178	H	0.286744	-0.376979	0.730121
N179	N	-0.798873	-0.884414	0.222750
N180	N	-0.298873	-0.384414	0.722750
H181	H	-0.863120	-0.889606	0.217575
H182	H	-0.363120	-0.389606	0.717575
H183	H	-0.783030	-0.894954	0.281490
H184	H	-0.283030	-0.394954	0.781490
H185	H	-0.484719	-1.066689	0.040584
H186	H	0.015281	-0.566689	0.540584
N187	N	-0.389536	-0.852325	0.254770
N188	N	0.110464	-0.352325	0.754770
H189	H	-0.453784	-0.857512	0.249598
H190	H	0.046216	-0.357512	0.749598
H191	H	-0.373691	-0.862872	0.313507
H192	H	0.126309	-0.362872	0.813507
N193	N	-0.527422	-0.902002	0.205176
N194	N	-0.027422	-0.402002	0.705176
H195	H	-0.511653	-0.912523	0.263944
H196	H	-0.011653	-0.412523	0.763944
H197	H	-0.511659	-0.843269	0.194544
H198	H	-0.011659	-0.343269	0.694544
N199	N	0.150315	-0.451080	0.021070
N200	N	0.650315	0.048920	0.521070
H201	H	0.150261	-0.479248	-0.038947
H202	H	0.650261	0.020752	0.461053
H203	H	0.149963	-0.387748	0.020849
H204	H	0.649963	0.112252	0.520849
