data_functionalizedCrystal
_audit_creation_method	'MofGen! by Chris Wilmer'
_symmetry_space_group_name_H-M	'P1'
_symmetry_Int_Tables_number	1
_symmetry_cell_setting	triclinic
loop_
_symmetry_equiv_pos_as_xyz
  x,y,z
_cell_length_a	14.853567
_cell_length_b	10.268362
_cell_length_c	14.853567
_cell_angle_alpha	89.998511
_cell_angle_beta	96.365070
_cell_angle_gamma	90.001612
loop_
_atom_site_label
_atom_site_type_symbol
_atom_site_fract_x
_atom_site_fract_y
_atom_site_fract_z
O1	O	1.196365	0.108199	-0.117705
O2	O	1.696365	0.608199	0.382295
O3	O	0.933905	0.108220	-0.131726
O4	O	1.433905	0.608220	0.368274
O5	O	1.072146	0.108213	0.006514
O6	O	1.572146	0.608213	0.506514
O7	O	1.058124	0.108206	-0.255945
O8	O	1.558124	0.608206	0.244055
O9	O	1.072134	-0.108388	0.006520
O10	O	1.572134	0.391612	0.506520
O11	O	0.933893	-0.108380	-0.131721
O12	O	1.433893	0.391620	0.368279
O13	O	1.196353	-0.108401	-0.117699
O14	O	1.696353	0.391599	0.382301
Cu15	Cu	1.065122	-0.128168	-0.124709
Cu16	Cu	1.565122	0.371832	0.375291
Cu17	Cu	1.065136	0.127987	-0.124716
Cu18	Cu	1.565136	0.627987	0.375284
O19	O	1.058112	-0.108394	-0.255940
O20	O	1.558112	0.391606	0.244060
C21	C	0.900311	-0.000077	-0.131088
C22	C	1.400311	0.499923	0.368912
C23	C	0.800227	-0.000069	-0.129184
C24	C	1.300227	0.499931	0.370816
C25	C	0.387693	-0.000096	-0.039019
C26	C	0.887693	0.499904	0.460981
C27	C	0.366412	-0.000099	-0.203251
C28	C	0.866412	0.499901	0.296749
C29	C	0.460446	-0.000094	-0.205041
C30	C	0.960446	0.499906	0.294959
C31	C	0.518108	-0.000089	-0.123819
C32	C	1.018108	0.499911	0.376181
C33	C	0.481736	-0.000088	-0.040806
C34	C	0.981736	0.499912	0.459194
C35	C	0.496825	-0.000083	-0.288053
C36	C	0.996825	0.499917	0.211947
C37	C	0.590864	-0.000077	-0.289846
C38	C	1.090864	0.499923	0.210154
C39	C	0.648528	-0.000081	-0.208623
C40	C	1.148528	0.499919	0.291377
C41	C	0.612150	-0.000081	-0.125607
C42	C	1.112150	0.499919	0.374393
C43	C	0.669812	-0.000075	-0.044384
C44	C	1.169812	0.499925	0.455616
C45	C	0.633437	-0.000085	0.038633
C46	C	1.133437	0.499915	0.538633
C47	C	0.539399	-0.000091	0.040417
C48	C	1.039399	0.499909	0.540417
C49	C	0.742565	-0.000074	-0.210407
C50	C	1.242565	0.499926	0.289593
C51	C	0.763855	-0.000067	-0.046172
C52	C	1.263855	0.499933	0.453828
N53	N	1.065118	-0.308334	-0.124704
N54	N	1.565118	0.191666	0.375296
C55	C	1.065132	-0.574005	-0.124714
C56	C	1.565132	-0.074005	0.375286
C57	C	1.065121	-0.426167	-0.124711
C58	C	1.565121	0.073833	0.375289
C59	C	1.229947	-0.000101	-0.118337
C60	C	1.729947	0.499899	0.381663
C61	C	1.330031	-0.000101	-0.120241
C62	C	1.830031	0.499899	0.379759
C63	C	1.071504	-0.000083	0.040106
C64	C	1.571504	0.499917	0.540106
C65	C	1.069601	-0.000072	0.140189
C66	C	1.569601	0.499928	0.640189
N67	N	1.065147	0.308153	-0.124714
N68	N	1.565147	0.808153	0.375286
C69	C	1.058754	-0.000095	-0.289531
C70	C	1.558754	0.499905	0.210469
C71	C	1.060657	-0.000098	-0.389615
C72	C	1.560657	0.499902	0.110385
C73	C	0.979435	-0.000090	0.552723
C74	C	1.479435	0.499910	1.052723
C75	C	1.143668	-0.000103	0.574004
C76	C	1.643668	0.499897	1.074004
C77	C	1.145458	-0.000095	0.479971
C78	C	1.645458	0.499905	0.979971
C79	C	1.064235	-0.000087	0.422309
C80	C	1.564235	0.499913	0.922309
C81	C	0.981223	-0.000086	0.458680
C82	C	1.481223	0.499914	0.958680
C83	C	1.228469	-0.000109	0.443591
C84	C	1.728469	0.499891	0.943591
C85	C	1.230262	-0.000103	0.349552
C86	C	1.730262	0.499897	0.849552
C87	C	1.149039	-0.000085	0.291889
C88	C	1.649039	0.499915	0.791889
C89	C	1.066023	-0.000083	0.328266
C90	C	1.566023	0.499917	0.828266
C91	C	0.984800	-0.000075	0.270604
C92	C	1.484800	0.499925	0.770604
C93	C	0.901783	-0.000063	0.306979
C94	C	1.401783	0.499937	0.806979
C95	C	0.899999	-0.000068	0.401017
C96	C	1.399999	0.499932	0.901017
C97	C	1.150823	-0.000080	0.197851
C98	C	1.650823	0.499920	0.697851
C99	C	0.986588	-0.000071	0.176561
C100	C	1.486588	0.499929	0.676561
H101	H	0.358072	-0.000108	0.028572
H102	H	0.858072	0.499892	0.528572
H103	H	0.319459	-0.000092	-0.269379
H104	H	0.819459	0.499908	0.230621
H105	H	0.772178	-0.000069	-0.277998
H106	H	1.272178	0.499931	0.222002
H107	H	0.449870	-0.000074	-0.354180
H108	H	0.949870	0.499926	0.145820
H109	H	0.680397	-0.000071	0.104764
H110	H	1.180397	0.499929	0.604764
C111	C	1.317807	-0.000117	0.507014
C112	C	1.817807	0.499883	1.007014
H113	H	1.367503	-0.000135	0.471884
H114	H	1.867503	0.499865	0.971884
H115	H	1.320527	0.075417	0.544138
H116	H	1.820527	0.575417	1.044138
H117	H	1.320515	-0.075659	0.544141
H118	H	1.820515	0.424341	1.044141
H119	H	0.920445	-0.000059	0.129618
H120	H	1.420445	0.499941	0.629618
C121	C	0.630874	-0.000073	-0.381157
C122	C	1.130874	0.499927	0.118843
H123	H	0.695138	-0.000061	-0.370591
H124	H	1.195138	0.499939	0.129409
H125	H	0.611089	-0.075605	-0.414604
H126	H	1.111089	0.424395	0.085396
H127	H	0.611090	0.075472	-0.414602
H128	H	1.111090	0.575472	0.085398
C129	C	0.827280	-0.000063	0.043173
C130	C	1.327280	0.499937	0.543173
H131	H	0.888496	-0.000062	0.030222
H132	H	1.388496	0.499938	0.530222
H133	H	0.816237	0.075466	0.077208
H134	H	1.316237	0.575466	0.577208
H135	H	0.816245	-0.075611	0.077203
H136	H	1.316245	0.424389	0.577203
C137	C	0.812444	-0.000052	0.243546
C138	C	1.312444	0.499948	0.743546
H139	H	0.825404	-0.000047	0.182333
H140	H	1.325404	0.499953	0.682333
H141	H	0.778400	-0.075578	0.254582
H142	H	1.278400	0.424422	0.754582
H143	H	0.778419	0.075499	0.254578
H144	H	1.278419	0.575499	0.754578
H145	H	1.209795	-0.000120	0.620958
H146	H	1.709795	0.499880	1.120958
H147	H	0.832411	-0.000060	0.430643
H148	H	1.332411	0.499940	0.930643
C149	C	0.888123	-0.000082	0.592731
C150	C	1.388123	0.499918	1.092731
H151	H	0.898687	-0.000092	0.656995
H152	H	1.398687	0.499908	1.156995
H153	H	0.854679	0.075451	0.572944
H154	H	1.354679	0.575451	1.072944
H155	H	0.854676	-0.075625	0.572947
H156	H	1.354676	0.424375	1.072947
H157	H	0.509774	-0.000130	0.108005
H158	H	1.009774	0.499870	0.608005
H159	H	1.297860	-0.000111	0.319944
H160	H	1.797860	0.499889	0.819944
C161	C	1.242129	-0.000096	0.157841
C162	C	1.742129	0.499904	0.657841
H163	H	1.290246	-0.000100	0.205650
H164	H	1.790246	0.499900	0.705650
H165	H	1.246232	-0.075626	0.121595
H166	H	1.746232	0.424374	0.621595
H167	H	1.246248	0.075450	0.121604
H168	H	1.746248	0.575450	0.621604
