data_functionalizedCrystal
_audit_creation_method	'MofGen! by Chris Wilmer'
_symmetry_space_group_name_H-M	'P1'
_symmetry_Int_Tables_number	1
_symmetry_cell_setting	triclinic
loop_
_symmetry_equiv_pos_as_xyz
  x,y,z
_cell_length_a	10.686220
_cell_length_b	12.759394
_cell_length_c	10.685880
_cell_angle_alpha	85.661521
_cell_angle_beta	90.358431
_cell_angle_gamma	94.396533
loop_
_atom_site_label
_atom_site_type_symbol
_atom_site_fract_x
_atom_site_fract_y
_atom_site_fract_z
Zn1	Zn	1.972256	-0.327959	0.562366
Zn2	Zn	1.956039	-0.491331	0.352609
Zn3	Zn	1.746386	-0.330100	0.368688
Zn4	Zn	1.762456	-0.518036	0.578381
O5	O	1.859284	-0.416856	0.465511
O6	O	2.145647	-0.337559	0.521110
O7	O	1.914715	-0.459664	0.179201
O8	O	1.776409	-0.182793	0.394406
O9	O	2.133733	-0.457587	0.367003
O10	O	1.942355	-0.181220	0.536700
O11	O	1.760684	-0.341208	0.191014
O12	O	1.572975	-0.367102	0.409936
O13	O	1.803799	-0.503101	0.751797
O14	O	1.584782	-0.505178	0.563996
O15	O	1.957938	-0.363453	0.740031
O16	O	1.930298	-0.641897	0.382532
O17	O	1.788074	-0.661516	0.548405
C18	C	1.533362	-0.439271	0.490449
C19	C	1.393933	-0.448887	0.501147
C20	C	1.859207	-0.689827	0.465486
C21	C	1.859291	-0.806600	0.465509
C22	C	2.007519	-0.786116	0.292896
C23	C	2.081667	-0.830733	0.206602
C24	C	2.081743	-0.940451	0.206630
C25	C	2.007666	-1.005556	0.292965
C26	C	1.933519	-0.960939	0.379259
C27	C	1.933448	-0.851217	0.379219
C28	C	1.785299	-0.981423	0.551876
C29	C	1.785215	-0.871705	0.551843
C30	C	1.711223	-1.046528	0.638210
C31	C	1.637066	-1.001911	0.724500
C32	C	1.636992	-0.892186	0.724467
C33	C	1.711067	-0.827088	0.638138
C34	C	2.186479	-0.394355	0.440476
C35	C	2.325910	-0.384767	0.429808
C36	C	1.884470	-0.436017	0.792702
C37	C	1.895203	-0.444182	0.932132
C38	C	1.859398	-0.142819	0.465560
C39	C	1.859447	-0.026040	0.465582
C40	C	1.834268	-0.397690	0.139587
C41	C	1.823778	-0.389212	0.000139
H42	H	1.374339	-0.322515	0.360545
C43	C	1.710989	-0.706400	0.638106
H44	H	1.656219	-0.689149	0.701860
H45	H	1.793585	-0.677224	0.653652
H46	H	1.683096	-0.678373	0.558786
H47	H	1.754407	-0.335906	0.951697
C48	C	1.988922	-0.516202	0.997571
H49	H	1.984100	-0.512423	1.085842
H50	H	1.968910	-0.586817	0.977549
H51	H	2.071586	-0.493778	0.969706
H52	H	2.007447	-0.696776	0.292849
C53	C	1.328513	-0.532993	0.594719
H54	H	1.240240	-0.528640	0.589883
H55	H	1.348492	-0.601017	0.574598
H56	H	1.356434	-0.521192	0.677413
H57	H	2.141982	-0.777715	0.136311
H58	H	2.142127	-0.976777	0.136368
H59	H	1.576766	-1.054928	0.794792
C60	C	2.007758	-1.126243	0.293001
H61	H	2.062524	-1.143491	0.229242
H62	H	2.035637	-1.154269	0.372320
H63	H	1.925161	-1.155425	0.277439
C64	C	1.711302	-1.167215	0.638240
H65	H	1.766060	-1.184466	0.574475
H66	H	1.739185	-1.195248	0.717556
H67	H	1.628701	-1.196389	0.622684
H68	H	1.576618	-0.855865	0.794743
