data_functionalizedCrystal
_audit_creation_method	'MofGen! by Chris Wilmer'
_symmetry_space_group_name_H-M	'P1'
_symmetry_Int_Tables_number	1
_symmetry_cell_setting	triclinic
loop_
_symmetry_equiv_pos_as_xyz
  x,y,z
_cell_length_a	12.594517
_cell_length_b	19.121063
_cell_length_c	19.120915
_cell_angle_alpha	94.738654
_cell_angle_beta	92.424673
_cell_angle_gamma	92.468805
loop_
_atom_site_label
_atom_site_type_symbol
_atom_site_fract_x
_atom_site_fract_y
_atom_site_fract_z
Zn1	Zn	1.581412	-0.297094	-0.409775
Zn2	Zn	2.081412	0.202906	0.090225
Zn3	Zn	1.581286	-0.409747	-0.297126
Zn4	Zn	2.081286	0.090253	0.202874
Zn5	Zn	1.411365	-0.292100	-0.292128
Zn6	Zn	1.911365	0.207900	0.207872
Zn7	Zn	1.395435	-0.414720	-0.414746
Zn8	Zn	1.895435	0.085280	0.085254
O9	O	1.492375	-0.353415	-0.353444
O10	O	1.992375	0.146585	0.146556
O11	O	1.730340	-0.312046	-0.394844
O12	O	2.230340	0.187954	0.105156
O13	O	1.565360	-0.389969	-0.198003
O14	O	2.065360	0.110031	0.301997
O15	O	1.440641	-0.194300	-0.303562
O16	O	1.940641	0.305700	0.196438
O17	O	1.730247	-0.394811	-0.312081
O18	O	2.230247	0.105189	0.187919
O19	O	1.565574	-0.197969	-0.389997
O20	O	2.065574	0.302031	0.110003
O21	O	1.440519	-0.303535	-0.194331
O22	O	1.940519	0.196465	0.305669
O23	O	1.260307	-0.308358	-0.308381
O24	O	1.760307	0.191642	0.191619
O25	O	1.413492	-0.403289	-0.512546
O26	O	1.913492	0.096711	-0.012546
O27	O	1.248604	-0.398446	-0.398468
O28	O	1.748604	0.101554	0.101532
O29	O	1.550128	-0.316869	-0.508894
O30	O	2.050128	0.183131	-0.008894
O31	O	1.549914	-0.508869	-0.316901
O32	O	2.049914	-0.008869	0.183099
O33	O	1.413370	-0.512523	-0.403315
O34	O	1.913370	-0.012523	0.096685
C35	C	1.215836	-0.353400	-0.353422
C36	C	1.715836	0.146600	0.146578
C37	C	1.097529	-0.353412	-0.353431
C38	C	1.597529	0.146588	0.146569
C39	C	1.034609	-0.304352	-0.304519
C40	C	1.534609	0.195648	0.195481
C41	C	0.960622	-0.367795	-0.289942
C42	C	1.460622	0.132205	0.210058
C43	C	0.960714	-0.290000	-0.368021
C44	C	1.460714	0.210000	0.131979
C45	C	1.025100	-0.416887	-0.338822
C46	C	1.525100	0.083113	0.161178
C47	C	1.025200	-0.339050	-0.416928
C48	C	1.525200	0.160950	0.083072
C49	C	0.951240	-0.402539	-0.402377
C50	C	1.451240	0.097461	0.097623
C51	C	1.479927	-0.536227	-0.361205
C52	C	1.979927	-0.036227	0.138795
C53	C	1.474698	-0.614435	-0.364549
C54	C	1.974698	-0.114435	0.135451
C55	C	1.543383	-0.649254	-0.321166
C56	C	2.043383	-0.149254	0.178834
C57	C	1.538471	-0.722739	-0.324315
C58	C	2.038471	-0.222739	0.175685
C59	C	1.464868	-0.761405	-0.370844
C60	C	1.964868	-0.261405	0.129156
C61	C	1.396181	-0.726582	-0.414232
C62	C	1.896181	-0.226582	0.085768
C63	C	1.401098	-0.653098	-0.411086
C64	C	1.901098	-0.153098	0.088914
C65	C	1.446465	-0.983376	-0.382595
C66	C	1.946465	-0.483376	0.117405
C67	C	1.441550	-1.056865	-0.385737
C68	C	1.941550	-0.556865	0.114263
C69	C	1.583843	-1.053017	-0.295820
C70	C	2.083843	-0.553017	0.204180
C71	C	1.588750	-0.979532	-0.292675
C72	C	2.088750	-0.479532	0.207325
C73	C	1.520066	-0.944715	-0.336066
C74	C	2.020066	-0.444715	0.163934
C75	C	1.459844	-0.836519	-0.374062
C76	C	1.959844	-0.336519	0.125938
C77	C	1.525096	-0.869603	-0.332850
C78	C	2.025096	-0.369603	0.167150
C79	C	1.769993	-0.353431	-0.353465
C80	C	2.269993	0.146569	0.146535
C81	C	1.888297	-0.353438	-0.353475
C82	C	2.388297	0.146562	0.146525
C83	C	1.480047	-0.361191	-0.536964
C84	C	1.980047	0.138809	-0.036964
C85	C	1.474793	-0.364504	-0.615169
C86	C	1.974793	0.135496	-0.115169
C87	C	1.504898	-0.169891	-0.345667
C88	C	2.004898	0.330109	0.154333
C89	C	1.510235	-0.091683	-0.342353
C90	C	2.010235	0.408317	0.157647
C91	C	1.441520	-0.385540	-1.057580
C92	C	1.941520	0.114460	-0.557580
C93	C	1.446453	-0.382416	-0.984097
C94	C	1.946453	0.117584	-0.484097
C95	C	1.520063	-0.335864	-0.945458
C96	C	2.020063	0.164136	-0.445458
C97	C	1.588738	-0.292428	-0.980305
C98	C	2.088738	0.207572	-0.480305
C99	C	1.583800	-0.295548	-1.053786
C100	C	2.083800	0.204452	-0.553786
C101	C	1.538529	-0.324188	-0.723497
C102	C	2.038529	0.175812	-0.223497
C103	C	1.543465	-0.321073	-0.650011
C104	C	2.043465	0.178927	-0.150011
C105	C	1.401178	-0.411060	-0.653808
C106	C	1.901178	0.088940	-0.153808
C107	C	1.396250	-0.414179	-0.727291
C108	C	1.896250	0.085821	-0.227291
C109	C	1.464921	-0.370741	-0.762131
C110	C	1.964921	0.129259	-0.262131
C111	C	1.525110	-0.332672	-0.870347
C112	C	2.025110	0.167328	-0.370347
C113	C	1.459869	-0.373930	-0.837241
C114	C	1.959869	0.126070	-0.337241
C115	C	1.504719	-0.345620	-0.170635
C116	C	2.004719	0.154380	0.329365
C117	C	1.510192	-0.342108	-0.092422
C118	C	2.010192	0.157892	0.407578
H119	H	1.053359	-0.470537	-0.326440
H120	H	1.553359	0.029463	0.173560
H121	H	0.915034	-0.444084	-0.443761
H122	H	1.415034	0.055916	0.056239
H123	H	1.603408	-0.283160	-0.618553
H124	H	2.103408	0.216840	-0.118553
H125	H	1.594401	-0.751085	-0.288987
H126	H	2.094401	-0.251085	0.211013
H127	H	0.932274	-0.236370	-0.380319
H128	H	1.432274	0.263630	0.119681
H129	H	1.390544	-0.417790	-0.955732
H130	H	1.890544	0.082210	-0.455732
C131	C	1.624350	-0.606728	-0.269978
C132	C	2.124350	-0.106728	0.230022
N133	N	1.685339	-0.574699	-0.231423
N134	N	2.185339	-0.074699	0.268577
C135	C	1.378871	-0.879058	-0.425236
C136	C	1.878871	-0.379058	0.074764
N137	N	1.317881	-0.911102	-0.463778
N138	N	1.817881	-0.411102	0.036222
C139	C	1.315267	-0.465386	-0.769788
C140	C	1.815267	0.034614	-0.269788
N141	N	1.254269	-0.503955	-0.801797
N142	N	1.754269	-0.003955	-0.301797
C143	C	1.063711	-0.322588	-0.489421
C144	C	1.563711	0.177412	0.010579
N145	N	1.092724	-0.310179	-0.544021
N146	N	1.592724	0.189821	-0.044021
H147	H	1.585028	-0.838119	-0.294969
H148	H	2.085028	-0.338119	0.205031
H149	H	1.648683	-0.948052	-0.254787
H150	H	2.148683	-0.448052	0.245213
C151	C	1.325636	-0.458833	-0.615477
C152	C	1.825636	0.041167	-0.115477
N153	N	1.268730	-0.494814	-0.586606
N154	N	1.768730	0.005186	-0.086606
H155	H	1.390538	-0.955034	-0.417924
H156	H	1.890538	-0.455034	0.082076
C157	C	1.614076	-0.276408	-0.761813
C158	C	2.114076	0.223592	-0.261813
N159	N	1.670983	-0.240419	-0.790674
N160	N	2.170983	0.259581	-0.290674
H161	H	1.639763	-1.081373	-0.260495
H162	H	2.139763	-0.581373	0.239505
H163	H	1.381626	-1.088345	-0.423638
H164	H	1.881626	-0.588345	0.076362
C165	C	1.669708	-0.241218	-0.937800
C166	C	2.169708	0.258782	-0.437800
N167	N	1.730698	-0.202648	-0.905785
N168	N	2.230698	0.297352	-0.405785
C169	C	1.083789	-0.248356	-0.248578
C170	C	1.583789	0.251644	0.251422
N171	N	1.120833	-0.206183	-0.206441
N172	N	1.620833	0.293817	0.293559
C173	C	1.659346	-0.247772	-1.092112
C174	C	2.159346	0.252228	-0.592112
N175	N	1.716249	-0.211784	-1.120978
N176	N	2.216249	0.288216	-0.620978
C177	C	0.922151	-0.384225	-0.217426
C178	C	1.422151	0.115775	0.282574
N179	N	0.893176	-0.396594	-0.162805
N180	N	1.393176	0.103406	0.337195
H181	H	1.399930	-0.411828	-0.868704
H182	H	1.899930	0.088172	-0.368704
H183	H	1.336256	-0.758070	-0.452120
H184	H	1.836256	-0.258070	0.047880
H185	H	1.345169	-0.624750	-0.446414
H186	H	1.845169	-0.124750	0.053586
H187	H	1.381583	-0.423450	-1.089035
H188	H	1.881583	0.076550	-0.589035
H189	H	1.585046	-0.294771	-0.838879
H190	H	2.085046	0.205229	-0.338879
