data_functionalizedCrystal
_audit_creation_method	'MofGen! by Chris Wilmer'
_symmetry_space_group_name_H-M	'P1'
_symmetry_Int_Tables_number	1
_symmetry_cell_setting	triclinic
loop_
_symmetry_equiv_pos_as_xyz
  x,y,z
_cell_length_a	15.538191
_cell_length_b	10.654550
_cell_length_c	9.130313
_cell_angle_alpha	90.003780
_cell_angle_beta	90.002806
_cell_angle_gamma	114.121501
loop_
_atom_site_label
_atom_site_type_symbol
_atom_site_fract_x
_atom_site_fract_y
_atom_site_fract_z
O1	O	0.131911	-1.606169	-0.121900
O2	O	0.144479	-1.234815	-0.121874
O3	O	0.001538	-1.492779	-0.121899
O4	O	0.274853	-1.348205	-0.121875
O5	O	0.001542	-1.492775	0.121700
O6	O	0.144483	-1.234811	0.121725
O7	O	0.131915	-1.606164	0.121699
Cu8	Cu	0.138200	-1.420487	0.143954
Cu9	Cu	0.138195	-1.420492	-0.144129
O10	O	0.274856	-1.348200	0.121724
C11	C	0.143559	-1.188446	-0.000072
C12	C	0.140798	-1.050294	-0.000063
C13	C	-0.033457	-1.507903	-0.000105
C14	C	-0.137736	-1.552959	-0.000123
C15	C	0.132836	-1.652533	-0.000106
C16	C	0.135597	-1.790686	-0.000125
C17	C	-0.428451	-1.105338	-0.000061
C18	C	-0.526440	-1.147707	-0.000061
C19	C	-0.547326	-1.386021	-0.000078
C20	C	-0.449337	-1.343672	-0.000085
C21	C	-0.389906	-1.203329	-0.000075
C22	C	-0.410792	-1.441663	-0.000099
C23	C	-0.312812	-1.399317	-0.000099
C24	C	-0.253375	-1.258980	-0.000085
C25	C	-0.291926	-1.160983	-0.000075
C26	C	-0.470224	-1.582005	-0.000099
C27	C	-0.431680	-1.679996	-0.000113
C28	C	-0.333697	-1.637651	-0.000123
C29	C	-0.274261	-1.497314	-0.000109
C30	C	-0.295147	-1.735648	-0.000133
C31	C	-0.197166	-1.693302	-0.000133
C32	C	-0.176280	-1.454968	-0.000109
C33	C	0.309851	-1.333076	-0.000073
C34	C	0.414130	-1.288020	-0.000065
N35	N	0.138202	-1.420493	0.346577
C36	C	0.224959	-0.931464	-0.000077
C37	C	0.222359	-0.801659	-0.000103
C38	C	0.051429	-0.909528	-0.000106
C39	C	0.054030	-1.039331	-0.000070
C40	C	0.323644	-0.869186	-0.000082
C41	C	0.321045	-0.739380	-0.000107
N42	N	0.138185	-1.420499	-0.346752
C43	C	0.074930	-1.534731	0.423218
C44	C	0.074918	-1.534733	0.576555
C45	C	0.201461	-1.306251	0.576596
C46	C	0.201467	-1.306246	0.423262
C47	C	0.001874	-1.666646	0.423196
C48	C	0.001863	-1.666648	0.576532
H49	H	-0.127888	-1.340687	-0.000112
O50	O	0.365263	-0.668789	-0.121777
C51	C	0.301214	-0.635739	-0.205698
H52	H	0.241907	-0.635728	-0.132210
H53	H	0.270416	-0.715260	-0.296304
C54	C	0.425811	-0.492245	-0.364502
C55	C	0.352973	-0.492220	-0.274240
H56	H	0.457737	-0.403719	-0.406789
H57	H	0.468962	-0.514515	-0.307967
H58	H	0.400135	-0.558519	-0.439995
H59	H	0.378650	-0.425959	-0.198739
H60	H	0.309827	-0.469936	-0.330764
H61	H	0.252980	-1.213218	0.360862
O62	O	0.029303	-1.762595	0.366639
C63	C	0.121476	-1.735593	0.414481
H64	H	0.136889	-1.672765	0.519833
H65	H	0.174248	-1.675284	0.326523
C66	C	0.111123	-1.949604	0.313852
C67	C	0.130051	-1.872447	0.443254
H68	H	0.116414	-2.034020	0.331594
H69	H	0.049025	-1.967794	0.281614
H70	H	0.155102	-1.899330	0.240565
H71	H	0.086065	-1.922713	0.516531
H72	H	0.192141	-1.854268	0.475505
H73	H	-0.480081	-1.794264	-0.000115
H74	H	-0.070316	-1.678951	0.381571
H75	H	-0.165783	-1.773097	-0.000143
H76	H	0.252968	-1.213233	0.639049
O77	O	0.356530	-0.668466	0.125505
C78	C	0.303276	-0.743029	0.245942
H79	H	0.266561	-0.856518	0.215767
H80	H	0.248170	-0.702384	0.276120
C81	C	0.414231	-0.586692	0.414557
C82	C	0.369144	-0.726082	0.377499
H83	H	0.454860	-0.576234	0.495710
H84	H	0.450108	-0.536453	0.333417
H85	H	0.368301	-0.552836	0.439696
H86	H	0.415073	-0.759930	0.352343
H87	H	0.333276	-0.776326	0.458638
O88	O	0.369560	-0.882895	0.121590
C89	C	0.308422	-0.994942	0.205506
H90	H	0.250588	-1.068873	0.132014
H91	H	0.275256	-0.955784	0.296110
C92	C	0.435595	-0.979562	0.364320
C93	C	0.364567	-1.070370	0.274053
H94	H	0.470227	-1.026087	0.406610
H95	H	0.476785	-0.904070	0.307788
H96	H	0.407946	-0.946937	0.439811
H97	H	0.392217	-1.102980	0.198554
H98	H	0.323382	-1.145869	0.330574
O99	O	-0.079524	-1.668148	0.633074
C100	C	-0.091671	-1.550597	0.585283
H101	H	-0.050084	-1.510453	0.479954
H102	H	-0.065089	-1.467586	0.673283
C103	C	-0.248107	-1.637861	0.685855
C104	C	-0.197034	-1.588562	0.556481
H105	H	-0.313099	-1.661276	0.668094
H106	H	-0.239922	-1.717055	0.718058
H107	H	-0.225944	-1.568677	0.759175
H108	H	-0.219189	-1.657752	0.483169
H109	H	-0.205225	-1.509380	0.524265
H110	H	0.355066	-0.890153	-0.105251
O111	O	-0.032910	-0.899047	-0.000318
C112	C	-0.084260	-0.963576	-0.126495
H113	H	-0.058072	-1.042496	-0.168533
H114	H	-0.073878	-0.883066	-0.214854
C115	C	-0.221916	-0.939283	-0.036544
C116	C	-0.189757	-1.036222	-0.088169
H117	H	-0.286993	-0.984090	-0.012907
H118	H	-0.187321	-0.895804	0.048461
H119	H	-0.213257	-0.872198	-0.110185
H120	H	-0.198406	-1.103295	-0.014522
H121	H	-0.224357	-1.079714	-0.173162
H122	H	-0.173594	-1.224505	-0.000076
H123	H	0.017955	-1.755637	0.618144
H124	H	-0.380059	-0.991057	-0.000064
H125	H	-0.243534	-1.046702	-0.000078
H126	H	-0.557817	-1.067900	-0.000028
H127	H	-0.550006	-1.616479	-0.000112
H128	H	-0.595727	-1.500288	-0.000080
H129	H	-0.343549	-1.849915	-0.000127
H130	H	-0.014503	-1.136082	-0.000038
