data_functionalizedCrystal
_audit_creation_method	'MofGen! by Chris Wilmer'
_symmetry_space_group_name_H-M	'P1'
_symmetry_Int_Tables_number	1
_symmetry_cell_setting	triclinic
loop_
_symmetry_equiv_pos_as_xyz
  x,y,z
_cell_length_a	19.805407
_cell_length_b	18.101397
_cell_length_c	18.101398
_cell_angle_alpha	90.007564
_cell_angle_beta	90.005356
_cell_angle_gamma	90.020466
loop_
_atom_site_label
_atom_site_type_symbol
_atom_site_fract_x
_atom_site_fract_y
_atom_site_fract_z
Zn1	Zn	1.034669	-0.295006	0.418738
Zn2	Zn	1.034623	-0.418802	0.294891
Zn3	Zn	0.921511	-0.294979	0.294909
Zn4	Zn	0.921459	-0.418810	0.418689
O5	O	0.978065	-0.356899	0.356807
O6	O	1.129379	-0.311436	0.402323
O7	O	1.019622	-0.402363	0.191261
O8	O	0.936563	-0.191350	0.311363
O9	O	1.129346	-0.402388	0.311333
O10	O	1.019699	-0.191369	0.402340
O11	O	0.936519	-0.311390	0.191274
O12	O	0.826788	-0.311398	0.311316
O13	O	0.936473	-0.402401	0.522329
O14	O	0.826749	-0.402376	0.402256
O15	O	1.019648	-0.311443	0.522365
O16	O	1.019571	-0.522436	0.311285
O17	O	0.936429	-0.522442	0.402239
C18	C	0.802209	-0.356885	0.356783
C19	C	0.726977	-0.356897	0.356790
C20	C	0.691631	-0.404340	0.404067
C21	C	0.620942	-0.404342	0.404077
C22	C	0.585602	-0.356903	0.356807
C23	C	0.620953	-0.309454	0.309529
C24	C	0.691641	-0.309450	0.309523
C25	C	0.335880	-0.309470	0.309553
C26	C	0.265188	-0.309480	0.309561
C27	C	0.265182	-0.404363	0.404108
C28	C	0.335869	-0.404358	0.404102
C29	C	0.371214	-0.356907	0.356826
C30	C	0.447863	-0.356905	0.356817
C31	C	0.508955	-0.356908	0.356812
C32	C	0.978008	-0.549310	0.356771
C33	C	0.978045	-0.631624	0.356781
C34	C	0.978131	-0.930715	0.356848
C35	C	1.030296	-0.899355	0.299469
C36	C	1.030476	-0.813737	0.299618
C37	C	0.978088	-0.782332	0.356814
C38	C	0.997406	-0.813371	0.434875
C39	C	0.997809	-0.899016	0.434562
C40	C	0.906510	-0.899216	0.336842
C41	C	0.906864	-0.813566	0.335099
C42	C	0.978063	-0.698473	0.356799
C43	C	0.978158	-1.014574	0.356868
C44	C	1.154608	-0.356914	0.356832
C45	C	1.229840	-0.356920	0.356842
C46	C	0.978060	-0.356926	0.549969
C47	C	0.978057	-0.356937	0.632283
C48	C	0.978142	-0.163737	0.356859
C49	C	0.978175	-0.081423	0.356882
C50	C	0.978052	-0.356926	0.782991
C51	C	0.925723	-0.414152	0.814322
C52	C	0.925515	-0.413977	0.899941
C53	C	0.978047	-0.356915	0.931374
C54	C	0.958950	-0.278811	0.900295
C55	C	0.958573	-0.279148	0.814650
C56	C	1.049609	-0.377119	0.814559
C57	C	1.049223	-0.378834	0.900210
C58	C	0.978045	-0.356905	1.015233
C59	C	0.978052	-0.356931	0.699132
C60	C	0.978060	-0.356896	1.164397
C61	C	0.978042	-0.356904	1.082082
H62	H	0.592174	-0.270825	0.271044
H63	H	0.720400	-0.442973	0.442557
H64	H	0.720419	-0.270812	0.271029
H65	H	0.907225	-0.261430	0.921744
H66	H	1.018393	-0.792752	0.241737
H67	H	1.083530	-0.793199	0.312855
H68	H	0.872491	-0.400590	0.920428
Br69	Br	0.877210	-0.935282	0.243614
Br70	Br	0.936009	-0.779482	0.508050
Br71	Br	1.083685	-0.777538	0.463603
H72	H	0.892297	-0.793284	0.277653
Br73	Br	0.572974	-0.468730	0.468242
Br74	Br	1.085065	-0.932231	0.462808
Br75	Br	0.383828	-0.468746	0.468251
Br76	Br	0.838597	-0.777950	0.399653
H77	H	0.906274	-0.262065	0.794673
H78	H	0.867643	-0.919498	0.378633
Br79	Br	0.945381	-0.510494	0.934968
Br80	Br	0.945358	-0.510981	0.779992
H81	H	0.236395	-0.442997	0.442604
Br82	Br	1.118241	-0.935141	0.321275
H83	H	0.873002	-0.400930	0.792798
H84	H	0.995043	-0.235042	0.793924
Br85	Br	0.217226	-0.245095	0.245404
H86	H	0.995896	-0.235004	0.920656
Br87	Br	1.010406	-0.933725	0.202704
H88	H	0.364650	-0.270838	0.271053
Br89	Br	0.937224	-0.933596	0.508238
Br90	Br	1.078663	-0.470443	0.778557
H91	H	1.063627	-0.436315	0.920520
Br92	Br	1.117653	-0.314462	0.935873
H93	H	1.088594	-0.335436	0.794304
