data_functionalizedCrystal
_audit_creation_method	'MofGen! by Chris Wilmer'
_symmetry_space_group_name_H-M	'P1'
_symmetry_Int_Tables_number	1
_symmetry_cell_setting	triclinic
loop_
_symmetry_equiv_pos_as_xyz
  x,y,z
_cell_length_a	18.215407
_cell_length_b	13.897448
_cell_length_c	18.215399
_cell_angle_alpha	89.973253
_cell_angle_beta	89.980650
_cell_angle_gamma	90.018140
loop_
_atom_site_label
_atom_site_type_symbol
_atom_site_fract_x
_atom_site_fract_y
_atom_site_fract_z
Zn1	Zn	1.125105	-0.384009	-0.416124
Zn2	Zn	1.625105	0.115991	0.083876
Zn3	Zn	1.125030	-0.545320	-0.293061
Zn4	Zn	1.625030	-0.045320	0.206939
Zn5	Zn	1.002039	-0.384042	-0.293072
Zn6	Zn	1.502039	0.115958	0.206928
Zn7	Zn	1.002019	-0.545265	-0.416086
Zn8	Zn	1.502019	-0.045265	0.083914
O9	O	1.063548	-0.464659	-0.354586
O10	O	1.563548	0.035341	0.145414
O11	O	1.228080	-0.405417	-0.399811
O12	O	1.728080	0.094583	0.100189
O13	O	1.108692	-0.523963	-0.190078
O14	O	1.608692	-0.023963	0.309922
O15	O	1.018404	-0.249056	-0.309415
O16	O	1.518404	0.250944	0.190585
O17	O	1.228024	-0.523931	-0.309398
O18	O	1.728024	-0.023931	0.190602
O19	O	1.108820	-0.249032	-0.399821
O20	O	1.608820	0.250968	0.100179
O21	O	1.018331	-0.405473	-0.190086
O22	O	1.518331	0.094527	0.309914
O23	O	0.899052	-0.405419	-0.309378
O24	O	1.399052	0.094581	0.190622
O25	O	1.018370	-0.523838	-0.519076
O26	O	1.518370	-0.023838	-0.019076
O27	O	0.899037	-0.523869	-0.399757
O28	O	1.399037	-0.023869	0.100243
O29	O	1.108801	-0.405364	-0.519103
O30	O	1.608801	0.094636	-0.019103
O31	O	1.108673	-0.680294	-0.309361
O32	O	1.608673	-0.180294	0.190639
O33	O	1.018297	-0.680254	-0.399747
O34	O	1.518297	-0.180254	0.100253
C35	C	0.872342	-0.464643	-0.354565
C36	C	1.372342	0.035357	0.145435
C37	C	0.790543	-0.464659	-0.354573
C38	C	1.290543	0.035341	0.145427
C39	C	0.602361	-0.526433	-0.401574
C40	C	1.102361	-0.026433	0.098426
C41	C	0.525502	-0.526436	-0.401583
C42	C	1.025502	-0.026436	0.098417
C43	C	0.525488	-0.402903	-0.307614
C44	C	1.025488	0.097097	0.192386
C45	C	0.602345	-0.402896	-0.307609
C46	C	1.102345	0.097104	0.192391
C47	C	0.640780	-0.464666	-0.354588
C48	C	1.140780	0.035334	0.145412
C49	C	0.487064	-0.464676	-0.354602
C50	C	0.987064	0.035324	0.145398
C51	C	0.403730	-0.464679	-0.354612
C52	C	0.903730	0.035321	0.145388
C53	C	0.724119	-0.464662	-0.354579
C54	C	1.224119	0.035338	0.145421
C55	C	1.063495	-0.715274	-0.354565
C56	C	1.563495	-0.215274	0.145435
C57	C	1.063539	-0.822487	-0.354580
C58	C	1.563539	-0.322487	0.145420
C59	C	1.063616	-1.018782	-0.354626
C60	C	1.563616	-0.518782	0.145374
C61	C	1.063571	-0.909550	-0.354603
C62	C	1.563571	-0.409550	0.145397
C63	C	1.255501	-0.464676	-0.354607
C64	C	1.755501	0.035324	0.145393
C65	C	1.337300	-0.464684	-0.354617
C66	C	1.837300	0.035316	0.145383
C67	C	1.063592	-0.464591	-0.546539
C68	C	1.563592	0.035409	-0.046539
C69	C	1.063610	-0.464562	-0.628338
C70	C	1.563610	0.035438	-0.128338
C71	C	1.063622	-0.213066	-0.354623
C72	C	1.563622	0.286934	0.145377
C73	C	1.063654	-0.105852	-0.354639
C74	C	1.563654	0.394148	0.145361
C75	C	1.110724	-0.402789	-0.893411
C76	C	1.610724	0.097211	-0.393411
C77	C	1.110716	-0.402815	-0.816552
C78	C	1.610716	0.097185	-0.316552
C79	C	1.016555	-0.526195	-0.816513
C80	C	1.516555	-0.026195	-0.316513
C81	C	1.016568	-0.526173	-0.893370
C82	C	1.516568	-0.026173	-0.393370
C83	C	1.063652	-0.464464	-0.931818
C84	C	1.563652	0.035536	-0.431818
C85	C	1.063630	-0.464512	-0.778101
C86	C	1.563630	0.035488	-0.278101
C87	C	1.063620	-0.464541	-0.694768
C88	C	1.563620	0.035459	-0.194768
C89	C	1.063663	-0.464437	-1.015157
C90	C	1.563663	0.035563	-0.515157
C91	C	1.063548	-0.464658	-0.163380
C92	C	1.563548	0.035342	0.336620
C93	C	1.063672	-0.464415	-0.081581
C94	C	1.563672	0.035585	0.418419
H95	H	0.633652	-0.576728	-0.439829
H96	H	1.133652	-0.076728	0.060171
H97	H	1.149048	-0.352594	-0.785285
H98	H	1.649048	0.147406	-0.285285
H99	H	0.633626	-0.352592	-0.269347
H100	H	1.133626	0.147408	0.230653
H101	H	0.978220	-0.576434	-0.785200
H102	H	1.478220	-0.076434	-0.285200
Cl103	Cl	0.957391	-0.603720	-0.941657
Cl104	Cl	1.457391	-0.103720	-0.441657
Cl105	Cl	0.477208	-0.604087	-0.460656
Cl106	Cl	0.977208	-0.104087	0.039344
H107	H	0.494185	-0.352613	-0.269364
H108	H	0.994185	0.147387	0.230636
H109	H	1.149063	-0.352542	-0.924713
H110	H	1.649063	0.147458	-0.424713
