data_functionalizedCrystal
_audit_creation_method	'MofGen! by Chris Wilmer'
_symmetry_space_group_name_H-M	'P1'
_symmetry_Int_Tables_number	1
_symmetry_cell_setting	triclinic
loop_
_symmetry_equiv_pos_as_xyz
  x,y,z
_cell_length_a	9.065218
_cell_length_b	12.996460
_cell_length_c	9.065218
_cell_angle_alpha	89.995890
_cell_angle_beta	85.015885
_cell_angle_gamma	89.993829
loop_
_atom_site_label
_atom_site_type_symbol
_atom_site_fract_x
_atom_site_fract_y
_atom_site_fract_z
O1	O	1.960405	-0.085565	0.216359
O2	O	1.531120	-0.085566	0.234106
O3	O	1.754636	-0.085563	0.010590
O4	O	1.736889	-0.085568	0.439875
O5	O	1.754609	0.085570	0.010578
O6	O	1.531094	0.085568	0.234094
O7	O	1.960379	0.085569	0.216347
Cu8	Cu	1.745734	0.101194	0.225219
Cu9	Cu	1.745765	-0.101191	0.225233
O10	O	1.736863	0.085566	0.439863
C11	C	1.476120	0.000001	0.232394
C12	C	1.312277	0.000000	0.227294
N13	N	1.745723	0.243541	0.225209
C14	C	1.745752	0.663356	0.225239
C15	C	1.745740	0.546551	0.225236
C16	C	1.745738	0.453452	0.225225
C17	C	1.745724	0.336640	0.225219
C18	C	2.015378	-0.000000	0.218059
C19	C	2.179221	-0.000006	0.223158
N20	N	1.745773	0.756462	0.225238
C21	C	1.752917	0.000002	-0.044403
C22	C	1.747817	-0.000003	-0.208245
C23	C	1.738582	-0.000001	0.494855
C24	C	1.743681	-0.000003	0.658698
