data_functionalizedCrystal
_audit_creation_method	'MofGen! by Chris Wilmer'
_symmetry_space_group_name_H-M	'P1'
_symmetry_Int_Tables_number	1
_symmetry_cell_setting	triclinic
loop_
_symmetry_equiv_pos_as_xyz
  x,y,z
_cell_length_a	16.109301
_cell_length_b	13.930277
_cell_length_c	16.109301
_cell_angle_alpha	89.994021
_cell_angle_beta	96.538468
_cell_angle_gamma	90.004854
loop_
_atom_site_label
_atom_site_type_symbol
_atom_site_fract_x
_atom_site_fract_y
_atom_site_fract_z
O1	O	1.103135	0.079781	-0.106867
O2	O	0.861073	0.079795	-0.120167
O3	O	0.988754	0.079778	0.007514
O4	O	0.975454	0.079798	-0.234548
O5	O	0.988736	-0.079884	0.007517
O6	O	0.861055	-0.079867	-0.120164
O7	O	1.103117	-0.079881	-0.106865
Zn8	Zn	0.982084	-0.105223	-0.113514
Zn9	Zn	0.982107	0.105138	-0.113517
O10	O	0.975437	-0.079864	-0.234545
C11	C	0.830089	-0.000034	-0.119627
C12	C	0.737794	-0.000029	-0.118011
C13	C	0.428796	-0.000040	-0.188494
C14	C	0.515516	-0.000034	-0.190020
C15	C	0.535389	-0.000034	-0.038531
C16	C	0.448671	-0.000033	-0.037007
C17	C	0.395376	-0.000041	-0.111991
C18	C	0.568815	-0.000036	-0.115041
C19	C	0.662841	-0.000030	-0.116694
C20	C	0.301344	-0.000045	-0.110338
N21	N	0.982074	-0.248790	-0.113511
C22	C	0.925568	-0.701051	-0.170032
C23	C	1.038669	-0.701036	-0.056996
C24	C	1.038659	-0.600540	-0.056994
C25	C	0.982104	-0.550295	-0.113512
C26	C	0.925558	-0.600546	-0.170033
C27	C	1.095209	-0.550282	-0.000479
C28	C	1.095202	-0.449780	-0.000475
C29	C	1.038642	-0.399533	-0.056990
C30	C	0.982094	-0.449790	-0.113513
C31	C	0.925538	-0.399546	-0.170031
C32	C	0.868985	-0.449801	-0.226551
C33	C	0.868998	-0.550300	-0.226548
C34	C	1.038629	-0.299034	-0.056993
C35	C	0.925528	-0.299040	-0.170032
C36	C	1.134101	-0.000049	-0.107405
C37	C	1.226396	-0.000048	-0.109020
C38	C	0.988206	-0.000053	0.038490
C39	C	0.986591	-0.000055	0.130785
N40	N	0.982123	0.248704	-0.113514
C41	C	0.975984	-0.000030	-0.265522
C42	C	0.977599	-0.000022	-0.357817
C43	C	1.058599	-0.000044	0.353058
C44	C	1.057075	-0.000036	0.439778
C45	C	0.905586	-0.000031	0.419904
C46	C	0.907111	-0.000032	0.333185
C47	C	0.983620	-0.000043	0.299765
C48	C	0.980571	-0.000034	0.473204
C49	C	0.978918	-0.000025	0.567230
C50	C	0.985273	-0.000050	0.205733
H51	H	0.385405	-0.000046	-0.249551
Br52	Br	0.805346	-0.000018	0.260852
H53	H	0.578792	-0.000030	0.022518
H54	H	0.421461	-0.000031	0.025296
H55	H	0.542722	-0.000033	-0.252317
H56	H	1.120897	-0.000051	0.325850
Br57	Br	1.171949	-0.381582	0.076228
Br58	Br	0.848763	-0.230859	-0.246733
Br59	Br	1.115428	-0.769221	0.019697
Br60	Br	1.171969	-0.618467	0.076214
Br61	Br	0.792241	-0.381601	-0.303260
H62	H	0.822955	-0.591224	-0.272565
H63	H	1.084678	-0.258121	-0.010979
H64	H	0.879521	-0.741972	-0.216047
Br65	Br	0.801758	-0.000012	0.465266
Br66	Br	1.158837	-0.000031	0.512102
