data_functionalizedCrystal
_audit_creation_method	'MofGen! by Chris Wilmer'
_symmetry_space_group_name_H-M	'P1'
_symmetry_Int_Tables_number	1
_symmetry_cell_setting	triclinic
loop_
_symmetry_equiv_pos_as_xyz
  x,y,z
_cell_length_a	17.000383
_cell_length_b	17.038272
_cell_length_c	14.586319
_cell_angle_alpha	89.995924
_cell_angle_beta	89.993336
_cell_angle_gamma	83.355929
loop_
_atom_site_label
_atom_site_type_symbol
_atom_site_fract_x
_atom_site_fract_y
_atom_site_fract_z
O1	O	1.057999	0.028051	-0.076304
O2	O	1.557999	0.528051	0.423696
O3	O	0.828179	0.056294	-0.076292
O4	O	1.328179	0.556294	0.423708
O5	O	0.941723	-0.071549	-0.076290
O6	O	1.441723	0.428451	0.423710
O7	O	0.944455	0.155895	-0.076305
O8	O	1.444455	0.655895	0.423695
O9	O	0.941714	-0.071550	0.076190
O10	O	1.441714	0.428450	0.576190
O11	O	0.828170	0.056293	0.076189
O12	O	1.328170	0.556293	0.576189
O13	O	1.057990	0.028050	0.076177
O14	O	1.557990	0.528050	0.576177
Cu15	Cu	0.943079	0.042171	0.090106
Cu16	Cu	1.443079	0.542171	0.590106
Cu17	Cu	0.943089	0.042173	-0.090221
Cu18	Cu	1.443089	0.542173	0.409779
O19	O	0.944446	0.155893	0.076176
O20	O	1.444446	0.655893	0.576176
C21	C	0.798624	0.057810	-0.000050
C22	C	1.298624	0.557810	0.499950
C23	C	0.710571	0.062321	-0.000045
C24	C	1.210571	0.562321	0.499955
C25	C	0.212326	0.091445	-0.000082
C26	C	0.712326	0.591445	0.499918
C27	C	0.295061	0.087201	-0.000081
C28	C	0.795061	0.587201	0.499919
C29	C	0.341068	0.013535	-0.000069
C30	C	0.841068	0.513535	0.499931
C31	C	0.304335	-0.055892	-0.000067
C32	C	0.804335	0.444108	0.499933
C33	C	0.221601	-0.051647	-0.000075
C34	C	0.721601	0.448353	0.499925
C35	C	0.591103	-0.002861	-0.000052
C36	C	1.091103	0.497139	0.499948
C37	C	0.673843	-0.007101	-0.000041
C38	C	1.173843	0.492899	0.499959
C39	C	0.664564	0.135993	-0.000056
C40	C	1.164564	0.635993	0.499944
C41	C	0.581828	0.140231	-0.000058
C42	C	1.081828	0.640231	0.499942
C43	C	0.545103	0.070804	-0.000062
C44	C	1.045103	0.570804	0.499938
C45	C	0.425637	0.009195	-0.000065
C46	C	0.925637	0.509195	0.499935
C47	C	0.460535	0.075145	-0.000072
C48	C	0.960535	0.575145	0.499928
C49	C	0.939234	-0.100508	-0.000050
C50	C	1.439234	0.399492	0.499950
C51	C	0.931821	-0.186793	-0.000050
C52	C	1.431821	0.313207	0.499950
C53	C	0.999879	-0.241568	-0.000052
C54	C	1.499879	0.258432	0.499948
C55	C	0.992910	-0.322641	-0.000061
C56	C	1.492910	0.177359	0.499939
C57	C	0.917881	-0.348938	-0.000060
C58	C	1.417881	0.151062	0.499940
C59	C	0.849817	-0.294156	-0.000060
C60	C	1.349817	0.205844	0.499940
C61	C	0.856788	-0.213085	-0.000059
C62	C	1.356788	0.286915	0.499941
C63	C	0.893255	-0.593009	-0.000071
C64	C	1.393255	-0.093009	0.499929
C65	C	0.886289	-0.674088	-0.000070
C66	C	1.386289	-0.174088	0.499930
C67	C	1.029382	-0.702567	-0.000073
C68	C	1.529382	-0.202567	0.499927
C69	C	1.036346	-0.621493	-0.000065
C70	C	1.536346	-0.121493	0.499935
C71	C	0.968283	-0.566718	-0.000070
C72	C	1.468283	-0.066718	0.499930
C73	C	0.910755	-0.431807	-0.000066
C74	C	1.410755	0.068193	0.499934
C75	C	0.975410	-0.483850	-0.000071
C76	C	1.475410	0.016150	0.499929
C77	C	1.087545	0.026534	-0.000067
C78	C	1.587545	0.526534	0.499933
C79	C	1.175598	0.022024	-0.000077
C80	C	1.675598	0.522024	0.499923
C81	C	0.946935	0.184852	-0.000067
C82	C	1.446935	0.684852	0.499933
C83	C	0.954348	0.271137	-0.000073
C84	C	1.454348	0.771137	0.499927
N85	N	0.943078	0.042170	0.216937
N86	N	1.443078	0.542170	0.716937
N87	N	0.943097	0.042168	-0.217052
N88	N	1.443097	0.542168	0.282948
C89	C	0.993374	-0.014423	0.451945
C90	C	1.493374	0.485577	0.951945
C91	C	0.993376	-0.014425	0.547926
C92	C	1.493376	0.485575	1.047926
C93	C	0.892795	0.098764	0.547934
C94	C	1.392795	0.598764	1.047934
C95	C	0.892789	0.098761	0.451954
C96	C	1.392789	0.598761	0.951954
C97	C	0.943083	0.042169	0.403962
C98	C	1.443083	0.542169	0.903962
C99	C	0.943091	0.042169	0.595923
C100	C	1.443091	0.542169	1.095923
C101	C	0.943093	0.042167	0.699990
C102	C	1.443093	0.542167	1.199990
C103	C	0.943081	0.042169	0.299888
C104	C	1.443081	0.542169	0.799888
H105	H	0.711300	-0.067092	-0.000036
H106	H	1.211300	0.432908	0.499964
H107	H	1.034326	-0.060505	0.412872
H108	H	1.534326	0.439495	0.912872
N109	N	0.532208	0.219685	0.000051
N110	N	1.032208	0.719685	0.500051
H111	H	0.568030	0.263021	0.000087
H112	H	1.068030	0.763021	0.500087
H113	H	0.497641	0.224635	-0.056439
H114	H	0.997641	0.724635	0.443561
H115	H	0.561212	-0.059393	-0.000052
H116	H	1.061212	0.440607	0.499948
H117	H	0.463105	-0.050784	-0.000052
H118	H	0.963105	0.449216	0.499948
H119	H	0.341800	-0.115872	-0.000063
H120	H	0.841800	0.384128	0.499937
H121	H	0.191699	-0.108177	-0.000073
H122	H	0.691699	0.391823	0.499927
N123	N	0.704182	0.210866	-0.000067
N124	N	1.204182	0.710866	0.499933
H125	H	0.687764	0.242877	-0.056598
H126	H	1.187764	0.742877	0.443402
H127	H	0.687736	0.242827	0.056489
H128	H	1.187736	0.742827	0.556489
H129	H	0.423073	0.135124	-0.000086
H130	H	0.923073	0.635124	0.499914
H131	H	1.034327	-0.060508	0.586990
H132	H	1.534327	0.439492	1.086990
H133	H	0.851847	0.144841	0.587019
H134	H	1.351847	0.644841	1.087019
H135	H	1.060976	-0.220165	-0.000047
H136	H	1.560976	0.279835	0.499953
N137	N	0.838542	0.159807	0.400204
N138	N	1.338542	0.659807	0.900204
H139	H	0.871145	0.192199	0.360368
H140	H	1.371145	0.692199	0.860368
H141	H	0.801458	0.132401	0.360448
H142	H	1.301458	0.632401	0.860448
H143	H	1.097443	-0.600089	-0.000066
H144	H	1.597443	-0.100089	0.499934
N145	N	1.066315	-0.381721	-0.000058
N146	N	1.566315	0.118279	0.499942
H147	H	1.114902	-0.352760	-0.000050
H148	H	1.614902	0.147240	0.499950
H149	H	1.066529	-0.415980	0.056468
H150	H	1.566529	0.084020	0.556468
H151	H	0.174873	0.151432	-0.000084
H152	H	0.674873	0.651432	0.499916
H153	H	1.084795	-0.747173	-0.000070
H154	H	1.584795	-0.247173	0.499930
N155	N	0.805362	-0.702453	-0.000071
N156	N	1.305362	-0.202453	0.499929
H157	H	0.763301	-0.655452	-0.000077
H158	H	1.263301	-0.155452	0.499923
H159	H	0.799365	-0.735470	-0.056597
H160	H	1.299365	-0.235470	0.443403
H161	H	0.837832	-0.548421	-0.000075
H162	H	1.337832	-0.048421	0.499925
N163	N	0.334676	0.162076	-0.000100
N164	N	0.834676	0.662076	0.499900
H165	H	0.292976	0.209387	-0.000108
H166	H	0.792976	0.709387	0.499892
H167	H	0.368797	0.163440	0.056423
H168	H	0.868797	0.663440	0.556423
H169	H	0.801367	-0.168486	-0.000057
H170	H	1.301367	0.331514	0.499943
N171	N	0.768892	-0.322514	-0.000066
N172	N	1.268892	0.177486	0.499934
H173	H	0.774801	-0.382185	-0.000064
H174	H	1.274801	0.117815	0.499936
H175	H	0.738864	-0.302126	0.056462
H176	H	1.238864	0.197874	0.556462
N177	N	1.056330	-0.455488	-0.000065
N178	N	1.556330	0.044512	0.499935
H179	H	1.086386	-0.475825	0.056463
H180	H	1.586386	0.024175	0.556463
H181	H	1.086343	-0.475821	-0.056624
H182	H	1.586343	0.024179	0.443376
N183	N	0.829830	-0.460168	-0.000057
N184	N	1.329830	0.039832	0.499943
H185	H	0.823753	-0.493166	-0.056582
H186	H	1.323753	0.006834	0.443418
H187	H	0.823802	-0.493140	0.056505
H188	H	1.323802	0.006860	0.556505
