data_functionalizedCrystal
_audit_creation_method	'MofGen! by Chris Wilmer'
_symmetry_space_group_name_H-M	'P1'
_symmetry_Int_Tables_number	1
_symmetry_cell_setting	triclinic
loop_
_symmetry_equiv_pos_as_xyz
  x,y,z
_cell_length_a	15.995280
_cell_length_b	15.995350
_cell_length_c	14.472310
_cell_angle_alpha	90.001162
_cell_angle_beta	90.013746
_cell_angle_gamma	96.522014
loop_
_atom_site_label
_atom_site_type_symbol
_atom_site_fract_x
_atom_site_fract_y
_atom_site_fract_z
O1	O	-1.111033	0.107640	-0.076852
O2	O	-0.867250	0.121029	-0.076850
O3	O	-0.995806	-0.007555	-0.076850
O4	O	-0.982478	0.236224	-0.076851
O5	O	-0.995773	-0.007547	0.076832
O6	O	-0.867217	0.121037	0.076832
O7	O	-1.111000	0.107648	0.076830
Cu8	Cu	-0.989106	0.114343	0.090864
Cu9	Cu	-0.989145	0.114334	-0.090883
O10	O	-0.982445	0.236231	0.076831
C11	C	-0.836038	0.120490	-0.000008
C12	C	-0.743084	0.118861	-0.000008
C13	C	-0.405344	0.112875	-0.000021
C14	C	-0.428656	0.205678	-0.000364
C15	C	-0.525332	0.207438	-0.000013
C16	C	-0.572901	0.115846	-0.000015
C17	C	-0.543780	0.069453	0.087742
C18	C	-0.446989	0.068340	0.087811
C19	C	-0.447171	0.066437	-0.086955
C20	C	-0.543664	0.069872	-0.088110
C21	C	-0.667597	0.117519	-0.000008
C22	C	-0.310647	0.111199	-0.000021
C23	C	-0.995238	-0.038746	-0.000011
C24	C	-0.993586	-0.131696	-0.000016
C25	C	-0.987654	-0.469442	-0.000013
C26	C	-0.896099	-0.421984	-0.000356
C27	C	-0.897751	-0.325295	-0.000010
C28	C	-0.990596	-0.301882	-0.000015
C29	C	-1.035736	-0.342966	0.087743
C30	C	-1.033436	-0.439602	0.087817
C31	C	-1.035365	-0.439969	-0.086948
C32	C	-1.035343	-0.343023	-0.088108
C33	C	-0.992264	-0.207185	-0.000013
C34	C	-0.985989	-0.564139	-0.000008
C35	C	-0.142211	0.108198	-0.000015
C36	C	-0.235160	0.109859	-0.000028
C37	C	-0.983012	0.267422	-0.000011
C38	C	-0.984664	0.360372	-0.000012
N39	N	-0.989084	0.114348	0.218695
N40	N	-0.989173	0.114322	-0.218714
C41	C	-0.989144	0.114331	0.592786
C42	C	-0.920125	0.182903	0.553620
C43	C	-0.920284	0.183153	0.446532
C44	C	-0.989113	0.114340	0.407195
C45	C	-1.076481	0.133399	0.446031
C46	C	-1.076093	0.133887	0.553153
C47	C	-0.971574	0.026495	0.553316
C48	C	-0.969570	0.027082	0.446189
C49	C	-0.989102	0.114343	0.302307
C50	C	-0.989161	0.114329	0.697674
H51	H	-0.575648	0.002054	0.091004
H52	H	-0.931504	0.248334	0.420897
C53	C	-0.588198	-0.020450	-0.095267
N54	N	-0.621738	-0.088485	-0.100649
C55	C	-1.127880	-0.323890	0.092163
N56	N	-1.197281	-0.309514	0.095494
H57	H	-0.563825	0.101676	0.153052
H58	H	-0.418858	0.095442	-0.153470
C59	C	-0.935071	0.270466	0.589971
N60	N	-0.946331	0.336418	0.617352
H61	H	-1.092334	0.196726	0.419193
C62	C	-1.039565	-0.042443	0.587537
N63	N	-1.090777	-0.094362	0.613319
C64	C	-0.990800	-0.306157	-0.175817
N65	N	-0.957243	-0.278391	-0.241878
C66	C	-0.849458	-0.287631	0.085125
N67	N	-0.813083	-0.259263	0.149253
C68	C	-0.988921	-0.464311	0.176439
N69	N	-0.955388	-0.482918	0.243189
H70	H	-1.091576	0.197943	0.578128
C71	C	-1.124241	-0.483192	0.093206
N72	N	-1.192635	-0.516021	0.097271
H73	H	-0.562248	0.103650	-0.153032
H74	H	-0.859654	-0.441566	0.062226
H75	H	-0.433178	-0.001873	-0.087549
C76	C	-0.551063	0.256473	-0.085032
N77	N	-0.570440	0.293392	-0.149082
H78	H	-0.862267	-0.296867	-0.062918
H79	H	-0.420157	0.100478	0.153412
C80	C	-0.846673	-0.447020	-0.085369
N81	N	-0.809444	-0.465885	-0.149402
C82	C	-0.993341	-0.304617	0.175975
N83	N	-0.961403	-0.275733	0.242430
C84	C	-0.994942	-0.467707	-0.176808
N85	N	-0.964486	-0.488597	-0.244486
C86	C	-1.126818	-0.322301	-0.095269
N87	N	-1.195721	-0.306696	-0.100653
H88	H	-1.102868	-0.471747	-0.087542
C89	C	-0.550182	0.256814	0.085127
N90	N	-0.568897	0.294003	0.149260
H91	H	-1.129056	0.085910	0.579058
H92	H	-0.854973	0.171737	0.579409
C93	C	-0.390849	0.254006	-0.085385
N94	N	-0.362366	0.290407	-0.149425
C95	C	-1.147525	0.067723	0.411603
N96	N	-1.201034	0.018255	0.385670
C97	C	-0.832546	0.167831	0.411060
N98	N	-0.766457	0.156296	0.384347
C99	C	-0.887356	0.001746	0.589850
N100	N	-0.823919	-0.016885	0.617367
H101	H	-0.905302	0.012617	0.420807
C102	C	-1.033084	-0.045083	0.410038
N103	N	-1.080935	-0.099434	0.382817
H104	H	-0.432437	0.000297	0.091796
C105	C	-0.389441	0.253742	0.084182
N106	N	-0.359903	0.289941	0.147864
