data_functionalizedCrystal
_audit_creation_method	'MofGen! by Chris Wilmer'
_symmetry_space_group_name_H-M	'P1'
_symmetry_Int_Tables_number	1
_symmetry_cell_setting	triclinic
loop_
_symmetry_equiv_pos_as_xyz
  x,y,z
_cell_length_a	27.732048
_cell_length_b	27.732048
_cell_length_c	26.809956
_cell_angle_alpha	90.000636
_cell_angle_beta	89.996742
_cell_angle_gamma	97.357345
loop_
_atom_site_label
_atom_site_type_symbol
_atom_site_fract_x
_atom_site_fract_y
_atom_site_fract_z
O1	O	0.640931	-0.057510	-0.041421
O2	O	1.140931	0.442490	0.458579
O3	O	0.500138	-0.066256	-0.041436
O4	O	1.000138	0.433744	0.458564
O5	O	0.574907	0.008514	-0.041419
O6	O	1.074907	0.508514	0.458581
O7	O	0.566162	-0.132280	-0.041439
O8	O	1.066162	0.367720	0.458561
O9	O	0.574893	0.008502	0.041541
O10	O	1.074893	0.508502	0.541541
O11	O	0.500123	-0.066267	0.041523
O12	O	1.000123	0.433733	0.541523
O13	O	0.640917	-0.057522	0.041539
O14	O	1.140917	0.442478	0.541539
Zn15	Zn	0.570518	-0.061896	0.054702
Zn16	Zn	1.070518	0.438104	0.554702
Zn17	Zn	0.570536	-0.061881	-0.054600
Zn18	Zn	1.070536	0.438119	0.445400
O19	O	0.566147	-0.132291	0.041521
O20	O	1.066147	0.367709	0.541521
C21	C	0.482124	-0.066078	0.000041
C22	C	0.982124	0.433922	0.500041
C23	C	0.428469	-0.065525	0.000036
C24	C	0.928469	0.434475	0.500036
C25	C	0.089654	-0.106229	0.000051
C26	C	0.589654	0.393771	0.500051
C27	C	-0.112006	-0.104178	0.000056
C28	C	0.387994	0.395822	0.500056
O29	O	-0.143262	-0.141398	0.000073
O30	O	0.356738	0.358602	0.500073
N31	N	-0.131130	-0.059843	0.000062
N32	N	0.368870	0.440157	0.500062
C33	C	-0.099835	-0.016017	0.000069
C34	C	0.400165	0.483983	0.500069
O35	O	-0.120728	0.021740	0.000079
O36	O	0.379272	0.521740	0.500079
C37	C	0.101824	-0.018068	0.000068
C38	C	0.601824	0.481932	0.500068
C39	C	0.120944	-0.062407	0.000057
C40	C	0.620944	0.437593	0.500057
C41	C	0.108775	-0.150563	0.000042
C42	C	0.608775	0.349437	0.500042
C43	C	0.159187	-0.151076	0.000038
C44	C	0.659187	0.348924	0.500038
C45	C	0.190477	-0.107253	0.000044
C46	C	0.690477	0.392747	0.500044
C47	C	0.171356	-0.062919	0.000054
C48	C	0.671356	0.437081	0.500054
C49	C	0.133117	0.025757	0.000079
C50	C	0.633117	0.525757	0.500079
C51	C	0.183535	0.025240	0.000080
C52	C	0.683535	0.525240	0.500080
C53	C	0.202655	-0.019098	0.000069
C54	C	0.702655	0.480902	0.500069
C55	C	0.253059	-0.019609	0.000056
C56	C	0.753059	0.480391	0.500056
N57	N	0.272183	-0.063944	0.000050
N58	N	0.772183	0.436056	0.500050
C59	C	0.240892	-0.107766	0.000044
C60	C	0.740892	0.392234	0.500044
C61	C	-0.205709	-0.014943	0.000069
C62	C	0.294291	0.485057	0.500069
C63	C	-0.256124	-0.014430	0.000068
C64	C	0.243876	0.485570	0.500068
C65	C	-0.268291	-0.102591	0.000056
C66	C	0.231709	0.397409	0.500056
C67	C	-0.217876	-0.103104	0.000053
C68	C	0.282124	0.396896	0.500053
C69	C	-0.186585	-0.059278	0.000063
C70	C	0.313415	0.440722	0.500063
C71	C	0.346761	-0.108839	0.000036
C72	C	0.846761	0.391161	0.500036
C73	C	0.397178	-0.109347	0.000030
C74	C	0.897178	0.390653	0.500030
C75	C	0.409341	-0.021186	0.000044
C76	C	0.909341	0.478814	0.500044
C77	C	0.358929	-0.020678	0.000048
C78	C	0.858929	0.479322	0.500048
C79	C	0.327639	-0.064508	0.000045
C80	C	0.827639	0.435492	0.500045
O81	O	0.284343	0.017592	0.000045
O82	O	0.784343	0.517592	0.500045
O83	O	0.261794	-0.145518	0.000045
O84	O	0.761794	0.354482	0.500045
C85	C	0.039242	-0.105716	0.000055
C86	C	0.539242	0.394284	0.500055
C87	C	0.020120	-0.061382	0.000065
C88	C	0.520120	0.438618	0.500065
C89	C	0.051411	-0.017560	0.000071
C90	C	0.551411	0.482440	0.500071
C91	C	-0.030294	-0.060869	0.000065
C92	C	0.469706	0.439131	0.500065
C93	C	-0.061585	-0.104691	0.000059
C94	C	0.438415	0.395309	0.500059
C95	C	-0.042461	-0.149026	0.000053
C96	C	0.457539	0.350974	0.500053
C97	C	0.007951	-0.149539	0.000049
C98	C	0.507951	0.350461	0.500049
C99	C	0.032287	0.026775	0.000077
C100	C	0.532287	0.526775	0.500077
C101	C	-0.018125	0.027284	0.000080
C102	C	0.481875	0.527284	0.500080
C103	C	-0.049416	-0.016538	0.000074
C104	C	0.450584	0.483462	0.500074
C105	C	0.574716	0.026515	0.000062
C106	C	1.074716	0.526515	0.500062
C107	C	0.574164	0.080170	0.000066
C108	C	1.074164	0.580170	0.500066
C109	C	0.658931	-0.057699	0.000060
C110	C	1.158931	0.442301	0.500060
C111	C	0.712586	-0.058252	0.000062
C112	C	1.212586	0.441748	0.500062
C113	C	0.566338	-0.150292	0.000039
C114	C	1.066338	0.349708	0.500039
C115	C	0.566891	-0.203947	0.000031
C116	C	1.066891	0.296053	0.500031
N117	N	0.570509	-0.061906	0.129298
N118	N	1.070509	0.438094	0.629298
C119	C	0.614867	0.418985	0.000045
C120	C	1.114867	0.918985	0.500045
C121	C	0.612816	0.620645	0.000038
C122	C	1.112816	1.120645	0.500038
O123	O	0.650037	0.651900	0.000021
O124	O	1.150037	1.151900	0.500021
N125	N	0.568481	0.639768	0.000034
N126	N	1.068481	1.139768	0.500034
C127	C	0.524656	0.608474	0.000028
C128	C	1.024656	1.108474	0.500028
O129	O	0.486899	0.629367	0.000019
O130	O	0.986899	1.129367	0.500019
C131	C	0.526707	0.406815	0.000031
C132	C	1.026707	0.906815	0.500031
C133	C	0.571045	0.387694	0.000041
C134	C	1.071045	0.887694	0.500041
C135	C	0.659202	0.399864	0.000054
C136	C	1.159202	0.899864	0.500054
C137	C	0.659714	0.349452	0.000059
C138	C	1.159714	0.849452	0.500059
C139	C	0.615892	0.318161	0.000054
C140	C	1.115892	0.818161	0.500054
C141	C	0.571557	0.337282	0.000045
C142	C	1.071557	0.837282	0.500045
C143	C	0.482882	0.375521	0.000022
C144	C	0.982882	0.875521	0.500022
C145	C	0.483399	0.325104	0.000021
C146	C	0.983399	0.825104	0.500021
C147	C	0.527737	0.305983	0.000031
C148	C	1.027737	0.805983	0.500031
C149	C	0.528247	0.255580	0.000045
C150	C	1.028247	0.755580	0.500045
N151	N	0.572583	0.236456	0.000050
N152	N	1.072583	0.736456	0.500050
C153	C	0.616405	0.267747	0.000054
C154	C	1.116405	0.767747	0.500054
C155	C	0.523582	0.714348	0.000027
C156	C	1.023582	1.214348	0.500027
C157	C	0.523069	0.764762	0.000027
C158	C	1.023069	1.264762	0.500027
C159	C	0.611230	0.776930	0.000036
C160	C	1.111230	1.276930	0.500036
C161	C	0.611742	0.726514	0.000040
C162	C	1.111742	1.226514	0.500040
C163	C	0.567917	0.695224	0.000031
C164	C	1.067917	1.195224	0.500031
C165	C	0.617477	0.161878	0.000064
C166	C	1.117477	0.661878	0.500064
C167	C	0.617986	0.111461	0.000071
C168	C	1.117986	0.611461	0.500071
C169	C	0.529825	0.099298	0.000059
C170	C	1.029825	0.599298	0.500059
C171	C	0.529316	0.149710	0.000055
C172	C	1.029316	0.649710	0.500055
C173	C	0.573147	0.180999	0.000056
C174	C	1.073147	0.680999	0.500056
O175	O	0.491047	0.224296	0.000057
O176	O	0.991047	0.724296	0.500057
O177	O	0.654156	0.246844	0.000053
O178	O	1.154156	0.746844	0.500053
C179	C	0.614355	0.469397	0.000041
C180	C	1.114355	0.969397	0.500041
C181	C	0.570021	0.488518	0.000032
C182	C	1.070021	0.988518	0.500032
C183	C	0.526198	0.457228	0.000027
C184	C	1.026198	0.957228	0.500027
C185	C	0.569508	0.538933	0.000032
C186	C	1.069508	1.038933	0.500032
C187	C	0.613330	0.570223	0.000036
C188	C	1.113330	1.070223	0.500036
C189	C	0.657665	0.551100	0.000041
C190	C	1.157665	1.051100	0.500041
C191	C	0.658177	0.500688	0.000045
C192	C	1.158177	1.000688	0.500045
C193	C	0.481863	0.476351	0.000023
C194	C	0.981863	0.976351	0.500023
C195	C	0.481355	0.526764	0.000019
C196	C	0.981355	1.026764	0.500019
C197	C	0.525177	0.558054	0.000023
C198	C	1.025177	1.058054	0.500023
N199	N	0.570549	-0.061867	-0.129196
N200	N	1.070549	0.438133	0.370804
C201	C	0.603640	-0.028781	0.473932
C202	C	1.103640	0.471219	0.973932
C203	C	0.603652	-0.028774	0.682810
C204	C	1.103652	0.471226	1.182810
O205	O	0.631801	-0.000613	0.709820
O206	O	1.131801	0.499387	1.209820
N207	N	0.570539	-0.061870	0.708925
N208	N	1.070539	0.438130	1.208925
C209	C	0.537419	-0.094969	0.682818
C210	C	1.037419	0.405031	1.182818
O211	O	0.509252	-0.123116	0.709824
O212	O	1.009252	0.376884	1.209824
C213	C	0.537406	-0.094974	0.473941
C214	C	1.037406	0.405026	0.973941
C215	C	0.570524	-0.061878	0.447829
C216	C	1.070524	0.438122	0.947829
C217	C	0.636755	0.004312	0.447819
C218	C	1.136755	0.504312	0.947819
C219	C	0.636754	0.004308	0.395603
C220	C	1.136754	0.504308	0.895603
C221	C	0.603637	-0.028789	0.369500
C222	C	1.103637	0.471211	0.869500
C223	C	0.570522	-0.061882	0.395612
C224	C	1.070522	0.438118	0.895612
C225	C	0.504284	-0.128070	0.447835
C226	C	1.004284	0.371930	0.947835
C227	C	0.504283	-0.128067	0.395613
C228	C	1.004283	0.371933	0.895613
C229	C	0.537401	-0.094972	0.369500
C230	C	1.037401	0.405028	0.869500
C231	C	0.537405	-0.094983	0.317293
C232	C	1.037405	0.405017	0.817293
N233	N	0.570517	-0.061887	0.291177
N234	N	1.070517	0.438113	0.791177
C235	C	0.603633	-0.028790	0.317281
C236	C	1.103633	0.471210	0.817281
C237	C	0.537429	-0.094965	0.792481
C238	C	1.037429	0.405035	1.292481
C239	C	0.537433	-0.094964	0.844700
C240	C	1.037433	0.405036	1.344700
C241	C	0.603665	-0.028768	0.844689
C242	C	1.103665	0.471232	1.344689
C243	C	0.603663	-0.028772	0.792469
C244	C	1.103663	0.471228	1.292469
C245	C	0.570542	-0.061868	0.766366
C246	C	1.070542	0.438132	1.266366
C247	C	0.603628	-0.028801	0.207623
C248	C	1.103628	0.471199	0.707623
C249	C	0.603625	-0.028809	0.155402
C250	C	1.103625	0.471191	0.655402
C251	C	0.537392	-0.095003	0.155418
C252	C	1.037392	0.404997	0.655418
C253	C	0.537396	-0.094997	0.207635
C254	C	1.037396	0.405003	0.707635
C255	C	0.570516	-0.061892	0.233735
C256	C	1.070516	0.438108	0.733735
O257	O	0.509266	-0.123126	0.290250
O258	O	1.009266	0.376874	0.790250
O259	O	0.631789	-0.000640	0.290266
O260	O	1.131789	0.499360	0.790266
C261	C	0.603642	-0.028777	0.526149
C262	C	1.103642	0.471223	1.026149
C263	C	0.570527	-0.061870	0.552261
C264	C	1.070527	0.438130	1.052261
C265	C	0.537410	-0.094968	0.526158
C266	C	1.037410	0.405032	1.026158
C267	C	0.570531	-0.061870	0.604480
C268	C	1.070531	0.438130	1.104480
C269	C	0.603647	-0.028773	0.630584
C270	C	1.103647	0.471227	1.130584
C271	C	0.636759	0.004324	0.604468
C272	C	1.136759	0.504324	1.104468
C273	C	0.636758	0.004320	0.552252
C274	C	1.136758	0.504320	1.052252
C275	C	0.504298	-0.128064	0.552273
C276	C	1.004298	0.371936	1.052273
C277	C	0.504303	-0.128058	0.604489
C278	C	1.004303	0.371942	1.104489
C279	C	0.537419	-0.094961	0.630593
C280	C	1.037419	0.405039	1.130593
H281	H	0.209009	0.060929	0.000089
H282	H	0.709009	0.560929	0.500089
N283	N	0.670572	0.038119	0.368926
N284	N	1.170572	0.538119	0.868926
N285	N	0.670569	0.038122	0.322302
N286	N	1.170569	0.538122	0.822302
H287	H	0.694453	0.062005	0.303464
H288	H	1.194453	0.562005	0.803464
N289	N	0.670578	0.038136	0.631144
N290	N	1.170578	0.538136	1.131144
N291	N	0.655459	0.068033	0.660282
N292	N	1.155459	0.568033	1.160282
H293	H	0.679339	0.091914	0.679124
H294	H	1.179339	0.591914	1.179124
N295	N	0.076818	-0.195332	0.000045
N296	N	0.576818	0.304668	0.500045
N297	N	0.078379	-0.224907	0.035010
N298	N	0.578379	0.275093	0.535010
H299	H	0.055812	-0.256529	0.035011
H300	H	0.555812	0.243471	0.535011
N301	N	0.314812	-0.153614	0.000036
N302	N	0.814812	0.346386	0.500036
N303	N	0.331899	-0.193192	0.000027
N304	N	0.831899	0.306808	0.500027
H305	H	0.309336	-0.224815	0.000025
H306	H	0.809336	0.275185	0.500025
H307	H	0.663722	0.031266	0.469068
H308	H	1.163722	0.531266	0.969068
N309	N	0.027487	-0.194825	0.000038
N310	N	0.527487	0.305175	0.500038
N311	N	0.054262	-0.204946	-0.034932
N312	N	0.554262	0.295054	0.465068
H313	H	0.068058	-0.236931	-0.034939
H314	H	0.568058	0.263069	0.465061
H315	H	0.412743	-0.145454	0.000021
H316	H	0.912743	0.354546	0.500021
N317	N	-0.275651	0.030861	0.000085
N318	N	0.224349	0.530861	0.500085
N319	N	-0.302423	0.040979	0.035059
N320	N	0.197577	0.540979	0.535059
H321	H	-0.316212	0.072967	0.035075
H322	H	0.183788	0.572967	0.535075
H323	H	0.653168	0.187348	0.000063
H324	H	1.153168	0.687348	0.500063
H325	H	0.654093	0.095896	0.000080
H326	H	1.154093	0.595896	0.500080
H327	H	-0.067947	-0.184708	0.000046
H328	H	0.432053	0.315292	0.500046
H329	H	0.057760	0.062462	0.000083
H330	H	0.557760	0.562462	0.500083
N331	N	0.477778	0.784290	0.000013
N332	N	0.977778	1.284290	0.500013
N333	N	0.467660	0.811061	-0.034961
N334	N	0.967660	1.311061	0.465039
H335	H	0.435672	0.824851	-0.034974
H336	H	0.935672	1.324851	0.465026
N337	N	0.470477	-0.161866	0.631168
N338	N	0.970477	0.338134	1.131168
N339	N	0.485582	-0.191767	0.660309
N340	N	0.985582	0.308233	1.160309
H341	H	0.461691	-0.215641	0.679151
H342	H	0.961691	0.284359	1.179151
H343	H	0.510457	-0.121917	0.771232
H344	H	1.010457	0.378083	1.271232
H345	H	0.510430	-0.121952	0.134157
H346	H	1.010430	0.378048	0.634157
H347	H	0.477330	-0.155015	0.531024
H348	H	0.977330	0.344985	1.031024
H349	H	-0.293777	-0.138273	0.000051
H350	H	0.206223	0.361727	0.500051
H351	H	0.695819	0.333889	0.000065
H352	H	1.195819	0.833889	0.500065
H353	H	0.694889	0.425336	0.000056
H354	H	1.194889	0.925336	0.500056
H355	H	0.494146	0.073812	0.000057
H356	H	0.994146	0.573812	0.500057
H357	H	0.693347	0.576585	0.000047
H358	H	1.193347	1.076585	0.500047
H359	H	0.487892	0.688875	0.000020
H360	H	0.987892	1.188875	0.500020
H361	H	0.663725	0.031269	0.530995
H362	H	1.163725	0.531269	1.030995
H363	H	0.630630	-0.001820	0.865951
H364	H	1.130630	0.498180	1.365951
N365	N	-0.037645	0.072582	0.000085
N366	N	0.462355	0.572582	0.500085
N367	N	-0.009695	0.111703	0.000090
N368	N	0.490305	0.611703	0.500090
H369	H	-0.023479	0.143695	0.000097
H370	H	0.476521	0.643695	0.500097
N371	N	-0.173757	0.029831	0.000079
N372	N	0.326243	0.529831	0.500079
N373	N	-0.190845	0.069409	0.000083
N374	N	0.309155	0.569409	0.500083
H375	H	-0.168281	0.101032	0.000089
H376	H	0.331719	0.601032	0.500089
N377	N	0.657027	0.706977	0.000051
N378	N	1.157027	1.206977	0.500051
N379	N	0.667144	0.680202	0.035021
N380	N	1.167144	1.180202	0.535021
H381	H	0.699128	0.666404	0.035028
H382	H	1.199128	1.166404	0.535028
H383	H	0.630630	-0.001822	0.771211
H384	H	1.130630	0.498178	1.271211
N385	N	-0.198338	-0.148389	0.000042
N386	N	0.301662	0.351611	0.500042
N387	N	-0.171561	-0.158508	-0.034927
N388	N	0.328439	0.341492	0.465073
H389	H	-0.157764	-0.190493	-0.034934
H390	H	0.342236	0.309507	0.465066
H391	H	0.510471	-0.121919	0.865958
H392	H	1.010471	0.378081	1.365958
H393	H	0.477310	-0.155018	0.374362
H394	H	0.977310	0.344982	0.874362
H395	H	0.646911	0.802415	0.000040
H396	H	1.146911	1.302415	0.500040
N397	N	0.470454	-0.161883	0.474492
N398	N	0.970454	0.338117	0.974492
N399	N	0.440891	-0.191428	0.451169
N400	N	0.940891	0.308572	0.951169
H401	H	0.416997	-0.215311	0.469994
H402	H	0.916997	0.284689	0.969994
H403	H	0.510433	-0.121951	0.228896
H404	H	1.010433	0.378049	0.728896
N405	N	0.438636	0.293135	0.000009
N406	N	0.938636	0.793135	0.500009
N407	N	0.429095	0.263644	-0.034960
N408	N	0.929095	0.763644	0.465040
H409	H	0.397482	0.241065	-0.034969
H410	H	0.897482	0.741065	0.465031
N411	N	0.113602	0.071052	0.000087
N412	N	0.613602	0.571052	0.500087
N413	N	0.141555	0.110171	0.000096
N414	N	0.641555	0.610171	0.500096
H415	H	0.127775	0.142164	0.000102
H416	H	0.627775	0.642164	0.500102
N417	N	0.436056	0.546283	0.000015
N418	N	0.936056	1.046283	0.500015
N419	N	0.396935	0.518334	0.000011
N420	N	0.896935	1.018334	0.500011
H421	H	0.364944	0.532118	0.000005
H422	H	0.864944	1.032118	0.500005
N423	N	0.437587	0.395036	0.000011
N424	N	0.937587	0.895036	0.500011
N425	N	0.398468	0.367083	0.000001
N426	N	0.898468	0.867083	0.500001
H427	H	0.366474	0.380864	-0.000008
H428	H	0.866474	0.880864	0.499992
H429	H	0.493213	0.165279	0.000061
H430	H	0.993213	0.665279	0.500061
N431	N	0.703472	0.481168	0.000057
N432	N	1.203472	0.981168	0.500057
N433	N	0.742592	0.509120	0.000062
N434	N	1.242592	1.009120	0.500062
H435	H	0.774585	0.495338	0.000070
H436	H	1.274585	0.995338	0.500070
N437	N	0.178706	-0.196370	0.000026
N438	N	0.678706	0.303630	0.500026
N439	N	0.150755	-0.235490	0.000021
N440	N	0.650755	0.264510	0.500021
H441	H	0.164536	-0.267483	0.000014
H442	H	0.664536	0.232517	0.500014
N443	N	0.339402	0.024615	0.000050
N444	N	0.839402	0.524615	0.500050
N445	N	0.367348	0.063739	0.000053
N446	N	0.867348	0.563739	0.500053
H447	H	0.353561	0.095729	0.000058
H448	H	0.853561	0.595729	0.500058
H449	H	0.630597	-0.001843	0.228868
H450	H	1.130597	0.498157	0.728868
N451	N	0.441310	0.023574	0.000064
N452	N	0.941310	0.523574	0.500064
N453	N	0.439755	0.053134	0.035045
N454	N	0.939755	0.553134	0.535045
H455	H	0.462335	0.084747	0.035064
H456	H	0.962335	0.584747	0.535064
H457	H	0.446177	0.450879	0.000018
H458	H	0.946177	0.950879	0.500018
H459	H	0.630595	-0.001859	0.134142
H460	H	1.130595	0.498141	0.634142
