data_functionalizedCrystal
_audit_creation_method	'MofGen! by Chris Wilmer'
_symmetry_space_group_name_H-M	'P1'
_symmetry_Int_Tables_number	1
_symmetry_cell_setting	triclinic
loop_
_symmetry_equiv_pos_as_xyz
  x,y,z
_cell_length_a	19.288864
_cell_length_b	14.044220
_cell_length_c	17.766277
_cell_angle_alpha	89.993125
_cell_angle_beta	89.976791
_cell_angle_gamma	88.162561
loop_
_atom_site_label
_atom_site_type_symbol
_atom_site_fract_x
_atom_site_fract_y
_atom_site_fract_z
O1	O	0.928949	0.118215	-0.062840
O2	O	0.727713	0.134161	-0.062789
O3	O	0.825310	-0.011784	-0.062806
O4	O	0.831351	0.264160	-0.062822
O5	O	0.825291	-0.011791	0.062383
O6	O	0.727693	0.134154	0.062400
O7	O	0.928929	0.118207	0.062349
Cu8	Cu	0.828310	0.126180	0.073805
Cu9	Cu	0.828332	0.126189	-0.074245
O10	O	0.831332	0.264152	0.062366
C11	C	0.701794	0.133645	-0.000188
C12	C	0.624591	0.132104	-0.000168
C13	C	0.585397	0.217738	-0.000185
C14	C	0.512857	0.216291	-0.000193
C15	C	0.479514	0.129205	-0.000200
C16	C	0.518717	0.043560	-0.000178
C17	C	0.591256	0.045010	-0.000163
C18	C	0.366860	0.060749	-0.044080
C19	C	0.294323	0.059303	-0.044100
C20	C	0.255781	0.124731	-0.000245
C21	C	0.289785	0.191621	0.043621
C22	C	0.362323	0.193071	0.043637
C23	C	0.400858	0.127624	-0.000216
C24	C	0.137930	0.208802	-0.000270
C25	C	0.065389	0.207351	-0.000273
C26	C	0.071251	0.034617	-0.000266
C27	C	0.143790	0.036071	-0.000255
C28	C	0.177126	0.123165	-0.000260
C29	C	0.822656	-0.047091	-0.000211
C30	C	0.814768	-0.152283	-0.000208
C31	C	0.800348	-0.344882	-0.000215
C32	C	0.856291	-0.402755	-0.000231
C33	C	0.848267	-0.509924	-0.000235
C34	C	0.808370	-0.237703	-0.000211
C35	C	0.954848	0.118724	-0.000254
C36	C	1.032051	0.120264	-0.000278
C37	C	0.833986	0.299459	-0.000231
C38	C	0.841874	0.404651	-0.000239
N39	N	0.828299	0.126173	0.177935
N40	N	0.828348	0.126188	-0.178375
C41	C	0.871532	0.061580	0.217315
C42	C	0.871536	0.061576	0.296116
C43	C	0.828314	0.126181	0.335536
C44	C	0.785072	0.190779	0.296147
C45	C	0.785064	0.190775	0.217347
C46	C	0.824563	0.212524	0.460370
C47	C	0.824575	0.212529	0.539169
C48	C	0.828333	0.126192	0.578582
C49	C	0.832093	0.039847	0.539187
C50	C	0.832085	0.039843	0.460387
C51	C	0.828317	0.126192	0.420982
C52	C	0.871573	0.061589	0.703407
C53	C	0.871572	0.061583	0.782211
C54	C	0.785111	0.190794	0.782240
C55	C	0.785109	0.190792	0.703438
C56	C	0.828343	0.126190	0.664027
H57	H	0.175703	-0.033662	-0.000245
N58	N	0.835912	-0.048357	0.579430
N59	N	0.789879	-0.108010	0.570649
H60	H	0.792575	-0.170303	0.599071
N61	N	0.037214	-0.054350	-0.000263
N62	N	0.047254	-0.112015	0.052512
H63	H	0.023215	-0.174853	0.052518
H64	H	0.821491	0.282834	0.428286
N65	N	0.915723	-0.004449	0.663184
N66	N	0.960720	0.025371	0.619186
H67	H	0.991900	-0.021290	0.590799
N68	N	0.259602	-0.009017	-0.088919
N69	N	0.294020	-0.067437	-0.128066
H70	H	0.269501	-0.115689	-0.159722
N71	N	0.740962	0.256802	0.822484
N72	N	0.702368	0.314479	0.787310
H73	H	0.671185	0.361098	0.815735
N74	N	0.732703	-0.383673	-0.000181
N75	N	0.680098	-0.329329	-0.000154
H76	H	0.632323	-0.356733	-0.000124
N77	N	0.406215	-0.006105	-0.088877
N78	N	0.375849	-0.065816	-0.128041
H79	H	0.403643	-0.113033	-0.159677
H80	H	0.906775	0.008979	0.814274
H81	H	0.749907	0.243393	0.671373
N82	N	0.820739	0.300713	0.579421
N83	N	0.868445	0.321836	0.623366
H84	H	0.865734	0.384116	0.651795
N85	N	0.915761	-0.004333	0.177070
N86	N	0.954402	-0.061949	0.212246
H87	H	0.985663	-0.108473	0.183822
N88	N	0.740915	0.256765	0.177106
N89	N	0.740920	0.256759	0.106750
H90	H	0.709741	0.303367	0.078327
N91	N	0.915711	-0.004381	0.336364
N92	N	0.915718	-0.004355	0.406721
H93	H	0.946920	-0.050932	0.435146
N94	N	0.484651	-0.045388	-0.000178
N95	N	0.419884	-0.046671	-0.000192
H96	H	0.395824	-0.109494	-0.000187
H97	H	0.623168	-0.024726	-0.000149
H98	H	0.749878	0.243379	0.328246
H99	H	0.910212	-0.371814	-0.000296
H100	H	0.835145	-0.030462	0.428314
N101	N	0.619436	0.306709	-0.000193
N102	N	0.584426	0.383163	-0.000209
H103	H	0.608467	0.446000	-0.000215
H104	H	0.390006	0.247532	0.079357
N105	N	0.472821	0.303777	-0.000206
N106	N	0.502593	0.381530	-0.000207
H107	H	0.474320	0.443318	-0.000216
H108	H	0.258405	0.244899	0.079333
H109	H	0.033478	0.277088	-0.000283
N110	N	0.171976	0.297770	-0.000271
N111	N	0.136968	0.374226	-0.000276
H112	H	0.161011	0.437062	-0.000276
