data_functionalizedCrystal
_audit_creation_method	'MofGen! by Chris Wilmer'
_symmetry_space_group_name_H-M	'P1'
_symmetry_Int_Tables_number	1
_symmetry_cell_setting	triclinic
loop_
_symmetry_equiv_pos_as_xyz
  x,y,z
_cell_length_a	16.120490
_cell_length_b	12.759400
_cell_length_c	16.120297
_cell_angle_alpha	87.117795
_cell_angle_beta	89.870317
_cell_angle_gamma	87.095889
loop_
_atom_site_label
_atom_site_type_symbol
_atom_site_fract_x
_atom_site_fract_y
_atom_site_fract_z
Zn1	Zn	1.247594	-0.532374	0.534605
Zn2	Zn	1.580928	-0.199041	0.867939
Zn3	Zn	1.914261	0.134293	1.201272
Zn4	Zn	1.254591	-0.699630	0.395570
Zn5	Zn	1.587925	-0.366297	0.728903
Zn6	Zn	1.921258	-0.032964	1.062236
Zn7	Zn	1.115579	-0.514611	0.388524
Zn8	Zn	1.448912	-0.181278	0.721857
Zn9	Zn	1.782246	0.152056	1.055191
Zn10	Zn	1.108547	-0.698653	0.527542
Zn11	Zn	1.441880	-0.365319	0.860876
Zn12	Zn	1.775213	-0.031986	1.194209
O13	O	1.181578	-0.611317	0.461560
O14	O	1.514911	-0.277984	0.794894
O15	O	1.848244	0.055350	1.128227
O16	O	1.364891	-0.562404	0.522066
O17	O	1.698225	-0.229071	0.855400
O18	O	2.031558	0.104263	1.188733
O19	O	1.242022	-0.668062	0.278269
O20	O	1.575356	-0.334729	0.611602
O21	O	1.908689	-0.001396	0.944935
O22	O	1.133106	-0.369948	0.407909
O23	O	1.466439	-0.036614	0.741243
O24	O	1.799772	0.296719	1.074576
O25	O	1.370032	-0.685286	0.419917
O26	O	1.703365	-0.351953	0.753251
O27	O	2.036699	-0.018620	1.086584
O28	O	1.230097	-0.382998	0.515234
O29	O	1.563430	-0.049665	0.848568
O30	O	1.896763	0.283669	1.181901
O31	O	1.139891	-0.532129	0.273092
O32	O	1.473224	-0.198796	0.606425
O33	O	1.806557	0.134537	0.939759
O34	O	0.998277	-0.531181	0.401061
O35	O	1.331610	-0.197848	0.734394
O36	O	1.664944	0.135485	1.067727
O37	O	1.121120	-0.683620	0.644846
O38	O	1.454454	-0.350287	0.978179
O39	O	1.787787	-0.016954	1.311512
O40	O	0.993110	-0.666396	0.503197
O41	O	1.326444	-0.333063	0.836530
O42	O	1.659777	0.000270	1.169863
O43	O	1.223278	-0.561456	0.650035
O44	O	1.556611	-0.228123	0.983368
O45	O	1.889945	0.105211	1.316701
O46	O	1.235203	-0.846520	0.413069
O47	O	1.568537	-0.513187	0.746402
O48	O	1.901870	-0.179854	1.079736
O49	O	1.127905	-0.845802	0.510029
O50	O	1.461238	-0.512469	0.843362
O51	O	1.794572	-0.179135	1.176695
C52	C	1.181572	-0.884284	0.461566
C53	C	1.514905	-0.550951	0.794900
C54	C	1.848239	-0.217618	1.128233
C55	C	1.181644	-1.001068	0.461600
C56	C	1.514977	-0.667734	0.794934
C57	C	1.848311	-0.334401	1.128267
C58	C	0.965520	-0.596756	0.450598
C59	C	1.298854	-0.263423	0.783932
C60	C	1.632187	0.069911	1.117265
C61	C	0.873089	-0.590553	0.445928
C62	C	1.206423	-0.257220	0.779262
C63	C	1.539756	0.076113	1.112595
C64	C	1.170634	-0.624411	0.678456
C65	C	1.503967	-0.291077	1.011790
C66	C	1.837301	0.042256	1.345123
C67	C	1.165971	-0.629990	0.770885
C68	C	1.499304	-0.296657	1.104218
C69	C	1.832637	0.036676	1.437551
C70	C	0.660142	-0.643484	0.485785
C71	C	0.993475	-0.310150	0.819118
C72	C	1.326809	0.023183	1.152452
C73	C	0.703861	-0.579238	0.437401
C74	C	1.037195	-0.245905	0.770735
C75	C	1.370528	0.087428	1.104068
C76	C	0.798028	-0.585536	0.442147
C77	C	1.131362	-0.252202	0.775481
C78	C	1.464695	0.081131	1.108814
C79	C	0.565966	-0.637187	0.481040
C80	C	0.899300	-0.303854	0.814374
C81	C	1.232633	0.029479	1.147707
C82	C	1.398479	-0.625936	0.472566
C83	C	1.731812	-0.292602	0.805899
C84	C	2.065145	0.040731	1.139232
C85	C	1.490909	-0.632165	0.477255
C86	C	1.824242	-0.298832	0.810589
C87	C	2.157576	0.034501	1.143922
C88	C	1.181605	-0.337286	0.461574
C89	C	1.514939	-0.003953	0.794907
C90	C	1.848272	0.329380	1.128240
C91	C	1.181617	-0.220511	0.461580
C92	C	1.514950	0.112823	0.794913
C93	C	1.848284	0.446156	1.128246
C94	C	1.131129	-0.158853	0.405704
C95	C	1.464462	0.174480	0.739038
C96	C	1.797796	0.507813	1.072371
C97	C	1.131140	-0.049131	0.405716
C98	C	1.464474	0.284203	0.739050
C99	C	1.797807	0.617536	1.072383
C100	C	1.232134	-0.062733	0.517481
C101	C	1.565467	0.270600	0.850815
C102	C	1.898801	0.603933	1.184148
C103	C	1.232118	-0.172454	0.517473
C104	C	1.565451	0.160879	0.850806
C105	C	1.898785	0.494213	1.184139
C106	C	1.072824	-0.150999	0.341175
C107	C	1.406157	0.182334	0.674509
C108	C	1.739490	0.515668	1.007842
C109	C	1.072835	-0.041276	0.341187
C110	C	1.406168	0.292057	0.674521
C111	C	1.739501	0.625390	1.007854
C112	C	1.192527	-0.598202	0.245510
C113	C	1.525860	-0.264868	0.578844
C114	C	1.859193	0.068465	0.912177
C115	C	1.197351	-0.592337	0.153091
C116	C	1.530684	-0.259004	0.486424
C117	C	1.864018	0.074330	0.819757
C118	C	1.157426	-0.640152	0.940111
C119	C	1.490759	-0.306819	1.273444
C120	C	1.824092	0.026515	1.606778
C121	C	1.205894	-0.582178	0.983870
C122	C	1.539227	-0.248845	1.317203
C123	C	1.872560	0.084488	1.650536
C124	C	1.201139	-0.587832	1.078033
C125	C	1.534472	-0.254499	1.411366
C126	C	1.867806	0.078834	1.744700
C127	C	1.162179	-0.634499	0.845939
C128	C	1.495512	-0.301166	1.179272
C129	C	1.828846	0.032167	1.512606
H130	H	0.670569	-0.519506	0.392414
H131	H	1.003902	-0.186173	0.725747
H132	H	1.337236	0.147160	1.059081
H133	H	0.693432	-0.703212	0.530768
H134	H	1.026766	-0.369878	0.864101
H135	H	1.360099	-0.036545	1.197435
H136	H	1.093343	-0.008771	0.277662
H137	H	1.426676	0.324563	0.610995
H138	H	1.760010	0.657896	0.944329
Br139	Br	1.082320	-0.729953	0.995536
Br140	Br	1.415653	-0.396619	1.328870
Br141	Br	1.748986	-0.063286	1.662203
Br142	Br	1.300617	-0.256130	0.593327
Br143	Br	1.633950	0.077203	0.926661
Br144	Br	1.967283	0.410536	1.259994
Br145	Br	1.300664	0.002493	0.593336
Br146	Br	1.633997	0.335827	0.926670
Br147	Br	1.967330	0.669160	1.260003
Br148	Br	1.281026	-0.492400	0.928447
Br149	Br	1.614359	-0.159067	1.261780
Br150	Br	1.947692	0.174267	1.595114
Br151	Br	0.964022	-0.195131	0.364466
Br152	Br	1.297355	0.138203	0.697799
Br153	Br	1.630689	0.471536	1.031132
Br154	Br	1.116419	-0.204168	0.241162
Br155	Br	1.449752	0.129166	0.574496
Br156	Br	1.783085	0.462499	0.907829
H157	H	1.010492	-0.004513	0.361151
H158	H	1.343826	0.328821	0.694484
H159	H	1.677159	0.662154	1.027818
