data_functionalizedCrystal
_audit_creation_method	'MofGen! by Chris Wilmer'
_symmetry_space_group_name_H-M	'P1'
_symmetry_Int_Tables_number	1
_symmetry_cell_setting	triclinic
loop_
_symmetry_equiv_pos_as_xyz
  x,y,z
_cell_length_a	16.959454
_cell_length_b	13.032831
_cell_length_c	13.032268
_cell_angle_alpha	89.113023
_cell_angle_beta	97.150351
_cell_angle_gamma	97.174906
loop_
_atom_site_label
_atom_site_type_symbol
_atom_site_fract_x
_atom_site_fract_y
_atom_site_fract_z
Zn1	Zn	-0.533808	-1.498450	-0.780847
Zn2	Zn	-0.033808	-0.998450	-0.280847
Zn3	Zn	-0.651576	-1.520186	-0.608869
Zn4	Zn	-0.151576	-1.020186	-0.108869
Zn5	Zn	-0.500789	-1.348310	-0.587087
Zn6	Zn	-0.000789	-0.848310	-0.087087
Zn7	Zn	-0.647302	-1.326434	-0.758994
Zn8	Zn	-0.147302	-0.826434	-0.258994
O9	O	-0.583369	-1.423345	-0.683949
O10	O	-0.083369	-0.923345	-0.183949
O11	O	-0.565038	-1.645253	-0.776295
O12	O	-0.065038	-1.145253	-0.276295
O13	O	-0.619543	-1.515638	-0.462063
O14	O	-0.119543	-1.015638	0.037937
O15	O	-0.394566	-1.368285	-0.612819
O16	O	0.105434	-0.868285	-0.112819
O17	O	-0.651561	-1.661222	-0.649944
O18	O	-0.151561	-1.161222	-0.149944
O19	O	-0.418826	-1.478592	-0.755173
O20	O	0.081174	-0.978592	-0.255173
O21	O	-0.508760	-1.389361	-0.446059
O22	O	-0.008760	-0.889361	0.053941
O23	O	-0.504616	-1.201488	-0.591629
O24	O	-0.004616	-0.701488	-0.091629
O25	O	-0.644277	-1.331000	-0.905810
O26	O	-0.144277	-0.831000	-0.405810
O27	O	-0.612259	-1.185416	-0.717929
O28	O	-0.112259	-0.685416	-0.217929
O29	O	-0.560894	-1.457380	-0.921865
O30	O	-0.060894	-0.957380	-0.421865
O31	O	-0.761611	-1.494425	-0.628754
O32	O	-0.261611	-0.994425	-0.128754
O33	O	-0.758471	-1.352077	-0.739051
O34	O	-0.258471	-0.852077	-0.239051
C35	C	-0.554392	-1.156135	-0.650045
C36	C	-0.054392	-0.656135	-0.150045
C37	C	-0.542016	-1.041819	-0.635565
C38	C	-0.042016	-0.541819	-0.135565
C39	C	-0.788724	-1.423261	-0.683921
C40	C	-0.288724	-0.923261	-0.183921
C41	C	-0.876589	-1.423315	-0.683955
C42	C	-0.376589	-0.923315	-0.183955
C43	C	-0.605792	-1.389325	-0.952197
C44	C	-0.105792	-0.889325	-0.452197
C45	C	-0.615348	-1.374828	-1.066508
C46	C	-0.115348	-0.874828	-0.566508
C47	C	-1.246472	-1.349320	-0.741386
C48	C	-0.746472	-0.849320	-0.241386
C49	C	-1.249702	-1.497643	-0.626654
C50	C	-0.749702	-0.997643	-0.126654
C51	C	-1.167152	-1.497608	-0.626640
C52	C	-0.667152	-0.997608	-0.126640
C53	C	-1.124257	-1.423427	-0.683998
C54	C	-0.624257	-0.923427	-0.183998
C55	C	-1.163913	-1.349281	-0.741371
C56	C	-0.663913	-0.849281	-0.241371
C57	C	-1.127488	-1.571746	-0.569260
C58	C	-0.627488	-1.071746	-0.069260
C59	C	-1.044932	-1.571713	-0.569243
C60	C	-0.544932	-1.071713	-0.069243
C61	C	-1.002037	-1.497536	-0.626608
C62	C	-0.502037	-0.997536	-0.126608
C63	C	-1.041698	-1.423388	-0.683984
C64	C	-0.541698	-0.923388	-0.183984
C65	C	-0.998804	-1.349208	-0.741342
C66	C	-0.498804	-0.849208	-0.241342
C67	C	-1.038465	-1.275063	-0.798724
C68	C	-0.538465	-0.775063	-0.298724
C69	C	-1.121018	-1.275104	-0.798736
C70	C	-0.621018	-0.775104	-0.298736
C71	C	-0.919484	-1.497495	-0.626597
C72	C	-0.419484	-0.997495	-0.126597
C73	C	-0.916245	-1.349169	-0.741327
C74	C	-0.416245	-0.849169	-0.241327
C75	C	-0.377216	-1.423454	-0.684004
C76	C	0.122784	-0.923454	-0.184004
C77	C	-0.289366	-1.423501	-0.684027
C78	C	0.210634	-0.923501	-0.184027
C79	C	-0.612460	-1.691598	-0.717986
C80	C	-0.112460	-1.191598	-0.217986
C81	C	-0.624856	-1.805911	-0.732491
C82	C	-0.124856	-1.305911	-0.232491
C83	C	-0.589828	-0.982940	-0.691506
C84	C	-0.089828	-0.482940	-0.191506
C85	C	-0.577038	-0.864788	-0.676542
C86	C	-0.077038	-0.364788	-0.176542
C87	C	-0.578351	-1.430895	-1.125415
C88	C	-0.078351	-0.930895	-0.625415
C89	C	-0.588227	-1.415913	-1.243562
C90	C	-0.088227	-0.915913	-0.743562
C91	C	-0.560982	-1.457291	-0.416753
C92	C	-0.060982	-0.957291	0.083247
C93	C	-0.551225	-1.471987	-0.302467
C94	C	-0.051225	-0.971987	0.197533
H95	H	-0.881326	-1.288765	-0.788040
H96	H	-0.381326	-0.788765	-0.288040
H97	H	-1.278768	-1.288956	-0.788108
H98	H	-0.778768	-0.788956	-0.288108
H99	H	-0.675257	-0.842968	-0.791474
H100	H	-0.175257	-0.342968	-0.291474
H101	H	-0.512233	-1.531079	-1.265438
H102	H	-0.012233	-1.031079	-0.765438
H103	H	-1.003530	-1.214661	-0.845421
H104	H	-0.503530	-0.714661	-0.345421
H105	H	-1.162417	-1.632133	-0.522554
H106	H	-0.662417	-1.132133	-0.022554
H107	H	-0.654327	-1.315729	-1.103542
H108	H	-0.154327	-0.815729	-0.603542
H109	H	-1.012646	-1.632086	-0.522521
H110	H	-0.512646	-1.132086	-0.022521
H111	H	-1.153317	-1.214739	-0.845452
H112	H	-0.653317	-0.714739	-0.345452
H113	H	-1.284630	-1.558032	-0.579948
H114	H	-0.784630	-1.058032	-0.079948
H115	H	-0.887195	-1.557858	-0.579871
H116	H	-0.387195	-1.057858	-0.079871
H117	H	-0.627208	-1.356810	-1.280591
H118	H	-0.127208	-0.856810	-0.780591
H119	H	-0.640227	-1.020003	-0.750482
H120	H	-0.140227	-0.520003	-0.250482
H121	H	-0.526630	-0.827729	-0.617570
H122	H	-0.026630	-0.327729	-0.117570
H123	H	-0.491612	-1.004755	-0.576597
H124	H	0.008388	-0.504755	-0.076597
H125	H	-0.539364	-1.489984	-1.088380
H126	H	-0.039364	-0.989984	-0.588380
