data_functionalizedCrystal
_audit_creation_method	'MofGen! by Chris Wilmer'
_symmetry_space_group_name_H-M	'P1'
_symmetry_Int_Tables_number	1
_symmetry_cell_setting	triclinic
loop_
_symmetry_equiv_pos_as_xyz
  x,y,z
_cell_length_a	23.532407
_cell_length_b	23.532407
_cell_length_c	22.010155
_cell_angle_alpha	90.000423
_cell_angle_beta	89.996931
_cell_angle_gamma	97.151322
loop_
_atom_site_label
_atom_site_type_symbol
_atom_site_fract_x
_atom_site_fract_y
_atom_site_fract_z
O1	O	0.755264	-0.069127	-0.050455
O2	O	0.589400	-0.079130	-0.050474
O3	O	0.677334	0.008803	-0.050453
O4	O	0.667330	-0.157060	-0.050476
O5	O	0.677318	0.008790	0.050597
O6	O	0.589384	-0.079143	0.050576
O7	O	0.755248	-0.069140	0.050595
Cu8	Cu	0.672315	-0.074143	0.059812
Cu9	Cu	0.672333	-0.074127	-0.059691
O10	O	0.667314	-0.157073	0.050574
C11	C	0.568176	-0.078882	0.000049
C12	C	0.504959	-0.078116	0.000042
C13	C	0.677071	0.030013	0.000074
C14	C	0.676305	0.093230	0.000078
C15	C	0.105856	-0.125350	0.000063
C16	C	0.046456	-0.124638	0.000067
O17	O	0.009711	-0.168424	0.000083
N18	N	0.023830	-0.072362	0.000073
C19	C	0.060607	-0.020794	0.000082
O20	O	0.035908	0.023737	0.000088
C21	C	0.120006	-0.021506	0.000082
C22	C	0.142629	-0.073785	0.000070
C23	C	0.128479	-0.177625	0.000051
C24	C	0.187876	-0.178336	0.000046
C25	C	0.224649	-0.126772	0.000053
C26	C	0.202025	-0.074497	0.000065
C27	C	0.156783	0.030062	0.000096
C28	C	0.216185	0.029345	0.000097
C29	C	0.238808	-0.022934	0.000084
C30	C	0.298194	-0.023643	0.000067
N31	N	0.320820	-0.075920	0.000061
C32	C	0.284048	-0.127484	0.000054
C33	C	-0.064135	-0.019302	0.000082
C34	C	-0.123533	-0.018589	0.000077
C35	C	-0.137680	-0.122434	0.000063
C36	C	-0.078281	-0.123146	0.000064
C37	C	-0.041509	-0.071578	0.000076
C38	C	0.408784	-0.128974	0.000043
C39	C	0.468186	-0.129680	0.000035
C40	C	0.482329	-0.025836	0.000052
C41	C	0.422932	-0.025129	0.000057
C42	C	0.386160	-0.076702	0.000054
O43	O	0.334974	0.020119	0.000054
O44	O	0.308755	-0.172007	0.000055
C45	C	0.776472	-0.069388	0.000071
C46	C	0.839689	-0.070154	0.000073
C47	C	0.667577	-0.178283	0.000046
C48	C	0.668343	-0.241500	0.000037
N49	N	0.672305	-0.074153	0.143865
C50	C	0.723539	0.492333	0.000050
C51	C	0.722827	0.551733	0.000046
O52	O	0.766613	0.588478	0.000028
N53	N	0.670551	0.574359	0.000040
C54	C	0.618983	0.537582	0.000033
O55	O	0.574452	0.562281	0.000027
C56	C	0.619695	0.478182	0.000033
C57	C	0.671974	0.455560	0.000045
C58	C	0.775814	0.469710	0.000061
C59	C	0.776525	0.410313	0.000067
C60	C	0.724961	0.373540	0.000062
C61	C	0.672685	0.396164	0.000051
C62	C	0.568127	0.441406	0.000022
C63	C	0.568844	0.382004	0.000022
C64	C	0.621123	0.359381	0.000034
C65	C	0.621832	0.299995	0.000052
N66	N	0.674109	0.277368	0.000057
C67	C	0.725673	0.314141	0.000062
C68	C	0.617491	0.662324	0.000031
C69	C	0.616778	0.721722	0.000035
C70	C	0.720623	0.735869	0.000047
C71	C	0.721335	0.676470	0.000047
C72	C	0.669767	0.639698	0.000037
C73	C	0.727163	0.189405	0.000075
C74	C	0.727869	0.130003	0.000083
C75	C	0.624025	0.115860	0.000069
C76	C	0.623318	0.175257	0.000064
C77	C	0.674891	0.212029	0.000065
O78	O	0.578070	0.263215	0.000067
O79	O	0.770196	0.289433	0.000060
N80	N	0.672347	-0.074112	-0.143744
C81	C	0.711273	-0.035196	0.563653
C82	C	0.711275	-0.035192	0.627261
O83	O	0.744384	-0.002076	0.660160
N84	N	0.672333	-0.074115	0.659072
C85	C	0.633382	-0.113041	0.627272
O86	O	0.600259	-0.146148	0.660170
C87	C	0.633377	-0.113042	0.563665
C88	C	0.672326	-0.074120	0.531858
C89	C	0.750217	0.003723	0.531846
C90	C	0.750215	0.003719	0.468243
C91	C	0.711268	-0.035205	0.436447
C92	C	0.672324	-0.074125	0.468255
C93	C	0.594424	-0.151965	0.531866
C94	C	0.594422	-0.151962	0.468256
C95	C	0.633370	-0.113040	0.436448
C96	C	0.633374	-0.113054	0.372856
N97	N	0.672317	-0.074130	0.341045
C98	C	0.711263	-0.035206	0.372841
C99	C	0.633395	-0.113036	0.760850
C100	C	0.633402	-0.113039	0.824455
C101	C	0.711294	-0.035188	0.824440
C102	C	0.711290	-0.035189	0.760833
C103	C	0.672337	-0.074113	0.729039
C104	C	0.711256	-0.035220	0.239269
C105	C	0.711252	-0.035229	0.175660
C106	C	0.633358	-0.113077	0.175681
C107	C	0.633364	-0.113070	0.239284
C108	C	0.672315	-0.074136	0.271077
O109	O	0.600282	-0.146151	0.339916
O110	O	0.744376	-0.002100	0.339935
H111	H	0.486602	-0.172255	0.000025
C112	C	0.754106	0.007608	0.274232
N113	N	0.786383	0.039863	0.300565
H114	H	0.601650	-0.144771	0.149783
H115	H	-0.034198	0.022693	0.000086
H116	H	0.562708	-0.183658	0.557755
H117	H	0.562700	-0.183658	0.442372
H118	H	0.574207	0.740136	0.000036
H119	H	0.404512	0.017441	0.000058
H120	H	0.762610	0.765821	0.000048
C121	C	0.131912	0.087575	0.000121
N122	N	0.113181	0.130897	0.000146
C123	C	0.560758	0.621879	0.000028
N124	N	0.518027	0.591418	0.000025
C125	C	0.590567	-0.155884	0.725881
N126	N	0.558316	-0.188165	0.699546
C127	C	0.256632	0.086076	0.000107
N128	N	0.287095	0.128805	0.000113
H129	H	-0.059867	-0.165717	0.000057
C130	C	0.368344	-0.185707	0.000036
N131	N	0.337885	-0.228439	0.000027
C132	C	0.510614	0.466277	0.000005
N133	N	0.467292	0.485008	-0.000010
H134	H	0.512280	0.016146	0.000056
H135	H	0.526850	0.352066	0.000013
C136	C	0.212752	-0.235848	0.000045
N137	N	0.231485	-0.279170	0.000050
C138	C	0.088037	-0.234355	0.000046
N139	N	0.057580	-0.277088	0.000038
C140	C	-0.148411	0.038922	0.000087
N141	N	-0.167146	0.082242	0.000099
H142	H	0.742971	-0.003534	0.149765
H143	H	-0.167632	-0.164421	0.000060
H144	H	0.743004	-0.003495	0.734939
H145	H	0.819097	0.391900	0.000074
H146	H	0.770443	0.111587	0.000094
H147	H	0.743006	-0.003493	0.850339
C148	C	0.793056	0.046543	0.433263
N149	N	0.825324	0.078802	0.406920
H150	H	0.781933	0.035423	0.557728
H151	H	0.601692	-0.144738	0.850348
C152	C	0.590522	-0.155889	0.274274
N153	N	0.558249	-0.188138	0.300623
C154	C	0.783896	0.229845	0.000082
N155	N	0.826628	0.260304	0.000092
H156	H	0.817806	0.499645	0.000063
H157	H	0.580748	0.193677	0.000071
C158	C	0.778846	0.651592	0.000054
N159	N	0.822166	0.632856	0.000058
H160	H	0.582043	0.085909	0.000067
