data_functionalizedCrystal
_audit_creation_method	'MofGen! by Chris Wilmer'
_symmetry_space_group_name_H-M	'P1'
_symmetry_Int_Tables_number	1
_symmetry_cell_setting	triclinic
loop_
_symmetry_equiv_pos_as_xyz
  x,y,z
_cell_length_a	11.792254
_cell_length_b	11.026607
_cell_length_c	9.482900
_cell_angle_alpha	101.363848
_cell_angle_beta	99.398945
_cell_angle_gamma	83.607693
loop_
_atom_site_label
_atom_site_type_symbol
_atom_site_fract_x
_atom_site_fract_y
_atom_site_fract_z
O1	O	0.461985	-1.632141	-0.120907
O2	O	0.961985	-1.132141	0.379093
O3	O	0.407793	-1.278476	-0.120907
O4	O	0.907793	-0.778476	0.379093
O5	O	0.271423	-1.463881	-0.120897
O6	O	0.771423	-0.963881	0.379103
O7	O	0.598355	-1.446735	-0.120917
O8	O	1.098355	-0.946735	0.379083
O9	O	0.299265	-1.426222	0.120894
O10	O	0.799265	-0.926222	0.620894
O11	O	0.435635	-1.240817	0.120883
O12	O	0.935635	-0.740817	0.620883
O13	O	0.489827	-1.594482	0.120884
O14	O	0.989827	-1.094482	0.620884
Cu15	Cu	0.465273	-1.414211	0.142961
Cu16	Cu	0.965273	-0.914211	0.642961
Cu17	Cu	0.432347	-1.458747	-0.142984
Cu18	Cu	0.932347	-0.958747	0.357016
O19	O	0.626197	-1.409076	0.120873
O20	O	1.126197	-0.909076	0.620873
C21	C	0.411717	-1.214369	-0.000012
C22	C	0.911717	-0.714369	0.499988
C23	C	0.381914	-1.079457	-0.000012
C24	C	0.881914	-0.579457	0.499988
C25	C	0.242839	-1.443971	-0.000002
C26	C	0.742839	-0.943971	0.499998
C27	C	0.116184	-1.440738	-0.000003
C28	C	0.616184	-0.940738	0.499997
C29	C	0.485903	-1.658589	-0.000015
C30	C	0.985903	-1.158589	0.499985
C31	C	0.515705	-1.793502	-0.000024
C32	C	1.015705	-1.293502	0.499976
C33	C	0.013325	-1.438112	-0.000009
C34	C	0.513325	-0.938112	0.499991
C35	C	-0.115715	-1.434829	-0.000022
C36	C	0.384285	-0.934829	0.499978
C37	C	0.654781	-1.428987	-0.000025
C38	C	1.154781	-0.928987	0.499975
C39	C	0.781435	-1.432221	-0.000033
C40	C	1.281435	-0.932221	0.499967
N41	N	0.488433	-1.382895	0.344079
N42	N	0.988433	-0.882895	0.844079
C43	C	0.464204	-1.006198	-0.000018
C44	C	0.964204	-0.506198	0.499982
C45	C	0.433403	-0.866760	-0.000018
C46	C	0.933403	-0.366760	0.499982
N47	N	0.409180	-1.490072	-0.344103
N48	N	0.909180	-0.990072	0.155897
C49	C	0.439170	-1.449502	0.416282
C50	C	0.939170	-0.949502	0.916282
C51	C	0.458450	-1.423456	0.583698
C52	C	0.958450	-0.923456	1.083698
H53	H	0.557458	-1.046707	-0.000016
H54	H	1.057458	-0.546707	0.499984
H55	H	0.544877	-1.306583	0.406205
H56	H	1.044877	-0.806583	0.906205
H57	H	0.340139	-0.826261	-0.000050
H58	H	0.840139	-0.326261	0.499950
H59	H	0.288656	-1.038953	-0.000043
H60	H	0.788656	-0.538953	0.499957
H61	H	0.352722	-1.566380	0.593777
H62	H	0.852722	-1.066380	1.093777
H63	H	0.514898	-1.347139	0.645818
H64	H	1.014898	-0.847139	1.145818
H65	H	0.608966	-0.834004	-0.000021
H66	H	1.108966	-0.334004	0.499979
H67	H	0.382716	-1.525805	0.354158
H68	H	0.882716	-1.025805	0.854158
