data_functionalizedCrystal
_audit_creation_method	'MofGen! by Chris Wilmer'
_symmetry_space_group_name_H-M	'P1'
_symmetry_Int_Tables_number	1
_symmetry_cell_setting	triclinic
loop_
_symmetry_equiv_pos_as_xyz
  x,y,z
_cell_length_a	19.121063
_cell_length_b	16.120542
_cell_length_c	16.120297
_cell_angle_alpha	89.872913
_cell_angle_beta	95.179432
_cell_angle_gamma	90.317046
loop_
_atom_site_label
_atom_site_type_symbol
_atom_site_fract_x
_atom_site_fract_y
_atom_site_fract_z
Zn1	Zn	-0.355825	-1.228532	-0.551617
Zn2	Zn	0.144175	-0.728532	-0.051617
Zn3	Zn	-0.467608	-1.229541	-0.417908
Zn4	Zn	0.032392	-0.729541	0.082092
Zn5	Zn	-0.343951	-1.097153	-0.404964
Zn6	Zn	0.156049	-0.597153	0.095036
Zn7	Zn	-0.466953	-1.083532	-0.549843
Zn8	Zn	0.033047	-0.583532	-0.049843
O9	O	-0.408584	-1.159690	-0.481083
O10	O	0.091416	-0.659690	0.018917
O11	O	-0.375897	-1.344754	-0.540040
O12	O	0.124103	-0.844754	-0.040040
O13	O	-0.446510	-1.218102	-0.299601
O14	O	0.053490	-0.718102	0.200399
O15	O	-0.247268	-1.119858	-0.419744
O16	O	0.252732	-0.619858	0.080256
O17	O	-0.458024	-1.345495	-0.441805
O18	O	0.041976	-0.845495	0.058195
O19	O	-0.255991	-1.216382	-0.527489
O20	O	0.244009	-0.716382	-0.027489
O21	O	-0.355660	-1.120837	-0.290092
O22	O	0.144340	-0.620837	0.209908
O23	O	-0.355024	-0.979258	-0.418023
O24	O	0.144976	-0.479258	0.081977
O25	O	-0.456906	-1.096644	-0.666668
O26	O	0.043094	-0.596644	-0.166668
O27	O	-0.445392	-0.969251	-0.524465
O28	O	0.054608	-0.469251	-0.024465
O29	O	-0.375261	-1.203175	-0.667972
O30	O	0.124739	-0.703175	-0.167972
O31	O	-0.565780	-1.204895	-0.440085
O32	O	-0.065780	-0.704895	0.059915
O33	O	-0.565298	-1.097623	-0.537016
O34	O	-0.065298	-0.597623	-0.037016
C35	C	-0.398849	-0.944154	-0.469647
C36	C	0.101151	-0.444154	0.030353
C37	C	-0.394702	-0.851945	-0.464776
C38	C	0.105298	-0.351945	0.035224
C39	C	-0.430074	-0.637104	-0.506308
C40	C	0.069926	-0.137104	-0.006308
C41	C	-0.387137	-0.683123	-0.455880
C42	C	0.112863	-0.183123	0.044120
C43	C	-0.391347	-0.777064	-0.460831
C44	C	0.108653	-0.277064	0.039169
C45	C	-0.425864	-0.543154	-0.501358
C46	C	0.074136	-0.043154	-0.001358
C47	C	-0.591018	-1.149912	-0.489782
C48	C	-0.091018	-0.649912	0.010218
C49	C	-0.669068	-1.145803	-0.493535
C50	C	-0.169068	-0.645803	0.006465
C51	C	-0.705968	-1.199763	-0.444877
C52	C	-0.205968	-0.699763	0.055123
C53	C	-0.779305	-1.195904	-0.448412
C54	C	-0.279305	-0.695904	0.051588
C55	C	-0.815741	-1.138080	-0.500601
C56	C	-0.315741	-0.638080	-0.000601
C57	C	-0.778836	-1.084118	-0.549264
C58	C	-0.278836	-0.584118	-0.049264
C59	C	-0.705501	-1.087982	-0.545733
C60	C	-0.205501	-0.587982	-0.045733
C61	C	-1.037155	-1.123621	-0.513789
C62	C	-0.537155	-0.623621	-0.013789
C63	C	-1.110495	-1.119759	-0.517315
C64	C	-0.610495	-0.619759	-0.017315
C65	C	-1.110959	-1.231547	-0.416464
C66	C	-0.610959	-0.731547	0.083536
C67	C	-1.037622	-1.235402	-0.412934
C68	C	-0.537622	-0.735402	0.087066
C69	C	-1.000724	-1.181443	-0.461600
C70	C	-0.500724	-0.681443	0.038400
C71	C	-0.890703	-1.134132	-0.504214
C72	C	-0.390703	-0.634132	-0.004214
C73	C	-0.925764	-1.185396	-0.457991
C74	C	-0.425764	-0.685396	0.042009
C75	C	-0.225440	-1.169527	-0.472370
C76	C	0.274560	-0.669527	0.027630
C77	C	-0.147395	-1.173719	-0.468657
C78	C	0.352605	-0.673719	0.031343
C79	C	-0.417335	-1.148277	-0.698396
C80	C	0.082665	-0.648277	-0.198396
C81	C	-0.421064	-1.143414	-0.791002
C82	C	0.078936	-0.643414	-0.291002
C83	C	-0.418354	-0.376067	-0.492553
C84	C	0.081646	0.123933	0.007447
C85	C	-0.422506	-0.468277	-0.497410
C86	C	0.077494	0.031723	0.002590
C87	C	-0.427855	-1.134505	-0.960551
C88	C	0.072145	-0.634505	-0.460551
C89	C	-0.389110	-1.185048	-1.002466
C90	C	0.110890	-0.685048	-0.502466
C91	C	-0.392889	-1.180092	-1.096809
C92	C	0.107111	-0.680092	-0.596809
C93	C	-0.424077	-1.139461	-0.866199
C94	C	0.075923	-0.639461	-0.366199
C95	C	-0.399819	-1.171108	-0.264616
C96	C	0.100181	-0.671108	0.235384
C97	C	-0.395899	-1.176142	-0.172010
C98	C	0.104101	-0.676142	0.327990
H99	H	-0.676306	-1.246846	-0.402376
H100	H	-0.176306	-0.746846	0.097624
H101	H	-0.353101	-1.232042	-0.967497
H102	H	0.146899	-0.732042	-0.467497
F103	F	-0.474920	-1.073087	-1.006256
F104	F	0.025080	-0.573087	-0.506256
F105	F	-0.334958	-0.642405	-0.394587
F106	F	0.165042	-0.142405	0.105413
F107	F	-0.929487	-1.072593	-0.559755
F108	F	-0.429487	-0.572593	-0.059755
H109	H	-1.007957	-1.282487	-0.370437
H110	H	-0.507957	-0.782487	0.129563
F111	F	-1.150233	-1.288973	-0.364677
F112	F	-0.650233	-0.788973	0.135323
F113	F	-1.149271	-1.058205	-0.572855
F114	F	-0.649271	-0.558205	-0.072855
F115	F	-0.482256	-0.677822	-0.567587
F116	F	0.017744	-0.177822	-0.067587
F117	F	-0.818573	-1.253338	-0.396626
F118	F	-0.318573	-0.753338	0.103374
H119	H	-1.007118	-1.079684	-0.553414
H120	H	-0.507118	-0.579684	-0.053414
F121	F	-0.817616	-1.022582	-0.604813
F122	F	-0.317616	-0.522582	-0.104813
F123	F	-0.886985	-1.246937	-0.402454
F124	F	-0.386985	-0.746937	0.097546
F125	F	-0.666230	-1.030553	-0.597524
F126	F	-0.166230	-0.530553	-0.097524
