data_functionalizedCrystal
_audit_creation_method	'MofGen! by Chris Wilmer'
_symmetry_space_group_name_H-M	'P1'
_symmetry_Int_Tables_number	1
_symmetry_cell_setting	triclinic
loop_
_symmetry_equiv_pos_as_xyz
  x,y,z
_cell_length_a	16.109301
_cell_length_b	16.109301
_cell_length_c	14.586319
_cell_angle_alpha	89.994786
_cell_angle_beta	89.999213
_cell_angle_gamma	83.461481
loop_
_atom_site_label
_atom_site_type_symbol
_atom_site_fract_x
_atom_site_fract_y
_atom_site_fract_z
O1	O	1.103131	0.106866	-0.076185
O2	O	0.861069	0.120165	-0.076200
O3	O	0.988749	-0.007515	-0.076183
O4	O	0.975450	0.234547	-0.076203
O5	O	0.988741	-0.007517	0.076298
O6	O	0.861060	0.120164	0.076281
O7	O	1.103122	0.106864	0.076295
Cu8	Cu	0.982090	0.113514	0.090211
Cu9	Cu	0.982101	0.113516	-0.090115
O10	O	0.975441	0.234545	0.076278
C11	C	0.830090	0.119626	0.000038
C12	C	0.737794	0.118011	0.000033
C13	C	0.515522	0.190018	0.000038
C14	C	0.428801	0.188494	0.000044
C15	C	0.448676	0.037006	0.000052
C16	C	0.535394	0.038530	0.000053
C17	C	0.568815	0.115039	0.000041
C18	C	0.395376	0.111990	0.000046
C19	C	0.301350	0.110337	0.000053
C20	C	0.662847	0.116693	0.000036
C21	C	0.988206	-0.038491	0.000058
C22	C	0.986591	-0.130786	0.000059
C23	C	1.058599	-0.353059	0.000049
C24	C	1.057075	-0.439779	0.000041
C25	C	0.905586	-0.419905	0.000036
C26	C	0.907111	-0.333186	0.000037
C27	C	0.983620	-0.299766	0.000048
C28	C	0.980571	-0.473205	0.000039
C29	C	0.978918	-0.567231	0.000031
C30	C	0.985273	-0.205734	0.000055
C31	C	1.134101	0.107404	0.000055
C32	C	1.226397	0.109019	0.000054
C33	C	0.975984	0.265521	0.000035
C34	C	0.977600	0.357816	0.000028
N35	N	0.982089	0.113512	0.217042
N36	N	0.982109	0.113511	-0.216947
C37	C	1.038644	0.056994	0.452057
C38	C	1.038647	0.056992	0.548038
C39	C	0.925547	0.170032	0.548032
C40	C	0.925541	0.170030	0.452052
C41	C	0.982095	0.113511	0.404067
C42	C	0.982103	0.113512	0.596028
C43	C	0.982105	0.113510	0.700095
C44	C	0.982092	0.113512	0.299993
H45	H	0.421454	-0.025285	0.000067
C46	C	0.551924	0.273022	0.000175
C47	C	0.601147	0.278310	0.078609
C48	C	0.634700	0.354757	0.078761
H49	H	0.507848	0.317530	0.000221
H50	H	0.585386	0.276776	-0.052973
H51	H	0.567686	0.274564	0.131742
H52	H	0.645235	0.233819	0.078579
H53	H	0.668162	0.358511	0.025614
H54	H	0.590619	0.399260	0.078806
H55	H	0.668108	0.358352	0.131973
C56	C	0.593125	-0.042971	0.000008
C57	C	0.545298	-0.110300	-0.000013
C58	C	0.598450	-0.185387	-0.000063
H59	H	0.627384	-0.045643	0.053168
H60	H	0.627356	-0.045566	-0.053185
H61	H	0.511081	-0.107706	0.053175
H62	H	0.511040	-0.107655	-0.053169
H63	H	0.632681	-0.187982	-0.053257
H64	H	0.632706	-0.188051	0.053098
H65	H	0.566007	-0.231079	-0.000086
H66	H	1.120897	-0.325851	0.000056
C67	C	0.371078	0.269991	-0.000010
C68	C	0.418912	0.337316	-0.000042
C69	C	0.365767	0.412407	-0.000103
H70	H	0.336818	0.272665	0.053150
H71	H	0.336847	0.272592	-0.053204
H72	H	0.453128	0.334717	0.053146
H73	H	0.453170	0.334670	-0.053198
H74	H	0.331536	0.415007	-0.053297
H75	H	0.331509	0.415072	0.053058
H76	H	0.398214	0.458095	-0.000133
H77	H	0.846050	-0.289792	0.000033
C78	C	1.138572	-0.497502	0.000092
C79	C	1.205896	-0.449669	0.000125
C80	C	1.280987	-0.502814	0.000182
H81	H	1.141249	-0.531757	-0.053068
H82	H	1.141169	-0.531739	0.053285
H83	H	1.203301	-0.415447	-0.053063
H84	H	1.203247	-0.415416	0.053281
H85	H	1.283584	-0.537051	0.053376
H86	H	1.283656	-0.537066	-0.052979
H87	H	1.326676	-0.470367	0.000213
C88	C	1.100074	-0.004466	0.400123
C89	C	1.149583	-0.053978	0.462698
C90	C	1.206173	-0.110614	0.414894
H91	H	1.134753	0.025351	0.362670
H92	H	1.070195	-0.039131	0.362709
H93	H	1.179460	-0.019318	0.500097
H94	H	1.114927	-0.083813	0.500153
H95	H	1.176294	-0.145279	0.377480
H96	H	1.240845	-0.080790	0.377443
H97	H	1.239766	-0.144220	0.457344
C98	C	0.822607	-0.456354	0.000080
C99	C	0.837318	-0.543705	0.000107
C100	C	0.760896	-0.577308	0.000164
H101	H	0.791671	-0.438148	-0.053079
H102	H	0.791728	-0.438108	0.053275
H103	H	0.868183	-0.561943	-0.053083
H104	H	0.868241	-0.561934	0.053262
H105	H	0.730017	-0.559062	0.053359
H106	H	0.729966	-0.559096	-0.052996
H107	H	0.770866	-0.636578	0.000190
C108	C	1.099913	-0.004465	0.600189
C109	C	1.055647	-0.055391	0.655280
C110	C	1.112059	-0.112025	0.703324
H111	H	1.134535	0.025355	0.637701
H112	H	1.133579	-0.038172	0.557890
H113	H	1.021996	-0.021688	0.697574
H114	H	1.021029	-0.085229	0.617791
H115	H	1.145725	-0.145731	0.661026
H116	H	1.146678	-0.082198	0.740831
H117	H	1.082033	-0.146589	0.740703
H118	H	0.879503	0.216049	0.587111
H119	H	0.879487	0.216053	0.412977
