data_functionalizedCrystal
_audit_creation_method	'MofGen! by Chris Wilmer'
_symmetry_space_group_name_H-M	'P1'
_symmetry_Int_Tables_number	1
_symmetry_cell_setting	triclinic
loop_
_symmetry_equiv_pos_as_xyz
  x,y,z
_cell_length_a	15.995350
_cell_length_b	17.038272
_cell_length_c	15.500258
_cell_angle_alpha	92.977751
_cell_angle_beta	93.182699
_cell_angle_gamma	87.301966
loop_
_atom_site_label
_atom_site_type_symbol
_atom_site_fract_x
_atom_site_fract_y
_atom_site_fract_z
O1	O	1.114459	0.097541	-0.071871
O2	O	0.871569	0.109985	-0.071889
O3	O	0.991571	-0.010053	-0.071873
O4	O	0.994457	0.217578	-0.071887
O5	O	0.998978	-0.003573	0.072015
O6	O	0.878976	0.116465	0.071999
O7	O	1.121866	0.104021	0.072017
Cu8	Cu	1.001097	0.110834	0.085146
Cu9	Cu	0.992338	0.103171	-0.085018
O10	O	1.001864	0.224058	0.072001
C11	C	0.844041	0.112710	0.000053
C12	C	0.750980	0.111167	0.000046
C13	C	0.412839	0.105629	0.000064
C14	C	0.454201	0.020155	0.000390
C15	C	0.550984	0.021683	0.000060
C16	C	0.580595	0.108376	0.000056
C17	C	0.538282	0.146842	-0.082110
C18	C	0.441490	0.144692	-0.082173
C19	C	0.449700	0.153827	0.081454
C20	C	0.546700	0.153855	0.082534
C21	C	0.675403	0.109933	0.000048
C22	C	0.318031	0.104074	0.000066
C23	C	0.992648	-0.035942	0.000070
C24	C	0.984814	-0.122736	0.000070
C25	C	1.056743	-0.172833	0.000076
C26	C	1.049376	-0.254385	0.000067
C27	C	0.970080	-0.285840	0.000058
C28	C	0.898146	-0.235738	0.000049
C29	C	0.905513	-0.154187	0.000052
C30	C	0.944053	-0.531605	0.000044
C31	C	0.936692	-0.613162	0.000044
C32	C	1.087923	-0.631805	0.000060
C33	C	1.095283	-0.550251	0.000068
C34	C	1.023349	-0.500156	0.000055
C35	C	0.962549	-0.369200	0.000052
C36	C	1.030881	-0.416798	0.000055
C37	C	1.149394	0.101295	0.000073
C38	C	1.242454	0.102838	0.000074
C39	C	1.000786	0.249947	0.000056
C40	C	1.008621	0.336742	0.000051
N41	N	1.007264	0.116224	0.204830
N42	N	0.986177	0.097776	-0.204702
C43	C	1.038003	0.143183	0.750015
C44	C	1.033343	0.139102	0.659443
C45	C	0.976861	0.089608	0.614155
C46	C	0.925029	0.044199	0.659443
C47	C	0.929685	0.048285	0.750014
C48	C	0.960089	0.074901	0.340689
C49	C	0.955438	0.070816	0.250112
C50	C	1.063752	0.165720	0.250119
C51	C	1.068407	0.169799	0.340691
C52	C	1.016572	0.124393	0.385972
C53	C	0.972098	0.085433	0.521575
C54	C	1.021331	0.128572	0.478550
H55	H	0.574953	0.125811	0.143321
N56	N	0.894518	0.017425	0.201267
H57	H	0.926329	-0.022519	0.163710
H58	H	0.862407	-0.010664	0.243754
N59	N	1.089249	0.188069	0.610602
H60	H	1.077598	0.245658	0.626356
H61	H	1.149856	0.173318	0.626398
N62	N	0.421022	-0.028399	-0.077214
H63	H	0.434679	-0.003135	-0.131946
H64	H	0.447913	-0.083208	-0.076440
H65	H	1.084000	0.183483	0.786883
N66	N	0.589527	-0.018708	0.078081
H67	H	0.572143	-0.075029	0.075950
H68	H	0.652605	-0.017737	0.077976
H69	H	1.114402	0.210100	0.377559
H70	H	1.105952	0.202689	0.213242
N71	N	1.126959	-0.308415	0.000081
H72	H	1.130013	-0.340269	0.053418
H73	H	1.124487	-0.345014	-0.053296
N74	N	1.180810	-0.516326	0.000083
H75	H	1.225260	-0.560438	0.000086
H76	H	1.184417	-0.485293	-0.053255
H77	H	0.556786	0.210396	-0.085169
N78	N	0.904210	0.025903	0.389521
H79	H	0.867735	-0.006080	0.347085
H80	H	0.939954	-0.010595	0.427097
N81	N	0.573348	0.237895	0.089111
H82	H	0.607923	0.247724	0.038490
H83	H	0.522003	0.274745	0.088408
N84	N	0.410139	0.100288	-0.163517
H85	H	0.370606	0.135831	-0.198469
H86	H	0.459245	0.082297	-0.198932
H87	H	1.146488	-0.672601	0.000070
H88	H	0.879036	0.003903	0.622562
H89	H	0.887481	0.011311	0.786881
N90	N	1.082254	0.181955	0.527382
H91	H	1.050457	0.221899	0.564950
H92	H	1.122730	0.149573	0.564920
N93	N	0.911191	0.032041	0.472724
H94	H	0.879065	0.003889	0.515150
H95	H	0.870750	0.064411	0.435135
N96	N	0.413620	0.237351	0.082192
H97	H	0.373594	0.243974	0.030091
H98	H	0.382656	0.249146	0.136739
N99	N	1.142270	-0.138909	0.000093
H100	H	1.186718	-0.183023	0.000095
H101	H	1.145877	-0.107877	-0.053245
H102	H	0.436278	-0.011364	0.059315
N103	N	0.851162	-0.647091	0.000034
H104	H	0.806708	-0.602982	0.000023
H105	H	0.842074	-0.682922	-0.053307
N106	N	0.404435	0.227602	-0.087137
H107	H	0.341330	0.226852	-0.087219
H108	H	0.426152	0.260692	-0.035492
H109	H	0.573428	-0.014343	-0.058939
H110	H	0.561422	0.114802	-0.143257
H111	H	0.430380	0.128683	0.143734
H112	H	0.885479	-0.490827	0.000034
N113	N	0.812618	-0.269659	0.000034
H114	H	0.818864	-0.328923	0.000037
H115	H	0.783631	-0.248932	0.053372
N116	N	0.827933	-0.100150	0.000040
H117	H	0.776581	-0.132450	0.000035
H118	H	0.830439	-0.063507	0.053380
N119	N	1.116403	-0.382873	0.000071
H120	H	1.150918	-0.398741	0.053417
H121	H	1.145373	-0.403546	-0.053297
N122	N	0.877022	-0.403123	0.000050
H123	H	0.867850	-0.438941	-0.053290
H124	H	0.873403	-0.434105	0.053424
