data_functionalizedCrystal
_audit_creation_method	'MofGen! by Chris Wilmer'
_symmetry_space_group_name_H-M	'P1'
_symmetry_Int_Tables_number	1
_symmetry_cell_setting	triclinic
loop_
_symmetry_equiv_pos_as_xyz
  x,y,z
_cell_length_a	15.944551
_cell_length_b	8.634740
_cell_length_c	7.088929
_cell_angle_alpha	82.820628
_cell_angle_beta	83.786143
_cell_angle_gamma	87.965478
loop_
_atom_site_label
_atom_site_type_symbol
_atom_site_fract_x
_atom_site_fract_y
_atom_site_fract_z
O1	O	-0.281207	2.030253	0.158944
O2	O	-0.258242	1.581298	0.158950
O3	O	-0.148442	1.818035	0.158958
O4	O	-0.391007	1.793517	0.158936
O5	O	-0.133743	1.849694	-0.159016
O6	O	-0.243544	1.612958	-0.159024
O7	O	-0.266508	2.061913	-0.159030
Cu8	Cu	-0.253684	1.840326	-0.188060
Cu9	Cu	-0.271067	1.802885	0.187981
O10	O	-0.376308	1.825177	-0.159038
C11	C	-0.245691	1.539677	-0.000036
C12	C	-0.230180	1.368492	-0.000032
C13	C	-0.415034	1.810365	-0.000053
C14	C	-0.508526	1.813418	-0.000061
C15	C	-0.735846	1.967450	-0.000035
C16	C	-0.783828	1.911531	-0.156813
C17	C	-0.679700	1.818937	-0.000045
C18	C	-0.798303	1.880282	0.156684
C19	C	-0.845046	1.824278	-0.000020
C20	C	-0.726444	1.762990	-0.156953
C21	C	-0.740921	1.731748	0.156686
C22	C	-0.788875	1.675725	-0.000131
C23	C	-0.584448	1.815864	-0.000060
C24	C	-0.940295	1.827340	-0.000018
C25	C	-0.109717	1.832846	-0.000022
C26	C	-0.016225	1.829792	-0.000001
C27	C	-0.279060	2.103534	-0.000040
C28	C	-0.294571	2.274718	-0.000030
N29	N	-0.241458	1.866672	-0.452547
N30	N	-0.283287	1.776552	0.452468
H31	H	-0.712506	2.090740	-0.000191
C32	C	-0.663015	1.505362	0.280113
C33	C	-0.715156	1.629201	0.335620
H34	H	-0.647114	1.442058	0.390594
H35	H	-0.613936	1.545614	0.204548
H36	H	-0.692642	1.444411	0.207578
H37	H	-0.685527	1.690158	0.408143
H38	H	-0.764243	1.588947	0.411217
H39	H	-0.198118	1.960081	-0.534190
H40	H	-0.695242	1.713435	-0.289640
C41	C	-0.313861	1.503519	-0.485601
C42	C	-0.341806	1.650450	-0.437323
H43	H	-0.349992	1.425675	-0.417569
H44	H	-0.257954	1.483480	-0.452875
H45	H	-0.314700	1.501750	-0.619101
H46	H	-0.340961	1.652222	-0.303825
H47	H	-0.397727	1.670494	-0.470036
C48	C	-0.419406	1.309497	-0.163504
C49	C	-0.385014	1.343127	-0.000047
H50	H	-0.475240	1.351748	-0.163515
H51	H	-0.420501	1.199585	-0.163477
H52	H	-0.385807	1.354378	-0.274377
H53	H	-0.418610	1.298236	0.110827
H54	H	-0.383924	1.453061	-0.000057
C55	C	-0.141353	1.138052	0.000015
C56	C	-0.139731	1.300083	-0.000006
H57	H	-0.085515	1.095822	0.000044
H58	H	-0.164684	1.115254	-0.110866
H59	H	-0.174950	1.093191	0.110904
H60	H	-0.106140	1.344946	-0.110903
H61	H	-0.116389	1.322894	0.110887
H62	H	-0.802889	1.987544	-0.289360
H63	H	-0.812047	1.552351	-0.000217
C64	C	-0.813815	2.100052	0.335288
C65	C	-0.840554	1.947289	0.335616
H66	H	-0.839894	2.141420	0.445753
H67	H	-0.829158	2.162872	0.223971
H68	H	-0.754259	2.099459	0.335949
H69	H	-0.900110	1.947883	0.334940
H70	H	-0.825217	1.884453	0.446961
