data_functionalizedCrystal
_audit_creation_method	'MofGen! by Chris Wilmer'
_symmetry_space_group_name_H-M	'P1'
_symmetry_Int_Tables_number	1
_symmetry_cell_setting	triclinic
loop_
_symmetry_equiv_pos_as_xyz
  x,y,z
_cell_length_a	18.050591
_cell_length_b	29.839131
_cell_length_c	18.050583
_cell_angle_alpha	89.960819
_cell_angle_beta	89.977979
_cell_angle_gamma	90.037426
loop_
_atom_site_label
_atom_site_type_symbol
_atom_site_fract_x
_atom_site_fract_y
_atom_site_fract_z
Zn1	Zn	1.135232	-0.178869	-0.420016
Zn2	Zn	1.135112	-0.254009	-0.295820
Zn3	Zn	1.011049	-0.178889	-0.295828
Zn4	Zn	1.010971	-0.253967	-0.419956
O5	O	1.073091	-0.216434	-0.357905
O6	O	1.239141	-0.188846	-0.403564
O7	O	1.118637	-0.244070	-0.191896
O8	O	1.027606	-0.116019	-0.312330
O9	O	1.239053	-0.244051	-0.312317
O10	O	1.118842	-0.116004	-0.403571
O11	O	1.027489	-0.188879	-0.191902
O12	O	0.907114	-0.188839	-0.312271
O13	O	1.027472	-0.243980	-0.523888
O14	O	0.907057	-0.243999	-0.403467
O15	O	1.118767	-0.188805	-0.523933
O16	O	1.118562	-0.316871	-0.312258
O17	O	1.027356	-0.316840	-0.403460
C18	C	0.880139	-0.216417	-0.357864
C19	C	0.797593	-0.216421	-0.357864
C20	C	0.598152	-0.186390	-0.308386
C21	C	0.548717	-0.227368	-0.290106
C22	C	0.646463	-0.216434	-0.357897
C23	C	0.548817	-0.175470	-0.376175
C24	C	0.500478	-0.216444	-0.357928
C25	C	0.598115	-0.257434	-0.339583
C26	C	0.598219	-0.205509	-0.425683
C27	C	0.548806	-0.246515	-0.407429
C28	C	0.730561	-0.216428	-0.357878
C29	C	0.416381	-0.216454	-0.357948
C30	C	1.072957	-0.333156	-0.357868
C31	C	1.072968	-0.383091	-0.357877
C32	C	1.120669	-0.692737	-0.310486
C33	C	1.120760	-0.880410	-0.310514
O34	O	1.161211	-0.904678	-0.270192
N35	N	1.073245	-0.903876	-0.357961
C36	C	1.025707	-0.880420	-0.405407
O37	O	0.985301	-0.904685	-0.445769
C38	C	1.025620	-0.692748	-0.405381
C39	C	1.073133	-0.669285	-0.357926
C40	C	1.168178	-0.669274	-0.263035
C41	C	1.168152	-0.622359	-0.263025
C42	C	1.120616	-0.598906	-0.310466
C43	C	1.073107	-0.622369	-0.357917
C44	C	0.978087	-0.669293	-0.452831
C45	C	0.978070	-0.622372	-0.452822
C46	C	1.025583	-0.598909	-0.405367
C47	C	1.025545	-0.552001	-0.405348
N48	N	1.073060	-0.528536	-0.357902
C49	C	1.120595	-0.551989	-0.310461
C50	C	1.025756	-0.978950	-0.405416
C51	C	1.025776	-1.025868	-0.405422
C52	C	1.120830	-1.025855	-0.310530
C53	C	1.120805	-0.978937	-0.310521
C54	C	1.073271	-0.955485	-0.357970
C55	C	1.120536	-0.453463	-0.310444
C56	C	1.120503	-0.406543	-0.310436
C57	C	1.025453	-0.406560	-0.405331
C58	C	1.025482	-0.453475	-0.405336
C59	C	1.073030	-0.476926	-0.357890
O60	O	0.985121	-0.527705	-0.445655
O61	O	1.161008	-0.527715	-0.270116
C62	C	1.120695	-0.739653	-0.310495
C63	C	1.073185	-0.763116	-0.357946
C64	C	1.025650	-0.739663	-0.405387
C65	C	1.073206	-0.810033	-0.357951
C66	C	1.120742	-0.833486	-0.310510
C67	C	1.168257	-0.810021	-0.263064
C68	C	1.168230	-0.763105	-0.263054
C69	C	0.978135	-0.763128	-0.452833
C70	C	0.978164	-0.810044	-0.452838
C71	C	1.025700	-0.833496	-0.405397
C72	C	1.266797	-0.216451	-0.357947
C73	C	1.349343	-0.216458	-0.357964
C74	C	1.073124	-0.216386	-0.551611
C75	C	1.073138	-0.216365	-0.634156
C76	C	1.073246	-0.099255	-0.357958
C77	C	1.073312	-0.049321	-0.357981
C78	C	1.122834	-0.186347	-0.833632
C79	C	1.055104	-0.175349	-0.883020
C80	C	1.073168	-0.216357	-0.785287
C81	C	1.140925	-0.227327	-0.882980
C82	C	1.073203	-0.216349	-0.931272
C83	C	1.005403	-0.205338	-0.833588
C84	C	1.091269	-0.257336	-0.833544
C85	C	1.023492	-0.246353	-0.882910
C86	C	1.073149	-0.216361	-0.701189
C87	C	1.073214	-0.216346	-1.015369
C88	C	1.073101	-0.216449	-0.164953
C89	C	1.073231	-0.216343	-0.082407
H90	H	0.527123	-0.140828	-0.391596
O91	O	0.523204	-0.276835	-0.457489
C92	C	0.549527	-0.265605	-0.528676
H93	H	0.601817	-0.244407	-0.523357
H94	H	0.562751	-0.297557	-0.560631
H95	H	0.505301	-0.245772	-0.559603
O96	O	0.936988	-0.194226	-0.807946
C97	C	0.889156	-0.186442	-0.868326
H98	H	0.911081	-0.204632	-0.919331
H99	H	0.831417	-0.199459	-0.854377
H100	H	0.886290	-0.148941	-0.880093
O101	O	0.973249	-0.276575	-0.908534
C102	C	0.901954	-0.264845	-0.883215
H103	H	0.900588	-0.227573	-0.869462
H104	H	0.859500	-0.272378	-0.928267
H105	H	0.888121	-0.285097	-0.831443
O106	O	1.214380	-0.691982	-0.216875
C107	C	1.256316	-0.661203	-0.175014
H108	H	1.225877	-0.627779	-0.172421
H109	H	1.264279	-0.674774	-0.116506
H110	H	1.312700	-0.656169	-0.202263
H111	H	1.106588	-0.291984	-0.811797
O112	O	0.522619	-0.238382	-0.221787
C113	C	0.444518	-0.238596	-0.222969
H114	H	0.424420	-0.243899	-0.282184
H115	H	0.423074	-0.266893	-0.186295
H116	H	0.422907	-0.205171	-0.201384
O117	O	1.209208	-0.238457	-0.908951
C118	C	1.204058	-0.277807	-0.951845
H119	H	1.144966	-0.281781	-0.973126
H120	H	1.243777	-0.275440	-1.000812
H121	H	1.219266	-0.308018	-0.916285
H122	H	1.164766	-0.160952	-0.811991
O123	O	0.624044	-0.156061	-0.258487
C124	C	0.667073	-0.123546	-0.295469
H125	H	0.650282	-0.122203	-0.356305
H126	H	0.657537	-0.089369	-0.268949
H127	H	0.728192	-0.132772	-0.291056
O128	O	1.166731	-0.383821	-0.264314
C129	C	1.208679	-0.414586	-0.222433
H130	H	1.211247	-0.448013	-0.252865
H131	H	1.267191	-0.401001	-0.214568
H132	H	1.181522	-0.419621	-0.166004
H133	H	1.159536	-1.044958	-0.271902
H134	H	1.206843	-0.603258	-0.224386
H135	H	0.987045	-0.959859	-0.444056
H136	H	1.159256	-0.472550	-0.271810
O137	O	1.166925	-0.956196	-0.264324
C138	C	1.150732	-0.967696	-0.190291
H139	H	1.122194	-1.001777	-0.188730
H140	H	1.204351	-0.969291	-0.157045
H141	H	1.112558	-0.941322	-0.165234
O142	O	0.623922	-0.298776	-0.321176
C143	C	0.667435	-0.315697	-0.379688
H144	H	0.689058	-0.286685	-0.414690
H145	H	0.716174	-0.335309	-0.356017
H146	H	0.632261	-0.338779	-0.415669
O147	O	0.624150	-0.194384	-0.494013
C148	C	0.599063	-0.151149	-0.513062
H149	H	0.585176	-0.131732	-0.460497
H150	H	0.644307	-0.132742	-0.544998
H151	H	0.547421	-0.154013	-0.549094
H152	H	0.987080	-1.044968	-0.444057
H153	H	0.939393	-0.688388	-0.491470
O154	O	1.036973	-0.133976	-0.908917
C155	C	1.089444	-0.102439	-0.883801
H156	H	1.143493	-0.120310	-0.869932
H157	H	1.099901	-0.076504	-0.929022
H158	H	1.067368	-0.085000	-0.832143
O159	O	0.931931	-0.599640	-0.499018
C160	C	0.948140	-0.611052	-0.573053
H161	H	0.976706	-0.645100	-0.574623
H162	H	0.894525	-0.612674	-0.606304
H163	H	0.986294	-0.584612	-0.598099
O164	O	0.979406	-0.476251	-0.451534
C165	C	0.995572	-0.464728	-0.525563
H166	H	1.054890	-0.451790	-0.529367
H167	H	0.989175	-0.495568	-0.562257
H168	H	0.955726	-0.437510	-0.544928
O169	O	0.979389	-0.383751	-0.451493
C170	C	1.021641	-0.356558	-0.499475
H171	H	1.080132	-0.370667	-0.504119
H172	H	0.994752	-0.356007	-0.556604
H173	H	1.024203	-0.321011	-0.476502
O174	O	1.214458	-0.740386	-0.216936
C175	C	1.256401	-0.771155	-0.175058
H176	H	1.258961	-0.804582	-0.205491
H177	H	1.314915	-0.757574	-0.167192
H178	H	1.229244	-0.776189	-0.118628
O179	O	0.931982	-0.832763	-0.499009
C180	C	0.890012	-0.801997	-0.540864
H181	H	0.920413	-0.768533	-0.543449
H182	H	0.882065	-0.815524	-0.599375
H183	H	0.833621	-0.797055	-0.513614
O184	O	1.214531	-0.832821	-0.217095
C185	C	1.262463	-0.859912	-0.259455
H186	H	1.266977	-0.845737	-0.317947
H187	H	1.319645	-0.860419	-0.232677
H188	H	1.239529	-0.895485	-0.261993
H189	H	0.939426	-0.744037	-0.491466
