data_functionalizedCrystal
_audit_creation_method	'MofGen! by Chris Wilmer'
_symmetry_space_group_name_H-M	'P1'
_symmetry_Int_Tables_number	1
_symmetry_cell_setting	triclinic
loop_
_symmetry_equiv_pos_as_xyz
  x,y,z
_cell_length_a	25.639239
_cell_length_b	16.625548
_cell_length_c	16.625539
_cell_angle_alpha	90.020568
_cell_angle_beta	90.031255
_cell_angle_gamma	90.039754
loop_
_atom_site_label
_atom_site_type_symbol
_atom_site_fract_x
_atom_site_fract_y
_atom_site_fract_z
Zn1	Zn	-0.208135	1.232590	0.455893
Zn2	Zn	0.291865	1.732590	0.955893
Zn3	Zn	-0.295573	1.232455	0.321053
Zn4	Zn	0.204427	1.732455	0.821053
Zn5	Zn	-0.208155	1.097751	0.321073
Zn6	Zn	0.291845	1.597751	0.821073
Zn7	Zn	-0.295543	1.097684	0.455843
Zn8	Zn	0.204457	1.597684	0.955843
O9	O	-0.251851	1.165120	0.388466
O10	O	0.248149	1.665120	0.888466
O11	O	-0.219738	1.345404	0.438018
O12	O	0.280262	1.845404	0.938018
O13	O	-0.283998	1.214558	0.208223
O14	O	0.216002	1.714558	0.708223
O15	O	-0.134987	1.115723	0.338987
O16	O	0.365013	1.615723	0.838987
O17	O	-0.283978	1.345305	0.338952
O18	O	0.216022	1.845305	0.838952
O19	O	-0.134972	1.214788	0.438038
O20	O	0.365028	1.714788	0.938038
O21	O	-0.219772	1.115592	0.208238
O22	O	0.280228	1.615592	0.708238
O23	O	-0.219743	0.984910	0.338938
O24	O	0.280257	1.484910	0.838938
O25	O	-0.283927	1.115607	0.568682
O26	O	0.216073	1.615607	1.068682
O27	O	-0.283946	0.984860	0.437953
O28	O	0.216054	1.484860	0.937953
O29	O	-0.219709	1.214722	0.568719
O30	O	0.280291	1.714722	1.068719
O31	O	-0.368734	1.214492	0.338904
O32	O	0.131266	1.714492	0.838904
O33	O	-0.368712	1.115477	0.437933
O34	O	0.131288	1.615477	0.937933
C35	C	-0.251844	0.955629	0.388443
C36	C	0.248156	1.455629	0.888443
C37	C	-0.251853	0.866008	0.388452
C38	C	0.248147	1.366008	0.888452
C39	C	-0.251857	0.537832	0.388487
C40	C	0.248143	1.037832	0.888487
C41	C	-0.251854	0.629141	0.388475
C42	C	0.248146	1.129141	0.888475
C43	C	-0.251855	0.701917	0.388469
C44	C	0.248145	1.201917	0.888469
C45	C	-0.251852	0.793231	0.388458
C46	C	0.248148	1.293231	0.888458
C47	C	-0.387694	1.164984	0.388429
C48	C	0.112306	1.664984	0.888429
C49	C	-0.445808	1.165000	0.388440
C50	C	0.054192	1.665000	0.888440
C51	C	-0.806170	1.216812	0.336989
C52	C	-0.306170	1.716812	0.836989
C53	C	-0.860774	1.216843	0.337000
C54	C	-0.360774	1.716843	0.837000
O55	O	-0.889010	1.260755	0.293213
O56	O	-0.389010	1.760755	0.793213
N57	N	-0.888090	1.165262	0.388519
N58	N	-0.388090	1.665262	0.888519
C59	C	-0.860799	1.113651	0.440037
C60	C	-0.360799	1.613651	0.940037
O61	O	-0.889048	1.069780	0.483860
O62	O	-0.389048	1.569780	0.983860
C63	C	-0.806196	1.113625	0.440029
C64	C	-0.306196	1.613625	0.940029
C65	C	-0.778883	1.165204	0.388501
C66	C	-0.278883	1.665204	0.888501
C67	C	-0.778857	1.268387	0.285465
C68	C	-0.278857	1.768387	0.785465
C69	C	-0.724256	1.268355	0.285453
C70	C	-0.224256	1.768355	0.785453
C71	C	-0.696969	1.216747	0.336965
C72	C	-0.196969	1.716747	0.836965
C73	C	-0.724282	1.165171	0.388489
C74	C	-0.224282	1.665171	0.888489
C75	C	-0.778906	1.062019	0.491551
C76	C	-0.278906	1.562019	0.991551
C77	C	-0.724299	1.061997	0.491539
C78	C	-0.224299	1.561997	0.991539
C79	C	-0.696986	1.113576	0.440011
C80	C	-0.196986	1.613576	0.940011
C81	C	-0.642395	1.113531	0.439990
C82	C	-0.142395	1.613531	0.939990
N83	N	-0.615078	1.165112	0.388470
N84	N	-0.115078	1.665112	0.888470
C85	C	-0.642366	1.216720	0.336958
C86	C	-0.142366	1.716720	0.836958
C87	C	-0.975470	1.113712	0.440049
C88	C	-0.475470	1.613712	0.940049
C89	C	-1.030072	1.113734	0.440053
C90	C	-0.530072	1.613734	0.940053
C91	C	-1.030043	1.216927	0.337017
C92	C	-0.530043	1.716927	0.837017
C93	C	-0.975440	1.216900	0.337009
C94	C	-0.475440	1.716900	0.837009
C95	C	-0.948154	1.165293	0.388530
C96	C	-0.448154	1.665293	0.888530
C97	C	-0.527700	1.216648	0.336937
C98	C	-0.027700	1.716648	0.836937
C99	C	-0.473095	1.216608	0.336928
C100	C	0.026905	1.716608	0.836928
C101	C	-0.473129	1.113418	0.439967
C102	C	0.026871	1.613418	0.939967
C103	C	-0.527729	1.113454	0.439973
C104	C	-0.027729	1.613454	0.939973
C105	C	-0.555014	1.165076	0.388456
C106	C	-0.055014	1.665076	0.888456
O107	O	-0.614124	1.069644	0.483756
O108	O	-0.114124	1.569644	0.983756
O109	O	-0.614110	1.260591	0.293150
O110	O	-0.114110	1.760591	0.793150
C111	C	-0.115478	1.165278	0.388520
C112	C	0.384522	1.665278	0.888520
C113	C	-0.057364	1.165345	0.388544
C114	C	0.442636	1.665345	0.888544
C115	C	-0.251812	1.165172	0.598775
C116	C	0.248188	1.665172	1.098775
C117	C	-0.251796	1.165195	0.688396
C118	C	0.248204	1.665195	1.188396
C119	C	-0.251859	1.375429	0.388489
C120	C	0.248141	1.875429	0.888489
C121	C	-0.251863	1.465050	0.388498
C122	C	0.248137	1.965050	0.888498
C123	C	-0.251852	1.165114	0.178975
C124	C	0.248148	1.665114	0.678975
C125	C	-0.251722	1.165248	0.089354
C126	C	0.248278	1.665248	0.589354
C127	C	-0.251737	1.165232	1.016572
C128	C	0.248263	1.665232	1.516572
C129	C	-0.251755	1.165219	0.925263
C130	C	0.248245	1.665219	1.425263
C131	C	-0.251767	1.165214	0.852487
C132	C	0.248233	1.665214	1.352487
C133	C	-0.251784	1.165200	0.761172
C134	C	0.248216	1.665200	1.261172
H135	H	-0.549909	1.258684	0.294988
H136	H	-0.049909	1.758684	0.794988
C137	C	-0.914076	1.228140	0.228544
C138	C	-0.414076	1.728140	0.728544
C139	C	-0.945420	1.273601	0.280371
C140	C	-0.445420	1.773601	0.780371
H141	H	-0.895547	1.263148	0.193575
H142	H	-0.395547	1.763148	0.693575
H143	H	-0.890008	1.197414	0.259221
H144	H	-0.390008	1.697414	0.759221
H145	H	-0.935417	1.193036	0.197678
H146	H	-0.435417	1.693036	0.697678
H147	H	-0.924078	1.308700	0.311242
H148	H	-0.424078	1.808700	0.811242
H149	H	-0.969491	1.304341	0.249691
H150	H	-0.469491	1.804341	0.749691
C151	C	-0.662965	0.953493	0.502648
C152	C	-0.162965	1.453493	1.002648
C153	C	-0.694307	1.005267	0.548173
C154	C	-0.194307	1.505267	1.048173
H155	H	-0.644449	0.918474	0.537612
H156	H	-0.144449	1.418474	1.037612
H157	H	-0.684303	0.922684	0.467501
H158	H	-0.184303	1.422684	0.967501
H159	H	-0.638882	0.984211	0.471966
H160	H	-0.138882	1.484211	0.971966
H161	H	-0.718393	0.974549	0.578851
H162	H	-0.218393	1.474549	1.078851
H163	H	-0.672967	1.036078	0.583334
H164	H	-0.172967	1.536078	1.083334
H165	H	-0.702021	1.310357	0.243497
H166	H	-0.202021	1.810357	0.743497
C167	C	-0.773329	1.370372	0.183612
C168	C	-0.273329	1.870372	0.683612
C169	C	-0.808844	1.325117	0.228831
C170	C	-0.308844	1.825117	0.728831
H171	H	-0.791840	1.405389	0.148639
H172	H	-0.291840	1.905389	0.648639
H173	H	-0.752001	1.401183	0.218770
H174	H	-0.252001	1.901183	0.718770
H175	H	-0.752065	1.335232	0.152747
H176	H	-0.252065	1.835232	0.652747
H177	H	-0.830106	1.360257	0.259700
H178	H	-0.330106	1.860257	0.759700
H179	H	-0.830181	1.294303	0.193668
H180	H	-0.330181	1.794303	0.693668
H181	H	-0.953256	1.071681	0.482001
H182	H	-0.453256	1.571681	0.982001
H183	H	-0.801135	1.020014	0.533507
H184	H	-0.301135	1.520014	1.033507
H185	H	-1.052270	1.258952	0.295075
H186	H	-0.552270	1.758952	0.795075
C187	C	-0.522271	1.011454	0.541824
C188	C	-0.022271	1.511454	1.041824
C189	C	-0.557756	1.056759	0.496614
C190	C	-0.057756	1.556759	0.996614
H191	H	-0.540806	0.976462	0.576800
H192	H	-0.040806	1.476462	1.076800
H193	H	-0.501016	0.980615	0.506660
H194	H	-0.001016	1.480615	1.006660
H195	H	-0.500930	1.046564	0.572685
H196	H	-0.000930	1.546564	1.072685
H197	H	-0.579094	1.021649	0.465748
H198	H	-0.079094	1.521649	0.965748
H199	H	-0.579019	1.087600	0.531782
H200	H	-0.079019	1.587600	1.031782
C201	C	-1.024603	1.011732	0.541899
C202	C	-0.524603	1.511732	1.041899
C203	C	-1.060091	1.057032	0.496690
C204	C	-0.560091	1.557032	0.996690
H205	H	-1.043135	0.976732	0.576871
H206	H	-0.543135	1.476732	1.076871
H207	H	-1.003345	0.980901	0.506733
H208	H	-0.503345	1.480901	1.006733
H209	H	-1.003266	1.046845	0.572763
H210	H	-0.503266	1.546845	1.072763
H211	H	-1.081426	1.021919	0.465821
H212	H	-0.581426	1.521919	0.965821
H213	H	-1.081359	1.087865	0.531861
H214	H	-0.581359	1.587865	1.031861
C215	C	-0.389434	1.067572	0.485698
C216	C	0.110566	1.567572	0.985698
C217	C	-0.443128	1.056696	0.496591
C218	C	0.056872	1.556696	0.996591
H219	H	-0.370912	1.032560	0.520664
H220	H	0.129088	1.532560	1.020664
H221	H	-0.380521	1.055790	0.431518
H222	H	0.119479	1.555790	0.931518
H223	H	-0.380453	1.121742	0.497540
H224	H	0.119547	1.621742	0.997540
H225	H	-0.452109	1.002528	0.484743
H226	H	0.047891	1.502528	0.984743
H227	H	-0.452044	1.068473	0.550784
H228	H	0.047956	1.568473	1.050784
H229	H	-0.450858	1.258610	0.294964
H230	H	0.049142	1.758610	0.794964
