data_functionalizedCrystal
_audit_creation_method	'MofGen! by Chris Wilmer'
_symmetry_space_group_name_H-M	'P1'
_symmetry_Int_Tables_number	1
_symmetry_cell_setting	triclinic
loop_
_symmetry_equiv_pos_as_xyz
  x,y,z
_cell_length_a	16.959455
_cell_length_b	16.959454
_cell_length_c	12.759387
_cell_angle_alpha	89.969920
_cell_angle_beta	89.975828
_cell_angle_gamma	90.019023
loop_
_atom_site_label
_atom_site_type_symbol
_atom_site_fract_x
_atom_site_fract_y
_atom_site_fract_z
Zn1	Zn	1.208442	-0.314662	-0.594113
Zn2	Zn	1.208347	-0.446862	-0.418436
Zn3	Zn	1.076253	-0.314699	-0.418439
Zn4	Zn	1.076235	-0.446800	-0.594063
O5	O	1.142319	-0.380756	-0.506263
O6	O	1.319040	-0.332209	-0.570828
O7	O	1.190793	-0.429372	-0.271415
O8	O	1.093836	-0.204083	-0.441764
O9	O	1.318971	-0.429336	-0.441759
O10	O	1.190954	-0.204056	-0.570831
O11	O	1.093744	-0.332272	-0.271417
O12	O	0.965640	-0.332212	-0.441716
O13	O	1.093805	-0.429230	-0.741091
O14	O	0.965627	-0.429266	-0.570747
O15	O	1.190936	-0.332149	-0.741128
O16	O	1.190775	-0.557465	-0.441711
O17	O	1.093713	-0.557419	-0.570744
C18	C	0.936953	-0.380737	-0.506227
C19	C	0.849096	-0.380748	-0.506237
C20	C	0.807806	-0.330144	-0.439164
C21	C	0.807833	-0.431357	-0.573325
C22	C	0.725288	-0.431366	-0.573341
C23	C	0.683997	-0.380763	-0.506268
C24	C	0.725252	-0.330150	-0.439180
C25	C	0.684026	-0.481973	-0.640435
C26	C	0.601475	-0.481983	-0.640454
C27	C	0.560183	-0.431383	-0.573375
C28	C	0.601444	-0.380769	-0.506283
C29	C	0.560153	-0.330165	-0.439211
C30	C	0.601412	-0.279554	-0.372113
C31	C	0.683960	-0.279550	-0.372101
C32	C	0.477635	-0.431387	-0.573387
C33	C	0.477599	-0.330171	-0.439226
C34	C	1.142253	-0.586122	-0.506245
C35	C	1.142297	-0.673979	-0.506272
C36	C	1.091852	-1.045460	-0.573443
C37	C	1.193006	-1.045448	-0.439189
C38	C	1.192979	-0.962902	-0.439180
C39	C	1.142386	-0.921632	-0.506302
C40	C	1.091822	-0.962907	-0.573433
C41	C	1.243537	-0.921621	-0.372042
C42	C	1.243511	-0.839070	-0.372029
C43	C	1.192922	-0.797798	-0.439157
C44	C	1.142356	-0.839078	-0.506292
C45	C	1.091763	-0.797807	-0.573414
C46	C	1.041200	-0.839086	-0.640555
C47	C	1.041232	-0.921635	-0.640561
C48	C	1.192890	-0.715249	-0.439150
C49	C	1.091732	-0.715254	-0.573404
C50	C	1.348488	-0.380775	-0.506299
C51	C	1.436344	-0.380784	-0.506314
C52	C	1.142379	-0.380678	-0.780296
C53	C	1.142404	-0.380645	-0.897073
C54	C	1.142407	-0.174588	-0.506304
C55	C	1.142445	-0.086731	-0.506321
C56	C	1.243555	-0.279561	-0.897131
C57	C	1.294141	-0.229007	-0.952020
C58	C	1.294160	-0.228979	-1.061742
C59	C	1.243586	-0.279507	-1.116577
C60	C	1.193000	-0.330061	-1.061687
C61	C	1.192988	-0.330086	-0.951963
C62	C	1.091847	-0.431140	-1.061629
C63	C	1.091830	-0.431174	-0.951908
C64	C	1.041273	-0.481669	-1.116464
C65	C	0.990690	-0.532228	-1.061574
C66	C	0.990673	-0.532255	-0.951846
C67	C	1.041244	-0.481728	-0.897018
C68	C	1.142305	-0.380776	-0.233295
C69	C	1.142433	-0.380586	-0.116519
H70	H	0.567889	-0.523195	-0.695088
F71	F	1.297380	-0.965547	-0.300615
F72	F	1.243548	-0.279598	-0.780355
F73	F	0.936827	-0.586059	-0.893436
F74	F	1.041294	-0.481636	-1.233240
F75	F	1.246847	-1.089373	-0.367757
H76	H	1.335316	-0.187867	-0.907362
H77	H	1.234053	-0.681644	-0.384480
F78	F	0.987354	-0.795154	-0.711984
F79	F	0.727876	-0.225688	-0.300701
F80	F	1.041234	-0.481756	-0.780242
F81	F	1.347989	-0.175164	-1.120161
F82	F	0.433661	-0.276314	-0.367831
F83	F	0.557458	-0.225695	-0.300739
H84	H	0.841403	-0.288940	-0.384532
F85	F	1.037887	-0.671337	-0.644851
F86	F	0.433728	-0.485242	-0.644799
H87	H	0.717651	-0.523169	-0.695045
F88	F	1.297329	-0.795145	-0.300579
F89	F	0.851780	-0.485214	-0.644699
H90	H	1.000066	-0.955251	-0.695223
H91	H	1.050688	-1.079073	-0.628111
F92	F	1.243603	-0.279468	-1.233353
F93	F	0.936867	-0.585994	-1.119938
