data_functionalizedCrystal
_audit_creation_method	'MofGen! by Chris Wilmer'
_symmetry_space_group_name_H-M	'P1'
_symmetry_Int_Tables_number	1
_symmetry_cell_setting	triclinic
loop_
_symmetry_equiv_pos_as_xyz
  x,y,z
_cell_length_a	14.560438
_cell_length_b	18.878441
_cell_length_c	14.560438
_cell_angle_alpha	120.005577
_cell_angle_beta	89.997309
_cell_angle_gamma	60.002235
loop_
_atom_site_label
_atom_site_type_symbol
_atom_site_fract_x
_atom_site_fract_y
_atom_site_fract_z
Zr1	Zr	0.884761	0.775396	0.120652
O2	O	0.738107	0.923185	0.267327
O3	O	0.929718	0.627607	0.075670
O4	O	0.929710	0.775396	0.267299
O5	O	0.738121	0.775396	-0.075442
O6	O	1.080850	0.775395	0.267298
O7	O	0.738115	0.775396	0.075698
O8	O	1.080865	0.511028	-0.075492
O9	O	0.738107	1.039763	0.267348
O10	O	1.061686	0.688393	0.056506
O11	O	0.948897	0.688394	-0.056286
O12	O	0.948888	0.862396	0.169332
O13	O	0.836098	0.862396	0.056539
Zr14	Zr	1.125823	0.775393	-0.120401
Zr15	Zr	1.125812	0.775394	0.120649
Zr16	Zr	0.884771	0.775395	-0.120399
Zr17	Zr	0.884762	0.961324	0.120685
Zr18	Zr	1.125822	0.589465	-0.120434
O19	O	1.080866	0.923181	-0.075419
O20	O	1.080851	0.923183	0.267324
O21	O	0.738122	0.923184	-0.075416
O22	O	1.272477	0.627603	-0.267077
O23	O	1.272462	0.627605	0.075666
O24	O	0.929733	0.627606	-0.267073
O25	O	1.272462	0.775393	0.075692
O26	O	1.080873	0.775393	-0.267049
O27	O	0.929733	0.775394	-0.267047
O28	O	1.272469	0.775392	-0.075448
O29	O	0.929711	1.039761	0.267346
O30	O	1.080873	0.511027	-0.267095
O31	O	1.272476	0.511026	-0.267097
O32	O	1.272468	0.511026	-0.075494
O33	O	0.738116	1.039762	0.075745
O34	O	0.929719	1.039761	0.075743
O35	O	1.061696	0.688393	-0.169082
O36	O	1.174485	0.688392	-0.056289
O37	O	1.061687	0.862395	0.056537
O38	O	0.948897	0.862395	-0.056256
C39	C	1.005291	0.542827	0.000084
C40	C	1.005291	0.463895	0.000071
C41	C	0.922020	0.491060	0.083358
C42	C	0.922023	0.416910	0.083385
C43	C	1.005294	0.315595	0.000118
C44	C	1.088574	0.288430	-0.083174
C45	C	1.088574	0.362580	-0.083195
C46	C	1.088565	0.133883	-0.083127
C47	C	1.088564	0.059728	-0.083108
C48	C	0.922014	0.188213	0.083453
C49	C	0.922015	0.262363	0.083432
C50	C	1.005293	0.235193	0.000139
C51	C	0.703774	0.775396	0.000129
C52	C	0.601441	0.775397	0.000130
C53	C	0.553361	0.775400	0.083396
C54	C	0.457213	0.775393	0.083390
C55	C	0.457231	0.775386	-0.083154
C56	C	0.553382	0.775385	-0.083151
C57	C	0.363645	0.717019	0.145573
C58	C	0.315551	0.717039	0.228855
C59	C	0.308899	0.775429	0.340233
C60	C	0.350324	0.833824	0.368349
C61	C	0.398407	0.833813	0.285072
C62	C	0.405076	0.775400	0.173681
C63	C	0.646947	0.833768	-0.145323
C64	C	0.695027	0.833764	-0.228597
C65	C	0.701677	0.775380	-0.339979
C66	C	0.660239	0.717000	-0.368094
C67	C	0.612159	0.717003	-0.284821
C68	C	0.605517	0.775386	-0.173439
C69	C	1.306810	0.775392	0.000122
C70	C	1.409143	0.775391	0.000121
C71	C	1.005279	0.775395	0.301643
C72	C	1.005274	0.775396	0.403975
C73	C	1.005292	1.007962	0.000166
C74	C	1.005293	1.086893	0.000180
C75	C	0.922013	0.775399	0.548215
C76	C	0.922012	0.775394	0.452060
C77	C	1.088551	0.775392	0.452044
C78	C	1.088557	0.775390	0.548193
C79	C	0.859812	0.717018	0.282814
C80	C	0.776528	0.717036	0.234758
C81	C	0.665161	0.775424	0.303831
C82	C	0.637059	0.833818	0.420975
C83	C	0.720339	0.833809	0.469032
C84	C	0.831717	0.775398	0.399945
C85	C	1.150745	0.833775	0.717446
C86	C	1.234021	0.833773	0.765510
C87	C	1.345391	0.775392	0.696442
C88	C	1.373493	0.717012	0.579305
C89	C	1.290217	0.717014	0.531242
C90	C	1.178847	0.775393	0.600315
C91	C	1.005298	0.775395	0.698609
C92	C	1.005282	0.775399	0.596279
C93	C	1.306810	0.542825	0.000081
C94	C	1.409142	0.463892	0.000066
C95	C	1.005304	0.542826	-0.301433
C96	C	1.005308	0.463894	-0.403779
C97	C	1.306823	0.542823	-0.301437
C98	C	1.409159	0.463891	-0.403784
C99	C	0.703761	1.007965	0.301687
C100	C	0.601424	1.086897	0.404035
C101	C	0.703774	1.007964	0.000170
C102	C	0.601442	1.086896	0.000185
C103	C	1.005279	1.007963	0.301684
C104	C	1.005275	1.086895	0.404030
C105	C	1.398318	0.426826	0.058947
C106	C	1.494461	0.352671	0.058956
C107	C	1.601427	0.315579	0.000076
C108	C	1.612248	0.352653	-0.058807
C109	C	1.516106	0.426812	-0.058808
C110	C	1.064190	0.426826	-0.510730
C111	C	1.064190	0.352672	-0.606905
C112	C	1.005314	0.315582	-0.596126
C113	C	0.946425	0.352657	-0.489164
C114	C	0.946419	0.426815	-0.392992
C115	C	1.516103	0.426823	-0.392971
C116	C	1.612268	0.352668	-0.489128
C117	C	1.601488	0.315577	-0.596097
C118	C	1.494533	0.352652	-0.606908
C119	C	1.398370	0.426811	-0.510752
C120	C	0.494481	1.123974	0.393221
C121	C	0.398315	1.198152	0.489378
C122	C	0.409096	1.235247	0.596347
C123	C	0.516051	1.198167	0.607159
C124	C	0.612214	1.123996	0.511003
C125	C	0.612265	1.123970	-0.058686
C126	C	0.516122	1.198146	-0.058668
C127	C	0.409157	1.235240	0.000215
C128	C	0.398336	1.198163	0.059093
C129	C	0.494477	1.123994	0.059081
C130	C	1.064163	1.123961	0.393215
C131	C	1.064181	1.198116	0.489371
C132	C	1.005304	1.235208	0.596341
C133	C	0.946414	1.198134	0.607154
C134	C	0.946404	1.123975	0.510999
H135	H	0.854207	0.344857	0.151234
H136	H	1.679799	0.255192	-0.674384
H137	H	0.311231	1.228376	0.107034
H138	H	1.699352	0.322442	-0.106745
H139	H	1.524902	0.457012	-0.305880
C140	C	0.528051	1.238909	-0.123452
N141	N	0.537039	1.269608	-0.172249
C142	C	0.280676	1.238925	0.477461
N143	N	0.192073	1.269632	0.468481
H144	H	1.112108	1.093773	0.306123
C145	C	1.005325	1.316787	0.702104
N146	N	1.005343	1.378234	0.781761
H147	H	1.156379	0.205933	-0.150967
H148	H	0.898445	1.093804	0.519820
H149	H	0.898489	0.322447	-0.480404
H150	H	0.524815	1.228380	0.694264
H151	H	1.699347	0.322489	-0.480305
C152	C	0.573552	0.775437	0.250964
N153	N	0.504557	0.775439	0.211138
H154	H	1.112134	1.228294	0.480545
C155	C	0.303302	1.316831	0.702112
N156	N	0.223614	1.378275	0.781769
H157	H	1.311296	0.456982	-0.519572
C158	C	0.830399	0.446800	0.174989
N159	N	0.761378	0.469317	0.243983
H160	H	0.799419	0.669485	0.139375
C161	C	0.830411	0.218100	0.175082
N162	N	0.761417	0.240605	0.244092
C163	C	1.482693	0.311833	-0.724585
N164	N	1.473779	0.281080	-0.813222
C165	C	1.280665	0.467618	0.123732
N166	N	1.192051	0.498344	0.172537
H167	H	0.898474	0.456986	-0.305911
C168	C	1.028229	0.898003	0.793433
N169	N	0.935951	0.946386	0.850668
C170	C	1.005343	0.233996	-0.701929
N171	N	1.005375	0.172540	-0.781625
H172	H	0.485682	1.093775	0.306130
H173	H	0.281826	0.669487	0.205952
C174	C	1.180174	0.103990	-0.174757
N175	N	1.249168	0.081476	-0.243776
C176	C	0.443980	0.898037	0.315992
N177	N	0.478314	0.946407	0.339283
H178	H	0.699289	1.093809	0.519820
H179	H	1.112149	0.322494	-0.693988
H180	H	0.699353	1.093774	-0.106644
H181	H	0.665650	0.669462	-0.458790
C182	C	0.342991	0.898063	0.490878
N183	N	0.337473	0.946445	0.583169
C184	C	0.639614	0.898013	-0.022791
N185	N	0.634081	0.946413	0.069501
H186	H	0.369075	0.669456	0.054879
C187	C	0.303408	1.316824	0.000211
N188	N	0.223762	1.378270	0.000201
C189	C	0.255998	0.775444	0.431840
N190	N	0.216157	0.775448	0.500833
C191	C	0.482552	1.083209	0.123833
N192	N	0.473562	1.052491	0.172606
H193	H	0.854200	0.573553	0.151152
C194	C	0.566585	0.652775	-0.315753
N195	N	0.532262	0.604396	-0.339052
H196	H	0.898478	1.228346	0.694262
C197	C	0.689433	0.898032	0.597881
N198	N	0.666153	0.946401	0.694934
H199	H	1.156370	-0.022766	-0.150911
C200	C	1.707175	0.233996	0.000079
N201	N	1.786822	0.172543	0.000082
H202	H	1.156382	0.340455	-0.151017
H203	H	0.592490	0.775407	0.151207
H204	H	0.418091	0.775378	-0.150958
C205	C	1.128957	0.467617	-0.522615
N206	N	1.177735	0.498342	-0.531576
C207	C	0.740606	0.897989	-0.197664
N208	N	0.774939	0.946360	-0.174367
C209	C	0.754564	0.775383	-0.431579
N210	N	0.794401	0.775381	-0.500573
H211	H	0.854207	0.775404	0.587364
H212	H	0.546369	0.881370	0.477210
H213	H	1.524935	0.456982	-0.106763
C214	C	0.982325	0.652769	0.206821
N215	N	1.074603	0.604376	0.149578
H216	H	1.156351	0.775387	0.412884
H217	H	1.313106	0.669475	0.435860
H218	H	1.464179	0.669476	0.523066
H219	H	1.211132	0.881310	0.860892
C220	C	1.436994	0.775397	0.749320
N221	N	1.505989	0.775397	0.789143
H222	H	1.485628	0.322494	0.106905
