data_functionalizedCrystal
_audit_creation_method	'MofGen! by Chris Wilmer'
_symmetry_space_group_name_H-M	'P1'
_symmetry_Int_Tables_number	1
_symmetry_cell_setting	triclinic
loop_
_symmetry_equiv_pos_as_xyz
  x,y,z
_cell_length_a	18.050590
_cell_length_b	18.050589
_cell_length_c	14.908308
_cell_angle_alpha	86.730698
_cell_angle_beta	86.705717
_cell_angle_gamma	90.017386
loop_
_atom_site_label
_atom_site_type_symbol
_atom_site_fract_x
_atom_site_fract_y
_atom_site_fract_z
Zn1	Zn	1.111098	-0.320072	0.509744
Zn2	Zn	1.118169	-0.437108	0.358894
Zn3	Zn	0.994075	-0.312915	0.358941
Zn4	Zn	0.986865	-0.444201	0.509746
O5	O	1.052552	-0.378574	0.434331
O6	O	1.215961	-0.335623	0.489712
O7	O	1.107684	-0.414670	0.232656
O8	O	1.009656	-0.209941	0.378964
O9	O	1.221156	-0.421610	0.378884
O10	O	1.095633	-0.215199	0.489758
O11	O	1.016513	-0.323426	0.232691
O12	O	0.889193	-0.330304	0.378966
O13	O	0.997368	-0.433698	0.635989
O14	O	0.883896	-0.426759	0.489762
O15	O	1.088642	-0.342501	0.635988
O16	O	1.100693	-0.541973	0.378886
O17	O	1.004224	-0.547184	0.489716
C18	C	0.859598	-0.378525	0.434370
C19	C	0.777050	-0.378523	0.434408
C20	C	0.574747	-0.431111	0.494516
C21	C	0.524301	-0.364447	0.516709
C22	C	0.625922	-0.378563	0.434364
C23	C	0.529287	-0.445265	0.412169
C24	C	0.479939	-0.378607	0.434323
C25	C	0.576560	-0.311865	0.456601
C26	C	0.581553	-0.392726	0.352022
C27	C	0.531130	-0.326015	0.374185
C28	C	0.710019	-0.378538	0.434390
C29	C	0.395843	-0.378623	0.434297
C30	C	1.052463	-0.571525	0.434316
C31	C	1.052491	-0.654072	0.434340
C32	C	1.000081	-0.856383	0.494588
C33	C	0.985891	-0.901913	0.412273
C34	C	1.052563	-0.805203	0.434352
C35	C	1.066790	-0.906755	0.516676
C36	C	1.052632	-0.951189	0.434370
C37	C	1.038339	-0.849645	0.351993
C38	C	1.119268	-0.854484	0.456451
C39	C	1.105105	-0.899990	0.374079
C40	C	1.052522	-0.721105	0.434342
C41	C	1.052673	-1.035286	0.434370
C42	C	1.246259	-0.378624	0.434292
C43	C	1.328805	-0.378645	0.434276
C44	C	1.041412	-0.389689	0.669637
C45	C	1.036665	-0.394426	0.769911
C46	C	1.052660	-0.184870	0.434366
C47	C	1.052706	-0.102325	0.434381
C48	C	1.063690	-0.367448	0.199940
C49	C	1.068581	-0.362503	0.099667
C50	C	1.122786	-0.308346	0.958335
C51	C	1.118328	-0.312794	1.052551
C52	C	1.023288	-0.407766	1.052560
C53	C	1.027746	-0.403318	0.958344
C54	C	1.077497	-0.353607	0.911235
C55	C	1.081958	-0.349163	0.817018
C56	C	0.986915	-0.444131	0.817028
C57	C	0.982457	-0.448579	0.911244
H58	H	0.499282	-0.352481	0.586327
Br59	Br	0.606822	-0.505063	0.579388
H60	H	1.078797	-0.931712	0.586290
Br61	Br	0.499279	-0.251903	0.289369
H62	H	0.597267	-0.255461	0.475434
Br63	Br	0.494612	-0.539251	0.380908
Br64	Br	1.190313	-0.240894	0.894397
H65	H	1.149520	-0.919092	0.323088
H66	H	0.950040	-0.480988	0.778669
Br67	Br	1.179790	-0.251362	1.116471
H68	H	0.955641	-0.837138	0.545456
Br69	Br	0.914939	-0.516037	0.975186
H70	H	1.026267	-0.824776	0.282360
H71	H	0.606587	-0.404714	0.282425
Br72	Br	0.955767	-0.475217	1.116509
Br73	Br	0.891921	-0.936690	0.381117
Br74	Br	1.213212	-0.819679	0.487642
Br75	Br	1.149480	-0.281703	0.753084
