data_functionalizedCrystal
_audit_creation_method	'MofGen! by Chris Wilmer'
_symmetry_space_group_name_H-M	'P1'
_symmetry_Int_Tables_number	1
_symmetry_cell_setting	triclinic
loop_
_symmetry_equiv_pos_as_xyz
  x,y,z
_cell_length_a	13.897449
_cell_length_b	13.897448
_cell_length_c	13.897441
_cell_angle_alpha	90.030599
_cell_angle_beta	90.020733
_cell_angle_gamma	90.018972
loop_
_atom_site_label
_atom_site_type_symbol
_atom_site_fract_x
_atom_site_fract_y
_atom_site_fract_z
Zn1	Zn	-1.474703	0.383951	-0.545381
Zn2	Zn	-1.224703	0.633951	-0.295381
Zn3	Zn	-0.974703	0.883951	-0.045381
Zn4	Zn	-0.724703	1.133951	0.204619
Zn5	Zn	-1.474597	0.545273	-0.384083
Zn6	Zn	-1.224597	0.795273	-0.134083
Zn7	Zn	-0.974597	1.045273	0.115917
Zn8	Zn	-0.724597	1.295273	0.365917
Zn9	Zn	-1.313392	0.383997	-0.384100
Zn10	Zn	-1.063392	0.633997	-0.134100
Zn11	Zn	-0.813392	0.883997	0.115900
Zn12	Zn	-0.563392	1.133997	0.365900
Zn13	Zn	-1.313373	0.545210	-0.545335
Zn14	Zn	-1.063373	0.795210	-0.295335
Zn15	Zn	-0.813373	1.045210	-0.045335
Zn16	Zn	-0.563373	1.295210	0.204665
O17	O	-1.394016	0.464608	-0.464725
O18	O	-1.144016	0.714608	-0.214725
O19	O	-0.894016	0.964608	0.035275
O20	O	-0.644016	1.214608	0.285275
O21	O	-1.609670	0.405358	-0.523997
O22	O	-1.359670	0.655358	-0.273997
O23	O	-1.109670	0.905358	-0.023997
O24	O	-0.859670	1.155358	0.226003
O25	O	-1.453176	0.523925	-0.249103
O26	O	-1.203176	0.773925	0.000897
O27	O	-0.953176	1.023925	0.250897
O28	O	-0.703176	1.273925	0.500897
O29	O	-1.334842	0.249009	-0.405520
O30	O	-1.084842	0.499009	-0.155520
O31	O	-0.834842	0.749009	0.094480
O32	O	-0.584842	0.999009	0.344480
O33	O	-1.609592	0.523881	-0.405491
O34	O	-1.359592	0.773881	-0.155491
O35	O	-1.109592	1.023881	0.094509
O36	O	-0.859592	1.273881	0.344509
O37	O	-1.453356	0.248976	-0.524013
O38	O	-1.203356	0.498976	-0.274013
O39	O	-0.953356	0.748976	-0.024013
O40	O	-0.703356	0.998976	0.225987
O41	O	-1.334739	0.405436	-0.249116
O42	O	-1.084739	0.655436	0.000884
O43	O	-0.834739	0.905436	0.250884
O44	O	-0.584739	1.155436	0.500884
O45	O	-1.178408	0.405375	-0.405476
O46	O	-0.928408	0.655375	-0.155476
O47	O	-0.678408	0.905375	0.094524
O48	O	-0.428408	1.155375	0.344524
O49	O	-1.334811	0.523773	-0.680323
O50	O	-1.084811	0.773773	-0.430323
O51	O	-0.834811	1.023773	-0.180323
O52	O	-0.584811	1.273773	0.069677
O53	O	-1.178394	0.523817	-0.523935
O54	O	-0.928394	0.773817	-0.273935
O55	O	-0.678394	1.023817	-0.023935
O56	O	-0.428394	1.273817	0.226065
O57	O	-1.453339	0.405297	-0.680357
O58	O	-1.203339	0.655297	-0.430357
O59	O	-0.953339	0.905297	-0.180357
O60	O	-0.703339	1.155297	0.069643
O61	O	-1.453158	0.680246	-0.405447
O62	O	-1.203158	0.930246	-0.155447
O63	O	-0.953158	1.180246	0.094553
O64	O	-0.703158	1.430246	0.344553
O65	O	-1.334708	0.680200	-0.523918
O66	O	-1.084708	0.930200	-0.273918
O67	O	-0.834708	1.180200	-0.023918
O68	O	-0.584708	1.430200	0.226082
C69	C	-1.143402	0.464595	-0.464703
C70	C	-0.893402	0.714595	-0.214703
C71	C	-0.643402	0.964595	0.035297
C72	C	-0.393402	1.214595	0.285297
C73	C	-1.036188	0.464613	-0.464716
C74	C	-0.786188	0.714613	-0.214716
C75	C	-0.536188	0.964613	0.035284
C76	C	-0.286188	1.214613	0.285284
C77	C	-1.393946	0.715222	-0.464697
C78	C	-1.143946	0.965222	-0.214697
C79	C	-0.893946	1.215222	0.035303
C80	C	-0.643946	1.465222	0.285303
C81	C	-1.394004	0.822436	-0.464717
C82	C	-1.144004	1.072436	-0.214717
C83	C	-0.894004	1.322436	0.035283
C84	C	-0.644004	1.572436	0.285283
C85	C	-1.394085	0.464522	-0.716318
C86	C	-1.144085	0.714522	-0.466318
C87	C	-0.894085	0.964522	-0.216318
C88	C	-0.644085	1.214522	0.033682
C89	C	-1.394114	0.464486	-0.823532
C90	C	-1.144114	0.714486	-0.573532
C91	C	-0.894114	0.964486	-0.323532
C92	C	-0.644114	1.214486	-0.073532
C93	C	-1.645609	0.464621	-0.464747
C94	C	-1.395609	0.714621	-0.214747
C95	C	-1.145609	0.964621	0.035253
C96	C	-0.895609	1.214621	0.285253
C97	C	-1.752823	0.464627	-0.464757
C98	C	-1.502823	0.714627	-0.214757
C99	C	-1.252823	0.964627	0.035243
C100	C	-1.002823	1.214627	0.285243
C101	C	-0.839893	0.464616	-0.464741
C102	C	-0.589893	0.714616	-0.214741
C103	C	-0.339893	0.964616	0.035259
C104	C	-0.089893	1.214616	0.285259
C105	C	-0.949125	0.464611	-0.464725
C106	C	-0.699125	0.714611	-0.214725
C107	C	-0.449125	0.964611	0.035275
C108	C	-0.199125	1.214611	0.285275
C109	C	-1.394113	0.213015	-0.464774
C110	C	-1.144113	0.463015	-0.214774
C111	C	-0.894113	0.713015	0.035226
C112	C	-0.644113	0.963015	0.285226
C113	C	-1.394154	0.105801	-0.464795
C114	C	-1.144154	0.355801	-0.214795
C115	C	-0.894154	0.605801	0.035205
C116	C	-0.644154	0.855801	0.285205
C117	C	-1.394105	1.018731	-0.464778
C118	C	-1.144105	1.268731	-0.214778
C119	C	-0.894105	1.518731	0.035222
C120	C	-0.644105	1.768731	0.285222
C121	C	-1.394046	0.909499	-0.464747
C122	C	-1.144046	1.159499	-0.214747
C123	C	-0.894046	1.409499	0.035253
C124	C	-0.644046	1.659499	0.285253
C125	C	-1.394140	0.464421	-1.019827
C126	C	-1.144140	0.714421	-0.769827
C127	C	-0.894140	0.964421	-0.519827
C128	C	-0.644140	1.214421	-0.269827
C129	C	-1.394122	0.464460	-0.910594
C130	C	-1.144122	0.714460	-0.660594
C131	C	-0.894122	0.964460	-0.410594
C132	C	-0.644122	1.214460	-0.160594
C133	C	-1.394003	0.464623	-0.214110
C134	C	-1.144003	0.714623	0.035890
C135	C	-0.894003	0.964623	0.285890
C136	C	-0.644003	1.214623	0.535890
C137	C	-1.394161	0.464388	-0.106897
C138	C	-1.144161	0.714388	0.143103
C139	C	-0.894161	0.964388	0.393103
C140	C	-0.644161	1.214388	0.643103
