data_functionalizedCrystal
_audit_creation_method	'MofGen! by Chris Wilmer'
_symmetry_space_group_name_H-M	'P1'
_symmetry_Int_Tables_number	1
_symmetry_cell_setting	triclinic
loop_
_symmetry_equiv_pos_as_xyz
  x,y,z
_cell_length_a	17.077404
_cell_length_b	19.805405
_cell_length_c	17.077396
_cell_angle_alpha	89.968350
_cell_angle_beta	89.981638
_cell_angle_gamma	90.024381
loop_
_atom_site_label
_atom_site_type_symbol
_atom_site_fract_x
_atom_site_fract_y
_atom_site_fract_z
Zn1	Zn	1.200035	-0.269500	-0.443802
Zn2	Zn	1.533369	0.063833	-0.110468
Zn3	Zn	1.866702	0.397167	0.222865
Zn4	Zn	1.199934	-0.382693	-0.312528
Zn5	Zn	1.533268	-0.049360	0.020805
Zn6	Zn	1.866601	0.283974	0.354138
Zn7	Zn	1.068767	-0.269519	-0.312552
Zn8	Zn	1.402101	0.063814	0.020781
Zn9	Zn	1.735434	0.397148	0.354115
Zn10	Zn	1.068727	-0.382648	-0.443754
Zn11	Zn	1.402060	-0.049315	-0.110421
Zn12	Zn	1.735394	0.284018	0.222912
O13	O	1.134366	-0.326090	-0.378159
O14	O	1.467699	0.007243	-0.044826
O15	O	1.801033	0.340577	0.288508
O16	O	1.309869	-0.284526	-0.426398
O17	O	1.643202	0.048808	-0.093064
O18	O	1.976536	0.382141	0.240269
O19	O	1.182509	-0.367707	-0.202684
O20	O	1.515843	-0.034374	0.130649
O21	O	1.849176	0.298960	0.463982
O22	O	1.086239	-0.174800	-0.329992
O23	O	1.419573	0.158533	0.003341
O24	O	1.752906	0.491867	0.336674
O25	O	1.309795	-0.367688	-0.329952
O26	O	1.643128	-0.034355	0.003382
O27	O	1.976461	0.298979	0.336715
O28	O	1.182681	-0.174786	-0.426421
O29	O	1.516015	0.158548	-0.093087
O30	O	1.849348	0.491881	0.240246
O31	O	1.086141	-0.284559	-0.202702
O32	O	1.419475	0.048775	0.130631
O33	O	1.752808	0.382108	0.463965
O34	O	0.958915	-0.284515	-0.329947
O35	O	1.292248	0.048818	0.003387
O36	O	1.625582	0.382151	0.336720
O37	O	1.086171	-0.367612	-0.553608
O38	O	1.419504	-0.034279	-0.220274
O39	O	1.752838	0.299055	0.113059
O40	O	0.958886	-0.367631	-0.426340
O41	O	1.292219	-0.034297	-0.093007
O42	O	1.625552	0.299036	0.240326
O43	O	1.182643	-0.284482	-0.553642
O44	O	1.515976	0.048851	-0.220309
O45	O	1.849309	0.382184	0.113024
O46	O	1.182470	-0.477404	-0.329906
O47	O	1.515804	-0.144070	0.003427
O48	O	1.849137	0.189263	0.336761
O49	O	1.086073	-0.477371	-0.426317
O50	O	1.419406	-0.144037	-0.092984
O51	O	1.752740	0.189296	0.240349
C52	C	0.930418	-0.326071	-0.378141
C53	C	1.263751	0.007262	-0.044808
C54	C	1.597085	0.340596	0.288525
C55	C	0.843168	-0.326079	-0.378153
C56	C	1.176502	0.007254	-0.044819
C57	C	1.509835	0.340588	0.288514
C58	C	0.802218	-0.282853	-0.428449
C59	C	1.135551	0.050480	-0.095115
C60	C	1.468884	0.383813	0.238218
C61	C	0.720237	-0.282858	-0.428452
C62	C	1.053570	0.050476	-0.095119
C63	C	1.386904	0.383809	0.238214
C64	C	0.679209	-0.326092	-0.378163
C65	C	1.012542	0.007242	-0.044830
C66	C	1.345876	0.340575	0.288503
C67	C	0.720165	-0.369319	-0.327862
C68	C	1.053499	-0.035986	0.005472
C69	C	1.386832	0.297348	0.338805
C70	C	0.802144	-0.369311	-0.327855
C71	C	1.135478	-0.035978	0.005479
C72	C	1.468811	0.297356	0.338812
C73	C	0.549295	-0.369335	-0.327881
C74	C	0.882629	-0.036001	0.005452
C75	C	1.215962	0.297332	0.338786
C76	C	0.467311	-0.369344	-0.327889
C77	C	0.800644	-0.036011	0.005444
C78	C	1.133977	0.297323	0.338778
C79	C	0.467388	-0.282881	-0.428479
C80	C	0.800721	0.050452	-0.095145
C81	C	1.134055	0.383785	0.238188
C82	C	0.549367	-0.282873	-0.428472
C83	C	0.882700	0.050460	-0.095138
C84	C	1.216034	0.383794	0.238195
C85	C	0.590318	-0.326102	-0.378171
C86	C	0.923651	0.007232	-0.044838
C87	C	1.256985	0.340565	0.288496
C88	C	1.134278	-0.501946	-0.378121
C89	C	1.467611	-0.168613	-0.044788
C90	C	1.800944	0.164721	0.288546
C91	C	1.134312	-0.577178	-0.378131
C92	C	1.467645	-0.243845	-0.044798
C93	C	1.800978	0.089489	0.288536
C94	C	1.184555	-0.612517	-0.327982
C95	C	1.517888	-0.279183	0.005351
C96	C	1.851221	0.054150	0.338684
C97	C	1.184588	-0.683205	-0.328000
C98	C	1.517921	-0.349872	0.005334
C99	C	1.851255	-0.016539	0.338667
C100	C	1.134374	-0.718554	-0.378162
C101	C	1.467707	-0.385220	-0.044829
C102	C	1.801041	-0.051887	0.288504
C103	C	1.084129	-0.683210	-0.428317
C104	C	1.417462	-0.349877	-0.094983
C105	C	1.750795	-0.016543	0.238350
C106	C	1.084100	-0.612523	-0.428303
C107	C	1.417433	-0.279189	-0.094969
C108	C	1.750767	0.054144	0.238364
C109	C	1.084245	-0.968283	-0.428375
C110	C	1.417578	-0.634950	-0.095042
C111	C	1.750911	-0.301616	0.238292
C112	C	1.084276	-1.038975	-0.428383
C113	C	1.417609	-0.705642	-0.095050
C114	C	1.750942	-0.372309	0.238283
C115	C	1.184733	-1.038966	-0.328072
C116	C	1.518066	-0.705632	0.005262
C117	C	1.851399	-0.372299	0.338595
C118	C	1.184704	-0.968278	-0.328058
C119	C	1.518037	-0.634945	0.005276
C120	C	1.851370	-0.301612	0.338609
C121	C	1.134462	-0.932941	-0.378215
C122	C	1.467795	-0.599608	-0.044881
C123	C	1.801129	-0.266274	0.288452
C124	C	1.134427	-0.856293	-0.378196
C125	C	1.467761	-0.522959	-0.044863
C126	C	1.801094	-0.189626	0.288470
C127	C	1.134404	-0.795201	-0.378177
C128	C	1.467737	-0.461867	-0.044844
C129	C	1.801070	-0.128534	0.288489
C130	C	1.339110	-0.326110	-0.378177
C131	C	1.672444	0.007224	-0.044844
C132	C	2.005777	0.340557	0.288489
C133	C	1.426360	-0.326118	-0.378185
C134	C	1.759693	0.007215	-0.044852
C135	C	2.093027	0.340548	0.288482
C136	C	1.134414	-0.326040	-0.582903
C137	C	1.467747	0.007293	-0.249570
C138	C	1.801080	0.340627	0.083763
C139	C	1.134434	-0.326019	-0.670153
C140	C	1.467767	0.007314	-0.336820
C141	C	1.801100	0.340648	-0.003487
C142	C	1.134476	-0.149547	-0.378214
C143	C	1.467809	0.183786	-0.044881
C144	C	1.801143	0.517119	0.288452
C145	C	1.134523	-0.074315	-0.378238
C146	C	1.467856	0.259018	-0.044905
C147	C	1.801190	0.592351	0.288429
C148	C	1.184668	-0.282730	-0.711163
C149	C	1.518002	0.050604	-0.377829
C150	C	1.851335	0.383937	-0.044496
C151	C	1.184678	-0.282707	-0.793143
C152	C	1.518011	0.050626	-0.459810
C153	C	1.851344	0.383959	-0.126477
C154	C	1.134456	-0.325978	-0.834113
C155	C	1.467789	0.007356	-0.500779
C156	C	1.801123	0.340689	-0.167446
C157	C	1.084216	-0.369269	-0.793098
C158	C	1.417549	-0.035936	-0.459764
C159	C	1.750883	0.297398	-0.126431
C160	C	1.084203	-0.369287	-0.711119
C161	C	1.417536	-0.035954	-0.377785
C162	C	1.750870	0.297379	-0.044452
C163	C	1.084247	-0.369228	-0.963968
C164	C	1.417581	-0.035895	-0.630634
C165	C	1.750914	0.297438	-0.297301
C166	C	1.084261	-0.369211	-1.045952
C167	C	1.417594	-0.035877	-0.712619
C168	C	1.750928	0.297456	-0.379286
C169	C	1.184722	-0.282648	-1.045992
C170	C	1.518056	0.050685	-0.712659
C171	C	1.851389	0.384019	-0.379326
C172	C	1.184709	-0.282666	-0.964013
C173	C	1.518043	0.050667	-0.630680
C174	C	1.851376	0.384000	-0.297347
C175	C	1.134470	-0.325959	-0.923004
C176	C	1.467803	0.007375	-0.589671
C177	C	1.801137	0.340708	-0.256337
C178	C	1.134364	-0.326091	-0.174211
C179	C	1.467697	0.007242	0.159122
C180	C	1.801031	0.340576	0.492455
C181	C	1.134496	-0.325921	-0.086962
C182	C	1.467829	0.007412	0.246371
C183	C	1.801162	0.340745	0.579705
H184	H	0.835485	-0.404509	-0.286898
H185	H	1.168819	-0.071176	0.046435
H186	H	1.502152	0.262157	0.379769
Br187	Br	0.605048	-0.224205	-0.496731
Br188	Br	0.938382	0.109128	-0.163397
Br189	Br	1.271715	0.442461	0.169936
Br190	Br	0.857891	-0.224180	-0.496708
Br191	Br	1.191224	0.109153	-0.163374
Br192	Br	1.524557	0.442487	0.169959
H193	H	1.225609	-0.247436	-0.930658
H194	H	1.558942	0.085898	-0.597325
H195	H	1.892275	0.419231	-0.263992
Br196	Br	1.252699	-0.564551	-0.259893
Br197	Br	1.586032	-0.231217	0.073440
Br198	Br	1.919366	0.102116	0.406774
Br199	Br	1.252893	-0.223986	-0.848796
Br200	Br	1.586226	0.109347	-0.515463
Br201	Br	1.919560	0.442680	-0.182130
H202	H	1.043364	-0.404444	-1.079308
H203	H	1.376698	-0.071111	-0.745974
H204	H	1.710031	0.262223	-0.412641
Br205	Br	1.252783	-0.731163	-0.259942
Br206	Br	1.586116	-0.397829	0.073391
Br207	Br	1.919449	-0.064496	0.406724
H208	H	1.043325	-0.404471	-0.930580
H209	H	1.376658	-0.071137	-0.597247
H210	H	1.709992	0.262196	-0.263914
H211	H	1.043188	-0.583751	-0.469140
H212	H	1.376521	-0.250417	-0.135807
H213	H	1.709855	0.082916	0.197527
H214	H	1.043247	-0.711996	-0.469164
H215	H	1.376580	-0.378663	-0.135830
H216	H	1.709914	-0.045330	0.197503
Br217	Br	1.016052	-0.427990	-0.848698
Br218	Br	1.349385	-0.094657	-0.515365
Br219	Br	1.682719	0.238677	-0.182032
H220	H	1.043386	-1.067754	-0.469238
H221	H	1.376719	-0.734421	-0.135905
H222	H	1.710053	-0.401087	0.197429
Br223	Br	1.252852	-0.920309	-0.259976
Br224	Br	1.586186	-0.586976	0.073357
Br225	Br	1.919519	-0.253642	0.406691
H226	H	0.434042	-0.247682	-0.469434
H227	H	0.767375	0.085652	-0.136101
H228	H	1.100709	0.418985	0.197233
Br229	Br	1.016059	-0.920334	-0.496445
Br230	Br	1.349393	-0.587001	-0.163112
Br231	Br	1.682726	-0.253667	0.170221
H232	H	1.225567	-0.247496	-0.677811
H233	H	1.558901	0.085838	-0.344478
H234	H	1.892234	0.419171	-0.011145
Br235	Br	1.252908	-0.223897	-1.101647
Br236	Br	1.586241	0.109437	-0.768313
Br237	Br	1.919574	0.442770	-0.434980
Br238	Br	0.411630	-0.428039	-0.259661
Br239	Br	0.744963	-0.094705	0.073672
Br240	Br	1.078296	0.238628	0.407005
H241	H	1.043289	-0.404531	-0.677730
H242	H	1.376622	-0.071198	-0.344396
H243	H	1.709956	0.262135	-0.011063
Br244	Br	0.604871	-0.428006	-0.259619
Br245	Br	0.938205	-0.094673	0.073714
Br246	Br	1.271538	0.238660	0.407047
Br247	Br	0.664664	-0.224192	-0.496715
Br248	Br	0.997997	0.109141	-0.163381
Br249	Br	1.331330	0.442475	0.169952
H250	H	0.686754	-0.404518	-0.286912
H251	H	1.020087	-0.071184	0.046422
H252	H	1.353420	0.262149	0.379755
H253	H	1.225645	-1.067746	-0.287235
H254	H	1.558978	-0.734413	0.046099
H255	H	1.892312	-0.401079	0.379432
