data_functionalizedCrystal
_audit_creation_method	'MofGen! by Chris Wilmer'
_symmetry_space_group_name_H-M	'P1'
_symmetry_Int_Tables_number	1
_symmetry_cell_setting	triclinic
loop_
_symmetry_equiv_pos_as_xyz
  x,y,z
_cell_length_a	14.971486
_cell_length_b	14.048226
_cell_length_c	14.971486
_cell_angle_alpha	90.003819
_cell_angle_beta	83.614129
_cell_angle_gamma	89.999893
loop_
_atom_site_label
_atom_site_type_symbol
_atom_site_fract_x
_atom_site_fract_y
_atom_site_fract_z
O1	O	1.186945	0.079052	0.116561
O2	O	0.926545	0.079078	0.130520
O3	O	1.063725	0.079057	-0.006660
O4	O	1.049766	0.079072	0.253741
O5	O	1.063712	-0.079264	-0.006661
O6	O	0.926532	-0.079244	0.130519
O7	O	1.186932	-0.079270	0.116560
Zn8	Zn	1.056730	-0.104394	0.123539
Zn9	Zn	1.056747	0.104202	0.123541
O10	O	1.049753	-0.079249	0.253739
C11	C	0.893214	-0.000080	0.129895
C12	C	0.793917	-0.000070	0.128024
C13	C	0.736692	-0.000067	0.208614
C14	C	0.643392	-0.000081	0.206850
C15	C	0.607320	-0.000092	0.124497
C16	C	0.664552	-0.000098	0.043902
C17	C	0.757850	-0.000090	0.045666
C18	C	0.470090	-0.000111	0.040231
C19	C	0.376786	-0.000117	0.038466
C20	C	0.355632	-0.000102	0.201415
C21	C	0.448930	-0.000094	0.203179
C22	C	0.506156	-0.000099	0.122584
N23	N	1.056725	-0.246754	0.123538
C24	C	1.111027	-0.296571	0.177879
C25	C	1.111039	-0.396228	0.177875
C26	C	1.056742	-0.446068	0.123534
C27	C	1.002438	-0.396245	0.069187
C28	C	1.002432	-0.296589	0.069186
C29	C	1.002453	-0.603959	0.069193
C30	C	1.002457	-0.703621	0.069194
C31	C	1.111060	-0.703598	0.177881
C32	C	1.111054	-0.603943	0.177881
C33	C	1.056748	-0.554126	0.123535
C34	C	1.220263	-0.000110	0.117185
C35	C	1.319561	-0.000114	0.119056
C36	C	1.063094	-0.000103	-0.039985
C37	C	1.061223	-0.000102	-0.139282
N38	N	1.056760	0.246562	0.123535
C39	C	1.141812	-0.000111	-0.196507
C40	C	1.140049	-0.000101	-0.289807
C41	C	1.057696	-0.000089	-0.325879
C42	C	0.977101	-0.000078	-0.268646
C43	C	0.978865	-0.000081	-0.175349
C44	C	0.973430	-0.000074	-0.463109
C45	C	0.971665	-0.000073	-0.556413
C46	C	1.134614	-0.000094	-0.577567
C47	C	1.136378	-0.000097	-0.484269
C48	C	1.055782	-0.000088	-0.427043
C49	C	1.050384	-0.000087	0.287065
C50	C	1.052254	-0.000082	0.386362
H51	H	0.516682	-0.000116	-0.025399
H52	H	0.635175	-0.000120	-0.023152
H53	H	0.804443	-0.000093	-0.019958
H54	H	0.913240	-0.000074	-0.128756
H55	H	1.155236	-0.255998	0.222135
H56	H	1.203437	-0.000114	-0.454903
H57	H	0.958232	-0.563401	0.024937
Cl58	Cl	0.868134	-0.000059	-0.601760
H59	H	0.958243	-0.744198	0.024946
Cl60	Cl	0.331439	-0.000162	-0.065065
H61	H	1.155259	-0.436784	0.222123
Cl62	Cl	0.934180	-0.458900	0.000870
H63	H	0.907800	-0.000064	-0.416517
H64	H	0.910047	-0.000062	-0.298024
H65	H	1.155262	-0.563366	0.222134
Cl66	Cl	1.179334	-0.766224	0.246199
Cl67	Cl	0.571455	-0.000071	0.308168
Cl68	Cl	0.934172	-0.233962	0.000859
Cl69	Cl	1.245348	-0.000135	-0.151169
H70	H	1.205673	-0.000110	-0.336396
H71	H	0.478296	-0.000077	0.270239
H72	H	0.766054	-0.000057	0.275675
Cl73	Cl	0.283691	-0.000099	0.302736
H74	H	1.200238	-0.000099	-0.624165
