data_functionalizedCrystal
_audit_creation_method	'MofGen! by Chris Wilmer'
_symmetry_space_group_name_H-M	'P1'
_symmetry_Int_Tables_number	1
_symmetry_cell_setting	triclinic
loop_
_symmetry_equiv_pos_as_xyz
  x,y,z
_cell_length_a	16.109301
_cell_length_b	10.868271
_cell_length_c	16.109301
_cell_angle_alpha	90.002838
_cell_angle_beta	83.461481
_cell_angle_gamma	90.001623
loop_
_atom_site_label
_atom_site_type_symbol
_atom_site_fract_x
_atom_site_fract_y
_atom_site_fract_z
O1	O	1.103132	0.102248	0.106863
O2	O	1.603132	0.602248	0.606863
O3	O	0.861070	0.102268	0.120162
O4	O	1.361070	0.602268	0.620162
O5	O	0.988751	0.102245	-0.007518
O6	O	1.488751	0.602245	0.492482
O7	O	0.975451	0.102271	0.234544
O8	O	1.475451	0.602271	0.734544
O9	O	0.988739	-0.102399	-0.007514
O10	O	1.488739	0.397601	0.492486
O11	O	0.861059	-0.102376	0.120167
O12	O	1.361059	0.397624	0.620167
O13	O	1.103121	-0.102396	0.106867
O14	O	1.603121	0.397604	0.606867
Zn15	Zn	0.982088	-0.134878	0.113518
Zn16	Zn	1.482088	0.365122	0.613518
Zn17	Zn	0.982103	0.134750	0.113512
Zn18	Zn	1.482103	0.634750	0.613512
O19	O	0.975440	-0.102373	0.234548
O20	O	1.475440	0.397627	0.734548
C21	C	0.830090	-0.000051	0.119626
C22	C	1.330090	0.499949	0.619626
C23	C	0.737794	-0.000044	0.118011
C24	C	1.237794	0.499956	0.618011
C25	C	0.515522	-0.000051	0.190018
C26	C	1.015522	0.499949	0.690018
C27	C	0.428801	-0.000059	0.188494
C28	C	0.928801	0.499941	0.688494
C29	C	0.448676	-0.000070	0.037006
C30	C	0.948676	0.499930	0.537006
C31	C	0.535394	-0.000071	0.038530
C32	C	1.035394	0.499929	0.538530
C33	C	0.568815	-0.000055	0.115039
C34	C	1.068815	0.499945	0.615039
C35	C	0.395376	-0.000062	0.111990
C36	C	0.895376	0.499938	0.611990
C37	C	0.301350	-0.000071	0.110337
C38	C	0.801350	0.499929	0.610337
C39	C	0.662847	-0.000048	0.116693
C40	C	1.162847	0.499952	0.616693
N41	N	0.982083	-0.318892	0.113521
N42	N	1.482083	0.181108	0.613521
C43	C	0.982090	-0.430230	0.113521
C44	C	1.482090	0.069770	0.613521
C45	C	0.982101	-0.569907	0.113513
C46	C	1.482101	-0.069907	0.613513
C47	C	1.134101	-0.000074	0.107404
C48	C	1.634101	0.499926	0.607404
C49	C	1.226397	-0.000073	0.109019
C50	C	1.726397	0.499927	0.609019
C51	C	0.988206	-0.000078	-0.038491
C52	C	1.488206	0.499922	0.461509
C53	C	0.986591	-0.000079	-0.130786
C54	C	1.486591	0.499921	0.369214
N55	N	0.982114	0.318764	0.113502
N56	N	1.482114	0.818764	0.613502
C57	C	1.058599	-0.000066	-0.353059
C58	C	1.558599	0.499934	0.146941
C59	C	1.057075	-0.000055	-0.439779
C60	C	1.557075	0.499945	0.060221
C61	C	0.905586	-0.000048	-0.419905
C62	C	1.405586	0.499952	0.080095
C63	C	0.907111	-0.000049	-0.333186
C64	C	1.407111	0.499951	0.166814
C65	C	0.983620	-0.000064	-0.299766
C66	C	1.483620	0.499936	0.200234
C67	C	0.980571	-0.000053	-0.473205
C68	C	1.480571	0.499947	0.026795
C69	C	0.978918	-0.000042	-0.567231
C70	C	1.478918	0.499958	-0.067231
C71	C	0.985273	-0.000073	-0.205734
C72	C	1.485273	0.499927	0.294266
C73	C	0.975984	-0.000048	0.265521
C74	C	1.475984	0.499952	0.765521
C75	C	0.977600	-0.000038	0.357816
C76	C	1.477600	0.499962	0.857816
H77	H	0.578788	-0.000078	-0.022530
H78	H	1.078788	0.499922	0.477470
N79	N	1.136755	-0.000085	-0.318933
N80	N	1.636755	0.499915	0.181067
N81	N	1.203694	-0.000087	-0.366530
N82	N	1.703694	0.499913	0.133470
H83	H	1.258895	-0.000100	-0.342433
H84	H	1.758895	0.499900	0.157567
N85	N	1.133665	-0.000091	-0.494215
N86	N	1.633665	0.499909	0.005785
N87	N	1.149709	-0.086358	-0.544823
N88	N	1.649709	0.413642	-0.044823
H89	H	1.203805	-0.086385	-0.583268
H90	H	1.703805	0.413615	-0.083268
N91	N	0.827445	-0.000030	-0.454059
N92	N	1.327445	0.499970	0.045941
N93	N	0.826093	-0.000029	-0.531487
N94	N	1.326093	0.499971	-0.031487
H95	H	0.770904	-0.000018	-0.555608
H96	H	1.270904	0.499982	-0.055608
N97	N	0.830509	-0.000035	-0.278754
N98	N	1.330509	0.499965	0.221246
N99	N	0.762205	-0.000028	-0.308602
N100	N	1.262205	0.499972	0.191398
H101	H	0.708107	-0.000012	-0.270160
H102	H	1.208107	0.499988	0.229840
H103	H	0.542730	-0.000047	0.252317
H104	H	1.042730	0.499953	0.752317
H105	H	0.385413	-0.000058	0.249550
H106	H	0.885413	0.499942	0.749550
H107	H	0.421454	-0.000090	-0.025285
H108	H	0.921454	0.499910	0.474715
