data_functionalizedCrystal
_audit_creation_method	'MofGen! by Chris Wilmer'
_symmetry_space_group_name_H-M	'P1'
_symmetry_Int_Tables_number	1
_symmetry_cell_setting	triclinic
loop_
_symmetry_equiv_pos_as_xyz
  x,y,z
_cell_length_a	21.295419
_cell_length_b	13.033768
_cell_length_c	13.032268
_cell_angle_alpha	90.872267
_cell_angle_beta	82.839550
_cell_angle_gamma	97.156335
loop_
_atom_site_label
_atom_site_type_symbol
_atom_site_fract_x
_atom_site_fract_y
_atom_site_fract_z
Zn1	Zn	0.958814	0.482834	0.529634
Zn2	Zn	0.985075	0.632983	0.335854
Zn3	Zn	0.865042	0.461083	0.357667
Zn4	Zn	0.868369	0.654792	0.507775
O5	O	0.919325	0.557923	0.432732
O6	O	1.050384	0.502727	0.503948
O7	O	0.978751	0.591950	0.194829
O8	O	0.865099	0.320062	0.398756
O9	O	1.069678	0.613041	0.361578
O10	O	0.933993	0.336042	0.525099
O11	O	0.890563	0.465655	0.210855
O12	O	0.777397	0.486803	0.377560
O13	O	0.870769	0.650212	0.654593
O14	O	0.779842	0.629120	0.487843
O15	O	0.937219	0.523875	0.670652
O16	O	0.981977	0.779782	0.340382
O17	O	0.896233	0.795805	0.466692
C18	C	0.755780	0.557969	0.432697
C19	C	0.685815	0.558016	0.432703
C20	C	0.642927	0.500696	0.506923
C21	C	0.577182	0.500669	0.506931
C22	C	0.554328	0.557981	0.432727
C23	C	0.597225	0.615304	0.358494
C24	C	0.662968	0.615322	0.358482
N25	N	0.459364	0.646942	0.413288
N26	N	0.396910	0.646924	0.413306
C27	C	0.356247	0.557931	0.432756
N28	N	0.380396	0.468958	0.452209
N29	N	0.442856	0.468979	0.452197
C30	C	0.483041	0.557969	0.432731
C31	C	0.242070	0.500577	0.506988
C32	C	0.176324	0.500547	0.506989
C33	C	0.196369	0.615192	0.358556
C34	C	0.262113	0.615212	0.358551
C35	C	0.284960	0.557906	0.432773
C36	C	0.942331	0.825110	0.398821
C37	C	0.952228	0.939418	0.384347
C38	C	0.901435	0.591902	0.700982
C39	C	0.893812	0.606382	0.815294
C40	C	1.083509	0.557878	0.432768
C41	C	1.153475	0.557859	0.432783
C42	C	0.924412	1.116478	0.425371
C43	C	0.914186	0.998336	0.440338
C44	C	0.896236	1.289697	0.466808
C45	C	0.886375	1.175398	0.481354
C46	C	0.937175	0.524002	0.165535
C47	C	0.944896	0.509232	0.051261
C48	C	0.923291	0.550329	0.874204
C49	C	0.915412	0.565293	0.992352
H50	H	0.661523	0.454032	0.567360
N51	N	0.876436	0.639410	1.038790
N52	N	0.889563	0.732803	1.014825
H53	H	0.862036	0.785148	1.047621
N54	N	0.265401	0.442031	0.582801
N55	N	0.227097	0.390842	0.649058
H56	H	0.243572	0.349491	0.702600
H57	H	0.975965	0.450154	1.014234
N58	N	1.002592	0.985847	0.310331
N59	N	1.059181	0.974704	0.318760
H60	H	1.094751	1.007496	0.266489
N61	N	0.854828	0.680472	0.861759
N62	N	0.848481	0.692519	0.957669
H63	H	0.820947	0.744846	0.990484
H64	H	0.578613	0.661968	0.298076
N65	N	0.533366	0.442146	0.582775
N66	N	0.534995	0.461172	0.676770
H67	H	0.504050	0.419851	0.730341
N68	N	0.706773	0.673877	0.282654
N69	N	0.686363	0.725039	0.216398
H70	H	0.717301	0.766396	0.162843
N71	N	0.132520	0.441968	0.582800
N72	N	0.152931	0.390803	0.649052
H73	H	0.121995	0.349426	0.702593
N74	N	0.305935	0.673760	0.282744
N75	N	0.343865	0.629190	0.221869
H76	H	0.374815	0.670538	0.168324
N77	N	0.863839	0.951895	0.514377
N78	N	0.876426	0.900176	0.587492
H79	H	0.840871	0.867375	0.639783
H80	H	0.177762	0.661857	0.298138
H81	H	0.964546	1.153498	0.366357
H82	H	0.846237	1.138378	0.540360
N83	N	0.962263	0.476223	0.827742
N84	N	0.968605	0.464168	0.731833
H85	H	0.996130	0.411828	0.699019
