data_functionalizedCrystal
_audit_creation_method	'MofGen! by Chris Wilmer'
_symmetry_space_group_name_H-M	'P1'
_symmetry_Int_Tables_number	1
_symmetry_cell_setting	triclinic
loop_
_symmetry_equiv_pos_as_xyz
  x,y,z
_cell_length_a	11.792254
_cell_length_b	11.792241
_cell_length_c	9.482900
_cell_angle_alpha	99.398500
_cell_angle_beta	80.645607
_cell_angle_gamma	84.196007
loop_
_atom_site_label
_atom_site_type_symbol
_atom_site_fract_x
_atom_site_fract_y
_atom_site_fract_z
O1	O	1.524481	0.137975	-0.120894
O2	O	1.857814	0.471308	0.212439
O3	O	2.191148	0.804641	0.545772
O4	O	1.194142	0.153992	-0.120898
O5	O	1.527476	0.487325	0.212436
O6	O	1.860809	0.820659	0.545769
O7	O	1.367326	-0.019185	-0.120886
O8	O	1.700660	0.314148	0.212448
O9	O	2.033993	0.647481	0.545781
O10	O	1.351297	0.311152	-0.120906
O11	O	1.684630	0.644485	0.212427
O12	O	2.017963	0.977819	0.545760
O13	O	1.332150	0.016133	0.120904
O14	O	1.665483	0.349466	0.454238
O15	O	1.998816	0.682800	0.787571
O16	O	1.158965	0.189310	0.120892
O17	O	1.492299	0.522644	0.454226
O18	O	1.825632	0.855977	0.787559
O19	O	1.489304	0.173293	0.120896
O20	O	1.822637	0.506626	0.454229
O21	O	2.155971	0.839959	0.787562
Cu22	Cu	1.320923	0.184526	0.142971
Cu23	Cu	1.654256	0.517860	0.476305
Cu24	Cu	1.987590	0.851193	0.809638
Cu25	Cu	1.362524	0.142758	-0.142973
Cu26	Cu	1.695857	0.476092	0.190360
Cu27	Cu	2.029190	0.809425	0.523693
O28	O	1.316120	0.346470	0.120884
O29	O	1.649453	0.679804	0.454217
O30	O	1.982787	1.013137	0.787550
C31	C	1.134263	0.170642	-0.000003
C32	C	1.467597	0.503975	0.333330
C33	C	1.800930	0.837309	0.666664
C34	C	1.008250	0.167622	-0.000004
C35	C	1.341584	0.500955	0.333329
C36	C	1.674917	0.834288	0.666663
C37	C	0.905915	0.165167	-0.000010
C38	C	1.239248	0.498500	0.333323
C39	C	1.572581	0.831834	0.666657
C40	C	0.777528	0.162098	-0.000011
C41	C	1.110861	0.495432	0.333323
C42	C	1.444195	0.828765	0.666656
C43	C	1.348731	-0.043817	0.000009
C44	C	1.682064	0.289516	0.333342
C45	C	2.015398	0.622849	0.666676
C46	C	1.345717	-0.169831	0.000007
C47	C	1.679050	0.163502	0.333341
C48	C	2.012384	0.496835	0.666674
C49	C	1.340178	-0.400547	-0.000017
C50	C	1.673511	-0.067214	0.333316
C51	C	2.006844	0.266119	0.666650
C52	C	1.343255	-0.272160	-0.000004
C53	C	1.676589	0.061173	0.333330
C54	C	2.009922	0.394507	0.666663
C55	C	1.549184	0.156642	-0.000002
C56	C	1.882517	0.489976	0.333331
C57	C	2.215850	0.823309	0.666664
C58	C	1.675198	0.159661	-0.000011
C59	C	2.008531	0.492995	0.333323
C60	C	2.341865	0.826328	0.666656
C61	C	1.334716	0.371102	-0.000014
C62	C	1.668049	0.704435	0.333319
C63	C	2.001382	1.037768	0.666653
C64	C	1.337731	0.497114	-0.000022
C65	C	1.671065	0.830448	0.333311
C66	C	2.004398	1.163781	0.666645
N67	N	1.291672	0.213903	0.344090
N68	N	1.625005	0.547236	0.677423
N69	N	1.958338	0.880570	1.010756
N70	N	1.391784	0.113373	-0.344091
N71	N	1.725117	0.446706	-0.010758
N72	N	2.058450	0.780039	0.322575
C73	C	1.353888	0.151417	0.416293
C74	C	1.687221	0.484751	0.749626
C75	C	2.020554	0.818084	1.082960
C76	C	1.329558	0.175868	0.583709
C77	C	1.662892	0.509201	0.917042
C78	C	1.996225	0.842535	1.250375
H79	H	1.425161	0.079814	0.354170
H80	H	1.758495	0.413148	0.687503
H81	H	2.091828	0.746481	1.020837
H82	H	1.258272	0.247467	0.645828
H83	H	1.591606	0.580800	0.979162
H84	H	1.924939	0.914133	1.312495
H85	H	1.463062	0.041766	0.593789
H86	H	1.796395	0.375099	0.927122
H87	H	2.129728	0.708432	1.260456
H88	H	1.220390	0.285497	0.406215
H89	H	1.553723	0.618830	0.739548
H90	H	1.887057	0.952164	1.072881
