data_functionalizedCrystal
_audit_creation_method	'MofGen! by Chris Wilmer'
_symmetry_space_group_name_H-M	'P1'
_symmetry_Int_Tables_number	1
_symmetry_cell_setting	triclinic
loop_
_symmetry_equiv_pos_as_xyz
  x,y,z
_cell_length_a	13.897449
_cell_length_b	13.897448
_cell_length_c	15.298259
_cell_angle_alpha	80.288631
_cell_angle_beta	99.657443
_cell_angle_gamma	90.018519
loop_
_atom_site_label
_atom_site_type_symbol
_atom_site_fract_x
_atom_site_fract_y
_atom_site_fract_z
Zn1	Zn	1.380304	-0.289557	-0.510146
Zn2	Zn	1.408113	-0.478796	-0.359287
Zn3	Zn	1.246906	-0.317517	-0.359296
Zn4	Zn	1.218984	-0.450823	-0.510096
O5	O	1.313577	-0.384173	-0.434706
O6	O	1.518971	-0.314665	-0.490152
O7	O	1.410053	-0.480810	-0.233043
O8	O	1.264649	-0.178822	-0.379331
O9	O	1.539402	-0.453698	-0.379316
O10	O	1.362656	-0.158280	-0.490160
O11	O	1.291615	-0.362319	-0.233050
O12	O	1.108224	-0.335195	-0.379283
O13	O	1.217059	-0.406022	-0.636348
O14	O	1.087709	-0.433135	-0.490075
O15	O	1.335580	-0.287541	-0.636385
O16	O	1.382977	-0.610071	-0.379268
O17	O	1.244025	-0.589520	-0.490066
C18	C	1.062968	-0.384164	-0.434675
C19	C	0.955753	-0.384180	-0.434683
C20	C	0.868680	-0.384180	-0.434698
C21	C	0.759443	-0.384182	-0.434725
C22	C	1.313511	-0.634792	-0.434680
C23	C	1.313566	-0.742003	-0.434699
C24	C	1.313657	-0.938287	-0.434756
C25	C	1.313603	-0.829060	-0.434727
C26	C	1.565164	-0.384183	-0.434739
C27	C	1.672375	-0.384187	-0.434752
C28	C	1.270103	-0.340542	-0.670016
C29	C	1.251577	-0.321950	-0.770290
C30	C	1.313665	-0.132572	-0.434752
C31	C	1.313703	-0.025354	-0.434772
C32	C	1.446016	-0.516316	-1.052927
C33	C	1.463417	-0.533791	-0.958714
C34	C	1.410459	-0.480832	-0.911603
C35	C	1.340096	-0.410395	-0.958715
C36	C	1.322688	-0.392924	-1.052937
C37	C	1.287131	-0.357440	-0.911614
C38	C	1.216767	-0.287003	-0.958726
C39	C	1.199363	-0.269535	-1.052939
C40	C	1.252321	-0.322494	-1.100049
C41	C	1.304539	-0.374911	-0.817392
C42	C	1.181210	-0.251519	-0.817402
C43	C	1.163809	-0.234044	-0.911615
C44	C	1.356937	-0.427565	-0.200313
C45	C	1.375650	-0.445886	-0.100039
H46	H	1.361835	-0.432256	-0.779042
O47	O	1.427361	-0.497978	-0.820085
C48	C	1.427470	-0.615505	-0.684856
C49	C	1.408307	-0.596228	-0.788504
H50	H	1.412053	-0.694932	-0.659291
H51	H	1.506914	-0.600313	-0.659244
H52	H	1.377560	-0.565509	-0.659302
H53	H	1.458156	-0.646210	-0.814135
H54	H	1.328840	-0.611388	-0.814055
H55	H	1.520698	-0.591150	-0.920362
O56	O	1.497390	-0.567643	-1.098828
C57	C	1.525164	-0.595463	-1.243978
C58	C	1.466929	-0.537241	-1.192106
H59	H	1.500544	-0.570920	-1.319402
H60	H	1.606382	-0.581958	-1.225542
H61	H	1.511633	-0.676676	-1.225380
H62	H	1.480379	-0.456010	-1.210676
H63	H	1.385731	-0.550829	-1.210546
O64	O	1.095345	-0.165760	-0.957424
C65	C	0.945508	-0.133044	-1.063834
C66	C	1.022958	-0.210477	-1.011996
H67	H	0.886974	-0.169165	-1.107982
H68	H	0.910564	-0.098200	-1.014028
H69	H	0.981693	-0.074420	-1.107918
H70	H	0.986848	-0.269160	-0.967911
H71	H	1.057897	-0.245245	-1.061851
H72	H	1.138086	-0.208396	-0.779045
H73	H	1.238159	-0.308267	-1.176765
H74	H	1.142060	-0.212189	-1.091295
