data_functionalizedCrystal
_audit_creation_method	'MofGen! by Chris Wilmer'
_symmetry_space_group_name_H-M	'P1'
_symmetry_Int_Tables_number	1
_symmetry_cell_setting	triclinic
loop_
_symmetry_equiv_pos_as_xyz
  x,y,z
_cell_length_a	15.995350
_cell_length_b	27.732048
_cell_length_c	15.072220
_cell_angle_alpha	89.993868
_cell_angle_beta	89.991149
_cell_angle_gamma	83.067515
loop_
_atom_site_label
_atom_site_type_symbol
_atom_site_fract_x
_atom_site_fract_y
_atom_site_fract_z
O1	O	1.110190	0.062301	-0.073717
O2	O	0.866315	0.069995	-0.073737
O3	O	0.995827	-0.004216	-0.073709
O4	O	0.980678	0.136512	-0.073744
O5	O	0.995795	-0.004212	0.073856
O6	O	0.866283	0.069999	0.073828
O7	O	1.110158	0.062305	0.073848
Zn8	Zn	0.988215	0.066153	0.097267
Zn9	Zn	0.988257	0.066148	-0.097156
O10	O	0.980646	0.136516	0.073821
C11	C	0.835108	0.069679	0.000044
C12	C	0.742170	0.068726	0.000037
C13	C	0.404467	0.065301	0.000056
C14	C	0.452585	0.012449	0.000399
C15	C	0.549263	0.013403	0.000060
C16	C	0.572006	0.067000	0.000047
C17	C	0.530599	0.093065	-0.084223
C18	C	0.433981	0.091738	-0.084287
C19	C	0.433592	0.092834	0.083522
C20	C	0.530537	0.092822	0.084630
C21	C	0.666691	0.067962	0.000039
C22	C	0.309782	0.064340	0.000058
C23	C	0.995493	-0.022222	0.000076
C24	C	0.994535	-0.075881	0.000083
C25	C	1.065040	-0.414392	0.000043
C26	C	1.061487	-0.616067	0.000030
O27	O	1.125959	-0.647045	-0.000004
N28	N	0.984692	-0.635522	0.000025
C29	C	0.908780	-0.604555	0.000017
O30	O	0.843380	-0.625730	0.000003
C31	C	0.912334	-0.402881	0.000023
C32	C	0.989134	-0.383429	0.000037
C33	C	1.141834	-0.394940	0.000056
C34	C	1.142721	-0.344524	0.000064
C35	C	1.066815	-0.313561	0.000059
C36	C	0.990021	-0.333013	0.000045
C37	C	0.836422	-0.371914	0.000009
C38	C	0.837317	-0.321493	0.000008
C39	C	0.914117	-0.302041	0.000023
C40	C	0.915002	-0.251634	0.000048
N41	N	0.991797	-0.232179	0.000053
C42	C	1.067703	-0.263142	0.000059
C43	C	0.906920	-0.710437	0.000015
C44	C	0.906031	-0.760855	0.000015
C45	C	1.058739	-0.772364	0.000027
C46	C	1.059627	-0.721945	0.000033
C47	C	0.983715	-0.690982	0.000021
C48	C	1.069561	-0.157265	0.000076
C49	C	1.070442	-0.106844	0.000088
C50	C	0.917734	-0.095340	0.000072
C51	C	0.916853	-0.145756	0.000065
C52	C	0.992773	-0.176718	0.000064
O53	O	0.850565	-0.220628	0.000072
O54	O	1.133094	-0.241958	0.000053
C55	C	1.064153	-0.464808	0.000035
C56	C	0.987359	-0.484260	0.000022
C57	C	0.911452	-0.453297	0.000016
C58	C	0.986470	-0.534679	0.000022
C59	C	1.062377	-0.565642	0.000027
C60	C	1.139172	-0.546187	0.000032
C61	C	1.140059	-0.495771	0.000040
C62	C	0.834657	-0.472752	0.000011
C63	C	0.833776	-0.523168	0.000004
C64	C	0.909683	-0.554132	0.000009
C65	C	1.141364	0.062621	0.000066
C66	C	1.234302	0.063575	0.000066
C67	C	0.980980	0.154523	0.000034
C68	C	0.981938	0.208182	0.000021
N69	N	0.988193	0.066156	0.229956
N70	N	0.988287	0.066140	-0.229845
C71	C	0.988256	0.066146	0.589158
C72	C	0.918727	0.105721	0.551536
C73	C	0.918884	0.105866	0.448710
C74	C	0.988224	0.066151	0.410954
C75	C	1.075446	0.077167	0.448249
C76	C	1.075056	0.077448	0.551106
C77	C	0.971342	0.015437	0.551269
C78	C	0.969333	0.015775	0.448405
C79	C	0.988211	0.066153	0.310240
C80	C	0.988274	0.066145	0.689871
H81	H	1.132984	-0.091010	0.000102
H82	H	0.853661	0.099266	0.576294
N83	N	1.145574	0.040704	0.584080
H84	H	1.176780	0.024399	0.531795
H85	H	1.185699	0.057678	0.621222
N86	N	0.933110	0.155708	0.416088
H87	H	0.933270	0.156010	0.349080
H88	H	0.886512	0.180489	0.438670
H89	H	0.559222	0.074958	-0.146929
H90	H	1.090825	0.113727	0.422472
N91	N	0.888958	0.001410	0.585663
H92	H	0.861763	0.027788	0.626161
H93	H	0.850231	-0.002870	0.534087
N94	N	0.428382	-0.015537	0.080440
H95	H	0.459957	-0.049345	0.079373
H96	H	0.443154	0.001718	0.136258
H97	H	0.905175	0.007416	0.424030
H98	H	1.205260	-0.328691	0.000072
N99	N	0.586532	-0.013920	-0.080092
H100	H	0.616083	0.008613	-0.118497
H101	H	0.628295	-0.042049	-0.060076
N102	N	0.406674	0.069952	0.168134
H103	H	0.375322	0.041503	0.153215
H104	H	0.458078	0.058310	0.204699
N105	N	1.038502	-0.023581	0.583492
H106	H	1.095525	-0.016038	0.562676
H107	H	1.037598	-0.024750	0.650455
H108	H	0.558086	0.073794	0.146972
H109	H	0.843493	-0.776688	0.000019
H110	H	1.203650	-0.420146	0.000057
N111	N	0.750931	-0.544139	-0.000012
H112	H	0.747169	-0.564794	-0.054720
H113	H	0.747183	-0.564782	0.054721
N114	N	0.587272	-0.013743	0.080063
H115	H	0.617063	0.008892	0.117983
H116	H	0.541189	-0.026437	0.115809
N117	N	1.142459	-0.700966	0.000049
H118	H	1.190407	-0.728236	0.000055
H119	H	1.146172	-0.680297	-0.054655
N120	N	0.752783	-0.439359	0.000004
H121	H	0.704005	-0.459339	-0.000000
H122	H	0.749811	-0.418196	0.054713
H123	H	0.401326	0.131802	0.084083
H124	H	1.090060	0.114429	0.575080
H125	H	0.415932	0.072726	-0.147272
N126	N	0.426993	-0.015418	-0.079177
H127	H	0.384366	0.006044	-0.115448
H128	H	0.478233	-0.025965	-0.116748
N129	N	0.832973	0.097177	0.415314
H130	H	0.789351	0.123748	0.437754
H131	H	0.832981	0.097245	0.348306
N132	N	1.140611	-0.805765	0.000035
H133	H	1.128387	-0.840655	0.000033
H134	H	1.174117	-0.799465	-0.054670
H135	H	1.128393	0.049109	0.423790
H136	H	0.929308	0.143139	0.577366
H137	H	0.545395	0.131906	0.089710
H138	H	1.016735	-0.015055	0.422708
H139	H	0.401231	0.130541	-0.088120
H140	H	0.845100	-0.685230	0.000005
H141	H	1.131383	-0.182469	0.000072
H142	H	0.544216	0.132441	-0.087365
H143	H	0.773883	-0.387743	-0.000008
N144	N	0.755439	-0.288098	-0.000010
H145	H	0.706658	-0.308075	-0.000019
H146	H	0.752463	-0.266932	0.054696
H147	H	0.854317	-0.161595	0.000078
N148	N	0.835867	-0.061939	0.000090
H149	H	0.848090	-0.027049	0.000100
H150	H	0.802371	-0.068228	-0.054614
H151	H	1.202598	-0.479938	0.000051
H152	H	1.200977	-0.571406	0.000040
