data_functionalizedCrystal
_audit_creation_method	'MofGen! by Chris Wilmer'
_symmetry_space_group_name_H-M	'P1'
_symmetry_Int_Tables_number	1
_symmetry_cell_setting	triclinic
loop_
_symmetry_equiv_pos_as_xyz
  x,y,z
_cell_length_a	10.908937
_cell_length_b	11.792254
_cell_length_c	10.065908
_cell_angle_alpha	98.850436
_cell_angle_beta	83.441031
_cell_angle_gamma	72.142277
loop_
_atom_site_label
_atom_site_type_symbol
_atom_site_fract_x
_atom_site_fract_y
_atom_site_fract_z
O1	O	1.721265	-0.195259	-0.113531
O2	O	1.348025	-0.106749	-0.113526
O3	O	1.543693	-0.317929	-0.113519
O4	O	1.525598	0.015921	-0.113538
O5	O	1.506380	-0.277524	0.113468
O6	O	1.310712	-0.066344	0.113462
O7	O	1.683953	-0.154854	0.113456
Zn8	Zn	1.491408	-0.104184	0.149498
Zn9	Zn	1.540569	-0.157419	-0.149568
O10	O	1.488285	0.056326	0.113449
C11	C	1.281585	-0.078275	-0.000031
C12	C	1.139206	-0.053642	-0.000029
C13	C	0.942416	-0.118080	-0.000050
C14	C	1.089569	-0.143538	-0.000032
C15	C	1.523896	-0.339796	-0.000026
C16	C	1.520484	-0.465147	-0.000027
C17	C	1.517712	-0.566946	-0.000032
C18	C	1.514247	-0.694661	-0.000044
C19	C	1.750393	-0.183329	-0.000041
C20	C	1.892773	-0.207964	-0.000052
C21	C	1.508082	0.078192	-0.000047
C22	C	1.511495	0.203541	-0.000055
N23	N	1.457867	-0.067855	0.353602
C24	C	1.528886	-0.144779	0.421384
C25	C	1.503081	-0.116813	0.578550
N26	N	1.574111	-0.193748	0.646328
H27	H	0.959216	-0.303766	-0.000049
H28	H	1.423165	-0.030248	0.636868
Cl29	Cl	1.697765	-0.327215	0.556300
Cl30	Cl	0.839848	0.029832	-0.000082
Cl31	Cl	1.334487	0.065790	0.443640
H32	H	1.608788	-0.231346	0.363062
H33	H	1.072771	0.042165	-0.000044
Cl34	Cl	1.192137	-0.291461	-0.000024
