data_functionalizedCrystal
_audit_creation_method	'MofGen! by Chris Wilmer'
_symmetry_space_group_name_H-M	'P1'
_symmetry_Int_Tables_number	1
_symmetry_cell_setting	triclinic
loop_
_symmetry_equiv_pos_as_xyz
  x,y,z
_cell_length_a	19.121275
_cell_length_b	19.120786
_cell_length_c	18.101389
_cell_angle_alpha	87.539356
_cell_angle_beta	92.422663
_cell_angle_gamma	90.130801
loop_
_atom_site_label
_atom_site_type_symbol
_atom_site_fract_x
_atom_site_fract_y
_atom_site_fract_z
Zn1	Zn	1.059818	-0.324891	-0.356395
Zn2	Zn	1.393152	0.008442	-0.023062
Zn3	Zn	1.726485	0.341776	0.310271
Zn4	Zn	1.054731	-0.442115	-0.227504
Zn5	Zn	1.388064	-0.108782	0.105829
Zn6	Zn	1.721397	0.224551	0.439162
Zn7	Zn	0.942587	-0.319895	-0.238070
Zn8	Zn	1.275920	0.013439	0.095263
Zn9	Zn	1.609253	0.346772	0.428596
Zn10	Zn	0.937552	-0.437099	-0.356805
Zn11	Zn	1.270885	-0.103765	-0.023472
Zn12	Zn	1.604219	0.229568	0.309861
O13	O	0.998672	-0.381000	-0.294694
O14	O	1.332005	-0.047667	0.038640
O15	O	1.665339	0.285667	0.371973
O16	O	1.157245	-0.344631	-0.334704
O17	O	1.490579	-0.011298	-0.001371
O18	O	1.823912	0.322035	0.331963
O19	O	1.039832	-0.425911	-0.125274
O20	O	1.373166	-0.092578	0.208060
O21	O	1.706499	0.240756	0.541393
O22	O	0.962374	-0.222449	-0.258016
O23	O	1.295707	0.110885	0.075317
O24	O	1.629040	0.444218	0.408650
O25	O	1.153507	-0.430756	-0.240009
O26	O	1.486841	-0.097422	0.093325
O27	O	1.820174	0.235911	0.426658
O28	O	1.048504	-0.226119	-0.344949
O29	O	1.381837	0.107214	-0.011616
O30	O	1.715170	0.440547	0.321717
O31	O	0.957441	-0.336116	-0.133036
O32	O	1.290774	-0.002783	0.200297
O33	O	1.624107	0.330550	0.533630
O34	O	0.843817	-0.331252	-0.258414
O35	O	1.177150	0.002082	0.074919
O36	O	1.510484	0.335415	0.408253
O37	O	0.953793	-0.422205	-0.460383
O38	O	1.287126	-0.088872	-0.127050
O39	O	1.620460	0.244461	0.206283
O40	O	0.840118	-0.417361	-0.345648
O41	O	1.173451	-0.084027	-0.012315
O42	O	1.506785	0.249306	0.321018
O43	O	1.043622	-0.339767	-0.460082
O44	O	1.376955	-0.006434	-0.126749
O45	O	1.710288	0.326900	0.206585
O46	O	1.034951	-0.539559	-0.240406
O47	O	1.368284	-0.206225	0.092927
O48	O	1.701617	0.127108	0.426260
O49	O	0.948860	-0.535873	-0.335403
O50	O	1.282193	-0.202540	-0.002070
O51	O	1.615526	0.130794	0.331263
C52	C	0.816531	-0.373220	-0.303223
C53	C	1.149864	-0.039887	0.030111
C54	C	1.483197	0.293446	0.363444
C55	C	0.738609	-0.369909	-0.306888
C56	C	1.071943	-0.036576	0.026445
C57	C	1.405276	0.296758	0.359778
C58	C	0.700056	-0.413121	-0.259240
C59	C	1.033389	-0.079787	0.074093
C60	C	1.366722	0.253546	0.407426
C61	C	0.626840	-0.410010	-0.262694
C62	C	0.960173	-0.076676	0.070639
C63	C	1.293507	0.256657	0.403973
C64	C	0.592180	-0.363683	-0.313793
C65	C	0.925513	-0.030349	0.019540
C66	C	1.258846	0.302984	0.352874
C67	C	0.630738	-0.320469	-0.361446
C68	C	0.964072	0.012864	-0.028113
C69	C	1.297405	0.346197	0.305220
C70	C	0.703952	-0.323584	-0.357995
C71	C	1.037286	0.009749	-0.024662
C72	C	1.370619	0.343082	0.308671
C73	C	0.371218	-0.352041	-0.326686
C74	C	0.704551	-0.018707	0.006648
C75	C	1.037885	0.314626	0.339981
C76	C	0.297999	-0.348927	-0.330132
C77	C	0.631332	-0.015594	0.003202
C78	C	0.964665	0.317740	0.336535
C79	C	0.294105	-0.438469	-0.231380
C80	C	0.627439	-0.105135	0.101953
C81	C	0.960772	0.228198	0.435287
C82	C	0.367321	-0.441577	-0.227931
C83	C	0.700654	-0.108243	0.105403
C84	C	1.033988	0.225090	0.438736
C85	C	0.405873	-0.398366	-0.275586
C86	C	0.739207	-0.065033	0.057747
C87	C	1.072540	0.268301	0.391080
C88	C	0.517342	-0.360500	-0.317323
C89	C	0.850675	-0.027167	0.016010
C90	C	1.184008	0.306167	0.349343
C91	C	0.480710	-0.401553	-0.272059
C92	C	0.814043	-0.068219	0.061274
C93	C	1.147376	0.265114	0.394607
C94	C	0.990826	-0.563155	-0.286818
C95	C	1.324159	-0.229822	0.046515
C96	C	1.657492	0.103511	0.379849
C97	C	0.987533	-0.641085	-0.283471
C98	C	1.320867	-0.307752	0.049863
C99	C	1.654200	0.025582	0.383196
C100	C	1.030796	-0.679546	-0.327199
C101	C	1.364130	-0.346212	0.006134
C102	C	1.697463	-0.012879	0.339468
C103	C	1.027700	-0.752769	-0.324055
C104	C	1.361033	-0.419435	0.009278
C105	C	1.694366	-0.086102	0.342611
C106	C	0.981343	-0.787530	-0.277178
C107	C	1.314677	-0.454196	0.056155
C108	C	1.648010	-0.120863	0.389488
C109	C	0.938076	-0.749064	-0.233448
C110	C	1.271409	-0.415730	0.099885
C111	C	1.604742	-0.082397	0.433219
C112	C	0.941169	-0.675842	-0.236596
C113	C	1.274502	-0.342508	0.096737
C114	C	1.607836	-0.009175	0.430070
C115	C	0.969758	-1.008520	-0.265409
C116	C	1.303092	-0.675186	0.067924
C117	C	1.636425	-0.341853	0.401257
C118	C	0.966670	-1.081747	-0.262263
C119	C	1.300003	-0.748413	0.071071
C120	C	1.633336	-0.415080	0.404404
C121	C	1.056293	-1.085447	-0.352872
C122	C	1.389626	-0.752113	-0.019538
C123	C	1.722960	-0.418780	0.313795
C124	C	1.059385	-1.012223	-0.356012
C125	C	1.392719	-0.678890	-0.022679
C126	C	1.726052	-0.345557	0.310654
C127	C	1.016115	-0.973764	-0.312285
C128	C	1.349448	-0.640430	0.021048
C129	C	1.682782	-0.307097	0.354382
C130	C	0.978179	-0.862375	-0.273962
C131	C	1.311512	-0.529042	0.059372
C132	C	1.644845	-0.195709	0.392705
C133	C	1.019277	-0.898919	-0.315506
C134	C	1.352610	-0.565586	0.017827
C135	C	1.685943	-0.232252	0.351161
C136	C	1.181524	-0.388810	-0.286132
C137	C	1.514858	-0.055477	0.047201
C138	C	1.848191	0.277856	0.380535
C139	C	1.259445	-0.392139	-0.282483
C140	C	1.592778	-0.058806	0.050850
C141	C	1.926112	0.274528	0.384183
C142	C	0.998713	-0.380984	-0.487855
C143	C	1.332046	-0.047651	-0.154521
C144	C	1.665380	0.285683	0.178812
C145	C	0.998731	-0.380977	-0.570168
C146	C	1.332064	-0.047644	-0.236835
C147	C	1.665397	0.285690	0.096498
C148	C	1.006568	-0.198134	-0.302616
C149	C	1.339901	0.135199	0.030718
C150	C	1.673234	0.468533	0.364051
C151	C	1.009933	-0.120207	-0.305991
C152	C	1.343266	0.213126	0.027342
C153	C	1.676599	0.546459	0.360675
C154	C	0.998777	-0.380847	-0.869263
C155	C	1.332111	-0.047514	-0.535930
C156	C	1.665444	0.285819	-0.202597
C157	C	0.942080	-0.432535	-0.838144
C158	C	1.275413	-0.099202	-0.504810
C159	C	1.608747	0.234131	-0.171477
C160	C	0.942216	-0.432792	-0.752508
C161	C	1.275550	-0.099459	-0.419174
C162	C	1.608883	0.233875	-0.085841
C163	C	0.998754	-0.380912	-0.720879
C164	C	1.332087	-0.047578	-0.387545
C165	C	1.665420	0.285755	-0.054212
C166	C	1.071761	-0.404116	-0.747646
C167	C	1.405095	-0.070783	-0.414312
C168	C	1.738428	0.262550	-0.080979
C169	C	1.071443	-0.404458	-0.833290
C170	C	1.404776	-0.071125	-0.499956
C171	C	1.738110	0.262209	-0.166623
C172	C	0.983114	-0.305862	-0.841771
C173	C	1.316447	0.027471	-0.508437
C174	C	1.649781	0.360805	-0.175104
C175	C	0.981452	-0.306221	-0.756179
C176	C	1.314786	0.027113	-0.422845
C177	C	1.648119	0.360446	-0.089512
C178	C	0.998745	-0.380947	-0.637018
C179	C	1.332078	-0.047614	-0.303685
C180	C	1.665411	0.285720	0.029649
C181	C	0.998791	-0.380814	-0.953124
C182	C	1.332124	-0.047481	-0.619790
C183	C	1.665457	0.285853	-0.286457
C184	C	0.998673	-0.380967	-0.102285
C185	C	1.332007	-0.047634	0.231049
C186	C	1.665340	0.285700	0.564382
C187	C	0.998800	-0.380782	-0.019974
C188	C	1.332133	-0.047449	0.313360
C189	C	1.665467	0.285885	0.646693
H190	H	0.735342	-0.288396	-0.396795
H191	H	1.068675	0.044937	-0.063462
H192	H	1.402009	0.378270	0.269872
H193	H	0.402598	-0.316856	-0.365491
H194	H	0.735932	0.016477	-0.032158
H195	H	1.069265	0.349811	0.301175
Cl196	Cl	1.077547	-0.855218	-0.374439
Cl197	Cl	1.410881	-0.521885	-0.041106
Cl198	Cl	1.744214	-0.188552	0.292228
Cl199	Cl	0.473762	-0.302263	-0.381561
Cl200	Cl	0.807096	0.031070	-0.048228
Cl201	Cl	1.140429	0.364403	0.285105
H202	H	0.940437	-0.890686	-0.235792
H203	H	1.273771	-0.557353	0.097541
H204	H	1.607104	-0.224019	0.430874
H205	H	0.395536	-0.479300	-0.186320
H206	H	0.728870	-0.145967	0.147014
H207	H	1.062203	0.187366	0.480347
Cl208	Cl	0.587165	-0.262235	-0.425691
Cl209	Cl	0.920498	0.071099	-0.092357
Cl210	Cl	1.253832	0.404432	0.240976
Cl211	Cl	1.089080	-0.635854	-0.386129
Cl212	Cl	1.422413	-0.302520	-0.052796
Cl213	Cl	1.755746	0.030813	0.280537
Cl214	Cl	0.858479	-0.409807	-0.724844
Cl215	Cl	1.191813	-0.076474	-0.391511
Cl216	Cl	1.525146	0.256859	-0.058178
H217	H	0.262708	-0.473650	-0.192583
H218	H	0.596041	-0.140316	0.140751
H219	H	0.929375	0.193017	0.474084
Cl220	Cl	0.902603	-0.274168	-0.880153
Cl221	Cl	1.235936	0.059165	-0.546819
Cl222	Cl	1.569269	0.392498	-0.213486
H223	H	0.952056	-0.487711	-0.856735
H224	H	1.285389	-0.154377	-0.523401
H225	H	1.618723	0.178956	-0.190068
Cl226	Cl	1.082081	-0.801116	-0.379042
Cl227	Cl	1.415414	-0.467783	-0.045708
Cl228	Cl	1.748748	-0.134449	0.287625
Cl229	Cl	0.743621	-0.471362	-0.194997
Cl230	Cl	1.076955	-0.138028	0.138337
Cl231	Cl	1.410288	0.195305	0.471670
Cl232	Cl	0.886778	-0.627491	-0.181622
Cl233	Cl	1.220111	-0.294157	0.151712
Cl234	Cl	1.553445	0.039176	0.485045
Cl235	Cl	0.858075	-0.409739	-0.874736
Cl236	Cl	1.191408	-0.076406	-0.541402
Cl237	Cl	1.524741	0.256928	-0.208069
Cl238	Cl	0.254427	-0.290679	-0.394371
Cl239	Cl	0.587760	0.042654	-0.061038
Cl240	Cl	0.921093	0.375987	0.272295
Cl241	Cl	0.524284	-0.459792	-0.207825
Cl242	Cl	0.857617	-0.126459	0.125508
Cl243	Cl	1.190951	0.206874	0.458841
Cl244	Cl	1.040953	-0.243215	-0.723329
Cl245	Cl	1.374286	0.090119	-0.389995
Cl246	Cl	1.707620	0.423452	-0.056662
Cl247	Cl	0.879792	-0.792763	-0.174524
Cl248	Cl	1.213125	-0.459430	0.158809
Cl249	Cl	1.546458	-0.126096	0.492143
Cl250	Cl	1.110683	-1.133800	-0.407843
Cl251	Cl	1.444017	-0.800467	-0.074509
Cl252	Cl	1.777350	-0.467133	0.258824
Cl253	Cl	1.117663	-0.968529	-0.414947
Cl254	Cl	1.450997	-0.635196	-0.081614
Cl255	Cl	1.784330	-0.301863	0.251720
Cl256	Cl	0.908391	-1.125445	-0.203324
Cl257	Cl	1.241725	-0.792112	0.130009
Cl258	Cl	1.575058	-0.458779	0.463342
H259	H	0.595453	-0.445197	-0.223894
H260	H	0.928786	-0.111864	0.109440
H261	H	1.262120	0.221470	0.442773
Cl262	Cl	0.915355	-0.960179	-0.210444
Cl263	Cl	1.248688	-0.626846	0.122889
Cl264	Cl	1.582021	-0.293513	0.456222
Cl265	Cl	1.093298	-0.488020	-0.709794
Cl266	Cl	1.426631	-0.154687	-0.376461
Cl267	Cl	1.759964	0.178646	-0.043127
Cl268	Cl	1.046929	-0.246345	-0.872875
Cl269	Cl	1.380263	0.086988	-0.539542
Cl270	Cl	1.713596	0.420321	-0.206209
H271	H	0.952302	-0.488308	-0.729070
H272	H	1.285635	-0.154975	-0.395737
H273	H	1.618968	0.178358	-0.062404
Cl274	Cl	1.092511	-0.489233	-0.859378
Cl275	Cl	1.425844	-0.155899	-0.526045
Cl276	Cl	1.759177	0.177434	-0.192711
H277	H	1.114949	-0.368616	-0.853681
H278	H	1.448283	-0.035282	-0.520348
H279	H	1.781616	0.298051	-0.187015
H280	H	0.927741	-0.288779	-0.739055
H281	H	1.261074	0.044554	-0.405722
H282	H	1.594407	0.377888	-0.072389
Cl283	Cl	1.138525	-0.348034	-0.715750
Cl284	Cl	1.471859	-0.014701	-0.382416
Cl285	Cl	1.805192	0.318633	-0.049083
