data_functionalizedCrystal
_audit_creation_method	'MofGen! by Chris Wilmer'
_symmetry_space_group_name_H-M	'P1'
_symmetry_Int_Tables_number	1
_symmetry_cell_setting	triclinic
loop_
_symmetry_equiv_pos_as_xyz
  x,y,z
_cell_length_a	10.654545
_cell_length_b	8.597304
_cell_length_c	9.130313
_cell_angle_alpha	82.295602
_cell_angle_beta	89.996934
_cell_angle_gamma	84.908900
loop_
_atom_site_label
_atom_site_type_symbol
_atom_site_fract_x
_atom_site_fract_y
_atom_site_fract_z
O1	O	1.669014	0.220431	-0.149595
O2	O	1.303646	0.241443	-0.152252
O3	O	1.493520	0.002548	-0.122099
O4	O	1.479140	0.459326	-0.179748
O5	O	1.493506	0.002541	0.121500
O6	O	1.303633	0.241436	0.091348
O7	O	1.669000	0.220424	0.094005
Cu8	Cu	1.486315	0.230929	0.114919
Cu9	Cu	1.486331	0.230937	-0.173166
O10	O	1.479126	0.459319	0.063852
C11	C	1.256833	0.239898	-0.030258
C12	C	1.117365	0.235286	-0.029679
C13	C	1.051842	0.233112	0.103382
C14	C	0.920799	0.228753	0.103932
C15	C	0.920814	0.228750	-0.161652
C16	C	1.051855	0.233098	-0.162199
C17	C	1.491968	-0.055944	0.007079
C18	C	1.487351	-0.230222	0.029064
C19	C	1.715813	0.221969	-0.027992
C20	C	1.855281	0.226580	-0.028581
C21	C	1.480678	0.517811	-0.065329
C22	C	1.485295	0.692088	-0.087324
N23	N	1.486313	0.230922	0.317542
N24	N	1.486343	0.230932	-0.375788
C25	C	1.570419	0.125184	0.407540
C26	C	1.570431	0.125185	0.560877
C27	C	1.402228	0.336675	0.534203
C28	C	1.402211	0.336665	0.380870
H29	H	0.867460	0.226970	-0.269546
F30	F	1.487612	-0.220586	-0.239568
F31	F	1.312686	0.449205	0.285080
F32	F	1.121558	0.235435	0.244423
F33	F	1.659944	0.012642	0.656655
F34	F	1.485016	-0.317552	0.181316
F35	F	0.851070	0.226440	0.245554
H36	H	1.638898	0.039080	0.355983
F37	F	1.121595	0.235402	-0.303827
H38	H	1.333756	0.422771	0.585780
