data_functionalizedCrystal
_audit_creation_method	'MofGen! by Chris Wilmer'
_symmetry_space_group_name_H-M	'P1'
_symmetry_Int_Tables_number	1
_symmetry_cell_setting	triclinic
loop_
_symmetry_equiv_pos_as_xyz
  x,y,z
_cell_length_a	27.732048
_cell_length_b	14.519709
_cell_length_c	13.596369
_cell_angle_alpha	89.999709
_cell_angle_beta	89.989067
_cell_angle_gamma	96.838600
loop_
_atom_site_label
_atom_site_type_symbol
_atom_site_fract_x
_atom_site_fract_y
_atom_site_fract_z
O1	O	0.063362	-1.222766	-0.081675
O2	O	0.396695	-0.889433	0.251659
O3	O	0.730029	-0.556099	0.584992
O4	O	0.070824	-0.954159	-0.081706
O5	O	0.404157	-0.620826	0.251627
O6	O	0.737490	-0.287493	0.584961
O7	O	-0.003264	-1.096805	-0.081671
O8	O	0.330069	-0.763472	0.251663
O9	O	0.663403	-0.430138	0.584996
O10	O	0.137450	-1.080120	-0.081710
O11	O	0.470783	-0.746787	0.251623
O12	O	0.804116	-0.413454	0.584957
O13	O	-0.003268	-1.096791	0.081912
O14	O	0.330065	-0.763458	0.415246
O15	O	0.663399	-0.430124	0.748579
O16	O	0.070820	-0.954145	0.081877
O17	O	0.404153	-0.620812	0.415210
O18	O	0.737487	-0.287479	0.748544
O19	O	0.063358	-1.222752	0.081908
O20	O	0.396692	-0.889419	0.415242
O21	O	0.730025	-0.556085	0.748575
Zn22	Zn	0.067088	-1.088446	0.107865
Zn23	Zn	0.400422	-0.755113	0.441198
Zn24	Zn	0.733755	-0.421780	0.774532
Zn25	Zn	0.067094	-1.088465	-0.107663
Zn26	Zn	0.400427	-0.755132	0.225671
Zn27	Zn	0.733760	-0.421798	0.559004
O28	O	0.137446	-1.080106	0.081873
O29	O	0.470779	-0.746773	0.415206
O30	O	0.804113	-0.413440	0.748540
C31	C	0.070474	-0.919799	0.000082
C32	C	0.403807	-0.586465	0.333415
C33	C	0.737141	-0.253132	0.666748
C34	C	0.069432	-0.817435	0.000071
C35	C	0.402765	-0.484102	0.333404
C36	C	0.736099	-0.150769	0.666737
C37	C	-0.021274	-1.096448	0.000124
C38	C	0.312059	-0.763114	0.333457
C39	C	0.645392	-0.429781	0.666790
C40	C	-0.074934	-1.095393	0.000132
C41	C	0.258399	-0.762060	0.333465
C42	C	0.591732	-0.428727	0.666798
C43	C	0.063708	-1.257113	0.000119
C44	C	0.397041	-0.923779	0.333452
C45	C	0.730375	-0.590446	0.666785
C46	C	0.064750	-1.359476	0.000123
C47	C	0.398083	-1.026143	0.333457
C48	C	0.731417	-0.692809	0.666790
C49	C	-0.413378	-1.173048	0.000090
C50	C	-0.080045	-0.839715	0.333423
C51	C	0.253288	-0.506381	0.666757
C52	C	-0.615057	-1.169135	0.000076
C53	C	-0.281723	-0.835802	0.333409
C54	C	0.051610	-0.502469	0.666743
O55	O	-0.645973	-1.240145	0.000041
O56	O	-0.312640	-0.906812	0.333375
O57	O	0.020694	-0.573478	0.666708
N58	N	-0.634585	-1.084552	0.000067
N59	N	-0.301251	-0.751219	0.333400
N60	N	0.032082	-0.417886	0.666734
C61	C	-0.603690	-1.000941	0.000055
C62	C	-0.270356	-0.667608	0.333388
C63	C	0.062977	-0.334275	0.666722
O64	O	-0.624927	-0.928909	0.000037
O65	O	-0.291594	-0.595575	0.333370
O66	O	0.041740	-0.262242	0.666704
C67	C	-0.402012	-1.004855	0.000062
C68	C	-0.068679	-0.671522	0.333396
C69	C	0.264654	-0.338189	0.666729
C70	C	-0.382487	-1.089444	0.000081
C71	C	-0.049154	-0.756110	0.333415
C72	C	0.284179	-0.422777	0.666748
C73	C	-0.393853	-1.257630	0.000108
C74	C	-0.060519	-0.924296	0.333441
C75	C	0.272814	-0.590963	0.666775
C76	C	-0.343436	-1.258607	0.000117
C77	C	-0.010103	-0.925274	0.333450
C78	C	0.323231	-0.591940	0.666784
C79	C	-0.312545	-1.175003	0.000108
C80	C	0.020788	-0.841669	0.333441
C81	C	0.354122	-0.508336	0.666775
C82	C	-0.332071	-1.090421	0.000090
C83	C	0.001263	-0.757088	0.333423
C84	C	0.334596	-0.423754	0.666757
C85	C	-0.371118	-0.921246	0.000043
C86	C	-0.037785	-0.587912	0.333377
C87	C	0.295548	-0.254579	0.666710
C88	C	-0.320696	-0.922232	0.000043
C89	C	0.012637	-0.588898	0.333376
C90	C	0.345970	-0.255565	0.666709
C91	C	-0.301171	-1.006820	0.000062
C92	C	0.032162	-0.673487	0.333395
C93	C	0.365496	-0.340153	0.666728
C94	C	-0.250763	-1.007794	0.000090
C95	C	0.082570	-0.674461	0.333423
C96	C	0.415904	-0.341128	0.666757
N97	N	-0.231235	-1.092377	0.000099
N98	N	0.102098	-0.759044	0.333432
N99	N	0.435432	-0.425711	0.666766
C100	C	-0.262126	-1.175981	0.000108
C101	C	0.071207	-0.842648	0.333441
C102	C	0.404541	-0.509315	0.666775
C103	C	-0.709574	-0.998893	0.000053
C104	C	-0.376240	-0.665559	0.333387
C105	C	-0.042907	-0.332226	0.666720
C106	C	-0.759993	-0.997914	0.000053
C107	C	-0.426659	-0.664581	0.333387
C108	C	-0.093326	-0.331247	0.666720
C109	C	-0.771356	-1.166108	0.000072
C110	C	-0.438023	-0.832775	0.333406
C111	C	-0.104689	-0.499441	0.666739
C112	C	-0.720936	-1.167086	0.000079
C113	C	-0.387603	-0.833752	0.333413
C114	C	-0.054269	-0.500419	0.666746
C115	C	-0.690045	-1.083476	0.000062
C116	C	-0.356712	-0.750142	0.333396
C117	C	-0.023379	-0.416809	0.666729
C118	C	-0.156247	-1.178028	0.000128
C119	C	0.177086	-0.844694	0.333461
C120	C	0.510420	-0.511361	0.666794
C121	C	-0.105825	-1.178998	0.000141
C122	C	0.227508	-0.845664	0.333474
C123	C	0.560841	-0.512331	0.666807
C124	C	-0.094466	-1.010804	0.000116
C125	C	0.238867	-0.677471	0.333450
C126	C	0.572200	-0.344137	0.666783
C127	C	-0.144883	-1.009833	0.000109
C128	C	0.188450	-0.676500	0.333442
C129	C	0.521783	-0.343167	0.666775
C130	C	-0.175773	-1.093453	0.000111
C131	C	0.157560	-0.760119	0.333444
C132	C	0.490894	-0.426786	0.666777
O133	O	-0.219818	-0.936822	0.000114
O134	O	0.113515	-0.603489	0.333447
O135	O	0.446849	-0.270156	0.666780
O136	O	-0.240879	-1.248004	0.000104
O137	O	0.092454	-0.914670	0.333438
O138	O	0.425787	-0.581337	0.666771
C139	C	-0.463795	-1.172071	0.000081
C140	C	-0.130462	-0.838737	0.333415
C141	C	0.202872	-0.505404	0.666748
C142	C	-0.483320	-1.087489	0.000063
C143	C	-0.149987	-0.754156	0.333397
C144	C	0.183346	-0.420823	0.666730
C145	C	-0.452429	-1.003885	0.000054
C146	C	-0.119096	-0.670552	0.333388
C147	C	0.214237	-0.337218	0.666721
C148	C	-0.533740	-1.086510	0.000063
C149	C	-0.200406	-0.753177	0.333397
C150	C	0.132927	-0.419844	0.666730
C151	C	-0.564631	-1.170115	0.000072
C152	C	-0.231297	-0.836781	0.333406
C153	C	0.102036	-0.503448	0.666739
C154	C	-0.545103	-1.254698	0.000081
C155	C	-0.211769	-0.921364	0.333415
C156	C	0.121564	-0.588031	0.666748
C157	C	-0.494686	-1.255675	0.000090
C158	C	-0.161353	-0.922342	0.333424
C159	C	0.171981	-0.589008	0.666757
C160	C	-0.471957	-0.919302	0.000046
C161	C	-0.138624	-0.585969	0.333379
C162	C	0.194709	-0.252635	0.666712
C163	C	-0.522375	-0.918331	0.000038
C164	C	-0.189041	-0.584998	0.333371
C165	C	0.144292	-0.251665	0.666704
C166	C	-0.553266	-1.001936	0.000047
C167	C	-0.219932	-0.668602	0.333380
C168	C	0.113401	-0.335269	0.666713
C169	C	0.155456	-1.080464	0.000077
C170	C	0.488790	-0.747130	0.333410
C171	C	0.822123	-0.413797	0.666743
C172	C	0.209116	-1.081518	0.000062
C173	C	0.542450	-0.748185	0.333396
C174	C	0.875783	-0.414851	0.666729
N175	N	0.067085	-1.088441	0.254957
N176	N	0.400418	-0.755107	0.588290
N177	N	0.733751	-0.421774	0.921624
C178	C	0.065596	-0.442606	0.000116
C179	C	0.398929	-0.109273	0.333450
C180	C	0.732262	0.224060	0.666783
C181	C	0.066661	-0.546896	0.000103
C182	C	0.399994	-0.213562	0.333437
C183	C	0.733328	0.119771	0.666770
C184	C	0.067514	-0.630018	0.000093
C185	C	0.400847	-0.296684	0.333426
C186	C	0.734180	0.036649	0.666759
C187	C	0.068579	-0.734314	0.000081
C188	C	0.401913	-0.400980	0.333415
C189	C	0.735246	-0.067647	0.666748
N190	N	0.067094	-1.088478	-0.254754
N191	N	0.400427	-0.755145	0.078579
N192	N	0.733760	-0.421812	0.411912
C193	C	0.067094	-1.088464	0.656248
C194	C	0.400427	-0.755130	0.989581
C195	C	0.733761	-0.421797	1.322914
C196	C	0.067093	-1.088454	0.544596
C197	C	0.400426	-0.755121	0.877930
C198	C	0.733760	-0.421788	1.211263
C199	C	0.067090	-1.088453	0.455606
C200	C	0.400423	-0.755119	0.788939
C201	C	0.733756	-0.421786	1.122273
C202	C	0.067088	-1.088442	0.343947
C203	C	0.400421	-0.755109	0.677281
C204	C	0.733755	-0.421776	1.010614
H205	H	-0.089931	-1.247882	0.000158
H206	H	0.243402	-0.914549	0.333492
H207	H	0.576735	-0.581216	0.666825
H208	H	-0.419000	-1.325714	0.000112
H209	H	-0.085667	-0.992381	0.333445
H210	H	0.247667	-0.659048	0.666778
O211	O	-0.186297	-1.259194	0.000265
O212	O	0.147036	-0.925861	0.333599
O213	O	0.480369	-0.592527	0.666932
C214	C	-0.215803	-1.263669	0.084997
C215	C	0.117530	-0.930336	0.418330
C216	C	0.450864	-0.597002	0.751663
H217	H	-0.218432	-1.190506	0.113227
H218	H	0.114901	-0.857173	0.446560
H219	H	0.448234	-0.523839	0.779893
H220	H	-0.253659	-1.298589	0.065946
H221	H	0.079675	-0.965255	0.399279
H222	H	0.413008	-0.631922	0.732612
H223	H	-0.199178	-1.305530	0.144332
H224	H	0.134155	-0.972197	0.477665
H225	H	0.467488	-0.638863	0.810999
H226	H	-0.796516	-1.234182	0.000080
H227	H	-0.463183	-0.900849	0.333413
H228	H	-0.129850	-0.567515	0.666747
O229	O	-0.778980	-0.915769	0.000218
O230	O	-0.445646	-0.582435	0.333551
O231	O	-0.112313	-0.249102	0.666885
C232	C	-0.807822	-0.910162	0.084923
C233	C	-0.474489	-0.576828	0.418256
C234	C	-0.141155	-0.243495	0.751590
H235	H	-0.795862	-0.958173	0.144149
H236	H	-0.462529	-0.624840	0.477482
H237	H	-0.129195	-0.291506	0.810815
H238	H	-0.803366	-0.835769	0.113347
H239	H	-0.470033	-0.502435	0.446680
H240	H	-0.136700	-0.169102	0.780013
H241	H	-0.847559	-0.932008	0.065770
H242	H	-0.514226	-0.598674	0.399103
H243	H	-0.180893	-0.265341	0.732436
O244	O	-0.702052	-1.249335	0.000044
O245	O	-0.368718	-0.916002	0.333378
O246	O	-0.035385	-0.582669	0.666711
C247	C	-0.740135	-1.322910	0.000080
C248	C	-0.406801	-0.989577	0.333413
C249	C	-0.073468	-0.656243	0.666746
H250	H	-0.774405	-1.297552	-0.030887
H251	H	-0.441072	-0.964219	0.302446
H252	H	-0.107738	-0.630886	0.635779
H253	H	-0.729543	-1.382015	-0.047409
H254	H	-0.396210	-1.048681	0.285924
H255	H	-0.062876	-0.715348	0.619257
H256	H	-0.747250	-1.348658	0.078562
H257	H	-0.413917	-1.015325	0.411895
H258	H	-0.080584	-0.681991	0.745229
H259	H	-0.538266	-0.849444	0.000031
H260	H	-0.204933	-0.516111	0.333364
H261	H	0.128400	-0.182778	0.666698
H262	H	-0.446810	-0.851220	0.000036
H263	H	-0.113477	-0.517886	0.333369
H264	H	0.219856	-0.184553	0.666703
H265	H	-0.684426	-0.930803	0.000040
H266	H	-0.351093	-0.597470	0.333373
H267	H	-0.017759	-0.264136	0.666706
H268	H	-0.327544	-1.327488	0.000128
H269	H	0.005789	-0.994154	0.333462
H270	H	0.339123	-0.660821	0.666795
H271	H	-0.387006	-0.852365	0.000022
H272	H	-0.053673	-0.519031	0.333355
H273	H	0.279660	-0.185698	0.666689
O274	O	-0.575135	-1.335888	-0.000087
O275	O	-0.241802	-1.002555	0.333246
O276	O	0.091532	-0.669221	0.666580
C277	C	-0.604636	-1.340336	-0.084801
C278	C	-0.271303	-1.007003	0.248533
C279	C	0.062031	-0.673670	0.581866
H280	H	-0.586205	-1.292915	-0.144015
H281	H	-0.252872	-0.959582	0.189318
H282	H	0.080462	-0.626249	0.522651
H283	H	-0.610237	-1.414703	-0.113235
H284	H	-0.276904	-1.081370	0.220098
H285	H	0.056429	-0.748037	0.553432
H286	H	-0.641321	-1.316989	-0.065655
H287	H	-0.307988	-0.983656	0.267679
H288	H	0.025346	-0.650323	0.601012
O289	O	-0.163832	-0.927645	-0.000079
O290	O	0.169502	-0.594311	0.333254
O291	O	0.502835	-0.260978	0.666588
C292	C	-0.148029	-0.876726	-0.084792
C293	C	0.185304	-0.543392	0.248541
C294	C	0.518638	-0.210059	0.581874
H295	H	-0.137483	-0.926208	-0.143992
H296	H	0.195851	-0.592875	0.189341
H297	H	0.529184	-0.259541	0.522674
H298	H	-0.178604	-0.837942	-0.113251
H299	H	0.154729	-0.504609	0.220082
H300	H	0.488063	-0.171276	0.553416
H301	H	-0.115223	-0.824854	-0.065636
H302	H	0.218110	-0.491520	0.267697
H303	H	0.551443	-0.158187	0.601031
H304	H	-0.295547	-0.854144	0.000027
H305	H	0.037786	-0.520811	0.333361
H306	H	0.371120	-0.187478	0.666694
O307	O	-0.064385	-0.929679	0.000063
O308	O	0.268948	-0.596346	0.333396
O309	O	0.602282	-0.263012	0.666729
C310	C	-0.015699	-0.948691	0.000094
C311	C	0.317635	-0.615358	0.333427
C312	C	0.650968	-0.282024	0.666761
H313	H	-0.013699	-1.021105	-0.030858
H314	H	0.319634	-0.687772	0.302475
H315	H	0.652968	-0.354438	0.635809
H316	H	0.007101	-0.895369	-0.047410
H317	H	0.340434	-0.562036	0.285923
H318	H	0.673767	-0.228703	0.619256
H319	H	-0.001129	-0.944972	0.078573
H320	H	0.332205	-0.611638	0.411906
H321	H	0.665538	-0.278305	0.745239
O322	O	-0.475803	-1.337926	0.000058
O323	O	-0.142470	-1.004593	0.333391
O324	O	0.190863	-0.671260	0.666725
C325	C	-0.513888	-1.411497	0.000088
C326	C	-0.180555	-1.078164	0.333422
C327	C	0.152779	-0.744831	0.666755
H328	H	-0.548156	-1.386136	-0.030886
H329	H	-0.214823	-1.052803	0.302448
H330	H	0.118510	-0.719469	0.635781
H331	H	-0.503296	-1.470604	-0.047398
H332	H	-0.169963	-1.137270	0.285936
H333	H	0.163371	-0.803937	0.619269
H334	H	-0.521008	-1.437244	0.078570
H335	H	-0.187674	-1.103911	0.411903
H336	H	0.145659	-0.770577	0.745236
