data_functionalizedCrystal
_audit_creation_method	'MofGen! by Chris Wilmer'
_symmetry_space_group_name_H-M	'P1'
_symmetry_Int_Tables_number	1
_symmetry_cell_setting	triclinic
loop_
_symmetry_equiv_pos_as_xyz
  x,y,z
_cell_length_a	27.732048
_cell_length_b	10.489741
_cell_length_c	8.965430
_cell_angle_alpha	89.997877
_cell_angle_beta	89.999754
_cell_angle_gamma	83.590914
loop_
_atom_site_label
_atom_site_type_symbol
_atom_site_fract_x
_atom_site_fract_y
_atom_site_fract_z
O1	O	-0.641886	-0.151743	-0.123847
O2	O	-0.501238	-0.174818	-0.123892
O3	O	-0.574763	0.022458	-0.123859
O4	O	-0.568362	-0.349019	-0.123879
O5	O	-0.574754	0.022439	0.124220
O6	O	-0.501230	-0.174837	0.124187
O7	O	-0.641878	-0.151762	0.124232
Cu8	Cu	-0.571553	-0.163301	0.146861
Cu9	Cu	-0.571563	-0.163279	-0.146521
O10	O	-0.568353	-0.349038	0.124200
C11	C	-0.483224	-0.174343	0.000142
C12	C	-0.429560	-0.172885	0.000125
C13	C	-0.574275	0.069959	0.000179
C14	C	-0.572828	0.211525	0.000176
C15	C	-0.659892	-0.152237	0.000195
C16	C	-0.713556	-0.153696	0.000202
C17	C	-0.091423	-0.280280	0.000184
C18	C	0.110271	-0.274868	0.000198
O19	O	0.140907	-0.373073	0.000257
N20	N	0.130133	-0.157892	0.000201
C21	C	0.099568	-0.042260	0.000211
O22	O	0.121090	0.057360	0.000230
C23	C	-0.102124	-0.047673	0.000208
C24	C	-0.121984	-0.164657	0.000190
C25	C	-0.111282	-0.397254	0.000167
C26	C	-0.161703	-0.398606	0.000155
C27	C	-0.192264	-0.282983	0.000161
C28	C	-0.172404	-0.166008	0.000178
C29	C	-0.132688	0.067958	0.000229
C30	C	-0.183114	0.066594	0.000232
C31	C	-0.202973	-0.050390	0.000213
C32	C	-0.253385	-0.051737	0.000172
N33	N	-0.273247	-0.168714	0.000168
C34	C	-0.242687	-0.284336	0.000163
C35	C	0.205460	-0.039426	0.000210
C36	C	0.255883	-0.038073	0.000208
C37	C	0.266583	-0.270682	0.000197
C38	C	0.216159	-0.272034	0.000188
C39	C	0.185598	-0.156403	0.000206
C40	C	-0.348574	-0.287166	0.000137
C41	C	-0.398999	-0.288508	0.000120
C42	C	-0.409694	-0.055900	0.000138
C43	C	-0.359273	-0.054557	0.000148
C44	C	-0.328714	-0.170201	0.000153
O45	O	-0.284050	0.046415	0.000129
O46	O	-0.264218	-0.383942	0.000177
C47	C	-0.041002	-0.278928	0.000196
C48	C	-0.021143	-0.161954	0.000213
C49	C	-0.051703	-0.046331	0.000218
C50	C	0.029280	-0.160600	0.000211
C51	C	0.059841	-0.276223	0.000205
C52	C	0.039979	-0.393199	0.000202
C53	C	-0.010441	-0.394551	0.000190
C54	C	-0.031841	0.070646	0.000222
C55	C	0.018580	0.071988	0.000232
C56	C	0.049140	-0.043635	0.000226
C57	C	-0.568841	-0.396539	0.000158
C58	C	-0.570287	-0.538105	0.000151
N59	N	-0.571549	-0.163316	0.353210
C60	C	-0.526047	0.277609	0.000150
C61	C	-0.548142	0.370693	0.122473
C62	C	-0.548161	0.370687	-0.122113
C63	C	-0.594943	0.302744	0.122600
C64	C	-0.594956	0.302729	-0.122096
C65	C	-0.617084	0.395787	0.000256
C66	C	-0.537535	-0.254523	0.450501
C67	C	-0.581296	-0.278413	0.549928
C68	C	-0.527804	-0.139444	0.549911
C69	C	-0.615333	-0.187263	0.450448
C70	C	-0.561811	-0.048245	0.450423
C71	C	-0.605604	-0.072085	0.549804
N72	N	-0.571561	-0.163278	0.647130
H73	H	-0.415165	-0.383774	0.000103
H74	H	-0.589542	-0.375709	0.593634
H75	H	-0.508799	-0.331719	0.406900
Cl76	Cl	-0.035399	-0.541625	0.000169
H77	H	-0.614737	0.272561	-0.225505
H78	H	-0.634405	0.005067	0.593132
H79	H	-0.528365	0.400788	-0.225538
H80	H	-0.553552	0.049019	0.406682
Cl81	Cl	-0.470680	-0.108293	0.617370
Cl82	Cl	0.078408	-0.538552	0.000188
H83	H	-0.086404	-0.491414	0.000168
H84	H	-0.528344	0.400827	0.225876
Cl85	Cl	-0.310164	-0.432549	0.000141
H86	H	-0.652341	-0.207554	0.406941
H87	H	-0.177867	-0.493866	0.000140
H88	H	0.180582	0.054740	0.000224
Cl89	Cl	0.191198	-0.419104	0.000170
Cl90	Cl	0.305011	-0.416035	0.000196
Cl91	Cl	-0.676521	0.474713	0.000374
Cl92	Cl	0.280843	0.108999	0.000194
H93	H	-0.487584	0.226267	0.000261
Cl94	Cl	-0.107735	0.215033	0.000227
Cl95	Cl	-0.334306	0.092509	0.000179
Cl96	Cl	-0.448122	0.089447	0.000152
Cl97	Cl	0.043538	0.219069	0.000236
Cl98	Cl	-0.221530	0.211968	0.000257
Cl99	Cl	-0.625473	0.256481	0.282443
Cl100	Cl	-0.070254	0.216016	0.000229
