data_functionalizedCrystal
_audit_creation_method	'MofGen! by Chris Wilmer'
_symmetry_space_group_name_H-M	'P1'
_symmetry_Int_Tables_number	1
_symmetry_cell_setting	triclinic
loop_
_symmetry_equiv_pos_as_xyz
  x,y,z
_cell_length_a	19.188930
_cell_length_b	14.971486
_cell_length_c	17.666332
_cell_angle_alpha	90.007460
_cell_angle_beta	90.010342
_cell_angle_gamma	83.379455
loop_
_atom_site_label
_atom_site_type_symbol
_atom_site_fract_x
_atom_site_fract_y
_atom_site_fract_z
O1	O	0.090986	1.186470	0.062926
O2	O	0.101882	0.926013	0.062935
O3	O	-0.005197	1.063758	0.062915
O4	O	0.198066	1.048725	0.062945
O5	O	-0.005200	1.063733	-0.062981
O6	O	0.101879	0.925988	-0.062962
O7	O	0.090983	1.186446	-0.062971
Cu8	Cu	0.096431	1.056215	-0.074462
Cu9	Cu	0.096435	1.056244	0.074426
O10	O	0.198063	1.048701	-0.062951
C11	C	-0.031211	1.063259	-0.000035
C12	C	-0.108721	1.061797	-0.000042
C13	C	0.101393	0.892678	-0.000012
C14	C	0.099933	0.793389	-0.000009
C15	C	0.091472	1.219780	-0.000022
C16	C	0.092932	1.319070	-0.000020
C17	C	-0.153384	1.142622	-0.000048
C18	C	-0.226213	1.141249	-0.000036
C19	C	-0.254374	1.059047	-0.000033
C20	C	-0.209700	0.978212	-0.000022
C21	C	-0.136873	0.979587	-0.000026
N22	N	-0.362582	0.996205	-0.042875
N23	N	-0.431765	0.994904	-0.042873
C24	C	-0.473796	1.054899	-0.000017
N25	N	-0.444032	1.116257	0.042826
N26	N	-0.374843	1.117560	0.042820
C27	C	-0.333341	1.057547	-0.000027
C28	C	-0.597429	1.134240	-0.000009
C29	C	-0.670258	1.132864	0.000008
C30	C	-0.653744	0.969825	0.000014
C31	C	-0.580916	0.971203	0.000005
C32	C	-0.552763	1.053413	-0.000010
C33	C	0.224077	1.049200	0.000001
C34	C	0.301586	1.050661	0.000012
N35	N	0.096428	1.056201	-0.179181
C36	C	0.030026	1.376627	-0.000027
C37	C	0.031402	1.469919	-0.000029
C38	C	0.095685	1.505652	-0.000020
C39	C	0.158597	1.448087	-0.000015
C40	C	0.157220	1.354797	-0.000018
C41	C	0.161462	1.642535	-0.000007
C42	C	0.162839	1.735831	-0.000003
C43	C	0.035645	1.757657	-0.000018
C44	C	0.034268	1.664367	-0.000021
C45	C	0.097179	1.606808	-0.000015
C46	C	0.138847	1.110274	-0.218780
C47	C	0.138845	1.110289	-0.298028
C48	C	0.096432	1.056213	-0.337673
C49	C	0.054004	1.002137	-0.298065
C50	C	0.054002	1.002131	-0.218819
N51	N	0.094460	0.977878	-0.462111
N52	N	0.094466	0.977886	-0.537391
C53	C	0.096434	1.056230	-0.576437
N54	N	0.098411	1.134566	-0.537359
N55	N	0.098408	1.134557	-0.462072
C56	C	0.096429	1.056214	-0.423602
C57	C	0.138854	1.110323	-0.701966
C58	C	0.138847	1.110339	-0.781215
C59	C	0.054009	1.002179	-0.781250
C60	C	0.054012	1.002171	-0.702003
C61	C	0.096438	1.056242	-0.662365
N62	N	0.096432	1.056264	0.179145
H63	H	-0.130467	1.209564	-0.000058
H64	H	-0.018077	1.635277	-0.000024
H65	H	0.019475	0.958151	-0.813529
H66	H	-0.574506	1.201180	-0.000018
H67	H	-0.676672	0.902894	0.000021
H68	H	0.173390	1.154322	-0.330275
H69	H	0.173391	1.154306	-0.186512
H70	H	-0.544550	0.905387	0.000006
H71	H	-0.022321	1.347542	-0.000030
H72	H	-0.019822	1.516780	-0.000038
H73	H	0.210937	1.477188	-0.000012
H74	H	0.208444	1.307933	-0.000015
H75	H	-0.015580	1.804526	-0.000021
H76	H	0.215184	1.764921	-0.000009
H77	H	0.212691	1.595672	-0.000008
H78	H	0.173399	1.154351	-0.669691
H79	H	0.019458	0.958097	-0.186578
H80	H	0.173388	1.154378	-0.813455
H81	H	-0.262585	1.207068	-0.000038
H82	H	-0.100507	0.913768	-0.000021
H83	H	0.019470	0.958109	-0.330350
H84	H	0.019473	0.958135	-0.669761
H85	H	-0.232634	0.911283	-0.000017
H86	H	-0.706623	1.198683	0.000006
