data_functionalizedCrystal
_audit_creation_method	'MofGen! by Chris Wilmer'
_symmetry_space_group_name_H-M	'P1'
_symmetry_Int_Tables_number	1
_symmetry_cell_setting	triclinic
loop_
_symmetry_equiv_pos_as_xyz
  x,y,z
_cell_length_a	14.044190
_cell_length_b	12.837943
_cell_length_c	11.892113
_cell_angle_alpha	86.040150
_cell_angle_beta	94.026965
_cell_angle_gamma	85.989641
loop_
_atom_site_label
_atom_site_type_symbol
_atom_site_fract_x
_atom_site_fract_y
_atom_site_fract_z
O1	O	0.254482	-1.404905	0.094011
O2	O	0.754482	-0.904905	0.594011
O3	O	0.242208	-1.101965	0.094016
O4	O	0.742208	-0.601965	0.594016
O5	O	0.109948	-1.248883	0.093991
O6	O	0.609948	-0.748883	0.593991
O7	O	0.386742	-1.257988	0.094036
O8	O	0.886742	-0.757988	0.594036
O9	O	0.097962	-1.235935	-0.094018
O10	O	0.597962	-0.735935	0.405982
O11	O	0.230222	-1.089017	-0.093993
O12	O	0.730222	-0.589017	0.406007
O13	O	0.242496	-1.391958	-0.093998
O14	O	0.742496	-0.891958	0.406002
Zn15	Zn	0.234456	-1.238432	-0.123846
Zn16	Zn	0.734456	-0.738432	0.376154
Zn17	Zn	0.250248	-1.255491	0.123864
Zn18	Zn	0.750248	-0.755491	0.623864
O19	O	0.374756	-1.245040	-0.093973
O20	O	0.874756	-0.745040	0.406027
C21	C	0.232068	-1.056487	0.000012
C22	C	0.732068	-0.556487	0.500012
C23	C	0.219700	-0.940266	0.000013
C24	C	0.719700	-0.440266	0.500013
C25	C	0.068280	-1.238427	-0.000016
C26	C	0.568280	-0.738427	0.499984
C27	C	-0.038019	-1.226549	-0.000026
C28	C	0.461981	-0.726549	0.499974
C29	C	0.252636	-1.437436	0.000008
C30	C	0.752636	-0.937436	0.500008
C31	C	0.265004	-1.553657	0.000015
C32	C	0.765004	-1.053657	0.500015
C33	C	-0.282655	-1.289074	0.000017
C34	C	0.217345	-0.789074	0.500017
C35	C	-0.232634	-1.204854	0.000011
C36	C	0.267366	-0.704854	0.500011
C37	C	-0.124340	-1.216928	-0.000010
C38	C	0.375660	-0.716928	0.499990
C39	C	-0.390959	-1.277002	0.000038
C40	C	0.109041	-0.777002	0.500038
C41	C	0.416424	-1.255496	0.000037
C42	C	0.916424	-0.755496	0.500037
C43	C	0.522724	-1.267374	0.000054
C44	C	1.022724	-0.767374	0.500054
N45	N	0.223678	-1.226797	-0.292901
N46	N	0.723678	-0.726797	0.207099
C47	C	0.368381	-0.713060	0.000021
C48	C	0.868381	-0.213060	0.500021
C49	C	0.356765	-0.603860	0.000021
C50	C	0.856765	-0.103860	0.500021
C51	C	0.184853	-0.612663	0.000005
C52	C	0.684853	-0.112663	0.500005
C53	C	0.196469	-0.721863	0.000005
C54	C	0.696469	-0.221863	0.500005
C55	C	0.288236	-0.772058	0.000015
C56	C	0.788236	-0.272058	0.500015
C57	C	0.299851	-0.881261	0.000023
C58	C	0.799851	-0.381261	0.500023
C59	C	0.127940	-0.890061	-0.000001
C60	C	0.627940	-0.390061	0.499999
C61	C	0.116324	-0.780860	-0.000001
C62	C	0.616324	-0.280860	0.499999
C63	C	0.336062	-1.348087	-0.529535
C64	C	0.836062	-0.848087	-0.029535
C65	C	0.328522	-1.339962	-0.647878
C66	C	0.828522	-0.839962	-0.147878
C67	C	0.201051	-1.202427	-0.647932
C68	C	0.701051	-0.702427	-0.147932
C69	C	0.208592	-1.210552	-0.529589
C70	C	0.708592	-0.710552	-0.029589
C71	C	0.276101	-1.283384	-0.470395
C72	C	0.776101	-0.783384	0.029605
C73	C	0.283646	-1.291503	-0.352050
C74	C	0.783646	-0.791503	0.147950
C75	C	0.156172	-1.153974	-0.352106
C76	C	0.656172	-0.653974	0.147894
C77	C	0.148631	-1.145849	-0.470449
C78	C	0.648631	-0.645849	0.029551
N79	N	0.261019	-1.267133	0.292919
N80	N	0.761019	-0.767133	0.792919
H81	H	-0.271140	-1.123683	0.000019
H82	H	0.228860	-0.623683	0.500019
Cl83	Cl	-0.223208	-1.414388	-0.000003
Cl84	Cl	0.276792	-0.914388	0.499997
Cl85	Cl	0.415214	-0.944362	0.000037
Cl86	Cl	0.915214	-0.444362	0.500037
H87	H	0.377348	-1.392652	-0.696026
H88	H	0.877348	-0.892652	-0.196026
Cl89	Cl	0.069498	-0.549541	-0.000021
Cl90	Cl	0.569498	-0.049541	0.499979
H91	H	0.146079	-1.143142	-0.696149
H92	H	0.646079	-0.643142	-0.196149
Cl93	Cl	0.063768	-1.054293	-0.544875
Cl94	Cl	0.563768	-0.554293	-0.044875
Cl95	Cl	0.483742	-0.776168	0.000048
Cl96	Cl	0.983742	-0.276168	0.500048
Cl97	Cl	0.000966	-0.717748	-0.000015
Cl98	Cl	0.500966	-0.217748	0.499985
H99	H	0.062681	-0.938109	0.000002
H100	H	0.562681	-0.438109	0.500002
H101	H	0.107351	-1.101282	-0.303942
H102	H	0.607351	-0.601282	0.196058
H103	H	0.391039	-1.407380	-0.481338
H104	H	0.891039	-0.907380	0.018662
H105	H	0.422027	-0.555828	0.000023
H106	H	0.922027	-0.055828	0.500023
Cl107	Cl	0.368511	-1.383063	-0.277636
Cl108	Cl	0.868511	-0.883063	0.222364
