data_functionalizedCrystal
_audit_creation_method	'MofGen! by Chris Wilmer'
_symmetry_space_group_name_H-M	'P1'
_symmetry_Int_Tables_number	1
_symmetry_cell_setting	triclinic
loop_
_symmetry_equiv_pos_as_xyz
  x,y,z
_cell_length_a	17.052862
_cell_length_b	16.704494
_cell_length_c	16.704494
_cell_angle_alpha	60.174809
_cell_angle_beta	90.887661
_cell_angle_gamma	54.022364
loop_
_atom_site_label
_atom_site_type_symbol
_atom_site_fract_x
_atom_site_fract_y
_atom_site_fract_z
Zr1	Zr	0.949457	0.586514	0.010509
O2	O	0.818764	0.778823	-0.139980
O3	O	0.982342	0.414123	0.061140
O4	O	1.001113	0.558938	-0.102447
O5	O	0.793353	0.648815	0.147531
O6	O	1.153121	0.514529	-0.077957
O7	O	0.799993	0.634008	0.023607
O8	O	1.119543	0.255481	0.214670
O9	O	0.826931	0.907863	-0.145096
O10	O	1.118483	0.444511	0.095575
O11	O	1.000086	0.488703	0.169782
O12	O	1.022187	0.659205	-0.022821
O13	O	0.903790	0.703397	0.051385
Zr14	Zr	1.181302	0.539302	0.247211
Zr15	Zr	1.191892	0.515687	0.049568
Zr16	Zr	0.938867	0.610129	0.208153
Zr17	Zr	0.962483	0.792318	0.002349
Zr18	Zr	1.168276	0.333498	0.255372
O19	O	1.148417	0.711693	0.196581
O20	O	1.163474	0.678115	-0.084444
O21	O	0.803706	0.812401	0.141044
O22	O	1.311995	0.346992	0.397700
O23	O	1.327053	0.313415	0.116676
O24	O	0.967285	0.447700	0.342164
O25	O	1.337406	0.477001	0.110190
O26	O	1.129646	0.566877	0.360167
O27	O	0.977638	0.611287	0.335677
O28	O	1.330766	0.491808	0.234113
O29	O	1.019634	0.851564	-0.114050
O30	O	1.111125	0.274251	0.371770
O31	O	1.303828	0.217953	0.402817
O32	O	1.312246	0.199182	0.245716
O33	O	0.818513	0.926634	0.012004
O34	O	1.011216	0.870335	0.043051
O35	O	1.108572	0.466611	0.280541
O36	O	1.226969	0.422419	0.206335
O37	O	1.130673	0.637113	0.087939
O38	O	1.012276	0.681305	0.162145
C39	C	1.049087	0.305479	0.139067
C40	C	1.043557	0.218110	0.142532
C41	C	1.156799	0.007775	0.071580
C42	C	1.151607	-0.074317	0.074833
C43	C	1.027987	-0.028175	0.152297
C44	C	1.033179	0.053917	0.149044
C45	C	1.097586	0.071890	0.108683
C46	C	1.102772	0.153991	0.105423
C47	C	0.979159	0.200124	0.182893
C48	C	0.973966	0.118032	0.186146
C49	C	0.762131	0.651503	0.080004
C50	C	0.659211	0.681571	0.063422
C51	C	0.570165	0.318045	0.263890
C52	C	0.666866	0.289790	0.279466
C53	C	0.664958	0.387732	0.225457
C54	C	0.566338	0.513936	0.155868
C55	C	0.469629	0.542193	0.140285
C56	C	0.564421	0.611880	0.101852
C57	C	0.465802	0.738084	0.032264
C58	C	0.369103	0.766335	0.016684
C59	C	0.371011	0.668393	0.070693
C60	C	0.661130	0.583623	0.117435
C61	C	0.560594	0.807771	-0.006170
C62	C	0.463893	0.836026	-0.021745
C63	C	1.368628	0.474313	0.177717
C64	C	1.471548	0.444245	0.194298
C65	C	1.078626	0.533369	-0.118362
C66	C	1.083122	0.523344	-0.202267
C67	C	1.081672	0.820337	0.118653
C68	C	1.087202	0.907706	0.115189
C69	C	0.991044	0.728661	-0.483549
C70	C	0.995266	0.719247	-0.562388
C71	C	1.095793	0.495102	-0.438786
C72	C	1.091571	0.504516	-0.359947
C73	C	1.039194	0.621300	-0.382334
C74	C	1.034966	0.630714	-0.303493
C75	C	1.135499	0.406568	-0.179892
C76	C	1.139721	0.397154	-0.258732
C77	C	1.052133	0.592447	0.376082
C78	C	1.047637	0.602472	0.459987
C79	C	1.352335	0.216884	0.187924
C80	C	1.449725	0.099447	0.207969
C81	C	1.035840	0.335018	0.386290
C82	C	1.025815	0.257674	0.473659
C83	C	1.339089	0.246423	0.435146
C84	C	1.431983	0.139011	0.539097
C85	C	0.791670	0.879393	-0.177426
C86	C	0.698776	0.986805	-0.281377
C87	C	0.778424	0.908931	0.069796
C88	C	0.681034	1.026368	0.049751
C89	C	1.094919	0.790798	-0.128569
C90	C	1.104944	0.868142	-0.215939
C91	C	1.438833	0.055828	0.159560
C92	C	1.530334	-0.054504	0.178374
C93	C	1.632726	-0.121221	0.245605
C94	C	1.643617	-0.077594	0.294015
C95	C	1.552117	0.032742	0.275195
C96	C	1.077735	0.209822	0.572512
C97	C	1.068311	0.137163	0.654611
C98	C	1.006973	0.112350	0.637856
C99	C	0.955047	0.160212	0.538992
C100	C	0.964465	0.232877	0.456894
C101	C	1.537420	0.065499	0.549180
C102	C	1.624714	-0.035419	0.646846
C103	C	1.606570	-0.062827	0.734428
C104	C	1.501123	0.010697	0.724341
C105	C	1.413831	0.111618	0.626676
C106	C	0.593340	1.060327	-0.291460
C107	C	0.506047	1.161270	-0.389127
C108	C	0.524192	1.188682	-0.476709
C109	C	0.629638	1.115153	-0.466622
C110	C	0.716929	1.014218	-0.368956
C111	C	0.691927	1.069995	0.098152
C112	C	0.600429	1.180348	0.079315
C113	C	0.498037	1.247067	0.012082
C114	C	0.487146	1.203436	-0.036325
C115	C	0.578644	1.093090	-0.017493
C116	C	1.166290	0.892929	-0.199151
C117	C	1.175731	0.965585	-0.281232
C118	C	1.123819	1.013460	-0.380101
C119	C	1.062470	0.988666	-0.396887
C120	C	1.053036	0.916003	-0.314805
H121	H	1.209234	0.022417	0.038707
H122	H	1.110602	0.098200	0.735103
H123	H	1.182369	0.302071	-0.240518
O124	O	0.357518	0.972137	-0.096807
H125	H	0.349229	1.026557	-0.072403
H126	H	1.199825	-0.126521	0.044622
H127	H	0.747156	0.187033	0.336114
H128	H	1.521445	-0.090010	0.138949
H129	H	0.975563	-0.042839	0.185172
H130	H	0.921532	0.103383	0.219011
H131	H	0.802778	0.954355	-0.360757
H132	H	1.174699	0.319148	-0.097471
O133	O	0.802361	0.998058	0.170654
H134	H	0.794548	1.046961	0.201124
O135	O	0.915298	0.269264	0.222929
H136	H	0.929734	0.329360	0.213896
O137	O	0.399358	1.366080	-0.008218
H138	H	0.326323	1.405159	-0.063106
O139	O	1.738428	-0.114669	0.657681
H140	H	1.784499	-0.108554	0.698183
H141	H	0.609318	1.215853	0.118741
O142	O	1.006519	1.040269	-0.503522
H143	H	0.962290	1.010809	-0.501415
O144	O	1.481566	-0.018893	0.818813
H145	H	1.521752	-0.010633	0.863067
H146	H	0.992312	0.725807	-0.321726
O147	O	0.888911	0.133412	0.520952
H148	H	0.804299	0.224316	0.465288
O149	O	0.649193	1.144731	-0.561094
H150	H	0.737175	1.076660	-0.537687
H151	H	0.741418	0.480867	0.174101
O152	O	0.934540	0.854617	-0.507685
H153	H	0.992821	0.845977	-0.464629
H154	H	1.707221	-0.211063	0.260921
H155	H	0.999313	0.053180	0.704715
H156	H	0.743698	0.364719	0.238143
O157	O	0.572224	0.212414	0.322132
H158	H	0.488411	0.253269	0.299605
O159	O	0.266707	0.698874	0.053879
H160	H	0.284607	0.609564	0.103123
O161	O	1.754054	-0.149558	0.366532
H162	H	1.792338	-0.247433	0.431027
O163	O	0.262732	0.902450	-0.058377
H164	H	0.277647	0.965811	-0.093310
H165	H	1.131509	1.072626	-0.446929
O166	O	1.241899	0.992318	-0.263109
H167	H	1.239758	1.050872	-0.336787
O168	O	0.943329	0.835043	-0.671560
H169	H	0.906194	0.917829	-0.673877
O170	O	1.152285	0.369148	-0.414650
H171	H	1.147126	0.380647	-0.486479
O172	O	1.563869	0.079771	0.327428
H173	H	1.650442	0.014825	0.377347
H174	H	0.559036	0.887524	-0.050150
O175	O	0.392325	1.240540	-0.399985
H176	H	0.382814	1.285354	-0.364742
O177	O	1.328402	0.127787	0.087034
H178	H	1.336219	0.078914	0.056529
H179	H	1.127683	0.230015	0.586173
O180	O	1.172230	0.173387	0.061886
H181	H	1.234060	0.144350	0.121791
O182	O	0.908634	0.284280	0.350309
H183	H	0.864472	0.254729	0.352476
O184	O	1.557003	0.095061	0.454723
H185	H	1.644992	0.026990	0.478159
O186	O	1.700728	-0.171696	0.839764
H187	H	1.700453	-0.135217	0.880145
O188	O	1.300107	0.190883	0.615806
H189	H	1.302167	0.154847	0.693120
H190	H	0.578545	1.038019	-0.220157
H191	H	0.453104	1.270873	-0.556229
O192	O	0.376707	1.275403	-0.108841
H193	H	0.314922	1.359452	-0.113789
H194	H	0.569758	1.057576	-0.056908
H195	H	1.208566	0.853959	-0.118654
H196	H	1.003077	0.895833	-0.328489
