data_functionalizedCrystal
_audit_creation_method	'MofGen! by Chris Wilmer'
_symmetry_space_group_name_H-M	'P1'
_symmetry_Int_Tables_number	1
_symmetry_cell_setting	triclinic
loop_
_symmetry_equiv_pos_as_xyz
  x,y,z
_cell_length_a	11.792241
_cell_length_b	9.065218
_cell_length_c	8.140239
_cell_angle_alpha	89.998314
_cell_angle_beta	90.001855
_cell_angle_gamma	95.395350
loop_
_atom_site_label
_atom_site_type_symbol
_atom_site_fract_x
_atom_site_fract_y
_atom_site_fract_z
O1	O	1.508028	-0.202221	0.136574
O2	O	2.008028	0.297779	0.636574
O3	O	1.177802	-0.223063	0.136584
O4	O	1.677802	0.276937	0.636584
O5	O	1.349740	0.002064	0.136575
O6	O	1.849740	0.502064	0.636575
O7	O	1.336089	-0.427349	0.136582
O8	O	1.836089	0.072651	0.636582
O9	O	1.349731	0.002067	-0.136652
O10	O	1.849731	0.502067	0.363348
O11	O	1.177792	-0.223060	-0.136644
O12	O	1.677792	0.276940	0.363356
O13	O	1.508018	-0.202219	-0.136653
O14	O	2.008018	0.297781	0.363347
Zn15	Zn	1.342904	-0.212639	-0.180029
Zn16	Zn	1.842904	0.287361	0.319971
Zn17	Zn	1.342916	-0.212643	0.179959
Zn18	Zn	1.842916	0.287357	0.679959
O19	O	1.336079	-0.427346	-0.136645
O20	O	1.836079	0.072654	0.363355
C21	C	1.135499	-0.221752	-0.000029
C22	C	1.635499	0.278248	0.499971
C23	C	1.009464	-0.217834	-0.000025
C24	C	1.509464	0.282166	0.499975
C25	C	1.550321	-0.203529	-0.000037
C26	C	2.050321	0.296471	0.499963
C27	C	1.676356	-0.207448	-0.000030
C28	C	2.176356	0.292552	0.499970
C29	C	1.348424	0.057040	-0.000036
C30	C	1.848424	0.557040	0.499964
C31	C	1.344501	0.220846	-0.000028
C32	C	1.844501	0.720846	0.499972
C33	C	1.907108	-0.214653	-0.000031
C34	C	2.407108	0.285347	0.499969
C35	C	1.778701	-0.210650	-0.000031
C36	C	2.278701	0.289350	0.499969
C37	C	1.337396	-0.482322	-0.000030
C38	C	1.837396	0.017678	0.499970
C39	C	1.341319	-0.646128	-0.000028
C40	C	1.841319	-0.146128	0.499972
N41	N	1.342903	-0.212636	-0.425712
N42	N	1.842903	0.287364	0.074288
N43	N	1.342926	-0.212634	0.425642
N44	N	1.842926	0.287366	0.925642
