data_functionalizedCrystal
_audit_creation_method	'MofGen! by Chris Wilmer'
_symmetry_space_group_name_H-M	'P1'
_symmetry_Int_Tables_number	1
_symmetry_cell_setting	triclinic
loop_
_symmetry_equiv_pos_as_xyz
  x,y,z
_cell_length_a	11.792241
_cell_length_b	10.908878
_cell_length_c	10.268362
_cell_angle_alpha	89.996141
_cell_angle_beta	89.998512
_cell_angle_gamma	72.139103
loop_
_atom_site_label
_atom_site_type_symbol
_atom_site_fract_x
_atom_site_fract_y
_atom_site_fract_z
O1	O	-0.175074	1.702636	-0.108273
O2	O	-0.086560	1.329388	-0.108282
O3	O	-0.297747	1.525070	-0.108268
O4	O	0.036112	1.506955	-0.108287
O5	O	-0.297737	1.525051	0.108332
O6	O	-0.086551	1.329370	0.108319
O7	O	-0.175065	1.702617	0.108327
Cu8	Cu	-0.130807	1.515992	0.128100
Cu9	Cu	-0.130818	1.516014	-0.128055
O10	O	0.036122	1.506936	0.108314
C11	C	-0.078283	1.281595	0.000017
C12	C	-0.053649	1.139214	0.000014
C13	C	-0.143536	1.089579	0.000018
C14	C	-0.118077	0.942421	0.000015
C15	C	-0.339812	1.523923	0.000031
C16	C	-0.465164	1.520517	0.000030
C17	C	-0.694660	1.514254	0.000008
C18	C	-0.566951	1.517734	0.000020
C19	C	0.078187	1.508083	0.000011
C20	C	0.203539	1.511489	0.000004
C21	C	-0.183342	1.750411	0.000025
C22	C	-0.207976	1.892792	0.000020
N23	N	-0.130801	1.515985	0.308266
N24	N	-0.130835	1.516030	-0.308221
C25	C	-0.130803	1.515995	0.426108
C26	C	-0.130816	1.516011	0.573946
H27	H	0.042155	1.072763	0.000003
O28	O	-0.003753	0.863214	-0.000224
C29	C	0.055223	0.886981	-0.112389
H30	H	-0.013222	0.932371	-0.190791
H31	H	0.118498	0.792345	-0.150050
H32	H	0.108081	0.955441	-0.087026
H33	H	-0.303787	0.959238	0.000016
H34	H	-0.239339	1.156031	0.000018
