data_functionalizedCrystal
_audit_creation_method	'MofGen! by Chris Wilmer'
_symmetry_space_group_name_H-M	'P1'
_symmetry_Int_Tables_number	1
_symmetry_cell_setting	triclinic
loop_
_symmetry_equiv_pos_as_xyz
  x,y,z
_cell_length_a	15.944551
_cell_length_b	9.730223
_cell_length_c	10.654550
_cell_angle_alpha	90.004253
_cell_angle_beta	96.008166
_cell_angle_gamma	90.001200
loop_
_atom_site_label
_atom_site_type_symbol
_atom_site_fract_x
_atom_site_fract_y
_atom_site_fract_z
O1	O	1.115460	-0.114146	-0.161966
O2	O	0.871026	-0.114180	-0.181935
O3	O	0.998863	-0.114154	0.010862
O4	O	0.987623	-0.114173	-0.354762
O5	O	0.998855	0.114426	0.010867
O6	O	0.871018	0.114400	-0.181929
O7	O	1.115452	0.114434	-0.161961
Zn8	Zn	0.993234	0.150709	-0.171944
Zn9	Zn	0.993244	-0.150455	-0.171951
O10	O	0.987615	0.114407	-0.354757
C11	C	0.839723	0.000105	-0.181103
C12	C	0.746463	0.000093	-0.178618
N13	N	0.993232	0.356245	-0.171939
N14	N	0.993252	-0.355992	-0.171947
C15	C	0.530880	0.000126	-0.053173
C16	C	0.470201	-0.112579	-0.111428
C17	C	0.575711	0.000109	-0.174122
C18	C	0.470215	0.112783	-0.111451
C19	C	0.410773	0.000131	-0.169770
C20	C	0.516260	-0.112689	-0.232410
C21	C	0.516281	0.112774	-0.232416
C22	C	0.455620	0.000042	-0.290759
C23	C	0.670728	0.000095	-0.176625
C24	C	0.315757	0.000135	-0.167276
C25	C	1.146755	0.000145	-0.162792
C26	C	1.240015	0.000149	-0.165278
C27	C	0.998034	0.000135	0.057652
C28	C	0.995565	0.000133	0.197063
C29	C	1.049858	0.428183	-0.086604
C30	C	1.049866	0.572066	-0.086605
C31	C	0.936621	0.572061	-0.257285
C32	C	0.936609	0.428180	-0.257278
C33	C	0.988444	0.000115	-0.401547
C34	C	0.990913	0.000109	-0.540958
C35	C	1.070833	0.000143	0.277522
C36	C	1.068508	0.000126	0.408513
C37	C	0.915639	0.000095	0.378572
C38	C	0.917965	0.000102	0.247584
H39	H	0.563632	-0.000009	0.047204
Br40	Br	0.859748	0.330539	-0.373087
H41	H	0.449798	-0.207858	-0.060274
H42	H	0.536547	-0.208076	-0.283530
H43	H	1.095963	0.369617	-0.017115
H44	H	1.134019	0.000165	0.236393
Br45	Br	1.126714	0.669693	0.029217
Br46	Br	0.859779	0.669692	-0.373100
Br47	Br	1.170663	0.000131	0.517705
H48	H	0.423043	-0.000026	-0.391240
H49	H	0.856669	0.000090	0.182070
Br50	Br	0.550325	0.271587	-0.317610
Br51	Br	0.436237	0.271590	-0.026152
Br52	Br	0.810331	0.000048	0.447145
