data_functionalizedCrystal
_audit_creation_method	'MofGen! by Chris Wilmer'
_symmetry_space_group_name_H-M	'P1'
_symmetry_Int_Tables_number	1
_symmetry_cell_setting	triclinic
loop_
_symmetry_equiv_pos_as_xyz
  x,y,z
_cell_length_a	14.908571
_cell_length_b	14.908520
_cell_length_c	14.908803
_cell_angle_alpha	83.620611
_cell_angle_beta	89.810884
_cell_angle_gamma	90.205961
loop_
_atom_site_label
_atom_site_type_symbol
_atom_site_fract_x
_atom_site_fract_y
_atom_site_fract_z
Zn1	Zn	1.316499	-0.470814	0.613068
Zn2	Zn	1.816499	0.029186	1.113068
Zn3	Zn	1.316433	-0.613406	0.470431
Zn4	Zn	1.816433	-0.113406	0.970431
Zn5	Zn	1.175908	-0.453440	0.453127
Zn6	Zn	1.675908	0.046560	0.953127
Zn7	Zn	1.157491	-0.612381	0.612026
Zn8	Zn	1.657491	-0.112381	1.112026
O9	O	1.241583	-0.537510	0.537163
O10	O	1.741583	-0.037510	1.037163
O11	O	1.441846	-0.497429	0.601825
O12	O	1.941846	0.002571	1.101825
O13	O	1.305472	-0.585344	0.341942
O14	O	1.805472	-0.085344	0.841942
O15	O	1.202294	-0.329552	0.467538
O16	O	1.702294	0.170448	0.967538
O17	O	1.441797	-0.602191	0.497030
O18	O	1.941797	-0.102191	0.997030
O19	O	1.305585	-0.342316	0.585046
O20	O	1.805585	0.157684	1.085046
O21	O	1.202229	-0.467818	0.329229
O22	O	1.702229	0.032182	0.829229
O23	O	1.048110	-0.466824	0.466527
O24	O	1.548110	0.033176	0.966527
O25	O	1.170904	-0.600444	0.738357
O26	O	1.670904	-0.100444	1.238357
O27	O	1.034578	-0.583597	0.583269
O28	O	1.534578	-0.083597	1.083269
O29	O	1.287727	-0.496435	0.739123
O30	O	1.787727	0.003565	1.239123
O31	O	1.287613	-0.739463	0.496020
O32	O	1.787613	-0.239463	0.996020
O33	O	1.170839	-0.738710	0.600049
O34	O	1.670839	-0.238710	1.100049
C35	C	1.008841	-0.523215	0.522908
C36	C	1.508841	-0.023215	1.022908
C37	C	0.909270	-0.517122	0.516832
C38	C	1.409270	-0.017122	1.016832
C39	C	0.708123	-0.627440	0.626833
C40	C	1.208123	-0.127440	1.126833
C41	C	0.614567	-0.621718	0.621128
C42	C	1.114567	-0.121718	1.121128
C43	C	0.628600	-0.499953	0.499721
C44	C	1.128600	0.000047	0.999721
C45	C	0.722156	-0.505675	0.505426
C46	C	1.222156	-0.005675	1.005426
C47	C	0.761914	-0.569421	0.568984
C48	C	1.261914	-0.069421	1.068984
C49	C	0.855472	-0.575147	0.574684
C50	C	1.355472	-0.075147	1.074684
C51	C	0.869503	-0.453378	0.453282
C52	C	1.369503	0.046622	0.953282
C53	C	0.775947	-0.447657	0.447577
C54	C	1.275947	0.052343	0.947577
C55	C	1.227243	-0.771809	0.549820
C56	C	1.727243	-0.271809	1.049820
C57	C	1.221189	-0.872050	0.555270
C58	C	1.721189	-0.372050	1.055270
C59	C	1.331521	-1.061148	0.457286
C60	C	1.831521	-0.561148	0.957286
C61	C	1.325836	-1.155333	0.462404
C62	C	1.825836	-0.655333	0.962404
C63	C	1.204138	-1.154607	0.570628
C64	C	1.704138	-0.654607	1.070628
C65	C	1.209823	-1.060422	0.565510
C66	C	1.709823	-0.560422	1.065510
C67	C	1.273516	-1.013696	0.508836
C68	C	1.773516	-0.513696	1.008836
C69	C	1.279197	-0.919508	0.503714
C70	C	1.779197	-0.419508	1.003714
C71	C	1.157504	-0.918785	0.611942
C72	C	1.657504	-0.418785	1.111942
C73	C	1.151818	-1.012970	0.617060
C74	C	1.651818	-0.512970	1.117060
C75	C	1.475234	-0.551862	0.551474
C76	C	1.975234	-0.051862	1.051474
C77	C	1.574802	-0.557978	0.557573
C78	C	2.074802	-0.057978	1.057573
C79	C	1.227268	-0.550263	0.772376
C80	C	1.727268	-0.050263	1.272376
C81	C	1.221168	-0.555698	0.872609
C82	C	1.721168	-0.055698	1.372609
C83	C	1.256001	-0.302299	0.524478
C84	C	1.756001	0.197701	1.024478
C85	C	1.262146	-0.202066	0.519072
C86	C	1.762146	0.297934	1.019072
C87	C	1.331352	-0.457584	1.061756
C88	C	1.831352	0.042416	1.561756
C89	C	1.325623	-0.462687	1.155935
C90	C	1.825623	0.037313	1.655935
C91	C	1.203979	-0.571002	1.155146
C92	C	1.703979	-0.071002	1.655146
C93	C	1.209707	-0.565899	1.060967
C94	C	1.709707	-0.065899	1.560967
C95	C	1.273397	-0.509189	1.014276
C96	C	1.773397	-0.009189	1.514276
C97	C	1.279129	-0.504091	0.920096
C98	C	1.779129	-0.004091	1.420096
C99	C	1.157481	-0.612400	0.919308
C100	C	1.657481	-0.112400	1.419308
C101	C	1.151752	-0.617503	1.013487
C102	C	1.651752	-0.117503	1.513487
C103	C	1.255835	-0.524827	1.302866
C104	C	1.755835	-0.024827	1.802866
C105	C	1.261940	-0.519395	1.202633
C106	C	1.761940	-0.019395	1.702633
H107	H	0.570773	-0.668961	0.668237
H108	H	1.070773	-0.168961	1.168237
H109	H	0.913310	-0.406137	0.406175
H110	H	1.413310	0.093863	0.906175
H111	H	1.152288	-1.192669	0.616775
H112	H	1.652288	-0.692669	1.116775
N113	N	0.751008	-0.696200	0.695371
N114	N	1.251008	-0.196200	1.195371
H115	H	0.731673	-0.684799	0.758086
H116	H	1.231673	-0.184799	1.258086
H117	H	0.818428	-0.690987	0.690126
H118	H	1.318428	-0.190987	1.190126
N119	N	0.898351	-0.643899	0.643234
N120	N	1.398351	-0.143899	1.143234
H121	H	0.936867	-0.611958	0.685472
H122	H	1.436867	-0.111958	1.185472
H123	H	0.936794	-0.686003	0.611076
H124	H	1.436794	-0.186003	1.111076
H125	H	1.099897	-0.663673	1.051515
H126	H	1.599897	-0.163673	1.551515
H127	H	1.372814	-0.420663	1.194590
H128	H	1.872814	0.079337	1.694590
H129	H	0.596213	-0.448049	0.447981
H130	H	1.096213	0.051951	0.947981
H131	H	0.743563	-0.395754	0.395832
H132	H	1.243563	0.104246	0.895832
H133	H	1.331056	-0.881464	0.457565
H134	H	1.831056	-0.381464	0.957565
H135	H	1.330989	-0.457916	0.882082
H136	H	1.830989	0.042084	1.382082
N137	N	1.083125	-1.063370	0.678185
N138	N	1.583125	-0.563370	1.178185
H139	H	1.088324	-1.130237	0.673606
H140	H	1.588324	-0.630237	1.173606
H141	H	1.021009	-1.042280	0.659278
H142	H	1.521009	-0.542280	1.159278
H143	H	1.383377	-1.023102	0.411133
H144	H	1.883377	-0.523102	0.911133
H145	H	1.152126	-0.617172	1.193178
H146	H	1.652126	-0.117172	1.693178
N147	N	1.388400	-1.206516	0.406807
N148	N	1.888400	-0.706516	0.906807
H149	H	1.429610	-1.162620	0.370130
H150	H	1.929610	-0.662620	0.870130
H151	H	1.352153	-1.241142	0.364936
H152	H	1.852153	-0.741142	0.864936
N153	N	1.094972	-0.668071	0.868099
N154	N	1.594972	-0.168071	1.368099
H155	H	1.108266	-0.656238	0.801352
H156	H	1.608266	-0.156238	1.301352
H157	H	1.030852	-0.651005	0.879883
H158	H	1.530852	-0.151005	1.379883
H159	H	1.110269	-0.880138	0.653915
H160	H	1.610269	-0.380138	1.153915
N161	N	1.400049	-0.396433	1.011391
N162	N	1.900049	0.103567	1.511391
H163	H	1.435899	-0.364519	1.055761
H164	H	1.935899	0.135481	1.555761
H165	H	1.368522	-0.350343	0.967830
H166	H	1.868522	0.149657	1.467830
