data_functionalizedCrystal
_audit_creation_method	'MofGen! by Chris Wilmer'
_symmetry_space_group_name_H-M	'P1'
_symmetry_Int_Tables_number	1
_symmetry_cell_setting	triclinic
loop_
_symmetry_equiv_pos_as_xyz
  x,y,z
_cell_length_a	12.837943
_cell_length_b	17.666332
_cell_length_c	19.188924
_cell_angle_alpha	89.991448
_cell_angle_beta	91.014548
_cell_angle_gamma	90.008016
loop_
_atom_site_label
_atom_site_type_symbol
_atom_site_fract_x
_atom_site_fract_y
_atom_site_fract_z
O1	O	1.374632	0.062942	-0.181454
O2	O	1.874632	0.562942	0.318546
O3	O	1.072867	0.062946	-0.172490
O4	O	1.572867	0.562946	0.327510
O5	O	1.232461	0.062935	-0.075913
O6	O	1.732461	0.562935	0.424087
O7	O	1.215037	0.062953	-0.278030
O8	O	1.715037	0.562953	0.221970
O9	O	1.232433	-0.062962	-0.075906
O10	O	1.732433	0.437038	0.424094
O11	O	1.072839	-0.062950	-0.172483
O12	O	1.572839	0.437050	0.327517
O13	O	1.374604	-0.062955	-0.181446
O14	O	1.874604	0.437045	0.318554
Cu15	Cu	1.223719	-0.074448	-0.176964
Cu16	Cu	1.723719	0.425552	0.323036
Cu17	Cu	1.223752	0.074440	-0.176973
Cu18	Cu	1.723752	0.574440	0.323027
O19	O	1.215009	-0.062943	-0.278023
O20	O	1.715009	0.437057	0.221977
C21	C	1.034246	-0.000002	-0.169458
C22	C	1.534246	0.499998	0.330542
C23	C	0.919210	-0.000000	-0.160428
C24	C	1.419210	0.500000	0.339572
N25	N	1.223703	-0.179167	-0.176957
N26	N	1.723703	0.320833	0.323043
C27	C	0.677756	-0.000002	-0.268995
C28	C	1.177756	0.499998	0.231005
C29	C	0.569669	-0.000001	-0.260513
C30	C	1.069669	0.499999	0.239487
C31	C	0.594947	-0.000004	-0.134982
C32	C	1.094947	0.499996	0.365018
C33	C	0.703034	-0.000005	-0.143464
C34	C	1.203034	0.499995	0.356536
C35	C	0.744434	-0.000002	-0.210473
C36	C	1.244434	0.499998	0.289527
C37	C	0.852523	0.000003	-0.218954
C38	C	1.352523	0.500003	0.281046
C39	C	0.877800	-0.000006	-0.093424
C40	C	1.377800	0.499994	0.406576
C41	C	0.769713	-0.000005	-0.084941
C42	C	1.269713	0.499995	0.415059
C43	C	1.294394	-0.218782	-0.134218
C44	C	1.794394	0.281218	0.365782
C45	C	1.294400	-0.298030	-0.134215
C46	C	1.794400	0.201970	0.365785
C47	C	1.223725	-0.337659	-0.176964
C48	C	1.723725	0.162341	0.323036
C49	C	1.153021	-0.298035	-0.219706
C50	C	1.653021	0.201965	0.280294
C51	C	1.153010	-0.218789	-0.219703
C52	C	1.653010	0.281211	0.280297
N53	N	1.210251	-0.462073	-0.237848
N54	N	1.710251	0.037927	0.262152
N55	N	1.210268	-0.537353	-0.237849
N56	N	1.710268	-0.037353	0.262151
C57	C	1.223752	-0.576423	-0.176976
C58	C	1.723752	-0.076423	0.323024
N59	N	1.237240	-0.537370	-0.116100
N60	N	1.737240	-0.037370	0.383900
N61	N	1.237228	-0.462082	-0.116100
N62	N	1.737228	0.037918	0.383900
C63	C	1.223729	-0.423589	-0.176972
C64	C	1.723729	0.076411	0.323028
C65	C	1.294454	-0.701967	-0.134229
C66	C	1.794454	-0.201967	0.365771
C67	C	1.294453	-0.781217	-0.134225
C68	C	1.794453	-0.281217	0.365775
C69	C	1.153078	-0.781221	-0.219723
C70	C	1.653078	-0.281221	0.280277
C71	C	1.153074	-0.701973	-0.219721
C72	C	1.653074	-0.201973	0.280279
C73	C	1.223768	-0.662351	-0.176975
C74	C	1.723768	-0.162351	0.323025
C75	C	1.413224	-0.000005	-0.184478
C76	C	1.913224	0.499995	0.315522
C77	C	1.528260	-0.000001	-0.193509
C78	C	2.028260	0.499999	0.306491
C79	C	1.231884	-0.000014	-0.049860
C80	C	1.731884	0.499986	0.450140
C81	C	1.230194	-0.000016	0.027761
C82	C	1.730194	0.499984	0.527761
N83	N	1.223776	0.179159	-0.176974
N84	N	1.723776	0.679159	0.323026
C85	C	1.215586	0.000007	-0.304076
C86	C	1.715586	0.500007	0.195924
C87	C	1.217277	0.000014	-0.381697
C88	C	1.717277	0.500014	0.118303
C89	C	1.229420	0.068611	0.064210
C90	C	1.729420	0.568611	0.564210
C91	C	1.227817	0.068616	0.137142
C92	C	1.727817	0.568616	0.637142
C93	C	1.227009	-0.000008	0.173624
C94	C	1.727009	0.499992	0.673624
C95	C	1.227777	-0.068644	0.137166
C96	C	1.727777	0.431356	0.637166
C97	C	1.229370	-0.068648	0.064234
C98	C	1.729370	0.431352	0.564234
N99	N	1.283470	-0.051085	0.289417
N100	N	1.783470	0.448915	0.789417
N101	N	1.281960	-0.051076	0.358699
N102	N	1.781960	0.448924	0.858699
C103	C	1.222209	-0.000001	0.393362
C104	C	1.722209	0.499999	0.893362
N105	N	1.164039	0.051078	0.356127
N106	N	1.664039	0.551078	0.856127
N107	N	1.165554	0.051071	0.286839
N108	N	1.665554	0.551071	0.786839
C109	C	1.225282	-0.000012	0.252706
C110	C	1.725282	0.499988	0.752706
C111	C	1.219696	0.068637	0.508893
C112	C	1.719696	0.568637	1.008893
C113	C	1.218087	0.068640	0.581827
C114	C	1.718087	0.568640	1.081827
C115	C	1.218057	-0.068623	0.581849
C116	C	1.718057	0.431377	1.081849
C117	C	1.219655	-0.068624	0.508916
C118	C	1.719655	0.431376	1.008916
C119	C	1.220480	0.000008	0.472443
C120	C	1.720480	0.500008	0.972443
H121	H	0.886229	0.000003	-0.273516
H122	H	1.386229	0.500003	0.226484
H123	H	0.711464	0.000002	-0.323557
H124	H	1.211464	0.500002	0.176443
H125	H	1.220361	0.124521	0.479194
H126	H	1.720361	0.624521	0.979194
H127	H	1.217391	-0.124498	0.611551
H128	H	1.717391	0.375502	1.111551
C129	C	1.220524	-0.144114	0.468821
C130	C	1.720524	0.355886	0.968821
H131	H	1.219822	-0.184984	0.500992
H132	H	1.719822	0.315016	1.000992
H133	H	1.160729	-0.146970	0.439063
H134	H	1.660729	0.353030	0.939063
H135	H	1.281573	-0.146966	0.441680
H136	H	1.781573	0.353034	0.941680
H137	H	0.735989	-0.000016	-0.030385
H138	H	1.235989	0.499984	0.469615
C139	C	1.230230	-0.144140	0.024139
C140	C	1.730230	0.355860	0.524139
H141	H	1.229524	-0.185011	0.056309
H142	H	1.729524	0.314989	0.556309
H143	H	1.170437	-0.146994	-0.005621
H144	H	1.670437	0.353006	0.494379
H145	H	1.291281	-0.146993	-0.003000
H146	H	1.791281	0.353007	0.497000
C147	C	1.372211	-0.824796	-0.087207
C148	C	1.872211	-0.324796	0.412793
H149	H	1.362085	-0.877668	-0.093323
H150	H	1.862085	-0.377668	0.406677
H151	H	1.441333	-0.811799	-0.099417
H152	H	1.941333	-0.311799	0.400583
H153	H	1.361169	-0.811817	-0.039867
H154	H	1.861169	-0.311817	0.460133
H155	H	0.515382	-0.000002	-0.308169
H156	H	1.015382	0.499998	0.191831
H157	H	0.561220	-0.000069	-0.080426
H158	H	1.061220	0.499931	0.419574
C159	C	0.951148	-0.000006	-0.029046
C160	C	1.451148	0.499994	0.470954
H161	H	1.021452	-0.000009	-0.043693
H162	H	1.521452	0.499991	0.456307
H163	H	0.938632	0.043896	-0.001873
H164	H	1.438632	0.543896	0.498127
H165	H	0.938623	-0.043915	-0.001862
H166	H	1.438623	0.456085	0.498138
C167	C	1.372143	-0.175202	-0.087192
C168	C	1.872143	0.324798	0.412808
H169	H	1.414238	-0.210150	-0.061732
H170	H	1.914238	0.289850	0.438268
H171	H	1.415158	-0.144271	-0.115183
H172	H	1.915158	0.355729	0.384817
H173	H	1.334988	-0.144306	-0.055636
H174	H	1.834988	0.355694	0.444364
C175	C	1.372165	-0.341615	-0.087201
C176	C	1.872165	0.158385	0.412799
H177	H	1.414268	-0.306668	-0.061746
H178	H	1.914268	0.193332	0.438254
H179	H	1.335032	-0.372544	-0.055652
H180	H	1.835032	0.127456	0.444348
H181	H	1.415187	-0.372513	-0.115208
H182	H	1.915187	0.127487	0.384792
C183	C	1.075283	-0.341625	-0.266731
C184	C	1.575283	0.158375	0.233269
H185	H	1.085421	-0.394495	-0.260618
H186	H	1.585421	0.105505	0.239382
H187	H	1.006157	-0.328655	-0.254523
H188	H	1.506157	0.171345	0.245477
H189	H	1.086325	-0.328623	-0.314070
H190	H	1.586325	0.171377	0.185930
C191	C	1.075254	-0.175211	-0.266724
C192	C	1.575254	0.324789	0.233276
H193	H	1.033164	-0.210160	-0.292187
H194	H	1.533164	0.289840	0.207813
H195	H	1.032233	-0.144306	-0.238729
H196	H	1.532233	0.355694	0.261271
H197	H	1.112402	-0.144289	-0.298277
H198	H	1.612402	0.355711	0.201723
H199	H	1.352014	-0.669706	-0.099421
H200	H	1.852014	-0.169706	0.400579
C201	C	1.075336	-0.824804	-0.266746
C202	C	1.575336	-0.324804	0.233254
H203	H	1.085470	-0.877675	-0.260630
H204	H	1.585470	-0.377675	0.239370
H205	H	1.006211	-0.811830	-0.254538
H206	H	1.506211	-0.311830	0.245462
H207	H	1.086380	-0.811805	-0.314086
H208	H	1.586380	-0.311805	0.185914
H209	H	1.095515	-0.669717	-0.254526
H210	H	1.595515	-0.169717	0.245474
C211	C	1.230324	0.144100	0.024089
C212	C	1.730324	0.644100	0.524089
H213	H	1.231393	0.134272	-0.024567
H214	H	1.731393	0.634272	0.475433
H215	H	1.169656	0.172306	0.034731
H216	H	1.669656	0.672306	0.534731
H217	H	1.290500	0.172291	0.037344
H218	H	1.790500	0.672291	0.537344
C219	C	1.227008	0.144108	0.177245
C220	C	1.727008	0.644108	0.677245
H221	H	1.227743	0.184981	0.145078
H222	H	1.727743	0.684981	0.645078
H223	H	1.165983	0.146985	0.204401
H224	H	1.665983	0.646985	0.704401
H225	H	1.286827	0.146937	0.206990
H226	H	1.786827	0.646937	0.706990
C227	C	1.226891	-0.144129	0.177292
C228	C	1.726891	0.355871	0.677292
H229	H	1.225842	-0.134298	0.225949
H230	H	1.725842	0.365702	0.725949
H231	H	1.166727	-0.172327	0.164041
H232	H	1.666727	0.327673	0.664041
H233	H	1.287570	-0.172328	0.166649
H234	H	1.787570	0.327672	0.666649
C235	C	1.217231	0.144133	0.621921
C236	C	1.717231	0.644133	1.121921
H237	H	1.217958	0.185003	0.589750
H238	H	1.717958	0.685003	1.089750
H239	H	1.156190	0.146992	0.649062
H240	H	1.656190	0.646992	1.149062
H241	H	1.277033	0.146982	0.651679
H242	H	1.777033	0.646982	1.151679
