data_functionalizedCrystal
_audit_creation_method	'MofGen! by Chris Wilmer'
_symmetry_space_group_name_H-M	'P1'
_symmetry_Int_Tables_number	1
_symmetry_cell_setting	triclinic
loop_
_symmetry_equiv_pos_as_xyz
  x,y,z
_cell_length_a	18.215407
_cell_length_b	10.686203
_cell_length_c	18.215399
_cell_angle_alpha	94.390030
_cell_angle_beta	89.985640
_cell_angle_gamma	94.368033
loop_
_atom_site_label
_atom_site_type_symbol
_atom_site_fract_x
_atom_site_fract_y
_atom_site_fract_z
Zn1	Zn	1.147607	0.502418	-0.393667
Zn2	Zn	1.397607	0.752418	-0.143667
Zn3	Zn	1.647607	1.002418	0.106333
Zn4	Zn	1.897607	1.252418	0.356333
Zn5	Zn	1.156997	0.713445	-0.261192
Zn6	Zn	1.406997	0.963445	-0.011192
Zn7	Zn	1.656997	1.213445	0.238808
Zn8	Zn	1.906997	1.463445	0.488808
Zn9	Zn	1.024548	0.502457	-0.270618
Zn10	Zn	1.274548	0.752457	-0.020618
Zn11	Zn	1.524548	1.002457	0.229382
Zn12	Zn	1.774548	1.252457	0.479382
Zn13	Zn	1.033976	0.713354	-0.384226
Zn14	Zn	1.283976	0.963354	-0.134226
Zn15	Zn	1.533976	1.213354	0.115774
Zn16	Zn	1.783976	1.463354	0.365774
O17	O	1.090782	0.607919	-0.327426
O18	O	1.340782	0.857919	-0.077426
O19	O	1.590782	1.107919	0.172574
O20	O	1.840782	1.357919	0.422574
O21	O	1.251838	0.530433	-0.376100
O22	O	1.501838	0.780433	-0.126100
O23	O	1.751838	1.030433	0.123900
O24	O	2.001838	1.280433	0.373900
O25	O	1.139411	0.685511	-0.159455
O26	O	1.389411	0.935511	0.090545
O27	O	1.639411	1.185511	0.340545
O28	O	1.889411	1.435511	0.590545
O29	O	1.032997	0.325876	-0.294836
O30	O	1.282997	0.575876	-0.044836
O31	O	1.532997	0.825876	0.205164
O32	O	1.782997	1.075876	0.455164
O33	O	1.258737	0.685473	-0.278771
O34	O	1.508737	0.935473	-0.028771
O35	O	1.758737	1.185473	0.221229
O36	O	2.008737	1.435473	0.471229
O37	O	1.123408	0.325847	-0.385240
O38	O	1.373408	0.575847	-0.135240
O39	O	1.623408	0.825847	0.114760
O40	O	1.873408	1.075847	0.364760
O41	O	1.042102	0.530499	-0.166381
O42	O	1.292102	0.780499	0.083619
O43	O	1.542102	1.030499	0.333619
O44	O	1.792102	1.280499	0.583619
O45	O	0.922814	0.530412	-0.285682
O46	O	1.172814	0.780412	-0.035682
O47	O	1.422814	1.030412	0.214318
O48	O	1.672814	1.280412	0.464318
O49	O	1.049066	0.685319	-0.488465
O50	O	1.299066	0.935319	-0.238465
O51	O	1.549066	1.185319	0.011535
O52	O	1.799066	1.435319	0.261535
O53	O	0.929741	0.685357	-0.369149
O54	O	1.179741	0.935357	-0.119149
O55	O	1.429741	1.185357	0.130851
O56	O	1.679741	1.435357	0.380851
O57	O	1.132550	0.530345	-0.495401
O58	O	1.382550	0.780345	-0.245401
O59	O	1.632550	1.030345	0.004599
O60	O	1.882550	1.280345	0.254599
O61	O	1.148553	0.890009	-0.269617
O62	O	1.398553	1.140009	-0.019617
O63	O	1.648553	1.390009	0.230383
O64	O	1.898553	1.640009	0.480383
O65	O	1.058171	0.889943	-0.360009
O66	O	1.308171	1.139943	-0.110009
O67	O	1.558171	1.389943	0.139991
O68	O	1.808171	1.639943	0.389991
C69	C	0.899574	0.607880	-0.327414
C70	C	1.149574	0.857880	-0.077414
C71	C	1.399574	1.107880	0.172586
C72	C	1.649574	1.357880	0.422586
C73	C	0.817776	0.607894	-0.327426
C74	C	1.067776	0.857894	-0.077426
C75	C	1.317776	1.107894	0.172574
C76	C	1.567776	1.357894	0.422574
C77	C	0.625996	0.527331	-0.378172
C78	C	0.875996	0.777331	-0.128172
C79	C	1.125996	1.027331	0.121828
C80	C	1.375996	1.277331	0.371828
C81	C	0.549138	0.527341	-0.378174
C82	C	0.799138	0.777341	-0.128174
C83	C	1.049138	1.027341	0.121826
C84	C	1.299138	1.277341	0.371826
C85	C	0.556322	0.688542	-0.276691
C86	C	0.806322	0.938542	-0.026691
C87	C	1.056322	1.188542	0.223309
C88	C	1.306322	1.438542	0.473309
C89	C	0.633178	0.688524	-0.276686
C90	C	0.883178	0.938524	-0.026686
C91	C	1.133178	1.188524	0.223314
C92	C	1.383178	1.438524	0.473314
C93	C	0.668014	0.607920	-0.327430
C94	C	0.918014	0.857920	-0.077430
C95	C	1.168014	1.107920	0.172570
C96	C	1.418014	1.357920	0.422570
C97	C	0.514299	0.607949	-0.327437
C98	C	0.764299	0.857949	-0.077437
C99	C	1.014299	1.107949	0.172563
C100	C	1.264299	1.357949	0.422563
C101	C	0.430966	0.607961	-0.327439
C102	C	0.680966	0.857961	-0.077439
C103	C	0.930966	1.107961	0.172561
C104	C	1.180966	1.357961	0.422561
C105	C	0.751352	0.607906	-0.327428
C106	C	1.001352	0.857906	-0.077428
C107	C	1.251352	1.107906	0.172572
C108	C	1.501352	1.357906	0.422572
C109	C	1.105424	0.935760	-0.312782
C110	C	1.355424	1.185760	-0.062782
C111	C	1.605424	1.435760	0.187218
C112	C	1.855424	1.685760	0.437218
C113	C	1.111755	1.076012	-0.306542
C114	C	1.361755	1.326012	-0.056542
C115	C	1.611755	1.576012	0.193458
C116	C	1.861755	1.826012	0.443458
C117	C	1.282737	0.607959	-0.327437
C118	C	1.532737	0.857959	-0.077437
C119	C	1.782737	1.107959	0.172563
C120	C	2.032737	1.357959	0.422563
C121	C	1.364537	0.607976	-0.327442
C122	C	1.614537	0.857976	-0.077442
C123	C	1.864537	1.107976	0.172558
C124	C	2.114537	1.357976	0.422558
C125	C	1.090812	0.607818	-0.519383
C126	C	1.340812	0.857818	-0.269383
C127	C	1.590812	1.107818	-0.019383
C128	C	1.840812	1.357818	0.230617
C129	C	1.090825	0.607775	-0.601184
C130	C	1.340825	0.857775	-0.351184
C131	C	1.590825	1.107775	-0.101184
C132	C	1.840825	1.357775	0.148816
C133	C	1.076096	1.278797	-0.342150
C134	C	1.326096	1.528797	-0.092150
C135	C	1.576096	1.778797	0.157850
C136	C	1.826096	2.028797	0.407850
C137	C	1.069820	1.138545	-0.348445
C138	C	1.319820	1.388545	-0.098445
C139	C	1.569820	1.638545	0.151555
C140	C	1.819820	1.888545	0.401555
C141	C	1.040194	0.527006	-0.792987
C142	C	1.290194	0.777006	-0.542987
C143	C	1.540194	1.027006	-0.292987
C144	C	1.790194	1.277006	-0.042987
C145	C	1.040205	0.526981	-0.869847
C146	C	1.290205	0.776981	-0.619847
C147	C	1.540205	1.026981	-0.369847
C148	C	1.790205	1.276981	-0.119847
C149	C	1.141538	0.688393	-0.862625
C150	C	1.391538	0.938393	-0.612625
C151	C	1.641538	1.188393	-0.362625
C152	C	1.891538	1.438393	-0.112625
C153	C	1.141523	0.688424	-0.785766
C154	C	1.391523	0.938424	-0.535766
C155	C	1.641523	1.188424	-0.285766
C156	C	1.891523	1.438424	-0.035766
C157	C	1.090851	0.607723	-0.750950
C158	C	1.340851	0.857723	-0.500950
C159	C	1.590851	1.107723	-0.250950
C160	C	1.840851	1.357723	-0.000950
C161	C	1.090878	0.607667	-0.904668
C162	C	1.340878	0.857667	-0.654668
C163	C	1.590878	1.107667	-0.404668
C164	C	1.840878	1.357667	-0.154668
C165	C	1.090891	0.607640	-0.988003
C166	C	1.340891	0.857640	-0.738003
C167	C	1.590891	1.107640	-0.488003
C168	C	1.840891	1.357640	-0.238003
C169	C	1.090837	0.607752	-0.667609
C170	C	1.340837	0.857752	-0.417609
C171	C	1.590837	1.107752	-0.167609
C172	C	1.840837	1.357752	0.082391
C173	C	1.090790	0.607928	-0.136219
C174	C	1.340790	0.857928	0.113781
C175	C	1.590790	1.107928	0.363781
C176	C	1.840790	1.357928	0.613781
C177	C	1.090904	0.607616	-0.054434
C178	C	1.340904	0.857616	0.195566
C179	C	1.590904	1.107616	0.445566
C180	C	1.840904	1.357616	0.695566
H181	H	0.514931	0.461715	-0.419491
H182	H	0.764931	0.711715	-0.169491
H183	H	1.014931	0.961715	0.080509
H184	H	1.264931	1.211715	0.330509
H185	H	0.998933	0.461295	-0.764642
H186	H	1.248933	0.711295	-0.514642
H187	H	1.498933	0.961295	-0.264642
H188	H	1.748933	1.211295	-0.014642
H189	H	1.029075	1.084787	-0.389095
H190	H	1.279075	1.334787	-0.139095
H191	H	1.529075	1.584787	0.110905
H192	H	1.779075	1.834787	0.360905
H193	H	1.152498	1.129778	-0.265884
H194	H	1.402498	1.379778	-0.015884
H195	H	1.652498	1.629778	0.234116
H196	H	1.902498	1.879778	0.484116
F197	F	1.195465	0.774274	-0.899686
F198	F	1.445465	1.024274	-0.649686
F199	F	1.695465	1.274274	-0.399686
F200	F	1.945465	1.524274	-0.149686
H201	H	1.182776	0.754159	-0.751538
H202	H	1.432776	1.004159	-0.501538
H203	H	1.682776	1.254159	-0.251538
H204	H	1.932776	1.504159	-0.001538
H205	H	0.998954	0.461254	-0.904071
H206	H	1.248954	0.711254	-0.654071
H207	H	1.498954	0.961254	-0.404071
H208	H	1.748954	1.211254	-0.154071
F209	F	0.519241	0.774325	-0.222689
F210	F	0.769241	1.024325	0.027311
F211	F	1.019241	1.274325	0.277311
F212	F	1.269241	1.524325	0.527311
H213	H	0.667390	0.754151	-0.235362
H214	H	0.917390	1.004151	0.014638
H215	H	1.167390	1.254151	0.264638
H216	H	1.417390	1.504151	0.514638
F217	F	0.663068	0.441541	-0.432177
F218	F	0.913068	0.691541	-0.182177
F219	F	1.163068	0.941541	0.067823
F220	F	1.413068	1.191541	0.317823
