data_functionalizedCrystal
_audit_creation_method	'MofGen! by Chris Wilmer'
_symmetry_space_group_name_H-M	'P1'
_symmetry_Int_Tables_number	1
_symmetry_cell_setting	triclinic
loop_
_symmetry_equiv_pos_as_xyz
  x,y,z
_cell_length_a	25.639243
_cell_length_b	25.639239
_cell_length_c	25.639234
_cell_angle_alpha	89.975095
_cell_angle_beta	89.976852
_cell_angle_gamma	90.041410
loop_
_atom_site_label
_atom_site_type_symbol
_atom_site_fract_x
_atom_site_fract_y
_atom_site_fract_z
Zn1	Zn	0.799262	-0.208145	-0.295656
Zn2	Zn	1.132596	0.125189	0.037678
Zn3	Zn	1.465929	0.458522	0.371011
Zn4	Zn	0.799175	-0.295573	-0.208220
Zn5	Zn	1.132508	0.037761	0.125113
Zn6	Zn	1.465841	0.371094	0.458447
Zn7	Zn	0.711828	-0.208157	-0.208229
Zn8	Zn	1.045161	0.125176	0.125104
Zn9	Zn	1.378494	0.458509	0.458437
Zn10	Zn	0.711784	-0.295555	-0.295619
Zn11	Zn	1.045117	0.037778	0.037714
Zn12	Zn	1.378450	0.371112	0.371047
O13	O	0.755512	-0.251857	-0.251931
O14	O	1.088845	0.081476	0.081402
O15	O	1.422179	0.414809	0.414736
O16	O	0.872416	-0.219744	-0.284069
O17	O	1.205749	0.113589	0.049265
O18	O	1.539082	0.446922	0.382598
O19	O	0.787570	-0.283990	-0.135056
O20	O	1.120903	0.049344	0.198277
O21	O	1.454236	0.382677	0.531611
O22	O	0.723481	-0.134990	-0.219846
O23	O	1.056814	0.198343	0.113488
O24	O	1.390148	0.531676	0.446821
O25	O	0.872351	-0.283977	-0.219830
O26	O	1.205685	0.049356	0.113503
O27	O	1.539018	0.382689	0.446837
O28	O	0.787719	-0.134981	-0.284077
O29	O	1.121052	0.198352	0.049256
O30	O	1.454385	0.531686	0.382589
O31	O	0.723396	-0.219766	-0.135063
O32	O	1.056729	0.113567	0.198270
O33	O	1.390063	0.446901	0.531604
O34	O	0.638656	-0.219749	-0.219810
O35	O	0.971990	0.113585	0.113523
O36	O	1.305323	0.446918	0.446856
O37	O	0.723406	-0.283947	-0.368789
O38	O	1.056739	0.049386	-0.035456
O39	O	1.390073	0.382720	0.297877
O40	O	0.638624	-0.283959	-0.284016
O41	O	0.971958	0.049374	0.049318
O42	O	1.305291	0.382707	0.382651
O43	O	0.787676	-0.219727	-0.368816
O44	O	1.121010	0.113606	-0.035483
O45	O	1.454343	0.446940	0.297851
O46	O	0.787527	-0.368736	-0.219795
O47	O	1.120860	-0.035402	0.113539
O48	O	1.454194	0.297931	0.446872
O49	O	0.723321	-0.368723	-0.284007
O50	O	1.056655	-0.035389	0.049327
O51	O	1.389988	0.297944	0.382660
C52	C	0.619669	-0.251854	-0.251910
C53	C	0.953003	0.081479	0.081423
C54	C	1.286336	0.414813	0.414756
C55	C	0.561555	-0.251865	-0.251914
C56	C	0.894889	0.081468	0.081419
C57	C	1.228222	0.414802	0.414753
C58	C	0.201220	-0.218464	-0.285436
C59	C	0.534554	0.114870	0.047897
C60	C	0.867887	0.448203	0.381231
C61	C	0.146616	-0.218463	-0.285439
C62	C	0.479949	0.114870	0.047894
C63	C	0.813283	0.448203	0.381227
O64	O	0.118403	-0.190055	-0.313915
O65	O	0.451736	0.143279	0.019418
O66	O	0.785070	0.476612	0.352752
N67	N	0.119273	-0.251856	-0.251945
N68	N	0.452606	0.081477	0.081388
N69	N	0.785940	0.414811	0.414721
C70	C	0.146537	-0.285247	-0.218443
C71	C	0.479870	0.048086	0.114891
C72	C	0.813204	0.381419	0.448224
O73	O	0.118266	-0.313650	-0.189954
O74	O	0.451599	0.019683	0.143380
O75	O	0.784932	0.353017	0.476713
C76	C	0.201140	-0.285245	-0.218437
C77	C	0.534474	0.048089	0.114896
C78	C	0.867807	0.381422	0.448230
C79	C	0.228481	-0.251854	-0.251937
C80	C	0.561814	0.081480	0.081397
C81	C	0.895147	0.414813	0.414730
C82	C	0.228560	-0.185075	-0.318932
C83	C	0.561894	0.148258	0.014401
C84	C	0.895227	0.481592	0.347734
C85	C	0.283161	-0.185076	-0.318930
C86	C	0.616494	0.148257	0.014404
C87	C	0.949828	0.481590	0.347737
C88	C	0.310421	-0.218466	-0.285431
C89	C	0.643755	0.114867	0.047903
C90	C	0.977088	0.448200	0.381236
C91	C	0.283081	-0.251855	-0.251934
C92	C	0.616414	0.081478	0.081399
C93	C	0.949748	0.414812	0.414733
C94	C	0.228404	-0.318633	-0.184932
C95	C	0.561737	0.014700	0.148401
C96	C	0.895070	0.348034	0.481735
C97	C	0.283011	-0.318627	-0.184929
C98	C	0.616344	0.014706	0.148404
C99	C	0.949677	0.348039	0.481737
C100	C	0.310351	-0.285236	-0.218429
C101	C	0.643684	0.048097	0.114905
C102	C	0.977017	0.381430	0.448238
C103	C	0.364942	-0.285246	-0.218432
C104	C	0.698275	0.048087	0.114901
C105	C	1.031609	0.381420	0.448234
N106	N	0.392285	-0.251854	-0.251926
N107	N	0.725618	0.081480	0.081407
N108	N	1.058952	0.414813	0.414741
C109	C	0.365025	-0.218464	-0.285425
C110	C	0.698358	0.114870	0.047908
C111	C	1.031691	0.448203	0.381242
C112	C	0.031866	-0.285250	-0.218456
C113	C	0.365200	0.048084	0.114877
C114	C	0.698533	0.381417	0.448211
C115	C	-0.022736	-0.285255	-0.218464
C116	C	0.310597	0.048078	0.114870
C117	C	0.643931	0.381411	0.448203
C118	C	-0.022653	-0.218470	-0.285460
C119	C	0.310680	0.114863	0.047874
C120	C	0.644013	0.448196	0.381207
C121	C	0.031950	-0.218468	-0.285454
C122	C	0.365283	0.114866	0.047879
C123	C	0.698617	0.448199	0.381212
C124	C	0.059209	-0.251857	-0.251950
C125	C	0.392543	0.081476	0.081384
C126	C	0.725876	0.414810	0.414717
C127	C	0.479690	-0.218469	-0.285417
C128	C	0.813023	0.114864	0.047916
C129	C	1.146356	0.448197	0.381249
C130	C	0.534295	-0.218475	-0.285413
C131	C	0.867628	0.114858	0.047920
C132	C	1.200962	0.448192	0.381254
C133	C	0.534208	-0.285258	-0.218415
C134	C	0.867541	0.048076	0.114918
C135	C	1.200874	0.381409	0.448251
C136	C	0.479607	-0.285254	-0.218421
C137	C	0.812940	0.048079	0.114912
C138	C	1.146274	0.381413	0.448245
C139	C	0.452349	-0.251856	-0.251924
C140	C	0.785683	0.081478	0.081409
C141	C	1.119016	0.414811	0.414743
O142	O	0.393190	-0.313639	-0.189969
O143	O	0.726523	0.019694	0.143364
O144	O	1.059856	0.353028	0.476697
O145	O	0.393303	-0.190061	-0.313904
O146	O	0.726636	0.143272	0.019429
O147	O	1.059969	0.476606	0.352762
C148	C	0.755424	-0.387700	-0.251907
C149	C	1.088757	-0.054367	0.081426
C150	C	1.422091	0.278967	0.414759
C151	C	0.755434	-0.445814	-0.251914
C152	C	1.088768	-0.112481	0.081419
C153	C	1.422101	0.220853	0.414752
C154	C	0.789031	-0.806171	-0.218553
C155	C	1.122365	-0.472838	0.114780
C156	C	1.455698	-0.139505	0.448114
C157	C	0.789051	-0.860776	-0.218560
C158	C	1.122385	-0.527442	0.114773
C159	C	1.455718	-0.194109	0.448107
O160	O	0.817526	-0.889007	-0.190169
O161	O	1.150859	-0.555674	0.143165
O162	O	1.484192	-0.222341	0.476498
N163	N	0.755604	-0.888096	-0.251966
N164	N	1.088937	-0.554763	0.081368
N165	N	1.422271	-0.221430	0.414701
C166	C	0.722138	-0.860810	-0.285371
C167	C	1.055471	-0.527477	0.047963
C168	C	1.388804	-0.194144	0.381296
O169	O	0.693690	-0.889063	-0.313786
O170	O	1.027023	-0.555729	0.019548
O171	O	1.360357	-0.222396	0.352881
C172	C	0.722120	-0.806207	-0.285366
C173	C	1.055454	-0.472874	0.047968
C174	C	1.388787	-0.139540	0.381301
C175	C	0.755566	-0.778889	-0.251954
C176	C	1.088900	-0.445556	0.081379
C177	C	1.422233	-0.112222	0.414713
C178	C	0.822475	-0.778853	-0.185144
C179	C	1.155808	-0.445520	0.148189
C180	C	1.489142	-0.112187	0.481522
C181	C	0.822454	-0.724253	-0.185137
C182	C	1.155787	-0.390919	0.148197
C183	C	1.489121	-0.057586	0.481530
C184	C	0.788989	-0.696970	-0.218538
C185	C	1.122322	-0.363637	0.114795
C186	C	1.455656	-0.030304	0.448129
C187	C	0.755545	-0.724288	-0.251946
C188	C	1.088879	-0.390955	0.081387
C189	C	1.422212	-0.057622	0.414720
C190	C	0.688657	-0.778922	-0.318773
C191	C	1.021990	-0.445588	0.014561
C192	C	1.355324	-0.112255	0.347894
C193	C	0.688643	-0.724315	-0.318765
C194	C	1.021976	-0.390981	0.014568
C195	C	1.355310	-0.057648	0.347901
C196	C	0.722089	-0.696997	-0.285354
C197	C	1.055422	-0.363663	0.047980
C198	C	1.388756	-0.030330	0.381313
C199	C	0.722059	-0.642405	-0.285340
C200	C	1.055393	-0.309072	0.047993
C201	C	1.388726	0.024261	0.381327
N202	N	0.755507	-0.615084	-0.251934
N203	N	1.088840	-0.281751	0.081399
N204	N	1.422174	0.051582	0.414732
C205	C	0.788972	-0.642367	-0.218533
C206	C	1.122305	-0.309034	0.114800
C207	C	1.455638	0.024300	0.448134
C208	C	0.722177	-0.975481	-0.285379
C209	C	1.055510	-0.642147	0.047955
C210	C	1.388844	-0.308814	0.381288
C211	C	0.722191	-1.030083	-0.285381
C212	C	1.055525	-0.696750	0.047952
C213	C	1.388858	-0.363416	0.381286
C214	C	0.789106	-1.030045	-0.218571
C215	C	1.122439	-0.696711	0.114762
C216	C	1.455773	-0.363378	0.448096
C217	C	0.789089	-0.975441	-0.218566
C218	C	1.122422	-0.642108	0.114767
C219	C	1.455755	-0.308775	0.448100
C220	C	0.755625	-0.948160	-0.251973
C221	C	1.088958	-0.614827	0.081361
C222	C	1.422291	-0.281493	0.414694
C223	C	0.788925	-0.527702	-0.218519
C224	C	1.122258	-0.194369	0.114814
C225	C	1.455591	0.138965	0.448147
C226	C	0.788899	-0.473097	-0.218513
C227	C	1.122232	-0.139763	0.114820
C228	C	1.455566	0.193570	0.448153
C229	C	0.721987	-0.473140	-0.285325
C230	C	1.055320	-0.139806	0.048008
C231	C	1.388653	0.193527	0.381342
C232	C	0.722010	-0.527740	-0.285330
C233	C	1.055343	-0.194407	0.048004
C234	C	1.388677	0.138926	0.381337
C235	C	0.755483	-0.555020	-0.251925
C236	C	1.088817	-0.221687	0.081408
C237	C	1.422150	0.111647	0.414742
O238	O	0.693601	-0.614139	-0.313718
O239	O	1.026935	-0.280805	0.019615
O240	O	1.360268	0.052528	0.352948
O241	O	0.817419	-0.614108	-0.190127
O242	O	1.150753	-0.280774	0.143206
O243	O	1.484086	0.052559	0.476539
C244	C	0.891885	-0.251861	-0.251952
C245	C	1.225218	0.081472	0.081381
C246	C	1.558552	0.414805	0.414714
C247	C	0.949999	-0.251863	-0.251961
C248	C	1.283332	0.081470	0.081372
C249	C	1.616666	0.414804	0.414705
C250	C	0.755546	-0.251834	-0.388304
C251	C	1.088879	0.081500	-0.054971
C252	C	1.422213	0.414833	0.278362
C253	C	0.755560	-0.251823	-0.446418
C254	C	1.088894	0.081510	-0.113085
C255	C	1.422227	0.414843	0.220248
C256	C	0.755615	-0.115484	-0.251967
C257	C	1.088948	0.217849	0.081367
C258	C	1.422281	0.551182	0.414700
C259	C	0.755658	-0.057370	-0.251982
C260	C	1.088992	0.275963	0.081352
C261	C	1.422325	0.609296	0.414685
C262	C	0.722160	-0.218320	-0.806790
C263	C	1.055493	0.115013	-0.473457
C264	C	1.388827	0.448347	-0.140124
C265	C	0.722163	-0.218310	-0.861395
C266	C	1.055496	0.115023	-0.528061
C267	C	1.388829	0.448356	-0.194728
O268	O	0.693738	-0.189882	-0.889639
O269	O	1.027071	0.143451	-0.556306
O270	O	1.360405	0.476785	-0.222973
N271	N	0.755578	-0.251741	-0.888701
N272	N	1.088911	0.081592	-0.555368
N273	N	1.422245	0.414925	-0.222034
C274	C	0.788989	-0.285188	-0.861400
C275	C	1.122322	0.048145	-0.528067
C276	C	1.455655	0.381479	-0.194733
O277	O	0.817411	-0.313623	-0.889640
O278	O	1.150744	0.019710	-0.556306
O279	O	1.484077	0.353044	-0.222973
C280	C	0.788983	-0.285200	-0.806797
C281	C	1.122316	0.048134	-0.473463
C282	C	1.455649	0.381467	-0.140130
C283	C	0.755569	-0.251763	-0.779493
C284	C	1.088902	0.081571	-0.446160
C285	C	1.422236	0.414904	-0.112827
C286	C	0.688749	-0.184886	-0.779487
C287	C	1.022082	0.148447	-0.446154
C288	C	1.355415	0.481781	-0.112820
C289	C	0.688747	-0.184895	-0.724887
C290	C	1.022080	0.148438	-0.391553
C291	C	1.355413	0.481772	-0.058220
C292	C	0.722156	-0.218338	-0.697589
C293	C	1.055489	0.114996	-0.364256
C294	C	1.388823	0.448329	-0.030923
C295	C	0.755567	-0.251772	-0.724893
C296	C	1.088900	0.081562	-0.391559
C297	C	1.422234	0.414895	-0.058226
C298	C	0.822390	-0.318648	-0.779496
C299	C	1.155724	0.014685	-0.446163
C300	C	1.489057	0.348018	-0.112830
C301	C	0.822381	-0.318657	-0.724889
C302	C	1.155715	0.014676	-0.391556
C303	C	1.489048	0.348009	-0.058223
C304	C	0.788968	-0.285220	-0.697586
C305	C	1.122301	0.048113	-0.364253
C306	C	1.455634	0.381446	-0.030919
C307	C	0.788974	-0.285223	-0.642995
C308	C	1.122308	0.048110	-0.309662
C309	C	1.455641	0.381443	0.023672
N310	N	0.755559	-0.251792	-0.615689
N311	N	1.088893	0.081541	-0.282355
N312	N	1.422226	0.414875	0.050978
C313	C	0.722150	-0.218349	-0.642986
C314	C	1.055483	0.114984	-0.309653
C315	C	1.388817	0.448317	0.023681
C316	C	0.788998	-0.285161	-0.976071
C317	C	1.122331	0.048172	-0.642737
C318	C	1.455664	0.381505	-0.309404
C319	C	0.789006	-0.285147	-1.030673
C320	C	1.122340	0.048186	-0.697340
C321	C	1.455673	0.381519	-0.364006
C322	C	0.722180	-0.218270	-1.030664
C323	C	1.055513	0.115063	-0.697331
C324	C	1.388847	0.448396	-0.363997
C325	C	0.722174	-0.218282	-0.976061
C326	C	1.055507	0.115051	-0.642727
C327	C	1.388841	0.448385	-0.309394
C328	C	0.755583	-0.251730	-0.948764
C329	C	1.088916	0.081603	-0.615431
C330	C	1.422249	0.414936	-0.282098
C331	C	0.722149	-0.218370	-0.528321
C332	C	1.055482	0.114963	-0.194988
C333	C	1.388815	0.448296	0.138346
C334	C	0.722151	-0.218381	-0.473715
C335	C	1.055485	0.114953	-0.140382
C336	C	1.388818	0.448286	0.192951
C337	C	0.788976	-0.285259	-0.473729
C338	C	1.122309	0.048074	-0.140396
C339	C	1.455642	0.381407	0.192938
C340	C	0.788975	-0.285247	-0.528330
C341	C	1.122309	0.048086	-0.194996
C342	C	1.455642	0.381419	0.138337
C343	C	0.755558	-0.251801	-0.555624
C344	C	1.088891	0.081532	-0.222291
C345	C	1.422224	0.414866	0.111042
O346	O	0.817383	-0.313639	-0.614716
O347	O	1.150716	0.019695	-0.281382
O348	O	1.484050	0.353028	0.051951
O349	O	0.693728	-0.189924	-0.614739
O350	O	1.027061	0.143409	-0.281406
O351	O	1.360395	0.476743	0.051927
C352	C	0.755508	-0.251843	-0.116089
C353	C	1.088842	0.081490	0.217245
C354	C	1.422175	0.414823	0.550578
C355	C	0.755595	-0.251706	-0.057975
C356	C	1.088928	0.081627	0.275358
C357	C	1.422262	0.414960	0.608692
H358	H	0.054207	-0.191277	-0.312732
H359	H	0.387540	0.142057	0.020602
H360	H	0.720873	0.475390	0.353935
H361	H	0.694777	-0.549984	-0.312538
H362	H	1.028110	-0.216650	0.020796
H363	H	1.361444	0.116683	0.354129
H364	H	0.694976	-0.191040	-1.052899
H365	H	1.028309	0.142294	-0.719566
H366	H	1.361643	0.475627	-0.386233
H367	H	0.694966	-0.191054	-0.953834
H368	H	1.028299	0.142279	-0.620501
H369	H	1.361633	0.475612	-0.287167
H370	H	0.816189	-0.312469	-0.550561
H371	H	1.149522	0.020865	-0.217228
H372	H	1.482856	0.354198	0.116105
H373	H	0.816357	-1.052268	-0.191376
H374	H	1.149690	-0.718935	0.141958
H375	H	1.483023	-0.385601	0.475291
H376	H	0.694951	-1.052321	-0.312583
H377	H	1.028284	-0.718988	0.020750
H378	H	1.361618	-0.385654	0.354083
H379	H	0.816178	-0.312486	-0.451494
H380	H	1.149511	0.020847	-0.118160
H381	H	1.482845	0.354181	0.215173
H382	H	0.457346	-0.312450	-0.191149
H383	H	0.790679	0.020884	0.142184
H384	H	1.124012	0.354217	0.475517
H385	H	0.556553	-0.191283	-0.312694
H386	H	0.889886	0.142050	0.020639
H387	H	1.223220	0.475383	0.353972
H388	H	0.694922	-0.953271	-0.312581
H389	H	1.028255	-0.619937	0.020753
H390	H	1.361589	-0.286604	0.354086
H391	H	0.661419	-0.801155	-0.345978
H392	H	0.994753	-0.467821	-0.012645
H393	H	1.328086	-0.134488	0.320689
H394	H	0.457503	-0.191272	-0.312697
H395	H	0.790836	0.142062	0.020637
H396	H	1.124170	0.475395	0.353970
H397	H	-0.044859	-0.191281	-0.312735
H398	H	0.288475	0.142052	0.020598
H399	H	0.621808	0.475386	0.353931
H400	H	-0.044992	-0.312451	-0.191191
H401	H	0.288342	0.020882	0.142142
H402	H	0.621675	0.354215	0.475476
H403	H	0.661393	-0.702105	-0.345971
H404	H	0.994726	-0.368771	-0.012637
H405	H	1.328060	-0.035438	0.320696
H406	H	0.849729	-0.801061	-0.157945
H407	H	1.183062	-0.467728	0.175388
H408	H	1.516396	-0.134394	0.508722
H409	H	0.694738	-0.450918	-0.312518
H410	H	1.028072	-0.117584	0.020815
H411	H	1.361405	0.215749	0.354148
H412	H	0.849690	-0.702014	-0.157932
H413	H	1.183023	-0.368680	0.175402
H414	H	1.516357	-0.035347	0.508735
H415	H	0.694942	-0.191150	-0.451488
H416	H	1.028275	0.142183	-0.118154
H417	H	1.361609	0.475517	0.215179
H418	H	0.305416	-0.157885	-0.346208
H419	H	0.638750	0.175448	-0.012874
H420	H	0.972083	0.508781	0.320459
H421	H	0.054058	-0.312444	-0.191174
H422	H	0.387391	0.020889	0.142159
H423	H	0.720724	0.354223	0.475493
H424	H	0.694937	-0.191135	-0.550538
H425	H	1.028271	0.142199	-0.217204
H426	H	1.361604	0.475532	0.116129
H427	H	0.661536	-0.157669	-0.702661
H428	H	0.994869	0.175664	-0.369328
H429	H	1.328203	0.508998	-0.035994
H430	H	0.206153	-0.345823	-0.157652
H431	H	0.539486	-0.012490	0.175681
H432	H	0.872819	0.320843	0.509014
H433	H	0.849599	-0.345877	-0.801717
H434	H	1.182932	-0.012543	-0.468384
H435	H	1.516265	0.320790	-0.135051
H436	H	0.661540	-0.157653	-0.801707
H437	H	0.994874	0.175681	-0.468373
H438	H	1.328207	0.509014	-0.135040
H439	H	0.816221	-0.312369	-1.052899
H440	H	1.149554	0.020964	-0.719565
H441	H	1.482888	0.354297	-0.386232
H442	H	0.816324	-0.953202	-0.191360
H443	H	1.149657	-0.619869	0.141973
H444	H	1.482990	-0.286536	0.475307
H445	H	0.305202	-0.345817	-0.157644
H446	H	0.638536	-0.012483	0.175689
H447	H	0.971869	0.320850	0.509022
H448	H	0.816209	-0.312396	-0.953849
H449	H	1.149543	0.020938	-0.620516
H450	H	1.482876	0.354271	-0.287183
H451	H	0.556413	-0.312444	-0.191142
H452	H	0.889746	0.020889	0.142191
H453	H	1.223080	0.354223	0.475524
H454	H	0.849590	-0.345892	-0.702668
H455	H	1.182924	-0.012559	-0.369334
H456	H	1.516257	0.320774	-0.036001
H457	H	0.206371	-0.157882	-0.346212
H458	H	0.539704	0.175451	-0.012878
H459	H	0.873037	0.508785	0.320455
H460	H	0.816135	-0.450856	-0.191304
H461	H	1.149468	-0.117523	0.142030
H462	H	1.482801	0.215811	0.475363
H463	H	0.816183	-0.549907	-0.191319
H464	H	1.149516	-0.216573	0.142014
H465	H	1.482850	0.116760	0.475347
