data_functionalizedCrystal
_audit_creation_method	'MofGen! by Chris Wilmer'
_symmetry_space_group_name_H-M	'P1'
_symmetry_Int_Tables_number	1
_symmetry_cell_setting	triclinic
loop_
_symmetry_equiv_pos_as_xyz
  x,y,z
_cell_length_a	10.723023
_cell_length_b	27.732048
_cell_length_c	26.210047
_cell_angle_alpha	89.999521
_cell_angle_beta	89.991027
_cell_angle_gamma	83.555101
loop_
_atom_site_label
_atom_site_type_symbol
_atom_site_fract_x
_atom_site_fract_y
_atom_site_fract_z
O1	O	1.654394	0.067781	-0.042434
O2	O	1.290973	0.074271	-0.042436
O3	O	1.483971	0.000699	-0.042425
O4	O	1.461396	0.141353	-0.042444
O5	O	1.483933	0.000711	0.042433
O6	O	1.290936	0.074282	0.042422
O7	O	1.654357	0.067793	0.042424
Cu8	Cu	1.472643	0.071039	0.050172
Cu9	Cu	1.472687	0.071025	-0.050183
O10	O	1.461359	0.141364	0.042414
C11	C	1.244474	0.073804	-0.000007
C12	C	1.105978	0.072392	-0.000007
C13	C	1.044252	0.071756	-0.043966
C14	C	0.901110	0.070296	-0.043968
C15	C	1.483478	-0.017305	0.000005
C16	C	1.482051	-0.070968	0.000010
C17	C	1.587117	-0.409131	-0.000016
C18	C	1.581823	-0.610824	-0.000023
O19	O	1.677899	-0.641483	-0.000045
N20	N	1.467384	-0.630658	-0.000023
C21	C	1.354259	-0.600066	-0.000025
O22	O	1.256800	-0.621564	-0.000030
C23	C	1.359555	-0.398374	-0.000021
C24	C	1.474002	-0.378543	-0.000016
C25	C	1.701555	-0.389299	-0.000011
C26	C	1.702877	-0.338879	-0.000007
C27	C	1.589762	-0.308291	-0.000007
C28	C	1.475324	-0.328123	-0.000012
C29	C	1.246432	-0.367783	-0.000027
C30	C	1.247766	-0.317357	-0.000027
C31	C	1.362213	-0.297526	-0.000022
C32	C	1.363531	-0.247114	-0.000007
N33	N	1.477971	-0.227280	-0.000007
C34	C	1.591086	-0.257868	-0.000007
C35	C	1.351487	-0.705957	-0.000026
C36	C	1.350163	-0.756380	-0.000026
C37	C	1.577727	-0.767134	-0.000025
C38	C	1.579050	-0.716711	-0.000021
C39	C	1.465927	-0.686123	-0.000026
C40	C	1.593854	-0.151982	0.000003
C41	C	1.595167	-0.101557	0.000010
C42	C	1.367603	-0.090807	0.000006
C43	C	1.366290	-0.141227	0.000002
C44	C	1.479426	-0.171814	-0.000001
O45	O	1.267507	-0.216426	0.000009
O46	O	1.688531	-0.236361	-0.000013
C47	C	1.585795	-0.459551	-0.000021
C48	C	1.471357	-0.479383	-0.000025
C49	C	1.358242	-0.448795	-0.000025
C50	C	1.470033	-0.529806	-0.000025
C51	C	1.583149	-0.560394	-0.000025
C52	C	1.697588	-0.540560	-0.000025
C53	C	1.698910	-0.490140	-0.000020
C54	C	1.243802	-0.468629	-0.000026
C55	C	1.242489	-0.519050	-0.000030
C56	C	1.355605	-0.549638	-0.000029
C57	C	1.700856	0.068259	-0.000006
C58	C	1.839351	0.069672	-0.000009
C59	C	1.461852	0.159368	-0.000018
C60	C	1.463279	0.213032	-0.000026
N61	N	1.472621	0.071048	0.120755
N62	N	1.472719	0.071012	-0.120767
C63	C	1.558137	0.038455	0.473274
C64	C	1.558165	0.038448	0.686933
O65	O	1.630826	0.010739	0.714559
N66	N	1.472694	0.071014	0.713649
C67	C	1.387204	0.103582	0.686948
O68	O	1.314498	0.131278	0.714575
C69	C	1.387172	0.103586	0.473290
C70	C	1.472657	0.071021	0.446577
C71	C	1.643615	0.005893	0.446560
C72	C	1.643612	0.005896	0.393149
C73	C	1.558131	0.038463	0.366451
C74	C	1.472654	0.071025	0.393165
C75	C	1.301677	0.136151	0.446590
C76	C	1.301674	0.136148	0.393172
C77	C	1.387160	0.103584	0.366458
C78	C	1.387170	0.103595	0.313056
N79	N	1.472641	0.071029	0.286340
C80	C	1.558122	0.038463	0.313037
C81	C	1.387229	0.103578	0.799121
C82	C	1.387238	0.103578	0.852535
C83	C	1.558198	0.038444	0.852517
C84	C	1.558194	0.038447	0.799102
C85	C	1.472700	0.071013	0.772405
C86	C	1.558109	0.038473	0.200869
C87	C	1.558102	0.038482	0.147453
C88	C	1.387138	0.103614	0.147477
C89	C	1.387149	0.103608	0.200888
C90	C	1.472640	0.071034	0.227583
O91	O	1.314537	0.131286	0.285397
O92	O	1.630799	0.010764	0.285401
C93	C	1.558141	0.038451	0.526686
C94	C	1.472663	0.071014	0.553400
C95	C	1.387183	0.103580	0.526702
C96	C	1.472673	0.071013	0.606814
C97	C	1.558153	0.038447	0.633511
C98	C	1.643625	0.005881	0.606795
C99	C	1.643621	0.005885	0.553383
C100	C	1.301711	0.136146	0.553418
C101	C	1.301723	0.136140	0.606830
C102	C	1.387203	0.103574	0.633528
H103	H	1.052851	0.071858	0.037627
H104	H	1.688367	-0.085413	0.000015
H105	H	1.273098	-0.157375	0.000012
H106	H	0.892427	0.070216	0.037628
O107	O	1.726711	-0.025678	0.472546
C108	C	1.803215	0.000479	0.503423
H109	H	1.752785	0.038122	0.511438
H110	H	1.823375	-0.019630	0.540978
H111	H	1.895347	0.004096	0.482822
H112	H	1.685981	-0.176880	-0.000002
H113	H	1.796072	-0.322738	-0.000004
O114	O	0.837905	0.069711	-0.088901
C115	C	0.854665	0.111824	-0.117057
H116	H	0.944202	0.126721	-0.103955
H117	H	0.862363	0.102465	-0.159376
H118	H	0.770983	0.140338	-0.110610
H119	H	1.627802	0.011928	0.874263
H120	H	1.793673	-0.414200	-0.000013
H121	H	1.672243	-0.700568	-0.000017
O122	O	1.687496	-0.796922	-0.000052
C123	C	1.661771	-0.845677	-0.000041
H124	H	1.563802	-0.847934	-0.016100
H125	H	1.733924	-0.868277	-0.024684
H126	H	1.666784	-0.860244	0.040668
H127	H	1.627718	0.011963	0.125704
H128	H	1.256969	-0.772521	-0.000021
H129	H	1.713231	-0.020632	0.531637
H130	H	1.259363	-0.681056	-0.000029
O131	O	1.135146	-0.386959	-0.000057
C132	C	1.035609	-0.349139	-0.000048
H133	H	1.069940	-0.314776	-0.016108
H134	H	0.955660	-0.359938	-0.024690
H135	H	1.000738	-0.342122	0.040661
H136	H	1.151688	-0.443728	-0.000027
H137	H	1.155645	-0.292454	-0.000032
H138	H	1.627722	0.011948	0.222598
O139	O	1.257842	-0.061019	-0.000017
C140	C	1.283565	-0.012264	-0.000002
H141	H	1.381544	-0.010005	-0.016062
H142	H	1.211427	0.010338	-0.024642
H143	H	1.278524	0.002300	0.040709
O144	O	1.641275	0.006765	0.773233
C145	C	1.716742	-0.021967	0.808258
H146	H	1.665600	-0.022690	0.846337
H147	H	1.736526	-0.060501	0.792828
H148	H	1.809122	-0.005944	0.813930
H149	H	1.792105	-0.473998	-0.000016
O150	O	1.807437	-0.570299	-0.000116
C151	C	1.813465	-0.599791	-0.044062
H152	H	1.749312	-0.581538	-0.074777
H153	H	1.914086	-0.605126	-0.058816
H154	H	1.781875	-0.636559	-0.034129
O155	O	1.218555	0.167794	0.632697
C156	C	1.143133	0.196543	0.597673
H157	H	1.142125	0.176722	0.559597
H158	H	1.043345	0.203560	0.613107
H159	H	1.182938	0.232595	0.591992
H160	H	1.149286	-0.535191	-0.000029
O161	O	1.726487	-0.025803	0.632758
C162	C	1.660231	-0.055846	0.663667
H163	H	1.561856	-0.057009	0.647572
H164	H	1.711874	-0.094085	0.664276
H165	H	1.653387	-0.040739	0.704148
O166	O	1.304274	0.135266	0.121480
C167	C	1.370504	0.165331	0.090586
H168	H	1.468515	0.146431	0.082581
H169	H	1.318281	0.172786	0.053027
H170	H	1.378270	0.201087	0.111167
O171	O	1.218849	0.167807	0.527434
C172	C	1.285091	0.197875	0.496548
H173	H	1.383088	0.178967	0.488530
H174	H	1.232856	0.205349	0.458994
H175	H	1.292895	0.233620	0.517142
H176	H	1.317641	0.130101	0.874282
O177	O	1.107736	0.072463	-0.088833
C178	C	1.168053	0.115023	-0.091570
H179	H	1.182416	0.129158	-0.051399
H180	H	1.262992	0.106558	-0.111096
H181	H	1.107525	0.143770	-0.114430
O182	O	1.726691	-0.025788	0.367282
C183	C	1.802146	-0.054521	0.402309
H184	H	1.750998	-0.055242	0.440387
H185	H	1.821923	-0.093056	0.386881
H186	H	1.894530	-0.038501	0.407983
O187	O	1.218512	0.167802	0.472452
C188	C	1.143091	0.196547	0.437424
H189	H	1.142084	0.176722	0.399350
H190	H	1.043302	0.203566	0.452858
H191	H	1.182897	0.232598	0.431738
O192	O	1.304133	0.135264	0.773271
C193	C	1.228688	0.163996	0.808312
H194	H	1.279850	0.164717	0.846380
H195	H	1.208902	0.202531	0.792887
H196	H	1.136307	0.147975	0.814003
O197	O	1.218797	0.167806	0.367184
C198	C	1.285026	0.197874	0.336294
H199	H	1.383031	0.178972	0.328281
H200	H	1.232793	0.205340	0.298738
H201	H	1.292809	0.233625	0.356883
H202	H	1.317551	0.130130	0.222639
