data_functionalizedCrystal
_audit_creation_method	'MofGen! by Chris Wilmer'
_symmetry_space_group_name_H-M	'P1'
_symmetry_Int_Tables_number	1
_symmetry_cell_setting	triclinic
loop_
_symmetry_equiv_pos_as_xyz
  x,y,z
_cell_length_a	8.497374
_cell_length_b	18.215407
_cell_length_c	18.215405
_cell_angle_alpha	89.974667
_cell_angle_beta	89.985971
_cell_angle_gamma	90.003703
loop_
_atom_site_label
_atom_site_type_symbol
_atom_site_fract_x
_atom_site_fract_y
_atom_site_fract_z
Zn1	Zn	0.891978	1.124955	0.293103
Zn2	Zn	0.628155	1.124898	0.416139
Zn3	Zn	0.628196	1.001922	0.293092
Zn4	Zn	0.891878	1.001853	0.416133
O5	O	0.760052	1.063407	0.354617
O6	O	0.857006	1.227931	0.309431
O7	O	0.407398	1.108590	0.399814
O8	O	0.663247	1.018295	0.190109
O9	O	0.663177	1.227890	0.399825
O10	O	0.857046	1.108687	0.190117
O11	O	0.407429	1.018240	0.309412
O12	O	0.663149	0.898929	0.309406
O13	O	1.112653	1.018178	0.399816
O14	O	0.856875	0.898878	0.399805
O15	O	1.112727	1.108620	0.309426
O16	O	0.663079	1.108523	0.519122
O17	O	0.856835	1.018123	0.519118
C18	C	0.760007	0.872201	0.354604
C19	C	0.760025	0.790402	0.354616
C20	C	0.860771	0.602201	0.401761
C21	C	0.860791	0.525342	0.401763
C22	C	0.659367	0.525365	0.307486
C23	C	0.659357	0.602222	0.307481
C24	C	0.760056	0.640638	0.354622
C25	C	0.760086	0.486922	0.354630
C26	C	0.760107	0.403589	0.354632
C27	C	0.760038	0.723977	0.354619
C28	C	0.759976	1.063329	0.545823
C29	C	0.759996	1.063363	0.627622
C30	C	1.171532	1.063401	0.354618
C31	C	1.350176	1.063403	0.354626
C32	C	0.760098	1.255360	0.354630
C33	C	0.760118	1.337159	0.354636
C34	C	0.760163	1.063505	0.162664
C35	C	0.760210	1.063547	0.080865
C36	C	0.659293	1.110545	0.815793
C37	C	0.659332	1.110578	0.892652
C38	C	0.860924	1.016363	0.892688
C39	C	0.860892	1.016334	0.815831
C40	C	0.760068	1.063424	0.777385
C41	C	0.760138	1.063486	0.931101
C42	C	0.760180	1.063521	1.014435
C43	C	0.760028	1.063390	0.694046
H44	H	0.577199	1.148890	0.784493
O45	O	0.561327	0.488125	0.261736
C46	C	0.293114	0.464569	0.225853
C47	C	0.403972	0.506800	0.277697
H48	H	0.165868	0.479640	0.238749
H49	H	0.320911	0.479716	0.166517
H50	H	0.310502	0.403038	0.233944
H51	H	0.386645	0.568340	0.269671
H52	H	0.376147	0.491592	0.337014
H53	H	0.943009	0.978023	0.923999
H54	H	0.577343	0.633519	0.269090
O55	O	0.561286	1.156373	0.929848
C56	C	0.361393	1.249847	0.921696
C57	C	0.472325	1.198006	0.879482
H58	H	0.289462	1.283532	0.880994
H59	H	0.278746	1.216144	0.957705
H60	H	0.433940	1.288282	0.957650
H61	H	0.399905	1.159561	0.843488
H62	H	0.554976	1.231756	0.843519
O63	O	0.958746	0.639405	0.447570
C64	C	1.158478	0.631266	0.541105
C65	C	1.047619	0.589045	0.489253
H66	H	1.230337	0.590569	0.574830
H67	H	1.241195	0.667246	0.507408
H68	H	1.085878	0.667251	0.579502
H69	H	1.120092	0.553020	0.450846
H70	H	0.964898	0.553112	0.522996
O71	O	0.958841	0.970488	0.778630
C72	C	1.158868	0.877076	0.786769
C73	C	1.047997	0.928939	0.828990
H74	H	1.231003	0.843481	0.827467
H75	H	1.086422	0.838564	0.750851
H76	H	1.241341	0.910831	0.750724
H77	H	0.965503	0.895243	0.865076
H78	H	1.120542	0.967453	0.864862
O79	O	0.958790	0.487971	0.447450
C80	C	1.171701	0.401178	0.457515
C81	C	1.060834	0.443466	0.405689
H82	H	1.254209	0.365174	0.423772
H83	H	1.243783	0.441807	0.491191
H84	H	1.099097	0.365207	0.495959
H85	H	1.133315	0.479438	0.367200
H86	H	0.988747	0.402798	0.372064
