data_functionalizedCrystal
_audit_creation_method	'MofGen! by Chris Wilmer'
_symmetry_space_group_name_H-M	'P1'
_symmetry_Int_Tables_number	1
_symmetry_cell_setting	triclinic
loop_
_symmetry_equiv_pos_as_xyz
  x,y,z
_cell_length_a	13.897448
_cell_length_b	11.169417
_cell_length_c	11.169409
_cell_angle_alpha	89.981395
_cell_angle_beta	89.964424
_cell_angle_gamma	90.019937
loop_
_atom_site_label
_atom_site_type_symbol
_atom_site_fract_x
_atom_site_fract_y
_atom_site_fract_z
Zn1	Zn	-0.383879	1.834901	-0.678477
Zn2	Zn	0.116121	2.334901	-0.178477
Zn3	Zn	-0.545215	1.834765	-0.477782
Zn4	Zn	-0.045215	2.334765	0.022218
Zn5	Zn	-0.383942	1.634187	-0.477815
Zn6	Zn	0.116058	2.134187	0.022185
Zn7	Zn	-0.545140	1.634169	-0.678431
Zn8	Zn	-0.045140	2.134169	-0.178431
O9	O	-0.464544	1.734505	-0.578126
O10	O	0.035456	2.234505	-0.078126
O11	O	-0.405286	2.002833	-0.651859
O12	O	0.094714	2.502833	-0.151859
O13	O	-0.523879	1.808108	-0.309837
O14	O	-0.023879	2.308108	0.190163
O15	O	-0.248952	1.660877	-0.504466
O16	O	0.251048	2.160877	-0.004466
O17	O	-0.523818	2.002732	-0.504410
O18	O	-0.023818	2.502732	-0.004410
O19	O	-0.248906	1.808341	-0.651891
O20	O	0.251094	2.308341	-0.151891
O21	O	-0.405392	1.660744	-0.309861
O22	O	0.094608	2.160744	0.190139
O23	O	-0.405320	1.466235	-0.504422
O24	O	0.094680	1.966235	-0.004422
O25	O	-0.523691	1.660846	-0.846387
O26	O	-0.023691	2.160846	-0.346387
O27	O	-0.523752	1.466221	-0.651814
O28	O	-0.023752	1.966221	-0.151814
O29	O	-0.405213	1.808323	-0.846421
O30	O	0.094787	2.308323	-0.346421
O31	O	-0.680186	1.808090	-0.504366
O32	O	-0.180186	2.308090	-0.004366
O33	O	-0.680132	1.660713	-0.651782
O34	O	-0.180132	2.160713	-0.151782
C35	C	-0.715158	1.734418	-0.578092
C36	C	-0.215158	2.234418	-0.078092
C37	C	-0.822372	1.734490	-0.578117
C38	C	-0.322372	2.234490	-0.078117
C39	C	-0.464535	1.422681	-0.578118
C40	C	0.035465	1.922681	-0.078118
C41	C	-0.464555	1.289281	-0.578142
C42	C	0.035445	1.789281	-0.078142
C43	C	-0.464437	1.734597	-0.891169
C44	C	0.035563	2.234597	-0.391169
C45	C	-0.464391	1.734637	-1.024569
C46	C	0.035609	2.234637	-0.524569
C47	C	-1.018667	1.734616	-0.578192
C48	C	-0.518667	2.234616	-0.078192
C49	C	-0.909435	1.734543	-0.578154
C50	C	-0.409435	2.234543	-0.078154
C51	C	-0.212951	1.734626	-0.578188
C52	C	0.287049	2.234626	-0.078188
C53	C	-0.105737	1.734677	-0.578214
C54	C	0.394263	2.234677	-0.078214
C55	C	-0.464553	2.047548	-0.578136
C56	C	0.035447	2.547548	-0.078136
C57	C	-0.464557	2.180948	-0.578140
C58	C	0.035443	2.680948	-0.078140
C59	C	-0.464581	1.734483	-0.266302
C60	C	0.035419	2.234483	0.233698
C61	C	-0.464355	1.734676	-0.132902
C62	C	0.035645	2.234676	0.367098
