data_functionalizedCrystal
_audit_creation_method	'MofGen! by Chris Wilmer'
_symmetry_space_group_name_H-M	'P1'
_symmetry_Int_Tables_number	1
_symmetry_cell_setting	triclinic
loop_
_symmetry_equiv_pos_as_xyz
  x,y,z
_cell_length_a	14.853566
_cell_length_b	11.792240
_cell_length_c	13.930277
_cell_angle_alpha	89.986115
_cell_angle_beta	90.004369
_cell_angle_gamma	96.086084
loop_
_atom_site_label
_atom_site_type_symbol
_atom_site_fract_x
_atom_site_fract_y
_atom_site_fract_z
O1	O	1.196946	-0.148174	0.079788
O2	O	1.696946	0.351826	0.579788
O3	O	0.934555	-0.165828	0.079806
O4	O	1.434555	0.334172	0.579806
O5	O	1.072118	0.008209	0.079767
O6	O	1.572118	0.508209	0.579767
O7	O	1.059383	-0.322211	0.079827
O8	O	1.559383	0.177789	0.579827
O9	O	1.072099	0.008213	-0.079894
O10	O	1.572099	0.508213	0.420106
O11	O	0.934536	-0.165824	-0.079856
O12	O	1.434536	0.334176	0.420144
O13	O	1.196927	-0.148171	-0.079874
O14	O	1.696927	0.351829	0.420126
Zn15	Zn	1.065728	-0.156997	-0.105215
Zn16	Zn	1.565728	0.343003	0.394785
Zn17	Zn	1.065754	-0.157002	0.105147
Zn18	Zn	1.565754	0.342998	0.605147
O19	O	1.059364	-0.322207	-0.079835
O20	O	1.559364	0.177793	0.420165
C21	C	0.900954	-0.165026	-0.000023
C22	C	1.400954	0.334974	0.499977
C23	C	0.800861	-0.162630	-0.000017
C24	C	1.300861	0.337370	0.499983
C25	C	0.377647	-0.152497	0.086996
C26	C	0.877647	0.347503	0.586996
C27	C	0.377647	-0.152494	-0.087074
C28	C	0.877647	0.347506	0.412926
C29	C	0.471690	-0.154744	-0.087070
C30	C	0.971690	0.345256	0.412930
C31	C	0.518715	-0.155872	-0.000033
C32	C	1.018715	0.344128	0.499967
C33	C	0.471698	-0.154751	0.087002
C34	C	0.971698	0.345249	0.587002
C35	C	0.518713	-0.155877	-0.174103
C36	C	1.018713	0.344123	0.325897
C37	C	0.612762	-0.158129	-0.174103
C38	C	1.112762	0.341871	0.325897
C39	C	0.659790	-0.159249	-0.087065
C40	C	1.159790	0.340751	0.412935
C41	C	0.612766	-0.158126	-0.000027
C42	C	1.112766	0.341874	0.499973
C43	C	0.659792	-0.159255	0.087011
C44	C	1.159792	0.340745	0.587011
C45	C	0.612771	-0.158124	0.174050
C46	C	1.112771	0.341876	0.674050
C47	C	0.518726	-0.155871	0.174041
C48	C	1.018726	0.344129	0.674041
C49	C	0.753835	-0.161502	-0.087055
C50	C	1.253835	0.338498	0.412945
C51	C	0.753843	-0.161509	0.087017
C52	C	1.253843	0.338491	0.587017
C53	C	1.071308	0.050497	-0.000069
C54	C	1.571308	0.550497	0.499931
C55	C	1.068914	0.176496	-0.000085
C56	C	1.568914	0.676496	0.499915
C57	C	1.064511	0.407181	-0.000100
C58	C	1.564511	0.907181	0.499900
C59	C	1.066958	0.278811	-0.000091
C60	C	1.566958	0.778811	0.499909
C61	C	1.230528	-0.148972	-0.000043
C62	C	1.730528	0.351028	0.499957
C63	C	1.330621	-0.151368	-0.000042
C64	C	1.830621	0.348632	0.499958
N65	N	1.065718	-0.156993	-0.248781
N66	N	1.565718	0.343007	0.251219
C67	C	1.060173	0.635505	-0.000031
C68	C	1.560173	1.135505	0.499969
C69	C	1.062568	0.509506	-0.000110
C70	C	1.562568	1.009506	0.499890
C71	C	1.004838	-0.234035	-0.701033
C72	C	1.504838	0.265965	-0.201033
C73	C	1.126694	-0.079960	-0.701036
C74	C	1.626694	0.420040	-0.201036
C75	C	1.126683	-0.079956	-0.600541
C76	C	1.626683	0.420044	-0.100541
C77	C	1.065750	-0.156994	-0.550286
C78	C	1.565750	0.343006	-0.050286
C79	C	1.004827	-0.234036	-0.600528
C80	C	1.504827	0.265964	-0.100528
C81	C	1.187610	-0.002924	-0.550292
C82	C	1.687610	0.497076	-0.050292
C83	C	1.187603	-0.002918	-0.449790
C84	C	1.687603	0.497082	0.050210
C85	C	1.126665	-0.079951	-0.399534
C86	C	1.626665	0.420049	0.100466
C87	C	1.065739	-0.156995	-0.449781
C88	C	1.565739	0.343005	0.050219
C89	C	1.004806	-0.234033	-0.399527
C90	C	1.504806	0.265967	0.100473
C91	C	0.943875	-0.311073	-0.449773
C92	C	1.443875	0.188927	0.050227
C93	C	0.943889	-0.311069	-0.550272
C94	C	1.443889	0.188931	-0.050272
C95	C	1.126651	-0.079955	-0.299035
C96	C	1.626651	0.420045	0.200965
C97	C	1.004795	-0.234034	-0.299022
C98	C	1.504795	0.265966	0.200978
N99	N	1.065771	-0.156997	0.248713
N100	N	1.565771	0.343003	0.748713
H101	H	0.651071	-0.159050	0.244916
H102	H	1.151071	0.340950	0.744916
H103	H	0.792114	-0.162434	-0.157921
H104	H	1.292114	0.337566	0.342079
H105	H	1.176308	-0.017243	-0.741957
H106	H	1.676308	0.482757	-0.241957
H107	H	0.955172	-0.296764	-0.258111
H108	H	1.455172	0.203236	0.241889
Cl109	Cl	0.459591	-0.154472	-0.283514
Cl110	Cl	0.959591	0.345528	0.216486
Cl111	Cl	0.928240	-0.330876	-0.764193
Cl112	Cl	1.428240	0.169124	-0.264193
Cl113	Cl	0.867282	-0.407924	-0.386585
Cl114	Cl	1.367282	0.092076	0.113415
Cl115	Cl	0.318542	-0.151042	0.196410
Cl116	Cl	0.818542	0.348958	0.696410
Cl117	Cl	1.264215	0.093913	-0.613466
Cl118	Cl	1.764215	0.593913	-0.113466
H119	H	1.237215	0.059812	-0.408886
H120	H	1.737215	0.559812	0.091114
Cl121	Cl	0.812954	-0.162918	0.196443
Cl122	Cl	1.312954	0.337082	0.696443
H123	H	0.339353	-0.151583	-0.157936
H124	H	0.839353	0.348417	0.342064
H125	H	0.894282	-0.373793	-0.591188
H126	H	1.394282	0.126207	-0.091188
Cl127	Cl	0.459613	-0.154406	0.283450
Cl128	Cl	0.959613	0.345594	0.783450
Cl129	Cl	1.203249	0.016881	-0.235875
Cl130	Cl	1.703249	0.516881	0.264125
Cl131	Cl	0.671865	-0.159547	-0.283521
Cl132	Cl	1.171865	0.340453	0.216479
