data_functionalizedCrystal
_audit_creation_method	'MofGen! by Chris Wilmer'
_symmetry_space_group_name_H-M	'P1'
_symmetry_Int_Tables_number	1
_symmetry_cell_setting	triclinic
loop_
_symmetry_equiv_pos_as_xyz
  x,y,z
_cell_length_a	14.519731
_cell_length_b	12.996460
_cell_length_c	10.654550
_cell_angle_alpha	89.994020
_cell_angle_beta	95.913108
_cell_angle_gamma	90.005673
loop_
_atom_site_label
_atom_site_type_symbol
_atom_site_fract_x
_atom_site_fract_y
_atom_site_fract_z
O1	O	1.224711	0.085569	-0.164753
O2	O	1.724711	0.585569	0.335247
O3	O	0.956337	0.085570	-0.184111
O4	O	1.456337	0.585570	0.315889
O5	O	1.096694	0.085563	0.008366
O6	O	1.596694	0.585563	0.508366
O7	O	1.084354	0.085576	-0.357230
O8	O	1.584354	0.585576	0.142770
O9	O	1.096680	-0.085571	0.008376
O10	O	1.596680	0.414429	0.508376
O11	O	0.956322	-0.085563	-0.184101
O12	O	1.456322	0.414437	0.315899
O13	O	1.224696	-0.085565	-0.164742
O14	O	1.724696	0.414435	0.335258
Cu15	Cu	1.090508	-0.101190	-0.174421
Cu16	Cu	1.590508	0.398810	0.325579
Cu17	Cu	1.090525	0.101195	-0.174433
Cu18	Cu	1.590525	0.601195	0.325567
O19	O	1.084339	-0.085558	-0.357219
O20	O	1.584339	0.414442	0.142781
C21	C	0.921965	0.000004	-0.183199
C22	C	1.421965	0.500004	0.316801
C23	C	0.819571	0.000004	-0.180481
C24	C	1.319571	0.500004	0.319519
C25	C	0.736416	0.000008	-0.178272
C26	C	1.236416	0.500008	0.321728
C27	C	0.632093	0.000008	-0.175513
C28	C	1.132093	0.500008	0.324487
C29	C	0.548942	0.000008	-0.173322
C30	C	1.048942	0.500008	0.326678
C31	C	0.444612	0.000010	-0.170563
C32	C	0.944612	0.500010	0.329437
N33	N	1.090502	-0.243537	-0.174411
N34	N	1.590502	0.256463	0.325589
C35	C	1.090524	-0.663352	-0.174434
C36	C	1.590524	-0.163352	0.325566
C37	C	1.090515	-0.546546	-0.174432
C38	C	1.590515	-0.046546	0.325568
C39	C	1.090514	-0.453448	-0.174424
C40	C	1.590514	0.046552	0.325576
C41	C	1.090504	-0.336636	-0.174419
C42	C	1.590504	0.163364	0.325581
C43	C	1.259068	0.000004	-0.165655
C44	C	1.759068	0.500004	0.334345
C45	C	1.361462	0.000010	-0.168373
C46	C	1.861462	0.500010	0.331627
C47	C	1.095781	-0.000003	0.055160
C48	C	1.595781	0.499997	0.555160
C49	C	1.093070	-0.000002	0.194578
C50	C	1.593070	0.499998	0.694578
N51	N	1.090538	0.243543	-0.174433
N52	N	1.590538	0.743543	0.325567
C53	C	1.085252	0.000011	-0.404014
C54	C	1.585252	0.500011	0.095986
C55	C	1.087963	0.000016	-0.543432
C56	C	1.587963	0.500016	-0.043432
C57	C	1.175710	-0.000002	0.274850
C58	C	1.675710	0.499998	0.774850
C59	C	1.173157	0.000011	0.405846
C60	C	1.673157	0.500011	0.905846
C61	C	1.005317	0.000019	0.376286
C62	C	1.505317	0.500019	0.876286
C63	C	1.007871	0.000014	0.245293
C64	C	1.507871	0.500014	0.745293
H65	H	1.245085	-0.000012	0.233562
H66	H	1.745085	0.499988	0.733562
H67	H	0.940571	0.000017	0.179931
H68	H	1.440571	0.500017	0.679931
F69	F	1.261115	0.000013	0.491272
F70	F	1.761115	0.500013	0.991272
F71	F	0.914647	0.000036	0.430272
F72	F	1.414647	0.500036	0.930272
