data_functionalizedCrystal
_audit_creation_method	'MofGen! by Chris Wilmer'
_symmetry_space_group_name_H-M	'P1'
_symmetry_Int_Tables_number	1
_symmetry_cell_setting	triclinic
loop_
_symmetry_equiv_pos_as_xyz
  x,y,z
_cell_length_a	27.440280
_cell_length_b	20.919309
_cell_length_c	20.919320
_cell_angle_alpha	60.099535
_cell_angle_beta	90.003170
_cell_angle_gamma	62.590440
loop_
_atom_site_label
_atom_site_type_symbol
_atom_site_fract_x
_atom_site_fract_y
_atom_site_fract_z
Zr1	Zr	0.493214	0.692369	-0.106754
O2	O	0.422180	0.817906	-0.209865
O3	O	0.512147	0.561537	-0.071682
O4	O	0.519754	0.684719	-0.204854
O5	O	0.411806	0.702604	0.024417
O6	O	0.599956	0.684708	-0.204841
O7	O	0.414573	0.694724	-0.076692
O8	O	0.586348	0.464357	0.033380
O9	O	0.425414	0.922955	-0.213804
O10	O	0.583510	0.617302	-0.060898
O11	O	0.521592	0.623192	0.014549
O12	O	0.530548	0.768223	-0.142244
O13	O	0.468629	0.774113	-0.066797
Zr14	Zr	0.616715	0.704919	0.054525
Zr15	Zr	0.621127	0.692351	-0.106733
Zr16	Zr	0.488802	0.704937	0.054504
Zr17	Zr	0.498372	0.859910	-0.113036
Zr18	Zr	0.611557	0.537378	0.060808
O19	O	0.597782	0.835751	0.019453
O20	O	0.604056	0.817881	-0.209835
O21	O	0.415906	0.835777	0.019424
O22	O	0.687749	0.579381	0.157636
O23	O	0.694023	0.561511	-0.071652
O24	O	0.505873	0.579407	0.157607
O25	O	0.698123	0.694684	-0.076646
O26	O	0.590175	0.712568	0.152626
O27	O	0.509973	0.712580	0.152613
O28	O	0.695356	0.702564	0.024464
O29	O	0.527088	0.922941	-0.213787
O30	O	0.582841	0.474347	0.161559
O31	O	0.684515	0.474332	0.161576
O32	O	0.688022	0.464342	0.033397
O33	O	0.421907	0.932945	-0.085625
O34	O	0.523581	0.932931	-0.085609
O35	O	0.579381	0.629064	0.090016
O36	O	0.641299	0.623175	0.014569
O37	O	0.588337	0.774096	-0.066778
O38	O	0.526419	0.779985	0.008670
C39	C	0.548513	0.489076	-0.018255
C40	C	0.546323	0.417950	-0.015588
C41	C	0.577614	0.381461	-0.053718
C42	C	0.575557	0.314627	-0.051205
C43	C	0.542207	0.284287	-0.010566
C44	C	0.510915	0.320780	0.027569
C45	C	0.512975	0.387608	0.025059
C46	C	0.534374	0.082658	-0.001015
C47	C	0.532315	0.015826	0.001490
C48	C	0.596958	0.009677	-0.077283
C49	C	0.599012	0.076511	-0.079792
C50	C	0.567723	0.112994	-0.041655
C51	C	0.540103	0.215974	-0.007998
C52	C	0.569831	0.181302	-0.044218
C53	C	0.394965	0.698666	-0.026140
C54	C	0.340662	0.698674	-0.026149
C55	C	0.031607	0.619851	0.016369
C56	C	-0.019412	0.619847	0.016376
O57	O	-0.022289	0.552850	0.052511
N58	N	-0.072574	0.698625	-0.026087
C59	C	-0.074717	0.777413	-0.068553
O60	O	-0.124620	0.844420	-0.104669
C61	C	-0.023699	0.777417	-0.068555
C62	C	0.029463	0.698633	-0.026095
C63	C	0.084767	0.541074	0.058826
C64	C	0.135782	0.541079	0.058817
C65	C	0.133638	0.619861	0.016353
C66	C	0.080478	0.698638	-0.026104
C67	C	-0.025842	0.856205	-0.111016
C68	C	0.025182	0.856202	-0.111014
C69	C	0.078343	0.777418	-0.068555
C70	C	0.129349	0.777425	-0.068576
N71	N	0.182511	0.698647	-0.026114
C72	C	0.184656	0.619865	0.016351
C73	C	-0.181856	0.777399	-0.068544
C74	C	-0.232873	0.777396	-0.068547
C75	C	-0.177565	0.619829	0.016383
C76	C	-0.126547	0.619833	0.016381
C77	C	-0.128694	0.698621	-0.026082
C78	C	0.291789	0.619880	0.016330
C79	C	0.342807	0.619892	0.016315
C80	C	0.287493	0.777458	-0.068611
C81	C	0.236480	0.777447	-0.068600
C82	C	0.238632	0.698651	-0.026124
O83	O	0.132270	0.844388	-0.104691
O84	O	0.234561	0.552870	0.052469
C85	C	0.714964	0.698621	-0.026088
C86	C	0.769266	0.698613	-0.026079
C87	C	0.560484	0.682923	-0.227823
C88	C	0.562357	0.677587	-0.296282
C89	C	0.561416	0.908212	-0.033973
C90	C	0.563606	0.979337	-0.036640
C91	C	0.574339	0.643430	-0.681322
C92	C	0.572580	0.648450	-0.617002
C93	C	0.544052	0.729741	-0.627308
C94	C	0.517284	0.806016	-0.701940
C95	C	0.519046	0.800996	-0.766259
C96	C	0.537352	0.748842	-0.435232
C97	C	0.535590	0.753857	-0.370906
C98	C	0.590888	0.596290	-0.285972
C99	C	0.592644	0.591277	-0.350296
C100	C	0.565879	0.667552	-0.424922
C101	C	0.542252	0.734874	-0.561564
C102	C	0.567682	0.662418	-0.490665
C103	C	0.549445	0.714365	0.175595
C104	C	0.547572	0.719700	0.244053
C105	C	0.708512	0.489053	-0.018229
C106	C	0.760625	0.417920	-0.015553
C107	C	0.542993	0.504797	0.183454
C108	C	0.538930	0.439007	0.254579
C109	C	0.702993	0.504774	0.183480
C110	C	0.753232	0.438976	0.254614
C111	C	0.406936	0.892513	-0.235708
C112	C	0.356696	0.958311	-0.306842
C113	C	0.401416	0.908234	-0.033999
C114	C	0.349304	0.979367	-0.036675
C115	C	0.566936	0.892491	-0.235682
C116	C	0.570998	0.958281	-0.306807
C117	C	0.754933	0.381449	-0.053696
C118	C	0.803894	0.314620	-0.051197
C119	C	0.858547	0.284259	-0.010550
C120	C	0.864238	0.320736	0.027594
C121	C	0.815278	0.387568	0.025090
C122	C	0.567187	0.411177	0.327380
C123	C	0.563368	0.349370	0.394216
C124	C	0.531294	0.315390	0.388249
C125	C	0.503033	0.343225	0.315440
C126	C	0.506850	0.405036	0.248606
C127	C	0.809152	0.405003	0.248637
C128	C	0.856362	0.343188	0.315469
C129	C	0.847653	0.315343	0.388277
C130	C	0.791728	0.349323	0.394253
C131	C	0.744518	0.411141	0.327421
C132	C	0.300777	0.992293	-0.300866
C133	C	0.253567	1.054128	-0.367698
C134	C	0.262277	1.081977	-0.440507
C135	C	0.318202	1.047993	-0.446482
C136	C	0.365411	0.986163	-0.379650
C137	C	0.354996	1.015845	0.001461
C138	C	0.306036	1.082691	-0.001057
C139	C	0.251383	1.113054	-0.041706
C140	C	0.245692	1.076574	-0.079847
C141	C	0.294652	1.009733	-0.077333
C142	C	0.603077	0.992242	-0.300816
C143	C	0.606906	1.054050	-0.367639
C144	C	0.578652	1.081901	-0.440454
C145	C	0.546572	1.047933	-0.446443
C146	C	0.542747	0.986121	-0.379621
H147	H	0.626169	0.101212	-0.112884
H148	H	0.516623	0.958477	-0.384510
C149	C	0.606516	0.214668	-0.088917
H150	H	0.624862	0.183364	-0.111265
H151	H	0.582511	0.274861	-0.128557
H152	H	0.634818	0.206351	-0.054496
H153	H	0.586384	0.326714	0.453493
H154	H	0.698987	0.438795	0.332299
C155	C	0.605719	0.554012	-0.669984
H156	H	0.602931	0.561942	-0.718977
H157	H	0.645056	0.522463	-0.641991
H158	H	0.588520	0.522469	-0.641996
H159	H	0.784644	0.326642	0.453542
C160	C	0.924358	0.287326	0.072309
H161	H	0.952696	0.242293	0.068341
H162	H	0.930854	0.333773	0.051072
H163	H	0.926614	0.265278	0.125113
C164	C	0.291188	0.961671	-0.220784
H165	H	0.327309	0.919975	-0.181829
H166	H	0.271315	1.010091	-0.216944
H167	H	0.269028	0.936045	-0.214169
C168	C	0.285140	0.864114	-0.115318
H169	H	0.246174	0.911037	-0.140610
H170	H	0.302924	0.870159	-0.081445
H171	H	0.304865	0.864613	-0.152725
H172	H	0.476919	0.315549	0.310594
C173	C	0.087133	0.454408	0.105540
H174	H	0.049138	0.465674	0.099473
H175	H	0.107832	0.419265	0.087350
H176	H	0.105885	0.424820	0.158625
C177	C	0.797623	0.274498	-0.093148
H178	H	0.758060	0.302144	-0.117700
H179	H	0.817575	0.282546	-0.130839
H180	H	0.813355	0.214048	-0.056776
H181	H	0.386093	0.555734	0.050893
C182	C	0.821546	0.427670	0.067060
H183	H	0.861108	0.400005	0.091631
H184	H	0.805816	0.488118	0.030708
H185	H	0.801590	0.419607	0.104751
C186	C	0.022818	0.942872	-0.157685
H187	H	0.060814	0.931599	-0.151595
H188	H	0.004062	0.972504	-0.210774
H189	H	0.002125	0.977978	-0.139455
C190	C	0.527104	0.247395	0.461771
H191	H	0.548533	0.235685	0.505981
H192	H	0.487975	0.269297	0.460957
H193	H	0.542234	0.195242	0.463740
C194	C	0.614302	0.414825	-0.098417
H195	H	0.632648	0.383513	-0.120758
H196	H	0.590301	0.475018	-0.138063
H197	H	0.642603	0.406509	-0.063997
C198	C	0.694820	0.414840	-0.098412
H199	H	0.666470	0.459863	-0.094442
H200	H	0.692566	0.436876	-0.151210
H201	H	0.688336	0.368375	-0.077162
C202	C	0.631380	-0.030464	-0.119221
H203	H	0.625382	-0.074616	-0.111902
H204	H	0.618850	0.013471	-0.172842
H205	H	0.671151	-0.055030	-0.098776
C206	C	0.912398	0.210738	-0.007794
H207	H	0.901175	0.193363	-0.036327
H208	H	0.936736	0.230984	-0.029699
H209	H	0.932498	0.162495	0.044351
C210	C	0.634161	0.961615	-0.220729
H211	H	0.653818	0.990693	-0.226742
H212	H	0.606803	0.974657	-0.194411
H213	H	0.661054	0.900596	-0.191631
H214	H	0.325287	1.070675	-0.505770
H215	H	0.223832	1.132323	-0.494919
H216	H	0.193193	0.841599	-0.103184
C217	C	0.642188	1.091413	-0.361041
H218	H	0.640429	1.132208	-0.411263
H219	H	0.626824	1.119570	-0.335297
H220	H	0.681085	1.045505	-0.332499
H221	H	0.901895	0.315527	0.310590
C222	C	0.602462	0.448556	0.333958
H223	H	0.618734	0.423132	0.386892
H224	H	0.632336	0.435775	0.310925
H225	H	0.578068	0.509829	0.308129
H226	H	0.293550	0.555717	0.050919
H227	H	0.179065	0.476924	0.093389
C228	C	0.504216	0.843280	-0.382245
H229	H	0.488535	0.887989	-0.435901
H230	H	0.474112	0.848525	-0.358925
H231	H	0.530656	0.848497	-0.358911
H232	H	0.310682	1.112383	0.030006
C233	C	0.495666	-0.017596	0.046248
H234	H	0.477341	0.013684	0.068624
H235	H	0.467358	-0.009317	0.011874
H236	H	0.519706	-0.077790	0.085885
C237	C	0.515491	1.078582	-0.526542
H238	H	0.522361	1.120266	-0.565475
H239	H	0.529589	1.030176	-0.530399
H240	H	0.475340	1.104234	-0.533172
C241	C	0.475769	0.435636	0.168530
H242	H	0.456127	0.406536	0.174556
H243	H	0.448875	0.496650	0.139418
H244	H	0.503135	0.422581	0.142219
C245	C	0.624026	0.501859	-0.338959
H246	H	0.621237	0.509793	-0.387953
H247	H	0.663364	0.470307	-0.310966
H248	H	0.606826	0.470317	-0.310973
H249	H	0.515557	0.810951	-0.495988
H250	H	0.816254	0.427665	0.189359
H251	H	0.211522	1.167481	-0.043746
C252	C	0.185572	1.109974	-0.124551
H253	H	0.157233	1.154998	-0.120573
H254	H	0.183305	1.132011	-0.177352
H255	H	0.179084	1.063514	-0.103290
C256	C	-0.175213	0.533170	0.063104
H257	H	-0.213213	0.544458	0.057029
H258	H	-0.154519	0.498012	0.044925
H259	H	-0.156465	0.503586	0.116190
C260	C	0.899586	0.247337	0.461785
H261	H	0.934135	0.231089	0.447791
H262	H	0.899476	0.271499	0.490069
H263	H	0.897192	0.197454	0.492837
C264	C	0.499951	0.122789	0.040926
H265	H	0.479789	0.095154	0.065480
H266	H	0.525560	0.114738	0.078616
H267	H	0.473256	0.183241	0.004551
C268	C	0.485902	0.895434	-0.713277
H269	H	0.488680	0.887502	-0.664284
H270	H	0.503094	0.926983	-0.741265
H271	H	0.446562	0.926978	-0.741270
C272	C	0.192057	1.091492	-0.361111
H273	H	0.193635	1.066036	-0.308176
H274	H	0.173434	1.152760	-0.386922
H275	H	0.171157	1.078713	-0.384161
H276	H	0.410942	0.958495	-0.384526
C277	C	0.415110	0.982457	0.046174
H278	H	0.443459	0.937419	0.042219
H279	H	0.421593	1.028918	0.024919
H280	H	0.417364	0.960425	0.098975
H281	H	0.581771	1.132233	-0.494859
C282	C	0.474251	0.287383	0.072302
H283	H	0.455921	0.318674	0.094666
H284	H	0.445947	0.295673	0.037913
H285	H	0.498277	0.227189	0.111946
C286	C	0.478554	0.427753	0.066996
H287	H	0.484560	0.471894	0.059688
H288	H	0.438784	0.452316	0.046562
H289	H	0.491091	0.383811	0.120622
C290	C	-0.068074	0.533173	0.063094
H291	H	-0.074110	0.486257	0.088387
H292	H	-0.046043	0.527113	0.029231
H293	H	-0.047999	0.532677	0.100501
H294	H	0.601037	0.284917	-0.082252
H295	H	0.512949	0.191264	0.025091
H296	H	-0.183612	0.841562	-0.103126
C297	C	-0.084311	0.942867	-0.157712
H298	H	-0.114395	0.931595	-0.151638
H299	H	-0.088274	0.978003	-0.139515
H300	H	-0.086341	0.972466	-0.210799
C301	C	0.602020	0.564554	-0.534918
H302	H	0.619257	0.515422	-0.537993
H303	H	0.630750	0.563229	-0.508056
H304	H	0.574211	0.563243	-0.508068
H305	H	-0.276156	0.841549	-0.103132
H306	H	0.612679	0.534191	-0.225207
H307	H	0.497250	0.863103	-0.827021
H308	H	0.590913	0.596232	-0.482277
H309	H	0.519023	0.801061	-0.569947
H310	H	0.290008	0.980035	-0.108386
