data_functionalizedCrystal
_audit_creation_method	'MofGen! by Chris Wilmer'
_symmetry_space_group_name_H-M	'P1'
_symmetry_Int_Tables_number	1
_symmetry_cell_setting	triclinic
loop_
_symmetry_equiv_pos_as_xyz
  x,y,z
_cell_length_a	15.944545
_cell_length_b	14.519709
_cell_length_c	13.596369
_cell_angle_alpha	89.998664
_cell_angle_beta	90.003141
_cell_angle_gamma	96.411841
loop_
_atom_site_label
_atom_site_type_symbol
_atom_site_fract_x
_atom_site_fract_y
_atom_site_fract_z
O1	O	1.114702	-0.118908	0.081730
O2	O	1.614702	0.381092	0.581730
O3	O	0.870173	-0.133578	0.081746
O4	O	1.370173	0.366422	0.581746
O5	O	0.998921	0.008007	0.081729
O6	O	1.498921	0.508007	0.581729
O7	O	0.985954	-0.260493	0.081747
O8	O	1.485954	0.239507	0.581747
O9	O	0.998905	0.007999	-0.081854
O10	O	1.498905	0.507999	0.418146
O11	O	0.870157	-0.133586	-0.081837
O12	O	1.370157	0.366414	0.418163
O13	O	1.114686	-0.118916	-0.081853
O14	O	1.614686	0.381084	0.418147
Zn15	Zn	0.992419	-0.126252	-0.107817
Zn16	Zn	1.492419	0.373748	0.392183
Zn17	Zn	0.992440	-0.126242	0.107710
Zn18	Zn	1.492440	0.373758	0.607710
O19	O	0.985939	-0.260501	-0.081836
O20	O	1.485939	0.239499	0.418164
C21	C	0.838870	-0.132974	-0.000043
C22	C	1.338870	0.367026	0.499957
C23	C	0.745621	-0.131151	-0.000038
C24	C	1.245621	0.368849	0.499962
C25	C	0.474853	-0.037944	-0.000054
C26	C	0.974853	0.462056	0.499946
C27	C	0.525492	-0.082885	-0.080709
C28	C	1.025492	0.417115	0.419291
C29	C	0.409968	-0.124651	-0.000055
C30	C	0.909968	0.375349	0.499945
C31	C	0.525489	-0.082900	0.080571
C32	C	1.025489	0.417100	0.580571
C33	C	0.574886	-0.127840	-0.000045
C34	C	1.074886	0.372160	0.499955
C35	C	0.459379	-0.169569	-0.080776
C36	C	0.959379	0.330431	0.419224
C37	C	0.459372	-0.169572	0.080577
C38	C	0.959372	0.330428	0.580577
C39	C	0.509978	-0.214576	-0.000097
C40	C	1.009978	0.285424	0.499903
C41	C	0.314963	-0.122811	-0.000061
C42	C	0.814963	0.377189	0.499939
C43	C	0.669888	-0.129686	-0.000045
C44	C	1.169888	0.370314	0.499955
C45	C	0.998309	0.042362	-0.000063
C46	C	1.498309	0.542362	0.499937
C47	C	0.996498	0.144740	-0.000063
C48	C	1.496498	0.644740	0.499937
C49	C	1.145989	-0.119520	-0.000061
C50	C	1.645989	0.380480	0.499939
C51	C	1.239238	-0.121343	-0.000061
C52	C	1.739238	0.378657	0.499939
C53	C	0.986551	-0.294856	-0.000042
C54	C	1.486551	0.205144	0.499958
C55	C	0.988362	-0.397234	-0.000035
C56	C	1.488362	0.102766	0.499965
N57	N	0.992411	-0.126259	-0.254909
N58	N	1.492411	0.373741	0.245091
C59	C	0.989831	0.519624	-0.000037
C60	C	1.489831	1.019624	0.499963
C61	C	0.991683	0.415319	-0.000045
C62	C	1.491683	0.915319	0.499955
C63	C	0.993165	0.332185	-0.000051
C64	C	1.493165	0.832185	0.499949
C65	C	0.995016	0.227874	-0.000057
C66	C	1.495016	0.727874	0.499943
C67	C	0.992416	-0.126261	-0.343907
C68	C	1.492416	0.373739	0.156093
C69	C	0.992424	-0.126254	-0.455558
C70	C	1.492424	0.373746	0.044442
C71	C	0.992435	-0.126244	-0.544549
C72	C	1.492435	0.373756	-0.044549
C73	C	0.992444	-0.126238	-0.656207
C74	C	1.492444	0.373762	-0.156207
N75	N	0.992455	-0.126228	0.254802
N76	N	1.492455	0.373772	0.754802
H77	H	0.554360	-0.046263	0.148754
H78	H	1.054360	0.453737	0.648754
H79	H	0.459092	0.036729	-0.000138
H80	H	0.959092	0.536729	0.499862
H81	H	0.554364	-0.046269	-0.148900
H82	H	1.054364	0.453731	0.351100
H83	H	0.430616	-0.206163	-0.149036
H84	H	0.930616	0.293837	0.350964
H85	H	0.430485	-0.206155	0.148771
H86	H	0.930485	0.293845	0.648771
H87	H	0.525578	-0.289307	-0.000139
H88	H	1.025578	0.210693	0.499861
