data_functionalizedCrystal
_audit_creation_method	'MofGen! by Chris Wilmer'
_symmetry_space_group_name_H-M	'P1'
_symmetry_Int_Tables_number	1
_symmetry_cell_setting	triclinic
loop_
_symmetry_equiv_pos_as_xyz
  x,y,z
_cell_length_a	21.295418
_cell_length_b	21.295417
_cell_length_c	21.295412
_cell_angle_alpha	90.031187
_cell_angle_beta	90.035621
_cell_angle_gamma	90.046319
loop_
_atom_site_label
_atom_site_type_symbol
_atom_site_fract_x
_atom_site_fract_y
_atom_site_fract_z
Zn1	Zn	0.962305	-0.250356	0.356234
Zn2	Zn	0.962223	-0.355625	0.250959
Zn3	Zn	0.857043	-0.250403	0.250943
Zn4	Zn	0.856998	-0.355620	0.356155
O5	O	0.909642	-0.303001	0.303573
O6	O	1.050384	-0.264303	0.342308
O7	O	0.948255	-0.341689	0.162867
O8	O	0.871060	-0.162307	0.264937
O9	O	1.050323	-0.341644	0.264963
O10	O	0.948396	-0.162273	0.342293
O11	O	0.870980	-0.264383	0.162856
O12	O	0.768948	-0.264378	0.264861
O13	O	0.870983	-0.341635	0.444255
O14	O	0.768915	-0.341681	0.342160
O15	O	0.948352	-0.264298	0.444313
O16	O	0.948211	-0.443714	0.264887
O17	O	0.870903	-0.443710	0.342175
C18	C	0.746091	-0.303034	0.303500
C19	C	0.676123	-0.303064	0.303484
C20	C	0.909560	-0.466553	0.303538
C21	C	0.909582	-0.536521	0.303544
C22	C	0.643255	-0.343368	0.343674
C23	C	0.577512	-0.343353	0.343702
C24	C	0.544640	-0.303039	0.303530
C25	C	0.577516	-0.262727	0.263337
C26	C	0.643257	-0.262739	0.263315
N27	N	0.441372	-0.298121	0.248472
N28	N	0.378920	-0.298113	0.248495
C29	C	0.346565	-0.302999	0.303596
N30	N	0.379021	-0.307905	0.358674
N31	N	0.441478	-0.307916	0.358650
C32	C	0.473355	-0.303021	0.303550
C33	C	0.242412	-0.343289	0.343820
C34	C	0.176669	-0.343269	0.343849
C35	C	0.176673	-0.262646	0.263479
C36	C	0.242415	-0.262663	0.263455
C37	C	0.275281	-0.302988	0.303625
C38	C	0.949872	-0.569369	0.263342
C39	C	0.949902	-0.635111	0.263356
C40	C	0.909630	-0.668003	0.303566
C41	C	0.869337	-0.635148	0.343776
C42	C	0.869313	-0.569407	0.343765
N43	N	0.854562	-0.771284	0.308340
N44	N	0.854587	-0.833736	0.308347
C45	C	0.909700	-0.866078	0.303602
N46	N	0.964790	-0.833610	0.298838
N47	N	0.964765	-0.771152	0.298828
C48	C	0.909652	-0.739289	0.303582
C49	C	0.950026	-0.970211	0.263413
C50	C	0.950056	-1.035955	0.263431
C51	C	0.869486	-1.035990	0.343848
C52	C	0.869461	-0.970248	0.343833
C53	C	0.909730	-0.937362	0.303612
C54	C	1.073833	-0.302968	0.303646
C55	C	1.143801	-0.302954	0.303677
C56	C	0.909671	-0.302960	0.467763
C57	C	0.909684	-0.302943	0.537731
C58	C	0.909742	-0.138811	0.303622
C59	C	0.909785	-0.068843	0.303642
C60	C	0.909650	-0.302996	0.140021
C61	C	0.909759	-0.302836	0.070054
C62	C	0.950029	-0.262574	1.037220
C63	C	0.950025	-0.262589	0.971478
C64	C	0.909738	-0.302860	0.938571
C65	C	0.869465	-0.343130	0.971412
C66	C	0.869476	-0.343118	1.037153
N67	N	0.854617	-0.307719	0.835324
N68	N	0.854609	-0.307727	0.772872
C69	C	0.909705	-0.302899	0.740496
N70	N	0.964811	-0.298052	0.772931
N71	N	0.964819	-0.298041	0.835388
C72	C	0.909723	-0.302878	0.867286
C73	C	0.949973	-0.262652	0.636377
C74	C	0.949970	-0.262671	0.570634
C75	C	0.869405	-0.343209	0.570569
C76	C	0.869414	-0.343192	0.636312
C77	C	0.909698	-0.302910	0.669212
H78	H	0.550746	-0.376174	0.376431
H79	H	0.836548	-0.661933	0.376516
H80	H	0.982663	-0.542595	0.230593
C81	C	0.994323	-0.218297	0.935351
C82	C	0.994310	-0.218311	0.863038
C83	C	1.038607	-0.174019	0.826914
C84	C	1.082918	-0.129713	0.863102
C85	C	1.082932	-0.129697	0.935419
C86	C	1.038635	-0.173989	0.971544
H87	H	0.961507	-0.251111	0.836246
H88	H	1.038596	-0.174031	0.773380
H89	H	1.115710	-0.096925	0.836361
H90	H	1.115735	-0.096897	0.962211
H91	H	1.038646	-0.173977	1.025077
C92	C	0.278570	-0.387639	0.388009
C93	C	0.242413	-0.431969	0.432226
C94	C	0.278568	-0.476320	0.476415
C95	C	0.350881	-0.476340	0.476388
C96	C	0.387042	-0.432008	0.432169
C97	C	0.350887	-0.387658	0.387980
H98	H	0.188879	-0.431956	0.432247
H99	H	0.251799	-0.509137	0.509148
H100	H	0.377645	-0.509171	0.509099
H101	H	0.440576	-0.432022	0.432148
H102	H	0.377656	-0.354841	0.355247
C103	C	0.825085	-0.387509	0.534385
C104	C	0.753529	-0.382385	0.543399
C105	C	0.709208	-0.426689	0.507214
C106	C	0.736443	-0.476116	0.462015
C107	C	0.808003	-0.481242	0.452998
C108	C	0.852324	-0.436939	0.489183
H109	H	0.733365	-0.345794	0.576861
H110	H	0.656235	-0.422894	0.513889
H111	H	0.703634	-0.508912	0.435228
H112	H	0.828168	-0.517833	0.419537
H113	H	0.905298	-0.440733	0.482508
C114	C	0.825184	-1.072164	0.388079
C115	C	0.825207	-1.144476	0.388093
C116	C	0.780904	-1.180653	0.432326
C117	C	0.736579	-1.144517	0.476545
C118	C	0.736555	-1.072200	0.476533
C119	C	0.780858	-1.036023	0.432300
H120	H	0.858020	-1.171230	0.355357
H121	H	0.780922	-1.234187	0.432334
H122	H	0.703784	-1.171297	0.509289
H123	H	0.703742	-1.045446	0.509268
H124	H	0.780839	-0.982490	0.432291
C125	C	0.541359	-0.218382	0.219146
C126	C	0.469046	-0.218369	0.219166
C127	C	0.432891	-0.174020	0.174975
C128	C	0.469048	-0.129684	0.130765
C129	C	0.541365	-0.129695	0.130743
C130	C	0.577520	-0.174044	0.174934
H131	H	0.442277	-0.251191	0.251894
H132	H	0.379357	-0.174012	0.174991
H133	H	0.442284	-0.096854	0.098052
H134	H	0.568134	-0.096873	0.098015
H135	H	0.631054	-0.174051	0.174918
H136	H	0.836682	-0.375905	1.063886
H137	H	0.982713	-0.661861	0.230619
C138	C	0.994290	-0.218351	0.672575
C139	C	1.065847	-0.223479	0.663572
C140	C	1.110164	-0.179180	0.699767
C141	C	1.082924	-0.129754	0.744966
C142	C	1.011363	-0.124625	0.753971
C143	C	0.967046	-0.168923	0.717775
H144	H	1.086015	-0.260069	0.630111
H145	H	1.163139	-0.182978	0.693101
H146	H	1.115731	-0.096961	0.771760
H147	H	0.991195	-0.088035	0.787431
H148	H	0.914072	-0.165126	0.724441
H149	H	0.982767	-0.229887	0.543902
C150	C	0.140510	-0.387608	0.388060
C151	C	0.095392	-0.360391	0.437552
C152	C	0.059232	-0.404730	0.481762
C153	C	0.068190	-0.476287	0.476480
C154	C	0.113309	-0.503507	0.426985
C155	C	0.149470	-0.459168	0.382775
H156	H	0.088760	-0.307417	0.441464
H157	H	0.025831	-0.384579	0.518401
H158	H	0.041422	-0.509109	0.509207
H159	H	0.119942	-0.556481	0.423073
H160	H	0.182870	-0.479319	0.346136
H161	H	0.836503	-0.542661	0.376503
H162	H	0.149909	-0.229819	0.230773
H163	H	0.982818	-0.943435	0.230664
C164	C	0.994382	-1.072090	0.219209
C165	C	1.038675	-1.035914	0.174972
C166	C	1.083003	-1.072050	0.130750
C167	C	1.083038	-1.144363	0.130766
C168	C	1.038743	-1.180543	0.175005
C169	C	0.994416	-1.144407	0.219227
H170	H	1.038651	-0.982380	0.174958
H171	H	1.115793	-1.045266	0.098001
H172	H	1.115852	-1.171113	0.098031
H173	H	1.038768	-1.234077	0.175019
H174	H	0.961626	-1.171191	0.251976
C175	C	0.825100	-0.387471	0.672427
C176	C	0.830180	-0.459034	0.663365
C177	C	0.785860	-0.503313	0.699478
C178	C	0.736460	-0.476029	0.744653
C179	C	0.731378	-0.404463	0.753717
C180	C	0.775698	-0.360183	0.717604
H181	H	0.866750	-0.479234	0.629922
H182	H	0.789622	-0.556292	0.692767
H183	H	0.703652	-0.508808	0.771385
H184	H	0.694807	-0.384262	0.787160
H185	H	0.771935	-0.307205	0.724314
C186	C	0.679414	-0.218405	0.219098
C187	C	0.670455	-0.146848	0.224368
C188	C	0.706614	-0.102516	0.180149
C189	C	0.751731	-0.129741	0.130661
C190	C	0.760692	-0.201302	0.125389
C191	C	0.724533	-0.245634	0.169608
H192	H	0.637055	-0.126691	0.261004
H193	H	0.699980	-0.049542	0.184051
H194	H	0.778498	-0.096924	0.097927
H195	H	0.794092	-0.221459	0.088753
H196	H	0.731167	-0.298608	0.165706
C197	C	0.825136	-0.934113	0.388053
C198	C	0.753580	-0.943239	0.382828
C199	C	0.709255	-0.907105	0.427053
C200	C	0.736484	-0.861844	0.476503
C201	C	0.808043	-0.852716	0.481730
C202	C	0.852369	-0.888850	0.437505
H203	H	0.733420	-0.976745	0.346221
H204	H	0.656282	-0.913862	0.423184
H205	H	0.703671	-0.835095	0.509241
H206	H	0.828203	-0.819210	0.518338
H207	H	0.905341	-0.882093	0.441375
C208	C	0.825152	-0.387431	0.935218
C209	C	0.825138	-0.387446	0.862905
C210	C	0.780828	-0.431753	0.826711
C211	C	0.736531	-0.476046	0.862831
C212	C	0.736544	-0.476032	0.935148
C213	C	0.780854	-0.431725	0.971341
H214	H	0.857931	-0.354657	0.836164
H215	H	0.780819	-0.431763	0.773177
H216	H	0.703730	-0.508844	0.836038
H217	H	0.703751	-0.508822	0.961889
H218	H	0.780863	-0.431716	1.024875
H219	H	0.982834	-0.229776	1.064004
H220	H	0.670010	-0.376203	0.376384
C221	C	0.278571	-0.218335	0.219234
C222	C	0.269609	-0.146778	0.224498
C223	C	0.305763	-0.102448	0.180273
C224	C	0.350880	-0.129675	0.130786
C225	C	0.359845	-0.201236	0.125521
C226	C	0.323690	-0.245566	0.169745
H227	H	0.236209	-0.126619	0.261133
H228	H	0.299127	-0.049473	0.184171
H229	H	0.377644	-0.096859	0.098049
H230	H	0.393245	-0.221394	0.088885
H231	H	0.330327	-0.298540	0.165847
