data_functionalizedCrystal
_audit_creation_method	'MofGen! by Chris Wilmer'
_symmetry_space_group_name_H-M	'P1'
_symmetry_Int_Tables_number	1
_symmetry_cell_setting	triclinic
loop_
_symmetry_equiv_pos_as_xyz
  x,y,z
_cell_length_a	11.792241
_cell_length_b	11.792241
_cell_length_c	15.455313
_cell_angle_alpha	92.683265
_cell_angle_beta	87.304628
_cell_angle_gamma	84.193416
loop_
_atom_site_label
_atom_site_type_symbol
_atom_site_fract_x
_atom_site_fract_y
_atom_site_fract_z
O1	O	1.511847	0.150640	-0.072047
O2	O	2.011847	0.650640	0.427953
O3	O	1.181508	0.166671	-0.072067
O4	O	1.681508	0.666671	0.427933
O5	O	1.354694	-0.006515	-0.072050
O6	O	1.854694	0.493485	0.427950
O7	O	1.338662	0.323825	-0.072063
O8	O	1.838662	0.823825	0.427937
O9	O	1.344790	0.003348	0.072211
O10	O	1.844790	0.503348	0.572211
O11	O	1.171604	0.176534	0.072194
O12	O	1.671604	0.676534	0.572194
O13	O	1.501944	0.160502	0.072215
O14	O	2.001944	0.660502	0.572215
Cu15	Cu	1.335869	0.169418	0.085377
Cu16	Cu	1.835869	0.669418	0.585377
Cu17	Cu	1.347582	0.157755	-0.085229
Cu18	Cu	1.847582	0.657755	0.414771
O19	O	1.328758	0.333688	0.072198
O20	O	1.828758	0.833688	0.572198
C21	C	1.134265	0.170595	0.000061
C22	C	1.634265	0.670595	0.500061
C23	C	1.008252	0.167580	0.000054
C24	C	1.508252	0.667580	0.500054
C25	C	0.777538	0.162039	0.000079
C26	C	1.277538	0.662039	0.500079
C27	C	0.905924	0.165118	0.000065
C28	C	1.405924	0.665118	0.500065
C29	C	1.348735	-0.043874	0.000080
C30	C	1.848735	0.456126	0.500080
C31	C	1.345720	-0.169888	0.000079
C32	C	1.845720	0.330112	0.500079
C33	C	1.340178	-0.400601	0.000064
C34	C	1.840178	0.099399	0.500064
C35	C	1.343257	-0.272216	0.000072
C36	C	1.843257	0.227784	0.500072
C37	C	1.549186	0.156578	0.000085
C38	C	2.049186	0.656578	0.500085
C39	C	1.675200	0.159593	0.000086
C40	C	2.175200	0.659593	0.500086
C41	C	1.334717	0.371048	0.000066
C42	C	1.834717	0.871048	0.500066
C43	C	1.337732	0.497061	0.000061
C44	C	1.837732	0.997061	0.500061
N45	N	1.327640	0.177621	0.205371
N46	N	1.827640	0.677621	0.705371
N47	N	1.355820	0.149543	-0.205224
N48	N	1.855820	0.649543	0.294776
C49	C	1.401241	0.104073	0.250773
C50	C	1.901241	0.604073	0.750773
C51	C	1.395028	0.110287	0.341580
C52	C	1.895028	0.610287	0.841580
C53	C	1.315218	0.190056	0.386984
C54	C	1.815218	0.690056	0.886984
C55	C	1.241609	0.263607	0.341577
C56	C	1.741609	0.763607	0.841577
C57	C	1.247818	0.257386	0.250771
C58	C	1.747818	0.757386	0.750771
C59	C	1.288420	0.216874	0.658563
C60	C	1.788420	0.716874	1.158563
C61	C	1.282219	0.223091	0.749375
C62	C	1.782219	0.723091	1.249375
C63	C	1.435637	0.069769	0.749372
C64	C	1.935637	0.569769	1.249372
C65	C	1.441843	0.063561	0.658565
C66	C	1.941843	0.563561	1.158565
C67	C	1.368230	0.137108	0.613165
C68	C	1.868230	0.637108	1.113165
N69	N	1.308868	0.196412	0.479804
N70	N	1.808868	0.696412	0.979804
N71	N	1.374576	0.130746	0.520347
N72	N	1.874576	0.630746	1.020347
H73	H	1.466235	0.039122	0.213810
H74	H	1.966235	0.539122	0.713810
N75	N	1.527935	-0.022467	0.609597
N76	N	2.027935	0.477533	1.109597
H77	H	1.520707	-0.015239	0.545183
H78	H	2.020707	0.484761	1.045183
H79	H	1.607436	-0.007704	0.625467
H80	H	2.107436	0.492296	1.125467
H81	H	1.187882	0.317276	0.213806
H82	H	1.687882	0.817276	0.713806
N83	N	1.155535	0.349650	0.390547
N84	N	1.655535	0.849650	0.890547
H85	H	1.109850	0.395298	0.348004
H86	H	1.609850	0.895298	0.848004
H87	H	1.102519	0.308443	0.428237
H88	H	1.602519	0.808443	0.928237
N89	N	1.474453	0.030986	0.390537
N90	N	1.974453	0.530986	0.890537
H91	H	1.462009	-0.050751	0.374746
H92	H	1.962009	0.449249	0.874746
H93	H	1.556113	0.043661	0.374681
H94	H	2.056113	0.543661	0.874681
H95	H	1.495568	0.009889	0.786345
H96	H	1.995568	0.509889	1.286345
N97	N	1.196143	0.309130	0.798360
N98	N	1.696143	0.809130	1.298360
H99	H	1.210782	0.388693	0.782544
H100	H	1.710782	0.888693	1.282544
H101	H	1.116622	0.294336	0.782562
H102	H	1.616622	0.794336	1.282562
N103	N	1.209021	0.296190	0.609603
N104	N	1.709021	0.796190	1.109603
H105	H	1.157523	0.347665	0.652148
H106	H	1.657523	0.847665	1.152148
H107	H	1.255342	0.344084	0.571910
H108	H	1.755342	0.844084	1.071910
