data_functionalizedCrystal
_audit_creation_method	'MofGen! by Chris Wilmer'
_symmetry_space_group_name_H-M	'P1'
_symmetry_Int_Tables_number	1
_symmetry_cell_setting	triclinic
loop_
_symmetry_equiv_pos_as_xyz
  x,y,z
_cell_length_a	12.759401
_cell_length_b	16.625545
_cell_length_c	16.625527
_cell_angle_alpha	90.085698
_cell_angle_beta	89.943226
_cell_angle_gamma	89.976919
loop_
_atom_site_label
_atom_site_type_symbol
_atom_site_fract_x
_atom_site_fract_y
_atom_site_fract_z
Zn1	Zn	1.606584	0.320563	-0.455844
Zn2	Zn	2.106584	0.820563	0.044156
Zn3	Zn	1.606332	0.455542	-0.321011
Zn4	Zn	2.106332	0.955542	0.178989
Zn5	Zn	1.430768	0.320725	-0.321032
Zn6	Zn	1.930768	0.820725	0.178968
Zn7	Zn	1.430845	0.455356	-0.455809
Zn8	Zn	1.930845	0.955356	0.044191
O9	O	1.518632	0.388046	-0.388424
O10	O	2.018632	0.888046	0.111576
O11	O	1.753571	0.338479	-0.437964
O12	O	2.253571	0.838479	0.062036
O13	O	1.582906	0.437803	-0.208181
O14	O	2.082906	0.937803	0.291819
O15	O	1.454163	0.207871	-0.338938
O16	O	1.954163	0.707871	0.161062
O17	O	1.753386	0.437647	-0.338903
O18	O	2.253386	0.937647	0.161097
O19	O	1.583334	0.207752	-0.437984
O20	O	2.083334	0.707752	0.062016
O21	O	1.453920	0.338754	-0.208196
O22	O	1.953920	0.838754	0.291804
O23	O	1.283758	0.338573	-0.338904
O24	O	1.783758	0.838573	0.161096
O25	O	1.454295	0.437330	-0.568646
O26	O	1.954295	0.937330	-0.068646
O27	O	1.283814	0.437486	-0.437924
O28	O	1.783814	0.937486	0.062076
O29	O	1.583409	0.338299	-0.568672
O30	O	2.083409	0.838299	-0.068672
O31	O	1.582980	0.568350	-0.338869
O32	O	2.082980	1.068350	0.161131
O33	O	1.454051	0.568213	-0.437904
O34	O	1.954051	1.068213	0.062096
C35	C	1.245665	0.388027	-0.388413
C36	C	1.745665	0.888027	0.111587
C37	C	1.128888	0.388039	-0.388427
C38	C	1.628888	0.888039	0.111573
C39	C	1.074116	0.336499	-0.440088
C40	C	1.574116	0.836499	0.059912
C41	C	0.964392	0.336515	-0.440093
C42	C	1.464392	0.836515	0.059907
C43	C	0.964223	0.439616	-0.336774
C44	C	1.464223	0.939616	0.163226
C45	C	1.073945	0.439596	-0.336765
C46	C	1.573945	0.939596	0.163235
C47	C	1.129059	0.284942	-0.491750
C48	C	1.629059	0.784942	0.008250
C49	C	1.074286	0.233399	-0.543416
C50	C	1.574286	0.733399	-0.043416
C51	C	0.964562	0.233414	-0.543421
C52	C	1.464562	0.733414	-0.043421
C53	C	0.909611	0.284973	-0.491760
C54	C	1.409611	0.784973	0.008240
C55	C	1.518525	0.597537	-0.388398
C56	C	2.018525	1.097537	0.111602
C57	C	1.518576	0.687158	-0.388414
C58	C	2.018576	1.187158	0.111586
C59	C	1.518747	1.015334	-0.388510
C60	C	2.018747	1.515334	0.111490
C61	C	1.518696	0.924025	-0.388486
C62	C	2.018696	1.424025	0.111514
C63	C	1.518661	0.851249	-0.388462
C64	C	2.018661	1.351249	0.111538
C65	C	1.518611	0.759935	-0.388438
C66	C	2.018611	1.259935	0.111562
C67	C	1.792666	0.388066	-0.388436
C68	C	2.292666	0.888066	0.111564
C69	C	1.909442	0.388074	-0.388441
C70	C	2.409442	0.888074	0.111559
C71	C	1.518889	0.387775	-0.598733
C72	C	2.018889	0.887775	-0.098733
C73	C	1.518998	0.387660	-0.688355
C74	C	2.018998	0.887660	-0.188355
C75	C	1.518759	1.177737	-0.388477
C76	C	2.018759	1.677737	0.111523
C77	C	1.518791	1.088116	-0.388524
C78	C	2.018791	1.588116	0.111476
C79	C	1.518437	0.388258	-0.178933
C80	C	2.018437	0.888258	0.321067
C81	C	1.518532	0.388147	-0.089312
C82	C	2.018532	0.888147	0.410688
C83	C	1.518922	0.387751	0.238863
C84	C	2.018922	0.887751	0.738863
C85	C	1.518816	0.387864	0.147555
C86	C	2.018816	0.887864	0.647555
C87	C	1.518726	0.387950	0.074779
C88	C	2.018726	0.887950	0.574779
C89	C	1.518622	0.388061	-0.016535
C90	C	2.018622	0.888061	0.483465
H91	H	0.820266	0.284964	-0.491751
H92	H	1.320266	0.784964	0.008249
C93	C	1.134735	0.176684	-0.600235
C94	C	1.634735	0.676684	-0.100235
N95	N	1.180263	0.133964	-0.643033
N96	N	1.680263	0.633964	-0.143033
C97	C	1.249758	0.284917	-0.491745
C98	C	1.749758	0.784917	0.008255
N99	N	1.340668	0.284898	-0.491741
N100	N	1.840668	0.784898	0.008259
H101	H	0.919969	0.191440	-0.585484
H102	H	1.419969	0.691440	-0.085484
H103	H	0.919473	0.481594	-0.294715
H104	H	1.419473	0.981594	0.205285
H105	H	1.118542	0.481564	-0.294698
H106	H	1.618542	0.981564	0.205302
