data_functionalizedCrystal
_audit_creation_method	'MofGen! by Chris Wilmer'
_symmetry_space_group_name_H-M	'P1'
_symmetry_Int_Tables_number	1
_symmetry_cell_setting	triclinic
loop_
_symmetry_equiv_pos_as_xyz
  x,y,z
_cell_length_a	17.077404
_cell_length_b	16.625546
_cell_length_c	17.077396
_cell_angle_alpha	90.030215
_cell_angle_beta	90.019501
_cell_angle_gamma	90.022693
loop_
_atom_site_label
_atom_site_type_symbol
_atom_site_fract_x
_atom_site_fract_y
_atom_site_fract_z
Zn1	Zn	1.200057	-0.320997	0.443833
Zn2	Zn	1.199965	-0.455839	0.312563
Zn3	Zn	1.068789	-0.321025	0.312581
Zn4	Zn	1.068758	-0.455792	0.443787
O5	O	1.134392	-0.388413	0.378191
O6	O	1.309892	-0.338892	0.426432
O7	O	1.182539	-0.437988	0.202719
O8	O	1.086253	-0.208189	0.330019
O9	O	1.309824	-0.437960	0.329988
O10	O	1.182695	-0.208168	0.426449
O11	O	1.086164	-0.338940	0.202732
O12	O	0.958938	-0.338894	0.329974
O13	O	1.086200	-0.437879	0.553640
O14	O	0.958915	-0.437906	0.426370
O15	O	1.182665	-0.338846	0.553674
O16	O	1.182509	-0.568666	0.329943
O17	O	1.086111	-0.568630	0.426353
C18	C	0.930444	-0.388399	0.378169
C19	C	0.843194	-0.388412	0.378179
C20	C	0.802213	-0.440045	0.428292
C21	C	0.720232	-0.440047	0.428304
C22	C	0.679235	-0.388419	0.378199
C23	C	0.720222	-0.336780	0.328084
C24	C	0.802201	-0.336774	0.328076
C25	C	0.549352	-0.336795	0.328103
C26	C	0.467368	-0.336801	0.328110
C27	C	0.467383	-0.440068	0.428331
C28	C	0.549362	-0.440063	0.428323
C29	C	0.590344	-0.388425	0.378207
C30	C	1.134318	-0.597904	0.378158
C31	C	1.134358	-0.687525	0.378170
C32	C	1.134495	-1.015701	0.378252
C33	C	1.134454	-0.924392	0.378232
C34	C	1.134426	-0.851616	0.378211
C35	C	1.134386	-0.760302	0.378191
C36	C	1.339136	-0.388428	0.378213
C37	C	1.426386	-0.388435	0.378223
C38	C	1.134440	-0.388354	0.582936
C39	C	1.134460	-0.388329	0.670185
C40	C	1.134488	-0.178104	0.378241
C41	C	1.134529	-0.088483	0.378263
C42	C	1.134390	-0.388414	0.174243
C43	C	1.134522	-0.388212	0.086994
C44	C	1.184691	-0.336758	0.711195
C45	C	1.184700	-0.336731	0.793175
C46	C	1.134482	-0.388280	0.834145
C47	C	1.084245	-0.439853	0.793130
C48	C	1.084233	-0.439875	0.711151
C49	C	1.084277	-0.439804	0.964000
C50	C	1.084291	-0.439783	1.045985
C51	C	1.184745	-0.336660	1.046024
C52	C	1.184732	-0.336682	0.964045
C53	C	1.134496	-0.388257	0.923036
H54	H	0.433990	-0.294752	0.287319
O55	O	0.589068	-0.490241	0.477067
C56	C	0.535319	-0.535834	0.521289
H57	H	0.476892	-0.502818	0.524075
H58	H	0.559034	-0.544514	0.583117
H59	H	0.526570	-0.597034	0.492436
O60	O	1.233430	-0.286487	0.924289
C61	C	1.216321	-0.206123	0.944361
H62	H	1.153615	-0.202049	0.966885
H63	H	1.223091	-0.166297	0.890464
H64	H	1.258420	-0.185039	0.991963
O65	O	1.233651	-0.286642	1.085825
C66	C	1.311876	-0.304263	1.065796
H67	H	1.315807	-0.368684	1.043245
H68	H	1.350663	-0.297307	1.119721
H69	H	1.332412	-0.261049	1.018227
O70	O	0.842101	-0.286733	0.279356
C71	C	0.889471	-0.332570	0.228560
H72	H	0.901742	-0.393711	0.256136
H73	H	0.947126	-0.299711	0.218095
H74	H	0.857850	-0.341354	0.170374
H75	H	1.043397	-0.481757	1.079340
O76	O	1.035532	-0.490093	0.671342
C77	C	1.052647	-0.570448	0.691371
H78	H	1.115357	-0.574511	0.713925
H79	H	1.045870	-0.610296	0.637445
H80	H	1.010557	-0.591515	0.738938
O81	O	1.233527	-0.286744	0.833103
C82	C	1.284222	-0.332636	0.880516
H83	H	1.256515	-0.393737	0.892773
H84	H	1.294753	-0.299775	0.938175
H85	H	1.342391	-0.341502	0.848940
H86	H	0.582717	-0.294739	0.287300
H87	H	0.686836	-0.294739	0.287291
O88	O	1.035350	-0.489842	0.832890
C89	C	0.957120	-0.472233	0.812834
H90	H	0.953182	-0.407824	0.790317
H91	H	0.918345	-0.479164	0.866738
H92	H	0.936574	-0.515471	0.765232
O93	O	0.841913	-0.490224	0.477039
C94	C	0.788158	-0.535809	0.521260
H95	H	0.729733	-0.502790	0.524039
H96	H	0.811867	-0.544488	0.583091
H97	H	0.779407	-0.597011	0.492410
O98	O	0.680333	-0.490245	0.476870
C99	C	0.632889	-0.542273	0.432085
H100	H	0.620595	-0.513752	0.372650
H101	H	0.575250	-0.553124	0.464042
H102	H	0.664457	-0.602014	0.423348
O103	O	0.427457	-0.490151	0.476994
C104	C	0.346309	-0.479098	0.466249
H105	H	0.335121	-0.416839	0.440654
H106	H	0.315180	-0.484648	0.525042
H107	H	0.323008	-0.526869	0.424365
O108	O	1.233499	-0.286607	0.671521
C109	C	1.277849	-0.241097	0.725301
H110	H	1.245706	-0.238288	0.783733
H111	H	1.286247	-0.177575	0.701634
H112	H	1.337454	-0.270625	0.734024
O113	O	1.035466	-0.489993	0.924284
C114	C	0.991139	-0.535482	0.978022
H115	H	1.023292	-0.538241	1.036469
H116	H	0.982757	-0.599022	0.954324
H117	H	0.931526	-0.505968	0.986725
