data_functionalizedCrystal
_audit_creation_method	'MofGen! by Chris Wilmer'
_symmetry_space_group_name_H-M	'P1'
_symmetry_Int_Tables_number	1
_symmetry_cell_setting	triclinic
loop_
_symmetry_equiv_pos_as_xyz
  x,y,z
_cell_length_a	12.759395
_cell_length_b	16.959453
_cell_length_c	12.759387
_cell_angle_alpha	89.965592
_cell_angle_beta	89.978972
_cell_angle_gamma	90.020749
loop_
_atom_site_label
_atom_site_type_symbol
_atom_site_fract_x
_atom_site_fract_y
_atom_site_fract_z
Zn1	Zn	1.606230	-0.314624	-0.593993
Zn2	Zn	1.606104	-0.446824	-0.418303
Zn3	Zn	1.430528	-0.314665	-0.418329
Zn4	Zn	1.430504	-0.446766	-0.593940
O5	O	1.518342	-0.380720	-0.506141
O6	O	1.753235	-0.332167	-0.570699
O7	O	1.582771	-0.429334	-0.271285
O8	O	1.453898	-0.204049	-0.441664
O9	O	1.753142	-0.429294	-0.441620
O10	O	1.582985	-0.204018	-0.570724
O11	O	1.453776	-0.332238	-0.271304
O12	O	1.283504	-0.332182	-0.441612
O13	O	1.453857	-0.429195	-0.740968
O14	O	1.283486	-0.429236	-0.570634
O15	O	1.582962	-0.332111	-0.741007
O16	O	1.582748	-0.557427	-0.441568
O17	O	1.453736	-0.557385	-0.570608
C18	C	1.245374	-0.380707	-0.506121
C19	C	1.128598	-0.380721	-0.506137
C20	C	0.909259	-0.279764	-0.640799
C21	C	0.964173	-0.229268	-0.708100
C22	C	1.073895	-0.229254	-0.708082
C23	C	1.128705	-0.279744	-0.640757
C24	C	1.073790	-0.330239	-0.573456
C25	C	0.964066	-0.330246	-0.573479
C26	C	1.073683	-0.431217	-0.438836
C27	C	0.963962	-0.431227	-0.438847
C28	C	1.128493	-0.481706	-0.371511
C29	C	1.073579	-0.532198	-0.304203
C30	C	0.963851	-0.532209	-0.304223
C31	C	0.909047	-0.481723	-0.371546
C32	C	1.518254	-0.586086	-0.506103
C33	C	1.518313	-0.673943	-0.506121
C34	C	1.585644	-1.045344	-0.573470
C35	C	1.451333	-1.045492	-0.438969
C36	C	1.451294	-0.962947	-0.438945
C37	C	1.518430	-0.921595	-0.506185
C38	C	1.585605	-0.962790	-0.573450
C39	C	1.384114	-0.921746	-0.371689
C40	C	1.384071	-0.839195	-0.371663
C41	C	1.451213	-0.797842	-0.438899
C42	C	1.518391	-0.839042	-0.506165
C43	C	1.585526	-0.797691	-0.573406
C44	C	1.652711	-0.838889	-0.640668
C45	C	1.652746	-0.921438	-0.640686
C46	C	1.451177	-0.715294	-0.438881
C47	C	1.585487	-0.715137	-0.573386
C48	C	1.792375	-0.380733	-0.506162
C49	C	1.909152	-0.380738	-0.506171
C50	C	1.518421	-0.380642	-0.780175
C51	C	1.518455	-0.380609	-0.896952
C52	C	1.518458	-0.174551	-0.506203
C53	C	1.518508	-0.086695	-0.506229
C54	C	1.652901	-0.279522	-0.897012
C55	C	1.720139	-0.228967	-0.951903
C56	C	1.720164	-0.228938	-1.061625
C57	C	1.652943	-0.279468	-1.116458
C58	C	1.585705	-0.330024	-1.061567
C59	C	1.585689	-0.330049	-0.951843
C60	C	1.451255	-0.431106	-1.061506
C61	C	1.451233	-0.431140	-0.951785
C62	C	1.384034	-0.481636	-1.116340
C63	C	1.316800	-0.532197	-1.061449
C64	C	1.316778	-0.532224	-0.951720
C65	C	1.383996	-0.481695	-0.896894
C66	C	1.518323	-0.380740	-0.233174
C67	C	1.518493	-0.380550	-0.116397
H68	H	0.819706	-0.481717	-0.371556
H69	H	1.396670	-1.079165	-0.384229
F70	F	1.657146	-1.089189	-0.645048
F71	F	1.131917	-0.585931	-0.232566
F72	F	1.312651	-0.965758	-0.300149
H73	H	1.262068	-0.573330	-1.106102
F74	F	1.724239	-0.965289	-0.712267
H75	H	1.396472	-0.681754	-0.384122
H76	H	1.652897	-0.279548	-0.807671
F77	F	1.652965	-0.279428	-1.233234
F78	F	1.656949	-0.671135	-0.644949
F79	F	1.383983	-0.481723	-0.780118
H80	H	1.262013	-0.573384	-0.907034
F81	F	0.905415	-0.585960	-0.232598
F82	F	1.245269	-0.481695	-0.371499
H83	H	1.707368	-0.805212	-0.695420
H84	H	1.774867	-0.187824	-0.907246
H85	H	1.774908	-0.187766	-1.106317
H86	H	0.819918	-0.279752	-0.640798
F87	F	0.905834	-0.175541	-0.779754
H88	H	1.329368	-0.805656	-0.316894
F89	F	1.384061	-0.481603	-1.233116
H90	H	1.118606	-0.188138	-0.762886
H91	H	1.218046	-0.279735	-0.640758
