data_functionalizedCrystal
_audit_creation_method	'MofGen! by Chris Wilmer'
_symmetry_space_group_name_H-M	'P1'
_symmetry_Int_Tables_number	1
_symmetry_cell_setting	triclinic
loop_
_symmetry_equiv_pos_as_xyz
  x,y,z
_cell_length_a	10.654549
_cell_length_b	10.654550
_cell_length_c	9.730223
_cell_angle_alpha	89.995747
_cell_angle_beta	89.997731
_cell_angle_gamma	84.484854
loop_
_atom_site_label
_atom_site_type_symbol
_atom_site_fract_x
_atom_site_fract_y
_atom_site_fract_z
O1	O	1.667839	0.176396	-0.114258
O2	O	1.302361	0.193203	-0.114268
O3	O	1.493503	0.002060	-0.114254
O4	O	1.476697	0.367539	-0.114272
O5	O	1.493491	0.002055	0.114326
O6	O	1.302348	0.193198	0.114312
O7	O	1.667827	0.176391	0.114322
Zn8	Zn	1.485086	0.184794	0.150609
Zn9	Zn	1.485102	0.184801	-0.150555
O10	O	1.476685	0.367534	0.114308
C11	C	1.255557	0.191966	0.000021
C12	C	1.116113	0.188275	0.000018
C13	C	1.492263	-0.044740	0.000035
C14	C	1.488571	-0.184183	0.000033
C15	C	0.905599	0.297338	0.000018
C16	C	1.036619	0.300816	0.000010
C17	C	1.064581	0.072247	0.000020
C18	C	0.933563	0.068770	0.000019
C19	C	1.601113	-0.263669	0.000036
C20	C	1.597636	-0.394690	0.000019
C21	C	1.369067	-0.366727	0.000003
C22	C	1.372544	-0.235708	0.000010
C23	C	1.714631	0.177628	0.000030
C24	C	1.854074	0.181319	0.000025
C25	C	1.477925	0.414334	0.000016
C26	C	1.481617	0.553777	0.000009
N27	N	1.485084	0.184788	0.356146
N28	N	1.485114	0.184796	-0.356091
C29	C	1.569751	0.100186	0.428078
C30	C	1.569763	0.100187	0.571961
C31	C	1.400438	0.269402	0.571967
C32	C	1.400420	0.269394	0.428087
H33	H	0.840882	0.388983	0.000022
H34	H	1.078563	0.395290	0.000003
H35	H	0.891613	-0.025712	0.000020
H36	H	1.695589	-0.221722	0.000052
O37	O	1.707077	-0.471722	0.000086
C38	C	1.934153	-0.485622	0.000027
C39	C	1.810302	-0.398240	-0.000014
H40	H	2.017642	-0.426248	-0.000083
H41	H	1.938318	-0.547651	0.095704
H42	H	1.938182	-0.547673	-0.095617
H43	H	1.806191	-0.336111	0.095565
H44	H	1.806188	-0.336297	-0.095754
O45	O	1.318297	0.351759	0.358267
C46	C	1.246535	0.569453	0.314278
C47	C	1.339628	0.476325	0.393408
H48	H	1.263731	0.670183	0.342682
H49	H	1.261061	0.555021	0.199069
H50	H	1.145820	0.552085	0.342573
H51	H	1.440379	0.493636	0.365228
H52	H	1.324992	0.490778	0.508597
H53	H	1.274601	-0.408694	-0.000014
O54	O	1.263097	-0.158667	0.000069
C55	C	1.036020	-0.144746	-0.000034
C56	C	1.159864	-0.232138	-0.000061
H57	H	0.952525	-0.204112	-0.000168
H58	H	1.031840	-0.082738	0.095650
H59	H	1.032018	-0.082674	-0.095671
H60	H	1.163949	-0.294288	0.095511
H61	H	1.163993	-0.294060	-0.095808
O62	O	1.652027	0.017875	0.358406
C63	C	1.820020	-0.149919	0.373593
C64	C	1.726890	-0.056783	0.452661
H65	H	1.880589	-0.210286	0.449763
H66	H	1.765313	-0.213256	0.306290
H67	H	1.883164	-0.095093	0.306174
H68	H	1.663723	-0.111507	0.520155
H69	H	1.781676	0.006553	0.519877
O70	O	1.318032	0.351461	0.641795
C71	C	1.100304	0.423064	0.685795
C72	C	1.193489	0.330040	0.606657
H73	H	0.999591	0.405795	0.657393
H74	H	1.114754	0.408538	0.801003
H75	H	1.117595	0.523801	0.657505
H76	H	1.176255	0.229267	0.634832
H77	H	1.179017	0.344676	0.491469
H78	H	1.129316	-0.019386	0.000019
H79	H	1.638705	0.031295	0.630524
