data_functionalizedCrystal
_audit_creation_method	'MofGen! by Chris Wilmer'
_symmetry_space_group_name_H-M	'P1'
_symmetry_Int_Tables_number	1
_symmetry_cell_setting	triclinic
loop_
_symmetry_equiv_pos_as_xyz
  x,y,z
_cell_length_a	19.805407
_cell_length_b	21.295417
_cell_length_c	19.805407
_cell_angle_alpha	90.016581
_cell_angle_beta	90.009221
_cell_angle_gamma	90.030507
loop_
_atom_site_label
_atom_site_type_symbol
_atom_site_fract_x
_atom_site_fract_y
_atom_site_fract_z
Zn1	Zn	1.034647	-0.250712	0.382704
Zn2	Zn	1.034574	-0.355955	0.269509
Zn3	Zn	0.921482	-0.250704	0.269529
Zn4	Zn	0.921417	-0.355948	0.382656
O5	O	0.978030	-0.303330	0.326100
O6	O	1.129354	-0.264680	0.367701
O7	O	1.019569	-0.341992	0.174795
O8	O	0.936552	-0.162615	0.284570
O9	O	1.129301	-0.342001	0.284537
O10	O	1.019693	-0.162622	0.367719
O11	O	0.936481	-0.264665	0.174810
O12	O	0.826757	-0.264658	0.284523
O13	O	0.936441	-0.341989	0.477379
O14	O	0.826709	-0.341980	0.367638
O15	O	1.019630	-0.264673	0.477414
O16	O	1.019506	-0.444043	0.284490
O17	O	0.936370	-0.444038	0.367619
C18	C	0.802174	-0.303318	0.326078
C19	C	0.726942	-0.303328	0.326084
C20	C	0.691591	-0.343650	0.369292
C21	C	0.620903	-0.343651	0.369301
C22	C	0.585567	-0.303333	0.326100
C23	C	0.620923	-0.263006	0.282890
C24	C	0.691610	-0.263002	0.282885
C25	C	0.335850	-0.263020	0.282913
C26	C	0.265158	-0.263028	0.282920
C27	C	0.265142	-0.343669	0.369329
C28	C	0.335829	-0.343665	0.369324
C29	C	0.371179	-0.303336	0.326117
C30	C	0.447828	-0.303335	0.326108
C31	C	0.508920	-0.303337	0.326105
C32	C	0.977942	-0.466881	0.326062
C33	C	0.977966	-0.536849	0.326069
C34	C	1.021293	-0.569698	0.282828
C35	C	1.021325	-0.635440	0.282843
C36	C	0.978017	-0.668332	0.326092
C37	C	0.934686	-0.635475	0.369341
C38	C	0.934661	-0.569734	0.369329
N39	N	0.918806	-0.771599	0.331245
N40	N	0.918832	-0.834050	0.331252
C41	C	0.978093	-0.866407	0.326131
N42	N	1.037328	-0.833952	0.320989
N43	N	1.037300	-0.771495	0.320979
C44	C	0.978040	-0.739617	0.326110
C45	C	1.021458	-0.970541	0.282904
C46	C	1.021491	-1.036284	0.282924
C47	C	0.934847	-1.036318	0.369419
C48	C	0.934820	-0.970576	0.369402
C49	C	0.978125	-0.937691	0.326142
C50	C	1.154573	-0.303342	0.326122
C51	C	1.229805	-0.303348	0.326131
C52	C	0.978036	-0.303331	0.502642
C53	C	0.978039	-0.303331	0.577874
C54	C	0.978138	-0.139139	0.326152
C55	C	0.978184	-0.069171	0.326174
C56	C	1.021350	-0.263079	0.613238
C57	C	1.021344	-0.263077	0.683926
C58	C	0.978030	-0.303331	0.719250
C59	C	0.934714	-0.343585	0.683881
C60	C	0.934717	-0.343584	0.613194
C61	C	0.934701	-0.343593	0.968955
C62	C	0.934703	-0.343593	1.039647
C63	C	1.021328	-0.263086	1.039687
C64	C	1.021331	-0.263085	0.969000
C65	C	0.978013	-0.303336	0.933637
C66	C	0.978019	-0.303337	0.856989
C67	C	0.978027	-0.303334	0.795897
C68	C	0.978018	-0.303341	1.150244
C69	C	0.978011	-0.303337	1.075012
H70	H	0.364596	-0.376499	0.404501
F71	F	0.227514	-0.386590	0.415315
H72	H	0.899588	-1.063098	0.404636
H73	H	0.899442	-0.376355	0.584402
F74	F	0.888544	-0.534773	0.415354
H75	H	0.899426	-0.662260	0.404556
H76	H	0.364623	-0.230186	0.247726
H77	H	0.899444	-0.376358	0.712647
H78	H	0.236389	-0.230192	0.247740
H79	H	0.592147	-0.230175	0.247717
H80	H	1.056604	-0.230308	0.940243
H81	H	0.899536	-0.943829	0.404610
F82	F	1.067466	-0.220257	0.721560
H83	H	1.056598	-0.230310	1.068487
H84	H	1.056624	-0.230302	0.584482
F85	F	1.067441	-0.670407	0.236818
H86	H	1.056556	-0.542925	0.247604
H87	H	0.720356	-0.376484	0.404470
F88	F	0.888597	-0.386432	0.931328
H89	H	0.899428	-0.376373	1.068405
H90	H	0.720392	-0.230164	0.247704
H91	H	0.592123	-0.376486	0.404485
H92	H	1.056778	-1.063028	0.247714
H93	H	1.056722	-0.943765	0.247681
