data_functionalizedCrystal
_audit_creation_method	'MofGen! by Chris Wilmer'
_symmetry_space_group_name_H-M	'P1'
_symmetry_Int_Tables_number	1
_symmetry_cell_setting	triclinic
loop_
_symmetry_equiv_pos_as_xyz
  x,y,z
_cell_length_a	16.992694
_cell_length_b	15.538191
_cell_length_c	16.053802
_cell_angle_alpha	91.543625
_cell_angle_beta	87.249047
_cell_angle_gamma	68.970158
loop_
_atom_site_label
_atom_site_type_symbol
_atom_site_fract_x
_atom_site_fract_y
_atom_site_fract_z
O1	O	0.989072	0.191921	-0.069317
O2	O	0.761399	0.189774	-0.069342
O3	O	0.919554	0.057054	-0.069328
O4	O	0.830917	0.324641	-0.069330
O5	O	0.910858	0.064328	0.069530
O6	O	0.752703	0.197047	0.069517
O7	O	0.980376	0.199194	0.069541
Zn8	Zn	0.865158	0.199275	0.091576
Zn9	Zn	0.876616	0.189693	-0.091376
O10	O	0.822220	0.331914	0.069528
C11	C	0.728624	0.190651	0.000084
C12	C	0.643924	0.182415	0.000075
C13	C	0.571070	0.261869	0.000075
C14	C	0.491487	0.254127	0.000086
C15	C	0.484759	0.166930	0.000092
C16	C	0.557620	0.087471	0.000094
C17	C	0.637202	0.095214	0.000089
C18	C	0.250294	0.134837	0.000114
C19	C	0.170704	0.127099	0.000117
C20	C	0.104576	0.293756	0.000111
C21	C	0.184163	0.301491	0.000101
C22	C	0.257017	0.222032	0.000107
N23	N	0.403412	0.159014	0.000101
N24	N	0.338361	0.229949	0.000104
C25	C	0.924480	0.026294	0.000099
C26	C	0.952104	-0.076201	0.000094
C27	C	0.677671	-0.384652	0.000082
C28	C	0.703646	-0.480962	0.000086
C29	C	0.849754	-0.492405	0.000102
C30	C	0.823791	-0.396094	0.000093
C31	C	0.737748	-0.342225	0.000084
C32	C	0.883869	-0.353667	0.000095
C33	C	0.857907	-0.257364	0.000091
C34	C	0.771868	-0.203488	0.000084
C35	C	0.711787	-0.245922	0.000080
C36	C	0.969911	-0.407537	0.000110
C37	C	1.029988	-0.365110	0.000113
C38	C	1.004027	-0.268806	0.000102
C39	C	0.917988	-0.214931	0.000096
C40	C	1.064108	-0.226373	0.000107
C41	C	1.038147	-0.130070	0.000103
C42	C	0.892026	-0.118628	0.000091
C43	C	1.013151	0.198317	0.000114
C44	C	1.097851	0.206552	0.000118
C45	C	0.817295	0.362675	0.000099
C46	C	0.789671	0.465169	0.000099
N47	N	0.857345	0.205815	0.216435
N48	N	0.884438	0.183146	-0.216236
C49	C	0.924652	0.149366	0.260135
C50	C	0.919191	0.153950	0.347541
C51	C	0.846424	0.214988	0.391246
C52	C	0.779111	0.271440	0.347541
C53	C	0.784570	0.266851	0.260136
C54	C	0.822584	0.235009	0.652654
C55	C	0.817130	0.239596	0.740065
C56	C	0.957211	0.122103	0.740059
C57	C	0.962666	0.117523	0.652653
C58	C	0.895351	0.173972	0.608955
N59	N	0.840841	0.219677	0.480590
N60	N	0.900932	0.169277	0.519613
H61	H	0.552136	0.016474	0.000111
H62	H	1.100044	-0.408983	0.000123
H63	H	0.983909	0.099665	0.224556
H64	H	1.012015	0.076144	0.775646
H65	H	0.719859	0.321136	0.383130
H66	H	0.729760	0.312817	0.224557
O67	O	1.033153	0.058138	0.609977
C68	C	1.069732	0.108119	0.559123
H69	H	1.049201	0.182288	0.585452
H70	H	1.141492	0.074628	0.557773
H71	H	1.048085	0.107857	0.493023
H72	H	0.696521	0.030514	0.000088
O73	O	1.147687	-0.278658	0.000267
C74	C	1.181289	-0.254813	0.072173
H75	H	1.128256	-0.222352	0.122432
H76	H	1.229989	-0.319473	0.096323
H77	H	1.212793	-0.203336	0.055911
O78	O	0.164058	0.042446	0.000239
C79	C	0.115522	0.036748	0.072167
H80	H	0.073393	0.109194	0.096136
H81	H	0.074565	-0.004810	0.055997
H82	H	0.159359	0.001255	0.122529
O83	O	0.746359	0.298904	0.782392
C84	C	0.688120	0.347756	0.725082
H85	H	0.701911	0.306612	0.662778
H86	H	0.621253	0.358476	0.750346
H87	H	0.694102	0.417681	0.715779
O88	O	1.096543	-0.088899	-0.000050
C89	C	1.151845	-0.119695	-0.071953
H90	H	1.119382	-0.145463	-0.122217
H91	H	1.169414	-0.060219	-0.096097
H92	H	1.211456	-0.178304	-0.055690
H93	H	0.309604	0.070135	0.000121
H94	H	0.767774	0.280973	0.617082
O95	O	0.984591	0.098988	0.389894
C96	C	0.999438	0.005620	0.368561
H97	H	0.973781	0.000150	0.305107
H98	H	1.070244	-0.035558	0.365559
H99	H	0.966297	-0.023233	0.417765
O100	O	0.577449	0.346646	0.000105
C101	C	0.496079	0.415111	0.000088
H102	H	0.447403	0.386538	0.026382
H103	H	0.493426	0.477738	0.040400
H104	H	0.481609	0.436418	-0.066528
H105	H	0.189632	0.372495	0.000086
O106	O	0.420682	0.331286	0.000226
C107	C	0.368162	0.335559	0.072133
H108	H	0.407766	0.293251	0.122404
H109	H	0.336502	0.410437	0.096261
H110	H	0.317752	0.306446	0.055881
O111	O	0.033720	0.370846	0.000149
C112	C	-0.037965	0.345318	0.000134
H113	H	-0.022061	0.274025	0.026422
H114	H	-0.091845	0.397704	0.040451
H115	H	-0.057955	0.343583	-0.066482
O116	O	0.808427	-0.066393	-0.000036
C117	C	0.774838	-0.090194	-0.071970
H118	H	0.815958	-0.163003	-0.095939
H119	H	0.707873	-0.087397	-0.055810
H120	H	0.773520	-0.039430	-0.122329
H121	H	0.750731	-0.125073	0.000086
H122	H	0.641722	-0.202059	0.000066
O123	O	0.594052	-0.332450	0.000100
C124	C	0.546589	-0.390547	0.000069
H125	H	0.584858	-0.459494	0.026367
H126	H	0.485461	-0.356601	0.040369
H127	H	0.531067	-0.402523	-0.066553
O128	O	0.645390	-0.522322	0.000119
C129	C	0.686753	-0.618874	0.000104
H130	H	0.751441	-0.635566	0.026396
H131	H	0.647437	-0.649706	0.040418
H132	H	0.694826	-0.649425	-0.066512
O133	O	0.933364	-0.544646	-0.000004
C134	C	0.975960	-0.528384	-0.071932
H135	H	0.937837	-0.458092	-0.095912
H136	H	1.040897	-0.529476	-0.055758
H137	H	0.983592	-0.584431	-0.122287
H138	H	0.991046	-0.485953	0.000106
