data_functionalizedCrystal
_audit_creation_method	'MofGen! by Chris Wilmer'
_symmetry_space_group_name_H-M	'P1'
_symmetry_Int_Tables_number	1
_symmetry_cell_setting	triclinic
loop_
_symmetry_equiv_pos_as_xyz
  x,y,z
_cell_length_a	18.215407
_cell_length_b	12.759400
_cell_length_c	12.759401
_cell_angle_alpha	90.007629
_cell_angle_beta	90.004507
_cell_angle_gamma	90.015132
loop_
_atom_site_label
_atom_site_type_symbol
_atom_site_fract_x
_atom_site_fract_y
_atom_site_fract_z
Zn1	Zn	1.125013	-0.418440	0.594074
Zn2	Zn	1.625013	0.081560	1.094074
Zn3	Zn	1.124976	-0.594085	0.418395
Zn4	Zn	1.624976	-0.094085	0.918395
Zn5	Zn	1.001978	-0.418422	0.418404
Zn6	Zn	1.501978	0.081578	0.918404
Zn7	Zn	1.001933	-0.594079	0.594026
Zn8	Zn	1.501933	-0.094079	1.094026
O9	O	1.063475	-0.506257	0.506225
O10	O	1.563475	-0.006257	1.006225
O11	O	1.227992	-0.441750	0.570787
O12	O	1.727992	0.058250	1.070787
O13	O	1.108664	-0.570779	0.271375
O14	O	1.608664	-0.070779	0.771375
O15	O	1.018333	-0.271404	0.441731
O16	O	1.518333	0.228596	0.941731
O17	O	1.227965	-0.570796	0.441715
O18	O	1.727965	-0.070796	0.941715
O19	O	1.108726	-0.271417	0.570795
O20	O	1.608726	0.228583	1.070795
O21	O	1.018298	-0.441720	0.271381
O22	O	1.518298	0.058280	0.771381
O23	O	0.898988	-0.441714	0.441684
O24	O	1.398988	0.058286	0.941684
O25	O	1.018256	-0.570784	0.741053
O26	O	1.518256	-0.070784	1.241053
O27	O	0.898955	-0.570768	0.570712
O28	O	1.398955	-0.070768	1.070712
O29	O	1.108682	-0.441743	0.741089
O30	O	1.608682	0.058257	1.241089
O31	O	1.108620	-0.741106	0.441668
O32	O	1.608620	-0.241106	0.941668
O33	O	1.018221	-0.741101	0.570704
O34	O	1.518221	-0.241101	1.070704
C35	C	0.872269	-0.506239	0.506194
C36	C	1.372269	-0.006239	1.006194
C37	C	0.790470	-0.506256	0.506206
C38	C	1.290470	-0.006256	1.006206
C39	C	0.602278	-0.573560	0.573307
C40	C	1.102278	-0.073560	1.073307
C41	C	0.525419	-0.573564	0.573321
C42	C	1.025419	-0.073564	1.073321
C43	C	0.525424	-0.438972	0.439165
C44	C	1.025424	0.061028	0.939165
C45	C	0.602281	-0.438964	0.439158
C46	C	1.102281	0.061036	0.939158
C47	C	0.640706	-0.506264	0.506227
C48	C	1.140706	-0.006264	1.006227
C49	C	0.486990	-0.506275	0.506248
C50	C	0.986990	-0.006275	1.006248
C51	C	0.403657	-0.506279	0.506261
C52	C	0.903657	-0.006279	1.006261
C53	C	0.724045	-0.506260	0.506215
C54	C	1.224045	-0.006260	1.006215
C55	C	1.063431	-0.779224	0.506203
C56	C	1.563431	-0.279224	1.006203
C57	C	1.063480	-0.896001	0.506228
C58	C	1.563480	-0.396001	1.006228
C59	C	1.110603	-0.950830	0.439114
C60	C	1.610603	-0.450830	0.939114
C61	C	1.110648	-1.060554	0.439146
C62	C	1.610648	-0.560554	0.939146
C63	C	1.016441	-1.060609	0.573411
C64	C	1.516441	-0.560609	1.073411
C65	C	1.016400	-0.950887	0.573383
C66	C	1.516400	-0.450887	1.073383
C67	C	1.157683	-0.895944	0.371960
C68	C	1.657683	-0.395944	0.871960
C69	C	1.204809	-0.950773	0.304839
C70	C	1.704809	-0.450773	0.804839
C71	C	1.204854	-1.060497	0.304871
C72	C	1.704854	-0.560497	0.804871
C73	C	1.157773	-1.115392	0.372025
C74	C	1.657773	-0.615392	0.872025
C75	C	1.255428	-0.506275	0.506255
C76	C	1.755428	-0.006275	1.006255
C77	C	1.337227	-0.506283	0.506269
C78	C	1.837227	-0.006283	1.006269
C79	C	1.063469	-0.506265	0.780258
C80	C	1.563469	-0.006265	1.280258
C81	C	1.063466	-0.506269	0.897034
C82	C	1.563466	-0.006269	1.397034
C83	C	1.063539	-0.232223	0.506270
C84	C	1.563539	0.267777	1.006270
C85	C	1.063566	-0.115447	0.506289
C86	C	1.563566	0.384553	1.006289
C87	C	1.016386	-0.573451	0.951880
C88	C	1.516386	-0.073451	1.451880
C89	C	1.016391	-0.573457	1.061604
C90	C	1.516391	-0.073457	1.561604
C91	C	1.110559	-0.439090	1.061628
C92	C	1.610559	0.060910	1.561628
C93	C	1.110556	-0.439090	0.951906
C94	C	1.610556	0.060910	1.451906
C95	C	0.969295	-0.640630	0.897008
C96	C	1.469295	-0.140630	1.397008
C97	C	0.922211	-0.707817	0.951853
C98	C	1.422211	-0.207817	1.451853
C99	C	0.922217	-0.707823	1.061578
C100	C	1.422217	-0.207823	1.561578
C101	C	0.969306	-0.640642	1.116456
C102	C	1.469306	-0.140642	1.616456
C103	C	1.063475	-0.506273	1.233257
C104	C	1.563475	-0.006273	1.733257
C105	C	1.063474	-0.506275	1.116481
C106	C	1.563474	-0.006275	1.616481
H107	H	0.633561	-0.628358	0.627923
H108	H	1.133561	-0.128358	1.127923
H109	H	1.157649	-0.806601	0.371923
H110	H	1.657649	-0.306601	0.871923
H111	H	0.494134	-0.628361	0.627945
H112	H	0.994134	-0.128361	1.127945
H113	H	1.157820	-1.204736	0.372054
H114	H	1.657820	-0.704736	0.872054
H115	H	0.494129	-0.384180	0.384557
H116	H	0.994129	0.115820	0.884557
H117	H	0.633571	-0.384157	0.384533
H118	H	1.133571	0.115843	0.884533
C119	C	0.969284	-0.640628	0.776310
C120	C	1.469284	-0.140628	1.276310
N121	N	0.969276	-0.640625	0.685400
N122	N	1.469276	-0.140625	1.185400
H123	H	1.243145	-0.906073	0.250171
H124	H	1.743145	-0.406073	0.750171
C125	C	1.256695	-1.120807	0.231040
C126	C	1.756695	-0.620807	0.731040
N127	N	1.295739	-1.166230	0.175423
N128	N	1.795739	-0.666230	0.675423
H129	H	0.883883	-0.762537	1.106230
H130	H	1.383883	-0.262537	1.606230
C131	C	0.870417	-0.781713	0.891485
C132	C	1.370417	-0.281713	1.391485
N133	N	0.831403	-0.837373	0.846016
N134	N	1.331403	-0.337373	1.346016
C135	C	1.162345	-0.365184	1.121999
C136	C	1.662345	0.134816	1.621999
N137	N	1.201348	-0.309512	1.167470
N138	N	1.701348	0.190488	1.667470
C139	C	0.964551	-0.890571	0.647197
C140	C	1.464551	-0.390571	1.147197
N141	N	0.925496	-0.845141	0.702792
N142	N	1.425496	-0.345141	1.202792
C143	C	0.964649	-1.120997	0.647264
C144	C	1.464649	-0.620997	1.147264
N145	N	0.925634	-1.166482	0.702887
N146	N	1.425634	-0.666482	1.202887
H147	H	1.148892	-0.384382	0.907250
H148	H	1.648892	0.115618	1.407250
H149	H	0.969312	-0.640659	1.205801
H150	H	1.469312	-0.140659	1.705801
