data_functionalizedCrystal
_audit_creation_method	'MofGen! by Chris Wilmer'
_symmetry_space_group_name_H-M	'P1'
_symmetry_Int_Tables_number	1
_symmetry_cell_setting	triclinic
loop_
_symmetry_equiv_pos_as_xyz
  x,y,z
_cell_length_a	6.817900
_cell_length_b	15.300992
_cell_length_c	11.102291
_cell_angle_alpha	93.598082
_cell_angle_beta	108.605752
_cell_angle_gamma	104.175078
loop_
_atom_site_label
_atom_site_type_symbol
_atom_site_fract_x
_atom_site_fract_y
_atom_site_fract_z
V1	V	-4.088944	-0.124769	-0.396642
O2	O	-4.071655	0.005984	-0.388697
O3	O	-4.043515	-0.247386	-0.394308
O4	O	-4.066075	-0.122855	-0.569458
O5	O	-4.048939	-0.119408	-0.212335
V6	V	-4.568878	-0.109129	-0.374551
O7	O	-4.358073	-0.159078	-0.445099
O8	O	-4.749946	-0.074821	-0.326093
O9	O	-4.391100	0.013487	-0.376885
O10	O	-4.703564	-0.239883	-0.382495
O11	O	-4.726280	-0.114490	-0.558858
O12	O	-4.368540	-0.111043	-0.201735
C13	C	-3.888413	-0.277277	-0.388148
C14	C	-3.932727	-0.377517	-0.387392
C15	C	-3.895704	-0.411729	-0.270612
C16	C	-3.937363	-0.505917	-0.269905
C17	C	-4.016029	-0.565890	-0.385980
C18	C	-4.053059	-0.531672	-0.502770
C19	C	-4.011415	-0.437486	-0.503475
C20	C	-4.139849	-0.727983	-0.501291
C21	C	-4.181492	-0.822175	-0.500586
C22	C	-4.065796	-0.796413	-0.267721
C23	C	-4.024152	-0.702228	-0.268427
C24	C	-4.061182	-0.668016	-0.385216
C25	C	-3.917189	-0.118425	-0.611568
C26	C	-3.979794	-0.117671	-0.752849
C27	C	-4.192399	-0.121814	-0.825710
C28	C	-4.251201	-0.121088	-0.958454
C29	C	-3.884776	-0.112080	-0.945465
C30	C	-3.825973	-0.112799	-0.812722
C31	C	-4.403954	-0.127019	-0.833211
C32	C	-4.462757	-0.126293	-0.965955
C33	C	-4.209544	0.043373	-0.383041
C34	C	-4.144469	0.143613	-0.383806
C35	C	-4.180768	-0.115477	-0.159618
C36	C	-4.097400	-0.116226	-0.018336
H37	H	-3.907218	-0.533767	-0.174811
Cl38	Cl	-4.532435	-0.230837	-0.795748
H39	H	-4.170038	-0.700133	-0.596395
H40	H	-4.041586	-0.409634	-0.598571
H41	H	-4.594647	-0.191493	-1.019002
Cl42	Cl	-4.151968	-0.607067	-0.648694
Cl43	Cl	-4.451110	-0.032527	-0.760197
Cl44	Cl	-4.280588	-0.897574	-0.646518
H45	H	-3.759548	-0.108112	-0.994229
H46	H	-3.652856	-0.109426	-0.753403
Cl47	Cl	-3.796795	-0.336343	-0.124679
H48	H	-3.960086	-0.653399	-0.173908
Cl49	Cl	-4.019233	-0.839421	-0.120899
H50	H	-4.510813	-0.062270	-0.994860
