data_functionalizedCrystal
_audit_creation_method	'MofGen! by Chris Wilmer'
_symmetry_space_group_name_H-M	'P1'
_symmetry_Int_Tables_number	1
_symmetry_cell_setting	triclinic
loop_
_symmetry_equiv_pos_as_xyz
  x,y,z
_cell_length_a	16.109296
_cell_length_b	11.892095
_cell_length_c	16.109301
_cell_angle_alpha	86.113381
_cell_angle_beta	96.539615
_cell_angle_gamma	86.104202
loop_
_atom_site_label
_atom_site_type_symbol
_atom_site_fract_x
_atom_site_fract_y
_atom_site_fract_z
O1	O	-1.108449	0.093953	0.101532
O2	O	-0.866387	0.093968	0.114835
O3	O	-0.994067	0.093948	-0.012847
O4	O	-0.980769	0.093972	0.229214
O5	O	-0.983422	-0.094057	-0.002217
O6	O	-0.855742	-0.094038	0.125465
O7	O	-1.097803	-0.094053	0.112161
Zn8	Zn	-0.975082	-0.123895	0.120501
Zn9	Zn	-0.989109	0.123810	0.106496
O10	O	-0.970124	-0.094034	0.239844
C11	C	-0.830090	-0.000034	0.119612
C12	C	-0.737794	-0.000029	0.117998
C13	C	-0.428795	-0.000044	0.188488
C14	C	-0.515515	-0.000036	0.190011
C15	C	-0.535389	-0.000036	0.038522
C16	C	-0.448670	-0.000035	0.037000
C17	C	-0.395374	-0.000045	0.111985
C18	C	-0.568814	-0.000038	0.115031
C19	C	-0.662841	-0.000030	0.116682
C20	C	-0.301342	-0.000051	0.110334
N21	N	-0.965516	-0.292948	0.130058
C22	C	-1.065249	-0.529611	0.030379
C23	C	-1.058568	-0.647952	0.037066
C24	C	-0.945470	-0.647973	0.150113
C25	C	-0.952151	-0.529632	0.143427
C26	C	-1.012043	-0.470455	0.083559
C27	C	-1.018727	-0.352112	0.076877
C28	C	-0.905626	-0.352135	0.189919
C29	C	-0.898945	-0.470476	0.196606
C30	C	-0.134101	-0.000051	0.107390
C31	C	-0.226394	-0.000055	0.109019
C32	C	-0.988206	-0.000055	-0.038507
C33	C	-0.986590	-0.000057	-0.130802
N34	N	-0.998682	0.292863	0.096932
C35	C	-1.058599	-0.000043	-0.353077
C36	C	-1.057076	-0.000033	-0.439798
C37	C	-0.905587	-0.000029	-0.419921
C38	C	-0.907112	-0.000030	-0.333202
C39	C	-0.983620	-0.000043	-0.299782
C40	C	-0.980572	-0.000032	-0.473222
C41	C	-0.978919	-0.000022	-0.567248
C42	C	-0.985273	-0.000051	-0.205750
C43	C	-0.975985	-0.000028	0.265503
C44	C	-0.977601	-0.000019	0.357798
H45	H	-1.114021	-0.481428	-0.018362
N46	N	-0.848225	-0.288341	0.247279
H47	H	-0.856621	-0.308934	0.307453
H48	H	-0.861569	-0.204411	0.233894
H49	H	-0.421460	-0.000033	-0.025302
N50	N	-0.551552	-0.000041	0.272531
H51	H	-0.583147	-0.069732	0.280477
H52	H	-0.590990	0.069702	0.272555
N53	N	-0.371314	-0.000031	0.269362
H54	H	-0.311306	-0.000032	0.256792
H55	H	-0.378189	-0.069724	0.306644
H56	H	-1.067497	-0.303931	0.028131
H57	H	-1.101893	-0.696113	-0.006239
H58	H	-0.578792	-0.000031	-0.022528
H59	H	-0.896702	-0.696170	0.198851
N60	N	-0.823070	-0.000020	-0.455966
H61	H	-0.833480	-0.000023	-0.518989
H62	H	-0.786317	-0.069716	-0.432530
H63	H	-0.850180	-0.518672	0.245348
N64	N	-1.141114	-0.000055	-0.317029
H65	H	-1.188382	-0.000052	-0.363953
H66	H	-1.148992	0.069639	-0.285416
N67	N	-1.137947	-0.000050	-0.497277
H68	H	-1.125375	-0.000044	-0.557285
H69	H	-1.175237	0.069641	-0.490393
N70	N	-0.826238	-0.000022	-0.275712
H71	H	-0.777538	-0.000022	-0.310040
H72	H	-0.819627	-0.069717	-0.235361
