data_functionalizedCrystal
_audit_creation_method	'MofGen! by Chris Wilmer'
_symmetry_space_group_name_H-M	'P1'
_symmetry_Int_Tables_number	1
_symmetry_cell_setting	triclinic
loop_
_symmetry_equiv_pos_as_xyz
  x,y,z
_cell_length_a	15.944551
_cell_length_b	15.944551
_cell_length_c	8.965430
_cell_angle_alpha	89.999468
_cell_angle_beta	90.000682
_cell_angle_gamma	83.498738
loop_
_atom_site_label
_atom_site_type_symbol
_atom_site_fract_x
_atom_site_fract_y
_atom_site_fract_z
O1	O	1.114524	0.108326	-0.123887
O2	O	0.869974	0.121682	-0.123925
O3	O	0.998927	-0.007271	-0.123891
O4	O	0.985571	0.237279	-0.123920
O5	O	0.998916	-0.007262	0.124188
O6	O	0.869964	0.121691	0.124154
O7	O	1.114513	0.108334	0.124192
Cu8	Cu	0.992237	0.115013	0.146825
Cu9	Cu	0.992250	0.115003	-0.146557
O10	O	0.985560	0.237287	0.124159
C11	C	0.838675	0.121132	0.000110
C12	C	0.745429	0.119470	0.000096
C13	C	0.530572	0.035565	0.000135
C14	C	0.469558	0.074523	-0.122185
C15	C	0.574703	0.116462	0.000114
C16	C	0.469569	0.074551	0.122401
C17	C	0.409790	0.113551	0.000138
C18	C	0.514917	0.155443	-0.122307
C19	C	0.514934	0.155459	0.122389
C20	C	0.453937	0.194476	0.000038
C21	C	0.669705	0.118137	0.000099
C22	C	0.314789	0.111883	0.000143
C23	C	0.998367	-0.038561	0.000148
C24	C	0.996705	-0.131807	0.000149
C25	C	0.912801	-0.346663	0.000115
C26	C	0.951758	-0.407676	0.122439
C27	C	0.993698	-0.302533	0.000137
C28	C	0.951788	-0.407668	-0.122147
C29	C	0.990787	-0.467445	0.000119
C30	C	1.032677	-0.362317	0.122562
C31	C	1.032696	-0.362303	-0.122134
C32	C	1.071711	-0.423298	0.000219
C33	C	0.995372	-0.207530	0.000149
C34	C	0.989119	-0.562446	0.000118
C35	C	1.145813	0.108885	0.000154
C36	C	1.239059	0.110547	0.000158
C37	C	0.986120	0.268577	0.000116
C38	C	0.987782	0.361823	0.000105
N39	N	0.992234	0.115020	0.353174
N40	N	0.992260	0.114990	-0.352906
C41	C	0.932580	0.174637	0.450464
C42	C	1.008484	0.190940	0.549888
C43	C	0.916362	0.098724	0.549878
C44	C	1.068177	0.131361	0.450408
C45	C	0.976005	0.039112	0.450390
C46	C	1.051964	0.055383	0.549768
H47	H	0.449478	0.040323	0.225810
H48	H	0.535061	0.189650	0.225799
F49	F	0.574108	-0.052202	-0.000008
F50	F	0.825033	-0.303129	0.000254
H51	H	0.420779	0.261683	-0.000038
H52	H	0.917537	-0.427781	0.225844
F53	F	0.541044	0.200128	-0.257624
F54	F	1.077360	-0.336188	0.257880
H55	H	1.066887	-0.342176	-0.225545
F56	F	0.958010	-0.044751	0.393217
F57	F	0.832483	0.080723	0.606992
H58	H	0.449452	0.040304	-0.225591
F59	F	1.159555	-0.466641	0.000319
F60	F	0.907052	-0.433933	-0.257308
F61	F	0.866701	0.240592	0.393466
H62	H	1.022228	0.255121	0.593591
H63	H	1.132365	0.145208	0.406899
F64	F	1.117988	-0.010535	0.606410
