data_functionalizedCrystal
_audit_creation_method	'MofGen! by Chris Wilmer'
_symmetry_space_group_name_H-M	'P1'
_symmetry_Int_Tables_number	1
_symmetry_cell_setting	triclinic
loop_
_symmetry_equiv_pos_as_xyz
  x,y,z
_cell_length_a	11.169417
_cell_length_b	10.685880
_cell_length_c	11.169416
_cell_angle_alpha	94.341270
_cell_angle_beta	90.011027
_cell_angle_gamma	85.606759
loop_
_atom_site_label
_atom_site_type_symbol
_atom_site_fract_x
_atom_site_fract_y
_atom_site_fract_z
Zn1	Zn	1.887001	-0.713403	-0.529708
Zn2	Zn	1.871501	-0.502416	-0.715062
Zn3	Zn	1.670898	-0.502431	-0.514396
Zn4	Zn	1.686292	-0.713366	-0.730348
O5	O	1.778923	-0.607904	-0.622378
O6	O	2.052895	-0.685424	-0.554306
O7	O	1.831962	-0.325842	-0.675637
O8	O	1.699609	-0.530438	-0.348479
O9	O	2.041508	-0.530413	-0.690485
O10	O	1.858379	-0.685438	-0.359729
O11	O	1.684579	-0.325852	-0.528209
O12	O	1.504990	-0.530403	-0.543031
O13	O	1.725846	-0.889947	-0.716538
O14	O	1.516300	-0.685376	-0.701691
O15	O	1.873306	-0.889974	-0.569129
O16	O	1.846889	-0.530377	-0.885038
O17	O	1.710817	-0.685362	-0.896268
C18	C	1.467097	-0.607888	-0.622359
C19	C	1.333699	-0.607911	-0.622382
C20	C	1.803022	-0.937025	-0.646247
C21	C	1.813292	-1.077277	-0.656418
C22	C	2.091967	-0.607921	-0.622399
C23	C	2.225367	-0.607928	-0.622407
C24	C	1.778876	-0.607892	-0.934202
C25	C	1.778968	-0.607928	-1.067605
C26	C	1.754987	-0.280063	-0.598516
C27	C	1.744950	-0.139812	-0.588007
C28	C	1.779006	-0.607944	-0.309339
C29	C	1.779041	-0.607961	-0.175940
H30	H	1.678574	-1.086054	-0.521658
H31	H	1.879667	-1.131041	-0.722776
