data_functionalizedCrystal
_audit_creation_method	'MofGen! by Chris Wilmer'
_symmetry_space_group_name_H-M	'P1'
_symmetry_Int_Tables_number	1
_symmetry_cell_setting	triclinic
loop_
_symmetry_equiv_pos_as_xyz
  x,y,z
_cell_length_a	19.121321
_cell_length_b	19.121063
_cell_length_c	12.759393
_cell_angle_alpha	92.402917
_cell_angle_beta	92.419275
_cell_angle_gamma	89.929715
loop_
_atom_site_label
_atom_site_type_symbol
_atom_site_fract_x
_atom_site_fract_y
_atom_site_fract_z
Zn1	Zn	1.059825	-0.324716	-0.547052
Zn2	Zn	1.559825	0.175284	-0.047052
Zn3	Zn	1.054727	-0.441968	-0.379158
Zn4	Zn	1.554727	0.058032	0.120842
Zn5	Zn	0.942587	-0.319759	-0.378553
Zn6	Zn	1.442587	0.180241	0.121447
Zn7	Zn	0.937555	-0.436922	-0.561952
Zn8	Zn	1.437555	0.063078	-0.061952
O9	O	0.998674	-0.380841	-0.466679
O10	O	1.498674	0.119159	0.033321
O11	O	1.157250	-0.344456	-0.518798
O12	O	1.657250	0.155544	-0.018798
O13	O	1.039823	-0.425793	-0.232061
O14	O	1.539823	0.074207	0.267939
O15	O	0.962379	-0.222313	-0.394416
O16	O	1.462379	0.277687	0.105584
O17	O	1.153504	-0.430601	-0.395448
O18	O	1.653504	0.069399	0.104552
O19	O	1.048513	-0.225955	-0.518211
O20	O	1.548513	0.274045	-0.018211
O21	O	0.957435	-0.336007	-0.231616
O22	O	1.457435	0.163993	0.268384
O23	O	0.843819	-0.331115	-0.408863
O24	O	1.343819	0.168885	0.091137
O25	O	0.953803	-0.422001	-0.706992
O26	O	1.453803	0.077999	-0.206992
O27	O	0.840122	-0.417194	-0.543606
O28	O	1.340122	0.082806	-0.043606
O29	O	1.043634	-0.339564	-0.696045
O30	O	1.543634	0.160436	-0.196045
O31	O	1.034944	-0.539402	-0.409895
O32	O	1.534944	-0.039402	0.090105
O33	O	0.948859	-0.535695	-0.544193
O34	O	1.448859	-0.035695	-0.044193
C35	C	0.816534	-0.373069	-0.477786
C36	C	1.316534	0.126931	0.022214
C37	C	0.738613	-0.369761	-0.482564
C38	C	1.238613	0.130239	0.017436
C39	C	0.298007	-0.348750	-0.512859
C40	C	0.798007	0.151250	-0.012859
C41	C	0.371222	-0.351871	-0.508365
C42	C	0.871222	0.148129	-0.008365
C43	C	0.405873	-0.398209	-0.441782
C44	C	0.905873	0.101791	0.058218
C45	C	0.367305	-0.441433	-0.379697
C46	C	0.867305	0.058567	0.120303
C47	C	0.294092	-0.438315	-0.384198
C48	C	0.794092	0.061685	0.115802
C49	C	0.626832	-0.409867	-0.424980
C50	C	1.126832	0.090133	0.075020
C51	C	0.700050	-0.412981	-0.420482
C52	C	1.200050	0.087019	0.079518
C53	C	0.703962	-0.323420	-0.549152
C54	C	1.203962	0.176580	-0.049152
C55	C	0.630747	-0.320303	-0.553641
C56	C	1.130747	0.179697	-0.053641
C57	C	0.592186	-0.363529	-0.491561
C58	C	1.092186	0.136471	0.008439
C59	C	0.480710	-0.401399	-0.437184
C60	C	0.980710	0.098601	0.062816
C61	C	0.517350	-0.360342	-0.496165
C62	C	1.017350	0.139658	0.003835
C63	C	0.990821	-0.562987	-0.478748
C64	C	1.490821	-0.062987	0.021252
C65	C	0.987526	-0.640912	-0.483943
C66	C	1.487526	-0.140912	0.016057
C67	C	1.030832	-0.679430	-0.416515
C68	C	1.530832	-0.179430	0.083485
C69	C	1.027737	-0.752649	-0.421407
C70	C	1.527737	-0.252649	0.078593
C71	C	0.981332	-0.787349	-0.493721
C72	C	1.481332	-0.287349	0.006279
C73	C	0.938023	-0.748826	-0.561156
C74	C	1.438023	-0.248826	-0.061156
C75	C	0.941122	-0.675608	-0.556269
C76	C	1.441122	-0.175608	-0.056269
C77	C	0.969734	-1.008323	-0.511977
C78	C	1.469734	-0.508323	-0.011977
C79	C	0.966637	-1.081546	-0.516857
C80	C	1.466637	-0.581546	-0.016857
C81	C	1.056352	-1.085364	-0.377109
C82	C	1.556352	-0.585364	0.122891
C83	C	1.059444	-1.012144	-0.372224
C84	C	1.559444	-0.512144	0.127776
C85	C	1.016138	-0.973628	-0.439662
C86	C	1.516138	-0.473628	0.060338
C87	C	0.978165	-0.862190	-0.498721
C88	C	1.478165	-0.362190	0.001279
C89	C	1.019309	-0.898788	-0.434667
C90	C	1.519309	-0.398788	0.065333
C91	C	1.181525	-0.388644	-0.455529
C92	C	1.681525	0.111356	0.044471
C93	C	1.259445	-0.391969	-0.450777
C94	C	1.759445	0.108031	0.049223
C95	C	0.998726	-0.380773	-0.740705
C96	C	1.498726	0.119227	-0.240705
C97	C	0.998748	-0.380744	-0.857478
C98	C	1.498748	0.119256	-0.357478
C99	C	1.006576	-0.197986	-0.454584
C100	C	1.506576	0.302014	0.045416
C101	C	1.009943	-0.120063	-0.449430
C102	C	1.509943	0.379937	0.050570
C103	C	1.045529	-0.337814	-0.906641
C104	C	1.545529	0.162186	-0.406641
C105	C	1.045547	-0.337790	-1.016363
C106	C	1.545547	0.162210	-0.516363
C107	C	0.952000	-0.423629	-1.027749
C108	C	1.452000	0.076371	-0.527749
C109	C	0.951979	-0.423650	-0.918029
C110	C	1.451979	0.076350	-0.418029
C111	C	1.099540	-0.288258	-0.900068
C112	C	1.599540	0.211742	-0.400068
C113	C	1.099558	-0.288233	-1.009790
C114	C	1.599558	0.211767	-0.509790
C115	C	0.998664	-0.380861	-0.193713
C116	C	1.498664	0.119139	0.306287
C117	C	0.998786	-0.380698	-0.076919
C118	C	1.498786	0.119302	0.423081
H119	H	0.595444	-0.445064	-0.374426
H120	H	1.095444	0.054936	0.125574
H121	H	1.068618	-0.651182	-0.357625
H122	H	1.568618	-0.151182	0.142375
H123	H	0.728261	-0.450717	-0.366260
H124	H	1.228261	0.049283	0.133740
N125	N	0.919224	-1.116995	-0.590714
N126	N	1.419224	-0.616995	-0.090714
N127	N	0.854881	-1.106122	-0.587072
N128	N	1.354881	-0.606122	-0.087072
H129	H	0.821395	-1.131160	-0.639226
H130	H	1.321395	-0.631160	-0.139226
H131	H	0.913883	-0.458604	-0.878005
H132	H	1.413883	0.041396	-0.378005
N133	N	1.084228	-0.219382	-0.859305
N134	N	1.584228	0.280618	-0.359305
N135	N	1.081620	-0.207742	-0.762416
N136	N	1.581620	0.292258	-0.262416
H137	H	1.070804	-0.159100	-0.733625
H138	H	1.570804	0.340900	-0.233625
H139	H	0.913921	-0.458560	-1.077062
H140	H	1.413921	0.041440	-0.577062
N141	N	1.077965	-0.222478	-1.049689
N142	N	1.577965	0.277522	-0.549689
N143	N	1.061781	-0.173255	-0.987817
N144	N	1.561781	0.326745	-0.487817
H145	H	1.046528	-0.126817	-1.015996
H146	H	1.546528	0.373183	-0.515996
H147	H	1.150266	-0.309918	-0.864176
H148	H	1.650266	0.190082	-0.364176
N149	N	1.166892	-0.309368	-1.044190
N150	N	1.666892	0.190632	-0.544190
N151	N	1.214315	-0.324284	-0.978449
N152	N	1.714315	0.175716	-0.478449
H153	H	1.261870	-0.339207	-1.002742
H154	H	1.761870	0.160793	-0.502742
H155	H	1.097231	-0.983893	-0.313340
H156	H	1.597231	-0.483893	0.186660
H157	H	0.934471	-0.976969	-0.566887
H158	H	1.434471	-0.476969	-0.066887
H159	H	0.269800	-0.311013	-0.567072
H160	H	0.769800	0.188987	-0.067072
N161	N	1.100580	-1.124718	-0.308233
N162	N	1.600580	-0.624718	0.191767
N163	N	1.097808	-1.190090	-0.312601
N164	N	1.597808	-0.690090	0.187399
H165	H	1.129046	-1.217885	-0.263956
H166	H	1.629046	-0.717885	0.236044
N167	N	0.410601	-0.307726	-0.571799
N168	N	0.910601	0.192274	-0.071799
N169	N	0.379654	-0.266357	-0.631244
N170	N	0.879654	0.233643	-0.131244
H171	H	0.407465	-0.235179	-0.676052
H172	H	0.907465	0.264821	-0.176052
H173	H	0.602539	-0.282572	-0.607864
H174	H	1.102539	0.217428	-0.107864
N175	N	1.071990	-0.791983	-0.352538
N176	N	1.571990	-0.291983	0.147462
N177	N	1.113423	-0.760993	-0.287981
N178	N	1.613423	-0.260993	0.212019
H179	H	1.144683	-0.788772	-0.239344
H180	H	1.644683	-0.288772	0.260656
H181	H	0.900242	-0.777084	-0.620041
H182	H	1.400242	-0.277084	-0.120041
H183	H	0.735366	-0.288228	-0.599695
H184	H	1.235366	0.211772	-0.099695
H185	H	0.395524	-0.479165	-0.325488
H186	H	0.895524	0.020835	0.174512
H187	H	0.940380	-0.890451	-0.557598
H188	H	1.440380	-0.390451	-0.057598
N189	N	0.896885	-0.636272	-0.625159
N190	N	1.396885	-0.136272	-0.125159
N191	N	0.855456	-0.667260	-0.689724
N192	N	1.355456	-0.167260	-0.189724
H193	H	0.824214	-0.639480	-0.738384
H194	H	1.324214	-0.139480	-0.238384
N195	N	1.066699	-0.863335	-0.360798
N196	N	1.566699	-0.363335	0.139202
N197	N	1.043774	-0.821485	-0.292610
N198	N	1.543774	-0.321485	0.207390
H199	H	1.077240	-0.796440	-0.240435
H200	H	1.577240	-0.296440	0.259565
N201	N	0.481965	-0.313019	-0.564196
N202	N	0.981965	0.186981	-0.064196
N203	N	0.489974	-0.318100	-0.660938
N204	N	0.989974	0.181900	-0.160938
H205	H	0.464977	-0.284679	-0.708987
H206	H	0.964977	0.215321	-0.208987
H207	H	0.262695	-0.473510	-0.333646
H208	H	0.762695	0.026490	0.166354
H209	H	0.508931	-0.439125	-0.382968
H210	H	1.008931	0.060875	0.117032
