data_functionalizedCrystal
_audit_creation_method	'MofGen! by Chris Wilmer'
_symmetry_space_group_name_H-M	'P1'
_symmetry_Int_Tables_number	1
_symmetry_cell_setting	triclinic
loop_
_symmetry_equiv_pos_as_xyz
  x,y,z
_cell_length_a	21.295418
_cell_length_b	29.839131
_cell_length_c	21.295411
_cell_angle_alpha	89.979636
_cell_angle_beta	89.956262
_cell_angle_gamma	90.057233
loop_
_atom_site_label
_atom_site_type_symbol
_atom_site_fract_x
_atom_site_fract_y
_atom_site_fract_z
Zn1	Zn	0.962308	-0.178715	-0.356239
Zn2	Zn	1.462308	0.321285	0.143761
Zn3	Zn	0.962190	-0.253830	-0.250967
Zn4	Zn	1.462190	0.246170	0.249033
Zn5	Zn	0.857031	-0.178736	-0.250949
Zn6	Zn	1.357031	0.321264	0.249051
Zn7	Zn	0.856981	-0.253839	-0.356163
Zn8	Zn	1.356981	0.246161	0.143837
O9	O	0.909628	-0.216280	-0.303580
O10	O	1.409628	0.283720	0.196420
O11	O	1.050382	-0.188667	-0.342314
O12	O	1.550382	0.311333	0.157686
O13	O	0.948213	-0.243874	-0.162875
O14	O	1.448213	0.256126	0.337125
O15	O	0.871067	-0.115866	-0.264940
O16	O	1.371067	0.384134	0.235060
O17	O	1.050295	-0.243854	-0.264971
O18	O	1.550295	0.256146	0.235029
O19	O	0.948413	-0.115851	-0.342296
O20	O	1.448413	0.384149	0.157704
O21	O	0.870953	-0.188703	-0.162862
O22	O	1.370953	0.311297	0.337138
O23	O	0.768935	-0.188711	-0.264867
O24	O	1.268935	0.311289	0.235133
O25	O	0.870981	-0.243869	-0.444263
O26	O	1.370981	0.256131	0.055737
O27	O	0.768898	-0.243889	-0.342167
O28	O	1.268898	0.256111	0.157833
O29	O	0.948364	-0.188675	-0.444319
O30	O	1.448364	0.311325	0.055681
O31	O	0.948164	-0.316699	-0.264897
O32	O	1.448164	0.183301	0.235103
O33	O	0.870866	-0.316705	-0.342185
O34	O	1.370866	0.183295	0.157815
C35	C	0.746076	-0.216304	-0.303507
C36	C	1.246076	0.283696	0.196493
C37	C	0.676108	-0.216325	-0.303491
C38	C	1.176108	0.283675	0.196509
C39	C	0.643238	-0.245094	-0.343681
C40	C	1.143238	0.254906	0.156319
C41	C	0.577496	-0.245083	-0.343710
C42	C	1.077496	0.254917	0.156290
C43	C	0.544625	-0.216307	-0.303536
C44	C	1.044625	0.283693	0.196464
C45	C	0.577503	-0.187532	-0.263343
C46	C	1.077503	0.312468	0.236657
C47	C	0.643244	-0.187541	-0.263321
C48	C	1.143244	0.312459	0.236679
N49	N	0.441350	-0.212791	-0.248479
N50	N	0.941350	0.287209	0.251521
N51	N	0.378899	-0.212785	-0.248502
N52	N	0.878899	0.287215	0.251498
C53	C	0.346551	-0.216279	-0.303603
C54	C	0.846551	0.283721	0.196397
N55	N	0.379013	-0.219787	-0.358681
N56	N	0.879013	0.280213	0.141319
N57	N	0.441470	-0.219795	-0.358657
N58	N	0.941470	0.280205	0.141343
C59	C	0.473340	-0.216294	-0.303557
C60	C	0.973340	0.283706	0.196443
C61	C	0.242396	-0.245037	-0.343827
C62	C	0.742396	0.254963	0.156173
C63	C	0.176652	-0.245023	-0.343857
C64	C	0.676652	0.254977	0.156143
C65	C	0.176660	-0.187475	-0.263485
C66	C	0.676660	0.312525	0.236515
C67	C	0.242403	-0.187487	-0.263461
C68	C	0.742403	0.312513	0.236539
C69	C	0.275266	-0.216271	-0.303632
C70	C	0.775266	0.283729	0.196368
C71	C	0.909514	-0.333003	-0.303548
C72	C	1.409514	0.166997	0.196452
C73	C	0.909523	-0.382937	-0.303556
C74	C	1.409523	0.117063	0.196444
C75	C	0.949949	-0.692564	-0.263395
C76	C	1.449949	-0.192564	0.236605
C77	C	0.950027	-0.880238	-0.263419
C78	C	1.450027	-0.380238	0.236581
O79	O	0.984309	-0.904489	-0.229249
O80	O	1.484309	-0.404489	0.270751
N81	N	0.909758	-0.903722	-0.303627
N82	N	1.409758	-0.403722	0.196373
C83	C	0.869470	-0.880286	-0.343835
C84	C	1.369470	-0.380286	0.156165
O85	O	0.835225	-0.904567	-0.378039
O86	O	1.335225	-0.404567	0.121961
C87	C	0.869396	-0.692614	-0.343813
C88	C	1.369396	-0.192614	0.156187
C89	C	0.909663	-0.669131	-0.303598
C90	C	1.409663	-0.169131	0.196402
C91	C	0.990214	-0.669082	-0.223184
C92	C	1.490214	-0.169082	0.276816
C93	C	0.990192	-0.622167	-0.223176
C94	C	1.490192	-0.122167	0.276824
C95	C	0.949905	-0.598734	-0.263379
C96	C	1.449905	-0.098734	0.236621
C97	C	0.909641	-0.622216	-0.303590
C98	C	1.409641	-0.122216	0.196410
C99	C	0.829111	-0.669178	-0.384023
C100	C	1.329111	-0.169178	0.115977
C101	C	0.829097	-0.622257	-0.384015
C102	C	1.329097	-0.122257	0.115985
C103	C	0.869364	-0.598775	-0.343800
C104	C	1.369364	-0.098775	0.156200
C105	C	0.869332	-0.551867	-0.343785
C106	C	1.369332	-0.051867	0.156215
N107	N	0.909601	-0.528383	-0.303577
N108	N	1.409601	-0.028383	0.196423
C109	C	0.949887	-0.551816	-0.263374
C110	C	1.449887	-0.051816	0.236626
C111	C	0.869511	-0.978816	-0.343842
C112	C	1.369511	-0.478816	0.156158
C113	C	0.869528	-1.025734	-0.343847
C114	C	1.369528	-0.525734	0.156153
C115	C	0.950087	-1.025683	-0.263432
C116	C	1.450087	-0.525683	0.236568
C117	C	0.950065	-0.978764	-0.263425
C118	C	1.450065	-0.478764	0.236575
C119	C	0.909780	-0.955332	-0.303634
C120	C	1.409780	-0.455332	0.196366
C121	C	0.949837	-0.453290	-0.263359
C122	C	1.449837	0.046710	0.236641
C123	C	0.949810	-0.406370	-0.263353
C124	C	1.449810	0.093630	0.236647
C125	C	0.869254	-0.406426	-0.343770
C126	C	1.369254	0.093574	0.156230
C127	C	0.869279	-0.453341	-0.343774
C128	C	1.369279	0.046659	0.156226
C129	C	0.909576	-0.476772	-0.303567
C130	C	1.409576	0.023228	0.196433
O131	O	0.835073	-0.527587	-0.377942
O132	O	1.335073	-0.027587	0.122058
O133	O	0.984137	-0.527526	-0.229185
O134	O	1.484137	-0.027526	0.270815
C135	C	0.949972	-0.739480	-0.263403
C136	C	1.449972	-0.239480	0.236597
C137	C	0.909707	-0.762962	-0.303614
C138	C	1.409707	-0.262962	0.196386
C139	C	0.869421	-0.739529	-0.343817
C140	C	1.369421	-0.239529	0.156183
C141	C	0.909725	-0.809880	-0.303619
C142	C	1.409725	-0.309880	0.196381
C143	C	0.950012	-0.833313	-0.263416
C144	C	1.450012	-0.333313	0.236584
C145	C	0.990281	-0.809829	-0.223208
C146	C	1.490281	-0.309829	0.276792
C147	C	0.990258	-0.762913	-0.223200
C148	C	1.490258	-0.262913	0.276800
C149	C	0.829152	-0.763014	-0.384025
C150	C	1.329152	-0.263014	0.115975
C151	C	0.829177	-0.809929	-0.384029
C152	C	1.329177	-0.309929	0.115971
C153	C	0.869463	-0.833362	-0.343826
C154	C	1.369463	-0.333362	0.156174
C155	C	1.073818	-0.216257	-0.303653
C156	C	1.573818	0.283743	0.196347
C157	C	1.143786	-0.216247	-0.303684
C158	C	1.643786	0.283753	0.196316
C159	C	0.909680	-0.216271	-0.467770
C160	C	1.409680	0.283729	0.032230
C161	C	0.909702	-0.216267	-0.537738
C162	C	1.409702	0.283733	-0.037738
C163	C	0.909759	-0.099102	-0.303625
C164	C	1.409759	0.400898	0.196375
C165	C	0.909815	-0.049167	-0.303644
C166	C	1.409815	0.450833	0.196356
C167	C	0.949994	-0.187526	-0.570635
C168	C	1.449994	0.312474	-0.070635
C169	C	0.949993	-0.187507	-0.636377
C170	C	1.449993	0.312493	-0.136377
C171	C	0.909707	-0.216236	-0.669221
C172	C	1.409707	0.283764	-0.169221
C173	C	0.869407	-0.244978	-0.636316
C174	C	1.369407	0.255022	-0.136316
C175	C	0.869405	-0.244994	-0.570575
C176	C	1.369405	0.255006	-0.070575
N177	N	0.904840	-0.255537	-0.772436
N178	N	1.404840	0.244463	-0.272436
N179	N	0.904846	-0.255521	-0.834887
N180	N	1.404846	0.244479	-0.334887
C181	C	0.909711	-0.216190	-0.867295
C182	C	1.409711	0.283810	-0.367295
N183	N	0.914582	-0.176875	-0.834893
N184	N	1.414582	0.323125	-0.334893
N185	N	0.914580	-0.176891	-0.772436
N186	N	1.414580	0.323109	-0.272436
C187	C	0.909705	-0.216222	-0.740506
C188	C	1.409705	0.283778	-0.240506
C189	C	0.950004	-0.187426	-0.971478
C190	C	1.450004	0.312574	-0.471478
C191	C	0.949999	-0.187406	-1.037221
C192	C	1.449999	0.312594	-0.537221
C193	C	0.869416	-0.244882	-1.037159
C194	C	1.369416	0.255118	-0.537159
C195	C	0.869418	-0.244898	-0.971417
C196	C	1.369418	0.255102	-0.471417
C197	C	0.909716	-0.216171	-0.938580
C198	C	1.409716	0.283829	-0.438580
C199	C	0.909612	-0.216257	-0.140028
C200	C	1.409612	0.283743	0.359972
C201	C	0.909712	-0.216135	-0.070060
C202	C	1.409712	0.283865	0.429940
H203	H	0.550728	-0.268510	-0.376440
H204	H	1.050728	0.231490	0.123560
H205	H	0.796346	-0.743938	-0.416764
H206	H	1.296346	-0.243938	0.083236
C207	C	0.140494	-0.276672	-0.388071
C208	C	0.640494	0.223328	0.111929
C209	C	0.149439	-0.327739	-0.382792
C210	C	0.649439	0.172261	0.117208
C211	C	0.113281	-0.359388	-0.427007
C212	C	0.613281	0.140612	0.072993
C213	C	0.068177	-0.339970	-0.476500
C214	C	0.568177	0.160030	0.023500
C215	C	0.059230	-0.288900	-0.481781
C216	C	0.559230	0.211100	0.018219
C217	C	0.095388	-0.257251	-0.437566
C218	C	0.595388	0.242749	0.062434
H219	H	0.182829	-0.342116	-0.346152
H220	H	0.682829	0.157884	0.153848
H221	H	0.119904	-0.397193	-0.423097
H222	H	0.619904	0.102807	0.076903
H223	H	0.041411	-0.363398	-0.509230
H224	H	0.541411	0.136602	-0.009230
H225	H	0.025840	-0.274523	-0.518421
H226	H	0.525840	0.225477	-0.018421
H227	H	0.088765	-0.219445	-0.441476
H228	H	0.588765	0.280555	0.058524
H229	H	0.982813	-0.164032	-0.944741
H230	H	1.482813	0.335968	-0.444741
H231	H	0.836604	-0.268368	-0.663061
H232	H	1.336604	0.231632	-0.163061
C233	C	0.541349	-0.155879	-0.219151
C234	C	1.041349	0.344121	0.280849
C235	C	0.469036	-0.155870	-0.219171
C236	C	0.969036	0.344130	0.280829
C237	C	0.432882	-0.124215	-0.174979
C238	C	0.932882	0.375785	0.325021
C239	C	0.469042	-0.092568	-0.130768
C240	C	0.969042	0.407432	0.369232
C241	C	0.541359	-0.092575	-0.130746
C242	C	1.041359	0.407425	0.369254
C243	C	0.577512	-0.124231	-0.174938
C244	C	1.077512	0.375769	0.325062
H245	H	0.442265	-0.179299	-0.251900
H246	H	0.942265	0.320701	0.248100
H247	H	0.379349	-0.124209	-0.174995
H248	H	0.879349	0.375791	0.325005
H249	H	0.442279	-0.069134	-0.098054
H250	H	0.942279	0.430866	0.401946
H251	H	0.568130	-0.069147	-0.098017
H252	H	1.068130	0.430853	0.401983
H253	H	0.631046	-0.124237	-0.174922
H254	H	1.131046	0.375763	0.325078
C255	C	0.679385	-0.276751	-0.387875
C256	C	1.179385	0.223249	0.112125
C257	C	0.670254	-0.327816	-0.382612
C258	C	1.170254	0.172184	0.117388
C259	C	0.706401	-0.359472	-0.426808
C260	C	1.206401	0.140528	0.073192
C261	C	0.751681	-0.340064	-0.476266
C262	C	1.251681	0.159936	0.023734
C263	C	0.760815	-0.288996	-0.481531
C264	C	1.260815	0.211004	0.018469
C265	C	0.724667	-0.257340	-0.437336
C266	C	1.224667	0.242660	0.062664
H267	H	0.636733	-0.342186	-0.345998
H268	H	1.136733	0.157814	0.154002
H269	H	0.699640	-0.397276	-0.422910
H270	H	1.199640	0.102724	0.077090
H271	H	0.778440	-0.363498	-0.508983
H272	H	1.278440	0.136502	-0.008983
H273	H	0.794335	-0.274627	-0.518145
H274	H	1.294335	0.225373	-0.018145
H275	H	0.731429	-0.219536	-0.441233
H276	H	1.231429	0.280464	0.058767
C277	C	0.994321	-0.155787	-1.073411
C278	C	1.494321	0.344213	-0.573411
C279	C	1.038643	-0.124190	-1.037288
C280	C	1.538643	0.375810	-0.537288
C281	C	1.082965	-0.092570	-1.073478
C282	C	1.582965	0.407430	-0.573478
C283	C	1.082964	-0.092548	-1.145791
C284	C	1.582964	0.407452	-0.645791
C285	C	1.038641	-0.124146	-1.181918
C286	C	1.538641	0.375854	-0.681918
C287	C	0.994319	-0.155766	-1.145728
C288	C	1.494319	0.344234	-0.645728
H289	H	1.038645	-0.124206	-0.983754
H290	H	1.538645	0.375794	-0.483754
H291	H	1.115776	-0.069179	-1.046734
H292	H	1.615776	0.430821	-0.546734
H293	H	1.115774	-0.069141	-1.172581
H294	H	1.615774	0.430859	-0.672581
H295	H	1.038639	-0.124130	-1.235452
H296	H	1.538639	0.375870	-0.735452
H297	H	0.961507	-0.179157	-1.172471
H298	H	1.461507	0.320843	-0.672471
C299	C	0.278561	-0.155846	-0.219239
C300	C	0.778561	0.344154	0.280761
C301	C	0.269613	-0.104778	-0.224501
C302	C	0.769613	0.395222	0.275499
C303	C	0.305769	-0.073136	-0.180276
C304	C	0.805769	0.426864	0.319724
C305	C	0.350874	-0.092561	-0.130789
C306	C	0.850874	0.407439	0.369211
C307	C	0.359824	-0.143632	-0.125525
C308	C	0.859824	0.356368	0.374475
C309	C	0.323667	-0.175274	-0.169750
C310	C	0.823667	0.324726	0.330250
H311	H	0.236222	-0.090396	-0.261136
H312	H	0.736222	0.409604	0.238864
H313	H	0.299143	-0.035330	-0.184173
H314	H	0.799143	0.464670	0.315827
H315	H	0.377639	-0.069137	-0.098051
H316	H	0.877639	0.430863	0.401949
H317	H	0.393215	-0.158014	-0.088890
H318	H	0.893215	0.341986	0.411110
H319	H	0.330293	-0.213080	-0.165853
H320	H	0.830293	0.286920	0.334147
H321	H	1.022982	-0.603050	-0.190431
H322	H	1.522982	-0.103050	0.309569
H323	H	0.982600	-0.387253	-0.230603
H324	H	1.482600	0.112747	0.269397
H325	H	0.149898	-0.164043	-0.230778
H326	H	0.649898	0.335957	0.269222
H327	H	0.796381	-0.829044	-0.416777
H328	H	1.296381	-0.329044	0.083223
C329	C	0.784779	-0.596482	-0.428245
C330	C	1.284779	-0.096482	0.071755
C331	C	0.735354	-0.564283	-0.400905
C332	C	1.235354	-0.064283	0.099095
C333	C	0.691035	-0.538508	-0.445133
C334	C	1.191035	-0.038508	0.054867
C335	C	0.696142	-0.544933	-0.516701
C336	C	1.196142	-0.044933	-0.016701
C337	C	0.745569	-0.577133	-0.544045
C338	C	1.245569	-0.077133	-0.044045
C339	C	0.789887	-0.602907	-0.499817
C340	C	1.289887	-0.102907	0.000183
H341	H	0.731572	-0.559526	-0.347922
H342	H	1.231572	-0.059526	0.152078
H343	H	0.654446	-0.514672	-0.424890
H344	H	1.154446	-0.014672	0.075110
H345	H	0.663334	-0.525853	-0.549441
H346	H	1.163334	-0.025853	-0.049441
H347	H	0.749351	-0.581890	-0.597028
H348	H	1.249351	-0.081890	-0.097028
H349	H	0.826476	-0.626744	-0.520060
H350	H	1.326476	-0.126744	-0.020060
H351	H	1.023082	-0.828916	-0.190472
H352	H	1.523082	-0.328916	0.309528
H353	H	0.836608	-0.268269	-1.063899
H354	H	1.336608	0.231731	-0.563899
C355	C	0.825102	-0.276518	-0.935226
C356	C	1.325102	0.223482	-0.435226
C357	C	0.780787	-0.308120	-0.971348
C358	C	1.280787	0.191880	-0.471348
C359	C	0.736467	-0.339741	-0.935157
C360	C	1.236467	0.160259	-0.435157
C361	C	0.736463	-0.339760	-0.862844
C362	C	1.236463	0.160240	-0.362844
C363	C	0.780779	-0.308156	-0.826718
C364	C	1.280779	0.191844	-0.326718
C365	C	0.825099	-0.276535	-0.862909
C366	C	1.325099	0.223465	-0.362909
H367	H	0.780789	-0.308108	-1.024882
H368	H	1.280789	0.191892	-0.524882
H369	H	0.703661	-0.363136	-0.961901
H370	H	1.203661	0.136864	-0.461901
H371	H	0.703654	-0.363167	-0.836054
H372	H	1.203654	0.136833	-0.336054
H373	H	0.780778	-0.308169	-0.773184
H374	H	1.280778	0.191831	-0.273184
H375	H	0.857905	-0.253140	-0.836165
H376	H	1.357905	0.246860	-0.336165
C377	C	0.679404	-0.155896	-0.219103
C378	C	1.179404	0.344104	0.280897
C379	C	0.670459	-0.104828	-0.224371
C380	C	1.170459	0.395172	0.275629
C381	C	0.706620	-0.073184	-0.180151
C382	C	1.206620	0.426816	0.319849
C383	C	0.751725	-0.092608	-0.130664
C384	C	1.251725	0.407392	0.369336
C385	C	0.760671	-0.143679	-0.125394
C386	C	1.260671	0.356321	0.374606
C387	C	0.724511	-0.175323	-0.169614
C388	C	1.224511	0.324677	0.330386
H389	H	0.637068	-0.090447	-0.261007
H390	H	1.137068	0.409553	0.238993
H391	H	0.699997	-0.035378	-0.184053
H392	H	1.199997	0.464622	0.315947
H393	H	0.778493	-0.069183	-0.097929
H394	H	1.278493	0.430817	0.402071
H395	H	0.794063	-0.158060	-0.088758
H396	H	1.294063	0.341940	0.411242
H397	H	0.731134	-0.213129	-0.165712
H398	H	1.231134	0.286871	0.334288
H399	H	0.269155	-0.268472	-0.376540
H400	H	0.769155	0.231528	0.123460
C401	C	0.994159	-0.479060	-0.219128
C402	C	1.494159	0.020940	0.280872
C403	C	0.989046	-0.472631	-0.147561
C404	C	1.489046	0.027369	0.352439
C405	C	1.033363	-0.498401	-0.103326
C406	C	1.533363	0.001599	0.396674
C407	C	1.082794	-0.530599	-0.130659
C408	C	1.582794	-0.030599	0.369341
C409	C	1.087909	-0.537029	-0.202230
C410	C	1.587909	-0.037029	0.297770
C411	C	1.043592	-0.511259	-0.246464
C412	C	1.543592	-0.011259	0.253536
H413	H	0.952453	-0.448795	-0.127324
H414	H	1.452453	0.051205	0.372676
H415	H	1.029577	-0.493641	-0.050344
H416	H	1.529577	0.006359	0.449656
H417	H	1.115600	-0.549675	-0.097914
H418	H	1.615600	-0.049675	0.402086
H419	H	1.124502	-0.560865	-0.222466
H420	H	1.624502	-0.060865	0.277534
H421	H	1.047379	-0.516019	-0.299446
H422	H	1.547379	-0.016019	0.200554
C423	C	1.034532	-0.694853	-0.178953
C424	C	1.534532	-0.194853	0.321047
C425	C	1.007293	-0.727143	-0.129494
C426	C	1.507293	-0.227143	0.370506
C427	C	1.051611	-0.752909	-0.085255
C428	C	1.551611	-0.252909	0.414745
C429	C	1.123167	-0.746385	-0.090475
C430	C	1.623167	-0.246385	0.409525
C431	C	1.150409	-0.714093	-0.139936
C432	C	1.650409	-0.214093	0.360064
C433	C	1.106091	-0.688327	-0.184175
C434	C	1.606091	-0.188327	0.315825
H435	H	0.954320	-0.731974	-0.125628
H436	H	1.454320	-0.231974	0.374372
H437	H	1.031444	-0.776814	-0.048641
H438	H	1.531444	-0.276814	0.451359
H439	H	1.155973	-0.765459	-0.057727
H440	H	1.655973	-0.265459	0.442273
H441	H	1.203382	-0.709262	-0.143802
H442	H	1.703382	-0.209262	0.356198
H443	H	1.126258	-0.664422	-0.220789
H444	H	1.626258	-0.164422	0.279211
C445	C	0.994364	-0.952936	-0.219193
C446	C	1.494364	-0.452936	0.280807
C447	C	0.989265	-0.959416	-0.147626
C448	C	1.489265	-0.459416	0.352374
C449	C	1.033567	-0.933590	-0.103393
C450	C	1.533567	-0.433590	0.396607
C451	C	1.082966	-0.901284	-0.130727
C452	C	1.582966	-0.401284	0.369273
C453	C	1.088067	-0.894803	-0.202297
C454	C	1.588067	-0.394803	0.297703
C455	C	1.043765	-0.920628	-0.246530
C456	C	1.543765	-0.420628	0.253470
H457	H	0.952695	-0.983331	-0.127388
H458	H	1.452695	-0.483331	0.372612
H459	H	1.029791	-0.938388	-0.050411
H460	H	1.529791	-0.438388	0.449589
H461	H	1.115761	-0.882166	-0.097983
H462	H	1.615761	-0.382166	0.402017
H463	H	1.124637	-0.870887	-0.222535
H464	H	1.624637	-0.370887	0.277465
H465	H	1.047541	-0.915830	-0.299512
H466	H	1.547541	-0.415830	0.200488
H467	H	0.836591	-0.268397	-0.543791
H468	H	1.336591	0.231603	-0.043791
C469	C	0.825229	-1.051562	-0.388079
C470	C	1.325229	-0.551562	0.111921
C471	C	0.780919	-1.025779	-0.432302
C472	C	1.280919	-0.525779	0.067698
C473	C	0.736621	-1.051605	-0.476539
C474	C	1.236621	-0.551605	0.023461
C475	C	0.736633	-1.103212	-0.476553
C476	C	1.236633	-0.603212	0.023447
C477	C	0.780944	-1.128998	-0.432329
C478	C	1.280944	-0.628998	0.067671
C479	C	0.825242	-1.103172	-0.388092
C480	C	1.325242	-0.603172	0.111908
H481	H	0.780909	-0.987573	-0.432293
H482	H	1.280909	-0.487573	0.067707
H483	H	0.703819	-1.032516	-0.509277
H484	H	1.203819	-0.532516	-0.009277
H485	H	0.703841	-1.122330	-0.509300
H486	H	1.203841	-0.622330	-0.009300
H487	H	0.780954	-1.167203	-0.432337
H488	H	1.280954	-0.667203	0.067663
H489	H	0.858044	-1.122260	-0.355354
H490	H	1.358044	-0.622260	0.144646
H491	H	0.982890	-1.044770	-0.230698
H492	H	1.482890	-0.544770	0.269302
H493	H	0.982807	-0.164134	-0.543903
H494	H	1.482807	0.335866	-0.043903
C495	C	0.825189	-0.953046	-0.388075
C496	C	1.325189	-0.453046	0.111925
C497	C	0.753634	-0.959570	-0.382844
C498	C	1.253634	-0.459570	0.117156
C499	C	0.709311	-0.933802	-0.427076
C500	C	1.209311	-0.433802	0.072924
C501	C	0.736543	-0.901511	-0.476538
C502	C	1.236543	-0.401511	0.023462
C503	C	0.808101	-0.894986	-0.481770
C504	C	1.308101	-0.394986	0.018230
C505	C	0.852425	-0.920753	-0.437539
C506	C	1.352425	-0.420753	0.062461
H507	H	0.733472	-0.983475	-0.346228
H508	H	1.233472	-0.483475	0.153772
H509	H	0.656338	-0.938633	-0.423202
H510	H	1.156338	-0.438633	0.076798
H511	H	0.703732	-0.882437	-0.509280
H512	H	1.203732	-0.382437	-0.009280
H513	H	0.828263	-0.871081	-0.518387
H514	H	1.328263	-0.371081	-0.018387
H515	H	0.905397	-0.915923	-0.441412
H516	H	1.405397	-0.415923	0.058588
C517	C	0.784818	-0.694998	-0.428266
C518	C	1.284818	-0.194998	0.071734
C519	C	0.713257	-0.688607	-0.423048
C520	C	1.213257	-0.188607	0.076952
C521	C	0.668961	-0.714425	-0.467296
C522	C	1.168961	-0.214425	0.032704
C523	C	0.696227	-0.746634	-0.516761
C524	C	1.196227	-0.246634	-0.016761
C525	C	0.767792	-0.753027	-0.521982
C526	C	1.267792	-0.253027	-0.021982
C527	C	0.812087	-0.727209	-0.477734
C528	C	1.312087	-0.227209	0.022266
H529	H	0.693070	-0.664762	-0.386428
H530	H	1.193070	-0.164762	0.113572
H531	H	0.615984	-0.709693	-0.463431
H532	H	1.115984	-0.209693	0.036569
H533	H	0.663437	-0.765747	-0.549516
H534	H	1.163437	-0.265747	-0.049516
H535	H	0.787979	-0.776872	-0.558601
H536	H	1.287979	-0.276872	-0.058601
H537	H	0.865064	-0.731941	-0.481598
H538	H	1.365064	-0.231941	0.018402
C539	C	0.994321	-0.155894	-0.672575
C540	C	1.494321	0.344106	-0.172575
C541	C	1.065877	-0.159561	-0.663591
C542	C	1.565877	0.340439	-0.163591
C543	C	1.110206	-0.127949	-0.699787
C544	C	1.610206	0.372051	-0.199787
C545	C	1.082978	-0.092672	-0.744968
C546	C	1.582978	0.407328	-0.244968
C547	C	1.011418	-0.089003	-0.753955
C548	C	1.511418	0.410997	-0.253955
C549	C	0.967089	-0.120615	-0.717759
C550	C	1.467089	0.379385	-0.217759
H551	H	1.086036	-0.185677	-0.630143
H552	H	1.586036	0.314323	-0.130143
H553	H	1.163180	-0.130665	-0.693134
H554	H	1.663180	0.369335	-0.193134
H555	H	1.115792	-0.069271	-0.771763
H556	H	1.615792	0.430729	-0.271763
H557	H	0.991258	-0.062887	-0.787403
H558	H	1.491258	0.437113	-0.287403
H559	H	0.914115	-0.117899	-0.724412
H560	H	1.414115	0.382101	-0.224412
H561	H	0.836492	-0.472462	-0.376522
H562	H	1.336492	0.027538	0.123478
H563	H	0.836451	-0.387339	-0.376501
H564	H	1.336451	0.112661	0.123499
H565	H	1.023048	-0.743797	-0.190453
H566	H	1.523048	-0.243797	0.309547
