data_functionalizedCrystal
_audit_creation_method	'MofGen! by Chris Wilmer'
_symmetry_space_group_name_H-M	'P1'
_symmetry_Int_Tables_number	1
_symmetry_cell_setting	triclinic
loop_
_symmetry_equiv_pos_as_xyz
  x,y,z
_cell_length_a	23.532407
_cell_length_b	14.044220
_cell_length_c	13.101039
_cell_angle_alpha	93.669626
_cell_angle_beta	86.668910
_cell_angle_gamma	88.018777
loop_
_atom_site_label
_atom_site_type_symbol
_atom_site_fract_x
_atom_site_fract_y
_atom_site_fract_z
O1	O	0.764355	0.109759	-0.085084
O2	O	0.599394	0.126398	-0.085113
O3	O	0.679398	-0.019883	-0.085094
O4	O	0.684351	0.256039	-0.085103
O5	O	0.673659	-0.009370	0.085334
O6	O	0.593655	0.136911	0.085315
O7	O	0.758615	0.120272	0.085345
Zn8	Zn	0.675224	0.130260	0.112389
Zn9	Zn	0.682786	0.116409	-0.112158
O10	O	0.678611	0.266552	0.085326
C11	C	0.575286	0.131230	0.000097
C12	C	0.512000	0.129956	0.000086
C13	C	0.117154	0.208534	0.000130
C14	C	0.057690	0.207350	0.000136
O15	O	0.024892	0.280193	0.000171
N16	N	0.030350	0.120386	0.000137
C17	C	0.062478	0.034600	0.000142
O18	O	0.033763	-0.039479	0.000144
C19	C	0.121941	0.035785	0.000143
C20	C	0.149278	0.122754	0.000132
C21	C	0.144491	0.295496	0.000120
C22	C	0.203952	0.296679	0.000112
C23	C	0.236075	0.210899	0.000113
C24	C	0.208738	0.123937	0.000124
C25	C	0.154067	-0.050000	0.000155
C26	C	0.213534	-0.048808	0.000157
C27	C	0.240871	0.038161	0.000146
C28	C	0.300322	0.039339	0.000117
N29	N	0.327662	0.126304	0.000116
C30	C	0.295539	0.212084	0.000115
C31	C	-0.062400	0.032119	0.000142
C32	C	-0.121861	0.030933	0.000133
C33	C	-0.126645	0.203684	0.000129
C34	C	-0.067182	0.204869	0.000130
C35	C	-0.035060	0.119083	0.000141
C36	C	0.420410	0.214561	0.000096
C37	C	0.479876	0.215735	0.000084
C38	C	0.484655	0.042985	0.000093
C39	C	0.425194	0.041809	0.000100
C40	C	0.393073	0.127605	0.000105
O41	O	0.333157	-0.033464	0.000086
O42	O	0.324261	0.286151	0.000126
C43	C	0.674361	-0.049920	0.000119
C44	C	0.667895	-0.155086	0.000114
C45	C	0.782724	0.115439	0.000132
C46	C	0.846010	0.116713	0.000137
C47	C	0.683649	0.296590	0.000111
C48	C	0.690115	0.401755	0.000108
C49	C	0.701936	0.594305	0.000115
C50	C	0.656077	0.652370	0.000108
C51	C	0.662654	0.759511	0.000111
C52	C	0.695359	0.487153	0.000111
N53	N	0.670067	0.139713	0.265637
N54	N	0.687946	0.106949	-0.265405
C55	C	0.663052	0.152581	0.474678
C56	C	0.694960	0.094084	0.525561
C57	C	0.691057	0.101244	0.641878
C58	C	0.666955	0.145422	0.358349
H59	H	0.394264	0.284424	0.000104
H60	H	0.611876	0.621614	0.000100
C61	C	0.761645	0.635846	0.000137
C62	C	0.768222	0.744560	0.000148
C63	C	0.827931	0.786115	0.000174
C64	C	0.881062	0.718957	0.000189
C65	C	0.874487	0.610236	0.000179
C66	C	0.814778	0.568681	0.000152
H67	H	0.728890	0.794281	0.000136
H68	H	0.832798	0.866597	0.000182
H69	H	0.925262	0.749718	0.000209
H70	H	0.913819	0.560516	0.000190
H71	H	0.809911	0.488199	0.000144
C72	C	0.735829	0.019167	0.466403
C73	C	0.739697	0.011974	0.348403
C74	C	0.780567	-0.062936	0.289240
C75	C	0.817569	-0.130653	0.348077
C76	C	0.813702	-0.123462	0.466083
C77	C	0.772832	-0.048552	0.525247
H78	H	0.712305	0.062103	0.304843
H79	H	0.783429	-0.068259	0.201883
H80	H	0.847823	-0.186106	0.304280
H81	H	0.841094	-0.173592	0.509644
H82	H	0.769970	-0.043229	0.612603
C83	C	0.622193	0.227507	0.533831
C84	C	0.617893	0.234040	0.651826
C85	C	0.577036	0.308969	0.710993
C86	C	0.540481	0.377364	0.652164
C87	C	0.544780	0.370833	0.534161
C88	C	0.585636	0.295905	0.474995
H89	H	0.644955	0.183408	0.695381
H90	H	0.573854	0.313803	0.798347
H91	H	0.510236	0.432830	0.695963
H92	H	0.517718	0.421465	0.490607
H93	H	0.588818	0.291071	0.387641
H94	H	0.226204	0.367498	0.000102
C95	C	0.109163	0.389865	0.000111
C96	C	0.070606	0.407354	-0.088395
C97	C	0.035283	0.501730	-0.088413
C98	C	0.038517	0.578615	0.000074
C99	C	0.077075	0.561128	0.088587
C100	C	0.112398	0.466753	0.088606
H101	H	0.068211	0.350437	-0.153905
H102	H	0.006740	0.514674	-0.153937
H103	H	0.012369	0.648478	0.000061
H104	H	0.079470	0.618046	0.154097
H105	H	0.140941	0.453808	0.154129
C106	C	-0.161988	0.298047	0.000139
C107	C	-0.152822	0.364017	-0.088357
C108	C	-0.188165	0.458374	-0.088347
C109	C	-0.232676	0.486761	0.000160
C110	C	-0.241844	0.420790	0.088663
C111	C	-0.206500	0.326433	0.088653
H112	H	-0.119871	0.343005	-0.153881
H113	H	-0.181378	0.507210	-0.153863
H114	H	-0.258839	0.556610	0.000168
H115	H	-0.274795	0.441802	0.154188
H116	H	-0.213288	0.277596	0.154169
C117	C	-0.027067	-0.062254	0.000135
C118	C	-0.036249	-0.128221	0.088630
C119	C	-0.000921	-0.222593	0.088624
C120	C	0.043590	-0.250999	0.000123
C121	C	0.052774	-0.185030	-0.088379
C122	C	0.017446	-0.090658	-0.088373
H123	H	-0.069201	-0.107196	0.154150
H124	H	-0.007720	-0.271427	0.154139
H125	H	0.069743	-0.320858	0.000119
H126	H	0.085726	-0.206056	-0.153898
H127	H	0.024245	-0.041824	-0.153888
H128	H	0.510821	-0.026855	0.000091
C129	C	0.248868	-0.143176	0.000165
C130	C	0.239691	-0.209133	0.088670
C131	C	0.275024	-0.303500	0.088675
C132	C	0.319535	-0.331909	0.000174
C133	C	0.328714	-0.265950	-0.088337
C134	C	0.293381	-0.171584	-0.088342
H135	H	0.206740	-0.188105	0.154189
H136	H	0.268229	-0.352327	0.154197
H137	H	0.345691	-0.401764	0.000178
H138	H	0.361665	-0.286979	-0.153856
H139	H	0.300176	-0.122757	-0.153865
H140	H	-0.044929	0.275687	0.000127
H141	H	-0.144113	-0.039887	0.000126
H142	H	0.502131	0.286559	0.000074
H143	H	0.131820	-0.120820	0.000165
H144	H	0.402936	-0.029009	0.000095
