data_functionalizedCrystal
_audit_creation_method	'MofGen! by Chris Wilmer'
_symmetry_space_group_name_H-M	'P1'
_symmetry_Int_Tables_number	1
_symmetry_cell_setting	triclinic
loop_
_symmetry_equiv_pos_as_xyz
  x,y,z
_cell_length_a	16.974885
_cell_length_b	16.053802
_cell_length_c	9.065218
_cell_angle_alpha	87.394393
_cell_angle_beta	84.202611
_cell_angle_gamma	88.930672
loop_
_atom_site_label
_atom_site_type_symbol
_atom_site_fract_x
_atom_site_fract_y
_atom_site_fract_z
O1	O	1.050410	-0.001482	0.188108
O2	O	0.821112	0.013998	0.210683
O3	O	0.940501	0.005936	-0.015347
O4	O	0.931022	0.006580	0.414137
O5	O	0.933929	-0.132479	-0.002957
O6	O	0.814540	-0.124417	0.223073
O7	O	1.043838	-0.139897	0.200498
Zn8	Zn	0.928146	-0.154134	0.213752
Zn9	Zn	0.936805	0.028234	0.197428
O10	O	0.924450	-0.131836	0.426527
C11	C	0.788456	-0.053227	0.215791
C12	C	0.700940	-0.047319	0.212534
N13	N	0.922242	-0.278595	0.224892
C14	C	0.208714	-0.005905	0.193423
C15	C	0.290943	-0.011468	0.196484
C16	C	0.328467	-0.089700	0.204779
C17	C	0.283757	-0.162374	0.209998
C18	C	0.201530	-0.156811	0.206927
C19	C	0.574004	-0.114429	0.214681
C20	C	0.656237	-0.119987	0.217757
C21	C	0.663417	0.030920	0.204240
C22	C	0.581188	0.036476	0.201177
C23	C	0.536486	-0.036198	0.206389
N24	N	0.412518	-0.095388	0.207913
N25	N	0.452437	-0.030509	0.203245
C26	C	0.973061	-0.325721	0.128751
C27	C	0.968939	-0.412849	0.136557
C28	C	0.914001	-0.452851	0.240514
C29	C	0.863177	-0.405719	0.336660
C30	C	0.867296	-0.318592	0.328845
C31	C	0.896009	-0.713045	0.274608
C32	C	0.891895	-0.800179	0.282418
C33	C	0.997657	-0.807303	0.082313
C34	C	1.001775	-0.720175	0.074514
C35	C	0.950947	-0.673050	0.170654
N36	N	0.909788	-0.541910	0.248499
N37	N	0.955157	-0.583992	0.162661
C38	C	1.076495	-0.072671	0.195390
C39	C	1.164010	-0.078574	0.198646
C40	C	0.936304	-0.063209	-0.064119
C41	C	0.933580	-0.063021	-0.227905
N42	N	0.942714	0.152696	0.186277
C43	C	0.928647	-0.062689	0.475300
C44	C	0.931371	-0.062871	0.639085
H45	H	0.327338	0.047707	0.192221
H46	H	1.039038	-0.845680	0.004039
H47	H	0.686785	-0.183697	0.224523
O48	O	0.544821	0.112522	0.193299
C49	C	0.559065	0.157607	0.317606
H50	H	0.615070	0.132295	0.364327
H51	H	0.506672	0.150668	0.406203
C52	C	0.500961	0.281512	0.213218
C53	C	0.569751	0.250427	0.270594
H54	H	0.507549	0.338768	0.184223
H55	H	0.491361	0.251137	0.129472
H56	H	0.457306	0.275722	0.287058
H57	H	0.613401	0.256208	0.196749
H58	H	0.579357	0.280805	0.354328
H59	H	0.825912	-0.280223	0.407132
H60	H	1.010320	-0.451219	0.058271
H61	H	1.046509	-0.687607	-0.010136
O62	O	1.026347	-0.286918	0.027539
C63	C	1.011479	-0.307331	-0.116635
H64	H	0.947235	-0.327023	-0.115485
H65	H	1.052447	-0.360843	-0.155192
C66	C	1.105583	-0.206555	-0.225006
C67	C	1.026676	-0.230734	-0.223596
H68	H	1.114961	-0.159308	-0.290988
H69	H	1.115603	-0.192804	-0.127874
H70	H	1.139714	-0.251155	-0.257133
H71	H	0.992547	-0.186138	-0.191452
H72	H	1.016651	-0.244476	-0.320726
O73	O	0.838447	-0.838903	0.383435
C74	C	0.794478	-0.778629	0.466635
H75	H	0.796098	-0.716435	0.400579
H76	H	0.821272	-0.771131	0.575547
C77	C	0.706075	-0.883317	0.580757
C78	C	0.708059	-0.806932	0.499621
H79	H	0.652769	-0.900777	0.601112
H80	H	0.735699	-0.923927	0.524709
H81	H	0.728407	-0.877059	0.671508
H82	H	0.685737	-0.813193	0.408865
H83	H	0.678429	-0.766324	0.555655
O84	O	0.809844	-0.444482	0.437834
C85	C	0.824709	-0.424126	0.582039
H86	H	0.858080	-0.362911	0.576336
H87	H	0.861942	-0.475820	0.632267
C88	C	0.704585	-0.489937	0.686420
C89	C	0.745566	-0.414748	0.679416
H90	H	0.655767	-0.484156	0.746490
H91	H	0.694572	-0.503654	0.589267
H92	H	0.735621	-0.533008	0.728272
H93	H	0.714534	-0.371681	0.637547
H94	H	0.755573	-0.401024	0.776565
H95	H	0.165133	-0.215985	0.211196
H96	H	0.699822	0.090087	0.199995
H97	H	0.178168	0.057800	0.186678
O98	O	0.530701	-0.185105	0.219837
C99	C	0.581458	-0.255344	0.227790
H100	H	0.638193	-0.236984	0.274661
H101	H	0.596528	-0.279644	0.111946
C102	C	0.470222	-0.346594	0.272081
C103	C	0.539902	-0.324046	0.329660
H104	H	0.444588	-0.388975	0.334913
H105	H	0.436026	-0.299274	0.266717
H106	H	0.482791	-0.366840	0.175545
H107	H	0.527332	-0.303791	0.426185
H108	H	0.574096	-0.371365	0.335042
O109	O	0.320187	-0.238389	0.217791
C110	C	0.305913	-0.283485	0.093513
H111	H	0.291016	-0.238189	-0.000512
H112	H	0.254131	-0.327180	0.124804
C113	C	0.398691	-0.390539	0.157986
C114	C	0.380400	-0.334906	0.042498
H115	H	0.444636	-0.422262	0.126520
H116	H	0.408305	-0.360160	0.241718
H117	H	0.355533	-0.426944	0.184051
H118	H	0.423553	-0.298496	0.016448
H119	H	0.370794	-0.365281	-0.041240
H120	H	0.854625	-0.674683	0.352892
