data_functionalizedCrystal
_audit_creation_method	'MofGen! by Chris Wilmer'
_symmetry_space_group_name_H-M	'P1'
_symmetry_Int_Tables_number	1
_symmetry_cell_setting	triclinic
loop_
_symmetry_equiv_pos_as_xyz
  x,y,z
_cell_length_a	18.101398
_cell_length_b	21.295417
_cell_length_c	21.295420
_cell_angle_alpha	90.018953
_cell_angle_beta	90.011709
_cell_angle_gamma	90.025773
loop_
_atom_site_label
_atom_site_type_symbol
_atom_site_fract_x
_atom_site_fract_y
_atom_site_fract_z
Zn1	Zn	1.132032	-0.250777	0.356000
Zn2	Zn	1.131956	-0.356024	0.250726
Zn3	Zn	1.008218	-0.250764	0.250736
Zn4	Zn	1.008143	-0.356004	0.355948
O5	O	1.070087	-0.303392	0.303352
O6	O	1.235655	-0.264752	0.342053
O7	O	1.115542	-0.342064	0.162638
O8	O	1.024705	-0.162676	0.264725
O9	O	1.235599	-0.342077	0.264709
O10	O	1.115671	-0.162686	0.342063
O11	O	1.024632	-0.264730	0.162645
O12	O	0.904575	-0.264710	0.264674
O13	O	1.024577	-0.342042	0.444044
O14	O	0.904520	-0.342029	0.341973
O15	O	1.115598	-0.264733	0.444083
O16	O	1.115469	-0.444111	0.264657
O17	O	1.024504	-0.444096	0.341964
C18	C	0.877677	-0.303367	0.303319
C19	C	0.795363	-0.303371	0.303320
C20	C	0.496272	-0.303410	0.303373
C21	C	0.527607	-0.254520	0.254976
C22	C	0.613225	-0.254651	0.254770
C23	C	0.644654	-0.303390	0.303347
C24	C	0.613542	-0.369697	0.285216
C25	C	0.527896	-0.369425	0.284880
C26	C	0.527869	-0.286570	0.370015
C27	C	0.613520	-0.285093	0.369651
C28	C	0.728514	-0.303383	0.303333
C29	C	0.412412	-0.303422	0.303385
C30	C	1.069990	-0.466944	0.303317
C31	C	1.070016	-0.536912	0.303324
C32	C	1.117424	-0.569765	0.263112
C33	C	1.117459	-0.635508	0.263126
C34	C	1.070073	-0.668394	0.303345
C35	C	1.022662	-0.635533	0.343565
C36	C	1.022633	-0.569792	0.343554
N37	N	1.005287	-0.771657	0.308133
N38	N	1.005316	-0.834108	0.308140
C39	C	1.070155	-0.866469	0.303381
N40	N	1.134967	-0.834019	0.298604
N41	N	1.134937	-0.771562	0.298594
C42	C	1.070098	-0.739680	0.303362
C43	C	1.117605	-0.970608	0.263183
C44	C	1.117641	-1.036352	0.263201
C45	C	1.022837	-1.036376	0.343637
C46	C	1.022808	-0.970633	0.343622
C47	C	1.070191	-0.937753	0.303391
C48	C	1.263249	-0.303418	0.303386
C49	C	1.345563	-0.303429	0.303400
C50	C	1.070087	-0.303387	0.467543
C51	C	1.070088	-0.303384	0.537511
C52	C	1.070205	-0.139202	0.303401
C53	C	1.070255	-0.069234	0.303422
C54	C	1.117449	-0.263136	1.036990
C55	C	1.117457	-0.263137	0.971247
C56	C	1.070069	-0.303387	0.938350
C57	C	1.022683	-0.343649	0.971201
C58	C	1.022682	-0.343651	1.036942
N59	N	1.005243	-0.308204	0.835116
N60	N	1.005246	-0.308198	0.772665
C61	C	1.070071	-0.303384	0.740275
N62	N	1.134894	-0.298563	0.772697
N63	N	1.134890	-0.298565	0.835154
C64	C	1.070065	-0.303389	0.867065
C65	C	1.117466	-0.263128	0.636147
C66	C	1.117475	-0.263134	0.570403
C67	C	1.022695	-0.343642	0.570358
C68	C	1.022692	-0.343640	0.636101
C69	C	1.070077	-0.303380	0.668991
C70	C	1.070078	-0.303406	1.139801
C71	C	1.070067	-0.303391	1.069833
H72	H	0.506070	-0.265525	0.205883
H73	H	1.156037	-0.230356	1.063765
C74	C	1.169580	-0.218849	0.935113
N75	N	1.208838	-0.185490	0.907898
C76	C	0.499809	-0.187889	0.270158
N77	N	0.478867	-0.137702	0.281593
H78	H	1.156066	-0.662263	0.230380
C79	C	0.970554	-0.387922	0.935013
N80	N	0.931290	-0.421271	0.907756
C81	C	0.641647	-0.188223	0.270115
N82	N	0.663051	-0.138185	0.281669
H83	H	0.984096	-0.376433	1.063682
C84	C	0.500877	-0.388713	0.219061
N85	N	0.480529	-0.403239	0.169484
H86	H	0.984105	-0.376417	0.662842
H87	H	0.984113	-0.376417	0.543574
H88	H	0.633692	-0.265782	0.205389
C89	C	0.499889	-0.420304	0.330419
N90	N	0.478797	-0.458628	0.364717
H91	H	0.633898	-0.407099	0.319363
C92	C	0.642481	-0.389326	0.220107
N93	N	0.664276	-0.404107	0.171065
C94	C	1.169737	-0.934438	0.218938
N95	N	1.209007	-0.907197	0.185614
H96	H	0.506292	-0.239062	0.386499
H97	H	0.633860	-0.236299	0.383323
H98	H	0.634915	-0.318109	0.407644
H99	H	0.507603	-0.322180	0.406075
H100	H	1.156008	-0.542997	0.230355
H101	H	1.156049	-0.230345	0.662928
C102	C	0.970534	-0.671709	0.387805
N103	N	0.931271	-0.698957	0.421128
C104	C	0.970488	-0.533652	0.387801
N105	N	0.931215	-0.506430	0.421130
C106	C	1.169795	-1.072491	0.218962
N107	N	1.209077	-1.099711	0.185638
C108	C	0.970713	-1.072547	0.387881
N109	N	0.931452	-1.099794	0.421207
C110	C	0.970670	-0.934493	0.387872
N111	N	0.931406	-0.907272	0.421210
C112	C	1.169601	-0.218846	0.534276
N113	N	1.208861	-0.185487	0.507065
