data_functionalizedCrystal
_audit_creation_method	'MofGen! by Chris Wilmer'
_symmetry_space_group_name_H-M	'P1'
_symmetry_Int_Tables_number	1
_symmetry_cell_setting	triclinic
loop_
_symmetry_equiv_pos_as_xyz
  x,y,z
_cell_length_a	19.077236
_cell_length_b	19.077068
_cell_length_c	12.759393
_cell_angle_alpha	92.261232
_cell_angle_beta	87.676977
_cell_angle_gamma	94.708605
loop_
_atom_site_label
_atom_site_type_symbol
_atom_site_fract_x
_atom_site_fract_y
_atom_site_fract_z
Zn1	Zn	1.066478	-0.237398	-0.672330
Zn2	Zn	1.566478	0.262602	-0.172330
Zn3	Zn	1.061644	-0.355307	-0.503410
Zn4	Zn	1.561644	0.144693	-0.003410
Zn5	Zn	0.948581	-0.242162	-0.489862
Zn6	Zn	1.448581	0.257838	0.010138
Zn7	Zn	0.943814	-0.359977	-0.672242
Zn8	Zn	1.443814	0.140023	-0.172242
O9	O	1.005129	-0.298711	-0.584461
O10	O	1.505129	0.201289	-0.084461
O11	O	1.164489	-0.249091	-0.655629
O12	O	1.664489	0.250909	-0.155629
O13	O	1.046618	-0.340338	-0.354592
O14	O	1.546618	0.159662	0.145408
O15	O	0.968238	-0.142878	-0.508434
O16	O	1.468238	0.357122	-0.008434
O17	O	1.160937	-0.335719	-0.531524
O18	O	1.660937	0.164281	-0.031524
O19	O	1.054857	-0.139378	-0.642492
O20	O	1.554857	0.360622	-0.142492
O21	O	0.963551	-0.257210	-0.344639
O22	O	1.463551	0.242790	0.155361
O23	O	0.849296	-0.261738	-0.508349
O24	O	1.349296	0.238262	-0.008349
O25	O	0.960114	-0.343678	-0.819274
O26	O	1.460114	0.156322	-0.319274
O27	O	0.845794	-0.348297	-0.642343
O28	O	1.345794	0.151703	-0.142343
O29	O	1.050234	-0.253619	-0.819339
O30	O	1.550234	0.246381	-0.319339
O31	O	1.041995	-0.454579	-0.531439
O32	O	1.541995	0.045421	-0.031439
O33	O	0.955426	-0.458010	-0.655479
O34	O	1.455426	0.041990	-0.155479
C35	C	0.821966	-0.306042	-0.573867
C36	C	1.321966	0.193958	-0.073867
C37	C	0.743607	-0.309195	-0.569361
C38	C	1.243607	0.190805	-0.069361
C39	C	0.708641	-0.265645	-0.631965
C40	C	1.208641	0.234355	-0.131965
C41	C	0.635014	-0.268604	-0.627722
C42	C	1.135014	0.231396	-0.127722
C43	C	0.596356	-0.315117	-0.560879
C44	C	1.096356	0.184883	-0.060879
C45	C	0.631327	-0.358668	-0.498267
C46	C	1.131327	0.141332	0.001733
C47	C	0.704952	-0.355705	-0.502506
C48	C	1.204952	0.144295	-0.002506
C49	C	0.375962	-0.328805	-0.541257
C50	C	0.875962	0.171195	-0.041257
C51	C	0.302332	-0.331766	-0.537025
C52	C	0.802332	0.168234	-0.037025
C53	C	0.306025	-0.241701	-0.666479
C54	C	0.806025	0.258299	-0.166479
C55	C	0.379651	-0.238745	-0.670716
C56	C	0.879651	0.261255	-0.170716
C57	C	0.414616	-0.282293	-0.608101
C58	C	0.914616	0.217707	-0.108101
N59	N	0.521098	-0.318144	-0.556542
N60	N	1.021098	0.181856	-0.056542
N61	N	0.489873	-0.279262	-0.612432
N62	N	0.989873	0.220738	-0.112432
C63	C	0.997688	-0.481873	-0.594944
C64	C	1.497688	0.018127	-0.094944
C65	C	0.994569	-0.560227	-0.599467
C66	C	1.494569	-0.060227	-0.099467
C67	C	1.038211	-0.595227	-0.537068
C68	C	1.538211	-0.095227	-0.037068
C69	C	1.035281	-0.668850	-0.541329
C70	C	1.535281	-0.168850	-0.041329
C71	C	0.988707	-0.707471	-0.607984
C72	C	1.488707	-0.207471	-0.107984
C73	C	0.945063	-0.672466	-0.670389
C74	C	1.445063	-0.172466	-0.170389
C75	C	0.947996	-0.598845	-0.666133
C76	C	1.447996	-0.098845	-0.166133
C77	C	0.975100	-0.927849	-0.627637
C78	C	1.475100	-0.427849	-0.127637
C79	C	0.972168	-1.001476	-0.631886
C80	C	1.472168	-0.501476	-0.131886
C81	C	1.062388	-0.997855	-0.502827
C82	C	1.562388	-0.497855	-0.002827
C83	C	1.065314	-0.924232	-0.498572
C84	C	1.565314	-0.424232	0.001428
C85	C	1.021674	-0.889233	-0.560982
C86	C	1.521674	-0.389233	-0.060982
N87	N	0.985710	-0.782725	-0.612338
N88	N	1.485710	-0.282725	-0.112338
N89	N	1.024674	-0.813980	-0.556632
N90	N	1.524674	-0.313980	-0.056632
C91	C	1.189008	-0.291352	-0.595097
C92	C	1.689008	0.208648	-0.095097
C93	C	1.267366	-0.288217	-0.599630
C94	C	1.767366	0.211783	-0.099630
C95	C	1.005181	-0.298638	-0.858493
C96	C	1.505181	0.201362	-0.358493
C97	C	1.005204	-0.298607	-0.975269
C98	C	1.505204	0.201393	-0.475269
C99	C	1.012618	-0.114834	-0.573962
C100	C	1.512618	0.385166	-0.073962
C101	C	1.015810	-0.036476	-0.569487
C102	C	1.515810	0.463524	-0.069487
C103	C	1.052136	-0.251709	-1.030167
C104	C	1.552136	0.248291	-0.530167
C105	C	1.052154	-0.251683	-1.139891
C106	C	1.552154	0.248317	-0.639891
C107	C	0.958305	-0.345459	-1.139810
C108	C	1.458305	0.154541	-0.639810
C109	C	0.958284	-0.345481	-1.030088
C110	C	1.458284	0.154519	-0.530088
C111	C	1.106321	-0.197570	-1.030214
C112	C	1.606321	0.302430	-0.530214
C113	C	1.106338	-0.197544	-1.139938
C114	C	1.606338	0.302456	-0.639938
C115	C	1.005120	-0.298731	-0.311494
C116	C	1.505120	0.201269	0.188506
C117	C	1.005242	-0.298558	-0.194715
C118	C	1.505242	0.201442	0.305285
H119	H	0.606548	-0.233143	-0.678703
H120	H	1.106548	0.266857	-0.178703
H121	H	1.076134	-0.563787	-0.482786
H122	H	1.576134	-0.063787	0.017214
H123	H	0.404422	-0.364266	-0.490272
H124	H	0.904422	0.135734	0.009728
H125	H	1.093919	-0.143561	-0.996483
H126	H	1.593919	0.356439	-0.496483
H127	H	1.160348	-0.209977	-1.173709
H128	H	1.660348	0.290023	-0.673709
C129	C	0.743414	-0.403614	-0.433638
C130	C	1.243414	0.096386	0.066362
N131	N	0.772383	-0.439700	-0.381763
N132	N	1.272383	0.060300	0.118237
C133	C	0.906695	-0.397016	-1.200120
C134	C	1.406695	0.102984	-0.700120
N135	N	0.867822	-0.435851	-1.245545
N136	N	1.367822	0.064149	-0.745545
C137	C	1.082812	-0.128510	-1.180398
C138	C	1.582812	0.371490	-0.680398
N139	N	1.065100	-0.076512	-1.210874
N140	N	1.565100	0.423488	-0.710874
C141	C	0.927129	-0.889359	-0.696345
C142	C	1.427129	-0.389359	-0.196345
N143	N	0.891009	-0.860365	-0.748121
N144	N	1.391009	-0.360365	-0.248121
H145	H	0.934250	-1.032919	-0.686183
H146	H	1.434250	-0.532919	-0.186183
C147	C	0.422171	-0.187571	-0.744239
C148	C	0.922171	0.312429	-0.244239
N149	N	0.454196	-0.149025	-0.799616
N150	N	0.954196	0.350975	-0.299616
C151	C	0.751159	-0.214476	-0.705498
C152	C	1.251159	0.285524	-0.205498
N153	N	0.783182	-0.175932	-0.760881
N154	N	1.283182	0.324068	-0.260881
C155	C	1.175307	-0.221182	-0.989790
C156	C	1.675307	0.278818	-0.489790
N157	N	1.227270	-0.238963	-0.959342
N158	N	1.727270	0.261037	-0.459342
C159	C	1.116532	-0.881755	-0.425219
C160	C	1.616532	-0.381755	0.074781
N161	N	1.155102	-0.849761	-0.369955
N162	N	1.655102	-0.349761	0.130045
C163	C	0.267558	-0.193789	-0.735332
C164	C	0.767558	0.306211	-0.235332
N165	N	0.238584	-0.157694	-0.787188
N166	N	0.738584	0.342306	-0.287188
H167	H	0.270858	-0.369646	-0.482593
H168	H	0.770858	0.130354	0.017407
H169	H	0.599845	-0.396536	-0.443837
H170	H	1.099845	0.103464	0.056163
H171	H	1.070818	-0.697344	-0.490517
H172	H	1.570818	-0.197344	0.009483
H173	H	1.097919	-1.026359	-0.452018
H174	H	1.597919	-0.526359	0.047982
H175	H	0.912460	-0.570348	-0.716946
H176	H	1.412460	-0.070348	-0.216946
H177	H	0.907144	-0.703917	-0.724666
H178	H	1.407144	-0.203917	-0.224666
C179	C	0.906645	-0.397062	-0.969703
C180	C	1.406645	0.102938	-0.469703
N181	N	0.867747	-0.435913	-0.924222
N182	N	1.367747	0.064087	-0.424222
