data_functionalizedCrystal
_audit_creation_method	'MofGen! by Chris Wilmer'
_symmetry_space_group_name_H-M	'P1'
_symmetry_Int_Tables_number	1
_symmetry_cell_setting	triclinic
loop_
_symmetry_equiv_pos_as_xyz
  x,y,z
_cell_length_a	16.120256
_cell_length_b	13.897449
_cell_length_c	13.897447
_cell_angle_alpha	89.979190
_cell_angle_beta	92.876392
_cell_angle_gamma	87.120616
loop_
_atom_site_label
_atom_site_type_symbol
_atom_site_fract_x
_atom_site_fract_y
_atom_site_fract_z
Zn1	Zn	-0.471376	-1.447017	-0.411678
Zn2	Zn	0.028624	-0.947017	0.088322
Zn3	Zn	-0.331970	-1.455090	-0.564800
Zn4	Zn	0.168030	-0.955090	-0.064800
Zn5	Zn	-0.331982	-1.293889	-0.403525
Zn6	Zn	0.168018	-0.793889	0.096475
Zn7	Zn	-0.471340	-1.285684	-0.572934
Zn8	Zn	0.028660	-0.785684	-0.072934
O9	O	-0.401667	-1.370420	-0.488234
O10	O	0.098333	-0.870420	0.011766
O11	O	-0.452894	-1.583069	-0.431998
O12	O	0.047106	-1.083069	0.068002
O13	O	-0.215308	-1.440519	-0.536590
O14	O	0.284692	-0.940519	-0.036590
O15	O	-0.350493	-1.314257	-0.269626
O16	O	0.149507	-0.814257	0.230374
O17	O	-0.350473	-1.589000	-0.544496
O18	O	0.149527	-1.089000	-0.044496
O19	O	-0.452905	-1.426759	-0.275616
O20	O	0.047095	-0.926759	0.224384
O21	O	-0.215317	-1.322085	-0.418102
O22	O	0.284683	-0.822085	0.081898
O23	O	-0.350457	-1.157820	-0.425989
O24	O	0.149543	-0.657820	0.074011
O25	O	-0.588008	-1.300273	-0.558360
O26	O	-0.088008	-0.800273	-0.058360
O27	O	-0.452843	-1.151792	-0.550454
O28	O	0.047157	-0.651792	-0.050454
O29	O	-0.588035	-1.418803	-0.439886
O30	O	-0.088035	-0.918803	0.060114
O31	O	-0.350438	-1.432563	-0.700859
O32	O	0.149562	-0.932563	-0.200859
O33	O	-0.452832	-1.308101	-0.706836
O34	O	0.047168	-0.808101	-0.206836
C35	C	-0.401648	-1.119807	-0.488220
C36	C	0.098352	-0.619807	0.011780
C37	C	-0.401660	-1.012592	-0.488239
C38	C	0.098340	-0.512592	0.011761
C39	C	-0.401648	-1.370343	-0.738847
C40	C	0.098352	-0.870343	-0.238847
C41	C	-0.401667	-1.370396	-0.846062
C42	C	0.098333	-0.870396	-0.346062
C43	C	-0.619117	-1.357722	-0.500940
C44	C	-0.119117	-0.857722	-0.000940
C45	C	-0.711781	-1.352311	-0.506354
C46	C	-0.211781	-0.852311	-0.006354
C47	C	-0.922740	-1.398636	-0.459975
C48	C	-0.422740	-0.898636	0.040025
C49	C	-0.881435	-1.342400	-0.516199
C50	C	-0.381435	-0.842400	-0.016199
C51	C	-0.787031	-1.347916	-0.510720
C52	C	-0.287031	-0.847916	-0.010720
C53	C	-1.017153	-1.393121	-0.465453
C54	C	-0.517153	-0.893121	0.034547
C55	C	-0.185063	-1.383124	-0.475509
C56	C	0.314937	-0.883124	0.024491
C57	C	-0.092399	-1.388722	-0.469823
C58	C	0.407601	-0.888722	0.030177
C59	C	-0.401686	-1.622012	-0.488249
C60	C	0.098314	-1.122012	0.011751
C61	C	-0.401695	-1.729225	-0.488255
C62	C	0.098305	-1.229225	0.011745
C63	C	-0.401681	-0.816296	-0.488243
C64	C	0.098319	-0.316296	0.011757
C65	C	-0.401667	-0.925529	-0.488238
C66	C	0.098333	-0.425529	0.011762
C67	C	-0.401686	-1.370442	-0.933133
C68	C	0.098314	-0.870442	-0.433133
C69	C	-0.401708	-1.370508	-1.042367
C70	C	0.098292	-0.870508	-0.542367
C71	C	-0.401705	-1.370523	-0.236643
C72	C	0.098295	-0.870523	0.263357
C73	C	-0.401721	-1.370567	-0.129430
C74	C	0.098279	-0.870567	0.370570
H75	H	-0.916971	-1.290107	-0.568444
H76	H	-0.416971	-0.790107	-0.068444
H77	H	-0.887206	-1.450920	-0.407729
H78	H	-0.387206	-0.950920	0.092271
