data_functionalizedCrystal
_audit_creation_method	'MofGen! by Chris Wilmer'
_symmetry_space_group_name_H-M	'P1'
_symmetry_Int_Tables_number	1
_symmetry_cell_setting	triclinic
loop_
_symmetry_equiv_pos_as_xyz
  x,y,z
_cell_length_a	16.120530
_cell_length_b	12.645330
_cell_length_c	16.120297
_cell_angle_alpha	87.123238
_cell_angle_beta	89.871860
_cell_angle_gamma	87.113442
loop_
_atom_site_label
_atom_site_type_symbol
_atom_site_fract_x
_atom_site_fract_y
_atom_site_fract_z
Zn1	Zn	1.247482	-0.537081	0.534595
Zn2	Zn	1.254445	-0.705843	0.395547
Zn3	Zn	1.115471	-0.519167	0.388512
Zn4	Zn	1.108402	-0.704866	0.527517
O5	O	1.181450	-0.616739	0.461543
O6	O	1.364772	-0.567373	0.522057
O7	O	1.241883	-0.673991	0.278248
O8	O	1.133026	-0.373200	0.407909
O9	O	1.369888	-0.691362	0.419899
O10	O	1.230014	-0.386361	0.515235
O11	O	1.139779	-0.536842	0.273080
O12	O	0.998166	-0.535895	0.401045
O13	O	1.120978	-0.689698	0.644821
O14	O	0.992972	-0.672327	0.503171
O15	O	1.223160	-0.566427	0.650022
O16	O	1.235028	-0.854056	0.413035
O17	O	1.127731	-0.853339	0.509992
C18	C	0.965397	-0.602062	0.450577
C19	C	0.872967	-0.595810	0.445905
C20	C	0.703737	-0.584371	0.437383
C21	C	0.660000	-0.649190	0.485763
C22	C	0.565835	-0.642825	0.481022
C23	C	0.797911	-0.590734	0.442124
C24	C	1.181390	-0.892164	0.461528
C25	C	1.181439	-1.009999	0.461554
C26	C	1.114193	-1.177186	0.522761
C27	C	1.113876	-1.054592	0.522537
C28	C	1.162161	-1.047614	0.372717
C29	C	1.161751	-1.170210	0.373088
C30	C	1.268390	-1.184441	0.488492
C31	C	1.267753	-1.061915	0.490381
C32	C	1.398347	-0.631475	0.472552
C33	C	1.490775	-0.637754	0.477244
C34	C	1.170504	-0.629952	0.678438
C35	C	1.165839	-0.635582	0.770865
C36	C	1.181532	-0.340242	0.461577
C37	C	1.181567	-0.222415	0.461592
C38	C	1.192401	-0.603505	0.245494
C39	C	1.197227	-0.597587	0.153075
C40	C	1.157292	-0.645836	0.940091
C41	C	1.205771	-0.587337	0.983855
C42	C	1.201016	-0.593042	1.078018
C43	C	1.162047	-0.640132	0.845919
H44	H	0.693277	-0.709462	0.530745
O45	O	0.659661	-0.504540	0.377801
H46	H	0.706224	-0.458030	0.343090
O47	O	1.265489	-0.515332	0.939815
H48	H	1.300269	-0.473356	0.986403
O49	O	1.337265	-1.022306	0.436116
H50	H	1.382241	-0.982875	0.474760
H51	H	1.112221	-0.700199	0.973339
O52	O	1.292831	-1.232324	0.573158
H53	H	1.352020	-1.280368	0.568216
H54	H	1.125422	-1.029426	0.588270
H55	H	1.050134	-1.202791	0.504798
O56	O	1.128987	-1.223241	0.610016
H57	H	1.184556	-1.278797	0.610735
H58	H	1.049419	-1.020022	0.504364
O59	O	1.334888	-1.223323	0.429638
H60	H	1.381928	-1.274576	0.464803
O61	O	1.077859	-1.200912	0.343591
H62	H	1.028904	-1.170157	0.385876
O63	O	1.224240	-1.209503	0.310342
H64	H	1.207164	-1.174903	0.247690
O65	O	1.225353	-1.009052	0.310428
H66	H	1.271278	-0.962552	0.342202
O67	O	1.079174	-0.999792	0.342799
H68	H	1.051532	-0.949231	0.391048
O69	O	1.287137	-1.030132	0.577004
H70	H	1.235519	-0.977575	0.599440
