data_functionalizedCrystal
_audit_creation_method	'MofGen! by Chris Wilmer'
_symmetry_space_group_name_H-M	'P1'
_symmetry_Int_Tables_number	1
_symmetry_cell_setting	triclinic
loop_
_symmetry_equiv_pos_as_xyz
  x,y,z
_cell_length_a	16.974829
_cell_length_b	10.540510
_cell_length_c	16.053802
_cell_angle_alpha	92.593693
_cell_angle_beta	83.771117
_cell_angle_gamma	83.954751
loop_
_atom_site_label
_atom_site_type_symbol
_atom_site_fract_x
_atom_site_fract_y
_atom_site_fract_z
O1	O	1.056754	0.150981	-0.140825
O2	O	1.556754	0.650981	0.359175
O3	O	0.825920	0.172779	-0.125230
O4	O	1.325920	0.672779	0.374770
O5	O	0.946616	-0.022942	-0.133384
O6	O	1.446616	0.477058	0.366616
O7	O	0.936059	0.346702	-0.132671
O8	O	1.436059	0.846702	0.367329
O9	O	0.939972	-0.012213	0.005924
O10	O	1.439972	0.487787	0.505924
O11	O	0.819277	0.183508	0.014078
O12	O	1.319277	0.683508	0.514078
O13	O	1.050110	0.161710	-0.001517
O14	O	1.550110	0.661710	0.498483
Zn15	Zn	0.933639	0.174313	0.028399
Zn16	Zn	1.433639	0.674313	0.528399
Zn17	Zn	0.942392	0.160177	-0.155145
Zn18	Zn	1.442392	0.660177	0.344855
O19	O	0.929415	0.357431	0.006637
O20	O	1.429415	0.857431	0.506637
C21	C	0.793041	0.177513	-0.053579
C22	C	1.293041	0.677513	0.446421
C23	C	0.704968	0.175616	-0.047629
C24	C	1.204968	0.675616	0.452371
C25	C	0.208817	0.165612	-0.005984
C26	C	0.708817	0.665612	0.494016
C27	C	0.291571	0.167394	-0.011577
C28	C	0.791571	0.667394	0.488423
C29	C	0.336571	0.162426	-0.090311
C30	C	0.836571	0.662426	0.409689
C31	C	0.298811	0.155690	-0.163457
C32	C	0.798811	0.655690	0.336543
C33	C	0.216058	0.153918	-0.157864
C34	C	0.716058	0.653918	0.342136
C35	C	0.584455	0.167108	-0.115182
C36	C	1.084455	0.667108	0.384818
C37	C	0.667214	0.168877	-0.120770
C38	C	1.167214	0.668877	0.379230
C39	C	0.659968	0.180583	0.031112
C40	C	1.159968	0.680583	0.531112
C41	C	0.577214	0.178802	0.036698
C42	C	1.077214	0.678802	0.536698
C43	C	0.539461	0.172073	-0.036448
C44	C	1.039461	0.672073	0.463552
N45	N	0.421159	0.164243	-0.096029
N46	N	0.921159	0.664243	0.403971
N47	N	0.454874	0.170265	-0.030729
N48	N	0.954874	0.670265	0.469271
C49	C	0.942507	-0.064864	-0.063678
C50	C	1.442507	0.435136	0.436322
C51	C	0.940154	-0.205764	-0.063524
C52	C	1.440154	0.294236	0.436476
C53	C	1.023985	-0.424990	-0.068870
C54	C	1.523985	0.075010	0.431130
C55	C	1.026511	-0.278473	-0.069358
C56	C	1.526511	0.221527	0.430642
C57	C	0.899741	-0.255703	-0.140087
C58	C	1.399741	0.244297	0.359913
C59	C	0.897845	-0.402428	-0.140021
C60	C	1.397845	0.097572	0.359979
C61	C	0.888491	-0.389997	0.018519
C62	C	1.388491	0.110003	0.518519
C63	C	0.892537	-0.243663	0.019289
C64	C	1.392537	0.256337	0.519289
C65	C	1.082990	0.156977	-0.073170
C66	C	1.582990	0.656977	0.426830
C67	C	1.171063	0.158873	-0.079125
C68	C	1.671063	0.658873	0.420875
C69	C	0.933523	0.399353	-0.063070
C70	C	1.433523	0.899353	0.436930
C71	C	0.935877	0.540253	-0.063230
C72	C	1.435877	1.040253	0.436770
N73	N	0.927671	0.183959	0.153662
N74	N	1.427671	0.683959	0.653662
N75	N	0.948366	0.150520	-0.280409
N76	N	1.448366	0.650520	0.219591
C77	C	0.979046	0.100709	0.193885
C78	C	1.479046	0.600709	0.693885
C79	C	0.974878	0.107469	0.281574
C80	C	1.474878	0.607469	0.781574
C81	C	0.919339	0.197486	0.329037
C82	C	1.419339	0.697486	0.829037
C83	C	0.867959	0.280739	0.288808
C84	C	1.367959	0.780739	0.788808
C85	C	0.872123	0.273973	0.201122
C86	C	1.372123	0.773973	0.701122
C87	C	0.901150	0.227008	0.591675
C88	C	1.401150	0.727008	1.091675
C89	C	0.896991	0.233771	0.679368
C90	C	1.396991	0.733771	1.179368
C91	C	1.003911	0.060497	0.672127
C92	C	1.503911	0.560497	1.172127
C93	C	1.008073	0.053744	0.584439
C94	C	1.508073	0.553744	1.084439
C95	C	0.956689	0.136993	0.544218
C96	C	1.456689	0.636993	1.044218
N97	N	0.915080	0.204400	0.418668
N98	N	1.415080	0.704400	0.918668
N99	N	0.960945	0.130072	0.454588
N100	N	1.460945	0.630072	0.954588
H101	H	0.690715	0.186064	0.090663
H102	H	1.190715	0.686064	0.590663
H103	H	0.540583	0.182819	0.100812
H104	H	1.040583	0.682819	0.600812
H105	H	1.016712	0.039679	0.314323
H106	H	1.516712	0.539679	0.814323
H107	H	0.322307	0.172878	0.047983
H108	H	0.822307	0.672878	0.547983
Br109	Br	0.359880	0.148954	-0.270313
Br110	Br	0.859880	0.648954	0.229687
H111	H	0.823628	-0.410718	0.023435
H112	H	1.323628	0.089282	0.523435
Br113	Br	1.054430	-0.021455	0.129479
Br114	Br	1.554430	0.478545	0.629479
Br115	Br	0.728285	0.162131	-0.227631
Br116	Br	1.228285	0.662131	0.272369
H117	H	0.851762	0.307079	0.718009
H118	H	1.351762	0.807079	1.218009
Br119	Br	0.792576	0.402899	0.353220
Br120	Br	1.292576	0.902899	0.853220
Br121	Br	0.533229	0.157970	-0.214453
Br122	Br	1.033229	0.657970	0.285547
Br123	Br	0.147756	0.172337	0.100875
Br124	Br	0.647756	0.672337	0.600875
Br125	Br	0.164818	0.144784	-0.257131
Br126	Br	0.664818	0.644784	0.242869
Br127	Br	1.083451	-0.068418	0.520023
Br128	Br	1.583451	0.431582	1.020023
Br129	Br	0.802391	0.386952	0.146533
Br130	Br	1.302391	0.886952	0.646533
H131	H	1.058381	-0.245478	-0.014671
H132	H	1.558381	0.254522	0.485329
Br133	Br	1.075532	-0.488790	0.022430
Br134	Br	1.575532	0.011210	0.522430
Br135	Br	1.084252	-0.505975	-0.167183
Br136	Br	1.584252	-0.005975	0.332817
H137	H	0.859313	0.294795	0.558934
H138	H	1.359313	0.794795	1.058934
H139	H	0.930892	-0.447870	-0.201527
H140	H	1.430892	0.052130	0.298473
H141	H	1.045744	-0.007282	0.704883
H142	H	1.545744	0.492718	1.204883
H143	H	1.064025	-0.255211	-0.128831
H144	H	1.564025	0.244789	0.371169
Br145	Br	0.794014	-0.174829	-0.137868
Br146	Br	1.294014	0.325171	0.362132
Br147	Br	0.790481	-0.438923	-0.138771
Br148	Br	1.290481	0.061077	0.361229
Br149	Br	0.955614	-0.212977	-0.242220
Br150	Br	1.455614	0.287023	0.257780
Br151	Br	0.929128	-0.454077	0.115947
Br152	Br	1.429128	0.045923	0.615947
Br153	Br	0.787068	-0.159020	0.034399
Br154	Br	1.287068	0.340980	0.534399
Br155	Br	0.941465	-0.189559	0.113760
Br156	Br	1.441465	0.310441	0.613760
