data_functionalizedCrystal
_audit_creation_method	'MofGen! by Chris Wilmer'
_symmetry_space_group_name_H-M	'P1'
_symmetry_Int_Tables_number	1
_symmetry_cell_setting	triclinic
loop_
_symmetry_equiv_pos_as_xyz
  x,y,z
_cell_length_a	21.295419
_cell_length_b	21.295417
_cell_length_c	16.959447
_cell_angle_alpha	89.964725
_cell_angle_beta	89.981937
_cell_angle_gamma	90.045308
loop_
_atom_site_label
_atom_site_type_symbol
_atom_site_fract_x
_atom_site_fract_y
_atom_site_fract_z
Zn1	Zn	0.962315	-0.250348	-0.446906
Zn2	Zn	1.295649	0.082986	-0.113572
Zn3	Zn	1.628982	0.416319	0.219761
Zn4	Zn	0.962230	-0.355625	-0.314716
Zn5	Zn	1.295563	-0.022291	0.018617
Zn6	Zn	1.628896	0.311042	0.351951
Zn7	Zn	0.857050	-0.250400	-0.314741
Zn8	Zn	1.190384	0.082933	0.018593
Zn9	Zn	1.523717	0.416266	0.351926
Zn10	Zn	0.857008	-0.355610	-0.446852
Zn11	Zn	1.190341	-0.022277	-0.113519
Zn12	Zn	1.523675	0.311056	0.219815
O13	O	0.909651	-0.302996	-0.380804
O14	O	1.242984	0.030338	-0.047470
O15	O	1.576318	0.363671	0.285863
O16	O	1.050393	-0.264297	-0.429383
O17	O	1.383727	0.069036	-0.096049
O18	O	1.717060	0.402370	0.237284
O19	O	0.948259	-0.341694	-0.204108
O20	O	1.281593	-0.008361	0.129225
O21	O	1.614926	0.324972	0.462558
O22	O	0.871068	-0.162304	-0.332305
O23	O	1.204401	0.171029	0.001028
O24	O	1.537734	0.504363	0.334361
O25	O	1.050330	-0.341643	-0.332263
O26	O	1.383664	-0.008310	0.001070
O27	O	1.716997	0.325023	0.334403
O28	O	0.948405	-0.162265	-0.429407
O29	O	1.281739	0.171068	-0.096073
O30	O	1.615072	0.504401	0.237260
O31	O	0.870985	-0.264387	-0.204126
O32	O	1.204318	0.068947	0.129207
O33	O	1.537651	0.402280	0.462540
O34	O	0.768955	-0.264373	-0.332253
O35	O	1.102289	0.068961	0.001080
O36	O	1.435622	0.402294	0.334413
O37	O	0.870995	-0.341619	-0.557470
O38	O	1.204329	-0.008285	-0.224137
O39	O	1.537662	0.325048	0.109197
O40	O	0.768924	-0.341670	-0.429315
O41	O	1.102258	-0.008337	-0.095982
O42	O	1.435591	0.324997	0.237352
O43	O	0.948364	-0.264283	-0.557510
O44	O	1.281698	0.069050	-0.224176
O45	O	1.615031	0.402384	0.109157
O46	O	0.948218	-0.443712	-0.332211
O47	O	1.281551	-0.110379	0.001122
O48	O	1.614885	0.222955	0.334455
O49	O	0.870912	-0.443701	-0.429291
O50	O	1.204246	-0.110368	-0.095958
O51	O	1.537579	0.222965	0.237376
C52	C	0.746099	-0.303026	-0.380781
C53	C	1.079433	0.030307	-0.047448
C54	C	1.412766	0.363641	0.285885
C55	C	0.676131	-0.303054	-0.380791
C56	C	1.009464	0.030279	-0.047457
C57	C	1.342798	0.363613	0.285876
C58	C	0.909568	-0.466547	-0.380760
C59	C	1.242902	-0.133214	-0.047426
C60	C	1.576235	0.200119	0.285907
C61	C	0.909591	-0.536515	-0.380768
C62	C	1.242924	-0.203182	-0.047434
C63	C	1.576257	0.130151	0.285899
C64	C	0.643320	-0.262845	-0.431439
C65	C	0.976653	0.070488	-0.098105
C66	C	1.309986	0.403821	0.235228
C67	C	0.577577	-0.262829	-0.431442
C68	C	0.910911	0.070505	-0.098109
C69	C	1.244244	0.403838	0.235225
C70	C	0.544649	-0.303031	-0.380805
C71	C	0.877982	0.030302	-0.047472
C72	C	1.211315	0.363635	0.285862
C73	C	0.577468	-0.343243	-0.330147
C74	C	0.910801	-0.009909	0.003186
C75	C	1.244135	0.323424	0.336520
C76	C	0.643209	-0.343254	-0.330140
C77	C	0.976543	-0.009921	0.003193
C78	C	1.309876	0.323413	0.336527
N79	N	0.441374	-0.358110	-0.374628
N80	N	0.774707	-0.024777	-0.041294
N81	N	1.108040	0.308557	0.292039
N82	N	0.378922	-0.358097	-0.374639
N83	N	0.712256	-0.024764	-0.041306
N84	N	1.045589	0.308569	0.292028
C85	C	0.346574	-0.302999	-0.380823
C86	C	0.679907	0.030334	-0.047489
C87	C	1.013241	0.363668	0.285844
N88	N	0.379036	-0.247912	-0.387010
N89	N	0.712370	0.085421	-0.053676
N90	N	1.045703	0.418755	0.279657
N91	N	0.441493	-0.247925	-0.387002
N92	N	0.774827	0.085408	-0.053669
N93	N	1.108160	0.418741	0.279664
C94	C	0.473363	-0.303023	-0.380807
C95	C	0.806697	0.030310	-0.047474
C96	C	1.140030	0.363643	0.285860
C97	C	0.242477	-0.262769	-0.431477
C98	C	0.575810	0.070565	-0.098143
C99	C	0.909144	0.403898	0.235190
C100	C	0.176733	-0.262751	-0.431474
C101	C	0.510067	0.070583	-0.098141
C102	C	0.843400	0.403916	0.235192
C103	C	0.176625	-0.343170	-0.330184
C104	C	0.509959	-0.009837	0.003150
C105	C	0.843292	0.323496	0.336483
C106	C	0.242368	-0.343183	-0.330182
C107	C	0.575701	-0.009849	0.003151
C108	C	0.909034	0.323484	0.336485
C109	C	0.275290	-0.302983	-0.380833
C110	C	0.608623	0.030351	-0.047499
C111	C	0.941956	0.363684	0.285834
C112	C	0.949880	-0.569367	-0.330270
C113	C	1.283213	-0.236033	0.003063
C114	C	1.616546	0.097300	0.336397
C115	C	0.949909	-0.635109	-0.330288
C116	C	1.283242	-0.301776	0.003046
C117	C	1.616576	0.031557	0.336379
C118	C	0.909638	-0.667998	-0.380795
C119	C	1.242972	-0.334665	-0.047461
C120	C	1.576305	-0.001331	0.285872
C121	C	0.869347	-0.635139	-0.431302
C122	C	1.202680	-0.301805	-0.097969
C123	C	1.536013	0.031528	0.235364
C124	C	0.869323	-0.569398	-0.431289
C125	C	1.202656	-0.236064	-0.097955
C126	C	1.535989	0.097269	0.235378
N127	N	0.854571	-0.771278	-0.386813
N128	N	1.187904	-0.437944	-0.053480
N129	N	1.521237	-0.104611	0.279854
N130	N	0.854595	-0.833729	-0.386821
N131	N	1.187929	-0.500396	-0.053488
N132	N	1.521262	-0.167062	0.279845
C133	C	0.909709	-0.866073	-0.380840
C134	C	1.243042	-0.532739	-0.047507
C135	C	1.576376	-0.199406	0.285827
N136	N	0.964798	-0.833605	-0.374835
N137	N	1.298132	-0.500272	-0.041501
N138	N	1.631465	-0.166939	0.291832
N139	N	0.964773	-0.771148	-0.374822
N140	N	1.298106	-0.437815	-0.041489
N141	N	1.631440	-0.104482	0.291845
C142	C	0.909660	-0.739283	-0.380816
C143	C	1.242993	-0.405950	-0.047482
C144	C	1.576327	-0.072617	0.285851
C145	C	0.950033	-0.970209	-0.330359
C146	C	1.283367	-0.636876	0.002974
C147	C	1.616700	-0.303543	0.336308
C148	C	0.950064	-1.035953	-0.330382
C149	C	1.283397	-0.702620	0.002951
C150	C	1.616730	-0.369286	0.336284
C151	C	0.869496	-1.035981	-0.431393
C152	C	1.202829	-0.702648	-0.098059
C153	C	1.536162	-0.369315	0.235274
C154	C	0.869471	-0.970239	-0.431374
C155	C	1.202804	-0.636906	-0.098040
C156	C	1.536137	-0.303572	0.235293
C157	C	0.909739	-0.937357	-0.380853
C158	C	1.243072	-0.604024	-0.047519
C159	C	1.576405	-0.270690	0.285814
C160	C	1.073841	-0.302966	-0.380826
C161	C	1.407174	0.030367	-0.047493
C162	C	1.740508	0.363701	0.285840
C163	C	1.143809	-0.302953	-0.380836
C164	C	1.477143	0.030380	-0.047503
C165	C	1.810476	0.363714	0.285831
C166	C	0.909685	-0.302943	-0.586972
C167	C	1.243018	0.030390	-0.253639
C168	C	1.576351	0.363723	0.079695
C169	C	0.909699	-0.302921	-0.674829
C170	C	1.243032	0.030412	-0.341495
C171	C	1.576366	0.363746	-0.008162
C172	C	0.909751	-0.138805	-0.380865
C173	C	1.243084	0.194528	-0.047531
C174	C	1.576418	0.527861	0.285802
C175	C	0.909793	-0.068837	-0.380891
C176	C	1.243127	0.264496	-0.047558
C177	C	1.576460	0.597829	0.285776
C178	C	0.869521	-0.262604	-1.046320
C179	C	1.202854	0.070729	-0.712987
C180	C	1.536188	0.404063	-0.379653
C181	C	0.949988	-0.343105	-1.046289
C182	C	1.283321	-0.009772	-0.712955
C183	C	1.616654	0.323561	-0.379622
C184	C	0.949977	-0.343120	-0.963743
C185	C	1.283310	-0.009787	-0.630409
C186	C	1.616644	0.323547	-0.297076
C187	C	0.909737	-0.302877	-0.922482
C188	C	1.243070	0.030457	-0.589148
C189	C	1.576403	0.363790	-0.255815
C190	C	0.869508	-0.262619	-0.963766
C191	C	1.202841	0.070714	-0.630433
C192	C	1.536174	0.404048	-0.297100
C193	C	0.990201	-0.383382	-0.922452
C194	C	1.323534	-0.050048	-0.589118
C195	C	1.656867	0.283285	-0.255785
C196	C	0.990191	-0.383399	-0.839901
C197	C	1.323524	-0.050065	-0.506567
C198	C	1.656858	0.283268	-0.173234
C199	C	0.949954	-0.343152	-0.798638
C200	C	1.283287	-0.009818	-0.465305
C201	C	1.616620	0.323515	-0.131971
C202	C	0.909723	-0.302892	-0.839928
C203	C	1.243057	0.030442	-0.506595
C204	C	1.576390	0.363775	-0.173261
C205	C	0.869483	-0.262648	-0.798667
C206	C	1.202817	0.070685	-0.465334
C207	C	1.536150	0.404018	-0.132000
C208	C	0.829256	-0.222385	-0.839955
C209	C	1.162589	0.110949	-0.506622
C210	C	1.495922	0.444282	-0.173289
C211	C	0.829270	-0.222372	-0.922504
C212	C	1.162603	0.110961	-0.589171
C213	C	1.495937	0.444295	-0.255837
C214	C	0.949939	-0.343164	-0.716090
C215	C	1.283272	-0.009831	-0.382756
C216	C	1.616606	0.323502	-0.049423
C217	C	0.869470	-0.262663	-0.716113
C218	C	1.202803	0.070670	-0.382780
C219	C	1.536136	0.404004	-0.049447
C220	C	0.909653	-0.303002	-0.175437
C221	C	1.242987	0.030331	0.157896
C222	C	1.576320	0.363664	0.491229
C223	C	0.909761	-0.302847	-0.087581
C224	C	1.243094	0.030486	0.245752
C225	C	1.576428	0.363819	0.579086
H226	H	0.550857	-0.230083	-0.472684
H227	H	0.884190	0.103250	-0.139351
H228	H	1.217524	0.436584	0.193982
H229	H	0.269283	-0.230031	-0.472715
H230	H	0.602617	0.103302	-0.139381
H231	H	0.935950	0.436635	0.193952
O232	O	0.993383	-0.386514	-1.090788
O233	O	1.326716	-0.053180	-0.757454
O234	O	1.660050	0.280153	-0.424121
H235	H	1.042793	-0.375715	-1.074955
H236	H	1.376126	-0.042382	-0.741622
H237	H	1.709459	0.290951	-0.408289
O238	O	0.541958	-0.386606	-0.275529
O239	O	0.875291	-0.053273	0.057804
O240	O	1.208625	0.280061	0.391137
H241	H	0.490731	-0.379848	-0.284048
H242	H	0.824064	-0.046514	0.049285
H243	H	1.157398	0.286819	0.382618
O244	O	0.678602	-0.386623	-0.275507
O245	O	1.011935	-0.053290	0.057826
O246	O	1.345268	0.280043	0.391160
H247	H	0.708537	-0.418689	-0.310805
H248	H	1.041870	-0.085356	0.022529
H249	H	1.375203	0.247978	0.355862
O250	O	1.033597	-0.426787	-0.966955
O251	O	1.366930	-0.093454	-0.633621
O252	O	1.700263	0.239880	-0.300288
H253	H	1.083006	-0.415991	-0.951118
H254	H	1.416339	-0.082658	-0.617784
H255	H	1.749673	0.250676	-0.284451
O256	O	0.785882	-0.178946	-0.967029
O257	O	1.119215	0.154387	-0.633695
O258	O	1.452549	0.487720	-0.300362
H259	H	0.796715	-0.129544	-0.951211
H260	H	1.130048	0.203789	-0.617878
H261	H	1.463382	0.537123	-0.284544
H262	H	0.150019	-0.230004	-0.472717
H263	H	0.483353	0.103329	-0.139383
H264	H	0.816686	0.436662	0.193950
H265	H	0.670121	-0.230111	-0.472682
H266	H	1.003454	0.103222	-0.139349
H267	H	1.336787	0.436556	0.193985
O268	O	0.826135	-0.219174	-1.090842
O269	O	1.159468	0.114159	-0.757508
O270	O	1.492801	0.447492	-0.424175
H271	H	0.836969	-0.169774	-1.075016
H272	H	1.170302	0.163559	-0.741682
H273	H	1.503636	0.496893	-0.408349
O274	O	1.033588	-0.426810	-0.795369
O275	O	1.366922	-0.093477	-0.462035
O276	O	1.700255	0.239856	-0.128702
H277	H	1.061577	-0.454785	-0.837930
H278	H	1.394910	-0.121452	-0.504596
H279	H	1.728244	0.211882	-0.171263
H280	H	0.982696	-0.375942	-0.682476
H281	H	1.316029	-0.042609	-0.349143
H282	H	1.649363	0.290725	-0.015810
H283	H	0.796489	-0.189621	-0.806350
H284	H	1.129823	0.143712	-0.473017
H285	H	1.463156	0.477045	-0.139683
H286	H	0.149815	-0.375904	-0.288954
H287	H	0.483149	-0.042571	0.044379
H288	H	0.816482	0.290762	0.377713
O289	O	0.277764	-0.386553	-0.275557
O290	O	0.611097	-0.053220	0.057776
O291	O	0.944431	0.280114	0.391109
H292	H	0.243824	-0.414509	-0.240348
H293	H	0.577157	-0.081176	0.092985
H294	H	0.910491	0.252158	0.426318
H295	H	0.982719	-0.661862	-0.289167
H296	H	1.316053	-0.328529	0.044167
H297	H	1.649386	0.004805	0.377500
H298	H	0.982670	-0.542596	-0.289135
H299	H	1.316003	-0.209263	0.044199
H300	H	1.649336	0.124071	0.377532
H301	H	0.836559	-0.661921	-0.472427
H302	H	1.169892	-0.328588	-0.139093
H303	H	1.503226	0.004746	0.194240
H304	H	0.836514	-0.542649	-0.472411
H305	H	1.169847	-0.209316	-0.139077
H306	H	1.503181	0.124017	0.194256
H307	H	0.982824	-0.943436	-0.289224
H308	H	1.316157	-0.610102	0.044109
H309	H	1.649491	-0.276769	0.377443
H310	H	0.982876	-1.062699	-0.289263
H311	H	1.316209	-0.729366	0.044071
H312	H	1.649543	-0.396033	0.377404
H313	H	0.836704	-0.229889	-0.682524
H314	H	1.170037	0.103445	-0.349191
H315	H	1.503370	0.436778	-0.015858
O316	O	0.826056	-1.071443	-0.485868
O317	O	1.159389	-0.738110	-0.152534
O318	O	1.492723	-0.404777	0.180799
H319	H	0.832837	-1.122677	-0.477391
H320	H	1.166170	-0.789344	-0.144057
H321	H	1.499504	-0.456011	0.189276
H322	H	0.836661	-0.943490	-0.472490
H323	H	1.169994	-0.610156	-0.139157
H324	H	1.503328	-0.276823	0.194176
