data_functionalizedCrystal
_audit_creation_method	'MofGen! by Chris Wilmer'
_symmetry_space_group_name_H-M	'P1'
_symmetry_Int_Tables_number	1
_symmetry_cell_setting	triclinic
loop_
_symmetry_equiv_pos_as_xyz
  x,y,z
_cell_length_a	12.759401
_cell_length_b	19.805405
_cell_length_c	12.759393
_cell_angle_alpha	89.965008
_cell_angle_beta	89.981425
_cell_angle_gamma	90.027152
loop_
_atom_site_label
_atom_site_type_symbol
_atom_site_fract_x
_atom_site_fract_y
_atom_site_fract_z
Zn1	Zn	1.606167	-0.269415	-0.593960
Zn2	Zn	1.606025	-0.382620	-0.418270
Zn3	Zn	1.430469	-0.269451	-0.418299
Zn4	Zn	1.430421	-0.382568	-0.593911
O5	O	1.518271	-0.326014	-0.506110
O6	O	1.753169	-0.284439	-0.570663
O7	O	1.582698	-0.367645	-0.271253
O8	O	1.453856	-0.174730	-0.441634
O9	O	1.753065	-0.367610	-0.441584
O10	O	1.582940	-0.174703	-0.570691
O11	O	1.453718	-0.284500	-0.271274
O12	O	1.283442	-0.284450	-0.441586
O13	O	1.453773	-0.367522	-0.740939
O14	O	1.283406	-0.367557	-0.570607
O15	O	1.582893	-0.284389	-0.740975
O16	O	1.582651	-0.477330	-0.441536
O17	O	1.453635	-0.477292	-0.570579
C18	C	1.245303	-0.326002	-0.506095
C19	C	1.128527	-0.326013	-0.506114
C20	C	1.073720	-0.282784	-0.573429
C21	C	0.963996	-0.282791	-0.573436
C22	C	0.963895	-0.369262	-0.438810
C23	C	1.073617	-0.369251	-0.438798
C24	C	1.518151	-0.501870	-0.506072
C25	C	1.518196	-0.577102	-0.506091
C26	C	1.585370	-0.612374	-0.573344
C27	C	1.585408	-0.683062	-0.573363
C28	C	1.518276	-0.718477	-0.506124
C29	C	1.451094	-0.683200	-0.438868
C30	C	1.451052	-0.612513	-0.438855
C31	C	1.451263	-0.968274	-0.438922
C32	C	1.451313	-1.038966	-0.438938
C33	C	1.585619	-1.038823	-0.573431
C34	C	1.585577	-0.968136	-0.573417
C35	C	1.518392	-0.932865	-0.506166
C36	C	1.518350	-0.856216	-0.506147
C37	C	1.518322	-0.795124	-0.506137
C38	C	1.792304	-0.326026	-0.506126
C39	C	1.909080	-0.326031	-0.506132
C40	C	1.518344	-0.325945	-0.780143
C41	C	1.518375	-0.325916	-0.896920
C42	C	1.518419	-0.149471	-0.506171
C43	C	1.518483	-0.074239	-0.506197
C44	C	1.451239	-0.282615	-0.951793
C45	C	1.451264	-0.282594	-1.061517
C46	C	1.585569	-0.369178	-1.061486
C47	C	1.585538	-0.369201	-0.951764
C48	C	1.518258	-0.326033	-0.233143
C49	C	1.518430	-0.325872	-0.116367
H50	H	0.919174	-0.404465	-0.384005
O51	O	1.126701	-0.411311	-0.373372
C52	C	1.115032	-0.497050	-0.239797
C53	C	1.054784	-0.449469	-0.313854
H54	H	1.056913	-0.527903	-0.191642
H55	H	1.166377	-0.532518	-0.287877
H56	H	1.166420	-0.465914	-0.184990
H57	H	1.003338	-0.480551	-0.368675
H58	H	1.003505	-0.414000	-0.265708
H59	H	1.396551	-0.247369	-0.907142
O60	O	1.650660	-0.411245	-0.898291
C61	C	1.710169	-0.449624	-0.729240
C62	C	1.636358	-0.401987	-0.789667
H63	H	1.698648	-0.442145	-0.641406
H64	H	1.691675	-0.504210	-0.750709
H65	H	1.794892	-0.437747	-0.750880
H66	H	1.551611	-0.413803	-0.768059
H67	H	1.654943	-0.347415	-0.768192
O68	O	1.385933	-0.240628	-1.114863
C69	C	1.244154	-0.231490	-1.238769
C70	C	1.318069	-0.279093	-1.178406
H71	H	1.189283	-0.262568	-1.290175
H72	H	1.196072	-0.200574	-1.180763
H73	H	1.292448	-0.196075	-1.290116
H74	H	1.269856	-0.314548	-1.127058
H75	H	1.366154	-0.309961	-1.236469
O76	O	1.650779	-0.411156	-1.114926
C77	C	1.710306	-0.449521	-1.283944
C78	C	1.636417	-0.401936	-1.223559
H79	H	1.698704	-0.442094	-1.371784
H80	H	1.795050	-0.437645	-1.262458
H81	H	1.691812	-0.504095	-1.262284
H82	H	1.654816	-0.347347	-1.245186
H83	H	1.551695	-0.413870	-1.245051
O84	O	1.127174	-0.240748	-0.638664
C85	C	1.251052	-0.149334	-0.653039
C86	C	1.190605	-0.196911	-0.579043
H87	H	1.302334	-0.113871	-0.604863
H88	H	1.302499	-0.180407	-0.707869
H89	H	1.193007	-0.118469	-0.701173
H90	H	1.248575	-0.227786	-0.530841
H91	H	1.139142	-0.165800	-0.524282
H92	H	1.396430	-0.712041	-0.384125
O93	O	1.650615	-0.578079	-0.638763
C94	C	1.783870	-0.585407	-0.772134
C95	C	1.710021	-0.624326	-0.698111
H96	H	1.831935	-0.622780	-0.820121
H97	H	1.735632	-0.552334	-0.827091
H98	H	1.838770	-0.552285	-0.723929
H99	H	1.655106	-0.657484	-0.746232
H100	H	1.758325	-0.657357	-0.643152
H101	H	0.919377	-0.247589	-0.628249
H102	H	1.640322	-1.067549	-0.628193
H103	H	1.396560	-0.939562	-0.384162
H104	H	1.640117	-0.711778	-0.628119
H105	H	1.396641	-1.067799	-0.384182
O106	O	1.650822	-0.933839	-0.638833
C107	C	1.784084	-0.941159	-0.772200
C108	C	1.710233	-0.980083	-0.698183
H109	H	1.832152	-0.978531	-0.820187
H110	H	1.735846	-0.908085	-0.827155
H111	H	1.838980	-0.908038	-0.723990
H112	H	1.655322	-1.013240	-0.746308
H113	H	1.758536	-1.013114	-0.643224
H114	H	1.396350	-0.583795	-0.384092
