data_functionalizedCrystal
_audit_creation_method	'MofGen! by Chris Wilmer'
_symmetry_space_group_name_H-M	'P1'
_symmetry_Int_Tables_number	1
_symmetry_cell_setting	triclinic
loop_
_symmetry_equiv_pos_as_xyz
  x,y,z
_cell_length_a	19.805407
_cell_length_b	14.908520
_cell_length_c	19.805399
_cell_angle_alpha	86.729391
_cell_angle_beta	90.019573
_cell_angle_gamma	93.320773
loop_
_atom_site_label
_atom_site_type_symbol
_atom_site_fract_x
_atom_site_fract_y
_atom_site_fract_z
Zn1	Zn	1.019204	-0.359181	0.398269
Zn2	Zn	1.012594	-0.510047	0.291612
Zn3	Zn	0.906017	-0.359206	0.285095
Zn4	Zn	0.899460	-0.509999	0.404757
O5	O	0.959319	-0.434608	0.344934
O6	O	1.113043	-0.379203	0.384134
O7	O	0.998435	-0.490068	0.196033
O8	O	0.926542	-0.232958	0.294665
O9	O	1.108187	-0.490044	0.305773
O10	O	1.009699	-0.232939	0.377814
O11	O	0.920133	-0.379246	0.191244
O12	O	0.810431	-0.379199	0.300956
O13	O	0.915366	-0.489962	0.498612
O14	O	0.805614	-0.489986	0.388871
O15	O	1.003341	-0.379157	0.493845
O16	O	0.992077	-0.636286	0.312064
O17	O	0.908957	-0.636250	0.395191
C18	C	0.783463	-0.434591	0.344911
C19	C	0.708231	-0.434605	0.344918
C20	C	0.670392	-0.492379	0.390629
C21	C	0.599704	-0.492380	0.390639
C22	C	0.566855	-0.434612	0.344934
C23	C	0.604699	-0.376832	0.299220
C24	C	0.675386	-0.376827	0.299214
C25	C	0.319625	-0.376852	0.299244
C26	C	0.248932	-0.376864	0.299252
C27	C	0.243942	-0.492406	0.390668
C28	C	0.314629	-0.492400	0.390662
C29	C	0.352467	-0.434618	0.344952
C30	C	0.429116	-0.434615	0.344943
C31	C	0.490208	-0.434618	0.344939
C32	C	0.949107	-0.669002	0.355053
C33	C	0.944800	-0.769277	0.359405
C34	C	1.023348	-0.957679	0.281093
C35	C	1.019304	-1.051896	0.285180
C36	C	0.932671	-1.051929	0.371669
C37	C	0.936715	-0.957712	0.367582
C38	C	0.982055	-0.910590	0.322292
C39	C	0.986095	-0.816372	0.318202
C40	C	0.899466	-0.816407	0.404694
C41	C	0.895421	-0.910624	0.408781
C42	C	1.135861	-0.434626	0.344957
C43	C	1.211092	-0.434634	0.344967
C44	C	0.959359	-0.434551	0.521474
C45	C	0.959376	-0.434527	0.596705
C46	C	0.969589	-0.199299	0.334789
C47	C	0.973966	-0.099024	0.330466
C48	C	0.959320	-0.434600	0.169077
C49	C	0.959445	-0.434370	0.093836
C50	C	1.005186	-0.376828	0.629568
C51	C	1.005194	-0.376802	0.700255
C52	C	0.959395	-0.434480	0.738078
C53	C	0.913581	-0.492182	0.705210
C54	C	0.913570	-0.492203	0.634524
C55	C	0.913622	-0.492098	0.990280
C56	C	0.913638	-0.492074	1.060971
C57	C	1.005247	-0.376697	1.056011
C58	C	1.005236	-0.376718	0.985325
C59	C	0.959419	-0.434416	0.952463
C60	C	0.959410	-0.434442	0.875816
C61	C	0.959407	-0.434459	0.814725
H62	H	0.706194	-0.329777	0.261995
H63	H	0.876260	-0.539178	0.607768
H64	H	1.023011	-0.778006	0.281323
O65	O	1.049669	-0.320626	0.732094
C66	C	1.038789	-0.230716	0.710946
H67	H	1.012840	-0.228868	0.659539
H68	H	1.089404	-0.190272	0.706787
H69	H	1.005327	-0.200305	0.749411
O70	O	0.869170	-0.548228	1.097643
C71	C	0.880039	-0.638153	1.084261
H72	H	0.905965	-0.640044	1.033022
H73	H	0.829421	-0.678595	1.083579
H74	H	0.913517	-0.668535	1.125359
H75	H	1.060261	-0.919312	0.244211
H76	H	0.858509	-0.949003	0.445657
O77	O	1.059442	-1.097499	0.245088
C78	C	1.100338	-1.035700	0.204253
H79	H	1.075497	-0.968573	0.198970
H80	H	1.106424	-1.062955	0.152114
H81	H	1.152160	-1.025600	0.228653
H82	H	1.042483	-0.329862	0.598777
H83	H	0.697132	-0.539423	0.427846
H84	H	0.568898	-0.539426	0.427861
O85	O	1.049684	-0.320668	1.088040
C86	C	1.039886	-0.333025	1.158541
H87	H	0.986363	-0.362560	1.169460
H88	H	1.047432	-0.265439	1.182490
H89	H	1.077939	-0.381065	1.180681
O90	O	0.869155	-0.548180	0.742053
C91	C	0.878975	-0.535776	0.811489
H92	H	0.932502	-0.506235	0.819881
H93	H	0.871437	-0.603343	0.841265
H94	H	0.840929	-0.487722	0.829470
H95	H	0.222189	-0.329817	0.262033
O96	O	0.888648	-1.097851	0.415603
C97	C	0.893951	-1.191106	0.410388
H98	H	0.915602	-1.203985	0.358734
H99	H	0.841712	-1.226977	0.416483
H100	H	0.928826	-1.217764	0.451728
H101	H	0.865840	-0.778057	0.438239
O102	O	0.356271	-0.320695	0.254778
C103	C	0.312118	-0.269696	0.214452
H104	H	0.260123	-0.306656	0.213659
H105	H	0.332943	-0.259967	0.160714
H106	H	0.307585	-0.201228	0.236372
H107	H	1.042533	-0.329753	0.954533
O108	O	0.207260	-0.548483	0.435172
C109	C	0.225408	-0.528868	0.501807
H110	H	0.278243	-0.494189	0.501747
H111	H	0.225001	-0.594029	0.534891
H112	H	0.187655	-0.482526	0.522665
H113	H	0.577948	-0.329793	0.262009
H114	H	0.876325	-0.539092	0.963533
H115	H	0.341371	-0.539444	0.427878
