data_functionalizedCrystal
_audit_creation_method	'MofGen! by Chris Wilmer'
_symmetry_space_group_name_H-M	'P1'
_symmetry_Int_Tables_number	1
_symmetry_cell_setting	triclinic
loop_
_symmetry_equiv_pos_as_xyz
  x,y,z
_cell_length_a	16.109301
_cell_length_b	10.268362
_cell_length_c	16.109301
_cell_angle_alpha	90.002770
_cell_angle_beta	83.461481
_cell_angle_gamma	90.001892
loop_
_atom_site_label
_atom_site_type_symbol
_atom_site_fract_x
_atom_site_fract_y
_atom_site_fract_z
O1	O	1.103132	0.108222	0.106863
O2	O	0.861071	0.108243	0.120162
O3	O	0.988751	0.108219	-0.007518
O4	O	0.975452	0.108247	0.234544
O5	O	0.988739	-0.108382	-0.007514
O6	O	0.861058	-0.108357	0.120167
O7	O	1.103120	-0.108379	0.106867
Cu8	Cu	0.982088	-0.128145	0.113517
Cu9	Cu	0.982103	0.128010	0.113512
O10	O	0.975440	-0.108354	0.234548
C11	C	0.830090	-0.000054	0.119626
C12	C	0.737794	-0.000047	0.118011
C13	C	0.515522	-0.000054	0.190018
C14	C	0.428801	-0.000062	0.188494
C15	C	0.448676	-0.000074	0.037006
C16	C	0.535394	-0.000075	0.038530
C17	C	0.568815	-0.000058	0.115039
C18	C	0.395376	-0.000066	0.111990
C19	C	0.301350	-0.000075	0.110337
C20	C	0.662847	-0.000051	0.116693
N21	N	0.982084	-0.308311	0.113521
C22	C	0.982090	-0.426154	0.113521
C23	C	0.982101	-0.573991	0.113513
C24	C	1.134101	-0.000078	0.107404
C25	C	1.226397	-0.000077	0.109019
C26	C	0.988206	-0.000082	-0.038491
C27	C	0.986591	-0.000084	-0.130786
N28	N	0.982113	0.308176	0.113502
C29	C	1.058599	-0.000070	-0.353059
C30	C	1.057075	-0.000059	-0.439779
C31	C	0.905586	-0.000050	-0.419905
C32	C	0.907111	-0.000052	-0.333186
C33	C	0.983620	-0.000068	-0.299766
C34	C	0.980571	-0.000056	-0.473205
C35	C	0.978918	-0.000044	-0.567231
C36	C	0.985273	-0.000077	-0.205734
C37	C	0.975984	-0.000050	0.265521
C38	C	0.977600	-0.000040	0.357816
H39	H	0.385413	-0.000061	0.249550
H40	H	0.846050	-0.000047	-0.289792
C41	C	0.579048	0.111271	-0.090123
C42	C	0.593983	-0.000074	-0.043892
H43	H	0.615223	0.111270	-0.141002
H44	H	0.522627	0.111262	-0.101982
H45	H	0.589181	0.186797	-0.058742
H46	H	0.583844	-0.075600	-0.075272
H47	H	0.650418	-0.000077	-0.032035
C48	C	1.208185	-0.000052	-0.381417
C49	C	1.142696	-0.000064	-0.316322
H50	H	1.260103	-0.000036	-0.358737
H51	H	1.204442	-0.075583	-0.414826
H52	H	1.204429	0.075485	-0.414826
H53	H	1.146448	-0.075606	-0.282916
H54	H	1.146441	0.075475	-0.282899
H55	H	1.118130	-0.000057	-0.483168
H56	H	0.843295	-0.000040	-0.447127
C57	C	0.324566	-0.000065	-0.032597
C58	C	0.411936	-0.000075	-0.047090
H59	H	0.301888	-0.000055	-0.084517
H60	H	0.306273	-0.075592	-0.001733
H61	H	0.306283	0.075475	-0.001723
H62	H	0.430219	-0.075621	-0.077959
H63	H	0.430237	0.075460	-0.077967
H64	H	0.542730	-0.000050	0.252317
