data_functionalizedCrystal
_audit_creation_method	'MofGen! by Chris Wilmer'
_symmetry_space_group_name_H-M	'P1'
_symmetry_Int_Tables_number	1
_symmetry_cell_setting	triclinic
loop_
_symmetry_equiv_pos_as_xyz
  x,y,z
_cell_length_a	12.759401
_cell_length_b	16.120444
_cell_length_c	12.759393
_cell_angle_alpha	87.136376
_cell_angle_beta	90.018567
_cell_angle_gamma	92.925484
loop_
_atom_site_label
_atom_site_type_symbol
_atom_site_fract_x
_atom_site_fract_y
_atom_site_fract_z
Zn1	Zn	1.584963	-0.331879	0.615155
Zn2	Zn	1.575911	-0.471317	0.448370
Zn3	Zn	1.409262	-0.331920	0.439496
Zn4	Zn	1.400311	-0.471250	0.624007
O5	O	1.492612	-0.401591	0.531757
O6	O	1.730782	-0.350387	0.593039
O7	O	1.553762	-0.452871	0.300175
O8	O	1.440103	-0.215249	0.455380
O9	O	1.724132	-0.452831	0.470503
O10	O	1.569190	-0.215219	0.584435
O11	O	1.431326	-0.350456	0.293655
O12	O	1.261054	-0.350391	0.463963
O13	O	1.424848	-0.452717	0.769851
O14	O	1.254478	-0.452757	0.599522
O15	O	1.560511	-0.350322	0.763347
O16	O	1.545083	-0.587974	0.479087
O17	O	1.416071	-0.587925	0.608126
C18	C	1.219646	-0.401572	0.531741
C19	C	1.102868	-0.401584	0.531761
C20	C	1.051456	-0.348341	0.595676
C21	C	0.941731	-0.348357	0.595683
C22	C	0.934840	-0.454865	0.467858
C23	C	1.044563	-0.454844	0.467846
C24	C	1.109761	-0.295081	0.659590
C25	C	1.058348	-0.241835	0.723512
C26	C	0.948623	-0.241851	0.723519
C27	C	0.890310	-0.295113	0.659606
C28	C	1.478652	-0.618199	0.545553
C29	C	1.472776	-0.710865	0.551490
C30	C	1.523350	-0.921811	0.501184
C31	C	1.462068	-0.880521	0.562341
C32	C	1.468028	-0.786116	0.556302
C33	C	1.517392	-1.016225	0.507222
C34	C	1.766644	-0.401612	0.531774
C35	C	1.883420	-0.401620	0.531781
C36	C	1.492691	-0.401507	0.805785
C37	C	1.492724	-0.401472	0.922560
C38	C	1.506654	-0.184138	0.517930
C39	C	1.512639	-0.091472	0.512038
C40	C	1.492597	-0.401615	0.258791
C41	C	1.492782	-0.401416	0.142002
C42	C	1.563373	-0.348149	0.974036
C43	C	1.563400	-0.348119	1.083759
C44	C	1.422126	-0.454741	1.090518
C45	C	1.422095	-0.454766	0.980797
C46	C	1.634003	-0.294854	0.915799
C47	C	1.704659	-0.241528	0.967276
C48	C	1.704686	-0.241498	1.076998
C49	C	1.634057	-0.294794	1.135243
H50	H	1.199105	-0.295062	0.659591
H51	H	1.762155	-0.198132	0.919845
O52	O	0.878145	-0.506694	0.405940
C53	C	0.811228	-0.560594	0.469087
H54	H	0.843998	-0.565813	0.552151
H55	H	0.805850	-0.624719	0.435043
H56	H	0.729726	-0.534836	0.471131
O57	O	1.591359	-0.879535	0.433277
C58	C	1.647148	-0.936513	0.377569
H59	H	1.646940	-0.998582	0.424496
H60	H	1.731492	-0.911211	0.364830
H61	H	1.608128	-0.945820	0.298334
O62	O	1.634085	-0.294751	0.809208
C63	C	1.711590	-0.236295	0.768842
H64	H	1.729471	-0.187570	0.828977
H65	H	1.681917	-0.204676	0.693424
H66	H	1.786054	-0.269370	0.751483
O67	O	1.773413	-0.189671	1.126840
C68	C	1.835722	-0.142625	1.051904
H69	H	1.837130	-0.176795	0.975861
H70	H	1.919083	-0.133734	1.083047
H71	H	1.801340	-0.079306	1.036210
O72	O	1.353366	-0.506453	0.930742
C73	C	1.288566	-0.459007	0.864237
H74	H	1.286323	-0.393334	0.893125
H75	H	1.205767	-0.489158	0.864910
H76	H	1.321207	-0.456163	0.780900
O77	O	1.634253	-0.294687	1.241823
C78	C	1.711735	-0.236177	1.274771
H79	H	1.773853	-0.224520	1.210804
H80	H	1.750000	-0.261322	1.349773
H81	H	1.674009	-0.175379	1.290381
H82	H	1.364623	-0.498131	1.137950
H83	H	0.906766	-0.198489	0.775559
O84	O	1.115145	-0.190175	0.785562
C85	C	1.223016	-0.201562	0.771833
H86	H	1.233860	-0.265866	0.741385
H87	H	1.265104	-0.195975	0.850183
H88	H	1.257311	-0.152053	0.712833
H89	H	0.800966	-0.295104	0.659593
H90	H	1.086424	-0.498199	0.415801
O91	O	1.394242	-0.922888	0.630359
C92	C	1.418435	-0.901586	0.733758
H93	H	1.503854	-0.877520	0.737637
H94	H	1.405801	-0.958873	0.789245
H95	H	1.365213	-0.851144	0.758001
