data_functionalizedCrystal
_audit_creation_method	'MofGen! by Chris Wilmer'
_symmetry_space_group_name_H-M	'P1'
_symmetry_Int_Tables_number	1
_symmetry_cell_setting	triclinic
loop_
_symmetry_equiv_pos_as_xyz
  x,y,z
_cell_length_a	10.723024
_cell_length_b	12.784905
_cell_length_c	9.798715
_cell_angle_alpha	89.998003
_cell_angle_beta	89.996609
_cell_angle_gamma	78.787594
loop_
_atom_site_label
_atom_site_type_symbol
_atom_site_fract_x
_atom_site_fract_y
_atom_site_fract_z
O1	O	1.639527	0.148957	-0.113477
O2	O	2.139527	0.648957	0.386523
O3	O	1.274684	0.163215	-0.113482
O4	O	1.774684	0.663215	0.386518
O5	O	1.483804	0.001553	-0.113475
O6	O	1.983804	0.501553	0.386525
O7	O	1.430407	0.310619	-0.113484
O8	O	1.930407	0.810619	0.386516
O9	O	1.483789	0.001553	0.113507
O10	O	1.983789	0.501553	0.613507
O11	O	1.274670	0.163215	0.113501
O12	O	1.774670	0.663215	0.613501
O13	O	1.639513	0.148956	0.113505
O14	O	2.139513	0.648956	0.613505
Zn15	Zn	1.457089	0.156085	0.149541
Zn16	Zn	1.957089	0.656085	0.649541
Zn17	Zn	1.457108	0.156086	-0.149518
Zn18	Zn	1.957108	0.656086	0.350482
O19	O	1.430393	0.310618	0.113499
O20	O	1.930393	0.810618	0.613499
C21	C	1.228300	0.162177	0.000009
C22	C	1.728300	0.662177	0.500009
C23	C	1.090114	0.159073	0.000007
C24	C	1.590114	0.659073	0.500007
C25	C	1.004407	0.249530	0.000004
C26	C	1.504407	0.749530	0.500004
C27	C	0.861584	0.246324	0.000002
C28	C	1.361584	0.746324	0.500002
C29	C	1.487269	-0.038021	0.000014
C30	C	1.987269	0.461979	0.500014
C31	C	1.497602	-0.155940	0.000008
C32	C	1.997602	0.344060	0.500008
C33	C	1.287083	-0.353859	0.000019
C34	C	1.787083	0.146141	0.500019
C35	C	1.296785	-0.464653	0.000014
C36	C	1.796785	0.035347	0.500014
C37	C	1.526709	-0.488324	0.000002
C38	C	2.026709	0.011676	0.500002
C39	C	1.517006	-0.377530	0.000007
C40	C	2.017006	0.122470	0.500007
C41	C	1.397189	-0.310301	0.000014
C42	C	1.897189	0.189699	0.500014
C43	C	1.387488	-0.199504	0.000009
C44	C	1.887488	0.300496	0.500009
C45	C	1.617410	-0.223178	0.000007
C46	C	2.117410	0.276822	0.500007
C47	C	1.627113	-0.333972	0.000002
C48	C	2.127113	0.166028	0.500002
C49	C	1.685896	0.149994	0.000011
C50	C	2.185896	0.649994	0.500011
C51	C	1.824083	0.153099	0.000004
C52	C	2.324083	0.653099	0.500004
C53	C	1.426927	0.350193	0.000006
C54	C	1.926927	0.850193	0.500006
C55	C	1.416594	0.468111	0.000003
C56	C	1.916594	0.968111	0.500003
N57	N	1.457085	0.156084	0.353641
N58	N	1.957085	0.656084	0.853641
N59	N	1.457122	0.156079	-0.353618
N60	N	1.957122	0.656079	0.146382
C61	C	1.544924	0.087908	0.421420
C62	C	2.044924	0.587908	0.921420
C63	C	1.544945	0.087904	0.578583
C64	C	2.044945	0.587904	1.078583
H65	H	1.057755	0.079255	-0.000026
H66	H	1.557755	0.579255	0.499974
H67	H	1.207125	-0.500113	0.000025
H68	H	1.707125	-0.000113	0.500025
H69	H	1.381894	0.214447	0.411963
H70	H	1.881894	0.714447	0.911963
H71	H	1.707067	-0.187702	-0.000117
H72	H	2.207067	0.312298	0.499883
N73	N	0.764082	0.348905	0.000054
N74	N	1.264082	0.848905	0.500054
H75	H	0.808738	0.411559	0.000070
H76	H	1.308738	0.911559	0.500070
H77	H	0.709098	0.351873	-0.084077
H78	H	1.209098	0.851873	0.415923
N79	N	1.047263	0.355260	-0.000003
N80	N	1.547263	0.855260	0.499997
H81	H	1.013644	0.397029	-0.084148
H82	H	1.513644	0.897029	0.415852
H83	H	1.013628	0.396947	0.084193
H84	H	1.513628	0.896947	0.584193
H85	H	1.620109	0.029538	0.363100
H86	H	2.120109	0.529538	0.863100
H87	H	0.897689	0.075656	-0.000002
H88	H	1.397689	0.575656	0.499998
H89	H	1.289926	-0.144767	0.000012
H90	H	1.789926	0.355233	0.500012
H91	H	1.189522	-0.299119	0.000014
H92	H	1.689522	0.200881	0.500014
N93	N	1.644573	0.010590	0.655777
N94	N	2.144573	0.510590	1.155777
H95	H	1.630468	0.021548	0.757106
H96	H	2.130468	0.521548	1.257106
H97	H	1.638114	-0.064828	0.630880
H98	H	2.138114	0.435172	1.130880
N99	N	1.357494	0.233406	0.569205
N100	N	1.857494	0.733406	1.069205
H101	H	1.400259	0.280634	0.509909
H102	H	1.900259	0.780634	1.009909
H103	H	1.306610	0.192417	0.510011
H104	H	1.806610	0.692417	1.010011
H105	H	1.624258	-0.543081	0.000013
H106	H	2.124258	-0.043081	0.500013
H107	H	1.724664	-0.388725	0.000002
H108	H	2.224664	0.111275	0.500002
