data_functionalizedCrystal
_audit_creation_method	'MofGen! by Chris Wilmer'
_symmetry_space_group_name_H-M	'P1'
_symmetry_Int_Tables_number	1
_symmetry_cell_setting	triclinic
loop_
_symmetry_equiv_pos_as_xyz
  x,y,z
_cell_length_a	10.654543
_cell_length_b	17.666332
_cell_length_c	19.188929
_cell_angle_alpha	89.971732
_cell_angle_beta	83.813401
_cell_angle_gamma	89.990815
loop_
_atom_site_label
_atom_site_type_symbol
_atom_site_fract_x
_atom_site_fract_y
_atom_site_fract_z
O1	O	-1.665780	0.062987	-0.098040
O2	O	-1.300103	0.062992	-0.107388
O3	O	-1.493494	0.062943	-0.001127
O4	O	-1.472389	0.063036	-0.204300
O5	O	-1.493461	-0.062954	-0.001121
O6	O	-1.300069	-0.062904	-0.107382
O7	O	-1.665747	-0.062910	-0.098034
Cu8	Cu	-1.482905	-0.074403	-0.102707
Cu9	Cu	-1.482945	0.074485	-0.102714
O10	O	-1.472355	-0.062860	-0.204295
C11	C	-1.253303	0.000044	-0.106699
C12	C	-1.113902	0.000044	-0.104649
N13	N	-1.482886	-0.179122	-0.102702
C14	C	-0.902104	0.000067	-0.165281
C15	C	-1.033084	0.000074	-0.167213
C16	C	-1.063735	0.000015	-0.040149
C17	C	-0.932757	0.000014	-0.038217
C18	C	-1.568547	-0.218754	-0.055673
C19	C	-1.568555	-0.298001	-0.055670
C20	C	-1.482913	-0.337614	-0.102707
C21	C	-1.397235	-0.297973	-0.149740
C22	C	-1.397222	-0.218727	-0.149737
N23	N	-1.466588	-0.462004	-0.164408
N24	N	-1.466608	-0.537285	-0.164409
C25	C	-1.482946	-0.576378	-0.102717
N26	N	-1.499287	-0.537347	-0.041024
N27	N	-1.499273	-0.462060	-0.041024
C28	C	-1.482917	-0.423543	-0.102715
C29	C	-1.568619	-0.701939	-0.055681
C30	C	-1.568618	-0.781188	-0.055677
C31	C	-1.397305	-0.781158	-0.149753
C32	C	-1.397300	-0.701911	-0.149751
C33	C	-1.482964	-0.662306	-0.102716
C34	C	-0.712546	0.000038	-0.098725
C35	C	-0.851944	0.000036	-0.100786
C36	C	-1.473056	0.000100	-0.230313
C37	C	-1.475107	0.000136	-0.307831
N38	N	-1.482974	0.179204	-0.102714
C39	C	-1.361632	0.000123	-0.352014
C40	C	-1.363559	0.000106	-0.424851
C41	C	-1.478969	0.000087	-0.453500
C42	C	-1.592459	0.000104	-0.409307
C43	C	-1.590529	0.000129	-0.336472
N44	N	-1.567173	-0.042808	-0.562042
N45	N	-1.569000	-0.042833	-0.631233
C46	C	-1.484793	0.000014	-0.672947
N47	N	-1.398672	0.042877	-0.642858
N48	N	-1.396842	0.042899	-0.573661
C49	C	-1.481075	0.000060	-0.532477
C50	C	-1.373399	-0.000017	-0.796108
C51	C	-1.375332	-0.000030	-0.868946
C52	C	-1.604235	-0.000038	-0.853401
C53	C	-1.602300	-0.000018	-0.780565
C54	C	-1.486878	-0.000011	-0.751923
C55	C	-1.492794	-0.000016	0.024892
C56	C	-1.490742	-0.000047	0.102410
H57	H	-0.836309	0.000085	-0.216229
Cl58	Cl	-1.737546	0.000086	-0.445323
H59	H	-0.891918	-0.000009	0.014305
Cl60	Cl	-1.676304	-0.652149	0.003452
H61	H	-1.638297	-0.186510	-0.017373
Cl62	Cl	-1.733196	0.000144	-0.280924
Cl63	Cl	-1.676308	-0.831014	0.003454
H64	H	-1.327569	-0.813410	-0.188049
H65	H	-1.327552	-0.669640	-0.188049
Cl66	Cl	-1.228302	-0.000004	-0.760098
Cl67	Cl	-1.216531	0.000140	-0.316011
Cl68	Cl	-1.289565	-0.347770	-0.208870
Cl69	Cl	-1.232662	-0.000037	-0.924492
H70	H	-1.129547	-0.000004	0.010792
H71	H	-1.638312	-0.330276	-0.017372
Cl72	Cl	-1.220893	0.000085	-0.480406
H73	H	-1.698204	0.000001	-0.876727
H74	H	-1.327465	-0.186458	-0.188034
H75	H	-1.073917	0.000099	-0.219731
Cl76	Cl	-1.744964	-0.000009	-0.725017
