data_functionalizedCrystal
_audit_creation_method	'MofGen! by Chris Wilmer'
_symmetry_space_group_name_H-M	'P1'
_symmetry_Int_Tables_number	1
_symmetry_cell_setting	triclinic
loop_
_symmetry_equiv_pos_as_xyz
  x,y,z
_cell_length_a	16.959455
_cell_length_b	21.295417
_cell_length_c	21.295420
_cell_angle_alpha	90.017552
_cell_angle_beta	90.014326
_cell_angle_gamma	90.027454
loop_
_atom_site_label
_atom_site_type_symbol
_atom_site_fract_x
_atom_site_fract_y
_atom_site_fract_z
Zn1	Zn	1.208326	-0.250758	0.355892
Zn2	Zn	1.708326	0.249242	0.855892
Zn3	Zn	1.208225	-0.356002	0.250617
Zn4	Zn	1.708225	0.143998	0.750617
Zn5	Zn	1.076155	-0.250745	0.250639
Zn6	Zn	1.576155	0.249255	0.750639
Zn7	Zn	1.076095	-0.355987	0.355851
Zn8	Zn	1.576095	0.144013	0.855851
O9	O	1.142200	-0.303373	0.303250
O10	O	1.642200	0.196627	0.803250
O11	O	1.318924	-0.264730	0.341935
O12	O	1.818924	0.235270	0.841935
O13	O	1.190688	-0.342040	0.162531
O14	O	1.690688	0.157960	0.662531
O15	O	1.093755	-0.162657	0.264627
O16	O	1.593755	0.337343	0.764627
O17	O	1.318849	-0.342053	0.264590
O18	O	1.818849	0.157947	0.764590
O19	O	1.190861	-0.162667	0.341956
O20	O	1.690861	0.337333	0.841956
O21	O	1.093657	-0.264708	0.162547
O22	O	1.593657	0.235292	0.662547
O23	O	0.965536	-0.264694	0.264588
O24	O	1.465536	0.235306	0.764588
O25	O	1.093654	-0.342028	0.443946
O26	O	1.593654	0.157972	0.943946
O27	O	0.965492	-0.342015	0.341887
O28	O	1.465492	0.157985	0.841887
O29	O	1.190803	-0.264716	0.443976
O30	O	1.690803	0.235284	0.943976
O31	O	1.190630	-0.444089	0.264551
O32	O	1.690630	0.055911	0.764551
O33	O	1.093555	-0.444079	0.341866
O34	O	1.593555	0.055921	0.841866
C35	C	0.936834	-0.303352	0.303236
C36	C	1.436834	0.196648	0.803236
C37	C	0.848978	-0.303358	0.303244
C38	C	1.348978	0.196642	0.803244
C39	C	1.142097	-0.466925	0.303215
C40	C	1.642097	0.033075	0.803215
C41	C	1.142125	-0.536893	0.303221
C42	C	1.642125	-0.036893	0.803221
C43	C	0.477500	-0.263079	0.263084
C44	C	0.977500	0.236921	0.763084
C45	C	0.477504	-0.343719	0.343451
C46	C	0.977504	0.156281	0.843451
C47	C	0.560049	-0.343710	0.343448
C48	C	1.060049	0.156290	0.843448
C49	C	0.601325	-0.303385	0.303261
C50	C	1.101325	0.196615	0.803261
C51	C	0.560054	-0.263070	0.263078
C52	C	1.060054	0.236930	0.763078
C53	C	0.601326	-0.384029	0.383625
C54	C	1.101326	0.115971	0.883625
C55	C	0.683877	-0.384022	0.383622
C56	C	1.183877	0.115978	0.883622
C57	C	0.725154	-0.343694	0.343438
C58	C	1.225154	0.156306	0.843438
C59	C	0.683878	-0.303376	0.303254
C60	C	1.183878	0.196624	0.803254
C61	C	0.725153	-0.263052	0.263068
C62	C	1.225153	0.236948	0.763068
C63	C	0.683879	-0.222731	0.222887
C64	C	1.183879	0.277269	0.722887
C65	C	0.601330	-0.222742	0.222894
C66	C	1.101330	0.277258	0.722894
C67	C	0.807702	-0.343683	0.343431
C68	C	1.307702	0.156317	0.843431
C69	C	0.807707	-0.263043	0.263061
C70	C	1.307707	0.236957	0.763061
C71	C	1.192717	-0.569744	0.263005
C72	C	1.692717	-0.069744	0.763005
C73	C	1.192754	-0.635487	0.263019
C74	C	1.692754	-0.135487	0.763019
C75	C	1.142185	-0.668375	0.303243
C76	C	1.642185	-0.168375	0.803243
C77	C	1.091589	-0.635516	0.343467
C78	C	1.591589	-0.135516	0.843467
C79	C	1.091559	-0.569775	0.343456
C80	C	1.591559	-0.069775	0.843456
N81	N	1.073038	-0.771639	0.308037
N82	N	1.573038	-0.271639	0.808037
N83	N	1.073069	-0.834091	0.308044
N84	N	1.573069	-0.334091	0.808044
C85	C	1.142273	-0.866450	0.303279
C86	C	1.642273	-0.366450	0.803279
N87	N	1.211447	-0.833998	0.298495
N88	N	1.711447	-0.333998	0.798495
N89	N	1.211416	-0.771541	0.298485
N90	N	1.711416	-0.271541	0.798485
C91	C	1.142212	-0.739661	0.303259
C92	C	1.642212	-0.239661	0.803259
C93	C	1.192910	-0.970587	0.263076
C94	C	1.692910	-0.470587	0.763076
C95	C	1.192948	-1.036330	0.263094
C96	C	1.692948	-0.536330	0.763094
C97	C	1.091777	-1.036359	0.343539
C98	C	1.591777	-0.536359	0.843539
C99	C	1.091745	-0.970616	0.343524
C100	C	1.591745	-0.470616	0.843524
C101	C	1.142311	-0.937734	0.303289
C102	C	1.642311	-0.437734	0.803289
C103	C	1.348369	-0.303394	0.303265
C104	C	1.848369	0.196606	0.803265
C105	C	1.436225	-0.303403	0.303271
C106	C	1.936225	0.196597	0.803271
C107	C	1.142233	-0.303371	0.467440
C108	C	1.642233	0.196629	0.967440
C109	C	1.142247	-0.303371	0.537408
C110	C	1.642247	0.196629	1.037408
C111	C	1.142326	-0.139183	0.303299
C112	C	1.642326	0.360817	0.803299
C113	C	1.142379	-0.069215	0.303319
C114	C	1.642379	0.430785	0.803319
C115	C	1.091731	-0.263107	0.570273
C116	C	1.591731	0.236893	1.070273
C117	C	1.091716	-0.263110	0.636016
C118	C	1.591716	0.236890	1.136016
C119	C	1.142233	-0.303371	0.668891
C120	C	1.642233	0.196629	1.168891
C121	C	1.192753	-0.343642	0.636018
C122	C	1.692753	0.156358	1.136018
C123	C	1.192760	-0.343642	0.570277
C124	C	1.692760	0.156358	1.070277
N125	N	1.211407	-0.308205	0.772128
N126	N	1.711407	0.191795	1.272128
N127	N	1.211398	-0.308201	0.834579
N128	N	1.711398	0.191799	1.334579
C129	C	1.142212	-0.303374	0.866966
C130	C	1.642212	0.196626	1.366966
N131	N	1.073035	-0.298539	0.834541
N132	N	1.573035	0.201461	1.334541
N133	N	1.073045	-0.298539	0.772084
N134	N	1.573045	0.201461	1.272084
C135	C	1.142230	-0.303376	0.740176
C136	C	1.642230	0.196624	1.240176
C137	C	1.091676	-0.263112	0.971116
C138	C	1.591676	0.236888	1.471116
C139	C	1.091660	-0.263120	1.036860
C140	C	1.591660	0.236880	1.536860
C141	C	1.192703	-0.343649	1.036861
C142	C	1.692703	0.156351	1.536861
C143	C	1.192712	-0.343644	0.971118
C144	C	1.692712	0.156356	1.471118
C145	C	1.142199	-0.303372	0.938250
C146	C	1.642199	0.196628	1.438250
C147	C	1.142169	-0.303387	1.139698
C148	C	1.642169	0.196613	1.639698
C149	C	1.142176	-0.303381	1.069730
C150	C	1.642176	0.196619	1.569730
H151	H	0.841307	-0.230202	0.230340
H152	H	1.341307	0.269798	0.730340
Cl153	Cl	1.256296	-0.528410	0.212432
Cl154	Cl	1.756296	-0.028410	0.712432
Cl155	Cl	0.735758	-0.434708	0.434137
Cl156	Cl	1.235758	0.065292	0.934137
H157	H	1.233883	-0.376423	0.662789
H158	H	1.733883	0.123577	1.162789
H159	H	1.050361	-0.543026	0.376206
H160	H	1.550361	-0.043026	0.876206
Cl161	Cl	0.859587	-0.394372	0.393936
Cl162	Cl	1.359587	0.105628	0.893936
H163	H	1.234086	-0.943813	0.230316
H164	H	1.734086	-0.443813	0.730316
H165	H	1.233954	-0.662239	0.230270
H166	H	1.733954	-0.162239	0.730270
H167	H	0.717496	-0.189902	0.190164
H168	H	1.217496	0.310098	0.690164
Cl169	Cl	0.425614	-0.394423	0.393955
Cl170	Cl	0.925614	0.105577	0.893955
Cl171	Cl	0.549435	-0.434739	0.434122
Cl172	Cl	1.049435	0.065261	0.934122
H173	H	1.234151	-1.063077	0.230346
H174	H	1.734151	-0.563077	0.730346
H175	H	1.050606	-1.063136	0.376293
H176	H	1.550606	-0.563136	0.876293
Cl177	Cl	1.028225	-0.212483	0.528957
Cl178	Cl	1.528225	0.287517	1.028957
Cl179	Cl	1.028171	-0.212490	0.929793
Cl180	Cl	1.528171	0.287510	1.429793
Cl181	Cl	1.028021	-0.676861	0.394038
Cl182	Cl	1.528021	-0.176861	0.894038
Cl183	Cl	1.028137	-0.929315	0.394082
Cl184	Cl	1.528137	-0.429315	0.894082
H185	H	1.050581	-0.230320	0.662780
H186	H	1.550581	0.269680	1.162780
H187	H	1.233836	-0.376428	1.063627
H188	H	1.733836	0.123572	1.563627
Cl189	Cl	1.256273	-0.394263	0.528958
Cl190	Cl	1.756273	0.105737	1.028958
Cl191	Cl	0.549438	-0.172058	0.172385
Cl192	Cl	1.049438	0.327942	0.672385
H193	H	0.443891	-0.230249	0.230372
H194	H	0.943891	0.269751	0.730372
Cl195	Cl	1.028125	-0.212516	1.078177
Cl196	Cl	1.528125	0.287484	1.578177
Cl197	Cl	1.256228	-0.394260	0.929800
Cl198	Cl	1.756228	0.105740	1.429800
