data_functionalizedCrystal
_audit_creation_method	'MofGen! by Chris Wilmer'
_symmetry_space_group_name_H-M	'P1'
_symmetry_Int_Tables_number	1
_symmetry_cell_setting	triclinic
loop_
_symmetry_equiv_pos_as_xyz
  x,y,z
_cell_length_a	10.489716
_cell_length_b	15.944493
_cell_length_c	8.965430
_cell_angle_alpha	90.006294
_cell_angle_beta	89.996523
_cell_angle_gamma	84.002090
loop_
_atom_site_label
_atom_site_type_symbol
_atom_site_fract_x
_atom_site_fract_y
_atom_site_fract_z
O1	O	1.692393	0.118405	-0.124006
O2	O	1.321035	0.129551	-0.124009
O3	O	1.516893	0.001760	-0.124020
O4	O	1.496534	0.246196	-0.123995
O5	O	1.516877	0.001769	0.124059
O6	O	1.321018	0.129559	0.124069
O7	O	1.692376	0.118414	0.124073
Cu8	Cu	1.506696	0.123987	0.146723
Cu9	Cu	1.506715	0.123977	-0.146659
O10	O	1.496518	0.246204	0.124084
C11	C	1.273506	0.128718	0.000029
C12	C	1.131911	0.126212	0.000027
C13	C	1.033126	0.204577	0.000031
C14	C	0.956359	0.163172	0.122350
C15	C	0.956382	0.163145	-0.122237
C16	C	1.057009	0.084840	0.122446
C17	C	1.057037	0.084824	-0.122250
C18	C	0.980320	0.043361	0.000098
C19	C	1.516053	-0.029535	0.000013
C20	C	1.513558	-0.122798	-0.000006
C21	C	1.628845	-0.357872	0.000023
C22	C	1.566683	-0.408814	-0.122292
C23	C	1.508936	-0.293547	0.000012
C24	C	1.566639	-0.408782	0.122294
C25	C	1.504480	-0.458483	0.000036
C26	C	1.446806	-0.343261	-0.122404
C27	C	1.446780	-0.343225	0.122292
C28	C	1.384530	-0.394135	-0.000054
C29	C	1.511506	-0.198532	-0.000003
C30	C	1.501900	-0.553496	0.000041
C31	C	1.739905	0.119247	0.000031
C32	C	1.881500	0.121752	0.000024
C33	C	1.497358	0.277500	0.000047
C34	C	1.499853	0.370763	0.000056
N35	N	1.506691	0.123994	0.353072
N36	N	1.506730	0.123964	-0.353008
C37	C	1.416086	0.183073	0.450383
C38	C	1.531343	0.200063	0.549800
C39	C	1.391483	0.107011	0.549782
C40	C	1.622006	0.141022	0.450300
C41	C	1.482071	0.047937	0.450274
C42	C	1.597411	0.064895	0.549646
H43	H	0.912436	0.196238	-0.225633
Cl44	Cl	1.644874	-0.453048	-0.281946
Cl45	Cl	1.715860	-0.012264	0.616529
H46	H	1.461184	-0.016349	0.406524
Cl47	Cl	1.124590	0.033802	0.282267
Cl48	Cl	1.563537	0.299345	0.617296
H49	H	1.339533	0.233080	0.406798
H50	H	1.294038	0.092661	0.593484
H51	H	1.056829	0.272743	0.000152
Cl52	Cl	0.888487	0.214250	0.282015
H53	H	1.719473	0.155450	0.406785
Cl54	Cl	0.944079	-0.061955	0.000196
Cl55	Cl	1.124950	0.033792	-0.281925
H56	H	1.617297	-0.437408	0.225696
H57	H	1.732131	-0.341629	-0.000099
Cl58	Cl	1.368684	-0.299242	-0.282236
H59	H	1.396177	-0.314562	0.225705
Cl60	Cl	1.224943	-0.418969	-0.000153
