data_functionalizedCrystal
_audit_creation_method	'MofGen! by Chris Wilmer'
_symmetry_space_group_name_H-M	'P1'
_symmetry_Int_Tables_number	1
_symmetry_cell_setting	triclinic
loop_
_symmetry_equiv_pos_as_xyz
  x,y,z
_cell_length_a	6.817900
_cell_length_b	10.773890
_cell_length_c	17.110486
_cell_angle_alpha	96.766104
_cell_angle_beta	99.060439
_cell_angle_gamma	96.645716
loop_
_atom_site_label
_atom_site_type_symbol
_atom_site_fract_x
_atom_site_fract_y
_atom_site_fract_z
V1	V	-3.942792	-0.172225	-0.245434
O2	O	-3.967088	0.008658	-0.242088
O3	O	-3.861044	-0.341861	-0.242480
O4	O	-3.873207	-0.169408	-0.353058
O5	O	-3.954840	-0.164988	-0.130744
V6	V	-4.433486	-0.150609	-0.231871
O7	O	-4.188320	-0.219641	-0.275185
O8	O	-4.638155	-0.103193	-0.202120
O9	O	-4.292027	0.019027	-0.234825
O10	O	-4.526587	-0.331492	-0.235217
O11	O	-4.538834	-0.157846	-0.346561
O12	O	-4.279864	-0.153426	-0.124247
C13	C	-3.698618	-0.383220	-0.238279
C14	C	-3.712925	-0.521898	-0.236580
C15	C	-3.890419	-0.589756	-0.239531
C16	C	-3.905210	-0.733088	-0.237776
C17	C	-3.714133	-0.163237	-0.379331
C18	C	-3.738303	-0.162057	-0.467306
C19	C	-3.929721	-0.167728	-0.512622
C20	C	-3.952419	-0.166618	-0.595283
C21	C	-3.783698	-0.159845	-0.632629
C22	C	-3.592264	-0.154170	-0.587307
C23	C	-3.569567	-0.155271	-0.504646
C24	C	-3.843219	-0.156201	-0.882011
C25	C	-3.865932	-0.155104	-0.964678
C26	C	-4.226086	-0.167549	-0.972649
C27	C	-4.203373	-0.168658	-0.889987
C28	C	-4.011941	-0.162976	-0.844671
C29	C	-3.806896	-0.158714	-0.717122
C30	C	-3.988745	-0.164098	-0.760179
C31	C	-4.117795	0.060379	-0.239024
C32	C	-4.082724	0.199056	-0.240727
C33	C	-4.102280	-0.159601	-0.097969
C34	C	-4.057350	-0.160775	-0.009994
H35	H	-4.067118	-0.173251	-0.482223
C36	C	-3.522419	-0.586759	-0.231410
N37	N	-3.378923	-0.635610	-0.227513
H38	H	-4.108288	-0.171229	-0.632175
H39	H	-4.340768	-0.174171	-0.859586
C40	C	-4.436649	-0.173783	-1.022501
N41	N	-4.595251	-0.178472	-1.060049
C42	C	-3.406652	-0.146587	-0.628377
N43	N	-3.266839	-0.140833	-0.659307
C44	C	-4.080924	-0.524895	-0.244699
N45	N	-4.224419	-0.476042	-0.248591
C46	C	-3.714691	-0.797944	-0.232605
N47	N	-3.571195	-0.846795	-0.228709
H48	H	-4.223749	-0.752935	-0.244556
C49	C	-3.632646	-0.149978	-0.832177
N50	N	-3.474032	-0.145300	-0.794640
H51	H	-3.413692	-0.150622	-0.467748
H52	H	-3.728528	-0.149585	-0.995081
H53	H	-4.126115	-0.169608	-0.729768
H54	H	-3.669527	-0.153205	-0.747539
