data_functionalizedCrystal
_audit_creation_method	'MofGen! by Chris Wilmer'
_symmetry_space_group_name_H-M	'P1'
_symmetry_Int_Tables_number	1
_symmetry_cell_setting	triclinic
loop_
_symmetry_equiv_pos_as_xyz
  x,y,z
_cell_length_a	16.704494
_cell_length_b	12.970454
_cell_length_c	16.704494
_cell_angle_alpha	63.426524
_cell_angle_beta	90.303009
_cell_angle_gamma	56.632329
loop_
_atom_site_label
_atom_site_type_symbol
_atom_site_fract_x
_atom_site_fract_y
_atom_site_fract_z
Zr1	Zr	0.818460	1.012350	-0.060110
O2	O	0.690296	1.227441	-0.188275
O3	O	0.857749	0.797259	-0.020820
O4	O	0.866366	0.990209	-0.179654
O5	O	0.674881	1.051957	0.095849
O6	O	1.005254	0.972743	-0.172854
O7	O	0.681678	1.034492	-0.029441
O8	O	0.989839	0.627592	0.111271
O9	O	0.690296	1.397108	-0.188276
O10	O	0.978156	0.872695	0.001011
O11	O	0.869433	0.898764	0.089439
O12	O	0.879578	1.125937	-0.097568
O13	O	0.770855	1.152005	-0.009140
Zr14	Zr	1.029129	1.012350	0.150559
Zr15	Zr	1.039970	0.984495	-0.049265
Zr16	Zr	0.807619	1.040206	0.139713
Zr17	Zr	0.818460	1.282950	-0.060111
Zr18	Zr	1.029128	0.741750	0.150560
O19	O	0.989839	1.227441	0.111269
O20	O	1.005254	1.187834	-0.172855
O21	O	0.674881	1.267048	0.095848
O22	O	1.157293	0.797259	0.278724
O23	O	1.172707	0.757652	-0.005400
O24	O	0.842334	0.836867	0.263303
O25	O	1.172708	0.972743	-0.005401
O26	O	0.981222	1.034492	0.270102
O27	O	0.842334	1.051957	0.263302
O28	O	1.165910	0.990209	0.119890
O29	O	0.866366	1.374967	-0.179655
O30	O	0.981222	0.649734	0.270104
O31	O	1.157293	0.627592	0.278724
O32	O	1.165910	0.605451	0.119891
O33	O	0.681678	1.419250	-0.029443
O34	O	0.857749	1.397108	-0.020822
O35	O	0.968010	0.898764	0.188016
O36	O	1.076733	0.872695	0.099588
O37	O	0.978156	1.125937	0.001010
O38	O	0.869433	1.152005	0.089438
C39	C	0.923794	0.673871	0.045226
C40	C	0.923794	0.558994	0.045226
C41	C	0.646719	1.047193	0.031659
C42	C	0.552682	1.059019	0.027055
C43	C	0.478899	0.816834	0.121342
C44	C	0.390546	0.827938	0.117019
C45	C	0.287621	1.092331	0.014091
C46	C	0.375975	1.081227	0.018414
C47	C	0.471612	0.943473	0.072040
C48	C	0.559967	0.932370	0.076358
C49	C	0.457041	1.196762	-0.026564
C50	C	0.368688	1.207866	-0.030887
C51	C	1.200869	0.977507	0.058790
C52	C	1.294906	0.965682	0.063394
C53	C	0.937355	0.977507	-0.204724
C54	C	0.941957	0.965682	-0.289555
C55	C	0.923794	1.350829	0.045223
C56	C	0.923794	1.465706	0.045223
C57	C	0.847697	1.207866	-0.551886
C58	C	0.852019	1.196762	-0.631594
C59	C	0.954928	0.932370	-0.528681
C60	C	0.950606	0.943474	-0.448973
C61	C	0.896988	1.081227	-0.460580
C62	C	0.892660	1.092331	-0.380870
C63	C	0.995575	0.827939	-0.277959
C64	C	0.999897	0.816835	-0.357668
C65	C	0.910234	1.047193	0.295173
C66	C	0.905631	1.059019	0.380003
C67	C	1.200869	0.639028	0.058791
C68	C	1.294906	0.512326	0.063395
C69	C	0.910234	0.708714	0.295174
C70	C	0.905631	0.605663	0.380005
C71	C	1.187309	0.673871	0.308740
C72	C	1.276743	0.558994	0.398174
C73	C	0.660280	1.350829	-0.218291
C74	C	0.570845	1.465706	-0.307726
C75	C	0.646719	1.385672	0.031658
C76	C	0.552683	1.512374	0.027053
C77	C	0.937355	1.315986	-0.204726
C78	C	0.941957	1.419037	-0.289557
C79	C	1.287610	0.452824	0.014093
C80	C	1.375960	0.333787	0.018400
C81	C	1.471605	0.274248	0.072016
C82	C	1.478898	0.333761	0.121320
C83	C	1.390549	0.452802	0.117007
C84	C	0.954926	0.557270	0.471307
C85	C	0.950597	0.460459	0.551022
C86	C	0.896979	0.412035	0.539433
C87	C	0.847678	0.460438	0.448121
C88	C	0.852002	0.557255	0.368408
C89	C	1.375504	0.491438	0.394016
C90	C	1.459546	0.383512	0.478042
C91	C	1.444825	0.343137	0.566226
C92	C	1.346053	0.410705	0.570382
C93	C	1.262014	0.518636	0.486357
C94	C	0.472084	1.533275	-0.303567
C95	C	0.388042	1.641235	-0.387594
C96	C	0.402764	1.681615	-0.475777
C97	C	0.501535	1.614041	-0.479934
C98	C	0.585575	1.506091	-0.395908
C99	C	0.559978	1.571886	0.076347
C100	C	0.471630	1.690950	0.072018
C101	C	0.375986	1.750493	0.018399
C102	C	0.368692	1.690975	-0.030901
C103	C	0.457040	1.571920	-0.026576
C104	C	0.995584	1.467431	-0.277937
C105	C	0.999928	1.564242	-0.357636
C106	C	0.950639	1.612667	-0.448954
C107	C	0.897010	1.564264	-0.460571
C108	C	0.892673	1.467446	-0.380873
H109	H	0.637836	0.820205	0.120029
H110	H	0.954178	1.691504	-0.513841
F111	F	1.534278	0.228262	0.655647
F112	F	1.156906	0.590518	0.490797
F113	F	0.282932	1.713131	-0.383150
F114	F	0.844550	1.615825	-0.557766
H115	H	1.035722	1.428018	-0.203589
H116	H	0.811863	0.596642	0.294069
F117	F	1.185828	0.516172	-0.042978
F118	F	1.391194	0.534394	0.300173
F119	F	1.580698	0.270375	0.178381
H120	H	0.849000	1.428056	-0.390347
F121	F	1.564656	0.311615	0.473599
F122	F	0.661761	1.508541	0.133416
H123	H	0.556770	0.704671	0.165012
H124	H	0.290810	1.320020	-0.074545
F125	F	0.398307	0.693152	0.169494
F126	F	1.048031	0.693152	-0.180776
F127	F	0.266892	1.754358	-0.087960
H128	H	0.209741	1.204484	-0.029556
F129	F	0.281965	1.877201	0.013807
H130	H	0.804023	0.420996	0.438699
F131	F	0.313311	1.796508	-0.565198
H132	H	1.370002	0.285347	-0.021750
F133	F	1.330402	0.367719	0.664242
F134	F	1.398329	0.516109	0.169491
F135	F	0.517187	1.657030	-0.573794
F136	F	0.449290	1.331546	-0.079058
H137	H	0.665989	1.451075	-0.399306
F138	F	0.799559	1.331549	-0.728768
H139	H	0.477588	1.739390	0.112168
F140	F	0.449259	1.508589	-0.079040
F141	F	0.456394	1.490318	-0.209724
H142	H	1.043596	1.603643	-0.348158
H143	H	0.804028	1.320032	-0.561338
F144	F	0.835596	1.238938	-0.393224
F145	F	1.003076	0.408959	0.648194
H146	H	0.998594	0.820217	-0.519248
H147	H	0.998587	0.596687	0.480761
F148	F	1.056958	0.670236	-0.345327
H149	H	1.543536	0.177316	0.075521
H150	H	0.893467	0.333200	0.604349
