data_functionalizedCrystal
_audit_creation_method	'MofGen! by Chris Wilmer'
_symmetry_space_group_name_H-M	'P1'
_symmetry_Int_Tables_number	1
_symmetry_cell_setting	triclinic
loop_
_symmetry_equiv_pos_as_xyz
  x,y,z
_cell_length_a	10.654550
_cell_length_b	10.654551
_cell_length_c	16.176319
_cell_angle_alpha	89.996057
_cell_angle_beta	89.989082
_cell_angle_gamma	84.485132
loop_
_atom_site_label
_atom_site_type_symbol
_atom_site_fract_x
_atom_site_fract_y
_atom_site_fract_z
O1	O	1.667847	0.176402	-0.068809
O2	O	1.302368	0.193208	-0.068795
O3	O	1.493510	0.002066	-0.068803
O4	O	1.476705	0.367544	-0.068801
O5	O	1.493483	0.002053	0.068690
O6	O	1.302342	0.193195	0.068698
O7	O	1.667820	0.176389	0.068684
Cu8	Cu	1.485079	0.184791	0.081245
Cu9	Cu	1.485110	0.184806	-0.081356
O10	O	1.476679	0.367531	0.068692
C11	C	1.255557	0.191968	-0.000047
C12	C	1.116114	0.188276	-0.000042
C13	C	1.036629	0.300817	-0.000053
C14	C	0.905608	0.297341	-0.000068
C15	C	0.933570	0.068771	-0.000062
C16	C	1.064589	0.072249	-0.000042
C17	C	1.088154	0.416844	-0.000053
C18	C	1.008667	0.529395	-0.000066
C19	C	0.877647	0.525918	-0.000080
C20	C	0.826112	0.409891	-0.000082
C21	C	1.492263	-0.044739	-0.000058
C22	C	1.488570	-0.184182	-0.000063
C23	C	1.486852	-0.249687	-0.075009
C24	C	1.483372	-0.380707	-0.075006
C25	C	1.483333	-0.380706	0.074897
C26	C	1.486804	-0.249687	0.074892
C27	C	1.488619	-0.184181	-0.149965
C28	C	1.486902	-0.249687	-0.224917
C29	C	1.483422	-0.380707	-0.224913
C30	C	1.481658	-0.446222	-0.149957
C31	C	1.714632	0.177629	-0.000066
C32	C	1.854075	0.181321	-0.000076
C33	C	1.477926	0.414336	-0.000055
C34	C	1.481619	0.553779	-0.000055
N35	N	1.485066	0.184780	0.195611
N36	N	1.485133	0.184807	-0.195721
C37	C	1.569729	0.100177	0.238871
C38	C	1.569735	0.100176	0.325418
C39	C	1.485083	0.184785	0.368703
C40	C	1.400411	0.269391	0.325436
C41	C	1.400399	0.269385	0.238891
C42	C	1.400454	0.269415	0.674465
C43	C	1.400475	0.269417	0.761016
C44	C	1.569790	0.100206	0.760992
C45	C	1.569779	0.100200	0.674447
C46	C	1.485102	0.184802	0.631187
C47	C	1.485095	0.184800	0.537343
C48	C	1.485096	0.184793	0.462546
H49	H	0.891600	-0.025693	-0.000077
O50	O	1.481800	-0.444229	0.147756
C51	C	1.591232	-0.425519	0.193340
H52	H	1.629955	-0.334815	0.172028
H53	H	1.566916	-0.418057	0.261907
H54	H	1.665313	-0.508554	0.182948
O55	O	0.698858	0.406349	-0.000202
C56	C	0.662791	0.342534	-0.071427
H57	H	0.746471	0.277811	-0.095160
H58	H	0.582004	0.284021	-0.055422
H59	H	0.630732	0.414164	-0.121292
H60	H	1.638674	0.031286	0.360641
H61	H	1.638714	0.031308	0.639207
H62	H	1.488176	-0.196348	0.135920
O63	O	1.481583	-0.444182	-0.297769
C64	C	1.373852	-0.398905	-0.343358
H65	H	1.340172	-0.299349	-0.322049
H66	H	1.398411	-0.397409	-0.411924
H67	H	1.295861	-0.463342	-0.332966
H68	H	1.491456	-0.077498	-0.149977
H69	H	1.638735	0.031315	0.796223
H70	H	1.488326	-0.196334	-0.285944
O71	O	1.318109	0.351649	0.802936
C72	C	1.243386	0.426338	0.746197
H73	H	1.241513	0.374832	0.684508
H74	H	1.143264	0.444552	0.771226
H75	H	1.284956	0.520024	0.736979
O76	O	1.318269	0.351492	0.632322
C77	C	1.336426	0.333379	0.546652
H78	H	1.382477	0.233957	0.534824
H79	H	1.241437	0.346491	0.513777
H80	H	1.400042	0.405040	0.522081
H81	H	1.638668	0.031285	0.203635
H82	H	1.331479	0.338277	0.360684
O83	O	1.478289	-0.573497	-0.150100
C84	C	1.477089	-0.617263	-0.232323
H85	H	1.518828	-0.546639	-0.274770
H86	H	1.535585	-0.712386	-0.236876
H87	H	1.375887	-0.628155	-0.251812
O88	O	1.318114	0.351693	0.196993
C89	C	1.243379	0.426353	0.253753
H90	H	1.294890	0.428257	0.315435
H91	H	1.225082	0.526472	0.228741
H92	H	1.149736	0.384703	0.262979
H93	H	1.050636	0.623860	-0.000057
O94	O	1.215406	0.420385	-0.000148
C95	C	1.251550	0.484202	-0.071367
H96	H	1.167897	0.548927	-0.095120
H97	H	1.332322	0.542712	-0.055347
H98	H	1.283661	0.412573	-0.121223
O99	O	0.800486	0.635277	-0.000235
C100	C	0.824063	0.705662	-0.071433
H101	H	0.868287	0.639747	-0.121197
H102	H	0.731575	0.755217	-0.095349
H103	H	0.891391	0.778936	-0.055328
O104	O	1.141628	-0.037189	-0.000074
C105	C	1.068059	-0.140343	-0.000068
H106	H	0.970580	-0.109321	-0.026111
H107	H	1.115721	-0.219258	-0.039983
H108	H	1.058388	-0.175862	0.065892
