data_functionalizedCrystal
_audit_creation_method	'MofGen! by Chris Wilmer'
_symmetry_space_group_name_H-M	'P1'
_symmetry_Int_Tables_number	1
_symmetry_cell_setting	triclinic
loop_
_symmetry_equiv_pos_as_xyz
  x,y,z
_cell_length_a	6.817900
_cell_length_b	10.943624
_cell_length_c	19.551136
_cell_angle_alpha	94.476581
_cell_angle_beta	101.650842
_cell_angle_gamma	108.838799
loop_
_atom_site_label
_atom_site_type_symbol
_atom_site_fract_x
_atom_site_fract_y
_atom_site_fract_z
V1	V	-4.079248	-0.403187	-0.096658
O2	O	-4.074953	-0.394858	0.004664
O3	O	-4.021567	-0.401059	-0.191675
O4	O	-4.057771	-0.578743	-0.095163
O5	O	-4.038498	-0.215943	-0.092516
V6	V	-4.560590	-0.380714	-0.084540
O7	O	-4.345291	-0.452482	-0.123241
O8	O	-4.744744	-0.331420	-0.057957
O9	O	-4.395065	-0.382843	0.010477
O10	O	-4.682282	-0.389044	-0.185862
O11	O	-4.718737	-0.567959	-0.088682
O12	O	-4.358860	-0.205158	-0.086035
C13	C	-3.863438	-0.394860	-0.214839
C14	C	-3.897743	-0.394291	-0.292516
C15	C	-3.856497	-0.275707	-0.319012
C16	C	-3.888795	-0.275132	-0.391996
C17	C	-3.962302	-0.393146	-0.438482
C18	C	-4.003563	-0.511746	-0.411979
C19	C	-3.971284	-0.512318	-0.338996
C20	C	-3.939935	-0.478715	-0.559489
C21	C	-3.972199	-0.478137	-0.632470
C22	C	-4.061873	-0.391385	-0.663586
C23	C	-4.119242	-0.305188	-0.621710
C24	C	-4.086962	-0.305761	-0.548727
C25	C	-3.997311	-0.392538	-0.517621
C26	C	-4.055647	-0.272170	-0.769219
C27	C	-4.087960	-0.271600	-0.842206
C28	C	-4.202709	-0.508217	-0.862187
C29	C	-4.170414	-0.508784	-0.789202
C30	C	-4.096874	-0.390756	-0.742722
C31	C	-3.909620	-0.621514	-0.091727
C32	C	-3.973282	-0.765036	-0.091133
C33	C	-3.819611	-0.842157	-0.087135
C34	C	-3.986717	-0.948538	-0.146476
C35	C	-3.919636	-0.914390	-0.030742
C36	C	-4.139577	-0.869540	-0.150530
C37	C	-4.072436	-0.835368	-0.034743
C38	C	-4.239672	-0.941719	-0.094100
C39	C	-4.216534	-0.389037	0.033637
C40	C	-4.161469	-0.389616	0.111313
C41	C	-4.170352	-0.162381	-0.089474
C42	C	-4.085929	-0.018857	-0.090064
H43	H	-4.262561	-0.604306	-0.900035
H44	H	-4.417877	-0.984983	-0.097059
H45	H	-4.107929	-0.786074	0.012496
O46	O	-3.983886	-0.157543	-0.724033
C47	C	-3.707219	-0.014738	-0.626652
C48	C	-3.788207	-0.144577	-0.677786
H49	H	-3.549025	-0.004226	-0.589239
H50	H	-3.683146	0.070168	-0.658096
H51	H	-3.829635	-0.014078	-0.594733
H52	H	-3.665877	-0.145366	-0.709718
H53	H	-3.812338	-0.229426	-0.646301
H54	H	-3.641485	-0.798690	-0.084270
H55	H	-4.231954	-0.849329	-0.201211
H56	H	-3.951141	-0.997797	-0.193713
O57	O	-4.206298	-0.220792	-0.651812
C58	C	-4.348870	-0.049369	-0.633450
C59	C	-4.250264	-0.144855	-0.599261
H60	H	-4.384486	0.012032	-0.590980
H61	H	-4.231883	0.017480	-0.660318
H62	H	-4.503393	-0.107005	-0.674378
H63	H	-4.095761	-0.087325	-0.558303
H64	H	-4.367394	-0.211705	-0.572439
H65	H	-4.054382	-0.175032	-0.863776
O66	O	-3.852839	-0.562948	-0.529205
C67	C	-3.884619	-0.787683	-0.524252
C68	C	-3.983599	-0.692585	-0.558718
H69	H	-3.990317	-0.892515	-0.548089
H70	H	-3.718851	-0.768034	-0.534197
H71	H	-3.871476	-0.772893	-0.464910
H72	H	-3.996888	-0.707320	-0.618068
H73	H	-4.149304	-0.712258	-0.548717
O74	O	-4.210470	-0.624090	-0.763576
C75	C	-4.327807	-0.858720	-0.791101
C76	C	-4.282470	-0.728223	-0.820215
H77	H	-4.386070	-0.942947	-0.836879
H78	H	-4.175268	-0.860025	-0.754742
H79	H	-4.455797	-0.869796	-0.760121
H80	H	-4.154549	-0.717062	-0.851226
H81	H	-4.435109	-0.726976	-0.856536
H82	H	-3.855202	-0.178563	-0.413573
H83	H	-4.063417	-0.607834	-0.449832
O84	O	-3.785148	-0.160945	-0.273963
C85	C	-3.674580	0.073808	-0.261847
C86	C	-3.755426	-0.056065	-0.312946
H87	H	-3.650482	0.158638	-0.293344
H88	H	-3.796898	0.074592	-0.229905
H89	H	-3.516347	0.084339	-0.224452
H90	H	-3.913623	-0.066680	-0.350385
H91	H	-3.632968	-0.056791	-0.344838
O92	O	-4.142876	-0.222225	-0.507990
C93	C	-4.359980	-0.199502	-0.428056
C94	C	-4.296806	-0.294245	-0.474148
H95	H	-4.484472	-0.257692	-0.400694
H96	H	-4.212829	-0.133295	-0.386562
H97	H	-4.429513	-0.137366	-0.462834
H98	H	-4.227317	-0.356466	-0.439427
H99	H	-4.444020	-0.360363	-0.515646
O100	O	-3.916110	-0.561565	-0.673216
C101	C	-3.699181	-0.583913	-0.753281
C102	C	-3.762507	-0.489359	-0.707115
H103	H	-3.575019	-0.525572	-0.780713
H104	H	-3.629326	-0.646075	-0.718620
H105	H	-3.846458	-0.650106	-0.794729
H106	H	-3.615332	-0.423083	-0.665662
H107	H	-3.832443	-0.427287	-0.741822
O108	O	-3.809118	-0.938547	0.029644
C109	C	-3.463643	-0.915251	0.101504
C110	C	-3.588554	-0.887787	0.033106
H111	H	-3.285298	-0.874249	0.104318
H112	H	-3.498321	-0.866714	0.149179
H113	H	-3.514869	-1.025220	0.101626
H114	H	-3.537401	-0.777843	0.032914
H115	H	-3.553870	-0.936413	-0.014539
H116	H	-4.004881	-0.608886	-0.317425
