data_functionalizedCrystal
_audit_creation_method	'MofGen! by Chris Wilmer'
_symmetry_space_group_name_H-M	'P1'
_symmetry_Int_Tables_number	1
_symmetry_cell_setting	triclinic
loop_
_symmetry_equiv_pos_as_xyz
  x,y,z
_cell_length_a	13.635800
_cell_length_b	17.982783
_cell_length_c	19.551833
_cell_angle_alpha	83.862133
_cell_angle_beta	101.663477
_cell_angle_gamma	77.551428
loop_
_atom_site_label
_atom_site_type_symbol
_atom_site_fract_x
_atom_site_fract_y
_atom_site_fract_z
V1	V	2.000579	-0.106212	0.218150
O2	O	1.997226	0.004282	0.213699
O3	O	1.973879	-0.209810	0.216945
O4	O	1.971957	-0.104939	0.313162
O5	O	1.999162	-0.101315	0.116816
V6	V	2.243290	-0.092953	0.205995
O7	O	2.129126	-0.135296	0.244814
O8	O	2.339842	-0.063868	0.179331
O9	O	2.158386	0.010645	0.207200
O10	O	2.305341	-0.203447	0.210446
O11	O	2.303405	-0.097850	0.307329
O12	O	2.160309	-0.094226	0.110983
V13	V	2.500579	-0.106212	0.218150
O14	O	2.497226	0.004282	0.213699
O15	O	2.473879	-0.209810	0.216945
O16	O	2.471957	-0.104939	0.313162
O17	O	2.499162	-0.101315	0.116816
V18	V	2.743290	-0.092953	0.205995
O19	O	2.629126	-0.135296	0.244814
O20	O	2.839842	-0.063868	0.179331
O21	O	2.658386	0.010645	0.207200
O22	O	2.805341	-0.203447	0.210446
O23	O	2.803405	-0.097850	0.307329
O24	O	2.660309	-0.094226	0.110983
C25	C	1.895915	-0.235053	0.213578
C26	C	1.914698	-0.319748	0.213226
C27	C	1.906669	-0.348423	0.149043
C28	C	1.924328	-0.428003	0.148715
C29	C	1.950009	-0.478908	0.212570
C30	C	1.958041	-0.450228	0.276758
C31	C	1.940390	-0.370649	0.277086
C32	C	2.029231	-0.771161	0.275438
C33	C	2.046879	-0.850745	0.275105
C34	C	2.013169	-0.828515	0.147067
C35	C	1.995517	-0.748936	0.147395
C36	C	2.003556	-0.720264	0.211582
C37	C	1.984410	-0.633974	0.211938
C38	C	1.969148	-0.565196	0.212215
C39	C	1.893462	-0.101279	0.336311
C40	C	1.910685	-0.100924	0.413986
C41	C	2.068022	0.035885	0.210565
C42	C	2.038857	0.120579	0.210922
C43	C	2.070475	-0.097888	0.087830
C44	C	2.042871	-0.098240	0.010155
C45	C	2.395915	-0.235053	0.213578
C46	C	2.414698	-0.319748	0.213226
C47	C	2.393462	-0.101279	0.336311
C48	C	2.410685	-0.100924	0.413986
C49	C	2.009572	-0.104581	0.454043
C50	C	2.025755	-0.104247	0.527027
C51	C	1.943051	-0.100271	0.559952
C52	C	1.844149	-0.096609	0.519885
C53	C	1.827967	-0.096935	0.446902
C54	C	1.910650	-0.141697	0.679378
C55	C	1.926837	-0.141376	0.752361
C56	C	1.992959	-0.099261	0.785056
C57	C	2.042910	-0.057478	0.744762
C58	C	2.026728	-0.057805	0.671779
C59	C	1.960588	-0.099916	0.639090
C60	C	2.109399	-0.102556	0.904251
C61	C	2.125578	-0.102217	0.977235
C62	C	1.943971	-0.094586	0.970093
C63	C	1.927793	-0.094918	0.897109
C64	C	2.010512	-0.098906	0.864193
C65	C	2.568022	0.035885	0.210565
C66	C	2.538857	0.120579	0.210922
C67	C	2.570475	-0.097888	0.087830
C68	C	2.542871	-0.098240	0.010155
C69	C	2.514327	-0.363419	0.216563
C70	C	2.531993	-0.443001	0.216243
C71	C	2.450028	-0.478910	0.212581
C72	C	2.350392	-0.435233	0.209247
C73	C	2.332728	-0.355653	0.209571
C74	C	2.509578	-0.104568	0.454035
C75	C	2.525773	-0.104224	0.527017
C76	C	2.443075	-0.100241	0.559950
C77	C	2.344174	-0.096594	0.519896
C78	C	2.327979	-0.096932	0.446914
C79	C	2.611722	0.164249	0.207587
C80	C	2.584328	0.243831	0.207910
C81	C	2.484070	0.279740	0.211573
C82	C	2.411199	0.236063	0.214906
C83	C	2.438592	0.156484	0.214578
C84	C	2.443337	-0.102214	-0.022760
C85	C	2.417383	-0.102536	-0.095745
C86	C	2.490966	-0.098888	-0.135813
C87	C	2.590507	-0.094910	-0.102893
C88	C	2.616457	-0.094584	-0.029910
H89	H	1.885750	-0.306980	0.097044
Cl90	Cl	2.292245	-0.107543	-0.137113
H91	H	1.917791	-0.451346	0.096451
H92	H	2.643676	0.279381	0.205197
Cl93	Cl	2.737768	0.119125	0.202981
Cl94	Cl	2.249903	-0.106814	1.027594
H95	H	2.469825	-0.099164	-0.195238
Cl96	Cl	2.203650	-0.092360	0.396577
Cl97	Cl	1.963228	-0.684946	0.067116
H98	H	2.006629	-0.851869	0.094802
Cl99	Cl	2.039328	-0.735126	0.356131
H100	H	2.461778	0.344539	0.211840
Cl101	Cl	2.240224	-0.091597	0.561310
H102	H	2.383409	-0.105185	0.009854
Cl103	Cl	2.613558	-0.109575	0.412649
Cl104	Cl	2.650113	-0.108816	0.577357
Cl105	Cl	2.079163	-0.914739	0.355387
Cl106	Cl	2.617388	-0.318296	0.221173
Cl107	Cl	2.683003	-0.090334	-0.153273
Cl108	Cl	1.990333	-0.514223	0.357035
H109	H	2.076929	-0.107826	0.427247
H110	H	1.946939	-0.347305	0.329351
Cl111	Cl	2.741599	-0.089599	0.011461
Cl112	Cl	1.740177	-0.091608	0.561275
H113	H	2.613127	-0.478552	0.218957
H114	H	2.464425	-0.543710	0.212317
Cl115	Cl	2.150079	-0.108841	0.577394
H116	H	1.747439	-0.093951	0.414286
H117	H	2.067399	-0.023782	0.638974
Cl118	Cl	2.247359	-0.480387	0.204639
Cl119	Cl	2.463453	-0.099820	0.651702
Cl120	Cl	2.213383	-0.107563	0.862866
Cl121	Cl	1.839993	-0.089574	1.011476
Cl122	Cl	2.126044	-0.004535	0.785857
H123	H	1.847272	-0.091947	0.864495
H124	H	2.329567	0.265312	0.217888
Cl125	Cl	2.207469	-0.300761	0.205370
H126	H	1.886168	-0.175403	0.785164
Cl127	Cl	1.827505	-0.194635	0.638281
H128	H	2.379253	0.120932	0.217300
