data_functionalizedCrystal
_audit_creation_method	'MofGen! by Chris Wilmer'
_symmetry_space_group_name_H-M	'P1'
_symmetry_Int_Tables_number	1
_symmetry_cell_setting	triclinic
loop_
_symmetry_equiv_pos_as_xyz
  x,y,z
_cell_length_a	10.489741
_cell_length_b	16.956995
_cell_length_c	15.455313
_cell_angle_alpha	87.515363
_cell_angle_beta	92.692689
_cell_angle_gamma	80.296823
loop_
_atom_site_label
_atom_site_type_symbol
_atom_site_fract_x
_atom_site_fract_y
_atom_site_fract_z
O1	O	0.046882	1.061804	-0.072190
O2	O	0.091634	0.829903	-0.072179
O3	O	-0.116973	0.951130	-0.072180
O4	O	0.255489	0.940577	-0.072190
O5	O	-0.105090	0.944198	0.072082
O6	O	0.103517	0.822971	0.072083
O7	O	0.058765	1.054872	0.072072
Cu8	Cu	0.082226	0.938288	0.085250
Cu9	Cu	0.068173	0.946487	-0.085357
O10	O	0.267372	0.933645	0.072072
C11	C	0.099867	0.796742	-0.000046
C12	C	0.106679	0.708261	-0.000042
C13	C	0.157638	0.209255	-0.000076
C14	C	0.151227	0.292393	-0.000075
C15	C	0.030897	0.342790	-0.000065
C16	C	-0.083030	0.310045	-0.000065
C17	C	-0.076619	0.226908	-0.000072
C18	C	-0.000837	0.592379	-0.000049
C19	C	-0.007240	0.675521	-0.000039
C20	C	0.227018	0.657863	-0.000051
C21	C	0.233419	0.574725	-0.000053
C22	C	0.119492	0.541988	-0.000057
N23	N	0.024342	0.427771	-0.000061
N24	N	0.126048	0.457009	-0.000067
C25	C	-0.158468	0.946867	-0.000049
C26	C	-0.299811	0.944482	-0.000051
C27	C	-0.358685	0.867349	-0.000053
C28	C	-0.449326	0.900368	0.071074
C29	C	-0.461019	0.907221	-0.071157
C30	C	-0.388585	0.977530	0.071135
C31	C	-0.400272	0.984376	-0.071160
C32	C	-0.490891	1.017450	-0.000016
C33	C	0.308867	0.937908	-0.000060
C34	C	0.450209	0.940293	-0.000064
C35	C	0.050532	1.088033	-0.000063
C36	C	0.043719	1.176515	-0.000073
N37	N	0.092109	0.932528	0.205245
N38	N	0.058279	0.952254	-0.205353
C39	C	0.003514	0.984047	0.250639
C40	C	0.010998	0.979698	0.341447
C41	C	0.107085	0.923833	0.386859
C42	C	0.195684	0.872308	0.341459
C43	C	0.188193	0.876653	0.250653
C44	C	0.139387	0.905074	0.658441
C45	C	0.146874	0.900734	0.749254
C46	C	-0.037814	1.008124	0.749235
C47	C	-0.045292	1.012468	0.658427
C48	C	0.043303	0.960940	0.613035
N49	N	0.114741	0.919388	0.479680
N50	N	0.035641	0.965382	0.520216
H51	H	-0.093605	0.565735	-0.000050
H52	H	0.211527	0.863120	0.621490
H53	H	-0.356712	1.007246	0.131335
Br54	Br	-0.263225	0.761643	0.000063
H55	H	-0.169384	0.200254	-0.000072
Br56	Br	0.326082	0.796482	0.403087
Br57	Br	0.381625	0.702297	-0.000050
H58	H	-0.547937	1.080924	0.000021
Br59	Br	-0.486223	0.841159	0.171306
H60	H	0.225125	0.855239	0.786224
Br61	Br	-0.246338	0.378440	-0.000057
Br62	Br	-0.158046	1.078050	0.810842
Br63	Br	-0.363312	1.043546	-0.171396
H64	H	0.260335	0.834700	0.213694
Br65	Br	-0.514385	0.857618	-0.171375
H66	H	-0.074725	1.029542	0.213670
H67	H	-0.061143	1.021649	0.378406
Br68	Br	-0.175691	1.088289	0.596794
H69	H	0.255624	0.168226	-0.000077
H70	H	0.331405	0.533697	-0.000063
Br71	Br	0.305838	0.336823	-0.000087
H72	H	-0.105232	0.716553	-0.000036
