data_functionalizedCrystal
_audit_creation_method	'MofGen! by Chris Wilmer'
_symmetry_space_group_name_H-M	'P1'
_symmetry_Int_Tables_number	1
_symmetry_cell_setting	triclinic
loop_
_symmetry_equiv_pos_as_xyz
  x,y,z
_cell_length_a	10.686220
_cell_length_b	12.759394
_cell_length_c	12.759395
_cell_angle_alpha	90.008547
_cell_angle_beta	85.634296
_cell_angle_gamma	94.396533
loop_
_atom_site_label
_atom_site_type_symbol
_atom_site_fract_x
_atom_site_fract_y
_atom_site_fract_z
Zn1	Zn	1.928942	-0.295041	0.471001
Zn2	Zn	1.928880	-0.470691	0.295323
Zn3	Zn	1.717989	-0.308519	0.308789
Zn4	Zn	1.717908	-0.484180	0.484414
O5	O	1.823430	-0.389608	0.389882
O6	O	2.105511	-0.307056	0.436448
O7	O	1.900913	-0.449174	0.150088
O8	O	1.746031	-0.159706	0.330329
O9	O	2.105466	-0.436105	0.307378
O10	O	1.901018	-0.149804	0.449505
O11	O	1.745972	-0.330027	0.159981
O12	O	1.541401	-0.343107	0.343335
O13	O	1.745895	-0.459095	0.629656
O14	O	1.541342	-0.472164	0.472366
O15	O	1.900940	-0.320135	0.619802
O16	O	1.900835	-0.619505	0.320384
O17	O	1.745835	-0.629416	0.459309
C18	C	1.495587	-0.410562	0.410768
C19	C	1.355334	-0.419552	0.419729
C20	C	1.823354	-0.662580	0.389861
C21	C	1.823437	-0.779352	0.389880
C22	C	1.984960	-0.768971	0.245311
C23	C	2.065754	-0.818639	0.173036
C24	C	2.065828	-0.928356	0.173060
C25	C	1.985102	-0.988408	0.245368
C26	C	1.904307	-0.938739	0.317643
C27	C	1.904240	-0.829019	0.317609
C28	C	1.742793	-0.949119	0.462215
C29	C	1.742711	-0.839403	0.462188
C30	C	1.662067	-1.009171	0.534523
C31	C	1.581264	-0.959503	0.606794
C32	C	1.581193	-0.849779	0.606767
C33	C	1.661917	-0.789735	0.534463
C34	C	2.152553	-0.368572	0.368914
C35	C	2.292805	-0.359608	0.359979
C36	C	1.823415	-0.389616	0.663916
C37	C	1.823409	-0.389620	0.780693
C38	C	1.823540	-0.115567	0.389923
C39	C	1.823587	0.001212	0.389941
C40	C	1.984765	-0.513702	0.989815
C41	C	2.065429	-0.575735	0.929793
C42	C	2.065424	-0.575732	0.820072
C43	C	1.984743	-0.513691	0.770370
C44	C	1.904079	-0.451657	0.830392
C45	C	1.904095	-0.451665	0.940115
C46	C	1.742745	-0.327586	0.840715
C47	C	1.742754	-0.327583	0.950436
C48	C	1.662063	-0.265545	0.791014
C49	C	1.581403	-0.203504	0.851036
C50	C	1.581413	-0.203509	0.960763
C51	C	1.662090	-0.265549	1.010458
C52	C	1.823433	-0.389625	1.116914
C53	C	1.823435	-0.389624	1.000137
H54	H	1.346569	-0.301411	0.301969
Br55	Br	1.471928	-0.119321	1.042213
H56	H	2.131114	-0.626251	0.970272
H57	H	1.662111	-0.265554	1.099798
Br58	Br	1.471731	-1.041003	0.704925
H59	H	1.301564	-0.477760	0.477736
Br60	Br	1.985256	-0.620044	0.245574
H61	H	2.131624	-0.968795	0.114213
H62	H	2.131483	-0.769736	0.114166
Br63	Br	1.471924	-0.119311	0.783580
H64	H	1.985180	-1.077744	0.245390
Br65	Br	1.661575	-1.158110	0.534103
H66	H	1.515405	-0.809345	0.665625
H67	H	1.984789	-0.513700	1.079154
Br68	Br	2.174885	-0.659931	0.738609
Br69	Br	1.662230	-0.640806	0.534731
H70	H	1.984735	-0.513703	0.681030
Br71	Br	1.662052	-0.265542	0.642106
