data_functionalizedCrystal
_audit_creation_method	'MofGen! by Chris Wilmer'
_symmetry_space_group_name_H-M	'P1'
_symmetry_Int_Tables_number	1
_symmetry_cell_setting	triclinic
loop_
_symmetry_equiv_pos_as_xyz
  x,y,z
_cell_length_a	16.120530
_cell_length_b	18.050589
_cell_length_c	16.120256
_cell_angle_alpha	92.877403
_cell_angle_beta	90.128265
_cell_angle_gamma	87.123928
loop_
_atom_site_label
_atom_site_type_symbol
_atom_site_fract_x
_atom_site_fract_y
_atom_site_fract_z
Zn1	Zn	1.247404	-0.376262	-0.534589
Zn2	Zn	1.254344	-0.494483	-0.395538
Zn3	Zn	1.115396	-0.363709	-0.388506
Zn4	Zn	1.108300	-0.493803	-0.527508
O5	O	1.181361	-0.432065	-0.461535
O6	O	1.364690	-0.397483	-0.522050
O7	O	1.241786	-0.472167	-0.278239
O8	O	1.132972	-0.261454	-0.407905
O9	O	1.369789	-0.484340	-0.419890
O10	O	1.229958	-0.270677	-0.515232
O11	O	1.139701	-0.376088	-0.273073
O12	O	0.998089	-0.375428	-0.401038
O13	O	1.120879	-0.483180	-0.644814
O14	O	0.992875	-0.471007	-0.503162
O15	O	1.223078	-0.396823	-0.650016
O16	O	1.234905	-0.598314	-0.413024
O17	O	1.127608	-0.597814	-0.509981
C18	C	0.965310	-0.421782	-0.450569
C19	C	0.872881	-0.417402	-0.445898
C20	C	0.703652	-0.409388	-0.437376
C21	C	0.659907	-0.454798	-0.485756
C22	C	0.565742	-0.450339	-0.481014
C23	C	0.797826	-0.413846	-0.442116
C24	C	1.181261	-0.625011	-0.461516
C25	C	1.181293	-0.707560	-0.461540
C26	C	1.123000	-0.906767	-0.514249
C27	C	1.106577	-0.951987	-0.437343
C28	C	1.181374	-0.858694	-0.461555
C29	C	1.197838	-0.960558	-0.538472
C30	C	1.181451	-1.004684	-0.461576
C31	C	1.164914	-0.902823	-0.384607
C32	C	1.256206	-0.911394	-0.485789
C33	C	1.239815	-0.956591	-0.408832
C34	C	1.181328	-0.774593	-0.461544
C35	C	1.181498	-1.088783	-0.461579
C36	C	1.398256	-0.442388	-0.472545
C37	C	1.490683	-0.446787	-0.477236
C38	C	1.170413	-0.441326	-0.678431
C39	C	1.165747	-0.445273	-0.770859
C40	C	1.181483	-0.238366	-0.461574
C41	C	1.181535	-0.155823	-0.461590
C42	C	1.205689	-0.411464	-0.983841
C43	C	1.157201	-0.452447	-0.940079
C44	C	1.161958	-0.448454	-0.845916
C45	C	1.200934	-0.415455	-1.078013
C46	C	1.192314	-0.422788	-0.245486
C47	C	1.197141	-0.418639	-0.153067
H48	H	0.693175	-0.497023	-0.530737
H49	H	0.670386	-0.367167	-0.392399
N50	N	1.060986	-0.879330	-0.570061
N51	N	0.986297	-0.891348	-0.558547
H52	H	0.942498	-0.871971	-0.597961
N53	N	1.027227	-0.974532	-0.411639
N54	N	0.963701	-0.957728	-0.452591
H55	H	0.907657	-0.973647	-0.434443
N56	N	1.100645	-0.500220	-0.981801
N57	N	1.096813	-0.503437	-1.059344
H58	H	1.056874	-0.537177	-1.088815
N59	N	1.147380	-0.871287	-0.302994
N60	N	1.144481	-0.802371	-0.289822
H61	H	1.132090	-0.780095	-0.232186
H62	H	1.289216	-0.978322	-0.364225
H63	H	1.319438	-0.893402	-0.506303
N64	N	1.215257	-0.992199	-0.620063
N65	N	1.167979	-0.976917	-0.679028
H66	H	1.180274	-0.999262	-0.736654
N67	N	1.262238	-0.363691	-0.942119
N68	N	1.266067	-0.360479	-0.864577
H69	H	1.306005	-0.326742	-0.835101
