data_functionalizedCrystal
_audit_creation_method	'MofGen! by Chris Wilmer'
_symmetry_space_group_name_H-M	'P1'
_symmetry_Int_Tables_number	1
_symmetry_cell_setting	triclinic
loop_
_symmetry_equiv_pos_as_xyz
  x,y,z
_cell_length_a	12.759401
_cell_length_b	21.295417
_cell_length_c	12.759393
_cell_angle_alpha	89.961905
_cell_angle_beta	89.979062
_cell_angle_gamma	90.032032
loop_
_atom_site_label
_atom_site_type_symbol
_atom_site_fract_x
_atom_site_fract_y
_atom_site_fract_z
Zn1	Zn	1.606151	-0.250553	-0.593965
Zn2	Zn	2.106151	0.249447	-0.093965
Zn3	Zn	1.605994	-0.355835	-0.418261
Zn4	Zn	2.105994	0.144165	0.081739
Zn5	Zn	1.430450	-0.250587	-0.418300
Zn6	Zn	1.930450	0.249413	0.081700
Zn7	Zn	1.430393	-0.355791	-0.593899
Zn8	Zn	1.930393	0.144209	-0.093899
O9	O	1.518247	-0.303192	-0.506106
O10	O	2.018247	0.196808	-0.006106
O11	O	1.753151	-0.264523	-0.570669
O12	O	2.253151	0.235477	-0.070669
O13	O	1.582665	-0.341906	-0.271245
O14	O	2.082665	0.158094	0.228755
O15	O	1.453846	-0.162493	-0.441646
O16	O	1.953846	0.337507	0.058354
O17	O	1.753035	-0.341874	-0.441580
O18	O	2.253035	0.158126	0.058420
O19	O	1.582933	-0.162468	-0.570706
O20	O	2.082933	0.337532	-0.070706
O21	O	1.453694	-0.264581	-0.271274
O22	O	1.953694	0.235419	0.228726
O23	O	1.283421	-0.264538	-0.441582
O24	O	1.783421	0.235462	0.058418
O25	O	1.453750	-0.341799	-0.740929
O26	O	1.953750	0.158201	-0.240929
O27	O	1.283380	-0.341831	-0.570594
O28	O	1.783380	0.158169	-0.070594
O29	O	1.582879	-0.264481	-0.740977
O30	O	2.082879	0.235519	-0.240977
O31	O	1.582610	-0.443919	-0.441516
O32	O	2.082610	0.056081	0.058484
O33	O	1.453597	-0.443886	-0.570556
O34	O	1.953597	0.056114	-0.070556
C35	C	1.245279	-0.303184	-0.506085
C36	C	1.745279	0.196816	-0.006085
C37	C	1.128503	-0.303196	-0.506101
C38	C	1.628503	0.196804	-0.006101
C39	C	1.518109	-0.466743	-0.506048
C40	C	2.018109	0.033257	-0.006048
C41	C	1.518146	-0.536711	-0.506058
C42	C	2.018146	-0.036711	-0.006058
C43	C	1.073647	-0.343504	-0.573172
C44	C	1.573647	0.156496	-0.073172
C45	C	0.963923	-0.343506	-0.573193
C46	C	1.463923	0.156494	-0.073193
C47	C	0.963921	-0.262891	-0.439063
C48	C	1.463921	0.237109	0.060937
C49	C	1.073643	-0.262886	-0.439048
C50	C	1.573643	0.237114	0.060952
C51	C	1.585383	-0.569574	-0.438936
C52	C	2.085383	-0.069574	0.061064
C53	C	1.585432	-0.635316	-0.438960
C54	C	2.085432	-0.135316	0.061040
C55	C	1.518226	-0.668194	-0.506094
C56	C	2.018226	-0.168194	-0.006094
C57	C	1.450985	-0.635323	-0.573230
C58	C	1.950985	-0.135323	-0.073230
C59	C	1.450945	-0.569582	-0.573212
C60	C	1.950945	-0.069582	-0.073212
N61	N	1.426319	-0.771460	-0.514097
N62	N	1.926319	-0.271460	-0.014097
N63	N	1.426360	-0.833912	-0.514108
N64	N	1.926360	-0.333912	-0.014108
C65	C	1.518344	-0.866268	-0.506155
C66	C	2.018344	-0.366268	-0.006155
N67	N	1.610287	-0.833814	-0.498169
N68	N	2.110287	-0.333814	0.001831
N69	N	1.610245	-0.771357	-0.498153
N70	N	2.110245	-0.271357	0.001847
C71	C	1.518262	-0.739479	-0.506122
C72	C	2.018262	-0.239479	-0.006122
C73	C	1.585640	-0.970417	-0.439054
C74	C	2.085640	-0.470417	0.060946
C75	C	1.585691	-1.036160	-0.439085
C76	C	2.085691	-0.536160	0.060915
C77	C	1.451233	-1.036166	-0.573350
C78	C	1.951233	-0.536166	-0.073350
C79	C	1.451192	-0.970423	-0.573325
C80	C	1.951192	-0.470423	-0.073325
C81	C	1.518393	-0.937553	-0.506171
C82	C	2.018393	-0.437553	-0.006171
C83	C	1.792280	-0.303200	-0.506128
C84	C	2.292280	0.196800	-0.006128
C85	C	1.909057	-0.303203	-0.506137
C86	C	2.409057	0.196797	-0.006137
C87	C	1.518325	-0.303131	-0.780140
C88	C	2.018325	0.196869	-0.280140
C89	C	1.518359	-0.303105	-0.896916
C90	C	2.018359	0.196895	-0.396916
C91	C	1.518414	-0.139001	-0.506188
C92	C	2.018414	0.360999	-0.006188
C93	C	1.518485	-0.069033	-0.506222
C94	C	2.018485	0.430967	-0.006222
C95	C	1.585601	-0.262839	-0.951805
C96	C	2.085601	0.237161	-0.451805
C97	C	1.585619	-0.262812	-1.061529
C98	C	2.085619	0.237188	-0.561529
C99	C	1.451149	-0.343322	-1.061466
C100	C	1.951149	0.156678	-0.561466
C101	C	1.451127	-0.343346	-0.951744
C102	C	1.951127	0.156654	-0.451744
C103	C	1.518229	-0.303206	-0.233139
C104	C	2.018229	0.196794	0.266861
C105	C	1.518399	-0.303055	-0.116363
C106	C	2.018399	0.196945	0.383637
H107	H	1.118311	-0.376325	-0.627773
H108	H	1.618311	0.123675	-0.127773
H109	H	1.396414	-0.376086	-1.106120
H110	H	1.896414	0.123914	-0.606120
Cl111	Cl	1.670233	-1.077474	-0.354703
Cl112	Cl	2.170233	-0.577474	0.145297
H113	H	1.640363	-0.943652	-0.384377
H114	H	2.140363	-0.443652	0.115623
H115	H	1.640188	-0.662078	-0.384301
H116	H	2.140188	-0.162078	0.115699
Cl117	Cl	0.894965	-0.394180	-0.657516
Cl118	Cl	1.394965	0.105820	-0.157516
H119	H	1.640373	-0.230023	-1.106215
H120	H	2.140373	0.269977	-0.606215
Cl121	Cl	1.366410	-0.528267	-0.657600
Cl122	Cl	1.866410	-0.028267	-0.157600
H123	H	1.396267	-0.662096	-0.627893
H124	H	1.896267	-0.162096	-0.127893
H125	H	0.919240	-0.230073	-0.384470
H126	H	1.419240	0.269927	0.115530
Cl127	Cl	1.142610	-0.212205	-0.354731
Cl128	Cl	1.642610	0.287795	0.145269
H129	H	1.640105	-0.542812	-0.384258
H130	H	2.140105	-0.042812	0.115742
Cl131	Cl	1.366752	-1.077491	-0.657757
Cl132	Cl	1.866752	-0.577491	-0.157757
Cl133	Cl	1.366656	-0.929108	-0.657707
Cl134	Cl	1.866656	-0.429108	-0.157707
H135	H	1.640343	-0.230071	-0.907168
H136	H	2.140343	0.269929	-0.407168
Cl137	Cl	1.366581	-0.393967	-0.882735
Cl138	Cl	1.866581	0.106033	-0.382735
