data_functionalizedCrystal
_audit_creation_method	'MofGen! by Chris Wilmer'
_symmetry_space_group_name_H-M	'P1'
_symmetry_Int_Tables_number	1
_symmetry_cell_setting	triclinic
loop_
_symmetry_equiv_pos_as_xyz
  x,y,z
_cell_length_a	19.288864
_cell_length_b	15.944551
_cell_length_c	18.366186
_cell_angle_alpha	89.992809
_cell_angle_beta	89.977106
_cell_angle_gamma	83.317492
loop_
_atom_site_label
_atom_site_type_symbol
_atom_site_fract_x
_atom_site_fract_y
_atom_site_fract_z
O1	O	0.921629	0.104784	-0.060785
O2	O	0.719405	0.118919	-0.060735
O3	O	0.826039	-0.010445	-0.060755
O4	O	0.814995	0.234147	-0.060765
O5	O	0.826021	-0.010451	0.060345
O6	O	0.719387	0.118912	0.060364
O7	O	0.921611	0.104777	0.060315
Zn8	Zn	0.820496	0.111844	0.079567
Zn9	Zn	0.820520	0.111852	-0.079987
O10	O	0.814977	0.234141	0.060334
C11	C	0.693519	0.118461	-0.000179
C12	C	0.616411	0.117095	-0.000160
C13	C	0.571915	0.193000	-0.000175
C14	C	0.499465	0.191717	-0.000183
C15	C	0.471514	0.114526	-0.000191
C16	C	0.516020	0.038611	-0.000172
C17	C	0.588469	0.039896	-0.000156
C18	C	0.363098	0.053847	-0.042639
C19	C	0.290650	0.052565	-0.042659
C20	C	0.248058	0.110560	-0.000234
C21	C	0.277920	0.169850	0.042200
C22	C	0.350369	0.171135	0.042216
C23	C	0.392956	0.113124	-0.000207
C24	C	0.125002	0.185079	-0.000257
C25	C	0.052550	0.183793	-0.000260
C26	C	0.069107	0.030684	-0.000257
C27	C	0.141557	0.031972	-0.000246
C28	C	0.169500	0.109172	-0.000249
C29	C	0.825572	-0.041740	-0.000205
C30	C	0.824197	-0.134981	-0.000204
C31	C	0.754815	-0.349571	-0.000197
C32	C	0.787025	-0.410715	0.059504
C33	C	0.821710	-0.305697	-0.000209
C34	C	0.787058	-0.410692	-0.059890
C35	C	0.819303	-0.470601	-0.000217
C36	C	0.853939	-0.365614	0.059542
C37	C	0.853963	-0.365585	-0.059906
C38	C	0.886222	-0.426712	-0.000190
C39	C	0.823095	-0.210700	-0.000204
C40	C	0.817924	-0.565597	-0.000217
C41	C	0.947497	0.105235	-0.000243
C42	C	1.024605	0.106600	-0.000267
C43	C	0.815444	0.265436	-0.000217
C44	C	0.816819	0.358677	-0.000223
N45	N	0.820485	0.111838	0.188458
N46	N	0.820537	0.111852	-0.188878
C47	C	0.867718	0.054583	0.226549
C48	C	0.867722	0.054580	0.302777
C49	C	0.820500	0.111844	0.340910
C50	C	0.773258	0.169103	0.302810
C51	C	0.773251	0.169100	0.226583
C52	C	0.811404	0.188378	0.461669
C53	C	0.811416	0.188383	0.537894
C54	C	0.820520	0.111855	0.576018
C55	C	0.829626	0.035320	0.537908
C56	C	0.829618	0.035316	0.461681
C57	C	0.820503	0.111854	0.423565
C58	C	0.867760	0.054592	0.696765
C59	C	0.867760	0.054587	0.772994
C60	C	0.773299	0.169118	0.773025
C61	C	0.773296	0.169115	0.696797
C62	C	0.820531	0.111853	0.658671
H63	H	0.016321	0.245606	-0.000268
N64	N	0.454000	0.269254	-0.000188
N65	N	0.456512	0.320658	0.050856
H66	H	0.424403	0.375418	0.050852
N67	N	0.838906	-0.042863	0.576834
N68	N	0.796567	-0.095738	0.568339
H69	H	0.803120	-0.150954	0.595831
H70	H	0.906219	0.007963	0.665722
H71	H	0.699288	-0.316049	-0.000124
H72	H	0.734787	0.215724	0.195568
H73	H	0.837031	-0.027002	0.430655
H74	H	0.758763	-0.430658	-0.110366
H75	H	0.374680	0.219409	0.076770
N76	N	0.802122	0.266559	0.422736
N77	N	0.844467	0.319429	0.431222
H78	H	0.837917	0.374643	0.403725
N79	N	0.916000	-0.003924	0.811895
N80	N	0.915042	-0.081558	0.803377
H81	H	0.949111	-0.122888	0.830848
H82	H	0.734848	0.215741	0.804072
N83	N	0.889434	-0.340470	-0.123249
N84	N	0.866643	-0.354655	-0.185196
H85	H	0.891690	-0.336917	-0.229938
N86	N	0.916028	-0.003842	0.187618
N87	N	0.958236	-0.054912	0.221644
H88	H	0.992378	-0.096149	0.194148
N89	N	0.915974	-0.003915	0.341687
N90	N	0.958140	-0.055038	0.307637
H91	H	0.992218	-0.096351	0.335114
N92	N	0.234410	0.229111	0.085514
N93	N	0.169724	0.227966	0.085488
H94	H	0.138991	0.269825	0.116069
N95	N	0.260140	-0.007999	-0.085988
N96	N	0.195453	-0.009142	-0.085995
H97	H	0.173905	-0.051919	-0.116595
H98	H	0.941797	-0.460084	-0.000170
H99	H	0.397772	0.006619	-0.077190
N100	N	0.040577	-0.048174	-0.000272
N101	N	0.080319	-0.115943	-0.000267
H102	H	0.060168	-0.171640	-0.000276
H103	H	0.734838	0.215741	0.665781
N104	N	0.487461	-0.040231	-0.000173
N105	N	0.422774	-0.041369	-0.000186
H106	H	0.402604	-0.097054	-0.000183
H107	H	0.804006	0.250702	0.568917
H108	H	0.734808	0.215728	0.333861
H109	H	0.624699	-0.021917	-0.000145
H110	H	0.594661	0.255862	-0.000179
H111	H	0.177787	-0.029838	-0.000238
N112	N	0.153539	0.263939	-0.000256
N113	N	0.113797	0.331708	-0.000260
H114	H	0.133949	0.387405	-0.000258
H115	H	0.758723	-0.430717	0.109991
H116	H	0.882201	-0.345735	0.110070
