data_functionalizedCrystal
_audit_creation_method	'MofGen! by Chris Wilmer'
_symmetry_space_group_name_H-M	'P1'
_symmetry_Int_Tables_number	1
_symmetry_cell_setting	triclinic
loop_
_symmetry_equiv_pos_as_xyz
  x,y,z
_cell_length_a	14.044220
_cell_length_b	9.065218
_cell_length_c	7.540329
_cell_angle_alpha	89.996962
_cell_angle_beta	90.002479
_cell_angle_gamma	90.897619
loop_
_atom_site_label
_atom_site_type_symbol
_atom_site_fract_x
_atom_site_fract_y
_atom_site_fract_z
O1	O	-0.139141	1.975818	-0.147483
O2	O	0.194192	2.309152	0.185850
O3	O	0.527526	2.642485	0.519183
O4	O	-0.150554	1.547798	-0.147485
O5	O	0.182779	1.881132	0.185848
O6	O	0.516113	2.214465	0.519181
O7	O	-0.006808	1.755384	-0.147477
O8	O	0.326526	2.088717	0.185857
O9	O	0.659859	2.422050	0.519190
O10	O	-0.282887	1.768233	-0.147492
O11	O	0.050446	2.101566	0.185841
O12	O	0.383779	2.434900	0.519174
O13	O	-0.006806	1.755370	0.147488
O14	O	0.326528	2.088703	0.480822
O15	O	0.659861	2.422037	0.814155
O16	O	-0.150552	1.547785	0.147480
O17	O	0.182781	1.881118	0.480813
O18	O	0.516115	2.214451	0.814146
O19	O	-0.139139	1.975805	0.147482
O20	O	0.194194	2.309138	0.480815
O21	O	0.527528	2.642471	0.814148
Cu22	Cu	-0.144845	1.761793	0.174413
Cu23	Cu	0.188488	2.095127	0.507747
Cu24	Cu	0.521821	2.428460	0.841080
Cu25	Cu	-0.144848	1.761810	-0.174417
Cu26	Cu	0.188486	2.095143	0.158916
Cu27	Cu	0.521819	2.428476	0.492250
O28	O	-0.282885	1.768219	0.147473
O29	O	0.050448	2.101552	0.480806
O30	O	0.383781	2.434886	0.814140
C31	C	-0.149456	1.492683	-0.000003
C32	C	0.183877	1.826017	0.333330
C33	C	0.517211	2.159350	0.666663
C34	C	-0.146176	1.328477	-0.000004
C35	C	0.187157	1.661810	0.333329
C36	C	0.520490	1.995144	0.666663
C37	C	-0.318249	1.773850	-0.000012
C38	C	0.015084	2.107184	0.333322
C39	C	0.348418	2.440517	0.666655
C40	C	-0.423619	1.790627	-0.000018
C41	C	-0.090285	2.123961	0.333315
C42	C	0.243048	2.457294	0.666649
C43	C	-0.616544	1.821299	-0.000010
C44	C	-0.283210	2.154633	0.333323
C45	C	0.050123	2.487966	0.666657
C46	C	-0.673155	1.702310	-0.000009
C47	C	-0.339822	2.035644	0.333324
C48	C	-0.006488	2.368977	0.666658
C49	C	-0.780505	1.719376	-0.000005
C50	C	-0.447172	2.052710	0.333329
C51	C	-0.113838	2.386043	0.666662
C52	C	-0.509184	1.804235	-0.000015
C53	C	-0.175850	2.137569	0.333319
C54	C	0.157483	2.470902	0.666652
C55	C	0.028556	1.749752	0.000004
C56	C	0.361889	2.083086	0.333338
C57	C	0.695223	2.416419	0.666671
C58	C	0.133926	1.732975	-0.000001
C59	C	0.467259	2.066309	0.333332
C60	C	0.800592	2.399642	0.666666
C61	C	-0.140237	2.030920	-0.000004
C62	C	0.193096	2.364253	0.333329
C63	C	0.526430	2.697586	0.666662
C64	C	-0.143517	2.195126	-0.000015
C65	C	0.189817	2.528459	0.333318
C66	C	0.523150	2.861793	0.666651
N67	N	-0.144843	1.761793	0.419762
N68	N	0.188490	2.095126	0.753095
N69	N	0.521823	2.428459	1.086428
N70	N	-0.144842	1.761821	-0.419766
N71	N	0.188491	2.095154	-0.086432
N72	N	0.521824	2.428488	0.246901
H73	H	-0.641000	1.587623	-0.000009
H74	H	-0.307666	1.920957	0.333325
H75	H	0.025667	2.254290	0.666658
H76	H	-0.648697	1.935977	-0.000003
H77	H	-0.315364	2.269310	0.333331
H78	H	0.017969	2.602644	0.666664
