data_functionalizedCrystal
_audit_creation_method	'MofGen! by Chris Wilmer'
_symmetry_space_group_name_H-M	'P1'
_symmetry_Int_Tables_number	1
_symmetry_cell_setting	triclinic
loop_
_symmetry_equiv_pos_as_xyz
  x,y,z
_cell_length_a	15.944499
_cell_length_b	14.421503
_cell_length_c	15.944551
_cell_angle_alpha	90.003340
_cell_angle_beta	96.511826
_cell_angle_gamma	90.010221
loop_
_atom_site_label
_atom_site_type_symbol
_atom_site_fract_x
_atom_site_fract_y
_atom_site_fract_z
O1	O	1.114556	0.077169	-0.108114
O2	O	1.614556	0.577169	0.391886
O3	O	0.870001	0.077159	-0.121515
O4	O	1.370001	0.577159	0.378485
O5	O	0.998957	0.077156	0.007462
O6	O	1.498957	0.577156	0.507462
O7	O	0.985600	0.077172	-0.237090
O8	O	1.485600	0.577172	0.262910
O9	O	0.998935	-0.077067	0.007442
O10	O	1.498935	0.422933	0.507442
O11	O	0.869979	-0.077064	-0.121534
O12	O	1.369979	0.422936	0.378466
O13	O	1.114535	-0.077054	-0.108133
O14	O	1.614535	0.422946	0.391867
Cu15	Cu	0.992255	-0.091141	-0.114835
Cu16	Cu	1.492255	0.408859	0.385165
Cu17	Cu	0.992281	0.091246	-0.114813
Cu18	Cu	1.492281	0.591246	0.385187
O19	O	0.985579	-0.077051	-0.237110
O20	O	1.485579	0.422949	0.262890
C21	C	0.838695	0.000046	-0.120976
C22	C	1.338695	0.500046	0.379024
C23	C	0.745447	0.000042	-0.119331
C24	C	1.245447	0.500042	0.380669
N25	N	0.992244	-0.219422	-0.114851
N26	N	1.492244	0.280578	0.385149
C27	C	0.453911	0.000061	-0.194263
C28	C	0.953911	0.500061	0.305737
C29	C	0.514951	0.076100	-0.155302
C30	C	1.014951	0.576100	0.344698
C31	C	0.409810	0.000063	-0.113355
C32	C	0.909810	0.500063	0.386645
C33	C	0.514916	-0.075952	-0.155299
C34	C	1.014916	0.424048	0.344701
C35	C	0.574719	0.000051	-0.116296
C36	C	1.074719	0.500051	0.383704
C37	C	0.469622	0.076165	-0.074371
C38	C	0.969622	0.576165	0.425629
C39	C	0.469581	-0.075955	-0.074380
C40	C	0.969581	0.424045	0.425620
C41	C	0.530603	0.000102	-0.035360
C42	C	1.030603	0.500102	0.464640
C43	C	0.314810	0.000071	-0.111663
C44	C	0.814810	0.500071	0.388337
C45	C	0.669718	0.000050	-0.117981
C46	C	1.169718	0.500050	0.382019
C47	C	0.932604	-0.469075	-0.174463
C48	C	1.432604	0.030925	0.325537
C49	C	1.008506	-0.530873	-0.190756
C50	C	1.508506	-0.030873	0.309244
C51	C	0.992264	-0.408584	-0.114831
C52	C	1.492264	0.091416	0.385169
C53	C	0.916382	-0.530879	-0.098557
C54	C	1.416382	-0.030879	0.401443
C55	C	0.992277	-0.591305	-0.114813
C56	C	1.492277	-0.091305	0.385187
C57	C	1.068204	-0.469021	-0.131162
C58	C	1.568204	0.030979	0.368838
C59	C	0.976030	-0.469022	-0.038930
C60	C	1.476030	0.030978	0.461070
C61	C	1.051987	-0.530793	-0.055191
C62	C	1.551987	-0.030793	0.444809
C63	C	0.992255	-0.303323	-0.114843
C64	C	1.492255	0.196677	0.385157
C65	C	0.992294	-0.696564	-0.114800
C66	C	1.492294	-0.196564	0.385200
C67	C	1.145840	0.000061	-0.108672
C68	C	1.645840	0.500061	0.391328
C69	C	1.239089	0.000071	-0.110317
C70	C	1.739089	0.500071	0.389683
C71	C	0.998392	0.000044	0.038746
C72	C	1.498392	0.500044	0.538746
C73	C	0.996729	0.000044	0.131992
C74	C	1.496729	0.500044	0.631992
N75	N	0.992299	0.219527	-0.114791
N76	N	1.492299	0.719527	0.385209
C77	C	0.986144	0.000063	-0.268394
C78	C	1.486144	0.500063	0.231606
C79	C	0.987806	0.000069	-0.361640
C80	C	1.487806	0.500069	0.138360
C81	C	0.912823	0.000053	0.346833
C82	C	1.412823	0.500053	0.846833
C83	C	0.951776	-0.075987	0.407848
C84	C	1.451776	0.424013	0.907848
C85	C	0.993722	0.000051	0.302717
C86	C	1.493722	0.500051	0.802717
C87	C	0.951816	0.076065	0.407850
C88	C	1.451816	0.576065	0.907850
C89	C	0.990811	0.000061	0.467629
C90	C	1.490811	0.500061	0.967629
C91	C	1.032697	-0.076052	0.362504
C92	C	1.532697	0.423948	0.862504
C93	C	1.032726	0.076069	0.362500
C94	C	1.532726	0.576069	0.862500
C95	C	1.071737	0.000010	0.423497
C96	C	1.571737	0.500010	0.923497
C97	C	0.995397	0.000044	0.207715
C98	C	1.495397	0.500044	0.707715
C99	C	0.989143	0.000062	0.562630
C100	C	1.489143	0.500062	1.062630
H101	H	0.420581	0.000139	-0.261409
H102	H	0.920581	0.500139	0.238591
N103	N	0.574573	0.000138	0.053652
N104	N	1.074573	0.500138	0.553652
H105	H	0.557342	-0.056744	0.084448
H106	H	1.057342	0.443256	0.584448
H107	H	0.558108	0.057631	0.084039
H108	H	1.058108	0.557631	0.584039
H109	H	0.535058	0.140386	-0.189518
H110	H	1.035058	0.640386	0.310482
H111	H	1.138946	-0.000030	0.456668
H112	H	1.638946	0.499970	0.956668
H113	H	0.962264	-0.441833	0.025230
H114	H	1.462264	0.058167	0.525230
H115	H	0.449652	0.140523	-0.040174
H116	H	0.949652	0.640523	0.459826
N117	N	0.906452	-0.161144	0.434481
N118	N	1.406452	0.338856	0.934481
H119	H	0.936404	-0.218572	0.417178
H120	H	1.436404	0.281428	0.917178
H121	H	0.846436	-0.161013	0.406307
H122	H	1.346436	0.338987	0.906307
H123	H	1.132396	-0.441964	-0.144995
H124	H	1.632396	0.058036	0.355005
H125	H	1.022248	-0.558040	-0.254936
H126	H	1.522248	-0.058040	0.245064
H127	H	1.066922	0.140360	0.342384
H128	H	1.566922	0.640360	0.842384
N129	N	1.077976	-0.161299	0.336033
N130	N	1.577976	0.338701	0.836033
H131	H	1.078794	-0.160792	0.272788
H132	H	1.578794	0.339208	0.772788
H133	H	1.047616	-0.218617	0.352964
H134	H	1.547616	0.281383	0.852964
N135	N	0.865841	-0.433159	-0.241303
N136	N	1.365841	0.066841	0.258697
H137	H	0.808626	-0.456629	-0.229603
H138	H	1.308626	0.043371	0.270397
H139	H	0.878294	-0.455664	-0.298583
H140	H	1.378294	0.044336	0.201417
H141	H	1.102500	-0.557722	-0.004751
H142	H	1.602500	-0.057722	0.495249
N143	N	0.831377	-0.566881	-0.080331
N144	N	1.331377	-0.066881	0.419669
H145	H	0.786354	-0.544432	-0.125422
H146	H	1.286354	-0.044432	0.374578
H147	H	0.818719	-0.543412	-0.023427
H148	H	1.318719	-0.043412	0.476573
N149	N	0.906490	0.161213	0.434469
N150	N	1.406490	0.661213	0.934469
H151	H	0.846472	0.161138	0.406293
H152	H	1.346472	0.661138	0.906293
H153	H	0.936510	0.218602	0.417169
H154	H	1.436510	0.718602	0.917169
N155	N	0.823877	-0.000039	0.302695
N156	N	1.323877	0.499961	0.802695
H157	H	0.793420	-0.057535	0.319061
H158	H	1.293420	0.442465	0.819061
H159	H	0.825693	0.000585	0.239588
H160	H	1.325693	0.500585	0.739588
H161	H	0.449455	-0.140247	-0.040195
H162	H	0.949455	0.359753	0.459805
N163	N	0.541496	-0.161101	-0.200655
N164	N	1.041496	0.338899	0.299345
H165	H	0.524186	-0.218537	-0.170710
H166	H	1.024186	0.281463	0.329290
H167	H	0.604801	-0.160702	-0.200969
H168	H	1.104801	0.339298	0.299031
