data_functionalizedCrystal
_audit_creation_method	'MofGen! by Chris Wilmer'
_symmetry_space_group_name_H-M	'P1'
_symmetry_Int_Tables_number	1
_symmetry_cell_setting	triclinic
loop_
_symmetry_equiv_pos_as_xyz
  x,y,z
_cell_length_a	6.817900
_cell_length_b	11.452732
_cell_length_c	12.200875
_cell_angle_alpha	81.381146
_cell_angle_beta	107.143593
_cell_angle_gamma	108.697210
loop_
_atom_site_label
_atom_site_type_symbol
_atom_site_fract_x
_atom_site_fract_y
_atom_site_fract_z
V1	V	-4.076243	-0.169166	-0.323891
V2	V	-3.576243	0.330834	0.176109
O3	O	-4.054672	0.007844	-0.352418
O4	O	-3.554672	0.507844	0.147582
O5	O	-4.035253	-0.335153	-0.288310
O6	O	-3.535253	0.164847	0.211690
O7	O	-4.045850	-0.166689	-0.480374
O8	O	-3.545850	0.333311	0.019626
O9	O	-4.044001	-0.161786	-0.159025
O10	O	-3.544001	0.338214	0.340975
V11	V	-4.556578	-0.147978	-0.308225
V12	V	-4.056578	0.352022	0.191775
O13	O	-4.344496	-0.215641	-0.358256
O14	O	-3.844496	0.284359	0.141744
O15	O	-4.738522	-0.101503	-0.273860
O16	O	-4.238522	0.398497	0.226140
O17	O	-4.374361	0.018009	-0.343806
O18	O	-3.874361	0.518009	0.156194
O19	O	-4.695546	-0.324988	-0.279698
O20	O	-4.195546	0.175012	0.220302
O21	O	-4.706216	-0.155358	-0.473092
O22	O	-4.206216	0.344642	0.026908
O23	O	-4.363764	-0.150455	-0.151742
O24	O	-3.863764	0.349545	0.348258
C25	C	-3.881474	-0.375613	-0.274591
C26	C	-3.381474	0.124387	0.225409
C27	C	-3.929366	-0.511310	-0.246542
C28	C	-3.429366	-0.011310	0.253458
C29	C	-4.001345	-0.588451	-0.330547
C30	C	-3.501345	-0.088451	0.169453
C31	C	-4.050845	-0.728702	-0.301560
C32	C	-3.550845	-0.228702	0.198440
C33	C	-3.894990	-0.160719	-0.519586
C34	C	-3.394990	0.339281	-0.019586
C35	C	-3.951473	-0.159792	-0.647293
C36	C	-3.451473	0.340208	-0.147293
C37	C	-4.054845	-0.158096	-0.881105
C38	C	-3.554845	0.341904	-0.381105
C39	C	-3.997313	-0.159039	-0.750995
C40	C	-3.497313	0.340961	-0.250995
C41	C	-4.191482	0.058462	-0.357521
C42	C	-3.691482	0.558462	0.142479
C43	C	-4.122829	0.194158	-0.385577
C44	C	-3.622829	0.694158	0.114423
C45	C	-4.177965	-0.156429	-0.112523
C46	C	-3.677965	0.343571	0.387477
C47	C	-4.100721	-0.157350	0.015183
C48	C	-3.600721	0.342650	0.515183
H49	H	-4.026310	-0.550662	-0.423928
H50	H	-3.526310	-0.050662	0.076072
Br51	Br	-4.009177	-0.791663	-0.145906
Br52	Br	-3.509177	-0.291663	0.354094
H53	H	-3.904376	-0.549098	-0.153161
H54	H	-3.404376	-0.049098	0.346839
H55	H	-4.147802	-0.768061	-0.478964
H56	H	-3.647802	-0.268061	0.021036
