data_functionalizedCrystal
_audit_creation_method	'MofGen! by Chris Wilmer'
_symmetry_space_group_name_H-M	'P1'
_symmetry_Int_Tables_number	1
_symmetry_cell_setting	triclinic
loop_
_symmetry_equiv_pos_as_xyz
  x,y,z
_cell_length_a	12.594517
_cell_length_b	25.639240
_cell_length_c	12.594509
_cell_angle_alpha	90.041310
_cell_angle_beta	90.021327
_cell_angle_gamma	90.032557
loop_
_atom_site_label
_atom_site_type_symbol
_atom_site_fract_x
_atom_site_fract_y
_atom_site_fract_z
Zn1	Zn	1.627143	-0.208138	0.601763
Zn2	Zn	1.626982	-0.295580	0.423744
Zn3	Zn	1.449147	-0.208160	0.423792
Zn4	Zn	1.449078	-0.295544	0.601674
O5	O	1.538088	-0.251855	0.512743
O6	O	1.776068	-0.219743	0.578166
O7	O	1.603354	-0.284008	0.274805
O8	O	1.472855	-0.134992	0.447458
O9	O	1.775949	-0.283987	0.447376
O10	O	1.603628	-0.134976	0.578212
O11	O	1.472699	-0.219781	0.274840
O12	O	1.300192	-0.219746	0.447371
O13	O	1.472737	-0.283925	0.750632
O14	O	1.300141	-0.283946	0.578060
O15	O	1.603561	-0.219708	0.750697
O16	O	1.603286	-0.368740	0.447289
O17	O	1.472580	-0.368714	0.578014
C18	C	1.261547	-0.251845	0.512712
C19	C	1.143241	-0.251853	0.512724
C20	C	1.073985	-0.216887	0.441778
C21	C	1.003146	-0.264579	0.415576
C22	C	1.003282	-0.204184	0.538944
C23	C	1.073960	-0.299570	0.486471
C24	C	1.074102	-0.239144	0.609885
C25	C	1.003295	-0.286869	0.583720
C26	C	1.537937	-0.387698	0.512660
C27	C	1.537970	-0.445812	0.512660
C28	C	1.606215	-0.806128	0.580950
C29	C	1.606246	-0.860732	0.580972
O30	O	1.664091	-0.888929	0.638949
N31	N	1.538235	-0.888094	0.512846
C32	C	1.470181	-0.860849	0.444702
O33	O	1.412334	-0.889137	0.386759
C34	C	1.470145	-0.806246	0.444687
C35	C	1.538168	-0.778887	0.512809
C36	C	1.674232	-0.778769	0.649068
C37	C	1.674201	-0.724168	0.649045
C38	C	1.606154	-0.696927	0.580904
C39	C	1.538138	-0.724286	0.512786
C40	C	1.402086	-0.779002	0.376549
C41	C	1.402055	-0.724395	0.376540
C42	C	1.470078	-0.697036	0.444662
C43	C	1.470060	-0.642445	0.444622
N44	N	1.538071	-0.615083	0.512747
C45	C	1.606118	-0.642324	0.580888
C46	C	1.470260	-0.975520	0.444741
C47	C	1.470301	-1.030122	0.444751
C48	C	1.606365	-1.030002	0.581022
C49	C	1.606329	-0.975398	0.581006
C50	C	1.538271	-0.948158	0.512867
C51	C	1.606050	-0.527659	0.580833
C52	C	1.606017	-0.473053	0.580801
C53	C	1.469949	-0.473179	0.444534
C54	C	1.469986	-0.527780	0.444562
C55	C	1.538040	-0.555018	0.512720
O56	O	1.412242	-0.614213	0.386677
O57	O	1.663945	-0.614029	0.638832
C58	C	1.815708	-0.251866	0.512775
C59	C	1.934014	-0.251871	0.512789
C60	C	1.538159	-0.251810	0.790364
C61	C	1.538189	-0.251790	0.908670
C62	C	1.538268	-0.115482	0.512850
C63	C	1.538344	-0.057368	0.512896
C64	C	1.538078	-0.251863	0.236202
C65	C	1.538254	-0.251736	0.117898
C66	C	1.467056	-0.286698	0.977888
C67	C	1.564169	-0.299473	1.048672
C68	C	1.441152	-0.238984	1.048685
C69	C	1.635353	-0.264590	0.977896
C70	C	1.512270	-0.204079	0.977903
C71	C	1.609450	-0.216836	1.048655
H72	H	1.661414	-0.450779	0.636274
H73	H	1.346694	-0.801269	0.321076
C74	C	1.331792	-0.224494	1.090291
C75	C	1.339255	-0.179011	1.151440
C76	C	1.238536	-0.165657	1.189793
H77	H	1.285114	-0.218676	1.032243
H78	H	1.305092	-0.252105	1.132897
H79	H	1.365941	-0.151406	1.108836
H80	H	1.385913	-0.184817	1.209504
H81	H	1.211836	-0.193268	1.232399
H82	H	1.191866	-0.159841	1.131739
H83	H	1.243588	-0.134798	1.231295
C84	C	1.744930	-0.279053	0.936828
C85	C	1.812991	-0.287985	1.022831
C86	C	1.913941	-0.301304	0.985038
H87	H	1.740116	-0.309759	0.894852
H88	H	1.772066	-0.251316	0.894840
H89	H	1.785862	-0.315720	1.064802
H90	H	1.817838	-0.257286	1.064815
H91	H	1.941076	-0.273567	0.943050
H92	H	1.909115	-0.332009	0.943062
H93	H	1.960135	-0.307361	1.043385
H94	H	1.105024	-0.187346	0.381707
C95	C	1.689880	-0.177436	1.089622
C96	C	1.740284	-0.153349	1.003558
C97	C	1.814396	-0.117060	1.041255
H98	H	1.654595	-0.151817	1.131132
H99	H	1.741263	-0.194783	1.132053
H100	H	1.688908	-0.136003	0.961145
H101	H	1.775590	-0.178955	0.962039
H102	H	1.865779	-0.134407	1.083686
H103	H	1.779102	-0.091444	1.082765
H104	H	1.848611	-0.100716	0.982867
C105	C	1.115321	-0.353345	0.456977
C106	C	1.177290	-0.372846	0.540276
C107	C	1.215422	-0.422377	0.513136
H108	H	1.057168	-0.376151	0.444509
H109	H	1.157325	-0.350906	0.394534
H110	H	1.135288	-0.375288	0.602701
H111	H	1.235459	-0.350054	0.552756
H112	H	1.257426	-0.419938	0.450693
H113	H	1.157263	-0.445178	0.500667
H114	H	1.257480	-0.435613	0.569645
C115	C	0.961639	-0.278828	0.305980
C116	C	0.997425	-0.242081	0.231987
C117	C	0.959203	-0.255182	0.131019
H118	H	0.986854	-0.312439	0.286743
H119	H	0.886211	-0.279020	0.306916
H120	H	1.072837	-0.241894	0.231048
H121	H	0.972213	-0.208466	0.251189
H122	H	0.883775	-0.255374	0.131955
H123	H	0.984420	-0.288795	0.111793
H124	H	0.983470	-0.230249	0.080804
C125	C	1.680358	-1.059490	0.655053
C126	C	1.739939	-1.023847	0.714698
C127	C	1.808118	-1.050994	0.782891
H128	H	1.639740	-1.080789	0.701487
H129	H	1.726824	-1.080778	0.614410
H130	H	1.693479	-1.002568	0.755338
H131	H	1.780578	-1.002546	0.668292
H132	H	1.854585	-1.072282	0.742248
H133	H	1.767492	-1.072292	0.829318
H134	H	1.848559	-1.026814	0.823361
C135	C	0.962309	-0.326311	0.663911
C136	C	0.999873	-0.313309	0.765176
C137	C	0.962150	-0.349636	0.839067
H138	H	0.886892	-0.325934	0.664054
H139	H	0.986674	-0.360153	0.645205
H140	H	0.975502	-0.279475	0.783877
H141	H	1.075285	-0.313689	0.765067
H142	H	0.986515	-0.383479	0.820361
H143	H	0.886734	-0.349257	0.839200
H144	H	0.987639	-0.340822	0.907782
C145	C	1.115643	-0.224671	0.719339
C146	C	1.079918	-0.174692	0.746349
C147	C	1.118178	-0.161333	0.847163
H148	H	1.090412	-0.249119	0.770048
H149	H	1.191070	-0.225055	0.718687
H150	H	1.004507	-0.174312	0.747009
H151	H	1.105146	-0.150232	0.695666
H152	H	1.193605	-0.161717	0.846511
H153	H	1.092945	-0.185785	0.897863
H154	H	1.093953	-0.127420	0.865498
H155	H	1.729644	-0.800943	0.704563
H156	H	0.972179	-0.163870	0.561057
C157	C	1.680049	-0.557132	0.654878
C158	C	1.739617	-0.521476	0.714503
C159	C	1.807806	-0.548607	0.782711
H160	H	1.639440	-0.578429	0.701323
H161	H	1.726524	-0.578422	0.614246
H162	H	1.693149	-0.500195	0.755131
H163	H	1.780249	-0.500178	0.668085
H164	H	1.854281	-0.569897	0.742079
H165	H	1.767188	-0.569903	0.829149
H166	H	1.848238	-0.524419	0.823167
C167	C	1.396389	-1.059889	0.370955
C168	C	1.328164	-1.091246	0.431166
C169	C	1.260062	-1.118676	0.363225
H170	H	1.355761	-1.035899	0.330350
H171	H	1.437105	-1.081224	0.324636
H172	H	1.287451	-1.069912	0.477467
H173	H	1.368762	-1.115245	0.471769
H174	H	1.300779	-1.140012	0.316906
H175	H	1.219442	-1.094682	0.322624
H176	H	1.213770	-1.139958	0.404068
H177	H	1.729588	-0.701895	0.704519
C178	C	1.680002	-0.945629	0.655037
C179	C	1.619679	-0.914271	0.723180
C180	C	1.687511	-0.886838	0.791386
H181	H	1.720556	-0.969617	0.695719
H182	H	1.726372	-0.924293	0.614392
H183	H	1.573328	-0.935605	0.763821
H184	H	1.579127	-0.890273	0.682527
H185	H	1.733881	-0.865502	0.750741
H186	H	1.728062	-0.910830	0.832061
H187	H	1.646592	-0.865555	0.837623
C188	C	1.396334	-0.946042	0.370628
C189	C	1.336808	-0.981696	0.310957
C190	C	1.268706	-0.954563	0.242665
H191	H	1.349821	-0.924741	0.411167
H192	H	1.437037	-0.924755	0.324222
H193	H	1.296108	-1.002974	0.357356
H194	H	1.383293	-1.002998	0.270395
H195	H	1.309409	-0.933277	0.196260
H196	H	1.222200	-0.933264	0.283213
H197	H	1.228316	-0.978751	0.202163
C198	C	1.482813	-0.150374	0.936257
C199	C	1.391333	-0.154214	0.873530
C200	C	1.364162	-0.104753	0.835134
H201	H	1.469675	-0.127592	0.994286
H202	H	1.539574	-0.137003	0.894713
H203	H	1.334585	-0.167578	0.915073
H204	H	1.404446	-0.176987	0.815486
H205	H	1.420923	-0.091383	0.793589
H206	H	1.351029	-0.081975	0.893169
H207	H	1.302096	-0.107353	0.792561
H208	H	1.346631	-0.702219	0.321054
H209	H	1.414605	-0.550057	0.389083
H210	H	1.414549	-0.450991	0.389051
C211	C	1.387049	-0.326201	0.936505
C212	C	1.414722	-0.376056	0.972346
C213	C	1.341057	-0.412460	0.934234
H214	H	1.318226	-0.317524	0.961760
H215	H	1.387144	-0.325759	0.861077
H216	H	1.414615	-0.376496	1.047758
H217	H	1.483532	-0.384748	0.947094
H218	H	1.341153	-0.412018	0.858806
H219	H	1.272239	-0.403779	0.959491
H220	H	1.359829	-0.446291	0.958537
H221	H	1.586127	-0.339798	1.079758
