data_functionalizedCrystal
_audit_creation_method	'MofGen! by Chris Wilmer'
_symmetry_space_group_name_H-M	'P1'
_symmetry_Int_Tables_number	1
_symmetry_cell_setting	triclinic
loop_
_symmetry_equiv_pos_as_xyz
  x,y,z
_cell_length_a	17.699077
_cell_length_b	11.792254
_cell_length_c	16.176319
_cell_angle_alpha	89.993043
_cell_angle_beta	89.993140
_cell_angle_gamma	83.739587
loop_
_atom_site_label
_atom_site_type_symbol
_atom_site_fract_x
_atom_site_fract_y
_atom_site_fract_z
O1	O	1.004851	0.143494	-0.068736
O2	O	0.784572	0.162174	-0.068740
O3	O	0.900052	-0.012400	-0.068732
O4	O	0.889371	0.318068	-0.068744
O5	O	0.900036	-0.012411	0.068761
O6	O	0.784556	0.162163	0.068753
O7	O	1.004835	0.143483	0.068757
Cu8	Cu	0.894694	0.152822	0.081309
Cu9	Cu	0.894713	0.152835	-0.081292
O10	O	0.889355	0.318057	0.068749
C11	C	0.756363	0.161500	0.000006
C12	C	0.672334	0.159496	0.000005
C13	C	0.632853	0.158545	0.074953
C14	C	0.553900	0.156643	0.074954
C15	C	0.514429	0.155700	0.000006
C16	C	0.553916	0.156648	-0.074949
C17	C	0.632868	0.158541	-0.074949
C18	C	0.235512	0.149010	-0.074950
C19	C	0.156554	0.147120	-0.074944
C20	C	0.156544	0.147112	0.074953
C21	C	0.235496	0.149006	0.074953
C22	C	0.274977	0.149947	-0.000001
C23	C	0.360586	0.152007	-0.000001
C24	C	0.428821	0.153649	0.000005
C25	C	0.899371	-0.054688	0.000014
C26	C	0.897357	-0.180677	0.000013
C27	C	0.895721	-0.282994	0.000011
C28	C	0.893675	-0.411356	0.000003
C29	C	1.033043	0.144156	0.000009
C30	C	1.117072	0.146161	0.000005
C31	C	0.890036	0.360345	0.000001
C32	C	0.892050	0.486333	-0.000004
N33	N	0.894686	0.152812	0.195675
N34	N	0.894727	0.152836	-0.195657
C35	C	0.945836	0.075542	0.238942
C36	C	0.945840	0.075541	0.325489
C37	C	0.894697	0.152816	0.368767
C38	C	0.843541	0.230089	0.325493
C39	C	0.843534	0.230084	0.238948
C40	C	0.843567	0.230110	0.674522
C41	C	0.843579	0.230112	0.761073
C42	C	0.945873	0.075567	0.761063
C43	C	0.945866	0.075562	0.674518
C44	C	0.894708	0.152831	0.631251
C45	C	0.894704	0.152830	0.537407
C46	C	0.894704	0.152823	0.462610
H47	H	0.665013	0.159317	-0.135979
H48	H	0.987526	0.012647	0.796300
H49	H	0.987514	0.012642	0.639284
O50	O	0.995546	0.000367	0.197034
C51	C	1.097039	-0.152885	0.206169
C52	C	1.040772	-0.067823	0.253729
H53	H	1.133630	-0.208022	0.251986
H54	H	1.064168	-0.209603	0.165688
H55	H	1.135012	-0.103937	0.165613
H56	H	1.002786	-0.116677	0.294330
H57	H	1.073691	-0.011106	0.294158
O58	O	0.118333	0.146150	-0.147827
C59	C	0.126665	0.146413	-0.296511
C60	C	0.170048	0.147483	-0.214037
H61	H	0.168456	0.147515	-0.350063
H62	H	0.096324	0.066115	-0.300304
H63	H	0.083083	0.224907	-0.300217
H64	H	0.213666	0.069044	-0.210276
H65	H	0.200337	0.227833	-0.210279
H66	H	0.987490	0.012621	0.360718
H67	H	0.801930	0.293041	0.796309
H68	H	0.801914	0.293027	0.639301
H69	H	0.521774	0.155872	-0.135973
O70	O	0.793933	0.305112	0.367659
C71	C	0.748578	0.373576	0.500988
C72	C	0.804811	0.288564	0.453342
H73	H	0.757343	0.360211	0.570271
H74	H	0.758811	0.464486	0.484018
H75	H	0.687907	0.358912	0.483940
H76	H	0.865504	0.303124	0.470365
H77	H	0.794512	0.197684	0.470317
H78	H	0.801882	0.293003	0.203720
H79	H	0.521760	0.155850	0.135985
O80	O	0.671079	0.159406	0.147833
C81	C	0.662722	0.159255	0.296516
C82	C	0.619342	0.158257	0.214037
H83	H	0.620909	0.158351	0.350063
H84	H	0.706267	0.080725	0.300322
H85	H	0.693105	0.239519	0.300218
H86	H	0.588913	0.078046	0.210279
H87	H	0.575840	0.236841	0.210266
H88	H	0.124390	0.146341	0.135984
O89	O	0.273819	0.149717	0.147779
C90	C	0.306099	0.052024	0.275922
C91	C	0.262679	0.051069	0.193467
H92	H	0.297095	-0.027711	0.312891
H93	H	0.369325	0.053468	0.263098
H94	H	0.283977	0.131080	0.312848
H95	H	0.284737	-0.027974	0.156500
H96	H	0.199459	0.049686	0.206350
O97	O	0.273923	0.150090	-0.147706
C98	C	0.354849	0.250558	-0.234741
C99	C	0.311396	0.249462	-0.152302
H100	H	0.385144	0.330904	-0.238491
H101	H	0.398460	0.172103	-0.238507
H102	H	0.313060	0.249510	-0.288288
H103	H	0.353128	0.250550	-0.098708
H104	H	0.267774	0.327910	-0.148608
