data_functionalizedCrystal
_audit_creation_method	'MofGen! by Chris Wilmer'
_symmetry_space_group_name_H-M	'P1'
_symmetry_Int_Tables_number	1
_symmetry_cell_setting	triclinic
loop_
_symmetry_equiv_pos_as_xyz
  x,y,z
_cell_length_a	12.759401
_cell_length_b	16.959454
_cell_length_c	12.759393
_cell_angle_alpha	89.969286
_cell_angle_beta	89.981504
_cell_angle_gamma	90.020236
loop_
_atom_site_label
_atom_site_type_symbol
_atom_site_fract_x
_atom_site_fract_y
_atom_site_fract_z
Zn1	Zn	1.606216	-0.314632	-0.593988
Zn2	Zn	2.106216	0.185368	-0.093988
Zn3	Zn	1.606094	-0.446833	-0.418310
Zn4	Zn	2.106094	0.053167	0.081690
Zn5	Zn	1.430518	-0.314673	-0.418327
Zn6	Zn	1.930518	0.185327	0.081673
Zn7	Zn	1.430490	-0.446772	-0.593952
Zn8	Zn	1.930490	0.053228	-0.093952
O9	O	1.518330	-0.380727	-0.506144
O10	O	2.018330	0.119273	-0.006144
O11	O	1.753221	-0.332177	-0.570692
O12	O	2.253221	0.167823	-0.070692
O13	O	1.582764	-0.429345	-0.271291
O14	O	2.082764	0.070655	0.228709
O15	O	1.453888	-0.204057	-0.441651
O16	O	1.953888	0.295943	0.058349
O17	O	1.753131	-0.429304	-0.441622
O18	O	2.253131	0.070696	0.058378
O19	O	1.582972	-0.204026	-0.570708
O20	O	2.082972	0.295974	-0.070708
O21	O	1.453769	-0.332247	-0.271304
O22	O	1.953769	0.167753	0.228696
O23	O	1.283493	-0.332188	-0.441616
O24	O	1.783493	0.167812	0.058384
O25	O	1.453840	-0.429201	-0.740978
O26	O	1.953840	0.070799	-0.240978
O27	O	1.283473	-0.429241	-0.570647
O28	O	1.783473	0.070759	-0.070647
O29	O	1.582945	-0.332118	-0.741004
O30	O	2.082945	0.167882	-0.241004
O31	O	1.582737	-0.557436	-0.441588
O32	O	2.082737	-0.057436	0.058412
O33	O	1.453722	-0.557391	-0.570631
O34	O	1.953722	-0.057391	-0.070631
C35	C	1.245362	-0.380713	-0.506130
C36	C	1.745362	0.119287	-0.006130
C37	C	1.128586	-0.380726	-0.506149
C38	C	1.628586	0.119274	-0.006149
C39	C	1.518242	-0.586094	-0.506126
C40	C	2.018242	-0.086094	-0.006126
C41	C	1.518300	-0.673950	-0.506154
C42	C	2.018300	-0.173950	-0.006154
C43	C	1.073740	-0.431342	-0.573224
C44	C	1.573740	0.068658	-0.073224
C45	C	0.964016	-0.431352	-0.573235
C46	C	1.464016	0.068648	-0.073235
C47	C	0.963992	-0.330127	-0.439087
C48	C	1.463992	0.169873	0.060913
C49	C	1.073714	-0.330114	-0.439082
C50	C	1.573714	0.169886	0.060918
C51	C	1.128612	-0.481954	-0.640291
C52	C	1.628612	0.018046	-0.140291
C53	C	1.073766	-0.532575	-0.707370
C54	C	1.573766	-0.032575	-0.207370
C55	C	0.964042	-0.532585	-0.707382
C56	C	1.464042	-0.032585	-0.207382
C57	C	0.909164	-0.481974	-0.640313
C58	C	1.409164	0.018026	-0.140313
C59	C	1.451249	-1.045433	-0.573330
C60	C	1.951249	-0.545433	-0.073330
C61	C	1.585703	-1.045419	-0.439066
C62	C	2.085703	-0.545419	0.060934
C63	C	1.585666	-0.962873	-0.439056
C64	C	2.085666	-0.462873	0.060944
C65	C	1.518419	-0.921603	-0.506183
C66	C	2.018419	-0.421603	-0.006183
C67	C	1.451208	-0.962879	-0.573320
C68	C	1.951208	-0.462879	-0.073320
C69	C	1.652869	-0.921591	-0.371913
C70	C	2.152869	-0.421591	0.128087
C71	C	1.652834	-0.839040	-0.371900
C72	C	2.152834	-0.339040	0.128100
C73	C	1.585591	-0.797769	-0.439033
C74	C	2.085591	-0.297769	0.060967
C75	C	1.518378	-0.839050	-0.506173
C76	C	2.018378	-0.339050	-0.006173
C77	C	1.451130	-0.797780	-0.573300
C78	C	1.951130	-0.297780	-0.073300
C79	C	1.383922	-0.839059	-0.640447
C80	C	1.883922	-0.339059	-0.140447
C81	C	1.383965	-0.921607	-0.640453
C82	C	1.883965	-0.421607	-0.140453
C83	C	1.585548	-0.715220	-0.439027
C84	C	2.085548	-0.215220	0.060973
C85	C	1.451089	-0.715226	-0.573291
C86	C	1.951089	-0.215226	-0.073291
C87	C	1.792363	-0.380743	-0.506159
C88	C	2.292363	0.119257	-0.006159
C89	C	1.909140	-0.380749	-0.506165
C90	C	2.409140	0.119251	-0.006165
C91	C	1.518403	-0.380648	-0.780178
C92	C	2.018403	0.119352	-0.280178
C93	C	1.518435	-0.380614	-0.896954
C94	C	2.018435	0.119386	-0.396954
C95	C	1.518447	-0.174559	-0.506185
C96	C	2.018447	0.325441	-0.006185
C97	C	1.518496	-0.086703	-0.506203
C98	C	2.018496	0.413297	-0.006203
C99	C	1.585669	-0.330058	-0.951832
C100	C	2.085669	0.169942	-0.451832
C101	C	1.585694	-0.330029	-1.061556
C102	C	2.085694	0.169971	-0.561556
C103	C	1.451247	-0.431119	-1.061516
C104	C	1.951247	0.068881	-0.561516
C105	C	1.451218	-0.431143	-0.951793
C106	C	1.951218	0.068857	-0.451793
C107	C	1.652886	-0.279528	-0.896993
C108	C	2.152886	0.220472	-0.396993
C109	C	1.720126	-0.228968	-0.951870
C110	C	2.220126	0.271032	-0.451870
C111	C	1.720151	-0.228940	-1.061594
C112	C	2.220151	0.271060	-0.561594
C113	C	1.652935	-0.279471	-1.116441
C114	C	2.152935	0.220529	-0.616441
C115	C	1.518317	-0.380750	-0.233177
C116	C	2.018317	0.119250	0.266823
C117	C	1.518489	-0.380561	-0.116401
C118	C	2.018489	0.119439	0.383599
H119	H	1.118456	-0.573776	-0.761982
H120	H	1.618456	-0.073776	-0.261982
H121	H	0.819819	-0.481980	-0.640337
H122	H	1.319819	0.018020	-0.140337
O123	O	0.904890	-0.587177	-0.779737
O124	O	1.404890	-0.087177	-0.279737
H125	H	0.819374	-0.578679	-0.768486
H126	H	1.319374	-0.078679	-0.268486
H127	H	1.652949	-0.279434	-1.205786
H128	H	2.152949	0.220566	-0.705786
O129	O	1.792619	-0.174473	-0.892714
O130	O	2.292619	0.325527	-0.392714
H131	H	1.774639	-0.112428	-0.913778
H132	H	2.274639	0.387572	-0.413778
H133	H	1.707610	-0.955199	-0.317254
H134	H	2.207610	-0.455199	0.182746
H135	H	1.774894	-0.187766	-1.106273
H136	H	2.274894	0.312234	-0.606273
O137	O	1.378762	-0.485621	-1.120671
O138	O	1.878762	0.014379	-0.620671
H139	H	1.296307	-0.472057	-1.099619
H140	H	1.796307	0.027943	-0.599619
H141	H	1.396454	-0.472299	-0.907111
H142	H	1.896454	0.027701	-0.407111
O143	O	1.725330	-0.794518	-0.299495
O144	O	2.225330	-0.294518	0.200505
H145	H	1.772103	-0.837085	-0.252827
H146	H	2.272103	-0.337085	0.247173
O147	O	1.246956	-0.481945	-0.640270
O148	O	1.746956	0.018055	-0.140270
H149	H	1.275900	-0.525639	-0.698175
H150	H	1.775900	-0.025639	-0.198175
O151	O	0.904809	-0.275564	-0.366723
O152	O	1.404809	0.224436	0.133277
H153	H	0.819298	-0.284088	-0.377980
H154	H	1.319298	0.215912	0.122020
H155	H	1.118370	-0.288892	-0.384471
H156	H	1.618370	0.211108	0.115529
H157	H	1.329246	-0.955225	-0.695119
H158	H	1.829246	-0.455225	-0.195119
H159	H	1.396332	-0.681629	-0.627958
H160	H	1.896332	-0.181629	-0.127958
O161	O	1.311391	-0.794545	-0.712849
O162	O	1.811391	-0.294545	-0.212849
H163	H	1.322661	-0.730210	-0.701558
H164	H	1.822661	-0.230210	-0.201558
H165	H	1.640447	-1.079026	-0.384408
H166	H	2.140447	-0.579026	0.115592
O167	O	1.378748	-1.089946	-0.645738
O168	O	1.878748	-0.589946	-0.145738
H169	H	1.390062	-1.154282	-0.634466
H170	H	1.890062	-0.654282	-0.134466
H171	H	1.640263	-0.681615	-0.384352
H172	H	2.140263	-0.181615	0.115648
O173	O	1.652852	-0.279557	-0.778648
O174	O	2.152852	0.220443	-0.278648
H175	H	1.710879	-0.235925	-0.749732
H176	H	2.210879	0.264075	-0.249732
