data_functionalizedCrystal
_audit_creation_method	'MofGen! by Chris Wilmer'
_symmetry_space_group_name_H-M	'P1'
_symmetry_Int_Tables_number	1
_symmetry_cell_setting	triclinic
loop_
_symmetry_equiv_pos_as_xyz
  x,y,z
_cell_length_a	15.995350
_cell_length_b	15.995350
_cell_length_c	14.472311
_cell_angle_alpha	90.001458
_cell_angle_beta	90.006054
_cell_angle_gamma	83.492375
loop_
_atom_site_label
_atom_site_type_symbol
_atom_site_fract_x
_atom_site_fract_y
_atom_site_fract_z
O1	O	0.107931	1.110986	0.076758
O2	O	0.121258	0.867211	0.076776
O3	O	-0.007293	0.995762	0.076766
O4	O	0.236482	0.982434	0.076769
O5	O	-0.007306	0.995750	-0.076916
O6	O	0.121246	0.867199	-0.076906
O7	O	0.107918	1.110974	-0.076924
Cu8	Cu	0.114581	0.989086	-0.090947
Cu9	Cu	0.114596	0.989099	0.090800
O10	O	0.236470	0.982423	-0.076913
C11	C	0.120701	0.836010	-0.000062
C12	C	0.119049	0.743060	-0.000055
C13	C	0.113117	0.405312	-0.000074
C14	C	0.021565	0.452746	-0.000418
C15	C	0.023217	0.549436	-0.000065
C16	C	0.116060	0.572873	-0.000065
C17	C	0.161223	0.531792	0.087692
C18	C	0.158923	0.435156	0.087759
C19	C	0.160801	0.434804	-0.087007
C20	C	0.160779	0.531750	-0.088160
C21	C	0.117727	0.667570	-0.000057
C22	C	0.111452	0.310614	-0.000076
C23	C	-0.038494	0.995205	-0.000073
C24	C	-0.131444	0.993553	-0.000068
C25	C	-0.469192	0.987621	-0.000071
C26	C	-0.421758	0.896069	0.000281
C27	C	-0.325068	0.897721	-0.000066
C28	C	-0.301631	0.990564	-0.000069
C29	C	-0.342716	1.035714	-0.087831
C30	C	-0.439352	1.033414	-0.087904
C31	C	-0.439696	1.035318	0.086861
C32	C	-0.342750	1.035297	0.088021
C33	C	-0.206934	0.992231	-0.000071
C34	C	-0.563890	0.985956	-0.000075
C35	C	0.267671	0.982980	-0.000072
C36	C	0.360621	0.984631	-0.000071
C37	C	0.108476	1.142175	-0.000083
C38	C	0.110127	1.235125	-0.000084
N39	N	0.114570	0.989082	-0.218778
C40	C	0.114581	0.989091	-0.407278
C41	C	0.045819	1.057892	-0.446486
C42	C	0.046001	1.058142	-0.553574
C43	C	0.114589	0.989100	-0.592869
C44	C	0.202062	1.007820	-0.553977
C45	C	0.201654	1.008309	-0.446855
C46	C	0.096657	0.901363	-0.446763
C47	C	0.094677	0.901957	-0.553891
C48	C	0.114600	0.989104	-0.697757
C49	C	0.114576	0.989089	-0.302390
N50	N	0.114600	0.989109	0.218631
H51	H	-0.012283	0.577860	-0.062973
N52	N	0.117605	0.412205	0.170048
N53	N	0.043272	0.441928	0.185623
H54	H	0.014087	0.425725	0.243741
H55	H	-0.019010	1.047048	-0.579871
H56	H	-0.296641	0.862230	0.062846
H57	H	-0.014857	0.433157	0.062168
N58	N	0.153422	0.834744	-0.587391
N59	N	0.147016	0.760708	-0.563257
H60	H	0.188518	0.713239	-0.586902
H61	H	-0.012513	0.577299	0.062951
H62	H	0.254479	0.959027	-0.579428
H63	H	-0.297208	0.861982	-0.063079
N64	N	0.013964	0.884096	-0.585788
N65	N	-0.013821	0.817263	-0.562420
H66	H	-0.070824	0.804648	-0.584954
H67	H	0.127810	0.559061	-0.153082
H68	H	-0.015036	0.434219	-0.063352
N69	N	0.121901	0.567421	0.169618
N70	N	0.060624	0.623055	0.163602
H71	H	0.032855	0.648227	0.221461
N72	N	0.060483	1.139794	-0.585745
N73	N	0.063163	1.154162	-0.670527
H74	H	0.073414	1.211826	-0.693250
N75	N	0.018316	0.878700	-0.412891
N76	N	-0.048460	0.924782	-0.429355
H77	H	-0.103792	0.908785	-0.405433
N78	N	0.060028	1.139107	-0.412708
N79	N	0.120576	1.146536	-0.359885
H80	H	0.130615	1.203894	-0.336027
N81	N	-0.462310	0.992098	-0.170201
N82	N	-0.406989	0.965159	-0.227182
H83	H	-0.423199	0.935977	-0.285307
H84	H	-0.019408	1.046995	-0.420715
H85	H	0.217397	1.072277	-0.421868
H86	H	0.146799	0.850168	-0.421406
H87	H	0.226140	0.402908	0.091741
N88	N	0.267819	0.947837	-0.414324
N89	N	0.314153	0.905412	-0.470737
H90	H	0.360894	0.862717	-0.447766
H91	H	-0.460230	1.005390	0.153379
H92	H	0.130865	0.414264	-0.153524
H93	H	-0.471456	1.102819	0.087449
H94	H	0.218184	1.071057	-0.580803
H95	H	0.229432	0.545917	0.090955
H96	H	0.228301	0.403043	-0.087600
N97	N	-0.479800	1.117736	-0.092915
N98	N	-0.436632	1.178093	-0.096353
H99	H	-0.465195	1.237645	-0.099898
N100	N	0.245711	0.551030	-0.094804
N101	N	0.274796	0.595587	-0.034447
H102	H	0.334782	0.609204	-0.039132
H103	H	-0.327388	1.103001	0.093317
N104	N	-0.445015	0.850176	0.079232
N105	N	-0.520124	0.838178	0.091185
H106	H	-0.536556	0.805768	0.146949
N107	N	-0.446351	0.850367	-0.078225
N108	N	-0.498660	0.884930	-0.134433
H109	H	-0.516031	0.852655	-0.189879
H110	H	-0.328591	1.103922	-0.091097
H111	H	-0.314340	1.004345	-0.153137
H112	H	-0.315496	1.002286	0.152945
