data_functionalizedCrystal
_audit_creation_method	'MofGen! by Chris Wilmer'
_symmetry_space_group_name_H-M	'P1'
_symmetry_Int_Tables_number	1
_symmetry_cell_setting	triclinic
loop_
_symmetry_equiv_pos_as_xyz
  x,y,z
_cell_length_a	18.050582
_cell_length_b	13.897449
_cell_length_c	13.897448
_cell_angle_alpha	90.018972
_cell_angle_beta	90.020930
_cell_angle_gamma	90.013755
loop_
_atom_site_label
_atom_site_type_symbol
_atom_site_fract_x
_atom_site_fract_y
_atom_site_fract_z
Zn1	Zn	-0.419898	-1.474636	0.384043
Zn2	Zn	-0.295711	-1.474550	0.545338
Zn3	Zn	-0.295725	-1.313345	0.384062
Zn4	Zn	-0.419863	-1.313307	0.545302
O5	O	-0.357799	-1.393959	0.464686
O6	O	-0.403434	-1.609606	0.405447
O7	O	-0.191789	-1.453145	0.523967
O8	O	-0.312217	-1.334793	0.249078
O9	O	-0.312194	-1.609543	0.523949
O10	O	-0.403446	-1.453293	0.249064
O11	O	-0.191798	-1.334709	0.405478
O12	O	-0.312182	-1.178358	0.405443
O13	O	-0.523792	-1.334728	0.523887
O14	O	-0.403386	-1.178330	0.523905
O15	O	-0.523818	-1.453256	0.405412
O16	O	-0.312160	-1.453109	0.680315
O17	O	-0.403373	-1.334644	0.680288
C18	C	-0.357778	-1.393889	0.715301
C19	C	-0.357793	-1.393947	0.822514
C20	C	-0.357782	-1.143345	0.464673
C21	C	-0.357793	-1.036131	0.464691
C22	C	-0.551505	-1.393997	0.464643
C23	C	-0.634051	-1.394013	0.464625
C24	C	-0.833487	-1.329607	0.528964
C25	C	-0.882878	-1.417615	0.552541
C26	C	-0.785181	-1.394061	0.464552
C27	C	-0.882872	-1.306102	0.440948
C28	C	-0.931166	-1.394099	0.464482
C29	C	-0.833484	-1.482115	0.488174
C30	C	-0.833475	-1.370542	0.376541
C31	C	-0.882843	-1.458611	0.400084
C32	C	-0.701083	-1.394038	0.464594
C33	C	-1.015263	-1.394132	0.464440
C34	C	-0.164847	-1.393977	0.464659
C35	C	-0.082302	-1.394148	0.464406
C36	C	-0.357817	-1.645552	0.464700
C37	C	-0.357824	-1.752766	0.464706
C38	C	-0.357812	-0.839836	0.464694
C39	C	-0.357799	-0.949069	0.464690
C40	C	-0.357837	-1.394056	0.213093
C41	C	-0.357853	-1.394098	0.105879
C42	C	-0.357840	-1.394048	1.018809
C43	C	-0.357816	-1.393989	0.909577
H44	H	-0.811817	-1.275152	0.583507
H45	H	-0.904578	-1.437530	0.626940
O46	O	-0.911607	-1.207549	0.414537
H47	H	-0.945431	-1.212740	0.348023
H48	H	-0.811881	-1.556539	0.508193
O49	O	-0.911378	-1.530906	0.327888
H50	H	-0.891491	-1.603832	0.347679
H51	H	-0.811758	-1.350601	0.302163
