data_functionalizedCrystal
_audit_creation_method	'MofGen! by Chris Wilmer'
_symmetry_space_group_name_H-M	'P1'
_symmetry_Int_Tables_number	1
_symmetry_cell_setting	triclinic
loop_
_symmetry_equiv_pos_as_xyz
  x,y,z
_cell_length_a	16.992694
_cell_length_b	14.044220
_cell_length_c	16.053802
_cell_angle_alpha	92.799619
_cell_angle_beta	87.249047
_cell_angle_gamma	91.928550
loop_
_atom_site_label
_atom_site_type_symbol
_atom_site_fract_x
_atom_site_fract_y
_atom_site_fract_z
O1	O	1.057564	0.198305	-0.069327
O2	O	1.557564	0.698305	0.430673
O3	O	0.829125	0.196087	-0.069352
O4	O	1.329125	0.696087	0.430648
O5	O	0.939916	0.058952	-0.069331
O6	O	1.439916	0.558952	0.430669
O7	O	0.946774	0.335440	-0.069347
O8	O	1.446774	0.835440	0.430653
O9	O	0.933815	0.066468	0.069526
O10	O	1.433815	0.566468	0.569526
O11	O	0.823025	0.203602	0.069506
O12	O	1.323025	0.703602	0.569506
O13	O	1.051464	0.205821	0.069531
O14	O	1.551464	0.705821	0.569531
Zn15	Zn	0.936276	0.205905	0.091565
Zn16	Zn	1.436276	0.705905	0.591565
Zn17	Zn	0.944313	0.196003	-0.091386
Zn18	Zn	1.444313	0.696003	0.408614
O19	O	0.940673	0.342955	0.069511
O20	O	1.440673	0.842955	0.569511
C21	C	0.796663	0.196993	0.000074
C22	C	1.296663	0.696993	0.500074
C23	C	0.709024	0.188484	0.000065
C24	C	1.209024	0.688484	0.500065
C25	C	0.933863	0.027168	0.000098
C26	C	1.433863	0.527168	0.500098
C27	C	0.924909	-0.078736	0.000098
C28	C	1.424909	0.421264	0.500098
C29	C	0.664526	0.270580	0.000061
C30	C	1.164526	0.770580	0.500061
C31	C	0.582179	0.262581	0.000073
C32	C	1.082179	0.762581	0.500073
C33	C	0.544333	0.172483	0.000083
C34	C	1.044333	0.672483	0.500083
C35	C	0.588837	0.090381	0.000090
C36	C	1.088837	0.590381	0.500090
C37	C	0.671182	0.098382	0.000084
C38	C	1.171182	0.598382	0.500084
C39	C	0.298414	0.139322	0.000107
C40	C	0.798414	0.639322	0.500107
C41	C	0.216063	0.131327	0.000111
C42	C	0.716063	0.631327	0.500111
C43	C	0.209412	0.303528	0.000096
C44	C	0.709412	0.803528	0.500096
C45	C	0.291759	0.311521	0.000085
C46	C	0.791759	0.811521	0.500085
C47	C	0.336255	0.229419	0.000096
C48	C	0.836255	0.729419	0.500096
N49	N	0.460161	0.164304	0.000093
N50	N	0.960161	0.664304	0.500093
N51	N	0.420425	0.237599	0.000092
N52	N	0.920425	0.737599	0.500092
C53	C	0.908540	-0.272638	0.000084
C54	C	1.408540	0.227362	0.500084
C55	C	0.972046	-0.325460	0.000088
C56	C	1.472046	0.174540	0.500088
C57	C	0.962938	-0.433354	0.000080
C58	C	1.462938	0.066646	0.500080
C59	C	0.917647	-0.164734	0.000091
C60	C	1.417647	0.335266	0.500091
C61	C	1.083926	0.204915	0.000103
C62	C	1.583926	0.704915	0.500103
C63	C	1.171565	0.213424	0.000107
C64	C	1.671565	0.713424	0.500107
C65	C	0.946726	0.374740	0.000080
C66	C	1.446726	0.874740	0.500080
C67	C	0.955680	0.480643	0.000074
C68	C	1.455680	0.980643	0.500074
N69	N	0.930796	0.212662	0.216425
N70	N	1.430796	0.712662	0.716425
N71	N	0.949799	0.189239	-0.216245
N72	N	1.449799	0.689239	0.283755
C73	C	0.977958	0.154335	0.260127
C74	C	1.477958	0.654335	0.760127
C75	C	0.974132	0.159071	0.347533
C76	C	1.474132	0.659071	0.847533
C77	C	0.923149	0.222140	0.391235
C78	C	1.423149	0.722140	0.891235
C79	C	0.875982	0.280470	0.347526
C80	C	1.375982	0.780470	0.847526
C81	C	0.879804	0.275728	0.260122
C82	C	1.379804	0.775728	0.760122
C83	C	0.906453	0.242827	0.652642
C84	C	1.406453	0.742827	1.152642
C85	C	0.902637	0.247566	0.740052
C86	C	1.402637	0.747566	1.240052
C87	C	1.000787	0.126165	0.740053
C88	C	1.500787	0.626165	1.240053
C89	C	1.004608	0.121433	0.652647
C90	C	1.504608	0.621433	1.152647
C91	C	0.957438	0.179759	0.608946
C92	C	1.457438	0.679759	1.108946
N93	N	0.919240	0.226985	0.480578
N94	N	1.419240	0.726985	0.980578
N95	N	0.961343	0.174909	0.519604
N96	N	1.461343	0.674909	1.019604
H97	H	0.545952	0.329433	0.000069
H98	H	1.045952	0.829433	0.500069
H99	H	0.847335	-0.308444	0.000075
H100	H	1.347335	0.191556	0.500075
H101	H	1.019477	0.102981	0.224551
H102	H	1.519477	0.602981	0.724551
C103	C	0.855212	0.306269	0.605353
C104	C	1.355212	0.806269	1.105353
C105	C	0.809765	0.362536	0.662336
C106	C	1.309765	0.862536	1.162336
C107	C	0.762559	0.421003	0.618801
C108	C	1.262559	0.921003	1.118801
H109	H	0.821423	0.267739	0.571265
H110	H	1.321423	0.767739	1.071265
H111	H	0.887814	0.346309	0.571263
H112	H	1.387814	0.846309	1.071263
H113	H	0.777167	0.322501	0.696412
H114	H	1.277167	0.822501	1.196412
H115	H	0.843534	0.401086	0.696426
H116	H	1.343534	0.901086	1.196426
H117	H	0.795160	0.461042	0.584711
H118	H	1.295160	0.961042	1.084711
H119	H	0.728774	0.382465	0.584715
H120	H	1.228774	0.882465	1.084715
H121	H	0.731723	0.459193	0.657457
H122	H	1.231723	0.959193	1.157457
H123	H	1.033258	-0.289655	0.000039
H124	H	1.533258	0.210345	0.500039
C125	C	0.719361	0.009132	0.000041
C126	C	1.219361	0.509132	0.500041
C127	C	0.668595	-0.071487	0.000027
C128	C	1.168595	0.428513	0.500027
C129	C	0.712949	-0.153723	-0.000021
C130	C	1.212949	0.346277	0.499979
H131	H	0.749511	0.011159	0.048448
H132	H	1.249511	0.511159	0.548448
H133	H	0.753728	0.005999	-0.048404
H134	H	1.253728	0.505999	0.451596
H135	H	0.634242	-0.068355	0.048466
H136	H	1.134242	0.431645	0.548466
H137	H	0.638444	-0.073545	-0.048377
H138	H	1.138444	0.426455	0.451623
H139	H	0.747315	-0.156856	-0.048466
H140	H	1.247315	0.343144	0.451534
H141	H	0.743097	-0.151686	0.048387
H142	H	1.243097	0.348314	0.548387
H143	H	0.678511	-0.208432	-0.000039
H144	H	1.178511	0.291568	0.499961
H145	H	1.012535	0.111576	0.383115
H146	H	1.512535	0.611576	0.883115
H147	H	1.046122	0.070077	0.617066
H148	H	1.546122	0.570077	1.117066
H149	H	1.039190	0.078678	0.775642
H150	H	1.539190	0.578678	1.275642
H151	H	0.861118	0.298929	0.775630
H152	H	1.361118	0.798929	1.275630
C153	C	0.161007	0.392576	-0.000038
C154	C	0.661007	0.892576	0.499962
C155	C	0.116650	0.389139	-0.071462
C156	C	0.616650	0.889139	0.428538
C157	C	0.072042	0.471151	-0.071604
C158	C	0.572042	0.971151	0.428396
H159	H	0.195249	0.447449	-0.000086
H160	H	0.695249	0.947449	0.499914
H161	H	0.126582	0.395657	0.048363
H162	H	0.626582	0.895657	0.548363
H163	H	0.151071	0.386067	-0.119850
H164	H	0.651071	0.886067	0.380150
H165	H	0.082393	0.334284	-0.071429
H166	H	0.582393	0.834284	0.428571
H167	H	0.037617	0.474232	-0.023204
H168	H	0.537617	0.974232	0.476796
H169	H	0.106290	0.526017	-0.071651
H170	H	0.606290	1.026017	0.428349
H171	H	0.041935	0.468825	-0.120061
H172	H	0.541935	0.968825	0.379939
H173	H	0.185251	0.057955	0.000118
H174	H	0.685251	0.557955	0.500118
H175	H	0.834466	0.331819	0.383114
H176	H	1.334466	0.831819	0.883114
H177	H	0.841398	0.323224	0.224540
H178	H	1.341398	0.823224	0.724540
C179	C	0.332699	0.409431	0.000122
C180	C	0.832699	0.909431	0.500122
C181	C	0.276102	0.479619	0.000143
C182	C	0.776102	0.979619	0.500143
C183	C	0.313787	0.569825	0.000185
C184	C	0.813787	1.069825	0.500185
H185	H	0.366801	0.413646	-0.048290
H186	H	0.866801	0.913646	0.451710
H187	H	0.362543	0.418802	0.048562
H188	H	0.862543	0.918802	0.548562
H189	H	0.246271	0.470252	-0.048292
H190	H	0.746271	0.970252	0.451708
H191	H	0.241998	0.475435	0.048551
H192	H	0.741998	0.975435	0.548551
H193	H	0.343631	0.579196	0.048625
H194	H	0.843631	1.079196	0.548625
H195	H	0.347888	0.574030	-0.048227
H196	H	0.847888	1.074030	0.451773
H197	H	0.275392	0.617459	0.000208
H198	H	0.775392	1.117459	0.500208
H199	H	0.334634	0.072468	0.000117
H200	H	0.834634	0.572468	0.500117
H201	H	0.558015	0.017022	0.000110
H202	H	1.058015	0.517022	0.500110
C203	C	0.705465	0.368491	0.000092
C204	C	1.205465	0.868491	0.500092
C205	C	0.648865	0.438675	0.000114
C206	C	1.148865	0.938675	0.500114
C207	C	0.686545	0.528884	0.000157
C208	C	1.186545	1.028884	0.500157
H209	H	0.739566	0.372708	-0.048320
H210	H	1.239566	0.872708	0.451680
H211	H	0.735310	0.377864	0.048532
H212	H	1.235310	0.877864	0.548532
H213	H	0.619033	0.429306	-0.048321
H214	H	1.119033	0.929306	0.451679
H215	H	0.614761	0.434489	0.048523
H216	H	1.114761	0.934489	0.548523
H217	H	0.716390	0.538256	0.048596
H218	H	1.216390	1.038256	0.548596
H219	H	0.720645	0.533091	-0.048256
H220	H	1.220645	1.033091	0.451744
H221	H	0.648148	0.576515	0.000180
H222	H	1.148148	1.076515	0.500180
