data_functionalizedCrystal
_audit_creation_method	'MofGen! by Chris Wilmer'
_symmetry_space_group_name_H-M	'P1'
_symmetry_Int_Tables_number	1
_symmetry_cell_setting	triclinic
loop_
_symmetry_equiv_pos_as_xyz
  x,y,z
_cell_length_a	17.699077
_cell_length_b	14.044190
_cell_length_c	16.176319
_cell_angle_alpha	89.988653
_cell_angle_beta	89.993140
_cell_angle_gamma	88.236177
loop_
_atom_site_label
_atom_site_type_symbol
_atom_site_fract_x
_atom_site_fract_y
_atom_site_fract_z
O1	O	1.012350	0.119823	-0.068745
O2	O	1.512350	0.619823	0.431255
O3	O	0.793047	0.135422	-0.068750
O4	O	1.293047	0.635422	0.431250
O5	O	0.899404	-0.010354	-0.068731
O6	O	1.399404	0.489646	0.431269
O7	O	0.905993	0.265600	-0.068764
O8	O	1.405993	0.765600	0.431236
O9	O	0.899387	-0.010364	0.068762
O10	O	1.399387	0.489636	0.568762
O11	O	0.793030	0.135413	0.068743
O12	O	1.293030	0.635413	0.568743
O13	O	1.012333	0.119814	0.068748
O14	O	1.512333	0.619814	0.568748
Cu15	Cu	0.902680	0.127613	0.081300
Cu16	Cu	1.402680	0.627613	0.581300
Cu17	Cu	0.902700	0.127624	-0.081302
Cu18	Cu	1.402700	0.627624	0.418698
O19	O	0.905976	0.265591	0.068730
O20	O	1.405976	0.765591	0.568730
C21	C	0.764803	0.134859	-0.000004
C22	C	1.264803	0.634859	0.499996
C23	C	0.680669	0.133185	-0.000005
C24	C	1.180669	0.633185	0.499995
C25	C	0.641138	0.132392	0.074943
C26	C	1.141138	0.632392	0.574943
C27	C	0.562086	0.130804	0.074944
C28	C	1.062086	0.630804	0.574944
C29	C	0.522566	0.130016	-0.000004
C30	C	1.022566	0.630016	0.499996
C31	C	0.562103	0.130807	-0.074958
C32	C	1.062103	0.630807	0.425042
C33	C	0.641154	0.132389	-0.074958
C34	C	1.141154	0.632389	0.425042
C35	C	0.243299	0.124430	-0.074959
C36	C	0.743299	0.624430	0.425041
C37	C	0.164243	0.122851	-0.074953
C38	C	0.664243	0.622851	0.425047
C39	C	0.164232	0.122845	0.074944
C40	C	0.664232	0.622845	0.574944
C41	C	0.243283	0.124426	0.074944
C42	C	0.743283	0.624426	0.574944
C43	C	0.282813	0.125212	-0.000010
C44	C	0.782813	0.625212	0.499990
C45	C	0.368530	0.126932	-0.000010
C46	C	0.868530	0.626932	0.499990
C47	C	0.436850	0.128303	-0.000005
C48	C	0.936850	0.628303	0.499995
C49	C	0.896513	-0.045667	0.000018
C50	C	1.396513	0.454333	0.500018
C51	C	0.887915	-0.150873	0.000025
C52	C	1.387915	0.349127	0.500025
C53	C	0.933175	-0.401265	-0.000007
C54	C	1.433175	0.098735	0.499993
C55	C	0.872208	-0.343494	-0.000002
C56	C	1.372208	0.156506	0.499998
C57	C	0.880950	-0.236310	0.000013
C58	C	1.380950	0.263690	0.500013
C59	C	0.924435	-0.508459	-0.000022
C60	C	1.424435	-0.008459	0.499978
C61	C	1.040577	0.120377	0.000000
C62	C	1.540577	0.620377	0.500000
C63	C	1.124711	0.122051	-0.000004
C64	C	1.624711	0.622051	0.499996
C65	C	0.908867	0.300903	-0.000021
C66	C	1.408867	0.800903	0.499979
C67	C	0.917465	0.406109	-0.000034
C68	C	1.417465	0.906109	0.499966
N69	N	0.902672	0.127604	0.195665
N70	N	1.402672	0.627604	0.695665
N71	N	0.902714	0.127624	-0.195667
N72	N	1.402714	0.627624	0.304333
C73	C	0.949784	0.063081	0.238938
C74	C	1.449784	0.563081	0.738938
C75	C	0.949788	0.063080	0.325485
C76	C	1.449788	0.563080	0.825485
C77	C	0.902683	0.127608	0.368758
C78	C	1.402683	0.627608	0.868758
C79	C	0.855565	0.192134	0.325479
C80	C	1.355565	0.692134	0.825479
C81	C	0.855558	0.192130	0.238934
C82	C	1.355558	0.692130	0.738934
C83	C	0.855593	0.192152	0.674507
C84	C	1.355593	0.692152	1.174507
C85	C	0.855605	0.192153	0.761059
C86	C	1.355605	0.692153	1.261059
C87	C	0.949822	0.063102	0.761059
C88	C	1.449822	0.563102	1.261059
C89	C	0.949815	0.063098	0.674513
C90	C	1.449815	0.563098	1.174513
C91	C	0.902695	0.127620	0.631242
C92	C	1.402695	0.627620	1.131242
C93	C	0.902690	0.127619	0.537398
C94	C	1.402690	0.627619	1.037398
C95	C	0.902691	0.127614	0.462600
C96	C	1.402691	0.627614	0.962600
H97	H	0.275475	0.125067	-0.135991
H98	H	0.775475	0.625067	0.364009
N99	N	0.521719	0.129986	0.151510
N100	N	1.021719	0.629986	0.651510
N101	N	0.557013	0.130691	0.218422
N102	N	1.057013	0.630691	0.718422
H103	H	0.528505	0.130111	0.272501
H104	H	1.028505	0.630111	0.772501
H105	H	0.529920	0.130160	-0.135983
H106	H	1.029920	0.630160	0.364017
N107	N	0.807448	0.258055	0.194729
N108	N	1.307448	0.758055	0.694729
N109	N	0.835425	0.316845	0.146418
N110	N	1.335425	0.816845	0.646418
H111	H	0.801445	0.363405	0.115199
H112	H	1.301445	0.863405	0.615199
N113	N	0.997919	-0.002818	0.630299
N114	N	1.497919	0.497182	1.130299
N115	N	0.997903	-0.002815	0.553027
N116	N	1.497903	0.497185	1.053027
H117	H	1.031875	-0.049372	0.521800
H118	H	1.531875	0.450628	1.021800
H119	H	0.275456	0.125072	0.135974
H120	H	0.775456	0.625072	0.635974
H121	H	0.673310	0.133041	0.135975
H122	H	1.173310	0.633041	0.635975
H123	H	0.991932	-0.370228	0.000003
H124	H	1.491932	0.129772	0.500003
H125	H	0.988146	0.010539	0.203711
H126	H	1.488146	0.510539	0.703711
H127	H	0.132038	0.122200	0.135975
H128	H	0.632038	0.622200	0.635975
N129	N	0.997913	-0.002840	0.369673
N130	N	1.497913	0.497160	0.869673
N131	N	1.039970	-0.060446	0.331027
N132	N	1.539970	0.439554	0.831027
H133	H	1.073960	-0.107007	0.362234
H134	H	1.573960	0.392993	0.862234
N135	N	0.997947	-0.002807	0.805273
N136	N	1.497947	0.497193	1.305273
N137	N	0.997948	-0.002802	0.882545
N138	N	1.497948	0.497198	1.382545
H139	H	1.031936	-0.049348	0.913771
H140	H	1.531936	0.450652	1.413771
H141	H	0.817244	0.244701	0.796290
H142	H	1.317244	0.744701	1.296290
N143	N	0.807455	0.258060	0.630327
N144	N	1.307455	0.758060	1.130327
N145	N	0.765402	0.315667	0.668977
N146	N	1.265402	0.815667	1.168977
H147	H	0.731401	0.362218	0.637773
H148	H	1.231401	0.862218	1.137773
N149	N	0.123884	0.122049	-0.151523
N150	N	0.623884	0.622049	0.348477
N151	N	0.159186	0.122751	-0.218440
N152	N	0.659186	0.622751	0.281560
H153	H	0.130684	0.122186	-0.272515
H154	H	0.630684	0.622186	0.227485
N155	N	0.798497	-0.382438	0.000004
N156	N	1.298497	0.117562	0.500004
N157	N	0.778846	-0.435106	0.057958
N158	N	1.278846	0.064894	0.557958
H159	H	0.726789	-0.462615	0.057967
H160	H	1.226789	0.037385	0.557967
N161	N	0.681525	0.133191	-0.151524
N162	N	1.181525	0.633191	0.348476
N163	N	0.646233	0.132485	-0.218438
N164	N	1.146233	0.632485	0.281562
H165	H	0.674743	0.133046	-0.272515
H166	H	1.174743	0.633046	0.227485
N167	N	0.807447	0.258035	0.369691
N168	N	1.307447	0.758035	0.869691
N169	N	0.807459	0.258032	0.446963
N170	N	1.307459	0.758032	0.946963
H171	H	0.773475	0.304576	0.478188
H172	H	1.273475	0.804576	0.978188
