data_functionalizedCrystal
_audit_creation_method	'MofGen! by Chris Wilmer'
_symmetry_space_group_name_H-M	'P1'
_symmetry_Int_Tables_number	1
_symmetry_cell_setting	triclinic
loop_
_symmetry_equiv_pos_as_xyz
  x,y,z
_cell_length_a	15.944551
_cell_length_b	14.519709
_cell_length_c	13.596369
_cell_angle_alpha	90.006934
_cell_angle_beta	89.990481
_cell_angle_gamma	96.410559
loop_
_atom_site_label
_atom_site_type_symbol
_atom_site_fract_x
_atom_site_fract_y
_atom_site_fract_z
O1	O	1.114698	-0.118943	-0.081889
O2	O	1.614698	0.381057	0.418111
O3	O	0.870169	-0.133607	-0.081870
O4	O	1.370169	0.366393	0.418130
O5	O	0.998917	0.007975	-0.081871
O6	O	1.498917	0.507975	0.418129
O7	O	0.985950	-0.260525	-0.081888
O8	O	1.485950	0.239475	0.418112
O9	O	0.998904	0.007982	0.081712
O10	O	1.498904	0.507982	0.581712
O11	O	0.870156	-0.133600	0.081713
O12	O	1.370156	0.366400	0.581713
O13	O	1.114685	-0.118936	0.081694
O14	O	1.614685	0.381064	0.581694
Zn15	Zn	0.992419	-0.126267	0.107676
Zn16	Zn	1.492419	0.373733	0.607676
Zn17	Zn	0.992435	-0.126276	-0.107852
Zn18	Zn	1.492435	0.373724	0.392148
O19	O	0.985937	-0.260518	0.081695
O20	O	1.485937	0.239482	0.581695
C21	C	0.998306	0.042337	-0.000080
C22	C	1.498306	0.542337	0.499920
C23	C	0.996495	0.144715	-0.000079
C24	C	1.496495	0.644715	0.499921
C25	C	0.838868	-0.132995	-0.000076
C26	C	1.338868	0.367005	0.499924
C27	C	0.745619	-0.131170	-0.000069
C28	C	1.245619	0.368830	0.499931
C29	C	1.145986	-0.119548	-0.000102
C30	C	1.645986	0.380452	0.499898
C31	C	1.239235	-0.121373	-0.000116
C32	C	1.739235	0.378627	0.499884
C33	C	1.454225	-0.213495	-0.000099
C34	C	1.954225	0.286505	0.499901
C35	C	1.515189	-0.170720	-0.080751
C36	C	2.015189	0.329280	0.419249
C37	C	1.409965	-0.124675	-0.000102
C38	C	1.909965	0.375325	0.499898
C39	C	1.515155	-0.170692	0.080529
C40	C	2.015155	0.329308	0.580529
C41	C	1.574883	-0.127871	-0.000084
C42	C	2.074883	0.372129	0.499916
C43	C	1.469701	-0.081876	-0.080820
C44	C	1.969701	0.418124	0.419180
C45	C	1.469660	-0.081860	0.080532
C46	C	1.969660	0.418140	0.580532
C47	C	1.530607	-0.039021	-0.000139
C48	C	2.030607	0.460979	0.499861
C49	C	1.314960	-0.122836	-0.000113
C50	C	1.814960	0.377164	0.499887
C51	C	1.669886	-0.129702	-0.000080
C52	C	2.169886	0.370298	0.499920
C53	C	0.986548	-0.294880	-0.000099
C54	C	1.486548	0.205120	0.499901
C55	C	0.988359	-0.397258	-0.000106
C56	C	1.488359	0.102742	0.499894
N57	N	0.992413	-0.126259	0.254767
N58	N	1.492413	0.373741	0.754767
C59	C	0.989829	0.519599	-0.000104
C60	C	1.489829	1.019599	0.499896
C61	C	0.991680	0.415295	-0.000097
C62	C	1.491680	0.915295	0.499903
C63	C	0.993162	0.332160	-0.000091
C64	C	1.493162	0.832160	0.499909
C65	C	0.995013	0.227849	-0.000085
C66	C	1.495013	0.727849	0.499915
N67	N	0.992448	-0.126276	-0.254944
N68	N	1.492448	0.373724	0.245056
C69	C	0.992434	-0.126277	0.656058
C70	C	1.492434	0.373723	1.156058
C71	C	0.992426	-0.126275	0.544407
C72	C	1.492426	0.373725	1.044407
C73	C	0.992424	-0.126269	0.455416
C74	C	1.492424	0.373731	0.955416
C75	C	0.992415	-0.126266	0.343758
C76	C	1.492415	0.373734	0.843758
H77	H	1.421026	-0.287220	-0.000184
H78	H	1.921026	0.212780	0.499816
H79	H	1.449664	-0.044346	-0.149083
H80	H	1.949664	0.455654	0.350917
O81	O	1.539035	-0.215509	0.161949
O82	O	2.039035	0.284491	0.661949
C83	C	1.494356	-0.296848	0.310729
C84	C	1.994356	0.203152	0.810729
C85	C	1.467203	-0.246089	0.218582
C86	C	1.967203	0.253911	0.718582
H87	H	1.436293	-0.321604	0.356531
H88	H	1.936293	0.178396	0.856531
H89	H	1.539444	-0.247560	0.356396
H90	H	2.039444	0.252440	0.856396
H91	H	1.527436	-0.359022	0.287434
H92	H	2.027436	0.140978	0.787434
H93	H	1.434088	-0.183918	0.241789
H94	H	1.934088	0.316082	0.741789
H95	H	1.422154	-0.295440	0.172936
H96	H	1.922154	0.204560	0.672936
H97	H	1.563653	0.034770	-0.000175
H98	H	2.063653	0.534770	0.499825
H99	H	1.449467	-0.044322	0.148726
H100	H	1.949467	0.455678	0.648726
O101	O	1.539275	-0.215715	-0.161972
O102	O	2.039275	0.284285	0.338028
C103	C	1.527395	-0.358543	-0.253782
C104	C	2.027395	0.141457	0.246218
C105	C	1.500022	-0.307678	-0.161789
C106	C	2.000022	0.192322	0.338211
H107	H	1.495657	-0.432897	-0.253675
H108	H	1.995657	0.067103	0.246325
H109	H	1.598852	-0.358938	-0.253249
H110	H	2.098852	0.141062	0.246751
H111	H	1.507893	-0.321418	-0.322572
H112	H	2.007893	0.178582	0.177428
H113	H	1.519466	-0.344763	-0.092951
H114	H	2.019466	0.155237	0.407049
H115	H	1.428567	-0.307274	-0.162409
H116	H	1.928567	0.192726	0.337591
