data_functionalizedCrystal
_audit_creation_method	'MofGen! by Chris Wilmer'
_symmetry_space_group_name_H-M	'P1'
_symmetry_Int_Tables_number	1
_symmetry_cell_setting	triclinic
loop_
_symmetry_equiv_pos_as_xyz
  x,y,z
_cell_length_a	27.731994
_cell_length_b	17.038278
_cell_length_c	16.098538
_cell_angle_alpha	92.913375
_cell_angle_beta	87.290733
_cell_angle_gamma	86.865519
loop_
_atom_site_label
_atom_site_type_symbol
_atom_site_fract_x
_atom_site_fract_y
_atom_site_fract_z
O1	O	0.647204	0.089267	-0.069149
O2	O	0.980538	0.422600	0.264184
O3	O	1.313871	0.755934	0.597518
O4	O	0.507057	0.103448	-0.069178
O5	O	0.840390	0.436781	0.264155
O6	O	1.173723	0.770115	0.597488
O7	O	0.576298	-0.017447	-0.069143
O8	O	0.909631	0.315887	0.264191
O9	O	1.242964	0.649220	0.597524
O10	O	0.577964	0.210162	-0.069185
O11	O	0.911297	0.543495	0.264149
O12	O	1.244630	0.876829	0.597482
O13	O	0.572252	-0.010412	0.069368
O14	O	0.905585	0.322921	0.402701
O15	O	1.238918	0.656254	0.736035
O16	O	0.503011	0.110483	0.069332
O17	O	0.836344	0.443816	0.402666
O18	O	1.169678	0.777149	0.735999
O19	O	0.643159	0.096302	0.069362
O20	O	0.976492	0.429635	0.402695
O21	O	1.309825	0.762968	0.736029
Zn22	Zn	0.572442	0.104509	0.091339
Zn23	Zn	0.905776	0.437842	0.424672
Zn24	Zn	1.239109	0.771176	0.758005
Zn25	Zn	0.577773	0.095241	-0.091155
Zn26	Zn	0.911106	0.428574	0.242178
Zn27	Zn	1.244440	0.761907	0.575511
O28	O	0.573918	0.217196	0.069326
O29	O	0.907251	0.550530	0.402659
O30	O	1.240584	0.883863	0.735993
C31	C	0.487013	0.106674	0.000074
C32	C	0.820347	0.440007	0.333407
C33	C	1.153680	0.773341	0.666740
C34	C	0.433317	0.105797	0.000063
C35	C	0.766650	0.439130	0.333397
C36	C	1.099984	0.772463	0.666730
C37	C	0.572760	-0.043039	0.000116
C38	C	0.906093	0.290294	0.333449
C39	C	1.239426	0.623627	0.666783
C40	C	0.568239	-0.129778	0.000126
C41	C	0.901573	0.203556	0.333459
C42	C	1.234906	0.536889	0.666793
C43	C	0.540473	-0.619861	0.000044
C44	C	0.873807	-0.286528	0.333377
C45	C	1.207140	0.046806	0.666711
C46	C	0.544724	-0.538361	0.000053
C47	C	0.878057	-0.205028	0.333386
C48	C	1.211390	0.128306	0.666720
C49	C	0.590477	-0.507474	0.000074
C50	C	0.923811	-0.174141	0.333407
C51	C	1.257144	0.159192	0.666741
C52	C	0.631983	-0.558093	0.000078
C53	C	0.965317	-0.224760	0.333411
C54	C	1.298650	0.108574	0.666744
C55	C	0.627733	-0.639591	0.000063
C56	C	0.961066	-0.306258	0.333396
C57	C	1.294399	0.027075	0.666729
C58	C	0.605495	-0.261895	0.000115
C59	C	0.938828	0.071438	0.333448
C60	C	1.272161	0.404772	0.666781
C61	C	0.609742	-0.180390	0.000132
C62	C	0.943076	0.152944	0.333465
C63	C	1.276409	0.486277	0.666799
C64	C	0.522482	-0.160664	0.000106
C65	C	0.855815	0.172670	0.333439
C66	C	1.189149	0.506003	0.666773
C67	C	0.518235	-0.242164	0.000096
C68	C	0.851569	0.091169	0.333429
C69	C	1.184902	0.424502	0.666763
C70	C	0.559741	-0.292776	0.000095
C71	C	0.893075	0.040557	0.333428
C72	C	1.226408	0.373891	0.666762
C73	C	0.594823	-0.424168	0.000086
C74	C	0.928156	-0.090835	0.333419
C75	C	1.261490	0.242498	0.666753
C76	C	0.555396	-0.376081	0.000077
C77	C	0.888729	-0.042747	0.333411
C78	C	1.222062	0.290586	0.666744
C79	C	0.098140	0.104111	0.075599
C80	C	0.431473	0.437444	0.408932
C81	C	0.764806	0.770778	0.742265
C82	C	-0.103671	0.100779	0.075609
C83	C	0.229662	0.434112	0.408942
C84	C	0.562996	0.767445	0.742275
O85	O	-0.131641	0.103575	0.139820
O86	O	0.201693	0.436909	0.473154
O87	O	0.535026	0.770242	0.806487
N88	N	-0.126700	0.096530	0.000107
N89	N	0.206634	0.429864	0.333440
N90	N	0.539967	0.763197	0.666773
C91	C	-0.099272	0.093109	-0.075403
C92	C	0.234062	0.426443	0.257930
C93	C	0.567395	0.759776	0.591263
O94	O	-0.123489	0.089411	-0.139622
O95	O	0.209844	0.422745	0.193711
O96	O	0.543178	0.756078	0.527044
C97	C	0.102538	0.096436	-0.075413
C98	C	0.435872	0.429770	0.257921
C99	C	0.769205	0.763103	0.591254
C100	C	0.125564	0.100693	0.000094
C101	C	0.458897	0.434026	0.333428
C102	C	0.792230	0.767360	0.666761
C103	C	0.121165	0.108366	0.151100
C104	C	0.454499	0.441700	0.484433
C105	C	0.787832	0.775033	0.817766
C106	C	0.171615	0.109204	0.151096
C107	C	0.504948	0.442537	0.484430
C108	C	0.838281	0.775870	0.817763
C109	C	0.199039	0.105786	0.075592
C110	C	0.532372	0.439119	0.408925
C111	C	0.865705	0.772452	0.742259
C112	C	0.176013	0.101530	0.000091
C113	C	0.509347	0.434863	0.333424
C114	C	0.842680	0.768197	0.666758
C115	C	0.129966	0.093010	-0.150922
C116	C	0.463299	0.426343	0.182412
C117	C	0.796632	0.759677	0.515745
C118	C	0.180421	0.093840	-0.150917
C119	C	0.513754	0.427173	0.182416
C120	C	0.847088	0.760507	0.515749
C121	C	0.203446	0.098097	-0.075410
C122	C	0.536780	0.431430	0.257923
C123	C	0.870113	0.764763	0.591256
C124	C	0.253887	0.098949	-0.075416
C125	C	0.587220	0.432283	0.257917
C126	C	0.920553	0.765616	0.591250
N127	N	0.276915	0.103198	0.000086
N128	N	0.610249	0.436531	0.333419
N129	N	0.943582	0.769864	0.666752
C130	C	0.249491	0.106616	0.075590
C131	C	0.582825	0.439949	0.408923
C132	C	0.916158	0.773283	0.742257
C133	C	-0.205225	0.091365	-0.075393
C134	C	0.128108	0.424698	0.257940
C135	C	0.461441	0.758031	0.591273
C136	C	-0.255678	0.090534	-0.075391
C137	C	0.077656	0.423868	0.257942
C138	C	0.410989	0.757201	0.591275
C139	C	-0.260073	0.098202	0.075621
C140	C	0.073260	0.431536	0.408955
C141	C	0.406593	0.764869	0.742288
C142	C	-0.209620	0.099038	0.075618
C143	C	0.123713	0.432371	0.408952
C144	C	0.457046	0.765705	0.742285
C145	C	-0.182197	0.095613	0.000109
C146	C	0.151137	0.428946	0.333442
C147	C	0.484470	0.762280	0.666775
C148	C	0.355439	0.108375	0.075577
C149	C	0.688772	0.441708	0.408911
C150	C	1.022106	0.775041	0.742244
C151	C	0.405893	0.109215	0.075567
C152	C	0.739226	0.442548	0.408901
C153	C	1.072560	0.775882	0.742234
C154	C	0.410285	0.101543	-0.075445
C155	C	0.743618	0.434876	0.257889
C156	C	1.076951	0.768210	0.591222
C157	C	0.359835	0.100707	-0.075435
C158	C	0.693168	0.434040	0.257898
C159	C	1.026502	0.767373	0.591232
C160	C	0.332413	0.104120	0.000083
C161	C	0.665747	0.437454	0.333416
C162	C	0.999080	0.770787	0.666749
O163	O	0.281887	0.096146	-0.139594
O164	O	0.615220	0.429479	0.193739
O165	O	0.948553	0.762813	0.527072
O166	O	0.273718	0.110296	0.139799
O167	O	0.607052	0.443630	0.473133
O168	O	0.940385	0.776963	0.806466
C169	C	0.047690	0.103274	0.075602
C170	C	0.381024	0.436607	0.408935
C171	C	0.714357	0.769940	0.742269
C172	C	0.024665	0.099018	0.000101
C173	C	0.357998	0.432352	0.333434
C174	C	0.691331	0.765685	0.666768
C175	C	0.052089	0.095600	-0.075403
C176	C	0.385422	0.428933	0.257930
C177	C	0.718755	0.762267	0.591263
C178	C	-0.025788	0.098188	0.000103
C179	C	0.307546	0.431521	0.333436
C180	C	0.640879	0.764855	0.666770
C181	C	-0.053212	0.101606	0.075607
C182	C	0.280122	0.434940	0.408941
C183	C	0.613455	0.768273	0.742274
C184	C	-0.030183	0.105855	0.151109
C185	C	0.303150	0.439188	0.484443
C186	C	0.636483	0.772521	0.817776
C187	C	0.020266	0.106692	0.151106
C188	C	0.353600	0.440025	0.484439
C189	C	0.686933	0.773359	0.817773
C190	C	0.029060	0.091352	-0.150905
C191	C	0.362394	0.424685	0.182428
C192	C	0.695727	0.758018	0.515761
C193	C	-0.021390	0.090516	-0.150896
C194	C	0.311944	0.423849	0.182437
C195	C	0.645277	0.757182	0.515771
C196	C	-0.048814	0.093934	-0.075392
C197	C	0.284520	0.427267	0.257942
C198	C	0.617853	0.760600	0.591275
C199	C	0.663202	0.093076	0.000108
C200	C	0.996536	0.426409	0.333441
C201	C	1.329869	0.759742	0.666775
C202	C	0.716898	0.093953	0.000113
C203	C	1.050232	0.427286	0.333446
C204	C	1.383565	0.760619	0.666780
C205	C	0.577456	0.242789	0.000066
C206	C	0.910789	0.576122	0.333399
C207	C	1.244122	0.909456	0.666732
C208	C	0.581976	0.329527	0.000050
C209	C	0.915310	0.662860	0.333383
C210	C	1.248643	0.996194	0.666717
N211	N	0.568808	0.110834	0.215886
N212	N	0.902141	0.444167	0.549219
N213	N	1.235475	0.777501	0.882553
N214	N	0.581411	0.088909	-0.215703
N215	N	0.914744	0.422243	0.117631
N216	N	1.248078	0.755576	0.450964
C217	C	0.598209	0.059539	0.259486
C218	C	0.931542	0.392873	0.592820
C219	C	1.264875	0.726206	0.926153
C220	C	0.595671	0.063971	0.346674
C221	C	0.929004	0.397305	0.680007
C222	C	1.262338	0.730638	1.013341
C223	C	0.563735	0.119702	0.390260
C224	C	0.897068	0.453035	0.723593
C225	C	1.230401	0.786369	1.056926
C226	C	0.534331	0.170999	0.346653
C227	C	0.867664	0.504332	0.679987
C228	C	1.200997	0.837666	1.013320
C229	C	0.536866	0.166563	0.259467
C230	C	0.870199	0.499896	0.592801
C231	C	1.203533	0.833229	0.926134
C232	C	0.554542	0.135770	0.653505
C233	C	0.887876	0.469104	0.986838
C234	C	1.221209	0.802437	1.320172
C235	C	0.552010	0.140204	0.740697
C236	C	0.885343	0.473537	1.074031
C237	C	1.218677	0.806871	1.407364
C238	C	0.613350	0.033175	0.740712
C239	C	0.946684	0.366508	1.074045
C240	C	1.280017	0.699842	1.407378
C241	C	0.615885	0.028747	0.653524
C242	C	0.949218	0.362080	0.986857
C243	C	1.282552	0.695413	1.320191
C244	C	0.586479	0.080041	0.609925
C245	C	0.919813	0.413374	0.943259
C246	C	1.253146	0.746708	1.276592
C247	C	0.561141	0.124235	0.479380
C248	C	0.894474	0.457568	0.812713
C249	C	1.227808	0.790902	1.146046
C250	C	0.589071	0.075504	0.520807
C251	C	0.922404	0.408837	0.854140
C252	C	1.255737	0.742170	1.187474
H253	H	0.503216	-0.645002	0.000037
H254	H	0.836549	-0.311668	0.333370
H255	H	1.169882	0.021665	0.666703
F256	F	0.500338	0.230309	0.393041
F257	F	0.833672	0.563643	0.726375
F258	F	1.167005	0.896976	1.059708
F259	F	0.643516	-0.391289	0.000110
F260	F	0.976850	-0.057956	0.333443
F261	F	1.310183	0.275378	0.666776
H262	H	0.647002	-0.155245	0.000150
H263	H	0.980336	0.178088	0.333483
H264	H	1.313669	0.511421	0.666816
H265	H	0.637291	-0.008587	0.776218
H266	H	0.970624	0.324746	1.109551
H267	H	1.303957	0.658079	1.442884
F268	F	0.505572	0.221156	0.213066
F269	F	0.838905	0.554489	0.546399
F270	F	1.172238	0.887823	0.879733
H271	H	0.619611	0.022203	0.382173
H272	H	0.952945	0.355536	0.715506
H273	H	1.286278	0.688869	1.048840
F274	F	0.527153	0.183549	0.525772
F275	F	0.860486	0.516882	0.859105
F276	F	1.193820	0.850216	1.192438
H277	H	0.518143	-0.401232	0.000056
H278	H	0.851477	-0.067899	0.333389
H279	H	1.184810	0.265434	0.666723
F280	F	0.500550	-0.484499	0.000040
F281	F	0.833884	-0.151166	0.333374
F282	F	1.167217	0.182167	0.666707
F283	F	0.335328	0.096189	-0.155797
F284	F	0.668662	0.429522	0.177536
F285	F	1.001995	0.762856	0.510869
F286	F	0.469538	-0.275030	0.000072
F287	F	0.802871	0.058303	0.333405
F288	F	1.136205	0.391637	0.666738
H289	H	-0.040132	0.087056	-0.212387
H290	H	0.293201	0.420389	0.120946
H291	H	0.626534	0.753722	0.454279
F292	F	0.623057	0.016190	0.474419
F293	F	0.956390	0.349523	0.807752
F294	F	1.289724	0.682856	1.141085
H295	H	0.432622	0.098763	-0.136918
H296	H	0.765956	0.432096	0.196415
H297	H	1.099289	0.765430	0.529749
H298	H	0.051384	0.088566	-0.212391
H299	H	0.384717	0.421899	0.120942
H300	H	0.718051	0.755232	0.454275
F301	F	0.091986	0.112007	0.231469
F302	F	0.425319	0.445340	0.564802
F303	F	0.758652	0.778674	0.898135
H304	H	0.530600	0.177538	0.618014
H305	H	0.863933	0.510871	0.951347
H306	H	1.197266	0.844204	1.284680
F307	F	0.478312	-0.106794	0.000103
F308	F	0.811645	0.226539	0.333437
F309	F	1.144978	0.559872	0.666770
F310	F	0.649670	-0.315749	0.000120
F311	F	0.983003	0.017584	0.333453
F312	F	1.316336	0.350918	0.666787
F313	F	0.044765	0.111222	0.231472
F314	F	0.378098	0.444555	0.564805
F315	F	0.711432	0.777889	0.898138
F316	F	0.671906	-0.693457	0.000065
F317	F	1.005239	-0.360124	0.333398
F318	F	1.338573	-0.026790	0.666732
H319	H	0.669237	-0.532938	0.000096
H320	H	1.002570	-0.199605	0.333430
H321	H	1.335904	0.133728	0.666763
H322	H	0.526002	0.185590	0.776181
H323	H	0.859336	0.518924	1.109514
H324	H	1.192669	0.852257	1.442847
F325	F	0.430395	0.113748	0.155936
F326	F	0.763728	0.447081	0.489269
F327	F	1.097062	0.780415	0.822602
F328	F	0.326262	0.112006	0.155952
F329	F	0.659595	0.445340	0.489285
F330	F	0.992928	0.778673	0.822618
F331	F	-0.176045	0.087720	-0.155766
F332	F	0.157289	0.421053	0.177567
F333	F	0.490622	0.754387	0.510900
F334	F	0.649876	-0.030567	0.607138
F335	F	0.983209	0.302766	0.940471
F336	F	1.316542	0.636100	1.273804
H337	H	-0.190877	0.102505	0.137103
H338	H	0.142457	0.435838	0.470436
H339	H	0.475790	0.769172	0.803770
F340	F	0.196114	0.113730	0.231462
F341	F	0.529447	0.447064	0.564795
F342	F	0.862780	0.780397	0.898129
F343	F	0.632203	0.000226	0.213107
F344	F	0.965536	0.333559	0.546441
F345	F	1.298869	0.666893	0.879774
F346	F	-0.289269	0.101840	0.155979
F347	F	0.044065	0.435173	0.489312
F348	F	0.377398	0.768506	0.822646
H349	H	-0.274421	0.087081	-0.136877
H350	H	0.058913	0.420414	0.196457
H351	H	0.392246	0.753747	0.529790
F352	F	0.105471	0.088478	-0.231288
F353	F	0.438805	0.421811	0.102045
F354	F	0.772138	0.755144	0.435378
F355	F	0.209605	0.090192	-0.231287
F356	F	0.542938	0.423526	0.102046
F357	F	0.876271	0.756859	0.435379
F358	F	-0.059379	0.109496	0.231467
F359	F	0.273954	0.442830	0.564800
F360	F	0.607288	0.776163	0.898133
