data_functionalizedCrystal
_audit_creation_method	'MofGen! by Chris Wilmer'
_symmetry_space_group_name_H-M	'P1'
_symmetry_Int_Tables_number	1
_symmetry_cell_setting	triclinic
loop_
_symmetry_equiv_pos_as_xyz
  x,y,z
_cell_length_a	12.759401
_cell_length_b	10.686285
_cell_length_c	12.759393
_cell_angle_alpha	85.601997
_cell_angle_beta	89.981504
_cell_angle_gamma	85.631983
loop_
_atom_site_label
_atom_site_type_symbol
_atom_site_fract_x
_atom_site_fract_y
_atom_site_fract_z
Zn1	Zn	1.638392	-0.502271	-0.561964
Zn2	Zn	1.651790	-0.713314	-0.372831
Zn3	Zn	1.462698	-0.502337	-0.386299
Zn4	Zn	1.476180	-0.713217	-0.548479
O5	O	1.557265	-0.607785	-0.467393
O6	O	1.787191	-0.530279	-0.536882
O7	O	1.626671	-0.685396	-0.227592
O8	O	1.474756	-0.325751	-0.420881
O9	O	1.797034	-0.685332	-0.397927
O10	O	1.603837	-0.325703	-0.549942
O11	O	1.487747	-0.530392	-0.237487
O12	O	1.317465	-0.530298	-0.407805
O13	O	1.497733	-0.685167	-0.697293
O14	O	1.327370	-0.685231	-0.526958
O15	O	1.616910	-0.530185	-0.707200
O16	O	1.639744	-0.889878	-0.384851
O17	O	1.510724	-0.889807	-0.513898
C18	C	1.284296	-0.607762	-0.467380
C19	C	1.167521	-0.607782	-0.467398
C20	C	1.117852	-0.688585	-0.529321
C21	C	1.008129	-0.688601	-0.529332
C22	C	0.997753	-0.527008	-0.405486
C23	C	1.107474	-0.526986	-0.405482
C24	C	1.123842	-0.781883	-0.600819
C25	C	1.014119	-0.781899	-0.600829
C26	C	1.578179	-0.935627	-0.446473
C27	C	1.587222	-1.075879	-0.437558
C28	C	1.831300	-0.607809	-0.467406
C29	C	1.948077	-0.607819	-0.467412
C30	C	1.557331	-0.607658	-0.741435
C31	C	1.557358	-0.607603	-0.858215
C32	C	1.536298	-0.278662	-0.488418
C33	C	1.527363	-0.138410	-0.497378
C34	C	1.619422	-0.526897	-0.918238
C35	C	1.619445	-0.526851	-1.027965
C36	C	1.495336	-0.688230	-1.017635
C37	C	1.495309	-0.688268	-0.907911
C38	C	1.691079	-0.433730	-0.924202
C39	C	1.691101	-0.433684	-1.033929
C40	C	1.557255	-0.607821	-0.194423
C41	C	1.557407	-0.607519	-0.077666
H42	H	1.147909	-0.461181	-0.355066
H43	H	1.163793	-0.874665	-0.565620
H44	H	0.977889	-0.747016	-0.680405
H45	H	1.645384	-1.129647	-0.379512
C46	C	0.982924	-0.912235	-0.563202
C47	C	1.073535	-0.991943	-0.540176
C48	C	1.044839	-1.112007	-0.505500
H49	H	0.943703	-0.944956	-0.616709
H50	H	0.941225	-0.906890	-0.501775
H51	H	1.115216	-0.997293	-0.601596
H52	H	1.112767	-0.959262	-0.486662
H53	H	1.003140	-1.106662	-0.444073
H54	H	1.005617	-1.144716	-0.559012
H55	H	1.106313	-1.166100	-0.489864
H56	H	1.444767	-0.753982	-0.859044
C57	C	1.449980	-1.066666	-0.574906
C58	C	1.504610	-0.990912	-0.647075
C59	C	1.433362	-0.924807	-0.718518
H60	H	1.400928	-1.015228	-0.538033
H61	H	1.413654	-1.124658	-0.611304
H62	H	1.540919	-0.932926	-0.610680
H63	H	1.553658	-1.042318	-0.683973
H64	H	1.397036	-0.982799	-0.754917
H65	H	1.384313	-0.873376	-0.681636
H66	H	1.470419	-0.873409	-0.767499
C67	C	1.428090	-0.775765	-1.071786
C68	C	1.441414	-0.758480	-1.180725
C69	C	1.379495	-0.839111	-1.230638
H70	H	1.356281	-0.757379	-1.055101
H71	H	1.448876	-0.860582	-1.048442
H72	H	1.420621	-0.673682	-1.204060
H73	H	1.513209	-0.776874	-1.197440
H74	H	1.400281	-0.923928	-1.207294
H75	H	1.307690	-0.820718	-1.213945
H76	H	1.388534	-0.827402	-1.304557
H77	H	1.663058	-0.336009	-0.900676
H78	H	1.770592	-0.468762	-0.887933
C79	C	0.932738	-0.439158	-0.338230
C80	C	0.999723	-0.368369	-0.284018
C81	C	0.939871	-0.287417	-0.222060
H82	H	0.892983	-0.487227	-0.289230
H83	H	0.886462	-0.384175	-0.381986
H84	H	1.045980	-0.423346	-0.240266
H85	H	1.039479	-0.320275	-0.332992
H86	H	0.893595	-0.232434	-0.265815
H87	H	0.900118	-0.335496	-0.173066
H88	H	0.985310	-0.239369	-0.185277
H89	H	1.151983	-0.755822	-0.683887
H90	H	1.656047	-0.340834	-1.073896
C91	C	1.801887	-0.468678	-1.071210
C92	C	1.869631	-0.490128	-0.984317
C93	C	1.971686	-0.522384	-1.018618
H94	H	1.824817	-0.401848	-1.116820
H95	H	1.802234	-0.542861	-1.107797
H96	H	1.869288	-0.415955	-0.947747
H97	H	1.846735	-0.556964	-0.938698
H98	H	1.972033	-0.596567	-1.055205
H99	H	1.994605	-0.455549	-1.064229
H100	H	2.017661	-0.536953	-0.959667
