data_functionalizedCrystal
_audit_creation_method	'MofGen! by Chris Wilmer'
_symmetry_space_group_name_H-M	'P1'
_symmetry_Int_Tables_number	1
_symmetry_cell_setting	triclinic
loop_
_symmetry_equiv_pos_as_xyz
  x,y,z
_cell_length_a	17.019282
_cell_length_b	27.731996
_cell_length_c	16.098538
_cell_angle_alpha	92.693548
_cell_angle_beta	91.140572
_cell_angle_gamma	83.006485
loop_
_atom_site_label
_atom_site_type_symbol
_atom_site_fract_x
_atom_site_fract_y
_atom_site_fract_z
O1	O	1.045616	0.061728	0.005749
O2	O	0.816697	0.069076	-0.010677
O3	O	0.938287	-0.004952	-0.001934
O4	O	0.924026	0.135757	-0.002994
O5	O	0.931184	-0.000645	0.136068
O6	O	0.809594	0.073383	0.127325
O7	O	1.038514	0.066036	0.143751
Zn8	Zn	0.922926	0.070393	0.157449
Zn9	Zn	0.932284	0.064718	-0.024375
O10	O	0.916924	0.140064	0.135009
C11	C	0.783868	0.070867	0.056223
C12	C	0.696631	0.069781	0.049964
C13	C	0.651779	0.071618	0.122251
C14	C	0.569812	0.070590	0.116372
C15	C	0.532697	0.067729	0.038206
C16	C	0.577554	0.065891	-0.034086
C17	C	0.659521	0.066915	-0.028206
C18	C	0.285405	0.064516	0.016690
C19	C	0.203432	0.063493	0.010816
C20	C	0.195695	0.068192	0.161275
C21	C	0.277663	0.069219	0.167147
C22	C	0.322514	0.067378	0.094856
C23	C	0.448913	0.066680	0.032195
C24	C	0.406297	0.068423	0.100867
C25	C	0.934442	-0.020808	0.067049
C26	C	0.933559	-0.074469	0.066994
C27	C	0.931881	-0.409569	-0.008670
C28	C	0.928531	-0.611248	-0.008925
O29	O	0.931356	-0.639318	-0.072935
N30	N	0.924243	-0.634119	0.066269
C31	C	0.920787	-0.606568	0.141532
O32	O	0.917055	-0.630649	0.205483
C33	C	0.924132	-0.404889	0.141786
C34	C	0.928428	-0.382021	0.066587
C35	C	0.936176	-0.386700	-0.083863
C36	C	0.937018	-0.336283	-0.083798
C37	C	0.933565	-0.308736	-0.008541
C38	C	0.929270	-0.331604	0.066652
C39	C	0.920671	-0.377338	0.217048
C40	C	0.921505	-0.326915	0.217105
C41	C	0.925801	-0.304047	0.141906
C42	C	0.926659	-0.253640	0.141974
N43	N	0.930946	-0.230768	0.066780
C44	C	0.934399	-0.258316	-0.008477
C45	C	0.919033	-0.712452	0.141394
C46	C	0.918199	-0.762872	0.141331
C47	C	0.925940	-0.767548	-0.009127
C48	C	0.926781	-0.717128	-0.009063
C49	C	0.923321	-0.689580	0.066199
C50	C	0.936168	-0.152438	-0.008336
C51	C	0.937012	-0.102017	-0.008264
C52	C	0.929266	-0.097345	0.142193
C53	C	0.928426	-0.147761	0.142122
C54	C	0.931874	-0.175307	0.066851
O55	O	0.923826	-0.225539	0.205950
O56	O	0.938114	-0.234225	-0.072420
C57	C	0.931039	-0.459985	-0.008735
C58	C	0.926745	-0.482854	0.066458
C59	C	0.923292	-0.455306	0.141715
C60	C	0.925910	-0.533273	0.066395
C61	C	0.929363	-0.560821	-0.008863
C62	C	0.933650	-0.537949	-0.084057
C63	C	0.934492	-0.487533	-0.083993
C64	C	0.919004	-0.478178	0.216910
C65	C	0.918163	-0.528594	0.216839
C66	C	0.921616	-0.556142	0.141581
C67	C	1.071343	0.064244	0.076849
C68	C	1.158580	0.065330	0.083103
C69	C	0.920768	0.155919	0.066024
C70	C	0.921652	0.209580	0.066073
N71	N	0.916546	0.074266	0.281539
N72	N	0.938671	0.060842	-0.148465
C73	C	0.968172	0.042857	0.328837
C74	C	0.963716	0.045571	0.415705
C75	C	0.907636	0.079696	0.455275
C76	C	0.856004	0.111107	0.407971
C77	C	0.860458	0.108391	0.321104
C78	C	0.891493	0.089536	0.717364
C79	C	0.887045	0.092251	0.804238
C80	C	0.994756	0.026713	0.811966
C81	C	0.999207	0.024002	0.725097
C82	C	0.947573	0.055411	0.677800
C83	C	0.903081	0.082472	0.544069
C84	C	0.952124	0.052632	0.589008
H85	H	0.307877	0.071546	0.230798
H86	H	0.857422	0.110259	0.576294
H87	H	0.681991	0.073952	0.185902
Br88	Br	0.942848	-0.070985	-0.110326
Br89	Br	1.033778	0.002942	0.479897
H90	H	0.533299	0.072078	0.175235
Br91	Br	0.810934	0.138571	0.857935
H92	H	0.159169	0.069690	0.220130
Br93	Br	1.075318	-0.022310	0.671393
Br94	Br	0.398541	0.062772	-0.073884
H95	H	0.436521	0.070751	0.164510
Br96	Br	0.779889	0.157418	0.461670
Br97	Br	0.940847	-0.189813	-0.110490
H98	H	0.940513	-0.317668	-0.145033
Br99	Br	0.914330	-0.675073	0.243546
H100	H	0.173215	0.061165	-0.052839
H101	H	0.930278	-0.698512	-0.070297
H102	H	0.321913	0.063015	-0.042175
Br103	Br	0.940862	-0.424077	-0.186013
Br104	Br	0.938343	-0.575346	-0.186191
H105	H	0.928753	-0.789986	-0.070405
H106	H	0.547329	0.063558	-0.097730
Br107	Br	0.922614	-0.178800	0.244180
Br108	Br	0.720393	0.064418	-0.126313
H109	H	0.997781	0.024845	0.556788
Br110	Br	0.912387	-0.793903	0.243392
H111	H	1.036793	0.001141	0.850482
Br112	Br	0.914837	-0.408360	0.319110
Br113	Br	0.821421	0.132162	0.653181
H114	H	0.918676	-0.304487	0.278393
H115	H	0.926459	-0.074906	0.203466
H116	H	0.818417	0.133967	0.282595
H117	H	0.937990	-0.468918	-0.145227
H118	H	0.914671	-0.547210	0.278080
H119	H	0.916193	-0.455753	0.278195
H120	H	1.013841	0.015070	0.296625
