data_functionalizedCrystal
_audit_creation_method	'MofGen! by Chris Wilmer'
_symmetry_space_group_name_H-M	'P1'
_symmetry_Int_Tables_number	1
_symmetry_cell_setting	triclinic
loop_
_symmetry_equiv_pos_as_xyz
  x,y,z
_cell_length_a	6.817900
_cell_length_b	17.982959
_cell_length_c	12.200737
_cell_angle_alpha	94.642216
_cell_angle_beta	107.141108
_cell_angle_gamma	102.451857
loop_
_atom_site_label
_atom_site_type_symbol
_atom_site_fract_x
_atom_site_fract_y
_atom_site_fract_z
V1	V	-4.063239	-0.105591	-0.358141
O2	O	-4.055248	0.004891	-0.350831
O3	O	-4.009514	-0.209192	-0.356166
O4	O	-4.033025	-0.104047	-0.514123
O5	O	-4.031575	-0.100983	-0.191780
V6	V	-4.545200	-0.092366	-0.338185
O7	O	-4.327922	-0.134599	-0.401915
O8	O	-4.730714	-0.063358	-0.294411
O9	O	-4.375718	0.011236	-0.340161
O10	O	-4.670587	-0.202848	-0.345496
O11	O	-4.694261	-0.096974	-0.504546
O12	O	-4.352208	-0.093910	-0.182204
C13	C	-3.852631	-0.234446	-0.350638
C14	C	-3.890113	-0.319142	-0.350063
C15	C	-4.090308	-0.362816	-0.355532
C16	C	-4.125517	-0.442398	-0.354998
C17	C	-3.960525	-0.478303	-0.348987
C18	C	-3.760315	-0.434624	-0.343521
C19	C	-3.725112	-0.355044	-0.344063
C20	C	-3.902281	-0.755558	-0.341336
C21	C	-3.937498	-0.835143	-0.340790
C22	C	-4.302685	-0.842912	-0.352271
C23	C	-4.267483	-0.763332	-0.352813
C24	C	-4.067280	-0.719661	-0.347353
C25	C	-4.029105	-0.633369	-0.347934
C26	C	-3.998693	-0.564592	-0.348397
C27	C	-3.882620	-0.100321	-0.552126
C28	C	-3.939165	-0.099744	-0.679645
C29	C	-3.985083	-0.099275	-0.783204
C30	C	-4.042705	-0.098683	-0.913123
C31	C	-4.195943	0.036485	-0.345685
C32	C	-4.137700	0.121181	-0.346268
C33	C	-4.165954	-0.097638	-0.144194
C34	C	-4.088647	-0.098211	-0.016674
H35	H	-3.625982	-0.463865	-0.338633
O36	O	-4.518626	-0.890018	-0.358161
H37	H	-4.638267	-0.884777	-0.439594
H38	H	-3.562098	-0.319486	-0.339614
O39	O	-3.759546	-0.873877	-0.334325
H40	H	-3.614424	-0.830142	-0.330634
O41	O	-3.686350	-0.708461	-0.335434
H42	H	-3.700392	-0.680201	-0.413998
O43	O	-4.445428	-0.724600	-0.359298
H44	H	-4.476911	-0.696700	-0.438402
H45	H	-4.224663	-0.333587	-0.360416
O46	O	-4.341433	-0.489504	-0.360880
H47	H	-4.450236	-0.451166	-0.365131
