data_functionalizedCrystal
_audit_creation_method	'MofGen! by Chris Wilmer'
_symmetry_space_group_name_H-M	'P1'
_symmetry_Int_Tables_number	1
_symmetry_cell_setting	triclinic
loop_
_symmetry_equiv_pos_as_xyz
  x,y,z
_cell_length_a	16.992694
_cell_length_b	23.532357
_cell_length_c	15.455313
_cell_angle_alpha	92.642146
_cell_angle_beta	87.142206
_cell_angle_gamma	86.748258
loop_
_atom_site_label
_atom_site_type_symbol
_atom_site_fract_x
_atom_site_fract_y
_atom_site_fract_z
O1	O	1.042872	0.118386	-0.072039
O2	O	0.814599	0.117060	-0.072065
O3	O	0.935639	0.035133	-0.072034
O4	O	0.921833	0.200314	-0.072071
O5	O	0.928717	0.039797	0.072227
O6	O	0.807678	0.121725	0.072196
O7	O	1.035951	0.123050	0.072221
Cu8	Cu	0.921182	0.122813	0.085380
Cu9	Cu	0.929368	0.117297	-0.085224
O10	O	0.914911	0.204978	0.072190
C11	C	0.781940	0.117689	0.000062
C12	C	0.694937	0.112605	0.000053
C13	C	0.644303	0.161652	0.000043
C14	C	0.562554	0.156873	0.000056
C15	C	0.531441	0.103046	0.000073
C16	C	0.582081	0.053996	0.000086
C17	C	0.663828	0.058776	0.000080
C18	C	0.288001	0.083235	0.000101
C19	C	0.206248	0.078458	0.000105
C20	C	0.186726	0.181336	0.000077
C21	C	0.268475	0.186111	0.000065
C22	C	0.319108	0.137061	0.000082
N23	N	0.447881	0.098159	0.000084
N24	N	0.402667	0.141948	0.000078
C25	C	0.931833	0.016231	0.000099
C26	C	0.930794	-0.047039	0.000107
C27	C	0.928050	-0.441918	-0.078577
C28	C	0.927063	-0.501366	-0.078582
O29	O	0.929735	-0.534272	-0.145459
N30	N	0.922801	-0.528559	0.000054
C31	C	0.919517	-0.496300	0.078699
O32	O	0.915800	-0.524888	0.145584
C33	C	0.920498	-0.436852	0.078703
C34	C	0.924769	-0.409663	0.000063
C35	C	0.932319	-0.414728	-0.157210
C36	C	0.933308	-0.355284	-0.157205
C37	C	0.930027	-0.323029	-0.078566
C38	C	0.925757	-0.350218	0.000068
C39	C	0.917209	-0.404594	0.157348
C40	C	0.918190	-0.345142	0.157345
C41	C	0.922461	-0.317953	0.078705
C42	C	0.923464	-0.258519	0.078713
N43	N	0.927727	-0.231326	0.000078
C44	C	0.931008	-0.263581	-0.078562
C45	C	0.917455	-0.621144	0.078684
C46	C	0.916480	-0.680591	0.078681
C47	C	0.924024	-0.685653	-0.078600
C48	C	0.925006	-0.626206	-0.078596
C49	C	0.921718	-0.593951	0.000049
C50	C	0.933084	-0.138743	-0.078544
C51	C	0.934075	-0.079294	-0.078532
C52	C	0.926526	-0.074236	0.078748
C53	C	0.925539	-0.133681	0.078737
C54	C	0.928816	-0.165933	0.000083
O55	O	0.920792	-0.225577	0.145556
O56	O	0.934714	-0.234984	-0.145435
C57	C	1.068611	0.122422	0.000092
C58	C	1.155614	0.127505	0.000095
C59	C	0.918717	0.223879	0.000055
C60	C	0.919757	0.287149	0.000041
N61	N	0.915431	0.126693	0.205374
N62	N	0.935125	0.113413	-0.205218
C63	C	0.966871	0.091902	0.250782
C64	C	0.962528	0.094841	0.341589
C65	C	0.906749	0.132576	0.386986
C66	C	0.855304	0.167368	0.341572
C67	C	0.859643	0.164425	0.250767
C68	C	0.888020	0.145263	0.658563
C69	C	0.883686	0.148205	0.749374
C70	C	0.990909	0.075676	0.749384
C71	C	0.995247	0.072739	0.658577
C72	C	0.943799	0.107530	0.613171
N73	N	0.902311	0.135583	0.479805
N74	N	0.948234	0.104520	0.520354
H75	H	0.556742	0.010169	0.000113
C76	C	0.911798	-0.710494	0.165189
C77	C	0.840754	-0.696851	0.230062
C78	C	0.836070	-0.726749	0.316574
C79	C	0.902429	-0.770291	0.338213
C80	C	0.973478	-0.783936	0.273338
C81	C	0.978162	-0.754037	0.186826
H82	H	0.791626	-0.664617	0.214045
H83	H	0.783475	-0.716648	0.364598
H84	H	0.898962	-0.792424	0.402254
H85	H	1.022606	-0.816170	0.289356
H86	H	1.030758	-0.764139	0.138802
C87	C	1.028229	0.050392	0.200849
C88	C	1.000941	0.003423	0.138444
C89	C	1.062299	-0.038089	0.088514
C90	C	1.150946	-0.032631	0.100990
C91	C	1.178239	0.014340	0.163398
C92	C	1.116881	0.055852	0.213327
H93	H	0.935315	-0.000618	0.129207
H94	H	1.042095	-0.072860	0.042316
H95	H	1.196367	-0.063361	0.064029
H96	H	1.243865	0.018381	0.172635
H97	H	1.137085	0.090623	0.259525
H98	H	0.705055	0.018837	0.000087
H99	H	0.934988	-0.440984	-0.221252
C100	C	1.056600	0.031230	0.608637
C101	C	1.061368	0.027997	0.508755
C102	C	1.122723	-0.013511	0.458811
C103	C	1.179310	-0.051786	0.508750
C104	C	1.174543	-0.048554	0.608637
C105	C	1.113188	-0.007047	0.658581
H106	H	1.019478	0.056331	0.471782
H107	H	1.126251	-0.015903	0.384867
H108	H	1.224728	-0.082512	0.471778
H109	H	1.216434	-0.076889	0.645610
H110	H	1.109660	-0.004655	0.732524
C111	C	0.938769	-0.049386	-0.165041
C112	C	0.872416	-0.005838	-0.186676
C113	C	0.877108	0.024068	-0.273181
C114	C	0.948154	0.010426	-0.338052
C115	C	1.014512	-0.033124	-0.316419
C116	C	1.009820	-0.063030	-0.229913
H117	H	0.819819	0.004263	-0.138653
H118	H	0.827985	0.056307	-0.289195
H119	H	0.951627	0.032564	-0.402088
H120	H	1.067109	-0.043224	-0.364441
H121	H	1.058943	-0.095268	-0.213899
H122	H	0.838262	0.178935	0.786333
H123	H	0.180920	0.034624	0.000118
H124	H	0.809884	0.198091	0.378540
H125	H	0.846130	0.173592	0.621601
C126	C	1.047494	0.037404	0.799331
C127	C	1.014238	-0.005521	0.861776
C128	C	1.070823	-0.043798	0.911721
C129	C	1.160664	-0.039149	0.899221
C130	C	1.193924	0.003778	0.836773
C131	C	1.137339	0.042054	0.786828
H132	H	0.947729	-0.008964	0.871031
H133	H	1.046202	-0.075575	0.957949
H134	H	1.202552	-0.067484	0.936194
H135	H	1.260434	0.007220	0.827518
H136	H	1.161961	0.073831	0.740600
H137	H	0.935748	-0.164996	-0.142591
H138	H	0.928482	-0.604072	-0.142632
C139	C	0.803060	0.202698	0.200816
C140	C	0.741731	0.244226	0.250749
C141	C	0.685143	0.282498	0.200800
C142	C	0.689884	0.279241	0.100918
C143	C	0.751215	0.237711	0.050979
C144	C	0.807803	0.199440	0.100929
H145	H	0.738220	0.246639	0.324693
H146	H	0.639742	0.313241	0.237768
H147	H	0.647994	0.307572	0.063942
H148	H	0.754726	0.235299	-0.022964
H149	H	0.853205	0.168696	0.063961
C150	C	0.506860	0.210827	0.000045
C151	C	0.513627	0.251495	-0.074879
C152	C	0.457934	0.305452	-0.074887
C153	C	0.395474	0.318742	0.000030
C154	C	0.388704	0.278074	0.074960
C155	C	0.444396	0.224116	0.074968
H156	H	0.559866	0.241657	-0.130342
H157	H	0.462946	0.335558	-0.130355
H158	H	0.354247	0.358685	0.000025
H159	H	0.342464	0.287911	0.130423
H160	H	0.439384	0.194010	0.130436
C161	C	0.131028	0.235288	0.000067
C162	C	0.075724	0.243729	-0.074839
C163	C	0.020025	0.297684	-0.074845
C164	C	0.019631	0.343198	0.000056
C165	C	0.074937	0.334759	0.074968
C166	C	0.130635	0.280804	0.074974
H167	H	0.076014	0.210035	-0.130290
H168	H	-0.020916	0.303931	-0.130300
H169	H	-0.021601	0.383139	0.000052
H170	H	0.074647	0.368453	0.130419
H171	H	0.171576	0.274557	0.130429
C172	C	0.343687	0.029279	0.000113
C173	C	0.398983	0.020834	0.075026
C174	C	0.454672	-0.033126	0.075038
C175	C	0.455065	-0.078640	0.000138
C176	C	0.399768	-0.070197	-0.074781
C177	C	0.344079	-0.016237	-0.074793
H178	H	0.398693	0.054527	0.130477
H179	H	0.495606	-0.039377	0.130498
H180	H	0.496289	-0.118585	0.000146
H181	H	0.400057	-0.103890	-0.130232
H182	H	0.303144	-0.009986	-0.130253
C183	C	0.937994	-0.325382	-0.243714
C184	C	1.007776	-0.288585	-0.265354
C185	C	1.012458	-0.258689	-0.351868
C186	C	0.947357	-0.265590	-0.416742
C187	C	0.877570	-0.302388	-0.395104
C188	C	0.872888	-0.332284	-0.308589
H189	H	1.055971	-0.283476	-0.217328
H190	H	1.064119	-0.231449	-0.367886
H191	H	0.950823	-0.243459	-0.480785
H192	H	0.829375	-0.307498	-0.443129
H193	H	0.821227	-0.359525	-0.292572
C194	C	0.927626	-0.721140	-0.165108
C195	C	0.998943	-0.718436	-0.229981
C196	C	1.002546	-0.753923	-0.316483
C197	C	0.934832	-0.792114	-0.338113
C198	C	0.863510	-0.794819	-0.273238
C199	C	0.859907	-0.759332	-0.186736
H200	H	1.049074	-0.690164	-0.213970
H201	H	1.055343	-0.751920	-0.364507
H202	H	0.937498	-0.818383	-0.402147
H203	H	0.813379	-0.823091	-0.289249
H204	H	0.807110	-0.761334	-0.138712
C205	C	0.913852	-0.585668	0.165201
C206	C	0.845420	-0.540732	0.186841
C207	C	0.841816	-0.505259	0.273357
C208	C	0.906644	-0.514723	0.338233
C209	C	0.975081	-0.559661	0.316595
C210	C	0.978685	-0.595134	0.230079
H211	H	0.797426	-0.533724	0.138814
H212	H	0.791155	-0.471993	0.289374
H213	H	0.903977	-0.488464	0.402277
H214	H	1.023075	-0.566669	0.364621
H215	H	1.029347	-0.628400	0.214061
C216	C	0.914575	-0.309663	0.243858
C217	C	0.843254	-0.312375	0.308721
C218	C	0.839641	-0.276897	0.395232
C219	C	0.907350	-0.238706	0.416880
C220	C	0.978677	-0.235992	0.352015
C221	C	0.982290	-0.271470	0.265504
H222	H	0.793127	-0.340648	0.292697
H223	H	0.786840	-0.278907	0.443249
H224	H	0.904675	-0.212443	0.480920
H225	H	1.028803	-0.207720	0.368039
H226	H	1.035091	-0.269461	0.217487
C227	C	0.922913	-0.038747	0.165247
C228	C	0.854477	0.006192	0.186850
C229	C	0.850857	0.041684	0.273349
C230	C	0.915673	0.032237	0.338245
C231	C	0.984114	-0.012704	0.316643
C232	C	0.987734	-0.048196	0.230144
H233	H	0.806492	0.013186	0.138809
H234	H	0.800192	0.074952	0.289340
H235	H	0.912993	0.058510	0.402276
H236	H	1.032098	-0.019698	0.364684
H237	H	1.038399	-0.081464	0.214154
H238	H	0.669628	0.205483	0.000029
H239	H	0.293801	0.229942	0.000041
H240	H	0.922069	-0.155820	0.142772
H241	H	0.913733	-0.426721	0.221385
H242	H	1.004414	0.066511	0.378559
