data_functionalizedCrystal
_audit_creation_method	'MofGen! by Chris Wilmer'
_symmetry_space_group_name_H-M	'P1'
_symmetry_Int_Tables_number	1
_symmetry_cell_setting	triclinic
loop_
_symmetry_equiv_pos_as_xyz
  x,y,z
_cell_length_a	16.959455
_cell_length_b	18.050590
_cell_length_c	16.959447
_cell_angle_alpha	89.968225
_cell_angle_beta	89.985678
_cell_angle_gamma	90.015500
loop_
_atom_site_label
_atom_site_type_symbol
_atom_site_fract_x
_atom_site_fract_y
_atom_site_fract_z
Zn1	Zn	1.208392	-0.295705	-0.446901
Zn2	Zn	1.708392	0.204295	0.053099
Zn3	Zn	1.208318	-0.419907	-0.314719
Zn4	Zn	1.708318	0.080093	0.185281
Zn5	Zn	1.076221	-0.295729	-0.314738
Zn6	Zn	1.576221	0.204271	0.185262
Zn7	Zn	1.076189	-0.419851	-0.446857
Zn8	Zn	1.576189	0.080149	0.053143
O9	O	1.142280	-0.357798	-0.380804
O10	O	1.642280	0.142202	0.119196
O11	O	1.318993	-0.312194	-0.429376
O12	O	1.818993	0.187806	0.070624
O13	O	1.190777	-0.403467	-0.204110
O14	O	1.690777	0.096533	0.295890
O15	O	1.093798	-0.191801	-0.332296
O16	O	1.593798	0.308199	0.167704
O17	O	1.318939	-0.403445	-0.332263
O18	O	1.818939	0.096555	0.167737
O19	O	1.190904	-0.191784	-0.429395
O20	O	1.690904	0.308216	0.070605
O21	O	1.093726	-0.312234	-0.204125
O22	O	1.593726	0.187766	0.295875
O23	O	0.965605	-0.312180	-0.332254
O24	O	1.465605	0.187820	0.167746
O25	O	1.093743	-0.403350	-0.557474
O26	O	1.593743	0.096650	-0.057474
O27	O	0.965582	-0.403373	-0.429321
O28	O	1.465582	0.096627	0.070679
O29	O	1.190873	-0.312141	-0.557506
O30	O	1.690873	0.187859	-0.057506
O31	O	1.190747	-0.523824	-0.332221
O32	O	1.690747	-0.023824	0.167779
O33	O	1.093672	-0.523783	-0.429303
O34	O	1.593672	-0.023783	0.070697
C35	C	0.936914	-0.357774	-0.380786
C36	C	1.436914	0.142226	0.119214
C37	C	0.849057	-0.357781	-0.380797
C38	C	1.349057	0.142219	0.119203
C39	C	0.477569	-0.310275	-0.330366
C40	C	0.977569	0.189725	0.169634
C41	C	0.477594	-0.405382	-0.431286
C42	C	0.977594	0.094618	0.068714
C43	C	0.560140	-0.405371	-0.431282
C44	C	1.060140	0.094629	0.068718
C45	C	0.601404	-0.357813	-0.380818
C46	C	1.101404	0.142187	0.119182
C47	C	0.560123	-0.310265	-0.330358
C48	C	1.060123	0.189735	0.169642
C49	C	0.601427	-0.452924	-0.481734
C50	C	1.101427	0.047076	0.018266
C51	C	0.683978	-0.452916	-0.481731
C52	C	1.183978	0.047084	0.018269
C53	C	0.725244	-0.405353	-0.431270
C54	C	1.225244	0.094647	0.068730
C55	C	0.683958	-0.357802	-0.380809
C56	C	1.183958	0.142198	0.119191
C57	C	0.725222	-0.310243	-0.330345
C58	C	1.225222	0.189757	0.169655
C59	C	0.683937	-0.262689	-0.279888
C60	C	1.183937	0.237311	0.220112
C61	C	0.601389	-0.262702	-0.279898
C62	C	1.101389	0.237298	0.220102
C63	C	0.807793	-0.405340	-0.431261
C64	C	1.307793	0.094660	0.068739
C65	C	0.807776	-0.310233	-0.330337
C66	C	1.307776	0.189767	0.169663
C67	C	1.142219	-0.550750	-0.380772
C68	C	1.642219	-0.050750	0.119228
C69	C	1.142265	-0.633296	-0.380785
C70	C	1.642265	-0.133296	0.119215
C71	C	1.195165	-0.832742	-0.328066
C72	C	1.695165	-0.332742	0.171934
C73	C	1.214468	-0.882071	-0.400207
C74	C	1.714468	-0.382071	0.099793
C75	C	1.142310	-0.784426	-0.380817
C76	C	1.642310	-0.284426	0.119183
C77	C	1.123088	-0.882178	-0.308709
C78	C	1.623088	-0.382178	0.191291
C79	C	1.142355	-0.930411	-0.380841
C80	C	1.642355	-0.430411	0.119159
C81	C	1.161650	-0.832669	-0.452995
C82	C	1.661650	-0.332669	0.047005
C83	C	1.070237	-0.832771	-0.361449
C84	C	1.570237	-0.332771	0.138551
C85	C	1.089513	-0.882079	-0.433639
C86	C	1.589513	-0.382079	0.066361
C87	C	1.142287	-0.700328	-0.380802
C88	C	1.642287	-0.200328	0.119198
C89	C	1.142379	-1.014508	-0.380864
C90	C	1.642379	-0.514508	0.119136
C91	C	1.348448	-0.357823	-0.380822
C92	C	1.848448	0.142177	0.119178
C93	C	1.436305	-0.357834	-0.380830
C94	C	1.936305	0.142166	0.119170
C95	C	1.142313	-0.357737	-0.586972
C96	C	1.642313	0.142263	-0.086972
C97	C	1.142327	-0.357710	-0.674829
C98	C	1.642327	0.142290	-0.174829
C99	C	1.142362	-0.164092	-0.380853
C100	C	1.642362	0.335908	0.119147
C101	C	1.142398	-0.081547	-0.380874
C102	C	1.642398	0.418453	0.119126
C103	C	1.091850	-0.405121	-1.046290
C104	C	1.591850	0.094879	-0.546290
C105	C	1.192992	-0.310143	-1.046319
C106	C	1.692992	0.189857	-0.546319
C107	C	1.192971	-0.310159	-0.963773
C108	C	1.692971	0.189841	-0.463773
C109	C	1.142390	-0.357657	-0.922482
C110	C	1.642390	0.142343	-0.422482
C111	C	1.091830	-0.405139	-0.963737
C112	C	1.591830	0.094861	-0.463737
C113	C	1.243536	-0.262683	-0.922512
C114	C	1.743536	0.237317	-0.422512
C115	C	1.243518	-0.262698	-0.839961
C116	C	1.743518	0.237302	-0.339961
C117	C	1.192932	-0.310192	-0.798668
C118	C	1.692932	0.189808	-0.298668
C119	C	1.142369	-0.357676	-0.839928
C120	C	1.642369	0.142324	-0.339928
C121	C	1.091788	-0.405174	-0.798637
C122	C	1.591788	0.094826	-0.298637
C123	C	1.041220	-0.452654	-0.839896
C124	C	1.541220	0.047346	-0.339896
C125	C	1.041244	-0.452634	-0.922444
C126	C	1.541244	0.047366	-0.422444
C127	C	1.192908	-0.310212	-0.716120
C128	C	1.692908	0.189788	-0.216120
C129	C	1.091767	-0.405193	-0.716084
C130	C	1.591767	0.094807	-0.216084
C131	C	1.142293	-0.357806	-0.175438
C132	C	1.642293	0.142194	0.324562
C133	C	1.142432	-0.357623	-0.087581
C134	C	1.642432	0.142377	0.412419
H135	H	0.841367	-0.271500	-0.289248
H136	H	1.341367	0.228500	0.210752
H137	H	1.284721	-0.224017	-0.956137
H138	H	1.784721	0.275983	-0.456137
O139	O	0.728445	-0.211392	-0.225460
O140	O	1.228445	0.288608	0.274540
H141	H	0.792781	-0.219377	-0.233937
H142	H	1.292781	0.280623	0.266063
H143	H	1.050570	-0.443865	-0.682471
H144	H	1.550570	0.056135	-0.182471
H145	H	1.050677	-0.443776	-1.079887
H146	H	1.550677	0.056224	-0.579887
H147	H	1.234081	-0.271557	-0.682531
H148	H	1.734081	0.228443	-0.182531
O149	O	1.295225	-0.910762	-0.421936
O150	O	1.795225	-0.410762	0.078064
H151	H	1.338978	-0.891007	-0.378056
H152	H	1.838978	-0.391007	0.121944
H153	H	1.177867	-0.811014	-0.514039
H154	H	1.677867	-0.311014	-0.014039
O155	O	1.298056	-0.211488	-0.795465
O156	O	1.798056	0.288512	-0.295465
H157	H	1.262686	-0.173710	-0.757866
H158	H	1.762686	0.326290	-0.257866
H159	H	1.234177	-0.271477	-1.079943
H160	H	1.734177	0.228523	-0.579943
H161	H	1.106811	-0.903925	-0.247718
H162	H	1.606811	-0.403925	0.252282
O163	O	0.556925	-0.504216	-0.536163
O164	O	1.056925	-0.004216	-0.036163
H165	H	0.492588	-0.496225	-0.527699
H166	H	0.992588	0.003775	-0.027699
H167	H	1.009284	-0.811098	-0.345030
H168	H	1.509284	-0.311098	0.154970
H169	H	0.567767	-0.223986	-0.238817
H170	H	1.067767	0.276014	0.261183
O171	O	0.852311	-0.456618	-0.485691
O172	O	1.352311	0.043382	0.014309
H173	H	0.889932	-0.423411	-0.525964
H174	H	1.389932	0.076589	-0.025964
H175	H	0.443951	-0.271555	-0.289287
H176	H	0.943951	0.228445	0.210713
O177	O	0.728506	-0.504194	-0.536158
O178	O	1.228506	-0.004194	-0.036158
H179	H	0.685943	-0.537261	-0.571254
H180	H	1.185943	-0.037261	-0.071254
H181	H	1.044835	-0.903605	-0.478311
H182	H	1.544835	-0.403605	0.021689
O183	O	0.433093	-0.456675	-0.485716
O184	O	0.933093	0.043325	0.014284
H185	H	0.368756	-0.448691	-0.477247
H186	H	0.868756	0.051309	0.022753
O187	O	1.254383	-0.804033	-0.269036
O188	O	1.754383	-0.304033	0.230964
H189	H	1.314183	-0.823777	-0.285317
H190	H	1.814183	-0.323777	0.214683
O191	O	0.986662	-0.503882	-0.795359
O192	O	1.486662	-0.003882	-0.295359
H193	H	0.995145	-0.495913	-0.731028
H194	H	1.495145	0.004087	-0.231028
O195	O	0.986706	-0.503842	-0.966942
O196	O	1.486706	-0.003842	-0.466942
H197	H	0.995225	-0.495853	-1.031279
H198	H	1.495225	0.004147	-0.531279
