data_functionalizedCrystal
_audit_creation_method	'MofGen! by Chris Wilmer'
_symmetry_space_group_name_H-M	'P1'
_symmetry_Int_Tables_number	1
_symmetry_cell_setting	triclinic
loop_
_symmetry_equiv_pos_as_xyz
  x,y,z
_cell_length_a	10.540539
_cell_length_b	14.853567
_cell_length_c	13.330367
_cell_angle_alpha	89.995418
_cell_angle_beta	90.002473
_cell_angle_gamma	95.919789
loop_
_atom_site_label
_atom_site_type_symbol
_atom_site_fract_x
_atom_site_fract_y
_atom_site_fract_z
O1	O	0.165727	-1.197288	0.083349
O2	O	0.185470	-0.934938	0.083366
O3	O	-0.009174	-1.072099	0.083356
O4	O	0.360371	-1.060128	0.083359
O5	O	-0.009178	-1.072079	-0.083491
O6	O	0.185465	-0.934918	-0.083481
O7	O	0.165723	-1.197268	-0.083498
Cu8	Cu	0.175594	-1.066092	-0.098724
Cu9	Cu	0.175599	-1.066115	0.098592
O10	O	0.360367	-1.060108	-0.083488
C11	C	-0.056469	-1.071191	-0.000066
C12	C	-0.197388	-1.068505	-0.000060
C13	C	0.184573	-0.901335	-0.000055
C14	C	0.181892	-0.801236	-0.000049
C15	C	0.166620	-1.230872	-0.000074
C16	C	0.169300	-1.330971	-0.000074
C17	C	-0.379682	-0.965588	0.000321
C18	C	-0.233094	-0.968311	-0.000055
C19	C	-0.259578	-1.116712	-0.095341
C20	C	-0.406085	-1.113292	-0.095421
C21	C	-0.406621	-1.115353	0.094315
C22	C	-0.259649	-1.116276	0.095575
C23	C	0.407662	-1.061016	-0.000064
C24	C	0.548580	-1.063702	-0.000063
N25	N	0.175589	-1.066081	-0.237505
C26	C	0.054938	-0.387998	-0.000072
C27	C	0.286179	-0.368000	-0.000069
C28	C	0.288700	-0.462048	-0.000066
C29	C	0.174338	-0.519075	-0.000065
C30	C	0.057455	-0.482055	-0.000066
C31	C	0.405580	-0.499075	-0.000054
C32	C	0.408105	-0.593129	-0.000050
C33	C	0.293742	-0.650158	-0.000056
C34	C	0.176855	-0.613132	-0.000058
C35	C	0.062493	-0.670159	-0.000057
C36	C	-0.054396	-0.633135	-0.000067
C37	C	-0.056908	-0.539084	-0.000072
C38	C	0.296254	-0.744209	-0.000050
C39	C	0.065010	-0.764216	-0.000050
C40	C	0.261753	-1.005378	-0.710124
C41	C	0.089435	-1.126877	-0.710101
C42	C	0.089431	-1.126867	-0.605082
C43	C	0.175591	-1.066112	-0.552580
C44	C	0.261754	-1.005368	-0.605096
C45	C	0.003277	-1.187616	-0.552559
C46	C	0.003271	-1.187609	-0.447534
C47	C	0.089426	-1.126849	-0.395029
C48	C	0.175592	-1.066102	-0.447552
C49	C	0.261752	-1.005347	-0.395049
C50	C	0.347913	-0.944594	-0.447570
C51	C	0.347909	-0.944608	-0.552591
C52	C	0.089430	-1.126836	-0.290008
C53	C	0.261753	-1.005337	-0.290021
N54	N	0.175593	-1.066133	0.237374
H55	H	-0.190072	-0.930378	0.068247
H56	H	-0.066866	-1.237086	-0.595309
H57	H	-0.040229	-0.357849	-0.000084
C58	C	0.424811	-0.784937	-0.000036
H59	H	0.409933	-0.849118	-0.000027
H60	H	0.471913	-0.765412	-0.058215
H61	H	0.471895	-0.765418	0.058159
C62	C	0.536671	-0.633852	-0.000044
H63	H	0.521795	-0.698033	-0.000035
H64	H	0.583767	-0.614325	-0.058225
H65	H	0.583761	-0.614332	0.058149
H66	H	0.379287	-0.321563	-0.000062
C67	C	0.442685	-0.877770	-0.389810
H68	H	0.430337	-0.886468	-0.319742
H69	H	0.527431	-0.888099	-0.407017
H70	H	0.428733	-0.817512	-0.407025
H71	H	0.331911	-0.955860	-0.247280
C72	C	-0.471970	-1.210628	-0.101293
H73	H	-0.561872	-1.209200	-0.101379
H74	H	-0.446757	-1.238554	-0.161160
H75	H	-0.447937	-1.244177	-0.044953
H76	H	0.019284	-1.176304	-0.247250
C77	C	-0.417738	-0.912120	0.092615
H78	H	-0.477724	-0.949149	0.131741
H79	H	-0.344127	-0.894470	0.131853
H80	H	-0.454875	-0.859758	0.071185
C81	C	-0.060791	-0.826939	-0.000043
H82	H	-0.130759	-0.791416	-0.000042
H83	H	-0.064621	-0.864050	-0.058219
H84	H	-0.064612	-0.864038	0.058154
H85	H	-0.409458	-0.926162	-0.067619
H86	H	-0.147509	-0.679579	-0.000058
C87	C	-0.185470	-0.498355	-0.000072
H88	H	-0.170587	-0.434174	-0.000063
H89	H	-0.232572	-0.517872	-0.058253
H90	H	-0.232556	-0.517880	0.058121
H91	H	0.019292	-1.176346	-0.752851
C92	C	0.531365	-0.436347	-0.000060
H93	H	0.513123	-0.375032	-0.000079
H94	H	0.579291	-0.447645	0.058124
H95	H	0.579279	-0.447654	-0.058250
H96	H	-0.236231	-1.189326	0.101324
H97	H	0.418060	-0.895146	-0.595360
C98	C	0.356527	-0.938558	-0.767889
H99	H	0.344196	-0.947265	-0.837957
H100	H	0.342589	-0.878302	-0.750687
H101	H	0.441275	-0.948897	-0.750673
H102	H	-0.066887	-1.237076	-0.404778
C103	C	-0.448753	-1.071563	0.191877
H104	H	-0.420770	-1.103752	0.247912
H105	H	-0.412382	-1.010387	0.194810
H106	H	-0.539114	-1.073546	0.193101
C107	C	-0.443659	-1.065130	-0.191623
H108	H	-0.369416	-1.047831	-0.230285
H109	H	-0.501153	-1.105030	-0.229721
H110	H	-0.483564	-1.012799	-0.174208
C111	C	-0.203811	-1.068709	0.190804
H112	H	-0.241850	-1.097917	0.248401
H113	H	-0.114251	-1.071713	0.192554
H114	H	-0.220898	-1.007152	0.190213
C115	C	-0.230470	-1.216109	-0.100144
H116	H	-0.180004	-1.229120	-0.043952
H117	H	-0.308153	-1.254700	-0.099265
H118	H	-0.185266	-1.225821	-0.160178
H119	H	-0.190919	-0.930096	-0.068465
C120	C	-0.471491	-1.213117	0.095186
H121	H	-0.444039	-1.243988	0.152380
H122	H	-0.561417	-1.212198	0.097632
H123	H	-0.449019	-1.243483	0.036077
H124	H	-0.216612	-1.083208	-0.166242
