data_functionalizedCrystal
_audit_creation_method	'MofGen! by Chris Wilmer'
_symmetry_space_group_name_H-M	'P1'
_symmetry_Int_Tables_number	1
_symmetry_cell_setting	triclinic
loop_
_symmetry_equiv_pos_as_xyz
  x,y,z
_cell_length_a	14.044220
_cell_length_b	14.044190
_cell_length_c	13.448316
_cell_angle_alpha	89.988796
_cell_angle_beta	89.998357
_cell_angle_gamma	93.190328
loop_
_atom_site_label
_atom_site_type_symbol
_atom_site_fract_x
_atom_site_fract_y
_atom_site_fract_z
O1	O	1.277177	0.230171	-0.082606
O2	O	1.000505	0.221865	-0.082631
O3	O	1.134685	0.087682	-0.082599
O4	O	1.142997	0.364354	-0.082638
O5	O	1.134666	0.087671	0.082785
O6	O	1.000486	0.221855	0.082753
O7	O	1.277158	0.230160	0.082778
Cu8	Cu	1.138820	0.226006	0.097866
Cu9	Cu	1.138843	0.226019	-0.097719
O10	O	1.142978	0.364344	0.082746
C11	C	0.964874	0.218224	0.000058
C12	C	0.858731	0.207380	0.000050
C13	C	1.131039	0.052054	0.000095
C14	C	1.120191	-0.054089	0.000103
C15	C	1.177292	-0.299547	0.000069
C16	C	1.100375	-0.248422	0.000069
C17	C	1.111404	-0.140285	0.000088
C18	C	1.166265	-0.407694	0.000050
C19	C	0.664392	0.187553	0.000072
C20	C	0.613264	0.264468	0.000066
C21	C	0.505128	0.253436	0.000078
C22	C	0.772539	0.198583	0.000060
C23	C	1.312789	0.233801	0.000086
C24	C	1.418932	0.244646	0.000088
C25	C	1.146624	0.399971	0.000049
C26	C	1.157472	0.506114	0.000035
N27	N	1.138811	0.225998	0.235430
N28	N	1.138859	0.226021	-0.235284
C29	C	1.198248	0.166610	0.287485
C30	C	1.198254	0.166609	0.391588
C31	C	1.138827	0.226003	0.443635
C32	C	1.079383	0.285393	0.391574
C33	C	1.079373	0.285388	0.287472
C34	C	1.079410	0.285402	0.608554
C35	C	1.079422	0.285409	0.712662
C36	C	1.198291	0.166623	0.712669
C37	C	1.198281	0.166618	0.608568
C38	C	1.138838	0.226010	0.556514
H39	H	1.026243	-0.285865	0.000057
C40	C	1.263654	0.101282	0.551318
N41	N	1.312891	0.052068	0.508198
C42	C	0.663844	0.364620	0.000034
N43	N	0.701944	0.440052	0.000004
C44	C	1.277435	-0.248965	0.000103
N45	N	1.352863	-0.210855	0.000136
H46	H	0.626954	0.113425	0.000088
H47	H	1.246645	0.118249	0.245115
C48	C	1.263675	0.101287	0.769931
N49	N	1.312922	0.052080	0.813065
H50	H	1.246651	0.118250	0.433970
C51	C	1.014043	0.350738	0.769912
N52	N	0.964797	0.399944	0.813032
H53	H	1.031002	0.333762	0.566174
C54	C	1.014003	0.350717	0.448829
N55	N	0.964757	0.399920	0.491953
C56	C	1.013996	0.350728	0.230213
N57	N	0.964752	0.399944	0.187087
