data_functionalizedCrystal
_audit_creation_method	'MofGen! by Chris Wilmer'
_symmetry_space_group_name_H-M	'P1'
_symmetry_Int_Tables_number	1
_symmetry_cell_setting	triclinic
loop_
_symmetry_equiv_pos_as_xyz
  x,y,z
_cell_length_a	19.188879
_cell_length_b	19.188930
_cell_length_c	14.472310
_cell_angle_alpha	89.973109
_cell_angle_beta	90.010885
_cell_angle_gamma	96.865574
loop_
_atom_site_label
_atom_site_type_symbol
_atom_site_fract_x
_atom_site_fract_y
_atom_site_fract_z
O1	O	-0.087165	0.926138	-0.077158
O2	O	-0.098899	0.722825	-0.077097
O3	O	0.008626	0.830367	-0.077100
O4	O	-0.194690	0.818596	-0.077155
O5	O	0.008620	0.830339	0.076582
O6	O	-0.098906	0.722797	0.076585
O7	O	-0.087171	0.926111	0.076524
Cu8	Cu	-0.093039	0.824451	0.090587
Cu9	Cu	-0.093032	0.824484	-0.091160
O10	O	-0.194697	0.818568	0.076527
C11	C	-0.098523	0.696800	-0.000248
C12	C	-0.097382	0.619296	-0.000223
C13	C	-0.160474	0.574360	-0.000255
C14	C	-0.159403	0.501537	-0.000264
C15	C	-0.095235	0.473652	-0.000262
C16	C	-0.032134	0.518597	-0.000225
C17	C	-0.033208	0.591419	-0.000206
N18	N	-0.046185	0.365690	-0.052590
N19	N	-0.045169	0.296511	-0.052610
C20	C	-0.091997	0.254244	-0.000317
N21	N	-0.139889	0.283766	0.051985
N22	N	-0.140906	0.352951	0.052001
C23	C	-0.094064	0.394689	-0.000282
C24	C	-0.153931	0.130344	-0.000358
C25	C	-0.152857	0.057519	-0.000362
C26	C	-0.025587	0.074581	-0.000332
C27	C	-0.026663	0.147404	-0.000318
C28	C	-0.090837	0.175281	-0.000336
C29	C	-0.220705	0.818957	-0.000321
C30	C	-0.298212	0.820084	-0.000344
C31	C	-0.334597	0.820616	0.083433
C32	C	-0.407420	0.821693	0.083448
C33	C	-0.443853	0.822253	-0.000317
C34	C	-0.407459	0.821718	-0.084105
C35	C	-0.334638	0.820633	-0.084118
N36	N	-0.552870	0.863701	-0.062662
N37	N	-0.622047	0.864733	-0.062644
C38	C	-0.663258	0.825520	-0.000282
N39	N	-0.632678	0.785245	0.062075
N40	N	-0.563495	0.784216	0.062059
C41	C	-0.522815	0.823429	-0.000312
C42	C	-0.778607	0.827219	0.083517
C43	C	-0.851432	0.828293	0.083530
C44	C	-0.851468	0.828324	-0.084026
C45	C	-0.778645	0.827244	-0.084036
C46	C	-0.742218	0.826695	-0.000262
C47	C	0.034634	0.829978	-0.000254
C48	C	0.112141	0.828851	-0.000237
C49	C	-0.087548	0.952135	-0.000327
C50	C	-0.088689	1.029640	-0.000358
N51	N	-0.093044	0.824433	0.218418
N52	N	-0.093021	0.824507	-0.218991
C53	C	-0.093029	0.824483	0.592509
C54	C	-0.150372	0.766748	0.553345
C55	C	-0.150580	0.766880	0.446257
C56	C	-0.093036	0.824458	0.406918
C57	C	-0.108726	0.897257	0.445728
C58	C	-0.109133	0.896933	0.552849
C59	C	-0.019825	0.810070	0.553064
C60	C	-0.020318	0.808397	0.445937
C61	C	-0.093039	0.824448	0.302030
C62	C	-0.093027	0.824498	0.697397
H63	H	0.024714	0.183992	-0.000298
H64	H	-0.305013	0.820199	-0.152341
H65	H	-0.748947	0.826766	0.151731
H66	H	-0.881056	0.828724	0.151753
H67	H	-0.437127	0.822171	-0.152308
H68	H	0.026660	0.051879	-0.000387
O69	O	-0.222542	0.779042	0.412272
H70	H	-0.244805	0.733639	0.369733
H71	H	-0.881131	0.828772	-0.152230
O72	O	-0.221933	0.778738	0.588958
H73	H	-0.244744	0.732073	0.628810
O74	O	-0.446675	0.822279	0.173812
H75	H	-0.439075	0.774494	0.214012
H76	H	-0.212730	0.597052	-0.000271
O77	O	-0.004537	0.737463	0.412344
H78	H	0.046935	0.726502	0.440222
O79	O	0.034844	0.639893	-0.000176
H80	H	0.079646	0.608272	-0.000178
H81	H	-0.749019	0.826815	-0.152256
O82	O	-0.138256	0.695189	0.411492
H83	H	-0.132096	0.660112	0.471192
H84	H	-0.210782	0.464943	-0.000287
O85	O	0.036689	0.865825	0.586676
H86	H	0.076186	0.840797	0.626985
O87	O	0.000224	0.741286	0.588922
H88	H	0.052016	0.732337	0.560118
H89	H	-0.161496	0.910305	0.418871
H90	H	-0.204237	0.020933	-0.000382
O91	O	-0.138257	0.694822	0.587539
H92	H	-0.091239	0.699452	0.632819
H93	H	-0.206186	0.153042	-0.000359
H94	H	-0.162514	0.909670	0.577806
H95	H	-0.304943	0.820168	0.151648
H96	H	-0.069002	0.941225	0.578753
O97	O	-0.054868	0.955521	0.411975
H98	H	-0.016256	0.933155	0.367069
O99	O	0.038829	0.860517	0.410489
H100	H	0.040520	0.857882	0.333922
H101	H	0.020112	0.495889	-0.000235
