data_functionalizedCrystal
_audit_creation_method	'MofGen! by Chris Wilmer'
_symmetry_space_group_name_H-M	'P1'
_symmetry_Int_Tables_number	1
_symmetry_cell_setting	triclinic
loop_
_symmetry_equiv_pos_as_xyz
  x,y,z
_cell_length_a	19.077236
_cell_length_b	13.897447
_cell_length_c	13.897441
_cell_angle_alpha	89.970673
_cell_angle_beta	87.676664
_cell_angle_gamma	92.312415
loop_
_atom_site_label
_atom_site_type_symbol
_atom_site_fract_x
_atom_site_fract_y
_atom_site_fract_z
Zn1	Zn	1.076050	-0.324858	-0.604767
Zn2	Zn	1.576050	0.175142	-0.104767
Zn3	Zn	1.075969	-0.486184	-0.443467
Zn4	Zn	1.575969	0.013816	0.056533
Zn5	Zn	0.958345	-0.331368	-0.436990
Zn6	Zn	1.458345	0.168632	0.063010
Zn7	Zn	0.958327	-0.492581	-0.598228
Zn8	Zn	1.458327	0.007419	-0.098228
O9	O	1.017173	-0.408747	-0.520863
O10	O	1.517173	0.091253	-0.020863
O11	O	1.174532	-0.340856	-0.588817
O12	O	1.674532	0.159144	-0.088817
O13	O	1.060339	-0.465694	-0.307625
O14	O	1.560339	0.034306	0.192375
O15	O	0.974000	-0.195520	-0.459271
O16	O	1.474000	0.304480	0.040729
O17	O	1.174472	-0.459382	-0.470311
O18	O	1.674472	0.040618	0.029689
O19	O	1.060477	-0.190737	-0.582536
O20	O	1.560477	0.309263	-0.082536
O21	O	0.973921	-0.351951	-0.302866
O22	O	1.473921	0.148049	0.197134
O23	O	0.859849	-0.358154	-0.452931
O24	O	1.359849	0.141846	0.047069
O25	O	0.973970	-0.470285	-0.734079
O26	O	1.473970	0.029715	-0.234079
O27	O	0.859837	-0.476597	-0.571392
O28	O	1.359837	0.023403	-0.071392
O29	O	1.060460	-0.347059	-0.738882
O30	O	1.560460	0.152941	-0.238882
O31	O	1.060322	-0.622016	-0.463971
O32	O	1.560322	-0.122016	0.036029
O33	O	0.973892	-0.626716	-0.577673
O34	O	1.473892	-0.126716	-0.077673
C35	C	0.834305	-0.418777	-0.510750
C36	C	1.334305	0.081223	-0.010750
C37	C	0.756073	-0.423091	-0.506447
C38	C	1.256073	0.076909	-0.006447
C39	C	0.719351	-0.363506	-0.566219
C40	C	1.219351	0.136494	-0.066219
C41	C	0.645844	-0.367555	-0.562167
C42	C	1.145844	0.132445	-0.062167
C43	C	0.609060	-0.431194	-0.498347
C44	C	1.109060	0.068806	0.001653
C45	C	0.645787	-0.490782	-0.438569
C46	C	1.145787	0.009218	0.061431
C47	C	0.719293	-0.486728	-0.442616
C48	C	1.219293	0.013272	0.057384
C49	C	0.389219	-0.449922	-0.479611
C50	C	0.889219	0.050078	0.020389
C51	C	0.315708	-0.453974	-0.475570
C52	C	0.815708	0.046026	0.024430
C53	C	0.315770	-0.330745	-0.599168
C54	C	0.815770	0.169255	-0.099168
C55	C	0.389277	-0.326700	-0.603214
C56	C	0.889277	0.173300	-0.103214
C57	C	0.425998	-0.386284	-0.543432
C58	C	0.925998	0.113716	-0.043432
N59	N	0.533924	-0.435337	-0.494206
N60	N	1.033924	0.064663	0.005794
N61	N	0.501132	-0.382137	-0.547568
N62	N	1.001132	0.117863	-0.047568
C63	C	1.017115	-0.659365	-0.520837
C64	C	1.517115	-0.159365	-0.020837
C65	C	1.017155	-0.766577	-0.520862
C66	C	1.517155	-0.266577	-0.020862
C67	C	1.017189	-0.853645	-0.520886
C68	C	1.517189	-0.353645	-0.020886
C69	C	1.017239	-0.962874	-0.520914
C70	C	1.517239	-0.462874	-0.020914
C71	C	1.200754	-0.398679	-0.531016
C72	C	1.700754	0.101321	-0.031016
C73	C	1.278986	-0.394389	-0.535342
C74	C	1.778986	0.105611	-0.035342
C75	C	1.017222	-0.408659	-0.772459
C76	C	1.517222	0.091341	-0.272459
C77	C	1.017244	-0.408622	-0.879674
C78	C	1.517244	0.091378	-0.379674
C79	C	1.017249	-0.157150	-0.520911
C80	C	1.517249	0.342850	-0.020911
C81	C	1.017282	-0.049934	-0.520931
C82	C	1.517282	0.450066	-0.020931
C83	C	1.017263	-0.408556	-1.075970
C84	C	1.517263	0.091444	-0.575970
C85	C	1.017250	-0.408595	-0.966737
C86	C	1.517250	0.091405	-0.466737
C87	C	1.017163	-0.408763	-0.270248
C88	C	1.517163	0.091237	0.229752
C89	C	1.017278	-0.408522	-0.163041
C90	C	1.517278	0.091478	0.336959
H91	H	0.419108	-0.498441	-0.430933
H92	H	0.919108	0.001559	0.069067
C93	C	0.759690	-0.552270	-0.376870
C94	C	1.259690	-0.052270	0.123130
H95	H	0.808735	-0.540734	-0.388413
H96	H	1.308735	-0.040734	0.111587
H97	H	0.747641	-0.617763	-0.390206
H98	H	1.247641	-0.117763	0.109794
H99	H	0.747623	-0.538730	-0.311417
H100	H	1.247623	-0.038730	0.188583
C101	C	0.759811	-0.293505	-0.636422
C102	C	1.259811	0.206495	-0.136422
H103	H	0.808848	-0.299629	-0.630281
H104	H	1.308848	0.200371	-0.130281
H105	H	0.747769	-0.229342	-0.621757
H106	H	1.247769	0.270658	-0.121757
H107	H	0.747781	-0.308372	-0.700548
H108	H	1.247781	0.191628	-0.200548
C109	C	0.429738	-0.256703	-0.673418
C110	C	0.929738	0.243297	-0.173418
H111	H	0.478774	-0.262831	-0.667276
H112	H	0.978774	0.237169	-0.167276
H113	H	0.417700	-0.192536	-0.658761
H114	H	0.917700	0.307464	-0.158761
H115	H	0.417708	-0.271576	-0.737542
H116	H	0.917708	0.228424	-0.237542
C117	C	0.275380	-0.265203	-0.664921
C118	C	0.775380	0.234797	-0.164921
H119	H	0.307815	-0.226727	-0.703513
H120	H	0.807815	0.273273	-0.203513
H121	H	0.246697	-0.224712	-0.626520
H122	H	0.746697	0.275288	-0.126520
H123	H	0.246716	-0.303741	-0.705312
H124	H	0.746716	0.196259	-0.205312
H125	H	0.285760	-0.505802	-0.423600
H126	H	0.785760	-0.005802	0.076400
C127	C	0.605330	-0.560786	-0.368367
C128	C	1.105330	-0.060786	0.131633
H129	H	0.637730	-0.595687	-0.333343
H130	H	1.137730	-0.095687	0.166657
H131	H	0.576663	-0.604441	-0.403615
H132	H	1.076663	-0.104441	0.096385
H133	H	0.576647	-0.525414	-0.324820
H134	H	1.076647	-0.025414	0.175180
C135	C	0.605453	-0.302013	-0.627919
C136	C	1.105453	0.197987	-0.127919
H137	H	0.637888	-0.263539	-0.666515
H138	H	1.137888	0.236461	-0.166515
H139	H	0.576774	-0.261518	-0.589517
H140	H	1.076774	0.238482	-0.089517
H141	H	0.576787	-0.340550	-0.668306
H142	H	1.076787	0.159450	-0.168306
