data_functionalizedCrystal
_audit_creation_method	'MofGen! by Chris Wilmer'
_symmetry_space_group_name_H-M	'P1'
_symmetry_Int_Tables_number	1
_symmetry_cell_setting	triclinic
loop_
_symmetry_equiv_pos_as_xyz
  x,y,z
_cell_length_a	12.759401
_cell_length_b	21.295417
_cell_length_c	12.759393
_cell_angle_alpha	89.960626
_cell_angle_beta	89.982620
_cell_angle_gamma	90.030668
loop_
_atom_site_label
_atom_site_type_symbol
_atom_site_fract_x
_atom_site_fract_y
_atom_site_fract_z
Zn1	Zn	1.606128	-0.250568	-0.593926
Zn2	Zn	1.939462	0.082765	-0.260592
Zn3	Zn	2.272795	0.416099	0.072741
Zn4	Zn	1.605978	-0.355853	-0.418223
Zn5	Zn	1.939311	-0.022519	-0.084889
Zn6	Zn	2.272644	0.310814	0.248444
Zn7	Zn	1.430434	-0.250601	-0.418265
Zn8	Zn	1.763767	0.082732	-0.084932
Zn9	Zn	2.097100	0.416065	0.248401
Zn10	Zn	1.430371	-0.355804	-0.593864
Zn11	Zn	1.763704	-0.022470	-0.260531
Zn12	Zn	2.097037	0.310863	0.072803
O13	O	1.518228	-0.303206	-0.506069
O14	O	1.851561	0.030127	-0.172736
O15	O	2.184894	0.363460	0.160597
O16	O	1.753129	-0.264541	-0.570626
O17	O	2.086463	0.068793	-0.237293
O18	O	2.419796	0.402126	0.096040
O19	O	1.582655	-0.341925	-0.271207
O20	O	1.915988	-0.008592	0.062126
O21	O	2.249321	0.324742	0.395460
O22	O	1.453830	-0.162508	-0.441611
O23	O	1.787163	0.170826	-0.108277
O24	O	2.120496	0.504159	0.225056
O25	O	1.753019	-0.341893	-0.441538
O26	O	2.086352	-0.008559	-0.108205
O27	O	2.419685	0.324774	0.225129
O28	O	1.582912	-0.162483	-0.570668
O29	O	1.916245	0.170850	-0.237334
O30	O	2.249578	0.504184	0.095999
O31	O	1.453683	-0.264598	-0.271238
O32	O	1.787017	0.068736	0.062095
O33	O	2.120350	0.402069	0.395428
O34	O	1.283404	-0.264550	-0.441551
O35	O	1.616738	0.068783	-0.108217
O36	O	1.950071	0.402116	0.225116
O37	O	1.453722	-0.341810	-0.740893
O38	O	1.787055	-0.008476	-0.407560
O39	O	2.120389	0.324857	-0.074227
O40	O	1.283358	-0.341842	-0.570562
O41	O	1.616691	-0.008509	-0.237229
O42	O	1.950025	0.324825	0.096104
O43	O	1.582850	-0.264493	-0.740939
O44	O	1.916184	0.068840	-0.407605
O45	O	2.249517	0.402173	-0.074272
O46	O	1.582593	-0.443935	-0.441478
O47	O	1.915927	-0.110602	-0.108145
O48	O	2.249260	0.222731	0.225189
O49	O	1.453576	-0.443900	-0.570521
O50	O	1.786909	-0.110566	-0.237188
O51	O	2.120242	0.222767	0.096145
C52	C	1.245260	-0.303195	-0.506055
C53	C	1.578594	0.030138	-0.172722
C54	C	1.911927	0.363472	0.160612
C55	C	1.128484	-0.303205	-0.506074
C56	C	1.461817	0.030128	-0.172741
C57	C	1.795150	0.363462	0.160593
C58	C	1.073625	-0.343515	-0.573139
C59	C	1.406958	-0.010182	-0.239806
C60	C	1.740292	0.323151	0.093527
C61	C	0.963901	-0.343523	-0.573151
C62	C	1.297234	-0.010190	-0.239817
C63	C	1.630567	0.323143	0.093516
C64	C	0.963904	-0.262909	-0.439022
C65	C	1.297237	0.070424	-0.105689
C66	C	1.630571	0.403758	0.227644
C67	C	1.073626	-0.262898	-0.439017
C68	C	1.406959	0.070435	-0.105684
C69	C	1.740293	0.403768	0.227649
C70	C	1.073622	-0.390059	-0.650574
C71	C	1.406956	-0.056726	-0.317241
C72	C	1.740289	0.276607	0.016093
C73	C	0.963898	-0.390067	-0.650585
C74	C	1.297231	-0.056734	-0.317252
C75	C	1.630565	0.276599	0.016081
C76	C	1.518090	-0.466758	-0.506011
C77	C	1.851423	-0.133425	-0.172678
C78	C	2.184757	0.199909	0.160655
C79	C	1.518127	-0.536726	-0.506021
C80	C	1.851460	-0.203393	-0.172688
C81	C	2.184794	0.129940	0.160645
C82	C	1.585366	-0.569591	-0.438898
C83	C	1.918700	-0.236257	-0.105564
C84	C	2.252033	0.097076	0.227769
C85	C	1.585416	-0.635333	-0.438921
C86	C	1.918749	-0.302000	-0.105588
C87	C	2.252082	0.031334	0.227745
C88	C	1.518207	-0.668209	-0.506058
C89	C	1.851540	-0.334875	-0.172724
C90	C	2.184873	-0.001542	0.160609
C91	C	1.450963	-0.635336	-0.573195
C92	C	1.784296	-0.302003	-0.239861
C93	C	2.117630	0.031330	0.093472
C94	C	1.450923	-0.569595	-0.573177
C95	C	1.784256	-0.236262	-0.239843
C96	C	2.117590	0.097072	0.093490
N97	N	1.426299	-0.771474	-0.514062
N98	N	1.759633	-0.438141	-0.180729
N99	N	2.092966	-0.104807	0.152604
N100	N	1.426340	-0.833925	-0.514073
N101	N	1.759674	-0.500592	-0.180740
N102	N	2.093007	-0.167259	0.152593
C103	C	1.518324	-0.866283	-0.506118
C104	C	1.851658	-0.532950	-0.172785
C105	C	2.184991	-0.199617	0.160549
N106	N	1.610268	-0.833831	-0.498130
N107	N	1.943602	-0.500497	-0.164797
N108	N	2.276935	-0.167164	0.168536
N109	N	1.610226	-0.771373	-0.498114
N110	N	1.943560	-0.438040	-0.164781
N111	N	2.276893	-0.104707	0.168553
C112	C	1.518243	-0.739494	-0.506085
C113	C	1.851576	-0.406161	-0.172752
C114	C	2.184910	-0.072827	0.160581
C115	C	1.585623	-0.970433	-0.439016
C116	C	1.918956	-0.637100	-0.105683
C117	C	2.252289	-0.303767	0.227651
C118	C	1.585674	-1.036177	-0.439047
C119	C	1.919007	-0.702844	-0.105714
C120	C	2.252340	-0.369510	0.227620
C121	C	1.451212	-1.036179	-0.573315
C122	C	1.784545	-0.702846	-0.239982
C123	C	2.117878	-0.369512	0.093352
C124	C	1.451170	-0.970437	-0.573289
C125	C	1.784503	-0.637103	-0.239956
C126	C	2.117837	-0.303770	0.093377
C127	C	1.518374	-0.937568	-0.506134
C128	C	1.851708	-0.604234	-0.172801
C129	C	2.185041	-0.270901	0.160532
C130	C	1.792261	-0.303219	-0.506084
C131	C	2.125594	0.030115	-0.172751
C132	C	2.458928	0.363448	0.160582
C133	C	1.909037	-0.303224	-0.506091
C134	C	2.242371	0.030110	-0.172757
C135	C	2.575704	0.363443	0.160576
C136	C	1.518296	-0.303142	-0.780103
C137	C	1.851629	0.030191	-0.446770
C138	C	2.184963	0.363524	-0.113436
C139	C	1.518325	-0.303115	-0.896880
C140	C	1.851658	0.030218	-0.563546
C141	C	2.184992	0.363552	-0.230213
C142	C	1.518395	-0.139016	-0.506151
C143	C	1.851728	0.194317	-0.172817
C144	C	2.185061	0.527651	0.160516
C145	C	1.518466	-0.069048	-0.506185
C146	C	1.851799	0.264285	-0.172852
C147	C	2.185132	0.597619	0.160481
C148	C	1.451198	-0.262843	-0.951764
C149	C	1.784531	0.070490	-0.618431
C150	C	2.117865	0.403823	-0.285097
C151	C	1.451230	-0.262824	-1.061488
C152	C	1.784563	0.070509	-0.728155
C153	C	2.117897	0.403842	-0.394821
C154	C	1.585524	-0.343351	-1.061434
C155	C	1.918858	-0.010018	-0.728101
C156	C	2.252191	0.323315	-0.394767
C157	C	1.585487	-0.343373	-0.951712
C158	C	1.918820	-0.010039	-0.618378
C159	C	2.252153	0.323294	-0.285045
C160	C	1.373667	-0.216350	-0.951796
C161	C	1.707001	0.116984	-0.618463
C162	C	2.040334	0.450317	-0.285130
C163	C	1.373699	-0.216331	-1.061520
C164	C	1.707032	0.117002	-0.728187
C165	C	2.040366	0.450336	-0.394854
C166	C	1.518220	-0.303225	-0.233102
C167	C	1.851553	0.030108	0.100231
C168	C	2.184887	0.363442	0.433565
C169	C	1.518395	-0.303075	-0.116326
C170	C	1.851728	0.030258	0.217007
C171	C	2.185061	0.363592	0.550341
H172	H	0.919225	-0.230092	-0.384428
H173	H	1.252559	0.103241	-0.051095
H174	H	1.585892	0.436574	0.282239
F175	F	1.402127	-0.152580	-1.100487
F176	F	1.735460	0.180753	-0.767153
F177	F	2.068794	0.514087	-0.433820
F178	F	1.272664	-0.239150	-1.105995
F179	F	1.605998	0.094184	-0.772662
F180	F	1.939331	0.427517	-0.439329
F181	F	1.656983	-0.670317	-0.367475
F182	F	1.990316	-0.336984	-0.034142
F183	F	2.323649	-0.003650	0.299192
H184	H	1.396243	-0.662108	-0.627859
H185	H	1.729576	-0.328774	-0.294526
H186	H	2.062910	0.004559	0.038807
F187	F	1.657146	-0.935450	-0.367544
F188	F	1.990479	-0.602116	-0.034211
F189	F	2.323812	-0.268783	0.299122
F190	F	1.132007	-0.219985	-0.367654
F191	F	1.465340	0.113348	-0.034320
F192	F	1.798674	0.446681	0.299013
F193	F	1.656997	-0.386194	-1.119799
F194	F	1.990331	-0.052861	-0.786466
F195	F	2.323664	0.280472	-0.453133
H196	H	1.396494	-1.062946	-0.627983
H197	H	1.729827	-0.729612	-0.294650
H198	H	2.063160	-0.396279	0.038683
H199	H	1.640132	-0.376175	-0.907029
H200	H	1.973466	-0.042842	-0.573696
H201	H	2.306799	0.290492	-0.240362
F202	F	1.112595	-0.373066	-0.756980
F203	F	1.445928	-0.039733	-0.423647
F204	F	1.779261	0.293600	-0.090313
F205	F	0.924919	-0.453770	-0.621877
F206	F	1.258253	-0.120436	-0.288544
F207	F	1.591586	0.212897	0.044790
H208	H	1.640435	-1.062934	-0.384389
H209	H	1.973768	-0.729601	-0.051056
H210	H	2.307101	-0.396267	0.282278
H211	H	1.402853	-0.170047	-0.917790
H212	H	1.736186	0.163286	-0.584457
H213	H	2.069519	0.496619	-0.251124
H214	H	1.396413	-0.943677	-0.627944
H215	H	1.729746	-0.610343	-0.294610
H216	H	2.063080	-0.277010	0.038723
F217	F	1.267281	-0.233416	-0.912866
F218	F	1.600614	0.099918	-0.579533
F219	F	1.933948	0.433251	-0.246199
H220	H	1.107616	-0.436346	-0.621279
H221	H	1.440949	-0.103012	-0.287946
H222	H	1.774282	0.230321	0.045387
H223	H	0.929907	-0.372665	-0.727941
H224	H	1.263240	-0.039332	-0.394608
H225	H	1.596574	0.294002	-0.061275
H226	H	1.396168	-0.542836	-0.627838
H227	H	1.729501	-0.209503	-0.294505
H228	H	2.062834	0.123830	0.038829
H229	H	1.640090	-0.542831	-0.384219
H230	H	1.973424	-0.209497	-0.050885
H231	H	2.306757	0.123836	0.282448
