data_functionalizedCrystal
_audit_creation_method	'MofGen! by Chris Wilmer'
_symmetry_space_group_name_H-M	'P1'
_symmetry_Int_Tables_number	1
_symmetry_cell_setting	triclinic
loop_
_symmetry_equiv_pos_as_xyz
  x,y,z
_cell_length_a	10.489741
_cell_length_b	9.065218
_cell_length_c	8.140239
_cell_angle_alpha	90.001686
_cell_angle_beta	90.000033
_cell_angle_gamma	84.777530
loop_
_atom_site_label
_atom_site_type_symbol
_atom_site_fract_x
_atom_site_fract_y
_atom_site_fract_z
O1	O	-1.694802	-0.208165	-0.136505
O2	O	-1.323677	-0.227705	-0.136529
O3	O	-1.516911	-0.003256	-0.136513
O4	O	-1.501569	-0.432615	-0.136521
O5	O	-1.516900	-0.003253	0.136714
O6	O	-1.323666	-0.227702	0.136698
O7	O	-1.694792	-0.208162	0.136723
Zn8	Zn	-1.509227	-0.217932	0.180091
Zn9	Zn	-1.509242	-0.217935	-0.179898
O10	O	-1.501558	-0.432612	0.136706
C11	C	-1.515431	0.051725	0.000098
C12	C	-1.511022	0.215547	0.000089
C13	C	-1.276135	-0.226228	0.000081
C14	C	-1.134489	-0.221813	0.000071
C15	C	-1.742334	-0.209640	0.000109
C16	C	-1.883979	-0.214055	0.000107
C17	C	-1.065834	-0.079002	0.000089
C18	C	-0.973956	-0.146465	-0.134624
C19	C	-0.973979	-0.146497	0.134757
C20	C	-1.044477	-0.289335	-0.134753
C21	C	-1.044510	-0.289346	0.134748
C22	C	-0.952660	-0.356914	0.000003
C23	C	-1.503038	-0.487593	0.000092
C24	C	-1.507447	-0.651414	0.000089
N25	N	-1.509227	-0.217929	0.425773
N26	N	-1.509252	-0.217927	-0.425580
H27	H	-1.115099	0.038397	-0.000077
N28	N	-1.083761	-0.365097	0.277604
N29	N	-1.140286	-0.479936	0.262689
H30	H	-1.168012	-0.533427	0.363592
H31	H	-0.942778	-0.086044	0.248646
N32	N	-0.934799	-0.070658	-0.277502
N33	N	-0.975448	0.061506	-0.301512
H34	H	-0.947803	0.115053	-0.402418
N35	N	-1.083398	-0.365060	-0.277816
N36	N	-1.001617	-0.415664	-0.379694
H37	H	-1.029106	-0.469139	-0.480735
N38	N	-0.891199	-0.504348	-0.000101
N39	N	-0.909975	-0.590332	-0.115875
H40	H	-0.866567	-0.694458	-0.115956
