data_functionalizedCrystal
_audit_creation_method	'MofGen! by Chris Wilmer'
_symmetry_space_group_name_H-M	'P1'
_symmetry_Int_Tables_number	1
_symmetry_cell_setting	triclinic
loop_
_symmetry_equiv_pos_as_xyz
  x,y,z
_cell_length_a	18.215407
_cell_length_b	16.120484
_cell_length_c	18.215407
_cell_angle_alpha	87.111731
_cell_angle_beta	90.009795
_cell_angle_gamma	92.926015
loop_
_atom_site_label
_atom_site_type_symbol
_atom_site_fract_x
_atom_site_fract_y
_atom_site_fract_z
Zn1	Zn	1.110130	-0.332069	0.430967
Zn2	Zn	1.103819	-0.471446	0.314134
Zn3	Zn	0.987085	-0.332050	0.307913
Zn4	Zn	0.980787	-0.471446	0.437159
O5	O	1.045455	-0.401753	0.372543
O6	O	1.212276	-0.350565	0.415481
O7	O	1.088328	-0.452947	0.210324
O8	O	1.008684	-0.215384	0.319042
O9	O	1.207640	-0.452965	0.329644
O10	O	1.099084	-0.215398	0.409449
O11	O	1.002564	-0.350533	0.205754
O12	O	0.883265	-0.350533	0.325046
O13	O	0.997950	-0.452965	0.539322
O14	O	0.878639	-0.452947	0.420002
O15	O	1.092978	-0.350565	0.534773
O16	O	1.082222	-0.588114	0.335648
O17	O	0.991831	-0.588114	0.426034
C18	C	0.854249	-0.401738	0.372522
C19	C	0.772450	-0.401752	0.372531
C20	C	0.581862	-0.455163	0.421919
C21	C	0.505003	-0.455166	0.421928
C22	C	0.509799	-0.348357	0.323184
C23	C	0.586657	-0.348351	0.323179
C24	C	0.622686	-0.401759	0.372546
C25	C	0.468970	-0.401767	0.372560
C26	C	0.385636	-0.401770	0.372570
C27	C	0.706025	-0.401755	0.372537
C28	C	1.035678	-0.618365	0.382204
C29	C	1.031563	-0.711032	0.386362
C30	C	1.024053	-0.880697	0.393968
C31	C	1.066989	-0.921968	0.351131
C32	C	1.062810	-1.016375	0.355363
C33	C	1.028231	-0.786281	0.389737
C34	C	1.237407	-0.401767	0.372566
C35	C	1.319206	-0.401774	0.372575
C36	C	1.045466	-0.401767	0.564497
C37	C	1.045470	-0.401773	0.646296
C38	C	1.055290	-0.184295	0.362861
C39	C	1.059482	-0.091627	0.358735
C40	C	1.090117	-0.455084	0.913737
C41	C	1.090119	-0.455088	0.836878
C42	C	1.000803	-0.348450	0.832103
C43	C	1.000798	-0.348451	0.908960
C44	C	1.045459	-0.401767	0.949775
C45	C	1.045466	-0.401770	0.796059
C46	C	1.045467	-0.401773	0.712726
C47	C	1.045457	-0.401764	1.033114
C48	C	1.045444	-0.401760	1.181337
C49	C	1.045455	-0.401763	1.099539
H50	H	0.471768	-0.498652	0.462134
H51	H	1.126482	-0.498498	0.946967
H52	H	0.480454	-0.304876	0.282991
O53	O	0.957395	-0.296576	0.943855
C54	C	0.917968	-0.249527	0.891352
H55	H	0.948244	-0.246635	0.836443
H56	H	0.913082	-0.183842	0.910633
H57	H	0.860697	-0.280059	0.884526
H58	H	1.106884	-0.886398	0.311279
O59	O	0.976473	-0.923252	0.441440
C60	C	0.982852	-1.009403	0.435152
H61	H	1.006494	-1.021186	0.378900
H62	H	0.926282	-1.042628	0.441542
H63	H	1.020935	-1.034061	0.479927
O64	O	0.616891	-0.507123	0.469775
C65	C	0.658928	-0.560883	0.430201
H66	H	0.635527	-0.565935	0.372458
H67	H	0.656909	-0.625089	0.459595
H68	H	0.718340	-0.535097	0.426548
O69	O	0.626205	-0.296445	0.275144
C70	C	0.577926	-0.249298	0.231581
H71	H	0.521598	-0.283444	0.230507
H72	H	0.600529	-0.240298	0.173208
H73	H	0.572613	-0.186028	0.255799
H74	H	1.126483	-0.498504	0.807540
O75	O	0.957495	-0.296683	0.792341
C76	C	0.967062	-0.308126	0.716777
H77	H	1.022623	-0.335432	0.707511
H78	H	0.964895	-0.245676	0.684783
H79	H	0.921405	-0.352521	0.696933
