data_functionalizedCrystal
_audit_creation_method	'MofGen! by Chris Wilmer'
_symmetry_space_group_name_H-M	'P1'
_symmetry_Int_Tables_number	1
_symmetry_cell_setting	triclinic
loop_
_symmetry_equiv_pos_as_xyz
  x,y,z
_cell_length_a	14.395555
_cell_length_b	23.196402
_cell_length_c	23.196401
_cell_angle_alpha	60.008822
_cell_angle_beta	90.013205
_cell_angle_gamma	60.002113
loop_
_atom_site_label
_atom_site_type_symbol
_atom_site_fract_x
_atom_site_fract_y
_atom_site_fract_z
Zr1	Zr	0.894873	0.631024	-0.075640
O2	O	0.746519	0.751287	-0.167685
O3	O	0.940347	0.510760	-0.047428
O4	O	0.940306	0.631027	-0.167693
O5	O	0.746596	0.631018	0.047452
O6	O	1.093173	0.631031	-0.167695
O7	O	0.746560	0.631019	-0.047420
O8	O	1.093247	0.415895	0.047438
O9	O	0.746523	0.846154	-0.167681
O10	O	1.073829	0.560230	-0.035392
O11	O	0.959773	0.560226	0.035411
O12	O	0.959725	0.701825	-0.106186
O13	O	0.845669	0.701820	-0.035383
Zr14	Zr	1.138736	0.631029	0.075665
Zr15	Zr	1.138678	0.631031	-0.075644
Zr16	Zr	0.894931	0.631022	0.075668
Zr17	Zr	0.894879	0.782326	-0.075634
Zr18	Zr	1.138730	0.479726	0.075658
O19	O	1.093262	0.751293	0.047452
O20	O	1.093179	0.751296	-0.167690
O21	O	0.746602	0.751283	0.047457
O22	O	1.287090	0.510766	0.167709
O23	O	1.287007	0.510769	-0.047433
O24	O	0.940430	0.510756	0.167714
O25	O	1.287013	0.631035	-0.047427
O26	O	1.093303	0.631026	0.167717
O27	O	0.940436	0.631022	0.167719
O28	O	1.287049	0.631033	0.047444
O29	O	0.940316	0.846159	-0.167684
O30	O	1.093293	0.415893	0.167708
O31	O	1.287086	0.415899	0.167705
O32	O	1.287040	0.415901	0.047435
O33	O	0.746569	0.846152	-0.047410
O34	O	0.940362	0.846157	-0.047413
O35	O	1.073884	0.560228	0.106211
O36	O	1.187940	0.560232	0.035407
O37	O	1.073836	0.701827	-0.035386
O38	O	0.959780	0.701823	0.035417
C39	C	1.016796	0.441770	0.000004
C40	C	1.016793	0.377538	0.000001
C41	C	0.711841	0.631018	0.000017
C42	C	0.608339	0.631015	0.000018
C43	C	1.076321	0.347370	-0.036960
C44	C	1.076332	0.287009	-0.036954
C45	C	1.016793	0.256830	0.000003
C46	C	0.957262	0.287002	0.036972
C47	C	0.957262	0.347356	0.036972
C48	C	0.917043	0.194798	-0.005270
C49	C	0.917040	0.134449	-0.005274
C50	C	1.016794	0.070675	0.000010
C51	C	1.116552	0.067266	0.005284
C52	C	1.116552	0.127620	0.005283
C53	C	1.016787	0.191386	0.000009
C54	C	1.076340	-0.024944	-0.036946
C55	C	1.076354	-0.085310	-0.036936
C56	C	0.957273	-0.085310	0.036986
C57	C	0.957270	-0.024951	0.036980
C58	C	1.016801	0.005231	0.000010
C59	C	0.609965	0.553811	0.038617
C60	C	0.516962	0.592405	0.066599
C61	C	0.516914	0.592424	-0.027944
C62	C	0.516699	0.669609	0.028039
C63	C	0.516666	0.669617	-0.066540
C64	C	0.423645	0.708267	-0.038575
C65	C	1.321768	0.631035	0.000008
C66	C	1.425270	0.631038	0.000006
C67	C	1.016732	0.631029	-0.189252
C68	C	1.016707	0.631030	-0.253487
C69	C	1.016813	0.820283	0.000020
C70	C	1.016816	0.884514	0.000023
C71	C	0.957151	0.704939	-0.320613
C72	C	0.957180	0.704940	-0.380969
C73	C	1.016749	0.631028	-0.374193
C74	C	1.076318	0.557110	-0.307054
C75	C	1.076297	0.557111	-0.246701
C76	C	1.008287	0.574400	-0.441513
C77	C	1.008300	0.574402	-0.501866
C78	C	1.016821	0.631022	-0.560341
C79	C	1.025306	0.687654	-0.558461
C80	C	1.025285	0.687655	-0.498108
C81	C	1.016779	0.631019	-0.439632
C82	C	0.957294	0.704937	-0.692914
C83	C	0.957331	0.704935	-0.753269
C84	C	1.076461	0.557102	-0.679352
C85	C	1.076432	0.557107	-0.619000
C86	C	1.016842	0.631026	-0.625785
C87	C	1.016877	0.631023	0.189277
C88	C	1.016902	0.631022	0.253511
C89	C	1.321760	0.441779	-0.000000
C90	C	1.425259	0.377550	-0.000005
C91	C	1.016869	0.441767	0.189268
C92	C	1.016891	0.377534	0.253500
C93	C	1.321833	0.441776	0.189264
C94	C	1.425356	0.377546	0.253494
C95	C	0.711776	0.820277	-0.189240
C96	C	0.608253	0.884507	-0.253470
C97	C	0.711849	0.820274	0.000025
C98	C	0.608350	0.884503	0.000029
C99	C	1.016740	0.820285	-0.189244
C100	C	1.016718	0.884518	-0.253476
C101	C	1.414298	0.347386	-0.036970
C102	C	1.511537	0.287044	-0.036988
C103	C	1.619736	0.256863	-0.000036
C104	C	1.630694	0.287033	0.036930
C105	C	1.533456	0.347378	0.036943
C106	C	1.076466	0.347371	0.320627
C107	C	1.076482	0.287026	0.380986
C108	C	1.016930	0.256841	0.374216
C109	C	0.957347	0.287010	0.307081
C110	C	0.957325	0.347358	0.246725
C111	C	1.533518	0.347385	0.246699
C112	C	1.630799	0.287042	0.307045
C113	C	1.619916	0.256858	0.374185
C114	C	1.511742	0.287025	0.380978
C115	C	1.414464	0.347370	0.320634
C116	C	0.500091	0.914675	-0.246675
C117	C	0.402810	0.975036	-0.307020
C118	C	0.413693	1.005224	-0.374160
C119	C	0.521867	0.975053	-0.380954
C120	C	0.619145	0.914697	-0.320609
C121	C	0.619311	0.914673	0.036988
C122	C	0.522072	0.975031	0.036989
C123	C	0.413873	1.005214	0.000036
C124	C	0.402915	0.975042	-0.036928
C125	C	0.500153	0.914689	-0.036933
C126	C	1.076282	0.914684	-0.246683
C127	C	1.076284	0.975030	-0.307030
C128	C	1.016714	1.005212	-0.374169
C129	C	0.957148	0.975041	-0.380960
C130	C	0.957154	0.914692	-0.320614
H131	H	1.124809	0.262441	-0.067053
H132	H	0.531016	0.999587	0.067092
H133	H	1.698904	0.207726	-0.000053
N134	N	1.140564	-0.117846	-0.076806
H135	H	1.085930	-0.107350	-0.113990
H136	H	1.200509	-0.178416	-0.042866
N137	N	0.533601	1.007611	-0.453370
H138	H	0.495896	1.068193	-0.480053
H139	H	0.495896	0.997053	-0.479994
N140	N	0.892898	0.882167	-0.327953
H141	H	0.809588	0.928223	-0.354617
H142	H	0.902018	0.839345	-0.279518
N143	N	1.140528	0.379923	-0.076832
H144	H	1.178241	0.351648	-0.100246
H145	H	1.200411	0.369422	-0.042902
N146	N	1.747460	0.254498	0.299705
H147	H	1.807442	0.211689	0.348117
H148	H	1.756457	0.300591	0.273006
N149	N	1.545283	0.379909	0.076816
H150	H	1.588267	0.333857	0.128513
H151	H	1.467231	0.422728	0.071164
H152	H	1.718801	0.262451	0.067014
N153	N	0.517943	0.712797	-0.141074
H154	H	0.517472	0.761304	-0.153284
H155	H	0.448461	0.731898	-0.174849
H156	H	0.908861	0.262425	0.301580
H157	H	1.197778	0.124840	0.009580
H158	H	0.908838	0.765123	-0.807928
N159	N	1.140765	0.254480	0.453390
H160	H	1.086170	0.264986	0.480085
H161	H	1.178495	0.282768	0.448457
N162	N	0.735808	0.882144	-0.327939
H163	H	0.778846	0.892635	-0.304548
H164	H	0.727841	0.910438	-0.379641
H165	H	1.124788	0.999589	-0.301486
N166	N	1.297805	0.379894	0.327968
H167	H	1.305682	0.351609	0.379659
H168	H	1.254856	0.369381	0.304544
H169	H	1.542402	0.371952	0.192036
N170	N	0.892998	0.379931	0.174324
H171	H	0.855258	0.351661	0.179201
H172	H	0.947608	0.369455	0.147633
N173	N	1.297608	0.379927	-0.076825
H174	H	1.288475	0.404974	-0.128527
H175	H	1.237733	0.422700	-0.071155
N176	N	1.499704	0.254513	-0.076861
H177	H	1.416404	0.282787	-0.100259
H178	H	1.537472	0.193929	-0.042935
H179	H	0.491207	0.890099	-0.192011
H180	H	0.908785	0.371920	0.067070
N181	N	1.140705	0.379918	0.327940
H182	H	1.178439	0.351648	0.379627
H183	H	1.086018	0.440501	0.304508
N184	N	1.224154	-0.001510	0.010982
H185	H	1.209024	-0.039231	0.010186
H186	H	1.285574	-0.032852	0.056670
H187	H	0.689730	0.488528	0.071302
N188	N	0.736002	0.882126	0.076847
H189	H	0.728173	0.910408	0.100255
H190	H	0.778930	0.892630	0.042910
H191	H	0.908786	0.262426	0.067064
N192	N	1.016961	0.191750	0.439318
H193	H	1.063744	0.177224	0.482868
H194	H	1.050828	0.141710	0.439285
H195	H	1.699135	0.207721	0.423315
N196	N	1.500012	0.254464	0.453395
H197	H	1.578056	0.211657	0.490587
H198	H	1.457021	0.229458	0.458990
H199	H	0.516055	0.559775	0.122882
H200	H	0.334705	1.054357	0.000046
H201	H	0.314740	0.999591	-0.301475
H202	H	1.016718	1.054352	-0.423301
H203	H	0.314808	0.999626	-0.067014
N204	N	1.140548	0.007612	-0.076816
H205	H	1.178269	-0.020666	-0.100226
H206	H	1.200424	-0.002883	-0.042885
N207	N	0.893064	-0.117857	0.076855
H208	H	0.902099	-0.160672	0.071250
H209	H	0.809778	-0.071769	0.057453
H210	H	0.908791	-0.000385	0.067075
N211	N	0.308766	1.070322	-0.439243
H212	H	0.238598	1.084846	-0.424744
H213	H	0.308801	1.049275	-0.468268
H214	H	0.491213	0.890126	-0.067027
H215	H	0.344007	0.773604	-0.071214
N216	N	1.140539	0.882129	-0.174271
H217	H	1.109319	0.928171	-0.168611
H218	H	1.223834	0.857076	-0.168666
N219	N	0.809453	0.138120	-0.010932
H220	H	0.747951	0.190537	-0.056610
H221	H	0.783856	0.136038	0.030193
N222	N	0.809445	0.263580	-0.010967
H223	H	0.746250	0.256586	-0.014314
H224	H	0.787244	0.317310	-0.054582
N225	N	0.892900	1.007599	-0.453376
H226	H	0.901938	1.050409	-0.490569
H227	H	0.809616	1.032601	-0.458969
H228	H	0.517536	0.702214	0.051747
H229	H	0.515993	0.559781	-0.051588
H230	H	0.908634	0.765130	-0.326145
N231	N	0.892938	0.784662	-0.453378
H232	H	0.809622	0.816967	-0.459043
H233	H	0.902082	0.773377	-0.490538
N234	N	1.034441	0.748727	-0.496075
H235	H	1.039843	0.784598	-0.542274
H236	H	1.104716	0.718880	-0.456100
N237	N	0.999103	0.513325	-0.378443
H238	H	0.993722	0.477455	-0.388793
H239	H	0.928812	0.543168	-0.368335
H240	H	1.032238	0.733762	-0.606074
H241	H	1.124923	0.496922	-0.564341
N242	N	0.893030	0.784659	-0.700224
H243	H	0.855312	0.831482	-0.751911
H244	H	0.947697	0.787881	-0.676776
N245	N	1.140723	0.477381	-0.672034
H246	H	1.131704	0.488594	-0.720453
H247	H	1.109458	0.445100	-0.645362
N248	N	0.999172	0.513312	-0.503883
H249	H	0.925553	0.520845	-0.497164
H250	H	1.065431	0.456288	-0.464843
N251	N	1.140575	0.477389	-0.299741
H252	H	1.131550	0.488603	-0.348161
H253	H	1.109313	0.445108	-0.273066
H254	H	1.124795	0.496923	-0.192042
