data_functionalizedCrystal
_audit_creation_method	'MofGen! by Chris Wilmer'
_symmetry_space_group_name_H-M	'P1'
_symmetry_Int_Tables_number	1
_symmetry_cell_setting	triclinic
loop_
_symmetry_equiv_pos_as_xyz
  x,y,z
_cell_length_a	14.044220
_cell_length_b	14.044220
_cell_length_c	13.101039
_cell_angle_alpha	93.659868
_cell_angle_beta	93.667477
_cell_angle_gamma	86.811122
loop_
_atom_site_label
_atom_site_type_symbol
_atom_site_fract_x
_atom_site_fract_y
_atom_site_fract_z
O1	O	0.225348	-1.281968	-0.085109
O2	O	0.475348	-1.031968	0.164891
O3	O	0.725348	-0.781968	0.414891
O4	O	0.975348	-0.531968	0.664891
O5	O	0.217041	-1.005298	-0.085135
O6	O	0.467041	-0.755298	0.164865
O7	O	0.717041	-0.505298	0.414865
O8	O	0.967041	-0.255298	0.664865
O9	O	0.082860	-1.139480	-0.085112
O10	O	0.332860	-0.889480	0.164888
O11	O	0.582860	-0.639480	0.414888
O12	O	0.832860	-0.389480	0.664888
O13	O	0.359530	-1.147787	-0.085132
O14	O	0.609530	-0.897787	0.164868
O15	O	0.859530	-0.647787	0.414868
O16	O	1.109530	-0.397787	0.664868
O17	O	0.092504	-1.129854	0.085316
O18	O	0.342504	-0.879854	0.335316
O19	O	0.592504	-0.629854	0.585316
O20	O	0.842504	-0.379854	0.835316
O21	O	0.226686	-0.995673	0.085293
O22	O	0.476686	-0.745673	0.335293
O23	O	0.726686	-0.495673	0.585293
O24	O	0.976686	-0.245673	0.835293
O25	O	0.234993	-1.272343	0.085319
O26	O	0.484993	-1.022343	0.335319
O27	O	0.734993	-0.772343	0.585319
O28	O	0.984993	-0.522343	0.835319
Zn29	Zn	0.232371	-1.132479	0.112365
Zn30	Zn	0.482371	-0.882479	0.362365
Zn31	Zn	0.732371	-0.632479	0.612365
Zn32	Zn	0.982371	-0.382479	0.862365
Zn33	Zn	0.219663	-1.145162	-0.112181
Zn34	Zn	0.469663	-0.895162	0.137819
Zn35	Zn	0.719663	-0.645162	0.387819
Zn36	Zn	0.969663	-0.395162	0.637819
O37	O	0.369175	-1.138161	0.085296
O38	O	0.619175	-0.888161	0.335296
O39	O	0.869175	-0.638161	0.585296
O40	O	1.119175	-0.388161	0.835296
C41	C	0.218228	-0.964864	0.000076
C42	C	0.468228	-0.714864	0.250076
C43	C	0.718228	-0.464864	0.500076
C44	C	0.968228	-0.214864	0.750076
C45	C	0.207383	-0.858722	0.000066
C46	C	0.457383	-0.608722	0.250066
C47	C	0.707383	-0.358722	0.500066
C48	C	0.957383	-0.108722	0.750066
C49	C	0.052060	-1.131031	0.000102
C50	C	0.302060	-0.881031	0.250102
C51	C	0.552060	-0.631031	0.500102
C52	C	0.802060	-0.381031	0.750102
C53	C	-0.054083	-1.120187	0.000102
C54	C	0.195917	-0.870187	0.250102
C55	C	0.445917	-0.620187	0.500102
C56	C	0.695917	-0.370187	0.750102
C57	C	0.233806	-1.312777	0.000106
C58	C	0.483806	-1.062777	0.250106
C59	C	0.733806	-0.812777	0.500106
C60	C	0.983806	-0.562777	0.750106
C61	C	0.244651	-1.418920	0.000109
C62	C	0.494651	-1.168920	0.250109
C63	C	0.744651	-0.918920	0.500109
C64	C	0.994651	-0.668920	0.750109
C65	C	-0.248421	-1.100362	0.000086
C66	C	0.001579	-0.850362	0.250086
C67	C	0.251579	-0.600362	0.500086
C68	C	0.501579	-0.350362	0.750086
C69	C	-0.299551	-1.177276	0.000090
C70	C	-0.049551	-0.927276	0.250090
C71	C	0.200449	-0.677276	0.500090
C72	C	0.450449	-0.427276	0.750090
C73	C	-0.407688	-1.166245	0.000080
C74	C	-0.157688	-0.916245	0.250080
C75	C	0.092312	-0.666245	0.500080
C76	C	0.342312	-0.416245	0.750080
C77	C	-0.140275	-1.111391	0.000095
C78	C	0.109725	-0.861391	0.250095
C79	C	0.359725	-0.611391	0.500095
C80	C	0.609725	-0.361391	0.750095
C81	C	0.399974	-1.146610	0.000080
C82	C	0.649974	-0.896610	0.250080
C83	C	0.899974	-0.646610	0.500080
C84	C	1.149974	-0.396610	0.750080
C85	C	0.506116	-1.157455	0.000073
C86	C	0.756116	-0.907455	0.250073
C87	C	1.006116	-0.657455	0.500073
C88	C	1.256116	-0.407455	0.750073
N89	N	0.241043	-1.123831	0.265612
N90	N	0.491043	-0.873831	0.515612
N91	N	0.741043	-0.623831	0.765612
N92	N	0.991043	-0.373831	1.015612
C93	C	0.187558	-0.664383	0.000088
C94	C	0.437558	-0.414383	0.250088
C95	C	0.687558	-0.164383	0.500088
C96	C	0.937558	0.085617	0.750088
C97	C	0.264472	-0.613253	0.000087
C98	C	0.514472	-0.363253	0.250087
C99	C	0.764472	-0.113253	0.500087
C100	C	1.014472	0.136747	0.750087
C101	C	0.253441	-0.505116	0.000099
C102	C	0.503441	-0.255116	0.250099
C103	C	0.753441	-0.005116	0.500099
C104	C	1.003441	0.244884	0.750099
C105	C	0.198587	-0.772529	0.000076
C106	C	0.448587	-0.522529	0.250076
C107	C	0.698587	-0.272529	0.500076
C108	C	0.948587	-0.022529	0.750076
N109	N	0.210984	-1.153817	-0.265428
N110	N	0.460984	-0.903817	-0.015428
N111	N	0.710984	-0.653817	0.234572
N112	N	0.960984	-0.403817	0.484572
C113	C	0.252851	-1.112065	0.474653
C114	C	0.502851	-0.862065	0.724653
C115	C	0.752851	-0.612065	0.974653
C116	C	1.002851	-0.362065	1.224653
C117	C	0.199179	-1.165580	0.525538
C118	C	0.449179	-0.915580	0.775538
C119	C	0.699179	-0.665580	1.025538
C120	C	0.949179	-0.415580	1.275538
C121	C	0.205749	-1.159034	0.641855
C122	C	0.455749	-0.909034	0.891855
C123	C	0.705749	-0.659034	1.141855
C124	C	0.955749	-0.409034	1.391855
C125	C	0.246282	-1.118610	0.358325
C126	C	0.496282	-0.868610	0.608325
C127	C	0.746282	-0.618610	0.858325
C128	C	0.996282	-0.368610	1.108325
H129	H	-0.262115	-1.251413	0.000028
H130	H	-0.012115	-1.001413	0.250028
H131	H	0.237885	-0.751413	0.500028
H132	H	0.487885	-0.501413	0.750028
Cl133	Cl	-0.306222	-0.985913	0.000070
Cl134	Cl	-0.056222	-0.735913	0.250070
Cl135	Cl	0.193778	-0.485913	0.500070
Cl136	Cl	0.443778	-0.235913	0.750070
Cl137	Cl	0.073108	-0.606582	0.000098
Cl138	Cl	0.323108	-0.356582	0.250098
Cl139	Cl	0.573108	-0.106582	0.500098
Cl140	Cl	0.823108	0.143418	0.750098
H141	H	0.338605	-0.650693	0.000077
H142	H	0.588605	-0.400693	0.250077
H143	H	0.838605	-0.150693	0.500077
H144	H	1.088605	0.099307	0.750077
Cl145	Cl	0.121012	-1.244305	0.457929
Cl146	Cl	0.371012	-0.994305	0.707929
Cl147	Cl	0.621012	-0.744305	0.957929
Cl148	Cl	0.871012	-0.494305	1.207929
Cl149	Cl	0.331413	-1.033744	0.542261
Cl150	Cl	0.581413	-0.783744	0.792261
Cl151	Cl	0.831413	-0.533744	1.042261
Cl152	Cl	1.081413	-0.283744	1.292261
