data_functionalizedCrystal
_audit_creation_method	'MofGen! by Chris Wilmer'
_symmetry_space_group_name_H-M	'P1'
_symmetry_Int_Tables_number	1
_symmetry_cell_setting	triclinic
loop_
_symmetry_equiv_pos_as_xyz
  x,y,z
_cell_length_a	15.298114
_cell_length_b	15.297327
_cell_length_c	12.827885
_cell_angle_alpha	80.357285
_cell_angle_beta	80.329995
_cell_angle_gamma	88.422361
loop_
_atom_site_label
_atom_site_type_symbol
_atom_site_fract_x
_atom_site_fract_y
_atom_site_fract_z
Zn1	Zn	1.278593	-0.580172	0.450289
Zn2	Zn	1.253127	-0.726654	0.310002
Zn3	Zn	1.132122	-0.554892	0.299913
Zn4	Zn	1.106751	-0.701280	0.509014
O5	O	1.192648	-0.640749	0.392305
O6	O	1.397772	-0.620801	0.411326
O7	O	1.237035	-0.703909	0.162443
O8	O	1.172827	-0.435679	0.291063
O9	O	1.379062	-0.728421	0.308257
O10	O	1.280438	-0.454251	0.401543
O11	O	1.148133	-0.577716	0.155031
O12	O	1.006199	-0.553112	0.348005
O13	O	1.129586	-0.685175	0.647444
O14	O	0.987559	-0.660663	0.501631
O15	O	1.255837	-0.596197	0.604300
O16	O	1.212434	-0.845855	0.365199
O17	O	1.104892	-0.827213	0.511413
C18	C	0.965101	-0.601392	0.430096
C19	C	0.867752	-0.584575	0.446294
C20	C	0.554434	-0.760945	0.276799
C21	C	0.645899	-0.776743	0.261573
C22	C	0.701366	-0.728703	0.307752
C23	C	0.665361	-0.664861	0.369159
C24	C	0.573888	-0.649055	0.384380
C25	C	0.720820	-0.616814	0.415333
C26	C	0.684814	-0.552971	0.476740
C27	C	0.593350	-0.537170	0.491959
C28	C	0.537883	-0.585210	0.445780
C29	C	0.812293	-0.632619	0.400112
C30	C	0.831746	-0.520730	0.507693
C31	C	0.740282	-0.504931	0.522920
C32	C	1.153171	-0.868318	0.445792
C33	C	1.136362	-0.965687	0.468696
C34	C	1.313141	-1.278885	0.228904
C35	C	1.328933	-1.187402	0.207380
C36	C	1.280792	-1.131969	0.272707
C37	C	1.216856	-1.168027	0.359562
C38	C	1.201057	-1.259518	0.381084
C39	C	1.168708	-1.112602	0.424887
C40	C	1.104772	-1.148661	0.511742
C41	C	1.088977	-1.240143	0.533260
C42	C	1.137118	-1.295576	0.467933
C43	C	1.184507	-1.021111	0.403365
C44	C	1.072423	-1.001745	0.555545
C45	C	1.056631	-1.093228	0.577069
C46	C	1.421083	-0.680261	0.354366
C47	C	1.518429	-0.697099	0.338199
C48	C	1.192722	-0.640676	0.664845
C49	C	1.192754	-0.640644	0.780986
C50	C	1.232303	-0.412296	0.338627
C51	C	1.249202	-0.314943	0.315753
C52	C	1.192635	-0.640768	0.120801
C53	C	1.192816	-0.640582	0.004575
C54	C	1.255234	-0.596606	0.811418
C55	C	1.255269	-0.596572	0.931455
H56	H	0.675208	-0.828722	0.211573
O57	O	1.319175	-0.551576	0.962582
C58	C	1.449548	-0.459624	0.906732
C59	C	1.377236	-0.510564	0.871333
H60	H	1.496498	-0.426438	0.832977
H61	H	1.488399	-0.507743	0.959636
H62	H	1.417235	-0.406925	0.953801
H63	H	1.409476	-0.563263	0.824222
H64	H	1.338392	-0.462391	0.818483
H65	H	1.380989	-1.158047	0.136662
O66	O	0.558258	-0.475256	0.551701
C67	C	0.457107	-0.445798	0.707292
C68	C	0.496759	-0.515999	0.639717
H69	H	0.407391	-0.478715	0.778480
H70	H	0.422153	-0.392549	0.655832
H71	H	0.512481	-0.414162	0.737628
H72	H	0.441438	-0.547702	0.609367
H73	H	0.531737	-0.569193	0.691221
H74	H	0.841599	-0.684600	0.350114
H75	H	1.352325	-1.324025	0.175719
O76	O	1.026966	-1.275146	0.617750
C77	C	0.979525	-1.295648	0.809103
C78	C	1.049827	-1.255984	0.713518
H79	H	0.997974	-1.280155	0.886552
H80	H	0.976502	-1.370567	0.813358
H81	H	0.912011	-1.265530	0.798146
H82	H	1.117378	-1.286033	0.724408
H83	H	1.052773	-1.181065	0.709292
O84	O	0.994622	-1.128237	0.661559
C85	C	0.947184	-1.148754	0.852913
C86	C	1.017482	-1.109078	0.757329
H87	H	0.965631	-1.133263	0.930364
H88	H	0.944170	-1.223673	0.857160
H89	H	0.879667	-1.118643	0.841960
H90	H	1.085035	-1.139120	0.768215
H91	H	1.020418	-1.034159	0.753110
O92	O	1.246553	-0.986179	0.318888
C93	C	1.293934	-0.965588	0.127522
C94	C	1.223609	-1.005210	0.223103
H95	H	1.275400	-0.980943	0.050054
H96	H	1.361464	-0.995736	0.138341
H97	H	1.296973	-0.890686	0.123409
H98	H	1.220490	-1.080109	0.227272
H99	H	1.156115	-0.974992	0.212244
H100	H	1.124266	-1.370070	0.485456
H101	H	0.775840	-0.741570	0.295351
O102	O	0.500425	-0.807550	0.232056
C103	C	0.350895	-0.832735	0.207766
C104	C	0.411957	-0.779904	0.258526
H105	H	0.279358	-0.810390	0.229128
H106	H	0.356560	-0.906500	0.239599
H107	H	0.371578	-0.820386	0.116916
H108	H	0.391314	-0.792179	0.349377
H109	H	0.406283	-0.706157	0.226607
H110	H	1.139324	-0.678291	0.978330
H111	H	1.308699	-0.558924	0.748605
O112	O	1.025788	-0.947889	0.619094
C113	C	1.031800	-0.842431	0.737770
C114	C	1.084718	-0.903407	0.665867
H115	H	1.079424	-0.806437	0.775589
H116	H	0.983407	-0.883879	0.803604
H117	H	0.993389	-0.791788	0.687281
H118	H	1.123182	-0.954060	0.716267
H119	H	1.133057	-0.861901	0.600030
O120	O	0.705161	-0.442917	0.582494
C121	C	0.572860	-0.369030	0.653669
C122	C	0.612519	-0.439269	0.586157
H123	H	0.497952	-0.366070	0.656672
H124	H	0.603020	-0.301456	0.615870
H125	H	0.588250	-0.387608	0.738517
H126	H	0.597143	-0.420775	0.501298
H127	H	0.582359	-0.506824	0.624043
O128	O	0.885635	-0.474193	0.552694
C129	C	0.991022	-0.480414	0.673828
C130	C	0.930009	-0.533221	0.622972
H131	H	1.026928	-0.528117	0.730642
H132	H	0.949614	-0.432087	0.720398
H133	H	1.041740	-0.441939	0.608024
H134	H	0.879280	-0.571748	0.688708
H135	H	0.971474	-0.581494	0.576377
O136	O	1.129075	-0.685715	0.855958
C137	C	1.096920	-0.801787	1.009044
C138	C	1.169125	-0.750827	0.924189
H139	H	1.129275	-0.854428	1.064244
H140	H	1.049878	-0.835018	0.967519
H141	H	1.058148	-0.753589	1.058235
H142	H	1.207962	-0.798966	0.874971
H143	H	1.216107	-0.717582	0.965779
H144	H	0.463403	-0.572353	0.458177
H145	H	1.293653	-1.057480	0.255175
