data_functionalizedCrystal
_audit_creation_method	'MofGen! by Chris Wilmer'
_symmetry_space_group_name_H-M	'P1'
_symmetry_Int_Tables_number	1
_symmetry_cell_setting	triclinic
loop_
_symmetry_equiv_pos_as_xyz
  x,y,z
_cell_length_a	17.699083
_cell_length_b	15.944551
_cell_length_c	16.776229
_cell_angle_alpha	89.992397
_cell_angle_beta	89.998886
_cell_angle_gamma	83.390877
loop_
_atom_site_label
_atom_site_type_symbol
_atom_site_fract_x
_atom_site_fract_y
_atom_site_fract_z
O1	O	1.004260	0.106222	-0.066178
O2	O	0.783905	0.120042	-0.066204
O3	O	0.900100	-0.009156	-0.066183
O4	O	0.888065	0.235419	-0.066199
O5	O	0.900084	-0.009164	0.066393
O6	O	0.783890	0.120034	0.066372
O7	O	1.004244	0.106214	0.066398
Zn8	Zn	0.894065	0.113123	0.087435
Zn9	Zn	0.894085	0.113133	-0.087241
O10	O	0.888050	0.235411	0.066377
C11	C	0.755700	0.119542	0.000080
C12	C	0.671679	0.118057	0.000071
C13	C	0.623187	0.193893	0.000066
C14	C	0.544242	0.192492	0.000076
C15	C	0.513789	0.115254	0.000086
C16	C	0.562287	0.039412	0.000093
C17	C	0.641231	0.040814	0.000088
C18	C	0.243914	0.033758	0.000113
C19	C	0.164964	0.032362	0.000115
C20	C	0.146925	0.185436	0.000101
C21	C	0.225869	0.186837	0.000096
C22	C	0.274360	0.110996	0.000108
C23	C	0.359962	0.112516	0.000098
C24	C	0.428189	0.113733	0.000090
C25	C	0.899593	-0.040453	0.000105
C26	C	0.898095	-0.133696	0.000105
C27	C	0.822492	-0.348393	0.000085
C28	C	0.857592	-0.409488	0.065458
C29	C	0.895385	-0.304416	0.000099
C30	C	0.857624	-0.409464	-0.065252
C31	C	0.892762	-0.469323	0.000089
C32	C	0.930505	-0.364283	0.065525
C33	C	0.930527	-0.364252	-0.065244
C34	C	0.965680	-0.425329	0.000145
C35	C	0.896894	-0.209417	0.000105
C36	C	0.891259	-0.564321	0.000089
C37	C	1.032450	0.106713	0.000112
C38	C	1.116471	0.108199	0.000116
C39	C	0.888557	0.266708	0.000087
C40	C	0.890055	0.359951	0.000082
N41	N	0.894056	0.113115	0.206646
N42	N	0.894099	0.113134	-0.206452
C43	C	0.945523	0.055930	0.248372
C44	C	0.945527	0.055929	0.331824
C45	C	0.894068	0.113118	0.373549
C46	C	0.842595	0.170306	0.331816
C47	C	0.842588	0.170302	0.248366
C48	C	0.842623	0.170323	0.668364
C49	C	0.842636	0.170324	0.751820
C50	C	0.945562	0.055949	0.751822
C51	C	0.945555	0.055945	0.668372
C52	C	0.894080	0.113130	0.626647
C53	C	0.894075	0.113129	0.536158
C54	C	0.894076	0.113124	0.464036
H55	H	0.140173	-0.030538	0.000124
C56	C	0.786014	0.233219	0.797716
H57	H	0.755348	0.267268	0.760915
H58	H	0.813230	0.268156	0.830265
H59	H	0.754520	0.203026	0.830274
H60	H	0.987460	0.009380	0.634402
H61	H	0.800692	0.216868	0.365793
H62	H	1.026238	-0.458615	0.000189
H63	H	0.987473	0.009384	0.785804
H64	H	0.800712	0.216886	0.634398
C65	C	0.785978	0.233209	0.202467
H66	H	0.755336	0.267275	0.239267
H67	H	0.754471	0.203036	0.169921
H68	H	0.813205	0.268139	0.169904
C69	C	0.093586	0.268863	0.000094
H70	H	0.123031	0.315062	0.000078
H71	H	0.062415	0.271504	0.046327
H72	H	0.062416	0.271497	-0.046143
C73	C	0.656678	0.278856	0.000055
H74	H	0.616489	0.323820	0.000061
H75	H	0.687098	0.282589	-0.046179
H76	H	0.687100	0.282581	0.046292
C77	C	0.259363	0.271798	0.000090
H78	H	0.219176	0.316764	0.000096
H79	H	0.289785	0.275533	-0.046143
H80	H	0.289784	0.275519	0.046328
C81	C	0.297244	-0.049664	0.000120
H82	H	0.267798	-0.095863	0.000118
H83	H	0.328416	-0.052305	0.046351
H84	H	0.328414	-0.052299	-0.046119
C85	C	1.002138	-0.006974	0.377724
H86	H	0.994767	0.001209	0.433400
H87	H	1.052648	0.002077	0.364043
H88	H	0.993913	-0.063025	0.364054
H89	H	0.537486	-0.023476	0.000112
C90	C	0.694572	-0.042605	0.000085
H91	H	0.665130	-0.088807	0.000083
H92	H	0.725747	-0.045246	0.046314
H93	H	0.725738	-0.045234	-0.046156
C94	C	0.490901	0.275909	0.000063
H95	H	0.439523	0.264015	0.000075
H96	H	0.500131	0.307584	-0.046176
H97	H	0.500134	0.307589	0.046295
H98	H	0.761987	-0.314958	0.000143
C99	C	0.972122	-0.337078	-0.139893
H100	H	1.015194	-0.310622	-0.124189
H101	H	0.938632	-0.298515	-0.170106
H102	H	0.988201	-0.385325	-0.171436
H103	H	0.961304	-0.344360	0.120853
C104	C	0.815936	-0.436576	0.140106
H105	H	0.765070	-0.409968	0.140022
H106	H	0.841336	-0.420349	0.186528
H107	H	0.815689	-0.496124	0.139810
C108	C	0.815971	-0.436504	-0.139913
H109	H	0.765111	-0.409881	-0.139834
H110	H	0.815721	-0.496048	-0.139640
H111	H	0.841378	-0.420246	-0.186328
C112	C	1.002128	-0.006981	0.202483
H113	H	1.032775	-0.041043	0.239289
H114	H	1.033631	0.023187	0.169918
H115	H	0.974895	-0.041913	0.169940
