data_functionalizedCrystal
_audit_creation_method	'MofGen! by Chris Wilmer'
_symmetry_space_group_name_H-M	'P1'
_symmetry_Int_Tables_number	1
_symmetry_cell_setting	triclinic
loop_
_symmetry_equiv_pos_as_xyz
  x,y,z
_cell_length_a	25.639242
_cell_length_b	25.639240
_cell_length_c	19.076919
_cell_angle_alpha	87.738531
_cell_angle_beta	87.727009
_cell_angle_gamma	90.027658
loop_
_atom_site_label
_atom_site_type_symbol
_atom_site_fract_x
_atom_site_fract_y
_atom_site_fract_z
Zn1	Zn	0.787383	-0.220112	0.398053
Zn2	Zn	1.120716	0.113221	0.731386
Zn3	Zn	1.454050	0.446555	1.064720
Zn4	Zn	0.790824	-0.304033	0.280341
Zn5	Zn	1.124157	0.029300	0.613674
Zn6	Zn	1.457491	0.362633	0.947008
Zn7	Zn	0.703467	-0.216607	0.280357
Zn8	Zn	1.036801	0.116727	0.613690
Zn9	Zn	1.370134	0.450060	0.947023
Zn10	Zn	0.699916	-0.307508	0.397978
Zn11	Zn	1.033249	0.025825	0.731311
Zn12	Zn	1.366582	0.359159	1.064645
O13	O	0.745397	-0.262065	0.339182
O14	O	1.078731	0.071268	0.672515
O15	O	1.412064	0.404602	1.005849
O16	O	0.861004	-0.231257	0.382463
O17	O	1.194337	0.102076	0.715796
O18	O	1.527671	0.435410	1.049130
O19	O	0.782162	-0.289515	0.181855
O20	O	1.115495	0.043819	0.515189
O21	O	1.448829	0.377152	0.848522
O22	O	0.714645	-0.143907	0.296007
O23	O	1.047978	0.189426	0.629341
O24	O	1.381312	0.522759	0.962674
O25	O	0.863532	-0.292914	0.295981
O26	O	1.196865	0.040419	0.629314
O27	O	1.530199	0.373753	0.962647
O28	O	0.776298	-0.146483	0.382478
O29	O	1.109631	0.186850	0.715812
O30	O	1.442964	0.520184	1.049145
O31	O	0.717982	-0.225283	0.181867
O32	O	1.051315	0.108051	0.515200
O33	O	1.384648	0.441384	0.848533
O34	O	0.629832	-0.228652	0.295934
O35	O	0.963165	0.104681	0.629268
O36	O	1.296498	0.438015	0.962601
O37	O	0.708592	-0.298836	0.496476
O38	O	1.041926	0.034497	0.829809
O39	O	1.375259	0.367831	1.163142
O40	O	0.627222	-0.295437	0.382350
O41	O	0.960556	0.037896	0.715684
O42	O	1.293889	0.371230	1.049017
O43	O	0.772854	-0.234626	0.496531
O44	O	1.106187	0.098707	0.829864
O45	O	1.439521	0.432040	1.163197
O46	O	0.778718	-0.377658	0.295908
O47	O	1.112052	-0.044325	0.629241
O48	O	1.445385	0.289008	0.962574
O49	O	0.711929	-0.380211	0.382335
O50	O	1.045262	-0.046878	0.715668
O51	O	1.378595	0.286455	1.049002
C52	C	0.609556	-0.262042	0.339136
C53	C	0.942890	0.071292	0.672470
C54	C	1.276223	0.404625	1.005803
C55	C	0.551442	-0.262045	0.339133
C56	C	0.884776	0.071289	0.672467
C57	C	1.218109	0.404622	1.005800
C58	C	0.301595	-0.227237	0.294263
C59	C	0.634928	0.106097	0.627597
C60	C	0.968262	0.439430	0.960930
C61	C	0.356200	-0.227231	0.294254
C62	C	0.689533	0.106102	0.627588
C63	C	1.022866	0.439435	0.960921
O64	O	0.385582	-0.197604	0.256064
O65	O	0.718915	0.135729	0.589398
O66	O	1.052249	0.469062	0.922731
N67	N	0.382167	-0.262052	0.339169
N68	N	0.715501	0.071281	0.672502
N69	N	1.048834	0.404615	1.005835
C70	C	0.353528	-0.296877	0.384100
C71	C	0.686861	0.036457	0.717434
C72	C	1.020194	0.369790	1.050767
O73	O	0.380629	-0.326494	0.422303
O74	O	0.713963	0.006840	0.755636
O75	O	1.047296	0.340173	1.088970
C76	C	0.298924	-0.296879	0.384112
C77	C	0.632257	0.036455	0.717446
C78	C	0.965591	0.369788	1.050779
C79	C	0.272959	-0.262059	0.339190
C80	C	0.606292	0.071274	0.672523
C81	C	0.939626	0.404607	1.005856
C82	C	0.275630	-0.192420	0.249345
C83	C	0.608963	0.140914	0.582678
C84	C	0.942297	0.474247	0.916012
C85	C	0.221029	-0.192425	0.249353
C86	C	0.554363	0.140908	0.582686
C87	C	0.887696	0.474241	0.916020
C88	C	0.192393	-0.227248	0.294280
C89	C	0.525727	0.106085	0.627613
C90	C	0.859060	0.439418	0.960946
C91	C	0.218358	-0.262065	0.339198
C92	C	0.551692	0.071268	0.672531
C93	C	0.885025	0.404601	1.005865
C94	C	0.270285	-0.331700	0.429047
C95	C	0.603618	0.001633	0.762380
C96	C	0.936952	0.334966	1.095713
C97	C	0.215678	-0.331699	0.429055
C98	C	0.549011	0.001634	0.762388
C99	C	0.882344	0.334967	1.095722
C100	C	0.189713	-0.296880	0.384133
C101	C	0.523046	0.036453	0.717466
C102	C	0.856380	0.369787	1.050799
C103	C	0.135122	-0.296894	0.384133
C104	C	0.468455	0.036439	0.717466
C105	C	0.801788	0.369773	1.050799
N106	N	0.109154	-0.262073	0.339218
N107	N	0.442487	0.071260	0.672551
N108	N	0.775821	0.404593	1.005885
C109	C	0.137790	-0.227251	0.294292
C110	C	0.471123	0.106083	0.627625
C111	C	0.804456	0.439416	0.960958
C112	C	0.468199	-0.296869	0.384073
C113	C	0.801532	0.036465	0.717406
C114	C	1.134866	0.369798	1.050739
C115	C	0.522802	-0.296870	0.384058
C116	C	0.856135	0.036464	0.717391
C117	C	1.189468	0.369797	1.050724
C118	C	0.525470	-0.227224	0.294212
C119	C	0.858803	0.106110	0.627546
C120	C	1.192137	0.439443	0.960879
C121	C	0.470866	-0.227226	0.294224
C122	C	0.804200	0.106108	0.627558
C123	C	1.137533	0.439441	0.960891
C124	C	0.442231	-0.262048	0.339158
C125	C	0.775565	0.071285	0.672491
C126	C	1.108898	0.404619	1.005825
C127	C	0.023124	-0.227266	0.294312
C128	C	0.356457	0.106068	0.627645
C129	C	0.689791	0.439401	0.960978
C130	C	-0.031482	-0.227276	0.294322
C131	C	0.301852	0.106057	0.627655
C132	C	0.635185	0.439390	0.960988
C133	C	-0.034145	-0.296920	0.384169
C134	C	0.299188	0.036413	0.717503
C135	C	0.632522	0.369747	1.050836
C136	C	0.020456	-0.296912	0.384157
C137	C	0.353789	0.036422	0.717490
C138	C	0.687123	0.369755	1.050824
C139	C	0.049089	-0.262080	0.339226
C140	C	0.382423	0.071253	0.672559
C141	C	0.715756	0.404586	1.005892
O142	O	0.105705	-0.326505	0.422305
O143	O	0.439039	0.006829	0.755638
O144	O	0.772372	0.340162	1.088972
O145	O	0.110681	-0.197634	0.256102
O146	O	0.444014	0.135699	0.589435
O147	O	0.777348	0.469033	0.922768
C148	C	0.745325	-0.397906	0.339127
C149	C	1.078659	-0.064573	0.672460
C150	C	1.411992	0.268761	1.005794
C151	C	0.745341	-0.456020	0.339127
C152	C	1.078675	-0.122687	0.672460
C153	C	1.412008	0.210647	1.005794
C154	C	0.777514	-0.817690	0.384289
C155	C	1.110848	-0.484356	0.717622
C156	C	1.444181	-0.151023	1.050955
C157	C	0.777529	-0.872294	0.384303
C158	C	1.110863	-0.538961	0.717636
C159	C	1.444196	-0.205628	1.050970
O160	O	0.804797	-0.901640	0.422645
O161	O	1.138131	-0.568307	0.755978
O162	O	1.471464	-0.234974	1.089311
N163	N	0.745468	-0.898306	0.339250
N164	N	1.078801	-0.564973	0.672583
N165	N	1.412135	-0.231639	1.005917
C166	C	0.713386	-0.869710	0.294185
C167	C	1.046719	-0.536377	0.627518
C168	C	1.380052	-0.203044	0.960852
O169	O	0.686116	-0.896849	0.255866
O170	O	1.019450	-0.563516	0.589199
O171	O	1.352783	-0.230183	0.922532
C172	C	0.713368	-0.815107	0.294175
C173	C	1.046702	-0.481773	0.627508
C174	C	1.380035	-0.148440	0.960841
C175	C	0.745436	-0.789098	0.339226
C176	C	1.078769	-0.455764	0.672559
C177	C	1.412102	-0.122431	1.005892
C178	C	0.809578	-0.791681	0.429337
C179	C	1.142912	-0.458347	0.762670
C180	C	1.476245	-0.125014	1.096003
C181	C	0.809564	-0.737080	0.429321
C182	C	1.142897	-0.403746	0.762654
C183	C	1.476231	-0.070413	1.095988
C184	C	0.777485	-0.708488	0.384258
C185	C	1.110819	-0.375154	0.717591
C186	C	1.444152	-0.041821	1.050925
C187	C	0.745421	-0.734497	0.339210
C188	C	1.078755	-0.401163	0.672544
C189	C	1.412088	-0.067830	1.005877
C190	C	0.681284	-0.786512	0.249114
C191	C	1.014617	-0.453179	0.582447
C192	C	1.347951	-0.119845	0.915780
C193	C	0.681269	-0.731905	0.249108
C194	C	1.014602	-0.398571	0.582441
C195	C	1.347936	-0.065238	0.915774
C196	C	0.713336	-0.705896	0.294159
C197	C	1.046670	-0.372563	0.627492
C198	C	1.380003	-0.039229	0.960825
C199	C	0.713328	-0.651304	0.294132
C200	C	1.046662	-0.317971	0.627465
C201	C	1.379995	0.015363	0.960798
N202	N	0.745389	-0.625292	0.339185
N203	N	1.078723	-0.291959	0.672518
N204	N	1.412056	0.041375	1.005851
C205	C	0.777468	-0.653884	0.384248
C206	C	1.110801	-0.320551	0.717581
C207	C	1.444135	0.012783	1.050914
C208	C	0.713424	-0.984382	0.294211
C209	C	1.046757	-0.651048	0.627544
C210	C	1.380091	-0.317715	0.960877
C211	C	0.713444	-1.038984	0.294217
C212	C	1.046777	-0.705651	0.627550
C213	C	1.380110	-0.372317	0.960884
C214	C	0.777587	-1.041564	0.384336
C215	C	1.110920	-0.708231	0.717669
C216	C	1.444253	-0.374898	1.051003
C217	C	0.777569	-0.986961	0.384326
C218	C	1.110903	-0.653628	0.717659
C219	C	1.444236	-0.320294	1.050993
C220	C	0.745485	-0.958370	0.339264
C221	C	1.078819	-0.625037	0.672597
C222	C	1.412152	-0.291703	1.005930
C223	C	0.777436	-0.539218	0.384212
C224	C	1.110769	-0.205885	0.717545
C225	C	1.444102	0.127449	1.050878
C226	C	0.777420	-0.484612	0.384190
C227	C	1.110753	-0.151279	0.717523
C228	C	1.444087	0.182055	1.050857
C229	C	0.713275	-0.482036	0.294074
C230	C	1.046609	-0.148703	0.627407
C231	C	1.379942	0.184630	0.960740
C232	C	0.713293	-0.536638	0.294092
C233	C	1.046626	-0.203304	0.627426
C234	C	1.379960	0.130029	0.960759
C235	C	0.745375	-0.565227	0.339167
C236	C	1.078708	-0.231894	0.672500
C237	C	1.412041	0.101440	1.005834
O238	O	0.686072	-0.621924	0.255812
O239	O	1.019406	-0.288590	0.589145
O240	O	1.352739	0.044743	0.922478
O241	O	0.804728	-0.626738	0.422567
O242	O	1.138061	-0.293405	0.755900
O243	O	1.471395	0.039928	1.089234
C244	C	0.881769	-0.262089	0.339229
C245	C	1.215102	0.071244	0.672562
C246	C	1.548436	0.404578	1.005895
C247	C	0.939883	-0.262099	0.339248
C248	C	1.273216	0.071234	0.672582
C249	C	1.606549	0.404568	1.005915
C250	C	0.739943	-0.267510	0.522754
C251	C	1.073277	0.065823	0.856087
C252	C	1.406610	0.399157	1.189421
C253	C	0.737619	-0.269830	0.600981
C254	C	1.070952	0.063503	0.934315
C255	C	1.404286	0.396836	1.267648
C256	C	0.745484	-0.125694	0.339253
C257	C	1.078817	0.207639	0.672586
C258	C	1.412150	0.540973	1.005920
C259	C	0.745521	-0.067581	0.339283
C260	C	1.078854	0.265752	0.672616
C261	C	1.412187	0.599086	1.005950
C262	C	0.750861	-0.256604	0.156324
C263	C	1.084194	0.076730	0.489658
C264	C	1.417527	0.410063	0.822991
C265	C	0.753286	-0.254136	0.078097
C266	C	1.086620	0.079197	0.411431
C267	C	1.419953	0.412531	0.744764
C268	C	0.769983	-0.237491	0.637763
C269	C	1.103316	0.095842	0.971096
C270	C	1.436650	0.429175	1.304429
C271	C	0.767793	-0.239669	0.711266
C272	C	1.101126	0.093664	1.044599
C273	C	1.434459	0.426997	1.377932
C274	C	0.733241	-0.274190	0.747986
C275	C	1.066574	0.059144	1.081319
C276	C	1.399907	0.392477	1.414653
C277	C	0.700873	-0.306530	0.711200
C278	C	1.034206	0.026804	1.044533
C279	C	1.367540	0.360137	1.377866
C280	C	0.703061	-0.304349	0.637698
C281	C	1.036394	0.028985	0.971031
C282	C	1.369728	0.362318	1.304365
C283	C	0.723107	-0.284295	0.967809
C284	C	1.056440	0.049038	1.301143
C285	C	1.389773	0.382372	1.634476
C286	C	0.720922	-0.286475	1.041316
C287	C	1.054256	0.046858	1.374649
C288	C	1.387589	0.380192	1.707983
C289	C	0.787841	-0.219614	1.041377
C290	C	1.121175	0.113720	1.374710
C291	C	1.454508	0.447053	1.708044
C292	C	0.790029	-0.217438	0.967874
C293	C	1.123362	0.115896	1.301207
C294	C	1.456695	0.449229	1.634541
C295	C	0.757659	-0.249776	0.931094
C296	C	1.090992	0.083557	1.264427
C297	C	1.424326	0.416891	1.597761
N298	N	0.731002	-0.276418	0.823118
N299	N	1.064335	0.056915	1.156451
N300	N	1.397669	0.390249	1.489785
N301	N	0.759895	-0.247545	0.855963
N302	N	1.093229	0.085789	1.189297
N303	N	1.426562	0.419122	1.522630
H304	H	0.449729	-0.198871	0.257647
H305	H	0.783063	0.134462	0.590980
H306	H	1.116396	0.467796	0.924314
O307	O	0.187916	-0.365503	0.472804
O308	O	0.521249	-0.032169	0.806137
O309	O	0.854582	0.301164	1.139470
C310	C	0.199190	-0.356223	0.542975
C311	C	0.532523	-0.022890	0.876308
C312	C	0.865856	0.310444	1.209642
H313	H	0.238799	-0.336167	0.544475
H314	H	0.572133	-0.002834	0.877808
H315	H	0.905466	0.330500	1.211141
H316	H	0.200118	-0.394924	0.574440
H317	H	0.533451	-0.061591	0.907773
H318	H	0.866784	0.271743	1.241107
H319	H	0.167770	-0.330076	0.566753
H320	H	0.501103	0.003258	0.900086
H321	H	0.834437	0.336591	1.233419
O322	O	0.823605	-0.183857	0.932315
O323	O	1.156938	0.149476	1.265648
O324	O	1.490271	0.482810	1.598982
C325	C	0.851711	-0.155789	0.980541
C326	C	1.185044	0.177544	1.313875
C327	C	1.518377	0.510877	1.647208
H328	H	0.828737	-0.155528	1.032928
H329	H	1.162071	0.177805	1.366261
H330	H	1.495404	0.511138	1.699595
H331	H	0.857947	-0.113967	0.959328
H332	H	1.191280	0.219366	1.292661
H333	H	1.524613	0.552700	1.625994
H334	H	0.891174	-0.175175	0.988366
H335	H	1.224507	0.158158	1.321699
H336	H	1.557841	0.491492	1.655032
H337	H	0.041598	-0.325268	0.420731
H338	H	0.374931	0.008065	0.754064
H339	H	0.708264	0.341398	1.087398
O340	O	0.650044	-0.704111	0.205433
O341	O	0.983377	-0.370778	0.538766
O342	O	1.316711	-0.037445	0.872099
C343	C	0.615062	-0.673712	0.245446
C344	C	0.948395	-0.340379	0.578779
C345	C	1.281729	-0.007045	0.912112
H346	H	0.610159	-0.691789	0.300877
H347	H	0.943492	-0.358455	0.634211
H348	H	1.276826	-0.025122	0.967544
H349	H	0.575597	-0.672379	0.219936
H350	H	0.908930	-0.339046	0.553269
H351	H	1.242264	-0.005713	0.886602
H352	H	0.631141	-0.632387	0.247879
H353	H	0.964474	-0.299054	0.581213
H354	H	1.297808	0.034279	0.914546
O355	O	0.553350	-0.193464	0.250538
O356	O	0.886684	0.139869	0.583871
O357	O	1.220017	0.473203	0.917205
C358	C	0.586255	-0.221826	0.204988
C359	C	0.919588	0.111508	0.538321
C360	C	1.252921	0.444841	0.871654
H361	H	0.593686	-0.262212	0.229702
H362	H	0.927020	0.071122	0.563035
H363	H	1.260353	0.404455	0.896369
H364	H	0.624939	-0.200240	0.195612
H365	H	0.958272	0.133094	0.528945
H366	H	1.291605	0.466427	0.862279
H367	H	0.566747	-0.225960	0.152817
H368	H	0.900081	0.107374	0.486150
H369	H	1.233414	0.440707	0.819483
H370	H	0.794148	-0.213337	0.741210
H371	H	1.127481	0.119996	1.074543
H372	H	1.460815	0.453330	1.407876
H373	H	0.672738	-0.334635	0.741103
H374	H	1.006071	-0.001302	1.074437
H375	H	1.339405	0.332032	1.407770
O376	O	0.687322	-0.319935	1.077061
O377	O	1.020656	0.013398	1.410395
O378	O	1.353989	0.346731	1.743728
C379	C	0.652304	-0.291417	1.119565
C380	C	0.985637	0.041916	1.452899
C381	C	1.318970	0.375250	1.786232
H382	H	0.670448	-0.252128	1.130606
H383	H	1.003782	0.081205	1.463940
H384	H	1.337115	0.414538	1.797273
H385	H	0.643741	-0.314244	1.171237
H386	H	0.977074	0.019089	1.504570
H387	H	1.310407	0.352422	1.837904
H388	H	0.614406	-0.284818	1.091224
H389	H	0.947740	0.048516	1.424557
H390	H	1.281073	0.381849	1.757890
O391	O	-0.062047	-0.330695	0.427788
O392	O	0.271286	0.002639	0.761121
O393	O	0.604619	0.335972	1.094454
C394	C	-0.115808	-0.323236	0.418147
C395	C	0.217525	0.010097	0.751480
C396	C	0.550859	0.343431	1.084813
H397	H	-0.122568	-0.282181	0.395197
H398	H	0.210766	0.051153	0.728530
H399	H	0.544099	0.384486	1.061863
H400	H	-0.138116	-0.328401	0.470857
H401	H	0.195217	0.004932	0.804190
H402	H	0.528550	0.338265	1.137524
H403	H	-0.130213	-0.353094	0.380592
H404	H	0.203121	-0.019760	0.713926
H405	H	0.536454	0.313573	1.047259
H406	H	0.676702	-0.330677	0.607752
H407	H	1.010035	0.002656	0.941085
H408	H	1.343368	0.335990	1.274418
H409	H	0.835700	-0.814955	0.466037
H410	H	1.169034	-0.481621	0.799370
H411	H	1.502367	-0.148288	1.132703
O412	O	-0.056622	-0.193400	0.250661
O413	O	0.276712	0.139933	0.583994
O414	O	0.610045	0.473267	0.917328
C415	C	-0.019633	-0.162672	0.210997
C416	C	0.313700	0.170661	0.544330
C417	C	0.647033	0.503994	0.877664
H418	H	0.018441	-0.161749	0.239826
H419	H	0.351774	0.171585	0.573159
H420	H	0.685108	0.504918	0.906493
H421	H	-0.035174	-0.121250	0.203599
H422	H	0.298160	0.212083	0.536933
H423	H	0.631493	0.545416	0.870266
H424	H	-0.012257	-0.180169	0.157494
H425	H	0.321076	0.153164	0.490827
H426	H	0.654410	0.486498	0.824161
O427	O	0.547938	-0.330716	0.427756
O428	O	0.881272	0.002618	0.761089
O429	O	1.214605	0.335951	1.094423
C430	C	0.510948	-0.361459	0.467394
C431	C	0.844281	-0.028126	0.800727
C432	C	1.177615	0.305207	1.134060
H433	H	0.471961	-0.340121	0.469888
H434	H	0.805295	-0.006788	0.803221
H435	H	1.138628	0.326546	1.136555
H436	H	0.525086	-0.368745	0.522830
H437	H	0.858420	-0.035412	0.856164
H438	H	1.191753	0.297921	1.189497
H439	H	0.505886	-0.400371	0.441516
H440	H	0.839219	-0.067037	0.774850
H441	H	1.172552	0.266296	1.108183
H442	H	0.046431	-0.198900	0.257728
H443	H	0.379764	0.134433	0.591061
H444	H	0.713097	0.467766	0.924394
O445	O	0.819227	-0.188219	1.077214
O446	O	1.152560	0.145115	1.410548
O447	O	1.485894	0.478448	1.743881
C448	C	0.809898	-0.197553	1.149963
C449	C	1.143231	0.135780	1.483296
C450	C	1.476565	0.469114	1.816630
H451	H	0.769240	-0.214969	1.159976
H452	H	1.102574	0.118365	1.493310
H453	H	1.435907	0.451698	1.826643
H454	H	0.812636	-0.159219	1.177918
H455	H	1.145970	0.174114	1.511252
H456	H	1.479303	0.507448	1.844585
H457	H	0.840273	-0.226018	1.170820
H458	H	1.173607	0.107316	1.504154
H459	H	1.506940	0.440649	1.837487
H460	H	0.199894	-0.164072	0.212773
H461	H	0.533227	0.169261	0.546106
H462	H	0.866560	0.502595	0.879439
O463	O	0.691638	-0.315753	0.932196
O464	O	1.024971	0.017580	1.265529
O465	O	1.358305	0.350913	1.598863
C466	C	0.660662	-0.346675	0.980371
C467	C	0.993995	-0.013342	1.313704
C468	C	1.327328	0.319991	1.647037
H469	H	0.680524	-0.350055	1.032767
H470	H	1.013857	-0.016722	1.366101
H471	H	1.347191	0.316611	1.699434
H472	H	0.655674	-0.387234	0.959105
H473	H	0.989007	-0.053901	1.292438
H474	H	1.322340	0.279432	1.625771
H475	H	0.620740	-0.327742	0.988195
H476	H	0.954073	0.005591	1.321528
H477	H	1.287406	0.338924	1.654861
O478	O	0.808669	-1.069370	0.428192
O479	O	1.142002	-0.736036	0.761525
O480	O	1.475335	-0.402703	1.094858
C481	C	0.777529	-1.102315	0.473596
C482	C	1.110863	-0.768981	0.806929
C483	C	1.444196	-0.435648	1.140262
H484	H	0.736217	-1.086012	0.477878
H485	H	1.069550	-0.752679	0.811211
H486	H	1.402884	-0.419346	1.144544
H487	H	0.794794	-1.104509	0.527788
H488	H	1.128127	-0.771176	0.861121
H489	H	1.461460	-0.437843	1.194454
H490	H	0.776397	-1.143061	0.451838
H491	H	1.109730	-0.809728	0.785171
H492	H	1.443064	-0.476394	1.118505
H493	H	0.687337	-1.060156	0.257524
H494	H	1.020671	-0.726822	0.590858
H495	H	1.354004	-0.393489	0.924191
O496	O	0.682246	-0.956689	0.250361
O497	O	1.015579	-0.623356	0.583694
O498	O	1.348913	-0.290022	0.917028
C499	C	0.653946	-0.991362	0.210615
C500	C	0.987279	-0.658029	0.543949
C501	C	1.320612	-0.324696	0.877282
H502	H	0.675450	-1.030196	0.208224
H503	H	1.008783	-0.696863	0.541558
H504	H	1.342116	-0.363530	0.874891
H505	H	0.650045	-0.973972	0.155150
H506	H	0.983378	-0.640639	0.488483
H507	H	1.316712	-0.307306	0.821816
H508	H	0.613459	-0.997955	0.236331
H509	H	0.946792	-0.664622	0.569665
H510	H	1.280125	-0.331289	0.902998
H511	H	0.298940	-0.164060	0.212760
H512	H	0.632273	0.169274	0.546094
H513	H	0.965606	0.502607	0.879427
H514	H	0.803556	-0.562489	0.420920
H515	H	1.136889	-0.229156	0.754254
H516	H	1.470223	0.104177	1.087587
O517	O	0.440331	-0.330726	0.427620
O518	O	0.773664	0.002608	0.760953
O519	O	1.106997	0.335941	1.094286
C520	C	0.409923	-0.363270	0.387470
C521	C	0.743256	-0.029937	0.720803
C522	C	1.076590	0.303396	1.054136
H523	H	0.403311	-0.343187	0.334186
H524	H	0.736645	-0.009854	0.667519
H525	H	1.069978	0.323479	1.000853
H526	H	0.370683	-0.371168	0.416132
H527	H	0.704016	-0.037835	0.749465
H528	H	1.037350	0.295498	1.082798
H529	H	0.431185	-0.401771	0.379625
H530	H	0.764518	-0.068438	0.712959
H531	H	1.097852	0.264896	1.046292
H532	H	0.803535	-0.463437	0.420876
H533	H	1.136868	-0.130104	0.754209
H534	H	1.470201	0.203229	1.087542
O535	O	0.295553	-0.365449	0.472727
O536	O	0.628887	-0.032116	0.806060
O537	O	0.962220	0.301217	1.139393
C538	C	0.325796	-0.337080	0.518269
C539	C	0.659129	-0.003746	0.851603
C540	C	0.992463	0.329587	1.184936
H541	H	0.334730	-0.296699	0.493541
H542	H	0.668063	0.036634	0.826874
H543	H	1.001397	0.369967	1.160207
H544	H	0.363903	-0.358667	0.527658
H545	H	0.697237	-0.025333	0.860991
H546	H	1.030570	0.308000	1.194325
H547	H	0.303211	-0.332933	0.570436
H548	H	0.636544	0.000400	0.903769
H549	H	0.969877	0.333734	1.237103
H550	H	0.655172	-0.807679	0.212428
H551	H	0.988505	-0.474346	0.545761
H552	H	1.321838	-0.141012	0.879095
H553	H	0.835674	-0.715906	0.466007
H554	H	1.169007	-0.382573	0.799341
H555	H	1.502341	-0.049240	1.132674
O556	O	0.808729	-0.961781	0.428160
O557	O	1.142063	-0.628448	0.761493
O558	O	1.475396	-0.295114	1.094826
C559	C	0.837054	-0.998732	0.467918
C560	C	1.170388	-0.665399	0.801252
C561	C	1.503721	-0.332066	1.134585
H562	H	0.815577	-1.037743	0.470324
H563	H	1.148911	-0.704409	0.803657
H564	H	1.482244	-0.371076	1.136990
H565	H	0.840944	-0.984580	0.523379
H566	H	1.174277	-0.651247	0.856712
H567	H	1.507611	-0.317914	1.190045
H568	H	0.877546	-1.003753	0.442205
H569	H	1.210879	-0.670420	0.775538
H570	H	1.544212	-0.337087	1.108872
H571	H	0.687186	-0.557815	0.257403
H572	H	1.020519	-0.224482	0.590736
H573	H	1.353852	0.108852	0.924069
H574	H	0.687159	-0.458748	0.257382
H575	H	1.020492	-0.125415	0.590715
H576	H	1.353826	0.207918	0.924048
O577	O	0.803561	-0.203912	0.602205
O578	O	1.136894	0.129421	0.935538
O579	O	1.470228	0.462755	1.268871
C580	C	0.831665	-0.175845	0.650434
C581	C	1.164998	0.157488	0.983768
C582	C	1.498331	0.490822	1.317101
H583	H	0.808690	-0.175587	0.702820
H584	H	1.142024	0.157747	1.036153
H585	H	1.475357	0.491080	1.369486
H586	H	0.837900	-0.134022	0.629223
H587	H	1.171233	0.199311	0.962557
H588	H	1.504566	0.532645	1.295890
H589	H	0.871128	-0.195230	0.658259
H590	H	1.204462	0.138104	0.991592
H591	H	1.537795	0.471437	1.324926
