data_functionalizedCrystal
_audit_creation_method	'MofGen! by Chris Wilmer'
_symmetry_space_group_name_H-M	'P1'
_symmetry_Int_Tables_number	1
_symmetry_cell_setting	triclinic
loop_
_symmetry_equiv_pos_as_xyz
  x,y,z
_cell_length_a	14.908571
_cell_length_b	18.101395
_cell_length_c	14.908694
_cell_angle_alpha	93.269480
_cell_angle_beta	83.592472
_cell_angle_gamma	86.727274
loop_
_atom_site_label
_atom_site_type_symbol
_atom_site_fract_x
_atom_site_fract_y
_atom_site_fract_z
Zn1	Zn	1.413252	-0.389879	-0.591502
Zn2	Zn	1.404393	-0.506142	-0.440135
Zn3	Zn	1.253157	-0.374732	-0.431437
Zn4	Zn	1.261825	-0.506085	-0.582733
O5	O	1.333157	-0.444210	-0.511452
O6	O	1.538742	-0.411665	-0.578732
O7	O	1.376996	-0.482395	-0.312316
O8	O	1.274474	-0.273114	-0.452700
O9	O	1.532234	-0.497083	-0.467524
O10	O	1.392095	-0.284242	-0.570298
O11	O	1.265884	-0.385849	-0.305926
O12	O	1.127641	-0.385793	-0.444197
O13	O	1.289247	-0.496985	-0.710562
O14	O	1.134010	-0.482297	-0.555354
O15	O	1.400499	-0.411609	-0.717004
O16	O	1.385401	-0.609762	-0.459022
O17	O	1.280657	-0.609720	-0.563788
C18	C	1.097983	-0.432396	-0.497881
C19	C	0.997375	-0.427361	-0.492097
C20	C	0.814994	-0.518528	-0.596819
C21	C	0.720465	-0.513800	-0.591388
C22	C	0.713786	-0.413172	-0.475807
C23	C	0.808315	-0.417901	-0.481238
C24	C	0.858916	-0.470581	-0.541746
C25	C	0.953447	-0.475313	-0.547172
C26	C	0.946767	-0.374682	-0.431597
C27	C	0.852237	-0.369954	-0.426165
C28	C	1.333034	-0.636613	-0.511418
C29	C	1.333066	-0.718929	-0.511439
C30	C	1.333267	-1.018033	-0.511499
C31	C	1.267537	-0.986729	-0.577598
C32	C	1.267193	-0.901083	-0.577360
C33	C	1.333168	-0.869644	-0.511470
C34	C	1.301840	-0.894723	-0.414588
C35	C	1.301414	-0.980366	-0.414981
C36	C	1.430430	-0.992404	-0.541452
C37	C	1.429987	-0.906829	-0.543511
C38	C	1.333112	-0.785781	-0.511448
C39	C	1.333320	-1.101895	-0.511515
C40	C	1.569249	-0.456070	-0.525076
C41	C	1.669857	-0.461124	-0.530882
C42	C	1.346828	-0.455980	-0.747544
C43	C	1.352654	-0.460996	-0.848153
C44	C	1.333306	-0.251057	-0.511507
C45	C	1.333369	-0.168747	-0.511530
C46	C	1.247879	-0.369889	-1.030553
C47	C	1.253350	-0.374600	-1.125084
C48	C	1.369061	-0.475131	-1.131746
C49	C	1.363591	-0.470420	-1.037215
C50	C	1.302998	-0.417797	-0.986622
C51	C	1.297533	-0.413084	-0.892090
C52	C	1.413239	-0.513618	-0.898754
C53	C	1.418710	-0.518328	-0.993284
C54	C	1.319590	-0.432434	-0.276281
C55	C	1.313940	-0.427218	-0.175683
H56	H	0.672571	-0.370278	-0.426551
H57	H	1.196073	-1.003976	-0.557552
H58	H	0.982538	-0.335642	-0.386750
Cl59	Cl	1.482537	-0.573847	-0.843521
H60	H	1.287628	-1.011632	-0.649483
H61	H	1.248199	-0.370232	-0.850899
H62	H	1.481992	-0.885792	-0.499316
H63	H	1.195285	-0.876288	-0.557085
H64	H	0.811025	-0.327061	-0.376904
Cl65	Cl	1.191504	-1.004293	-0.376798
H66	H	1.453512	-0.890959	-0.614838
H67	H	1.347966	-0.874134	-0.363755
Cl68	Cl	1.506148	-1.023762	-0.467243
Cl69	Cl	1.298434	-0.875278	-0.688006
H70	H	1.198551	-0.327035	-0.989360
H71	H	1.457919	-1.018557	-0.611184
Cl72	Cl	1.017058	-0.541540	-0.623235
Cl73	Cl	0.878609	-0.584760	-0.672873
H74	H	0.684707	-0.552842	-0.636236
Cl75	Cl	1.494875	-0.584481	-1.056895
H76	H	1.346914	-1.000817	-0.363757
Cl77	Cl	1.193038	-0.854719	-0.375895
Cl78	Cl	1.445215	-0.541289	-1.195363
H79	H	1.208466	-0.335588	-1.160848
