data_functionalizedCrystal
_audit_creation_method	'MofGen! by Chris Wilmer'
_symmetry_space_group_name_H-M	'P1'
_symmetry_Int_Tables_number	1
_symmetry_cell_setting	triclinic
loop_
_symmetry_equiv_pos_as_xyz
  x,y,z
_cell_length_a	16.992694
_cell_length_b	23.532357
_cell_length_c	15.455313
_cell_angle_alpha	92.642146
_cell_angle_beta	87.142206
_cell_angle_gamma	86.748258
loop_
_atom_site_label
_atom_site_type_symbol
_atom_site_fract_x
_atom_site_fract_y
_atom_site_fract_z
O1	O	1.042872	0.118386	-0.072039
O2	O	1.542872	0.618386	0.427961
O3	O	0.814599	0.117060	-0.072065
O4	O	1.314599	0.617060	0.427935
O5	O	0.935639	0.035133	-0.072034
O6	O	1.435639	0.535133	0.427966
O7	O	0.921833	0.200314	-0.072071
O8	O	1.421833	0.700314	0.427929
O9	O	0.928717	0.039797	0.072227
O10	O	1.428717	0.539797	0.572227
O11	O	0.807678	0.121725	0.072196
O12	O	1.307678	0.621725	0.572196
O13	O	1.035951	0.123050	0.072221
O14	O	1.535951	0.623050	0.572221
Cu15	Cu	0.921182	0.122813	0.085380
Cu16	Cu	1.421182	0.622813	0.585380
Cu17	Cu	0.929368	0.117297	-0.085224
Cu18	Cu	1.429368	0.617297	0.414776
O19	O	0.914911	0.204978	0.072190
O20	O	1.414911	0.704978	0.572190
C21	C	0.781940	0.117689	0.000062
C22	C	1.281940	0.617689	0.500062
C23	C	0.694937	0.112605	0.000053
C24	C	1.194937	0.612605	0.500053
C25	C	0.644303	0.161652	0.000043
C26	C	1.144303	0.661652	0.500043
C27	C	0.562554	0.156873	0.000056
C28	C	1.062554	0.656873	0.500056
C29	C	0.531441	0.103046	0.000073
C30	C	1.031441	0.603046	0.500073
C31	C	0.582081	0.053996	0.000086
C32	C	1.082081	0.553996	0.500086
C33	C	0.663828	0.058776	0.000080
C34	C	1.163828	0.558776	0.500080
C35	C	0.288001	0.083235	0.000101
C36	C	0.788001	0.583235	0.500101
C37	C	0.206248	0.078458	0.000105
C38	C	0.706248	0.578458	0.500105
C39	C	0.186726	0.181336	0.000077
C40	C	0.686726	0.681336	0.500077
C41	C	0.268475	0.186111	0.000065
C42	C	0.768475	0.686111	0.500065
C43	C	0.319108	0.137061	0.000082
C44	C	0.819108	0.637061	0.500082
N45	N	0.447881	0.098159	0.000084
N46	N	0.947881	0.598159	0.500084
N47	N	0.402667	0.141948	0.000078
N48	N	0.902667	0.641948	0.500078
C49	C	0.931833	0.016231	0.000099
C50	C	1.431833	0.516231	0.500099
C51	C	0.930794	-0.047039	0.000107
C52	C	1.430794	0.452961	0.500107
C53	C	0.928050	-0.441918	-0.078577
C54	C	1.428050	0.058082	0.421423
C55	C	0.927063	-0.501366	-0.078582
C56	C	1.427063	-0.001366	0.421418
O57	O	0.929735	-0.534272	-0.145459
O58	O	1.429735	-0.034272	0.354541
N59	N	0.922801	-0.528559	0.000054
N60	N	1.422801	-0.028559	0.500054
C61	C	0.919517	-0.496300	0.078699
C62	C	1.419517	0.003700	0.578699
O63	O	0.915800	-0.524888	0.145584
O64	O	1.415800	-0.024888	0.645584
C65	C	0.920498	-0.436852	0.078703
C66	C	1.420498	0.063148	0.578703
C67	C	0.924769	-0.409663	0.000063
C68	C	1.424769	0.090337	0.500063
C69	C	0.932319	-0.414728	-0.157210
C70	C	1.432319	0.085272	0.342790
C71	C	0.933308	-0.355284	-0.157205
C72	C	1.433308	0.144716	0.342795
C73	C	0.930027	-0.323029	-0.078566
C74	C	1.430027	0.176971	0.421434
C75	C	0.925757	-0.350218	0.000068
C76	C	1.425757	0.149782	0.500068
C77	C	0.917209	-0.404594	0.157348
C78	C	1.417209	0.095406	0.657348
C79	C	0.918190	-0.345142	0.157345
C80	C	1.418190	0.154858	0.657345
C81	C	0.922461	-0.317953	0.078705
C82	C	1.422461	0.182047	0.578705
C83	C	0.923464	-0.258519	0.078713
C84	C	1.423464	0.241481	0.578713
N85	N	0.927727	-0.231326	0.000078
N86	N	1.427727	0.268674	0.500078
C87	C	0.931008	-0.263581	-0.078562
C88	C	1.431008	0.236419	0.421438
C89	C	0.917455	-0.621144	0.078684
C90	C	1.417455	-0.121144	0.578684
C91	C	0.916480	-0.680591	0.078681
C92	C	1.416480	-0.180591	0.578681
C93	C	0.924024	-0.685653	-0.078600
C94	C	1.424024	-0.185653	0.421400
C95	C	0.925006	-0.626206	-0.078596
C96	C	1.425006	-0.126206	0.421404
C97	C	0.921718	-0.593951	0.000049
C98	C	1.421718	-0.093951	0.500049
C99	C	0.933084	-0.138743	-0.078544
C100	C	1.433084	0.361257	0.421456
C101	C	0.934075	-0.079294	-0.078532
C102	C	1.434075	0.420706	0.421468
C103	C	0.926526	-0.074236	0.078748
C104	C	1.426526	0.425764	0.578748
C105	C	0.925539	-0.133681	0.078737
C106	C	1.425539	0.366319	0.578737
C107	C	0.928816	-0.165933	0.000083
C108	C	1.428816	0.334067	0.500083
O109	O	0.920792	-0.225577	0.145556
O110	O	1.420792	0.274423	0.645556
O111	O	0.934714	-0.234984	-0.145435
O112	O	1.434714	0.265016	0.354565
C113	C	1.068611	0.122422	0.000092
C114	C	1.568611	0.622422	0.500092
C115	C	1.155614	0.127505	0.000095
C116	C	1.655614	0.627505	0.500095
C117	C	0.918717	0.223879	0.000055
C118	C	1.418717	0.723879	0.500055
C119	C	0.919757	0.287149	0.000041
C120	C	1.419757	0.787149	0.500041
N121	N	0.915431	0.126693	0.205374
N122	N	1.415431	0.626693	0.705374
N123	N	0.935125	0.113413	-0.205218
N124	N	1.435125	0.613413	0.294782
C125	C	0.966871	0.091902	0.250782
C126	C	1.466871	0.591902	0.750782
C127	C	0.962528	0.094841	0.341589
C128	C	1.462528	0.594841	0.841589
C129	C	0.906749	0.132576	0.386986
C130	C	1.406749	0.632576	0.886986
C131	C	0.855304	0.167368	0.341572
C132	C	1.355304	0.667368	0.841572
C133	C	0.859643	0.164425	0.250767
C134	C	1.359643	0.664425	0.750767
C135	C	0.888020	0.145263	0.658563
C136	C	1.388020	0.645263	1.158563
C137	C	0.883686	0.148205	0.749374
C138	C	1.383686	0.648205	1.249374
C139	C	0.990909	0.075676	0.749384
C140	C	1.490909	0.575676	1.249384
C141	C	0.995247	0.072739	0.658577
C142	C	1.495247	0.572739	1.158577
C143	C	0.943799	0.107530	0.613171
C144	C	1.443799	0.607530	1.113171
N145	N	0.902311	0.135583	0.479805
N146	N	1.402311	0.635583	0.979805
N147	N	0.948234	0.104520	0.520354
N148	N	1.448234	0.604520	1.020354
H149	H	0.145492	0.221269	0.000064
H150	H	0.645492	0.721269	0.500064
Br151	Br	0.779597	0.218576	0.403180
Br152	Br	1.279597	0.718576	0.903180
H153	H	0.923858	-0.047964	0.142774
H154	H	1.423858	0.452036	0.642774
Br155	Br	0.913726	-0.301372	0.264084
Br156	Br	1.413726	0.198628	0.764084
Br157	Br	0.539858	-0.019055	0.000118
Br158	Br	1.039858	0.480945	0.500118
Br159	Br	0.789824	0.211641	0.189143
Br160	Br	1.289824	0.711641	0.689143
Br161	Br	1.070950	0.021531	0.596965
Br162	Br	1.570950	0.521531	1.096965
H163	H	0.838262	0.178935	0.786333
H164	H	1.338262	0.678935	1.286333
Br165	Br	0.164023	0.005404	0.000147
Br166	Br	0.664023	0.505404	0.500147
H167	H	0.329217	0.043295	0.000116
H168	H	0.829217	0.543295	0.500116
H169	H	0.705055	0.018837	0.000087
H170	H	1.205055	0.518837	0.500087
Br171	Br	1.060726	0.028462	0.811009
Br172	Br	1.560726	0.528462	1.311009
H173	H	0.937554	-0.057159	-0.142573
H174	H	1.437554	0.442841	0.357427
Br175	Br	0.818201	0.192479	0.596945
Br176	Br	1.318201	0.692479	1.096945
Br177	Br	0.937530	-0.182505	-0.185289
Br178	Br	1.437530	0.317495	0.314711
H179	H	0.936782	-0.333151	-0.221242
H180	H	1.436782	0.166849	0.278758
Br181	Br	0.936772	-0.458492	-0.263950
Br182	Br	1.436772	0.041508	0.236050
Br183	Br	0.910703	-0.717484	0.185411
Br184	Br	1.410703	-0.217484	0.685411
H185	H	0.669628	0.205483	0.000029
H186	H	1.169628	0.705483	0.500029
H187	H	1.004414	0.066511	0.378559
H188	H	1.504414	0.566511	0.878559
H189	H	0.521330	0.196812	0.000047
H190	H	1.021330	0.696812	0.500047
H191	H	0.928482	-0.604072	-0.142632
H192	H	1.428482	-0.104072	0.357368
H193	H	0.914780	-0.594886	0.142730
H194	H	1.414780	-0.094886	0.642730
Br195	Br	0.310694	0.259164	0.000032
Br196	Br	0.810694	0.759164	0.500032
H197	H	0.926693	-0.711926	-0.142632
H198	H	1.426693	-0.211926	0.357368
Br199	Br	0.911410	-0.441478	0.264081
Br200	Br	1.411410	0.058522	0.764081
H201	H	0.922069	-0.155820	0.142772
H202	H	1.422069	0.344180	0.642772
H203	H	1.012295	0.061177	0.213825
H204	H	1.512295	0.561177	0.713825
