data_functionalizedCrystal
_audit_creation_method	'MofGen! by Chris Wilmer'
_symmetry_space_group_name_H-M	'P1'
_symmetry_Int_Tables_number	1
_symmetry_cell_setting	triclinic
loop_
_symmetry_equiv_pos_as_xyz
  x,y,z
_cell_length_a	12.759401
_cell_length_b	18.215405
_cell_length_c	12.759393
_cell_angle_alpha	89.963505
_cell_angle_beta	89.979062
_cell_angle_gamma	90.026410
loop_
_atom_site_label
_atom_site_type_symbol
_atom_site_fract_x
_atom_site_fract_y
_atom_site_fract_z
Zn1	Zn	1.606192	-0.292919	-0.593976
Zn2	Zn	1.606052	-0.416003	-0.418278
Zn3	Zn	1.430491	-0.292958	-0.418311
Zn4	Zn	1.430451	-0.415951	-0.593915
O5	O	1.518296	-0.354458	-0.506120
O6	O	1.753194	-0.309251	-0.570681
O7	O	1.582721	-0.399719	-0.271261
O8	O	1.453873	-0.189968	-0.441653
O9	O	1.753091	-0.399681	-0.441596
O10	O	1.582960	-0.189940	-0.570714
O11	O	1.453737	-0.309318	-0.271286
O12	O	1.283465	-0.309268	-0.441594
O13	O	1.453806	-0.399593	-0.740944
O14	O	1.283436	-0.399631	-0.570609
O15	O	1.582922	-0.309201	-0.740989
O16	O	1.582683	-0.518980	-0.441537
O17	O	1.453670	-0.518942	-0.570577
C18	C	1.245329	-0.354449	-0.506099
C19	C	1.128552	-0.354463	-0.506115
C20	C	1.073703	-0.401586	-0.573188
C21	C	0.963979	-0.401589	-0.573209
C22	C	0.963964	-0.307343	-0.439076
C23	C	1.073686	-0.307337	-0.439061
C24	C	1.518186	-0.545664	-0.506070
C25	C	1.518234	-0.627463	-0.506083
C26	C	1.585569	-0.815652	-0.439016
C27	C	1.585616	-0.892511	-0.439041
C28	C	1.451158	-0.892511	-0.573300
C29	C	1.451118	-0.815654	-0.573279
C30	C	1.518321	-0.777226	-0.506131
C31	C	1.518409	-0.930942	-0.506178
C32	C	1.518460	-1.014276	-0.506206
C33	C	1.518272	-0.693887	-0.506104
C34	C	1.792330	-0.354467	-0.506142
C35	C	1.909106	-0.354471	-0.506151
C36	C	1.518375	-0.354387	-0.780154
C37	C	1.518409	-0.354357	-0.896930
C38	C	1.518437	-0.162505	-0.506194
C39	C	1.518496	-0.080706	-0.506225
C40	C	1.585644	-0.307283	-0.951818
C41	C	1.585662	-0.307251	-1.061542
C42	C	1.451206	-0.401374	-1.061482
C43	C	1.451183	-0.401402	-0.951760
C44	C	1.518279	-0.354475	-0.233153
C45	C	1.518449	-0.354298	-0.116377
H46	H	0.919325	-0.439960	-0.627827
H47	H	1.118372	-0.439957	-0.627791
O48	O	1.385987	-0.929810	-0.638669
C49	C	1.408861	-0.910943	-0.743396
H50	H	1.492779	-0.889763	-0.748775
H51	H	1.399808	-0.961464	-0.795305
H52	H	1.352494	-0.866348	-0.770796
O53	O	1.127021	-0.261481	-0.374051
C54	C	1.190563	-0.214010	-0.433985
H55	H	1.157537	-0.209535	-0.516746
H56	H	1.191825	-0.157342	-0.396135
H57	H	1.273707	-0.236765	-0.437537
H58	H	1.396356	-0.784366	-0.627938
H59	H	1.640377	-0.923793	-0.384391
H60	H	1.396476	-0.439678	-1.106138
O61	O	1.650926	-0.261421	-1.114740
C62	C	1.628001	-0.188079	-1.087965
H63	H	1.587597	-0.186576	-1.008294
H64	H	1.703851	-0.155086	-1.084231
H65	H	1.574019	-0.163268	-1.149717
O66	O	1.650756	-0.778209	-0.373832
C67	C	1.636321	-0.702132	-0.388219
H68	H	1.555215	-0.691661	-0.422546
H69	H	1.643480	-0.672965	-0.309521
H70	H	1.698594	-0.680253	-0.444222
O71	O	1.385835	-0.447203	-0.898598
C72	C	1.326493	-0.488712	-0.970517
H73	H	1.369537	-0.491246	-1.048739
H74	H	1.315236	-0.546702	-0.938785
H75	H	1.246723	-0.461756	-0.982183
H76	H	1.640381	-0.268974	-0.907179
O77	O	0.910501	-0.261638	-0.373974
C78	C	0.801895	-0.271733	-0.388387
H79	H	0.786894	-0.328559	-0.422642
H80	H	0.760158	-0.266672	-0.309710
H81	H	0.770812	-0.228132	-0.444459
