data_functionalizedCrystal
_audit_creation_method	'MofGen! by Chris Wilmer'
_symmetry_space_group_name_H-M	'P1'
_symmetry_Int_Tables_number	1
_symmetry_cell_setting	triclinic
loop_
_symmetry_equiv_pos_as_xyz
  x,y,z
_cell_length_a	18.101395
_cell_length_b	18.101398
_cell_length_c	18.101389
_cell_angle_alpha	89.975673
_cell_angle_beta	90.016841
_cell_angle_gamma	89.973629
loop_
_atom_site_label
_atom_site_type_symbol
_atom_site_fract_x
_atom_site_fract_y
_atom_site_fract_z
Zn1	Zn	-0.295001	-1.132121	0.418847
Zn2	Zn	-0.418826	-1.132017	0.295009
Zn3	Zn	-0.294993	-1.008280	0.295008
Zn4	Zn	-0.418795	-1.008231	0.418797
O5	O	-0.356904	-1.070162	0.356915
O6	O	-0.311443	-1.235740	0.402440
O7	O	-0.402410	-1.115580	0.191376
O8	O	-0.191361	-1.024772	0.311456
O9	O	-0.402417	-1.235664	0.311457
O10	O	-0.191367	-1.115757	0.402440
O11	O	-0.311430	-1.024671	0.191375
O12	O	-0.311399	-0.904641	0.311408
O13	O	-0.402363	-1.024688	0.522437
O14	O	-0.402356	-0.904604	0.402355
O15	O	-0.311412	-1.115710	0.522473
O16	O	-0.522455	-1.115532	0.311409
O17	O	-0.522432	-1.024587	0.402356
C18	C	-0.356874	-0.877752	0.356877
C19	C	-0.356879	-0.795437	0.356878
C20	C	-0.549314	-1.070063	0.356893
C21	C	-0.631628	-1.070088	0.356909
C22	C	-0.356885	-1.070205	0.550077
C23	C	-0.356877	-1.070223	0.632391
C24	C	-0.930719	-1.070251	0.356949
C25	C	-0.899410	-1.013163	0.414312
C26	C	-0.813792	-1.012892	0.414133
C27	C	-0.782337	-1.070170	0.356930
C28	C	-0.813472	-1.049041	0.278878
C29	C	-0.899117	-1.048673	0.279221
C30	C	-0.899073	-1.148593	0.376950
C31	C	-0.813422	-1.148132	0.378661
C32	C	-0.698477	-1.070126	0.356914
C33	C	-1.014579	-1.070293	0.356959
C34	C	-0.163742	-1.070282	0.356953
C35	C	-0.081428	-1.070333	0.356970
C36	C	-0.356934	-1.263324	0.356954
C37	C	-0.356948	-1.345638	0.356971
C38	C	-0.356925	-0.496347	0.356940
C39	C	-0.299412	-0.527670	0.299997
C40	C	-0.299566	-0.613288	0.299754
C41	C	-0.356901	-0.644729	0.356909
C42	C	-0.434909	-0.613611	0.335587
C43	C	-0.434590	-0.527966	0.335191
C44	C	-0.337109	-0.527961	0.435339
C45	C	-0.335371	-0.613612	0.434911
C46	C	-0.356893	-0.728589	0.356893
C47	C	-0.356939	-0.412487	0.356954
C48	C	-0.356869	-1.070162	0.164505
C49	C	-0.356668	-1.070287	0.082191
C50	C	-0.356738	-1.070266	0.931482
C51	C	-0.413780	-1.012801	0.900134
C52	C	-0.414045	-1.012956	0.814516
C53	C	-0.356807	-1.070244	0.783100
C54	C	-0.377998	-1.148270	0.814206
C55	C	-0.378372	-1.147949	0.899851
C56	C	-0.278379	-1.050385	0.899905
C57	C	-0.278832	-1.048649	0.814254
C58	C	-0.356845	-1.070237	0.699240
C59	C	-0.356702	-1.070279	1.015342
H60	H	-0.792740	-1.026111	0.472007
Cl61	Cl	-0.393514	-0.923197	0.931909
Cl62	Cl	-0.782244	-0.923237	0.393680
Cl63	Cl	-0.931155	-1.033365	0.503958
Cl64	Cl	-0.503710	-1.033264	0.782890
Cl65	Cl	-0.502843	-0.645041	0.397619
H66	H	-0.400784	-0.955097	0.793483
Cl67	Cl	-0.932742	-0.924056	0.394131
Cl68	Cl	-0.930054	-0.960257	0.253066
H69	H	-0.919830	-1.088449	0.235023
H70	H	-0.312363	-0.506120	0.242242
H71	H	-0.234076	-1.087450	0.792868
Cl72	Cl	-0.782003	-1.172736	0.467347
H73	H	-0.478892	-0.507244	0.374857
Cl74	Cl	-0.209824	-0.495911	0.320401
H75	H	-0.471508	-1.025796	0.921661
Cl76	Cl	-0.395338	-0.646653	0.503926
H77	H	-0.378999	-0.507705	0.477766
Cl78	Cl	-0.782017	-1.111215	0.211087
Cl79	Cl	-0.466810	-1.173969	0.930710
H80	H	-0.452008	-0.635026	0.278892
Cl81	Cl	-0.250812	-0.494660	0.465269
Cl82	Cl	-0.316972	-1.216255	0.931875
H83	H	-0.337757	-1.192236	0.793859
H84	H	-0.792080	-0.992380	0.261633
Cl85	Cl	-0.465497	-1.174744	0.781107
H86	H	-0.792007	-1.192915	0.339927
H87	H	-0.259074	-0.994478	0.921490
H88	H	-0.920633	-1.167856	0.432895
Cl89	Cl	-0.246749	-0.645034	0.459745
Cl90	Cl	-0.319786	-0.644872	0.210062
H91	H	-0.262852	-0.991229	0.793921
Cl92	Cl	-0.930346	-1.214263	0.312458
H93	H	-0.235880	-1.092240	0.920179
H94	H	-0.451397	-0.507954	0.277877
Cl95	Cl	-0.210254	-0.645776	0.320386
