data_functionalizedCrystal
_audit_creation_method	'MofGen! by Chris Wilmer'
_symmetry_space_group_name_H-M	'P1'
_symmetry_Int_Tables_number	1
_symmetry_cell_setting	triclinic
loop_
_symmetry_equiv_pos_as_xyz
  x,y,z
_cell_length_a	14.971486
_cell_length_b	10.654550
_cell_length_c	13.448316
_cell_angle_alpha	89.994587
_cell_angle_beta	89.998199
_cell_angle_gamma	84.049516
loop_
_atom_site_label
_atom_site_type_symbol
_atom_site_fract_x
_atom_site_fract_y
_atom_site_fract_z
O1	O	1.187838	0.163659	-0.082575
O2	O	0.927544	0.183258	-0.082602
O3	O	1.063676	-0.009345	-0.082584
O4	O	1.051707	0.356262	-0.082593
O5	O	1.063659	-0.009357	0.082800
O6	O	0.927527	0.183246	0.082782
O7	O	1.187821	0.163647	0.082809
Cu8	Cu	1.057672	0.173445	0.097896
Cu9	Cu	1.057693	0.173460	-0.097689
O10	O	1.051689	0.356250	0.082791
C11	C	0.894206	0.182375	0.000087
C12	C	0.794895	0.179749	0.000077
C13	C	1.062788	-0.056139	0.000107
C14	C	1.060159	-0.195555	0.000103
C15	C	0.738285	0.292898	0.000075
C16	C	0.644972	0.290422	0.000090
C17	C	0.608271	0.174797	0.000099
C18	C	0.664888	0.061639	0.000104
C19	C	0.758199	0.064116	0.000096
C20	C	0.470397	0.056485	0.000117
C21	C	0.377080	0.054007	0.000123
C22	C	0.357171	0.282791	0.000112
C23	C	0.450482	0.285268	0.000104
C24	C	0.507092	0.172110	0.000106
C25	C	1.140311	-0.275900	0.000114
C26	C	1.137835	-0.406894	0.000107
C27	C	0.975048	-0.377185	0.000081
C28	C	0.977525	-0.246193	0.000082
C29	C	1.222945	-0.225262	0.000136
C30	C	1.303104	-0.305609	0.000148
C31	C	1.300628	-0.436603	0.000141
C32	C	1.217993	-0.487250	0.000121
C33	C	1.221159	0.164530	0.000118
C34	C	1.320470	0.167156	0.000122
C35	C	1.052577	0.403044	0.000098
C36	C	1.055206	0.542460	0.000096
N37	N	1.057664	0.173435	0.235461
N38	N	1.057708	0.173460	-0.235253
C39	C	1.117962	0.088185	0.287509
C40	C	1.117968	0.088184	0.391612
C41	C	1.057679	0.173440	0.443665
C42	C	0.997375	0.258693	0.391610
C43	C	0.997365	0.258687	0.287509
C44	C	0.997400	0.258702	0.608590
C45	C	0.997410	0.258710	0.712698
C46	C	1.118002	0.088199	0.712694
C47	C	1.117993	0.088193	0.608592
C48	C	1.057689	0.173448	0.556544
H49	H	0.768160	0.387053	0.000067
N50	N	1.215311	-0.628535	0.000108
H51	H	1.246676	-0.665912	-0.061198
H52	H	1.246645	-0.665831	0.061458
N53	N	0.819264	-0.057920	0.000091
H54	H	0.858422	-0.061992	0.061398
H55	H	0.781796	-0.131476	0.000058
N56	N	0.337506	-0.070710	0.000154
H57	H	0.299237	-0.076822	0.061468
H58	H	0.299277	-0.076780	-0.061189
H59	H	0.634998	-0.032505	0.000125
H60	H	0.598884	0.382560	0.000088
H61	H	0.948291	0.328122	0.566216
H62	H	1.224970	-0.118601	0.000145
N63	N	1.392224	-0.250984	0.000171
H64	H	1.427365	-0.280291	0.061483
H65	H	1.427315	-0.280277	-0.061173
N66	N	1.387080	-0.523261	0.000160
H67	H	1.372976	-0.613929	0.000154
H68	H	1.423068	-0.506843	-0.061141
N69	N	1.182994	-0.003762	0.231369
H70	H	1.221192	-0.057768	0.280143
H71	H	1.148408	-0.059365	0.188188
N72	N	0.490058	0.409984	0.000094
H73	H	0.528333	0.416107	0.061398
H74	H	0.528281	0.416039	-0.061259
H75	H	0.907771	-0.418433	0.000067
N76	N	0.932346	0.350639	0.447755
H77	H	0.966871	0.406328	0.490933
H78	H	0.894157	0.404557	0.398924
N79	N	0.891086	-0.159506	0.000076
H80	H	0.855073	-0.175790	-0.061235
H81	H	0.855133	-0.175844	0.061422
H82	H	0.948264	0.328104	0.245132
H83	H	0.516488	-0.035661	0.000121
H84	H	1.167067	0.018767	0.433989
H85	H	1.167089	0.018778	0.566211
H86	H	1.167103	0.018781	0.755077
N87	N	0.932393	0.350657	0.768857
H88	H	0.943236	0.439814	0.750730
H89	H	0.868846	0.335935	0.750745
N90	N	0.296085	0.404813	0.000180
H91	H	0.307986	0.455209	0.061502
H92	H	0.307947	0.455219	-0.061154
