data_functionalizedCrystal
_audit_creation_method	'MofGen! by Chris Wilmer'
_symmetry_space_group_name_H-M	'P1'
_symmetry_Int_Tables_number	1
_symmetry_cell_setting	triclinic
loop_
_symmetry_equiv_pos_as_xyz
  x,y,z
_cell_length_a	23.096457
_cell_length_b	19.377369
_cell_length_c	19.377372
_cell_angle_alpha	62.058157
_cell_angle_beta	89.996910
_cell_angle_gamma	48.636862
loop_
_atom_site_label
_atom_site_type_symbol
_atom_site_fract_x
_atom_site_fract_y
_atom_site_fract_z
Zr1	Zr	0.453566	0.759493	0.055783
O2	O	0.319272	0.943905	-0.042135
O3	O	0.505673	0.607692	0.064441
O4	O	0.455834	0.806525	-0.072942
O5	O	0.395982	0.696599	0.227914
O6	O	0.551113	0.806529	-0.072946
O7	O	0.369111	0.745072	0.095248
O8	O	0.640266	0.450852	0.172807
O9	O	0.306829	1.052277	-0.017839
O10	O	0.585786	0.658054	0.093936
O11	O	0.534733	0.621877	0.192946
O12	O	0.476054	0.855978	0.031196
O13	O	0.425002	0.819801	0.130206
Zr14	Zr	0.648381	0.682191	0.267363
Zr15	Zr	0.605525	0.759499	0.055776
Zr16	Zr	0.496421	0.682185	0.267370
Zr17	Zr	0.433720	0.932333	0.094532
Zr18	Zr	0.668226	0.509351	0.228613
O19	O	0.596274	0.833992	0.258704
O20	O	0.535339	0.943914	-0.042145
O21	O	0.380207	0.833984	0.258714
O22	O	0.782674	0.497778	0.365281
O23	O	0.721739	0.607700	0.064431
O24	O	0.566608	0.497770	0.365291
O25	O	0.705965	0.745084	0.095232
O26	O	0.646113	0.635158	0.396087
O27	O	0.550833	0.635155	0.396091
O28	O	0.732836	0.696612	0.227898
O29	O	0.427616	1.052281	-0.017845
O30	O	0.674330	0.389402	0.340990
O31	O	0.795118	0.389407	0.340985
O32	O	0.761053	0.450856	0.172801
O33	O	0.340893	0.990827	0.150344
O34	O	0.461681	0.990832	0.150339
O35	O	0.625892	0.585706	0.291950
O36	O	0.676945	0.621882	0.192939
O37	O	0.567213	0.819807	0.130199
O38	O	0.516161	0.783630	0.229210
C39	C	0.575797	0.504646	0.113103
C40	C	0.584222	0.431271	0.096653
C41	C	0.479044	0.095118	0.301242
C42	C	0.487072	0.026055	0.285855
C43	C	0.540367	0.063830	0.182496
C44	C	0.532347	0.132894	0.197878
C45	C	0.501684	0.148533	0.257251
C46	C	0.554988	0.186308	0.153886
C47	C	0.546965	0.255370	0.169263
C48	C	0.516301	0.271018	0.228632
C49	C	0.493661	0.217595	0.272628
C50	C	0.585645	0.170674	0.094509
C51	C	0.608285	0.224089	0.050517
C52	C	0.600268	0.293146	0.065899
C53	C	0.569604	0.308794	0.125267
C54	C	0.622908	0.346569	0.021902
C55	C	0.614885	0.415632	0.037279
C56	C	0.561581	0.377856	0.140644
C57	C	0.360895	0.720835	0.161582
C58	C	0.296385	0.720832	0.161585
C59	C	0.323355	0.617524	0.194325
C60	C	0.262741	0.617521	0.194329
C61	C	0.175152	0.720838	0.161574
C62	C	0.148182	0.824159	0.128834
C63	C	0.208798	0.824156	0.128839
N64	N	0.028103	0.814419	0.091551
N65	N	-0.029477	0.814416	0.091546
C66	C	-0.007486	0.720853	0.161559
N67	N	0.074268	0.627280	0.231571
N68	N	0.131854	0.627282	0.231573
C69	C	0.109417	0.720853	0.161566
C70	C	-0.046236	0.617534	0.194307
C71	C	-0.106853	0.617534	0.194315
C72	C	-0.221414	0.824177	0.128810
C73	C	-0.160795	0.824172	0.128812
C74	C	-0.073209	0.720848	0.161557
C75	C	0.741051	0.720849	0.161564
C76	C	0.805562	0.720851	0.161561
C77	C	0.497367	0.817542	-0.103090
C78	C	0.479174	0.850361	-0.192915
C79	C	0.526150	0.937038	0.210042
C80	C	0.517725	1.010413	0.226492
C81	C	0.705707	0.441739	-0.324591
C82	C	0.688593	0.472605	-0.409003
C83	C	0.574042	0.679222	-0.474489
C84	C	0.591149	0.648374	-0.390081
C85	C	0.656982	0.529630	-0.315137
C86	C	0.542424	0.736265	-0.380627
C87	C	0.559527	0.705419	-0.296226
C88	C	0.625354	0.586681	-0.221279
C89	C	0.674085	0.498784	-0.230736
C90	C	0.476587	0.855008	-0.455572
C91	C	0.427862	0.942900	-0.446119
C92	C	0.444969	0.912054	-0.361717
C93	C	0.510796	0.793316	-0.286769
C94	C	0.396239	0.999951	-0.352260
C95	C	0.413341	0.969105	-0.267859
C96	C	0.527899	0.762470	-0.202368
C97	C	0.604579	0.624142	0.426236
C98	C	0.622772	0.591323	0.516060
C99	C	0.765875	0.504653	0.113094
C100	C	0.838810	0.431280	0.096641
C101	C	0.629403	0.407946	0.377766
C102	C	0.656021	0.301752	0.451140
C103	C	0.819481	0.407953	0.377757
C104	C	0.910609	0.301761	0.451128
C105	C	0.282466	1.033731	-0.054612
C106	C	0.191337	1.139923	-0.127983
C107	C	0.336072	0.937031	0.210051
C108	C	0.263136	1.010403	0.226504
C109	C	0.472544	1.033738	-0.054621
C110	C	0.445926	1.139932	-0.127995
C111	C	0.825476	0.415708	0.037227
C112	C	0.893996	0.346784	0.021749
C113	C	0.975851	0.293425	0.065692
C114	C	0.989184	0.309004	0.125110
C115	C	0.920663	0.377934	0.140581
C116	C	0.716107	0.232997	0.537285
C117	C	0.741115	0.133223	0.606238
C118	C	0.706041	0.102201	0.589043
C119	C	0.645948	0.170966	0.502890
C120	C	0.620936	0.270742	0.433940
C121	C	0.980060	0.270776	0.433902
C122	C	1.065688	0.171011	0.502836
C123	C	1.081865	0.102227	0.588994
C124	C	1.012406	0.133219	0.606221
C125	C	0.926779	0.232988	0.537288
C126	C	0.121886	1.170916	-0.110754
C127	C	0.036255	1.270703	-0.179683
C128	C	0.020078	1.339491	-0.265842
C129	C	0.089537	1.308494	-0.283069
C130	C	0.175165	1.208713	-0.214139
C131	C	0.276468	1.025986	0.285912
C132	C	0.207941	1.094938	0.301370
C133	C	0.126085	1.148300	0.257424
C134	C	0.112754	1.132717	0.198010
C135	C	0.181278	1.063772	0.182548
C136	C	0.481016	1.170921	-0.110773
C137	C	0.456022	1.270690	-0.179710
C138	C	0.395933	1.339472	-0.265866
C139	C	0.360843	1.308476	-0.283088
C140	C	0.385842	1.208704	-0.214153
H141	H	0.536613	0.390589	0.188992
N142	N	0.608135	0.137483	0.484355
H143	H	0.623346	0.122488	0.440666
H144	H	0.542628	0.203719	0.458903
N145	N	1.029865	0.059011	0.699149
H146	H	0.972879	0.093768	0.699612
H147	H	1.059571	0.057391	0.739106
H148	H	-0.292730	0.908301	0.102140
N149	N	-0.189883	0.935603	0.093482
H150	H	-0.215413	0.962622	0.128861
H151	H	-0.235505	0.998847	0.029454
H152	H	0.311916	1.364494	-0.353245
H153	H	0.647865	0.333836	-0.026446
H154	H	0.870236	0.258201	0.551326
N155	N	0.364748	0.968451	0.333304
H156	H	0.410038	0.880242	0.369803
H157	H	0.362704	0.988889	0.373229
H158	H	0.744673	0.258241	0.551303
N159	N	0.139322	1.096730	-0.017832
H160	H	0.082323	1.131522	-0.017390
H161	H	0.169031	1.095105	0.022127
N162	N	0.462663	-0.031572	0.333319
H163	H	0.472398	-0.077698	0.314571
H164	H	0.399201	0.030962	0.317964
N165	N	0.776724	0.313665	-0.243751
H166	H	0.750684	0.296251	-0.207261
H167	H	0.822036	0.296373	-0.207357
H168	H	0.931533	0.390600	0.188967
H169	H	0.883124	0.334110	-0.026632
N170	N	1.174221	-0.005396	0.663340
H171	H	1.179736	0.003740	0.709349
H172	H	1.215708	-0.014533	0.639277
H173	H	0.966904	0.326769	0.363752
H174	H	0.046097	1.176174	0.162234
H175	H	-0.020290	1.295921	-0.165640
H176	H	0.373662	1.040675	-0.260163
N177	N	0.741151	0.377809	-0.419207
H178	H	0.700909	0.386005	-0.452763
H179	H	0.785447	0.297951	-0.358895
N180	N	1.049751	0.219083	0.048999
H181	H	1.028876	0.217319	0.004692
H182	H	1.099646	0.136336	0.106201
N183	N	0.417818	0.506080	0.229644
H184	H	0.442374	0.442748	0.293664
H185	H	0.452065	0.521847	0.224622
N186	N	0.503045	0.807292	-0.555319
H187	H	0.445282	0.847097	-0.554943
H188	H	0.499677	0.813403	-0.610179
H189	H	-0.084882	0.533402	0.220983
N190	N	-0.072281	1.447109	-0.340183
H191	H	-0.113818	1.456295	-0.316188
H192	H	-0.077712	1.437895	-0.386160
H193	H	0.462664	0.880119	-0.524295
N194	N	0.805932	0.059065	0.699153
H195	H	0.824359	0.093856	0.699575
H196	H	0.858742	-0.023761	0.720909
H197	H	0.726415	0.020954	0.645195
N198	N	0.493878	1.304098	-0.161115
H199	H	0.478667	1.319082	-0.117422
H200	H	0.468922	1.377709	-0.217892
H201	H	0.186831	0.908283	0.102180
H202	H	0.572012	0.326713	0.363797
N203	N	0.072083	1.382691	-0.375998
H204	H	0.007297	1.450597	-0.417043
H205	H	0.103337	1.332903	-0.395629
H206	H	0.581511	0.665777	-0.141343
N207	N	0.291823	0.506091	0.229645
H208	H	0.356506	0.440637	0.250391
H209	H	0.259098	0.519765	0.181359
N210	N	1.140595	0.137595	0.484245
H211	H	1.117348	0.196306	0.419201
H212	H	1.181948	0.056415	0.501496
N213	N	0.356856	1.070968	-0.526951
H214	H	0.353413	1.077175	-0.581854
H215	H	0.370535	1.110690	-0.526501
N216	N	0.053713	0.935588	0.093512
H217	H	0.015944	0.958359	0.042344
H218	H	0.045902	1.000963	0.072822
H219	H	0.218813	1.107611	0.349752
H220	H	0.231712	1.183483	-0.228178
H221	H	0.375584	1.420710	-0.321990
N222	N	0.052181	1.222659	0.274106
H223	H	0.073056	1.224425	0.318412
H224	H	0.031746	1.187875	0.298110
N225	N	0.166885	1.046973	0.118472
H226	H	0.148877	1.008472	0.139180
H227	H	0.222730	0.995233	0.115360
H228	H	0.529943	1.114930	-0.040625
N229	N	0.507665	0.345484	0.245235
H230	H	0.484810	0.347280	0.289525
H231	H	0.465797	0.428211	0.188004
N232	N	0.048234	0.506099	0.229627
H233	H	0.056123	0.440648	0.250377
H234	H	0.085946	0.483438	0.280759
N235	N	0.347989	1.175288	-0.232734
H236	H	0.306130	1.234008	-0.297775
H237	H	0.315924	1.175325	-0.197285
H238	H	0.639274	0.561568	-0.152556
N239	N	0.594304	0.096181	0.077925
H240	H	0.636200	0.013417	0.135124
H241	H	0.617131	0.094479	0.033607
H242	H	0.454076	0.107851	0.349591
N243	N	0.460601	0.234457	0.336676
H244	H	0.447479	0.190135	0.362218
H245	H	0.405690	0.321002	0.304696
H246	H	0.565329	0.051092	0.134152
N247	N	0.641348	0.207218	-0.013522
H248	H	0.696283	0.120694	0.018405
H249	H	0.654422	0.251601	-0.039043
N250	N	0.639298	0.473253	-0.010169
H251	H	0.659942	0.452864	-0.050113
H252	H	0.687550	0.444020	0.034573
H253	H	0.342632	1.096631	-0.413290
N254	N	1.077478	0.251428	0.172514
H255	H	1.075539	0.271743	0.212507
H256	H	1.093258	0.280761	0.127749
H257	H	0.727696	0.402091	-0.169711
H258	H	0.758828	0.459158	0.001430
