data_functionalizedCrystal
_audit_creation_method	'MofGen! by Chris Wilmer'
_symmetry_space_group_name_H-M	'P1'
_symmetry_Int_Tables_number	1
_symmetry_cell_setting	triclinic
loop_
_symmetry_equiv_pos_as_xyz
  x,y,z
_cell_length_a	11.792241
_cell_length_b	12.837942
_cell_length_c	11.892095
_cell_angle_alpha	85.697431
_cell_angle_beta	93.921548
_cell_angle_gamma	89.511178
loop_
_atom_site_label
_atom_site_type_symbol
_atom_site_fract_x
_atom_site_fract_y
_atom_site_fract_z
O1	O	-1.527863	-0.135586	-0.093891
O2	O	-1.027863	0.364414	0.406109
O3	O	-1.199010	-0.150236	-0.093918
O4	O	-0.699010	0.349764	0.406082
O5	O	-1.356144	0.008033	-0.093898
O6	O	-0.856144	0.508033	0.406102
O7	O	-1.370729	-0.293854	-0.093911
O8	O	-0.870729	0.206146	0.406089
O9	O	-1.343041	-0.005143	0.094108
O10	O	-0.843041	0.494857	0.594108
O11	O	-1.185906	-0.163411	0.094088
O12	O	-0.685906	0.336589	0.594088
O13	O	-1.514760	-0.148761	0.094114
O14	O	-1.014760	0.351239	0.594114
Zn15	Zn	-1.348253	-0.158178	0.123951
Zn16	Zn	-0.848253	0.341822	0.623951
Zn17	Zn	-1.365517	-0.140819	-0.123755
Zn18	Zn	-0.865517	0.359181	0.376245
O19	O	-1.357626	-0.307030	0.094095
O20	O	-0.857626	0.192970	0.594095
C21	C	-1.150074	-0.155903	0.000082
C22	C	-0.650074	0.344097	0.500082
C23	C	-1.023782	-0.153148	0.000072
C24	C	-0.523782	0.346852	0.500072
C25	C	-1.563696	-0.143094	0.000112
C26	C	-1.063696	0.356906	0.500112
C27	C	-1.689989	-0.145849	0.000115
C28	C	-1.189989	0.354151	0.500115
C29	C	-1.344666	0.040093	0.000104
C30	C	-0.844666	0.540093	0.500104
C31	C	-1.329972	0.155253	0.000101
C32	C	-0.829972	0.655253	0.500101
C33	C	-0.792554	-0.148084	0.000105
C34	C	-0.292554	0.351916	0.500105
C35	C	-0.921226	-0.150898	0.000087
C36	C	-0.421226	0.349102	0.500087
C37	C	-1.369104	-0.339090	0.000091
C38	C	-0.869104	0.160910	0.500091
C39	C	-1.383798	-0.454249	0.000086
C40	C	-0.883798	0.045751	0.500086
N41	N	-1.336478	-0.170025	0.293004
N42	N	-0.836478	0.329975	0.793004
C43	C	-1.506619	0.395219	0.000091
C44	C	-1.006619	0.895219	0.500091
C45	C	-1.492818	0.503423	0.000088
C46	C	-0.992818	1.003423	0.500088
C47	C	-1.288572	0.479866	0.000084
C48	C	-0.788572	0.979866	0.500084
C49	C	-1.302373	0.371663	0.000087
C50	C	-0.802373	0.871663	0.500087
C51	C	-1.411399	0.329343	0.000092
C52	C	-0.911399	0.829343	0.500092
C53	C	-1.425198	0.221137	0.000103
C54	C	-0.925198	0.721137	0.500103
C55	C	-1.220954	0.197583	0.000091
C56	C	-0.720954	0.697583	0.500091
C57	C	-1.207153	0.305787	0.000088
C58	C	-0.707153	0.805787	0.500088
N59	N	-1.377300	-0.128964	-0.292807
N60	N	-0.877300	0.371036	0.207193
C61	C	-1.459226	-0.046469	0.529667
C62	C	-0.959226	0.453531	1.029667
C63	C	-1.451005	-0.054757	0.648008
C64	C	-0.951005	0.445243	1.148008
C65	C	-1.311809	-0.194885	0.648029
C66	C	-0.811809	0.305115	1.148029
C67	C	-1.320030	-0.186596	0.529688
C68	C	-0.820030	0.313404	1.029688
C69	C	-1.393742	-0.112387	0.470511
C70	C	-0.893742	0.387613	0.970511
C71	C	-1.401969	-0.104104	0.352168
C72	C	-0.901969	0.395896	0.852168
C73	C	-1.262768	-0.244226	0.352191
C74	C	-0.762768	0.255774	0.852191
C75	C	-1.254547	-0.252515	0.470532
C76	C	-0.754547	0.247485	0.970532
H77	H	-1.513973	0.186683	0.000112
H78	H	-1.013973	0.686683	0.500112
Cl79	Cl	-1.494637	-0.010816	0.277777
Cl80	Cl	-0.994637	0.489184	0.777777
Cl81	Cl	-1.219135	-0.288160	0.722434
Cl82	Cl	-0.719135	0.211840	1.222434
Cl83	Cl	-1.643674	0.342011	0.000126
Cl84	Cl	-1.143674	0.842011	0.500126
H85	H	-1.209450	-0.297904	0.304013
H86	H	-0.709450	0.202096	0.804013
H87	H	-1.570356	0.557056	0.000084
H88	H	-1.070356	1.057056	0.500084
H89	H	-1.118387	0.340259	0.000079
H90	H	-0.618387	0.840259	0.500079
H91	H	-1.199808	0.514343	0.000067
H92	H	-0.699808	1.014343	0.500067
Cl93	Cl	-1.101241	0.114760	0.000106
Cl94	Cl	-0.601241	0.614760	0.500106
H95	H	-1.519254	0.013949	0.481484
H96	H	-1.019254	0.513949	0.981484
H97	H	-1.504327	-0.001079	0.696169
H98	H	-1.004327	0.498921	1.196169
Cl99	Cl	-1.161882	-0.345800	0.544933
Cl100	Cl	-0.661882	0.154200	1.044933
