data_functionalizedCrystal
_audit_creation_method	'MofGen! by Chris Wilmer'
_symmetry_space_group_name_H-M	'P1'
_symmetry_Int_Tables_number	1
_symmetry_cell_setting	triclinic
loop_
_symmetry_equiv_pos_as_xyz
  x,y,z
_cell_length_a	10.723024
_cell_length_b	10.723024
_cell_length_c	15.186229
_cell_angle_alpha	89.997422
_cell_angle_beta	89.996943
_cell_angle_gamma	84.467869
loop_
_atom_site_label
_atom_site_type_symbol
_atom_site_fract_x
_atom_site_fract_y
_atom_site_fract_z
O1	O	1.657187	0.175026	-0.073220
O2	O	2.157187	0.675026	0.426780
O3	O	1.294034	0.191779	-0.073223
O4	O	1.794034	0.691779	0.426777
O5	O	1.483987	0.001826	-0.073219
O6	O	1.983987	0.501826	0.426781
O7	O	1.467234	0.364978	-0.073225
O8	O	1.967234	0.864978	0.426775
O9	O	1.483974	0.001823	0.073239
O10	O	1.983974	0.501823	0.573239
O11	O	1.294021	0.191776	0.073234
O12	O	1.794021	0.691776	0.573234
O13	O	1.657174	0.175023	0.073237
O14	O	2.157174	0.675023	0.573237
Zn15	Zn	1.475596	0.183399	0.096489
Zn16	Zn	1.975596	0.683399	0.596489
Zn17	Zn	1.475612	0.183403	-0.096475
Zn18	Zn	1.975612	0.683403	0.403525
O19	O	1.467221	0.364976	0.073232
O20	O	1.967221	0.864976	0.573232
C21	C	1.247528	0.190558	0.000005
C22	C	1.747528	0.690558	0.500005
C23	C	1.108974	0.186911	0.000004
C24	C	1.608974	0.686911	0.500004
C25	C	0.917217	0.073603	0.000004
C26	C	1.417217	0.573603	0.500004
C27	C	1.060420	0.077371	0.000006
C28	C	1.560420	0.577371	0.500006
C29	C	1.482762	-0.044675	0.000009
C30	C	1.982762	0.455325	0.500009
C31	C	1.479114	-0.183229	0.000006
C32	C	1.979114	0.316771	0.500006
C33	C	1.585401	-0.258212	0.000006
C34	C	2.085401	0.241788	0.500006
C35	C	1.581634	-0.401415	0.000002
C36	C	2.081634	0.098585	0.500002
C37	C	1.703680	0.176243	0.000007
C38	C	2.203680	0.676243	0.500007
C39	C	1.842234	0.179891	0.000002
C40	C	2.342234	0.679891	0.500002
C41	C	1.468447	0.411477	0.000003
C42	C	1.968447	0.911477	0.500003
C43	C	1.472094	0.550031	-0.000000
C44	C	1.972094	1.050031	0.500000
N45	N	1.475593	0.183396	0.228181
N46	N	1.975593	0.683396	0.728181
N47	N	1.475625	0.183396	-0.228168
N48	N	1.975625	0.683396	0.271832
C49	C	1.559733	0.099313	0.453906
C50	C	2.059733	0.599313	0.953906
C51	C	1.559737	0.099311	0.546096
C52	C	2.059737	0.599311	1.046096
C53	C	1.391475	0.267482	0.546101
C54	C	1.891475	0.767482	1.046101
C55	C	1.391466	0.267478	0.453913
C56	C	1.891466	0.767478	0.953913
C57	C	1.475602	0.183395	0.407818
C58	C	1.975602	0.683395	0.907818
C59	C	1.475615	0.183397	0.592196
C60	C	1.975615	0.683397	1.092196
C61	C	1.475619	0.183394	0.692152
C62	C	1.975619	0.683394	1.192152
C63	C	1.475598	0.183396	0.307855
C64	C	1.975598	0.683396	0.807855
H65	H	1.044549	0.277906	-0.000002
H66	H	1.544549	0.777906	0.499998
H67	H	1.679187	-0.216390	0.000012
H68	H	2.179187	0.283610	0.500012
F69	F	1.301914	0.356969	0.404858
F70	F	1.801914	0.856969	0.904858
F71	F	1.356524	-0.237887	-0.000003
F72	F	1.856524	0.262113	0.499997
F73	F	1.353153	-0.365762	0.000007
F74	F	1.853153	0.134238	0.500007
F75	F	0.862559	-0.048986	0.000012
F76	F	1.362559	0.451014	0.500012
F77	F	1.301939	0.356969	0.595164
F78	F	1.801939	0.856969	1.095164
H79	H	1.628240	0.030846	0.416378
H80	H	2.128240	0.530846	0.916378
F81	F	1.649278	0.009817	0.595144
F82	F	2.149278	0.509817	1.095144
H83	H	0.884056	0.273677	0.000006
H84	H	1.384056	0.773677	0.500006
F85	F	1.700570	-0.485629	0.000008
F86	F	2.200570	0.014371	0.500008
F87	F	1.144634	-0.041565	0.000002
F88	F	1.644634	0.458435	0.500002
