data_functionalizedCrystal
_audit_creation_method	'MofGen! by Chris Wilmer'
_symmetry_space_group_name_H-M	'P1'
_symmetry_Int_Tables_number	1
_symmetry_cell_setting	triclinic
loop_
_symmetry_equiv_pos_as_xyz
  x,y,z
_cell_length_a	10.654550
_cell_length_b	14.044220
_cell_length_c	9.130313
_cell_angle_alpha	89.997493
_cell_angle_beta	89.996220
_cell_angle_gamma	88.836890
loop_
_atom_site_label
_atom_site_type_symbol
_atom_site_fract_x
_atom_site_fract_y
_atom_site_fract_z
O1	O	1.681222	0.133227	-0.121925
O2	O	1.317019	0.145921	-0.121902
O3	O	1.493654	0.001554	-0.121899
O4	O	1.504587	0.277595	-0.121929
O5	O	1.493652	0.001557	0.121700
O6	O	1.317017	0.145925	0.121696
O7	O	1.681220	0.133231	0.121673
Cu8	Cu	1.499119	0.139578	0.143927
Cu9	Cu	1.499121	0.139574	-0.144156
O10	O	1.504585	0.277598	0.121670
C11	C	1.270127	0.144991	-0.000100
C12	C	1.130403	0.142202	-0.000091
C13	C	1.059459	0.227203	-0.000121
C14	C	0.928175	0.224578	-0.000146
C15	C	0.938790	0.051942	-0.000116
C16	C	1.070072	0.054569	-0.000081
C17	C	1.119790	0.314837	-0.000131
C18	C	1.048846	0.399845	-0.000163
C19	C	0.917561	0.397219	-0.000188
C20	C	0.857221	0.309585	-0.000181
C21	C	1.488867	-0.033790	-0.000099
C22	C	1.474592	-0.139110	-0.000096
C23	C	1.448493	-0.331943	-0.000116
C24	C	1.549741	-0.388911	-0.000126
C25	C	1.535219	-0.496210	-0.000137
C26	C	1.463013	-0.224634	-0.000105
C27	C	1.728113	0.134161	-0.000132
C28	C	1.867836	0.136950	-0.000151
C29	C	1.509372	0.312942	-0.000133
C30	C	1.523648	0.418262	-0.000146
N31	N	1.499126	0.139581	0.346550
N32	N	1.499122	0.139564	-0.346779
C33	C	1.577364	0.075677	0.423203
C34	C	1.577359	0.075666	0.576540
C35	C	1.420876	0.203470	0.576557
C36	C	1.420875	0.203477	0.423223
C37	C	1.655615	0.011782	0.346531
C38	C	1.733861	-0.052127	0.423184
C39	C	1.733856	-0.052138	0.576521
C40	C	1.655606	0.011759	0.653204
H41	H	1.226688	0.316985	-0.000117
O42	O	0.879979	-0.033098	-0.000188
C43	C	0.682433	-0.113651	-0.000155
C44	C	0.748872	-0.017277	-0.000101
H45	H	0.576423	-0.100893	-0.000054
H46	H	0.710797	-0.155716	-0.102114
H47	H	0.710908	-0.155699	0.101778
H48	H	0.720432	0.024848	-0.101966
H49	H	0.720507	0.024716	0.101924
O50	O	1.107654	0.484886	-0.000233
C51	C	1.305196	0.565445	-0.000127
C52	C	1.238761	0.469069	-0.000080
H53	H	1.411206	0.552689	0.000028
H54	H	1.276878	0.607503	-0.102109
H55	H	1.276672	0.607497	0.101783
H56	H	1.267251	0.426939	-0.101920
H57	H	1.267081	0.427083	0.101969
O58	O	1.666101	-0.350856	-0.000312
C59	C	1.812501	-0.251243	-0.126530
C60	C	1.680684	-0.294262	-0.126492
H61	H	1.824344	-0.205493	-0.228551
H62	H	1.824363	-0.205373	-0.024645
H63	H	1.886422	-0.311080	-0.126462
H64	H	1.606684	-0.234487	-0.126611
H65	H	1.668929	-0.340156	-0.228368
O66	O	1.139132	-0.027935	-0.000253
C67	C	1.293504	-0.125178	-0.126442
C68	C	1.215390	-0.031697	-0.126420
H69	H	1.355158	-0.128260	-0.228453
H70	H	1.355291	-0.128268	-0.024547
H71	H	1.227815	-0.188250	-0.126382
H72	H	1.280985	0.031427	-0.126532
H73	H	1.153589	-0.028690	-0.228306
O74	O	1.809724	-0.114343	0.348795
C75	C	1.864929	-0.278780	0.302022
C76	C	1.778914	-0.208413	0.386308
H77	H	1.840068	-0.354850	0.332343
H78	H	1.851510	-0.267903	0.179237
H79	H	1.966963	-0.265669	0.332165
H80	H	1.676848	-0.221481	0.356288
H81	H	1.792442	-0.219307	0.509073
H82	H	0.859801	0.466437	-0.000200
H83	H	1.655600	0.011738	0.778062
H84	H	1.350913	-0.363754	-0.000113
O85	O	1.809921	-0.114088	0.651146
C86	C	1.979346	-0.133079	0.824184
C87	C	1.893258	-0.062819	0.739793
H88	H	2.046763	-0.091656	0.895852
H89	H	1.919855	-0.180844	0.896068
H90	H	2.035209	-0.178763	0.743012
H91	H	1.837378	-0.017073	0.820860
H92	H	1.952819	-0.015120	0.667887
H93	H	0.750320	0.307454	-0.000179
O94	O	1.344692	0.265444	0.650979
C95	C	1.132396	0.319526	0.697861
C96	C	1.218525	0.249270	0.613514
H97	H	1.030375	0.306488	0.667578
H98	H	1.145730	0.308544	0.820636
H99	H	1.157339	0.395613	0.667732
H100	H	1.193637	0.173156	0.643520
H101	H	1.205178	0.260336	0.490759
H102	H	1.655629	0.011787	0.221676
H103	H	1.357165	0.255512	0.360811
