data_functionalizedCrystal
_audit_creation_method	'MofGen! by Chris Wilmer'
_symmetry_space_group_name_H-M	'P1'
_symmetry_Int_Tables_number	1
_symmetry_cell_setting	triclinic
loop_
_symmetry_equiv_pos_as_xyz
  x,y,z
_cell_length_a	19.188930
_cell_length_b	27.732048
_cell_length_c	17.666332
_cell_angle_alpha	89.988553
_cell_angle_beta	89.976766
_cell_angle_gamma	82.893716
loop_
_atom_site_label
_atom_site_type_symbol
_atom_site_fract_x
_atom_site_fract_y
_atom_site_fract_z
O1	O	0.925765	0.060348	-0.063200
O2	O	1.425765	0.560348	0.436800
O3	O	0.722402	0.068472	-0.063149
O4	O	1.222402	0.568472	0.436851
O5	O	0.830399	-0.005968	-0.063161
O6	O	1.330399	0.494032	0.436839
O7	O	0.817767	0.134787	-0.063187
O8	O	1.317767	0.634787	0.436813
O9	O	0.830380	-0.005971	0.062735
O10	O	1.330380	0.494029	0.562735
O11	O	0.722383	0.068468	0.062748
O12	O	1.222383	0.568468	0.562748
O13	O	0.925746	0.060344	0.062697
O14	O	1.425746	0.560344	0.562697
Cu15	Cu	0.824063	0.064406	0.074218
Cu16	Cu	1.324063	0.564406	0.574218
Cu17	Cu	0.824085	0.064410	-0.074670
Cu18	Cu	1.324085	0.564410	0.425330
O19	O	0.817748	0.134783	0.062710
O20	O	1.317748	0.634783	0.562710
C21	C	0.696383	0.068207	-0.000194
C22	C	1.196383	0.568207	0.499806
C23	C	0.618883	0.067417	-0.000174
C24	C	1.118883	0.567417	0.499826
C25	C	0.830125	-0.023977	-0.000211
C26	C	1.330125	0.476023	0.499789
C27	C	0.829326	-0.077635	-0.000204
C28	C	1.329326	0.422365	0.499796
C29	C	0.573681	0.111096	-0.000194
C30	C	1.073681	0.611096	0.499806
C31	C	0.500862	0.110354	-0.000202
C32	C	1.000862	0.610354	0.499798
C33	C	0.473249	0.065931	-0.000205
C34	C	0.973249	0.565931	0.499795
C35	C	0.518461	0.022246	-0.000181
C36	C	1.018461	0.522246	0.499819
C37	C	0.591278	0.022990	-0.000165
C38	C	1.091278	0.522990	0.499835
N39	N	0.365491	0.031976	-0.043078
N40	N	0.865491	0.531976	0.456922
N41	N	0.296317	0.031273	-0.043094
N42	N	0.796317	0.531273	0.456906
C43	C	0.253854	0.063689	-0.000251
C44	C	0.753854	0.563689	0.499749
N45	N	0.283177	0.096841	0.042600
N46	N	0.783177	0.596841	0.542600
N47	N	0.352357	0.097546	0.042613
N48	N	0.852357	0.597546	0.542613
C49	C	0.394291	0.065120	-0.000222
C50	C	0.894291	0.565120	0.499778
C51	C	0.129692	0.106566	-0.000279
C52	C	0.629692	0.606566	0.499721
C53	C	0.056872	0.105822	-0.000282
C54	C	0.556872	0.605822	0.499718
C55	C	0.074473	0.017714	-0.000269
C56	C	0.574473	0.517714	0.499731
C57	C	0.147292	0.018459	-0.000258
C58	C	0.647292	0.518459	0.499742
C59	C	0.174897	0.062886	-0.000267
C60	C	0.674897	0.562886	0.499733
C61	C	0.888119	-0.416270	-0.000258
C62	C	1.388119	0.083730	0.499742
C63	C	0.885157	-0.617939	-0.000268
C64	C	1.385157	-0.117939	0.499732
O65	O	0.938918	-0.649030	-0.000314
O66	O	1.438918	-0.149030	0.499686
N67	N	0.821118	-0.637258	-0.000251
N68	N	1.321118	-0.137258	0.499749
C69	C	0.757816	-0.606157	-0.000237
C70	C	1.257816	-0.106157	0.499763
O71	O	0.703280	-0.627217	-0.000231
O72	O	1.203280	-0.127217	0.499769
C73	C	0.760780	-0.404489	-0.000233
C74	C	1.260780	0.095511	0.499767
C75	C	0.824822	-0.385173	-0.000242
C76	C	1.324822	0.114827	0.499758
C77	C	0.952156	-0.396953	-0.000268
C78	C	1.452156	0.103047	0.499732
C79	C	0.952896	-0.346539	-0.000261
C80	C	1.452896	0.153461	0.499739
C81	C	0.889599	-0.315441	-0.000245
C82	C	1.389599	0.184559	0.499755
C83	C	0.825562	-0.334759	-0.000235
C84	C	1.325562	0.165241	0.499765
C85	C	0.697478	-0.373389	-0.000224
C86	C	1.197478	0.126611	0.499776
C87	C	0.698225	-0.322969	-0.000225
C88	C	1.198225	0.177031	0.499775
C89	C	0.762267	-0.303653	-0.000234
C90	C	1.262267	0.196347	0.499766
C91	C	0.763005	-0.253247	-0.000212
C92	C	1.263005	0.246753	0.499788
N93	N	0.827043	-0.233928	-0.000229
N94	N	1.327043	0.266072	0.499771
C95	C	0.890340	-0.265025	-0.000245
C96	C	1.390340	0.234975	0.499755
C97	C	0.756265	-0.712036	-0.000238
C98	C	1.256265	-0.212036	0.499762
C99	C	0.755524	-0.762452	-0.000238
C100	C	1.255524	-0.262452	0.499762
C101	C	0.882865	-0.774231	-0.000270
C102	C	1.382865	-0.274231	0.499730
C103	C	0.883605	-0.723813	-0.000265
C104	C	1.383605	-0.223813	0.499735
C105	C	0.820303	-0.692716	-0.000254
C106	C	1.320303	-0.192716	0.499746
C107	C	0.891889	-0.159151	-0.000231
C108	C	1.391889	0.340849	0.499769
C109	C	0.892623	-0.108732	-0.000221
C110	C	1.392623	0.391268	0.499779
C111	C	0.765283	-0.096958	-0.000193
C112	C	1.265283	0.403042	0.499807
C113	C	0.764549	-0.147373	-0.000198
C114	C	1.264549	0.352627	0.499802
C115	C	0.827857	-0.178468	-0.000220
C116	C	1.327857	0.321532	0.499780
O117	O	0.709272	-0.222127	-0.000174
O118	O	1.209272	0.277873	0.499826
O119	O	0.944868	-0.243956	-0.000268
O120	O	1.444868	0.256044	0.499732
C121	C	0.887379	-0.466684	-0.000265
C122	C	1.387379	0.033316	0.499735
C123	C	0.823342	-0.486001	-0.000255
C124	C	1.323342	0.013999	0.499745
C125	C	0.760045	-0.454904	-0.000238
C126	C	1.260045	0.045096	0.499762
C127	C	0.822601	-0.536418	-0.000254
C128	C	1.322601	-0.036418	0.499746
C129	C	0.885898	-0.567515	-0.000271
C130	C	1.385898	-0.067515	0.499729
C131	C	0.949936	-0.548195	-0.000288
C132	C	1.449936	-0.048195	0.499712
C133	C	0.950676	-0.497781	-0.000281
C134	C	1.450676	0.002219	0.499719
C135	C	0.696007	-0.474223	-0.000222
C136	C	1.196007	0.025777	0.499778
C137	C	0.695272	-0.524638	-0.000227
C138	C	1.195272	-0.024638	0.499773
C139	C	0.758569	-0.555735	-0.000244
C140	C	1.258569	-0.055735	0.499756
C141	C	0.951765	0.060609	-0.000260
C142	C	1.451765	0.560609	0.499740
C143	C	1.029264	0.061399	-0.000285
C144	C	1.529264	0.561399	0.499715
C145	C	0.818023	0.152793	-0.000243
C146	C	1.318023	0.652793	0.499757
C147	C	0.818821	0.206450	-0.000254
C148	C	1.318821	0.706450	0.499746
N149	N	0.824052	0.064402	0.178937
N150	N	1.324052	0.564402	0.678937
N151	N	0.824101	0.064410	-0.179389
N152	N	1.324101	0.564410	0.320611
C153	C	0.871889	0.031456	0.218541
C154	C	1.371889	0.531456	0.718541
C155	C	0.871893	0.031454	0.297789
C156	C	1.371893	0.531454	0.797789
C157	C	0.824067	0.064406	0.337429
C158	C	1.324067	0.564406	0.837429
C159	C	0.776221	0.097354	0.297816
C160	C	1.276221	0.597354	0.797816
C161	C	0.776214	0.097352	0.218570
C162	C	1.276214	0.597352	0.718570
N163	N	0.814718	0.107196	0.461842
N164	N	1.314718	0.607196	0.961842
N165	N	0.814729	0.107196	0.537122
N166	N	1.314729	0.607196	1.037122
C167	C	0.824085	0.064412	0.576193
C168	C	1.324085	0.564412	1.076193
N169	N	0.833444	0.021627	0.537140
N170	N	1.333444	0.521627	1.037140
N171	N	0.833436	0.021628	0.461853
N172	N	1.333436	0.521628	0.961853
C173	C	0.824069	0.064411	0.423359
C174	C	1.324069	0.564411	0.923359
C175	C	0.871929	0.031462	0.701727
C176	C	1.371929	0.531462	1.201727
C177	C	0.871928	0.031459	0.780976
C178	C	1.371928	0.531459	1.280976
C179	C	0.776260	0.097363	0.781001
C180	C	1.276260	0.597363	1.281001
C181	C	0.776257	0.097361	0.701754
C182	C	1.276257	0.597361	1.201754
C183	C	0.824096	0.064411	0.662121
C184	C	1.324096	0.564411	1.162121
H185	H	0.596152	0.147272	-0.000202
H186	H	1.096152	0.647272	0.499798
C187	C	0.446823	-0.029701	-0.064920
C188	C	0.946823	0.470299	0.435080
C189	C	0.488113	-0.026585	-0.000189
C190	C	0.988113	0.473415	0.499811
H191	H	0.428092	-0.059850	-0.064923
H192	H	0.928092	0.440150	0.435077
H193	H	0.409481	-0.003796	-0.064927
H194	H	0.909481	0.496204	0.435073
H195	H	0.474898	-0.027578	-0.108810
H196	H	0.974898	0.472422	0.391190
H197	H	0.460036	-0.028705	0.043701
H198	H	0.960036	0.471295	0.543701
H199	H	0.525460	-0.052497	-0.000175
H200	H	1.025460	0.447503	0.499825
H201	H	0.628083	-0.012580	-0.000150
H202	H	1.128083	0.487420	0.499850
H203	H	0.910840	0.004625	0.186275
H204	H	1.410840	0.504625	0.686275
C205	C	0.490771	0.197520	-0.000240
C206	C	0.990771	0.697520	0.499760
C207	C	0.451163	0.158368	-0.000234
C208	C	0.951163	0.658368	0.499766
H209	H	0.460089	0.227161	-0.000267
H210	H	0.960089	0.727161	0.499733
H211	H	0.519508	0.195983	0.043669
H212	H	1.019508	0.695983	0.543669
H213	H	0.519569	0.195971	-0.044137
H214	H	1.019569	0.695971	0.455863
H215	H	0.422368	0.159915	0.043665
H216	H	0.922368	0.659915	0.543665
H217	H	0.422414	0.159906	-0.044149
H218	H	0.922414	0.659906	0.455851
H219	H	0.643117	-0.540360	-0.000213
H220	H	1.143117	-0.040360	0.499787
C221	C	0.680822	-0.812304	-0.064938
C222	C	1.180822	-0.312304	0.435062
C223	C	0.685128	-0.783683	-0.000220
C224	C	1.185128	-0.283683	0.499780
H225	H	0.637363	-0.825411	-0.064926
H226	H	1.137363	-0.325411	0.435074
H227	H	0.683766	-0.792874	-0.108832
H228	H	1.183766	-0.292874	0.391168
H229	H	0.718414	-0.838042	-0.064938
H230	H	1.218414	-0.338042	0.435062
H231	H	0.647539	-0.757943	-0.000223
H232	H	1.147539	-0.257943	0.499777
H233	H	0.682177	-0.803113	0.043686
H234	H	1.182177	-0.303113	0.543686
H235	H	0.184097	-0.017109	-0.000246
H236	H	0.684097	0.482891	0.499754
C237	C	0.104984	0.193582	-0.000284
C238	C	0.604984	0.693582	0.499716
C239	C	0.160042	0.155399	-0.000276
C240	C	0.660042	0.655399	0.499724
H241	H	0.123720	0.223729	-0.000278
H242	H	0.623720	0.723729	0.499722
H243	H	0.076972	0.191463	-0.044189
H244	H	0.576972	0.691463	0.455811
H245	H	0.076926	0.191453	0.043617
H246	H	0.576926	0.691453	0.543617
H247	H	0.188097	0.157526	-0.044181
H248	H	0.688097	0.657526	0.455819
H249	H	0.188065	0.157519	0.043633
H250	H	0.688065	0.657519	0.543633
H251	H	0.713749	-0.071630	-0.000177
H252	H	1.213749	0.428370	0.499823
C253	C	0.683210	-0.648504	-0.064941
C254	C	1.183210	-0.148504	0.435059
C255	C	0.686676	-0.677859	-0.000223
C256	C	1.186676	-0.177859	0.499777
H257	H	0.640246	-0.627410	-0.064930
H258	H	1.140246	-0.127410	0.435070
H259	H	0.721443	-0.629779	-0.064946
H260	H	1.221443	-0.129779	0.435054
H261	H	0.685580	-0.668418	-0.108839
H262	H	1.185580	-0.168418	0.391161
H263	H	0.684311	-0.657946	0.043676
H264	H	1.184311	-0.157946	0.543676
H265	H	0.648433	-0.696586	-0.000211
H266	H	1.148433	-0.196586	0.499789
C267	C	1.075888	-0.554788	-0.000317
C268	C	1.575888	-0.054788	0.499683
C269	C	1.019515	-0.582384	-0.000307
C270	C	1.519515	-0.082384	0.499693
H271	H	1.118839	-0.575897	-0.000328
H272	H	1.618839	-0.075897	0.499672
H273	H	1.073537	-0.534872	-0.044214
H274	H	1.573537	-0.034872	0.455786
H275	H	1.073523	-0.534885	0.043592
H276	H	1.573523	-0.034885	0.543592
H277	H	1.021876	-0.602284	-0.044219
H278	H	1.521876	-0.102284	0.455781
H279	H	1.021866	-0.602308	0.043595
H280	H	1.521866	-0.102308	0.543595
H281	H	0.910848	0.004625	0.330041
H282	H	1.410848	0.504625	0.830041
H283	H	1.002826	-0.482059	-0.000289
H284	H	1.502826	0.017941	0.499711
C285	C	0.655053	0.125941	0.322279
C286	C	1.155053	0.625941	0.822279
C287	C	0.723649	0.133573	0.341387
C288	C	1.223649	0.633573	0.841387
H289	H	0.622596	0.148299	0.349182
H290	H	1.122596	0.648299	0.849182
H291	H	0.648205	0.130658	0.269421
H292	H	1.148205	0.630658	0.769421
H293	H	0.647836	0.093691	0.335286
H294	H	1.147836	0.593691	0.835286
H295	H	0.730868	0.165822	0.328375
H296	H	1.230868	0.665822	0.828375
H297	H	0.730500	0.128861	0.394257
H298	H	1.230500	0.628861	0.894257
C299	C	-0.035192	0.156097	-0.065031
C300	C	0.464808	0.656097	0.434969
C301	C	0.007181	0.153838	-0.000306
C302	C	0.507181	0.653838	0.499694
H303	H	-0.065871	0.185739	-0.065043
H304	H	0.434129	0.685739	0.434957
H305	H	-0.006395	0.154555	-0.108920
H306	H	0.493605	0.654555	0.391080
H307	H	-0.062054	0.129532	-0.065019
H308	H	0.437946	0.629532	0.434981
H309	H	0.034048	0.180401	-0.000321
H310	H	0.534048	0.680401	0.499679
H311	H	-0.021618	0.155384	0.043595
H312	H	0.478382	0.655384	0.543595
C313	C	-0.029332	-0.022547	-0.000296
C314	C	0.470668	0.477453	0.499704
C315	C	0.044129	-0.031118	-0.000277
C316	C	0.544129	0.468882	0.499723
H317	H	-0.048065	-0.052695	-0.000305
H318	H	0.451935	0.447305	0.499695
H319	H	-0.044900	-0.004575	0.043600
H320	H	0.455100	0.495425	0.543600
H321	H	-0.044849	-0.004565	-0.044206
H322	H	0.455151	0.495435	0.455794
H323	H	0.059647	-0.049097	0.043636
H324	H	0.559647	0.450903	0.543636
H325	H	0.059704	-0.049097	-0.044178
H326	H	0.559704	0.450903	0.455822
H327	H	0.944776	-0.093007	-0.000226
H328	H	1.444776	0.406993	0.499774
H329	H	0.644461	-0.448908	-0.000210
H330	H	1.144461	0.051092	0.499790
H331	H	0.737259	0.124181	0.186323
H332	H	1.237259	0.624181	0.686323
C333	C	0.966486	-0.033685	0.709659
C334	C	1.466486	0.466315	1.209659
C335	C	0.924503	-0.004761	0.658157
C336	C	1.424503	0.495239	1.158157
H337	H	0.998940	-0.056049	0.682760
H338	H	1.498940	0.443951	1.182760
H339	H	0.991384	-0.013608	0.740546
H340	H	1.491384	0.486392	1.240546
H341	H	0.937606	-0.051021	0.740590
H342	H	1.437606	0.448979	1.240590
H343	H	0.953383	0.012577	0.627229
H344	H	1.453383	0.512577	1.127229
H345	H	0.899604	-0.024841	0.627257
H346	H	1.399604	0.475159	1.127257
H347	H	0.645328	-0.389107	-0.000221
H348	H	1.145328	0.110893	0.499779
C349	C	1.017835	-0.165715	-0.000251
C350	C	1.517835	0.334285	0.499749
C351	C	0.961478	-0.193326	-0.000248
C352	C	1.461478	0.306674	0.499752
H353	H	1.060795	-0.186814	-0.000254
H354	H	1.560795	0.313186	0.499746
H355	H	1.015480	-0.145801	-0.044150
H356	H	1.515480	0.354199	0.455850
H357	H	1.015454	-0.145810	0.043656
H358	H	1.515454	0.354190	0.543656
H359	H	0.963856	-0.213229	-0.044159
H360	H	1.463856	0.286771	0.455841
H361	H	0.963834	-0.213249	0.043655
H362	H	1.463834	0.286751	0.543655
H363	H	1.005046	-0.330816	-0.000272
H364	H	1.505046	0.169184	0.499728
C365	C	0.655091	0.125954	0.805450
C366	C	1.155091	0.625954	1.305450
C367	C	0.723686	0.133583	0.824565
C368	C	1.223686	0.633583	1.324565
H369	H	0.622633	0.148313	0.832351
H370	H	1.122633	0.648313	1.332351
H371	H	0.648247	0.130670	0.752592
H372	H	1.148247	0.630670	1.252592
H373	H	0.647870	0.093704	0.818457
H374	H	1.147870	0.593704	1.318457
H375	H	0.730908	0.165832	0.811552
H376	H	1.230908	0.665832	1.311552
H377	H	0.730533	0.128871	0.877435
H378	H	1.230533	0.628871	1.377435
H379	H	0.910880	0.004628	0.813222
H380	H	1.410880	0.504628	1.313222
C381	C	1.078095	-0.403517	-0.000286
C382	C	1.578095	0.096483	0.499714
C383	C	1.021741	-0.431130	-0.000279
C384	C	1.521741	0.068870	0.499721
H385	H	1.121056	-0.424615	-0.000284
H386	H	1.621056	0.075385	0.499716
H387	H	1.075741	-0.383606	-0.044188
H388	H	1.575741	0.116394	0.455812
H389	H	1.075712	-0.383609	0.043618
H390	H	1.575712	0.116391	0.543618
H391	H	1.024121	-0.451036	-0.044187
H392	H	1.524121	0.048964	0.455813
H393	H	1.024096	-0.451049	0.043627
H394	H	1.524096	0.048951	0.543627
H395	H	0.935754	-0.708089	-0.000273
H396	H	1.435754	-0.208089	0.499727
H397	H	0.934404	-0.799559	-0.000283
H398	H	1.434404	-0.299559	0.499717
H399	H	0.646676	-0.297652	-0.000217
H400	H	1.146676	0.202348	0.499783
C401	C	0.760393	0.163172	0.612620
C402	C	1.260393	0.663172	1.112620
C403	C	0.723682	0.133583	0.658216
C404	C	1.223682	0.633583	1.158216
H405	H	0.727932	0.185532	0.585740
H406	H	1.227932	0.685532	1.085740
H407	H	0.789263	0.180507	0.643515
H408	H	1.289263	0.680507	1.143515
H409	H	0.788873	0.143541	0.577675
H410	H	1.288873	0.643541	1.077675
H411	H	0.695206	0.153213	0.693165
H412	H	1.195206	0.653213	1.193165
H413	H	0.694800	0.116247	0.627318
H414	H	1.194800	0.616247	1.127318
C415	C	0.638753	-0.130664	-0.000174
C416	C	1.138753	0.369336	0.499826
C417	C	0.694153	-0.168608	-0.000189
C418	C	1.194153	0.331392	0.499811
H419	H	0.595294	-0.143772	-0.000180
H420	H	1.095294	0.356228	0.499820
H421	H	0.641679	-0.111257	0.043733
H422	H	1.141679	0.388743	0.543733
H423	H	0.641708	-0.111233	-0.044073
H424	H	1.141708	0.388767	0.455927
H425	H	0.691202	-0.188037	0.043713
H426	H	1.191202	0.311963	0.543713
H427	H	0.691226	-0.188023	-0.044101
H428	H	1.191226	0.311977	0.455899
