data_functionalizedCrystal
_audit_creation_method	'MofGen! by Chris Wilmer'
_symmetry_space_group_name_H-M	'P1'
_symmetry_Int_Tables_number	1
_symmetry_cell_setting	triclinic
loop_
_symmetry_equiv_pos_as_xyz
  x,y,z
_cell_length_a	23.532407
_cell_length_b	23.532407
_cell_length_c	13.101039
_cell_angle_alpha	93.336507
_cell_angle_beta	86.668910
_cell_angle_gamma	82.848678
loop_
_atom_site_label
_atom_site_type_symbol
_atom_site_fract_x
_atom_site_fract_y
_atom_site_fract_z
O1	O	0.758406	0.065978	-0.085096
O2	O	1.258406	0.565978	0.414904
O3	O	0.592544	0.075980	-0.085128
O4	O	1.092544	0.575980	0.414872
O5	O	0.680476	-0.011952	-0.085092
O6	O	1.180476	0.488048	0.414908
O7	O	0.670474	0.153910	-0.085132
O8	O	1.170474	0.653910	0.414868
O9	O	0.674167	-0.005632	0.085335
O10	O	1.174167	0.494368	0.585335
O11	O	0.586235	0.082300	0.085300
O12	O	1.086235	0.582300	0.585300
O13	O	0.752097	0.072298	0.085331
O14	O	1.252097	0.572298	0.585331
Zn15	Zn	0.668164	0.078302	0.112375
Zn16	Zn	1.168164	0.578302	0.612375
Zn17	Zn	0.676477	0.069976	-0.112171
Zn18	Zn	1.176477	0.569976	0.387829
O19	O	0.664165	0.160230	0.085296
O20	O	1.164165	0.660230	0.585296
C21	C	0.568173	0.078885	0.000082
C22	C	1.068173	0.578885	0.500082
C23	C	0.504957	0.078119	0.000071
C24	C	1.004957	0.578119	0.500071
C25	C	0.105852	0.125353	0.000106
C26	C	0.605852	0.625353	0.500106
C27	C	0.046452	0.124642	0.000113
C28	C	0.546452	0.624642	0.500113
O29	O	0.009706	0.168429	0.000140
O30	O	0.509706	0.668429	0.500140
N31	N	0.023825	0.072366	0.000123
N32	N	0.523825	0.572366	0.500123
C33	C	0.060602	0.020799	0.000138
C34	C	0.560602	0.520799	0.500138
O35	O	0.035902	-0.023731	0.000149
O36	O	0.535902	0.476269	0.500149
C37	C	0.120001	0.021511	0.000139
C38	C	0.620001	0.521511	0.500139
C39	C	0.142625	0.073790	0.000118
C40	C	0.642625	0.573790	0.500118
C41	C	0.128476	0.177628	0.000086
C42	C	0.628476	0.677628	0.500086
C43	C	0.187873	0.178339	0.000078
C44	C	0.687873	0.678339	0.500078
C45	C	0.224645	0.126775	0.000090
C46	C	0.724645	0.626775	0.500090
C47	C	0.202021	0.074501	0.000110
C48	C	0.702021	0.574501	0.500110
C49	C	0.156777	-0.030056	0.000161
C50	C	0.656777	0.469944	0.500161
C51	C	0.216179	-0.029339	0.000163
C52	C	0.716179	0.470661	0.500163
C53	C	0.238803	0.022940	0.000142
C54	C	0.738803	0.522940	0.500142
C55	C	0.298190	0.023648	0.000113
C56	C	0.798190	0.523648	0.500113
N57	N	0.320817	0.075924	0.000102
N58	N	0.820817	0.575924	0.500102
C59	C	0.284044	0.127487	0.000090
C60	C	0.784044	0.627487	0.500090
C61	C	-0.064140	0.019307	0.000138
C62	C	0.435860	0.519307	0.500138
C63	C	-0.123538	0.018594	0.000130
C64	C	0.376462	0.518594	0.500130
C65	C	-0.137684	0.122438	0.000106
C66	C	0.362316	0.622438	0.500106
C67	C	-0.078285	0.123150	0.000107
C68	C	0.421715	0.623150	0.500107
C69	C	-0.041514	0.071583	0.000127
C70	C	0.458486	0.571583	0.500127
C71	C	0.408782	0.128976	0.000072
C72	C	0.908782	0.628976	0.500072
C73	C	0.468184	0.129683	0.000059
C74	C	0.968184	0.629683	0.500059
C75	C	0.482325	0.025839	0.000088
C76	C	0.982325	0.525839	0.500088
C77	C	0.422928	0.025132	0.000096
C78	C	0.922928	0.525132	0.500096
C79	C	0.386157	0.076706	0.000091
C80	C	0.886157	0.576706	0.500091
O81	O	0.334970	-0.020116	0.000090
O82	O	0.834970	0.479884	0.500090
O83	O	0.308752	0.172011	0.000093
O84	O	0.808752	0.672011	0.500093
C85	C	0.677066	-0.030008	0.000124
C86	C	1.177066	0.469992	0.500124
C87	C	0.676300	-0.093225	0.000132
C88	C	1.176300	0.406775	0.500132
C89	C	0.723535	-0.492330	0.000085
C90	C	1.223535	0.007670	0.500085
C91	C	0.722824	-0.551730	0.000077
C92	C	1.222824	-0.051730	0.500077
O93	O	0.766611	-0.588476	0.000047
O94	O	1.266611	-0.088476	0.500047
N95	N	0.670548	-0.574357	0.000068
N96	N	1.170548	-0.074357	0.500068
C97	C	0.618980	-0.537579	0.000056
C98	C	1.118980	-0.037579	0.500056
O99	O	0.574450	-0.562280	0.000046
O100	O	1.074450	-0.062280	0.500046
C101	C	0.619692	-0.478180	0.000056
C102	C	1.119692	0.021820	0.500056
C103	C	0.671971	-0.455557	0.000076
C104	C	1.171971	0.044443	0.500076
C105	C	0.775810	-0.469706	0.000103
C106	C	1.275810	0.030294	0.500103
C107	C	0.776521	-0.410309	0.000113
C108	C	1.276521	0.089691	0.500113
C109	C	0.724957	-0.373537	0.000104
C110	C	1.224957	0.126463	0.500104
C111	C	0.672682	-0.396161	0.000086
C112	C	1.172682	0.103839	0.500086
C113	C	0.568126	-0.441405	0.000037
C114	C	1.068126	0.058595	0.500037
C115	C	0.568842	-0.382002	0.000037
C116	C	1.068842	0.117998	0.500037
C117	C	0.621121	-0.359379	0.000057
C118	C	1.121121	0.140621	0.500057
C119	C	0.621829	-0.299991	0.000087
C120	C	1.121829	0.200009	0.500087
N121	N	0.674105	-0.277365	0.000096
N122	N	1.174105	0.222635	0.500096
C123	C	0.725669	-0.314138	0.000105
C124	C	1.225669	0.185862	0.500105
C125	C	0.617489	-0.662322	0.000053
C126	C	1.117489	-0.162322	0.500053
C127	C	0.616776	-0.721720	0.000060
C128	C	1.116776	-0.221720	0.500060
C129	C	0.720620	-0.735866	0.000079
C130	C	1.220620	-0.235866	0.500079
C131	C	0.721332	-0.676467	0.000079
C132	C	1.221332	-0.176467	0.500079
C133	C	0.669765	-0.639696	0.000062
C134	C	1.169765	-0.139696	0.500062
C135	C	0.727158	-0.189400	0.000126
C136	C	1.227158	0.310600	0.500126
C137	C	0.727864	-0.129997	0.000141
C138	C	1.227864	0.370003	0.500141
C139	C	0.624021	-0.115856	0.000116
C140	C	1.124021	0.384144	0.500116
C141	C	0.623314	-0.175253	0.000107
C142	C	1.123314	0.324747	0.500107
C143	C	0.674887	-0.212024	0.000109
C144	C	1.174887	0.287976	0.500109
O145	O	0.578065	-0.263211	0.000112
O146	O	1.078065	0.236789	0.500112
O147	O	0.770192	-0.289430	0.000101
O148	O	1.270192	0.210570	0.500101
C149	C	0.776467	0.069393	0.000119
C150	C	1.276467	0.569393	0.500119
C151	C	0.839684	0.070159	0.000124
C152	C	1.339684	0.570159	0.500124
C153	C	0.667574	0.178286	0.000077
C154	C	1.167574	0.678286	0.500077
C155	C	0.668341	0.241502	0.000063
C156	C	1.168341	0.741502	0.500063
N157	N	0.662495	0.083984	0.265621
N158	N	1.162495	0.583984	0.765621
N159	N	0.682150	0.064289	-0.265417
N160	N	1.182150	0.564289	0.234583
C161	C	0.654782	0.091720	0.474660
C162	C	1.154782	0.591720	0.974660
C163	C	0.689861	0.056555	0.525550
C164	C	1.189861	0.556555	1.025550
C165	C	0.685569	0.060860	0.641867
C166	C	1.185569	0.560860	1.141867
C167	C	0.659073	0.087416	0.358333
C168	C	1.159073	0.587416	0.858333
H169	H	0.512276	-0.016143	0.000094
H170	H	1.012276	0.483857	0.500094
N171	N	0.255839	-0.084961	0.000174
N172	N	0.755839	0.415039	0.500174
H173	H	0.296902	-0.076582	0.000168
H174	H	0.796902	0.423418	0.500168
H175	H	0.246210	-0.105413	0.063363
H176	H	0.746210	0.394587	0.563363
N177	N	-0.024481	-0.036315	0.000155
N178	N	0.475519	0.463685	0.500155
H179	H	-0.047832	-0.069536	0.000161
H180	H	0.452168	0.430464	0.500161
H181	H	0.002809	-0.040628	-0.063024
H182	H	0.502809	0.459372	0.436976
N183	N	0.784252	-0.105597	0.000167
N184	N	1.284252	0.394403	0.500167
H185	H	0.816809	-0.137909	0.000169
H186	H	1.316809	0.362091	0.500169
H187	H	0.789151	-0.083594	-0.063007
H188	H	1.289151	0.416406	0.436993
H189	H	0.723116	0.023218	0.481761
H190	H	1.223116	0.523218	0.981761
H191	H	0.621530	0.125055	0.518444
H192	H	1.121530	0.625055	1.018444
N193	N	0.088822	0.233249	0.000059
N194	N	0.588822	0.733249	0.500059
H195	H	0.047757	0.224876	0.000058
H196	H	0.547757	0.724876	0.500058
H197	H	0.093782	0.258391	0.063228
H198	H	0.593782	0.758391	0.563228
N199	N	0.782782	-0.229055	0.000128
N200	N	1.282782	0.270945	0.500128
H201	H	0.816001	-0.205702	0.000144
H202	H	1.316001	0.294298	0.500144
H203	H	0.782411	-0.251672	0.063306
H204	H	1.282411	0.248328	0.563306
N205	N	-0.147938	-0.037791	0.000150
N206	N	0.352062	0.462209	0.500150
H207	H	-0.169934	-0.042747	-0.063023
H208	H	0.330066	0.457253	0.436977
H209	H	-0.115596	-0.070312	0.000196
H210	H	0.384404	0.429688	0.500196
N211	N	0.492585	0.186071	0.000026
N212	N	0.992585	0.686071	0.500026
H213	H	0.460273	0.218627	0.000021
H214	H	0.960273	0.718627	0.500021
H215	H	0.514591	0.190974	0.063199
H216	H	1.014591	0.690974	0.563199
H217	H	0.404508	-0.017438	0.000098
H218	H	0.904508	0.482562	0.500098
N219	N	0.513220	-0.342342	0.000047
N220	N	1.013220	0.157658	0.500047
H221	H	0.521598	-0.301278	0.000061
H222	H	1.021598	0.198722	0.500061
H223	H	0.492756	-0.351968	-0.063134
H224	H	0.992756	0.148032	0.436866
N225	N	0.832908	-0.385913	0.000130
N226	N	1.332908	0.114087	0.500130
H227	H	0.865461	-0.418228	0.000132
H228	H	1.365461	0.081772	0.500132
H229	H	0.837806	-0.363914	-0.063048
H230	H	1.337806	0.136086	0.436952
N231	N	-0.177341	0.178067	0.000154
N232	N	0.322659	0.678067	0.500154
H233	H	-0.167773	0.198565	-0.063013
H234	H	0.332227	0.698565	0.436987
H235	H	-0.218392	0.169649	0.000216
H236	H	0.281608	0.669649	0.500216
H237	H	0.378849	0.170973	0.000071
H238	H	0.878849	0.670973	0.500071
N239	N	0.132387	-0.086444	0.000200
N240	N	0.632387	0.413556	0.500200
H241	H	0.089178	-0.079080	0.000201
H242	H	0.589178	0.420920	0.500201
H243	H	0.148197	-0.111338	-0.062969
H244	H	0.648197	0.388662	0.437031
H245	H	-0.059870	0.165721	0.000096
H246	H	0.440130	0.665721	0.500096
N247	N	0.212270	0.234726	0.000050
N248	N	0.712270	0.734726	0.500050
H249	H	0.179954	0.267278	0.000043
H250	H	0.679954	0.767278	0.500043
H251	H	0.234272	0.239631	0.063226
H252	H	0.734272	0.739631	0.563226
N253	N	0.831430	-0.509362	0.000114
N254	N	1.331430	-0.009362	0.500114
H255	H	0.864649	-0.486008	0.000126
H256	H	1.364649	0.013992	0.500126
H257	H	0.831059	-0.531975	0.063297
H258	H	1.331059	-0.031975	0.563297
N259	N	0.777720	-0.652072	0.000097
N260	N	1.277720	-0.152072	0.500097
H261	H	0.782674	-0.630081	-0.063079
H262	H	1.282674	-0.130081	0.436921
H263	H	0.777955	-0.625432	0.063318
H264	H	1.277955	-0.125432	0.563318
N265	N	0.776237	-0.775537	0.000074
N266	N	1.276237	-0.275537	0.500074
H267	H	0.809466	-0.752196	0.000082
H268	H	1.309466	-0.252196	0.500082
H269	H	0.775863	-0.798154	0.063251
H270	H	1.275863	-0.298154	0.563251
N271	N	0.560389	-0.746117	0.000066
N272	N	1.060389	-0.246117	0.500066
H273	H	0.527834	-0.713803	0.000066
H274	H	1.027834	-0.213803	0.500066
H275	H	0.560164	-0.772790	-0.063114
H276	H	1.060164	-0.272790	0.436886
N277	N	0.561866	-0.622662	0.000043
N278	N	1.061866	-0.122662	0.500043
H279	H	0.528646	-0.646014	0.000039
H280	H	1.028646	-0.146014	0.500039
H281	H	0.557559	-0.595372	0.063224
H282	H	1.057559	-0.095372	0.563224
N283	N	0.511734	-0.465788	0.000023
N284	N	1.011734	0.034212	0.500023
H285	H	0.491503	-0.454689	-0.063161
H286	H	0.991503	0.045311	0.436839
H287	H	0.519138	-0.508992	0.000063
H288	H	1.019138	-0.008992	0.500063
N289	N	0.566929	-0.199658	0.000101
N290	N	1.066929	0.300342	0.500101
H291	H	0.534372	-0.167347	0.000100
H292	H	1.034372	0.332653	0.500100
H293	H	0.566711	-0.226327	-0.063088
H294	H	1.066711	0.273673	0.436912
H295	H	0.582039	-0.085905	0.000113
H296	H	1.082039	0.414095	0.500113
