data_functionalizedCrystal
_audit_creation_method	'MofGen! by Chris Wilmer'
_symmetry_space_group_name_H-M	'P1'
_symmetry_Int_Tables_number	1
_symmetry_cell_setting	triclinic
loop_
_symmetry_equiv_pos_as_xyz
  x,y,z
_cell_length_a	42.784839
_cell_length_b	42.784841
_cell_length_c	42.784893
_cell_angle_alpha	90.002418
_cell_angle_beta	59.997780
_cell_angle_gamma	119.999863
loop_
_atom_site_label
_atom_site_type_symbol
_atom_site_fract_x
_atom_site_fract_y
_atom_site_fract_z
O1	O	0.275695	-0.214412	-0.009300
O2	O	0.211692	-0.168961	0.009253
O3	O	0.275692	-0.168961	-0.054750
O4	O	0.211694	-0.214412	0.054702
O5	O	0.223708	-0.220945	-0.054749
O6	O	0.159708	-0.220945	0.009253
O7	O	0.223710	-0.266397	-0.009300
Cu8	Cu	0.186962	-0.248417	-0.000023
Cu9	Cu	0.248440	-0.186940	-0.000024
O10	O	0.159710	-0.266396	0.054703
C11	C	0.051021	-0.022778	0.028112
C12	C	0.013142	-0.041761	0.028375
C13	C	0.051018	-0.079378	0.028116
C14	C	0.013139	-0.098275	0.028379
C15	C	-0.005578	-0.079377	0.028112
C16	C	0.069652	-0.041762	0.028379
C17	C	0.152948	0.113708	0.017863
C18	C	0.173786	0.152360	0.014965
C19	C	0.155902	0.171750	0.013509
C20	C	0.178499	0.213661	0.010359
C21	C	0.117177	0.152485	0.014953
C22	C	0.096339	0.113835	0.017857
C23	C	0.114226	0.094447	0.019312
C24	C	-0.131813	-0.113936	0.017859
C25	C	-0.167567	-0.131750	0.014961
C26	C	-0.185502	-0.169024	0.013506
C27	C	-0.224264	-0.188340	0.010358
C28	C	-0.167685	-0.188485	0.014954
C29	C	-0.131938	-0.170675	0.017859
C30	C	-0.114002	-0.133396	0.019309
C31	C	0.152939	-0.113943	0.017877
C32	C	0.173778	-0.131757	0.014977
C33	C	0.155892	-0.169032	0.013523
C34	C	0.178486	-0.188349	0.010377
C35	C	0.117170	-0.188491	0.014967
C36	C	0.096334	-0.170675	0.017865
C37	C	0.114220	-0.133401	0.019323
C38	C	0.091629	0.052537	0.022456
C39	C	0.073617	0.019131	0.024964
C40	C	0.073613	-0.098693	0.024971
C41	C	0.091623	-0.114089	0.022466
C42	C	-0.044339	-0.098690	0.024964
C43	C	-0.075237	-0.114084	0.022456
O44	O	-0.327856	-0.266388	-0.009322
O45	O	-0.236954	-0.220935	0.009228
O46	O	-0.236950	-0.220939	-0.054773
O47	O	-0.327860	-0.266385	0.054680
O48	O	-0.236948	-0.168954	-0.054776
O49	O	-0.236952	-0.168950	0.009225
O50	O	-0.327854	-0.214403	-0.009325
Cu51	Cu	-0.282403	-0.186930	-0.000050
Cu52	Cu	-0.282405	-0.248408	-0.000046
O53	O	-0.327858	-0.214400	0.054676
C54	C	0.384390	-0.079141	-0.361606
C55	C	0.422270	-0.041526	-0.380503
C56	C	0.384390	-0.079141	-0.305008
C57	C	0.422270	-0.041526	-0.323990
C58	C	0.440988	-0.022543	-0.361606
C59	C	0.365758	-0.098038	-0.323991
C60	C	0.282465	-0.170819	-0.396168
C61	C	0.261627	-0.188759	-0.413983
C62	C	0.279513	-0.169420	-0.451257
C63	C	0.256917	-0.188867	-0.470572
C64	C	0.318239	-0.132140	-0.470717
C65	C	0.339076	-0.114205	-0.452905
C66	C	0.321187	-0.133546	-0.415628
C67	C	0.567227	0.113942	-0.453282
C68	C	0.602981	0.152594	-0.471222
C69	C	0.620916	0.171985	-0.451883
C70	C	0.659678	0.213894	-0.471328
C71	C	0.603097	0.152719	-0.414603
C72	C	0.567349	0.114068	-0.396667
C73	C	0.549414	0.094682	-0.416011
C74	C	0.282465	-0.170819	-0.168522
C75	C	0.261624	-0.188757	-0.129868
C76	C	0.279510	-0.169418	-0.110479
C77	C	0.256914	-0.188865	-0.068568
C78	C	0.318233	-0.132140	-0.129742
C79	C	0.339070	-0.114203	-0.168394
C80	C	0.321184	-0.133548	-0.187782
C81	C	0.343783	-0.114094	-0.396315
C82	C	0.361794	-0.098590	-0.380920
C83	C	0.361794	-0.098590	-0.263099
C84	C	0.343783	-0.114094	-0.229693
C85	C	0.479750	0.019366	-0.381054
C86	C	0.510649	0.052771	-0.396557
C87	C	0.440758	-0.356212	-0.028193
C88	C	0.422041	-0.393827	-0.028459
C89	C	0.384158	-0.356213	-0.028190
C90	C	0.365526	-0.393828	-0.028456
C91	C	0.384160	-0.412810	-0.028193
C92	C	0.422038	-0.337315	-0.028456
C93	C	0.567000	-0.264532	-0.017949
C94	C	0.602755	-0.246591	-0.015053
C95	C	0.620692	-0.265931	-0.013601
C96	C	0.659455	-0.246483	-0.010453
C97	C	0.602873	-0.303210	-0.015048
C98	C	0.567125	-0.321146	-0.017949
C99	C	0.549188	-0.301805	-0.019399
C100	C	0.339356	-0.549295	-0.017951
C101	C	0.318645	-0.587947	-0.015055
C102	C	0.279915	-0.607338	-0.013597
C103	C	0.257452	-0.649247	-0.010452
C104	C	0.261899	-0.588073	-0.015042
C105	C	0.282613	-0.549422	-0.017945
C106	C	0.321343	-0.530035	-0.019397
C107	C	0.339344	-0.264537	-0.017936
C108	C	0.318628	-0.246599	-0.015032
C109	C	0.279898	-0.265939	-0.013577
C110	C	0.257433	-0.246493	-0.010426
C111	C	0.261884	-0.303217	-0.015022
C112	C	0.282601	-0.321153	-0.017924
C113	C	0.321334	-0.301808	-0.019385
C114	C	0.510421	-0.321258	-0.022542
C115	C	0.479522	-0.336762	-0.025048
C116	C	0.361696	-0.336765	-0.025041
C117	C	0.343793	-0.321261	-0.022532
C118	C	0.361701	-0.454719	-0.025047
C119	C	0.343799	-0.488125	-0.022541
O120	O	0.223728	0.336934	-0.009323
O121	O	0.159726	0.227482	0.009227
O122	O	0.223729	0.291478	-0.054775
O123	O	0.159725	0.272938	0.054678
O124	O	0.275711	0.291477	-0.054771
O125	O	0.211707	0.227481	0.009230
O126	O	0.275710	0.336932	-0.009320
Cu127	Cu	0.248455	0.282206	-0.000045
Cu128	Cu	0.186981	0.282208	-0.000049
O129	O	0.211707	0.272936	0.054681
O130	O	0.763271	0.337164	-0.496871
O131	O	0.672367	0.227713	-0.451422
O132	O	0.672365	0.291711	-0.451418
O133	O	0.763273	0.273165	-0.496876
O134	O	0.672366	0.291712	-0.503402
O135	O	0.672368	0.227714	-0.503407
O136	O	0.763272	0.337165	-0.548856
Cu137	Cu	0.717820	0.282440	-0.530878
Cu138	Cu	0.717819	0.282438	-0.469400
O139	O	0.763275	0.273167	-0.548860
O140	O	0.211690	-0.214417	-0.548617
O141	O	0.275691	-0.168962	-0.503167
O142	O	0.211689	-0.168964	-0.503163
O143	O	0.275692	-0.214415	-0.548621
O144	O	0.159706	-0.220947	-0.451179
O145	O	0.223708	-0.220945	-0.451183
O146	O	0.159707	-0.266400	-0.496633
Cu147	Cu	0.186961	-0.248419	-0.469161
Cu148	Cu	0.248437	-0.186943	-0.530639
O149	O	0.223709	-0.266398	-0.496637
C150	C	-0.005343	-0.412572	0.361558
C151	C	0.013375	-0.393590	0.380456
C152	C	0.051255	-0.355974	0.304961
C153	C	0.069887	-0.337077	0.323944
C154	C	0.051254	-0.355974	0.361560
C155	C	0.013375	-0.393589	0.323943
C156	C	-0.131582	-0.549057	0.396116
C157	C	-0.167336	-0.587709	0.413930
C158	C	-0.185271	-0.607098	0.451205
C159	C	-0.224034	-0.649009	0.470519
C160	C	-0.167452	-0.587833	0.470666
C161	C	-0.131705	-0.549184	0.452854
C162	C	-0.113770	-0.529796	0.415578
C163	C	0.096061	-0.321414	0.453239
C164	C	0.116773	-0.303600	0.471179
C165	C	0.155502	-0.266327	0.451842
C166	C	0.177965	-0.247011	0.471288
C167	C	0.173517	-0.246866	0.414562
C168	C	0.152802	-0.264677	0.396625
C169	C	0.114073	-0.301955	0.415968
C170	C	0.096064	-0.321412	0.168474
C171	C	0.116779	-0.303599	0.129820
C172	C	0.155508	-0.266324	0.110432
C173	C	0.177972	-0.247009	0.068521
C174	C	0.173522	-0.246865	0.129696
C175	C	0.152807	-0.264680	0.168348
C176	C	0.114075	-0.301953	0.187735
C177	C	-0.075004	-0.487887	0.396265
C178	C	-0.044106	-0.454481	0.380871
C179	C	0.073715	-0.336660	0.263052
C180	C	0.091618	-0.321265	0.229646
C181	C	0.073714	-0.336661	0.381009
C182	C	0.091616	-0.321267	0.396513
C183	C	0.051046	-0.022794	-0.361634
C184	C	0.069679	-0.041778	-0.380530
C185	C	-0.005555	-0.079390	-0.305034
C186	C	0.013163	-0.098288	-0.324016
C187	C	0.051045	-0.079393	-0.361631
C188	C	0.013164	-0.041775	-0.324018
C189	C	0.095858	0.113693	-0.396200
C190	C	0.116571	0.152344	-0.414015
C191	C	0.155302	0.171732	-0.451290
C192	C	0.177767	0.213642	-0.470607
C193	C	0.173317	0.152465	-0.470750
C194	C	0.152600	0.113815	-0.452936
C195	C	0.113869	0.094429	-0.415659
C196	C	0.152973	-0.113959	-0.453306
C197	C	0.173810	-0.131775	-0.471245
C198	C	0.155926	-0.169048	-0.451906
C199	C	0.178519	-0.188366	-0.471350
C200	C	0.117198	-0.188507	-0.414626
C201	C	0.096358	-0.170694	-0.396690
C202	C	0.114251	-0.133416	-0.416035
C203	C	-0.131801	-0.113944	-0.168548
C204	C	-0.167554	-0.131755	-0.129895
C205	C	-0.185491	-0.169029	-0.110504
C206	C	-0.224255	-0.188343	-0.068593
C207	C	-0.167671	-0.188490	-0.129767
C208	C	-0.131918	-0.170677	-0.168418
C209	C	-0.113988	-0.133404	-0.187808
C210	C	0.091411	0.052521	-0.396344
C211	C	0.073508	0.019115	-0.380949
C212	C	-0.044320	-0.098701	-0.263125
C213	C	-0.075220	-0.114094	-0.229719
C214	C	0.073641	-0.098707	-0.381079
C215	C	0.091652	-0.114103	-0.396582
C216	C	-0.615853	-0.356193	0.361535
C217	C	-0.634487	-0.393808	0.380433
C218	C	-0.559253	-0.356195	0.304938
C219	C	-0.577972	-0.393810	0.323921
C220	C	-0.615854	-0.412792	0.361537
C221	C	-0.577972	-0.337297	0.323920
C222	C	-0.660661	-0.264512	0.396093
C223	C	-0.681373	-0.246571	0.413906
C224	C	-0.720104	-0.265909	0.451181
C225	C	-0.742568	-0.246461	0.470495
C226	C	-0.738120	-0.303189	0.470643
C227	C	-0.717405	-0.321125	0.452831
C228	C	-0.678674	-0.301785	0.415554
C229	C	-0.717784	-0.549275	0.453218
C230	C	-0.738622	-0.587926	0.471159
C231	C	-0.720740	-0.607319	0.451822
C232	C	-0.743333	-0.649227	0.471268
C233	C	-0.682012	-0.588055	0.414542
C234	C	-0.661170	-0.549403	0.396604
C235	C	-0.679063	-0.530016	0.415946
C236	C	-0.433006	-0.264522	0.168449
C237	C	-0.397253	-0.246585	0.129796
C238	C	-0.379317	-0.265926	0.110407
C239	C	-0.340553	-0.246480	0.068496
C240	C	-0.397138	-0.303204	0.129672
C241	C	-0.432891	-0.321139	0.168324
C242	C	-0.450820	-0.301793	0.187711
C243	C	-0.656216	-0.321238	0.396242
C244	C	-0.638314	-0.336743	0.380848
C245	C	-0.520488	-0.336748	0.263028
C246	C	-0.489588	-0.321245	0.229622
C247	C	-0.638451	-0.454700	0.380987
C248	C	-0.656463	-0.488106	0.396492
C249	C	0.440756	0.310302	-0.361620
C250	C	0.422038	0.310564	-0.380518
C251	C	0.384160	0.310312	-0.305026
C252	C	0.365528	0.310574	-0.324010
C253	C	0.384159	0.310303	-0.361624
C254	C	0.422038	0.310573	-0.324006
C255	C	0.566989	0.300046	-0.396172
C256	C	0.602741	0.297145	-0.413984
C257	C	0.620675	0.295684	-0.451257
C258	C	0.659436	0.292531	-0.470569
C259	C	0.602857	0.297127	-0.470719
C260	C	0.567111	0.300033	-0.452909
C261	C	0.549177	0.301493	-0.415634
C262	C	0.339351	0.300042	-0.453303
C263	C	0.318640	0.297142	-0.471244
C264	C	0.279912	0.295690	-0.451908
C265	C	0.257449	0.292541	-0.471354
C266	C	0.261899	0.297143	-0.414629
C267	C	0.282613	0.300049	-0.396692
C268	C	0.321341	0.301496	-0.416033
C269	C	0.339354	0.300088	-0.168540
C270	C	0.318640	0.297192	-0.129888
C271	C	0.279912	0.295742	-0.110501
C272	C	0.257450	0.292601	-0.068591
C273	C	0.261898	0.297184	-0.129766
C274	C	0.282612	0.300078	-0.168417
C275	C	0.321344	0.301533	-0.187802
C276	C	0.510413	0.304640	-0.396323
C277	C	0.479516	0.307151	-0.380931
C278	C	0.361701	0.307173	-0.263117
C279	C	0.343799	0.304671	-0.229712
C280	C	0.361700	0.307154	-0.381073
C281	C	0.343798	0.304644	-0.396578
O282	O	0.275503	0.336913	-0.548651
O283	O	0.211494	0.227461	-0.503201
O284	O	0.275490	0.291455	-0.503192
O285	O	0.211507	0.272919	-0.548659
O286	O	0.223502	0.291457	-0.451211
O287	O	0.159506	0.227463	-0.451219
O288	O	0.223515	0.336915	-0.496669
Cu289	Cu	0.186764	0.282189	-0.469197
Cu290	Cu	0.248246	0.282187	-0.530672
O291	O	0.159519	0.272921	-0.496677
C292	C	0.051032	0.254111	0.361530
C293	C	0.013154	0.253851	0.380425
C294	C	0.051031	0.254102	0.304932
C295	C	0.013153	0.253842	0.323913
C296	C	-0.005564	0.254113	0.361527
C297	C	0.069663	0.253840	0.323916
C298	C	0.152954	0.264360	0.396096
C299	C	0.173791	0.267260	0.413911
C300	C	0.155906	0.268721	0.451185
C301	C	0.178502	0.271871	0.470501
C302	C	0.117182	0.267279	0.470643
C303	C	0.096345	0.264374	0.452830
C304	C	0.114233	0.262915	0.415555
C305	C	-0.131796	0.264379	0.453195
C306	C	-0.167548	0.267281	0.471133
C307	C	-0.185483	0.268734	0.451793
C308	C	-0.224243	0.271886	0.471236
C309	C	-0.167664	0.267282	0.414515
C310	C	-0.131919	0.264374	0.396581
C311	C	-0.113984	0.262925	0.415925
C312	C	0.152952	0.264325	0.168451
C313	C	0.173792	0.267221	0.129798
C314	C	0.155907	0.268673	0.110407
C315	C	0.178502	0.271814	0.068498
C316	C	0.117186	0.267232	0.129669
C317	C	0.096350	0.264339	0.168320
C318	C	0.114234	0.262881	0.187709
C319	C	0.091638	0.259769	0.396240
C320	C	0.073627	0.257260	0.380845
C321	C	0.073626	0.257242	0.263024
C322	C	0.091636	0.259743	0.229619
C323	C	-0.044324	0.257264	0.380973
C324	C	-0.075221	0.259775	0.396474
H325	H	0.064802	-0.186523	0.019045
H326	H	0.167269	0.098131	-0.468782
H327	H	-0.182052	0.268464	0.501484
H328	H	0.102623	0.268466	0.500992
H329	H	0.333309	0.296016	-0.114204
O330	O	0.224050	-0.224991	-0.395120
C331	C	0.231091	-0.249151	-0.415816
H332	H	0.267969	-0.236138	-0.434991
H333	H	0.212794	-0.278450	-0.394985
H334	H	0.218204	-0.252402	-0.434207
O335	O	-0.005589	0.253286	0.417315
C336	C	-0.049343	0.220148	0.440590
H337	H	-0.052987	0.197397	0.426124
H338	H	-0.057305	0.208741	0.469534
H339	H	-0.073117	0.227510	0.444934
O340	O	-0.005633	-0.023640	0.028961
C341	C	-0.049384	-0.044153	0.062109
H342	H	-0.052990	-0.062243	0.084843
H343	H	-0.057386	-0.023197	0.073536
H344	H	-0.073155	-0.063604	0.054752
H345	H	-0.666703	-0.216219	0.398058
H346	H	0.205059	-0.216514	0.113907
H347	H	0.617463	0.295940	-0.501068
O348	O	0.336182	0.295715	-0.507446
C349	C	0.374810	0.297626	-0.520671
H350	H	0.373656	0.287676	-0.495166
H351	H	0.377002	0.278348	-0.538870
H352	H	0.405007	0.328397	-0.538671
O353	O	0.335533	-0.113355	-0.110859
C354	C	0.304371	-0.109939	-0.079799
H355	H	0.269742	-0.133189	-0.071152
H356	H	0.306381	-0.113266	-0.054552
H357	H	0.311790	-0.080602	-0.088577
O358	O	-0.734896	-0.357353	0.471676
C359	C	-0.745421	-0.381510	0.450984
H360	H	-0.724616	-0.363647	0.419657
H361	H	-0.738188	-0.403388	0.453182
H362	H	-0.781970	-0.397028	0.463382
O363	O	-0.185050	0.268759	0.395718
C364	C	-0.181564	0.303323	0.392314
H365	H	-0.153858	0.325433	0.394521
H366	H	-0.173906	0.314394	0.363421
H367	H	-0.214107	0.298089	0.416245
O368	O	-0.664563	-0.606825	0.395709
C369	C	-0.625920	-0.581538	0.358959
H370	H	-0.611764	-0.550782	0.358890
H371	H	-0.600484	-0.587863	0.351124
H372	H	-0.634263	-0.585519	0.337147
H373	H	0.064816	0.263199	0.468675
H374	H	-0.182059	-0.115906	-0.114213
O375	O	0.058200	0.094809	-0.360012
C376	C	0.023718	0.063740	-0.360099
H377	H	0.038314	0.055097	-0.386087
H378	H	0.001820	0.038495	-0.332846
H379	H	0.003136	0.072504	-0.361433
H380	H	-0.117415	0.263190	0.366230
H381	H	0.230368	0.295965	-0.398887
H382	H	0.100149	0.253421	0.308676
H383	H	0.335043	-0.409068	-0.028878
O384	O	0.335548	-0.113347	-0.506898
C385	C	0.304381	-0.109952	-0.506808
H386	H	0.280064	-0.112161	-0.476893
H387	H	0.322194	-0.081062	-0.528042
H388	H	0.285685	-0.133885	-0.515419
H389	H	0.205316	0.168042	0.013788
H390	H	0.205322	0.268398	0.114116
H391	H	0.064825	-0.186540	-0.366338
O392	O	0.105999	-0.023534	0.028909
C393	C	0.118518	0.013812	0.029070
H394	H	0.088768	0.014988	0.040813
H395	H	0.131004	0.021778	0.047908
H396	H	0.145904	0.034869	-0.001380
H397	H	-0.769653	-0.318930	0.500992
H398	H	-0.732353	-0.533492	0.468971
O399	O	-0.450137	-0.357345	0.186984
C400	C	-0.426650	-0.370575	0.161581
H401	H	-0.392342	-0.345073	0.137234
H402	H	-0.423394	-0.388784	0.177591
H403	H	-0.445221	-0.388564	0.149377
H404	H	0.437709	-0.409066	-0.028885
H405	H	-0.382532	-0.318952	0.113884
H406	H	-0.182293	-0.218837	0.013775
H407	H	-0.562304	-0.409050	0.308680
H408	H	0.437935	-0.026287	-0.411409
O409	O	0.106032	-0.023661	-0.417406
C410	C	0.118539	-0.048498	-0.430081
H411	H	0.088781	-0.079420	-0.412076
H412	H	0.131032	-0.043975	-0.461407
H413	H	0.145916	-0.042182	-0.427009
H414	H	-0.117212	-0.083598	-0.184336
O415	O	0.265048	0.301439	-0.360475
C416	C	0.226431	0.299546	-0.347256
H417	H	0.212377	0.285456	-0.363921
H418	H	0.200913	0.281949	-0.315498
H419	H	0.234776	0.329701	-0.351660
H420	H	0.617482	-0.318952	-0.013867
H421	H	0.370607	-0.083853	-0.468752
H422	H	-0.117435	-0.186523	0.019040
O423	O	0.549593	-0.245714	-0.019317
C424	C	0.534112	-0.236195	0.014275
H425	H	0.552017	-0.235257	0.027354
H426	H	0.540734	-0.206961	0.006963
H427	H	0.497067	-0.258669	0.035670
O428	O	-0.670890	-0.412058	0.417286
C429	C	-0.705769	-0.445043	0.419361
H430	H	-0.691642	-0.454518	0.393949
H431	H	-0.725775	-0.468986	0.447126
H432	H	-0.728093	-0.438297	0.418686
H433	H	0.101900	0.168027	-0.398169
H434	H	0.167470	-0.248829	0.366274
O435	O	0.329121	0.311018	-0.305824
C436	C	0.294232	0.278229	-0.303931
H437	H	0.300153	0.254880	-0.306392
H438	H	0.261674	0.267514	-0.275445
H439	H	0.292655	0.285777	-0.328427
H440	H	-0.116983	-0.533275	0.365765
H441	H	0.552629	0.098160	-0.469035
O442	O	0.170246	-0.077742	0.019310
C443	C	0.143558	-0.066188	0.022170
H444	H	0.108783	-0.092552	0.034586
H445	H	0.142056	-0.048074	0.041709
H446	H	0.158253	-0.048595	-0.007472
O447	O	-0.005256	-0.411755	0.417313
C448	C	0.025620	-0.413675	0.419425
H449	H	0.060522	-0.390073	0.394034
H450	H	0.021762	-0.409758	0.447207
H451	H	0.019545	-0.442746	0.418743
O452	O	0.211104	-0.210641	0.395833
C453	C	0.203978	-0.186551	0.416600
H454	H	0.175515	-0.204482	0.447896
H455	H	0.235231	-0.164736	0.414513
H456	H	0.195428	-0.170955	0.404185
H457	H	-0.117214	-0.083584	0.019042
O458	O	-0.184838	-0.606701	0.506846
C459	C	-0.181354	-0.637779	0.506759
H460	H	-0.153649	-0.632184	0.476844
H461	H	-0.173695	-0.641197	0.527992
H462	H	-0.213898	-0.665086	0.515372
H463	H	0.267941	0.301250	-0.184099
O464	O	0.620047	0.295794	-0.395060
C465	C	0.635465	0.329399	-0.385549
H466	H	0.617587	0.342471	-0.384711
H467	H	0.628751	0.322108	-0.356270
H468	H	0.672523	0.350791	-0.407972
O469	O	0.549776	-0.357348	-0.019375
C470	C	0.514368	-0.369036	-0.022235
H471	H	0.518272	-0.342739	-0.034656
H472	H	0.514367	-0.387157	-0.041770
H473	H	0.481832	-0.386664	0.007408
O474	O	0.549508	0.301455	-0.359961
C475	C	0.514141	0.304336	-0.348416
H476	H	0.500469	0.292701	-0.365941
H477	H	0.486965	0.287012	-0.316752
H478	H	0.526389	0.335625	-0.353219
H479	H	0.370892	-0.533512	-0.019136
O480	O	0.210981	0.171331	-0.506931
C481	C	0.245458	0.202410	-0.506846
H482	H	0.237651	0.196817	-0.476931
H483	H	0.277767	0.205827	-0.528078
H484	H	0.248833	0.229717	-0.515460
H485	H	0.617258	-0.216240	-0.013873
O486	O	0.440789	-0.300441	-0.028975
C487	C	0.478295	-0.287763	-0.029133
H488	H	0.491223	-0.305761	-0.040888
H489	H	0.505093	-0.256436	-0.047960
H490	H	0.468897	-0.290839	0.001319
H491	H	0.102606	-0.218843	0.013783
H492	H	0.064821	0.263164	0.184001
O493	O	-0.776252	-0.606587	0.507361
C494	C	-0.787568	-0.581185	0.520586
H495	H	-0.772011	-0.556833	0.495081
H496	H	-0.825044	-0.597192	0.538782
H497	H	-0.774800	-0.568989	0.538589
H498	H	-0.002293	-0.408830	0.308704
H499	H	0.333315	-0.603629	-0.013877
O500	O	0.211377	-0.112808	0.013597
C501	C	0.222699	-0.076087	0.015496
H502	H	0.191945	-0.076121	0.029581
H503	H	0.236849	-0.068174	0.033102
H504	H	0.248459	-0.054272	-0.014657
H505	H	0.167543	-0.083608	-0.469060
O506	O	0.620220	0.171254	-0.507425
C507	C	0.596731	0.145852	-0.520652
H508	H	0.562428	0.121502	-0.495149
H509	H	0.593465	0.161860	-0.538853
H510	H	0.615307	0.133654	-0.538651
H511	H	0.267896	-0.186572	-0.365817
O512	O	0.170386	0.262983	0.187251
C513	C	0.213501	0.296571	0.169125
H514	H	0.217208	0.320356	0.152370
H515	H	0.219617	0.305704	0.191648
H516	H	0.238542	0.290814	0.148701
H517	H	0.167522	0.263171	0.365746
H518	H	0.333296	-0.216247	-0.013853
H519	H	0.617704	0.168507	-0.398859
H520	H	-0.117197	0.263199	0.468949
H521	H	0.102624	0.268416	0.113879
H522	H	0.102103	-0.319447	0.501532
H523	H	0.552845	0.098385	-0.366316
O524	O	0.376688	-0.077996	-0.187051
C525	C	0.387999	-0.064767	-0.161648
H526	H	0.372459	-0.090269	-0.137303
H527	H	0.425475	-0.046554	-0.177657
H528	H	0.375208	-0.046781	-0.149441
O529	O	0.376952	-0.245700	-0.019327
C530	C	0.388412	-0.208951	-0.017433
H531	H	0.357725	-0.208882	-0.003342
H532	H	0.402575	-0.201114	0.000165
H533	H	0.414203	-0.187139	-0.047588
O534	O	-0.185026	-0.224693	-0.110985
C535	C	-0.161638	-0.238051	-0.136278
H536	H	-0.127300	-0.212618	-0.160664
H537	H	-0.158455	-0.256260	-0.120182
H538	H	-0.180246	-0.256078	-0.148440
O539	O	0.224310	-0.606934	-0.013678
C540	C	0.231435	-0.620575	-0.044894
H541	H	0.259901	-0.623405	-0.055428
H542	H	0.200184	-0.649741	-0.035456
H543	H	0.239982	-0.599611	-0.069038
H544	H	-0.629638	-0.533721	0.366252
O545	O	0.549844	0.301414	-0.471860
C546	C	0.573343	0.299512	-0.508581
H547	H	0.589973	0.285424	-0.508544
H548	H	0.549501	0.281909	-0.516495
H549	H	0.599558	0.329665	-0.530397
O550	O	-0.450500	-0.245789	0.187308
C551	C	-0.495355	-0.266554	0.200949
H552	H	-0.508720	-0.297849	0.203781
H553	H	-0.515084	-0.264465	0.230114
H554	H	-0.498535	-0.254138	0.179982
O555	O	-0.114356	-0.530409	0.471708
C556	C	-0.078948	-0.492141	0.447988
H557	H	-0.082854	-0.483624	0.425596
H558	H	-0.078948	-0.472606	0.466110
H559	H	-0.046412	-0.489247	0.433079
O560	O	0.265079	-0.357387	-0.019266
C561	C	0.254574	-0.381543	0.011936
H562	H	0.249890	-0.368525	0.035797
H563	H	0.222736	-0.410841	0.022944
H564	H	0.282600	-0.384797	0.002300
O565	O	-0.623030	-0.245663	0.359889
C566	C	-0.611576	-0.208919	0.346530
H567	H	-0.627057	-0.200012	0.371963
H568	H	-0.574088	-0.187528	0.328320
H569	H	-0.624322	-0.209503	0.328504
H570	H	0.267943	-0.533739	-0.019121
H571	H	0.230346	-0.318966	-0.013835
O572	O	0.106238	-0.300201	0.305715
C573	C	0.118757	-0.287522	0.268369
H574	H	0.089006	-0.305525	0.267195
H575	H	0.131250	-0.256197	0.260402
H576	H	0.146138	-0.290592	0.247311
H577	H	0.205343	-0.115928	-0.501596
O578	O	0.099212	-0.322548	0.111170
C579	C	0.060591	-0.359269	0.136568
H580	H	0.046539	-0.359234	0.167287
H581	H	0.035074	-0.367183	0.130329
H582	H	0.068931	-0.381084	0.132625
O583	O	0.058431	-0.357617	0.472089
C584	C	0.046978	-0.370975	0.508834
H585	H	0.062457	-0.345543	0.517740
H586	H	0.009490	-0.389185	0.530226
H587	H	0.059725	-0.389000	0.508248
O588	O	0.211414	0.268677	0.394949
C589	C	0.222727	0.266758	0.358234
H590	H	0.207178	0.276711	0.349432
H591	H	0.260203	0.286030	0.336766
H592	H	0.209949	0.235984	0.358816
O593	O	0.058398	-0.357594	0.187344
C594	C	0.023923	-0.357504	0.218423
H595	H	0.031728	-0.327591	0.212825
H596	H	-0.008389	-0.378740	0.221847
H597	H	0.020553	-0.366111	0.245729
H598	H	0.167516	0.097925	0.019049
O599	O	0.223966	-0.224942	-0.111120
C600	C	0.189422	-0.224924	-0.080047
H601	H	0.197223	-0.195007	-0.085571
H602	H	0.157169	-0.246110	-0.076736
H603	H	0.185940	-0.233641	-0.052708
H604	H	0.167477	-0.248833	0.184031
H605	H	0.437930	-0.026285	-0.308746
O606	O	-0.184583	-0.606366	0.394969
C607	C	-0.161097	-0.580963	0.358255
H608	H	-0.126789	-0.556617	0.349450
H609	H	-0.157842	-0.596971	0.336787
H610	H	-0.179669	-0.568758	0.358841
O611	O	0.440771	0.311052	-0.417384
C612	C	0.478291	0.311231	-0.430067
H613	H	0.475288	0.298876	-0.404325
H614	H	0.480673	0.293098	-0.449526
H615	H	0.509250	0.341864	-0.446607
H616	H	0.437704	0.310998	-0.308766
H617	H	0.370885	0.301223	-0.469054
O618	O	-0.005593	-0.135164	-0.305785
C619	C	-0.043101	-0.147841	-0.268439
H620	H	-0.056023	-0.129837	-0.267266
H621	H	-0.069902	-0.179166	-0.260470
H622	H	-0.033709	-0.144770	-0.247381
O623	O	0.224321	0.295844	-0.110938
C624	C	0.231443	0.327053	-0.097288
H625	H	0.268325	0.350912	-0.115062
H626	H	0.213103	0.338058	-0.099725
H627	H	0.218661	0.317426	-0.066040
H628	H	-0.002525	-0.129181	0.028805
O629	O	0.329387	-0.134905	-0.305860
C630	C	0.316857	-0.147578	-0.330683
H631	H	0.346614	-0.129598	-0.361611
H632	H	0.304323	-0.178914	-0.326138
H633	H	0.289504	-0.144472	-0.324371
O634	O	0.265020	-0.189656	-0.187293
C635	C	0.226378	-0.226406	-0.162005
H636	H	0.212219	-0.226475	-0.131249
H637	H	0.200944	-0.234244	-0.168333
H638	H	0.234725	-0.248216	-0.165985
O639	O	0.376962	0.301479	-0.187310
C640	C	0.388425	0.299592	-0.162021
H641	H	0.357738	0.285504	-0.131266
H642	H	0.402592	0.281997	-0.168348
H643	H	0.414214	0.329750	-0.166002
H644	H	0.102618	0.168275	0.013770
H645	H	0.064808	0.098152	0.019035
H646	H	-0.002510	0.253416	0.308669
H647	H	0.102633	-0.218858	-0.398880
O648	O	-0.559322	-0.300421	0.305799
C649	C	-0.583989	-0.287740	0.330626
H650	H	-0.603171	-0.305744	0.361552
H651	H	-0.560631	-0.256416	0.326104
H652	H	-0.608112	-0.290806	0.324299
O653	O	-0.184823	-0.112795	0.013563
C654	C	-0.161344	-0.076083	0.015489
H655	H	-0.127029	-0.067270	0.005513
H656	H	-0.158105	-0.054617	-0.003759
H657	H	-0.179911	-0.076677	0.046271
O658	O	-0.005454	-0.023537	-0.305857
C659	C	0.025433	0.009443	-0.303939
H660	H	0.060329	0.018938	-0.327539
H661	H	0.021595	0.033379	-0.307862
H662	H	0.019352	0.002683	-0.274866
H663	H	-0.382753	-0.216236	0.114110
H664	H	-0.117412	-0.186525	-0.184100
