data_functionalizedCrystal
_audit_creation_method	'MofGen! by Chris Wilmer'
_symmetry_space_group_name_H-M	'P1'
_symmetry_Int_Tables_number	1
_symmetry_cell_setting	triclinic
loop_
_symmetry_equiv_pos_as_xyz
  x,y,z
_cell_length_a	11.792241
_cell_length_b	10.654550
_cell_length_c	9.730223
_cell_angle_alpha	89.995747
_cell_angle_beta	90.000916
_cell_angle_gamma	84.339173
loop_
_atom_site_label
_atom_site_type_symbol
_atom_site_fract_x
_atom_site_fract_y
_atom_site_fract_z
O1	O	1.507304	0.172135	-0.114156
O2	O	1.177004	0.189875	-0.114188
O3	O	1.349749	-0.001756	-0.114163
O4	O	1.334560	0.363766	-0.114181
O5	O	1.349737	-0.001761	0.114417
O6	O	1.176993	0.189870	0.114392
O7	O	1.507293	0.172130	0.114424
Zn8	Zn	1.342141	0.180999	0.150700
Zn9	Zn	1.342156	0.181006	-0.150464
O10	O	1.334549	0.363761	0.114399
C11	C	1.348628	-0.048553	0.000127
C12	C	1.345291	-0.187987	0.000124
C13	C	1.134705	0.188758	0.000098
C14	C	1.008684	0.185423	0.000086
C15	C	1.447000	-0.267760	0.000133
C16	C	1.443859	-0.398772	0.000116
C17	C	1.237290	-0.370225	0.000086
C18	C	1.240433	-0.239215	0.000094
C19	C	0.777958	0.179290	0.000126
C20	C	0.906351	0.182697	0.000104
C21	C	1.549592	0.173247	0.000135
C22	C	1.675614	0.176582	0.000138
C23	C	1.335670	0.410558	0.000106
C24	C	1.339006	0.549992	0.000100
N25	N	1.342140	0.180994	0.356236
N26	N	1.342167	0.181002	-0.356000
C27	C	1.418657	0.096175	0.428173
C28	C	1.418668	0.096176	0.572056
C29	C	1.265641	0.265824	0.572052
C30	C	1.265625	0.265816	0.428172
H31	H	1.532383	-0.226055	0.000155
H32	H	1.203346	0.334886	0.630637
H33	H	1.480974	0.027108	0.630624
N34	N	1.187461	0.352481	0.354704
N35	N	1.189922	0.468579	0.370754
H36	H	1.134718	0.529782	0.318869
N37	N	1.130194	-0.422577	0.000053
N38	N	1.127400	-0.539550	0.000046
H39	H	1.051762	-0.576524	0.000025
H40	H	1.480958	0.027106	0.369607
H41	H	1.157604	-0.174260	0.000082
N42	N	1.547763	-0.480240	0.000116
N43	N	1.641373	-0.434478	0.000135
H44	H	1.714761	-0.492014	0.000131
