data_functionalizedCrystal
_audit_creation_method	'MofGen! by Chris Wilmer'
_symmetry_space_group_name_H-M	'P1'
_symmetry_Int_Tables_number	1
_symmetry_cell_setting	triclinic
loop_
_symmetry_equiv_pos_as_xyz
  x,y,z
_cell_length_a	34.490303
_cell_length_b	34.489386
_cell_length_c	34.485816
_cell_angle_alpha	60.004462
_cell_angle_beta	60.008900
_cell_angle_gamma	59.994399
loop_
_atom_site_label
_atom_site_type_symbol
_atom_site_fract_x
_atom_site_fract_y
_atom_site_fract_z
O1	O	0.053846	-0.566517	0.473678
O2	O	0.387179	-0.233184	0.807011
O3	O	0.720513	0.100150	1.140345
O4	O	0.020329	-0.441078	0.381663
O5	O	0.353663	-0.107745	0.714996
O6	O	0.686996	0.225588	1.048329
O7	O	0.099768	-0.520436	0.381578
O8	O	0.433101	-0.187103	0.714912
O9	O	0.766434	0.146230	1.048245
O10	O	-0.025592	-0.487159	0.473762
O11	O	0.307741	-0.153826	0.807096
O12	O	0.641074	0.179508	1.140429
O13	O	0.126127	-0.494082	0.407849
O14	O	0.459461	-0.160749	0.741182
O15	O	0.792794	0.172584	1.074515
O16	O	0.046689	-0.414724	0.407933
O17	O	0.380022	-0.081391	0.741266
O18	O	0.713356	0.251942	1.074600
O19	O	0.080206	-0.540163	0.499949
O20	O	0.413539	-0.206830	0.833282
O21	O	0.746872	0.126504	1.166615
Zn22	Zn	0.067632	-0.473259	0.458112
Zn23	Zn	0.400966	-0.139926	0.791445
Zn24	Zn	0.734299	0.193407	1.124778
Zn25	Zn	0.032903	-0.507982	0.423499
Zn26	Zn	0.366236	-0.174649	0.756833
Zn27	Zn	0.699569	0.158685	1.090166
O28	O	0.000767	-0.460805	0.500033
O29	O	0.334101	-0.127471	0.833366
O30	O	0.667434	0.205862	1.166699
N31	N	0.091336	-0.449565	0.481736
N32	N	0.424669	-0.116232	0.815070
N33	N	0.758002	0.217101	1.148403
N34	N	0.009203	-0.531680	0.399875
N35	N	0.342537	-0.198347	0.733208
N36	N	0.675870	0.134986	1.066541
C37	C	0.142510	-0.268211	0.532817
C38	C	0.475843	0.065122	0.866150
C39	C	0.809176	0.398456	1.199483
C40	C	0.142641	-0.398441	0.662987
C41	C	0.475974	-0.065108	0.996320
C42	C	0.809307	0.268225	1.329653
C43	C	0.142524	-0.398421	0.532817
C44	C	0.475858	-0.065088	0.866150
C45	C	0.809191	0.268245	1.199484
C46	C	0.272762	-0.398394	0.532723
C47	C	0.606096	-0.065060	0.866056
C48	C	0.939429	0.268273	1.199389
C49	C	0.156853	-0.311177	0.547124
C50	C	0.490187	0.022157	0.880457
C51	C	0.823520	0.355490	1.213791
C52	C	0.156928	-0.384109	0.620020
C53	C	0.490261	-0.050775	0.953354
C54	C	0.823594	0.282558	1.286687
C55	C	0.229794	-0.384081	0.547073
C56	C	0.563128	-0.050747	0.880406
C57	C	0.896461	0.282586	1.213739
C58	C	0.156863	-0.384097	0.547124
C59	C	0.490196	-0.050764	0.880458
C60	C	0.823529	0.282570	1.213791
C61	C	0.124253	-0.213522	0.514606
C62	C	0.457586	0.119812	0.847939
C63	C	0.790920	0.453145	1.181272
C64	C	0.124277	-0.416652	0.514606
C65	C	0.457610	-0.083319	0.847940
C66	C	0.790943	0.250015	1.181273
C67	C	0.175110	-0.365866	0.565335
C68	C	0.508444	-0.032533	0.898668
C69	C	0.841777	0.300801	1.232002
C70	C	0.352285	-0.384669	0.490824
C71	C	0.685619	-0.051336	0.824157
C72	C	1.018952	0.281997	1.157490
C73	C	0.401998	-0.401229	0.474223
C74	C	0.735332	-0.067896	0.807556
C75	C	1.068665	0.265437	1.140890
C76	C	0.402027	-0.481671	0.504898
C77	C	0.735361	-0.148337	0.838231
C78	C	1.068694	0.184996	1.171565
C79	C	0.352316	-0.465109	0.521500
C80	C	0.685649	-0.131776	0.854833
C81	C	1.018982	0.201557	1.188167
C82	C	0.136220	-0.188652	0.465734
C83	C	0.469554	0.144681	0.799068
C84	C	0.802887	0.478014	1.132401
C85	C	0.119621	-0.138936	0.449181
C86	C	0.452955	0.194397	0.782515
C87	C	0.786288	0.527731	1.115848
C88	C	0.079092	-0.138961	0.530374
C89	C	0.412425	0.194372	0.863707
C90	C	0.745758	0.527705	1.197040
C91	C	0.095691	-0.188678	0.546927
C92	C	0.429024	0.144656	0.880260
C93	C	0.762357	0.477989	1.213593
C94	C	0.075398	-0.404656	0.526651
C95	C	0.408731	-0.071323	0.859985
C96	C	0.742065	0.262011	1.193318
C97	C	0.058814	-0.421229	0.510091
C98	C	0.392147	-0.087896	0.843424
C99	C	0.725481	0.245437	1.176758
C100	C	0.139984	-0.461794	0.469452
C101	C	0.473317	-0.128461	0.802786
C102	C	0.806650	0.204872	1.136119
C103	C	0.156570	-0.445221	0.486007
C104	C	0.489903	-0.111888	0.819340
C105	C	0.823236	0.221446	1.152673
C106	C	0.075593	-0.404694	0.742565
C107	C	0.408926	-0.071360	1.075898
C108	C	0.742259	0.261973	1.409231
C109	C	0.059066	-0.421281	0.792280
C110	C	0.392399	-0.087948	1.125613
C111	C	0.725733	0.245385	1.458946
C112	C	0.140274	-0.461856	0.792215
C113	C	0.473607	-0.128522	1.125549
C114	C	0.806941	0.204811	1.458882
C115	C	0.156800	-0.445269	0.742499
C116	C	0.490133	-0.111936	1.075832
C117	C	0.823466	0.221398	1.409166
C118	C	0.124458	-0.416687	0.717675
C119	C	0.457791	-0.083353	1.051008
C120	C	0.791125	0.249980	1.384342
C121	C	0.327446	-0.416608	0.514460
C122	C	0.660779	-0.083275	0.847794
C123	C	0.994113	0.250058	1.181127
C124	C	-0.023585	-0.564792	0.161919
C125	C	0.309748	-0.231458	0.495253
C126	C	0.643081	0.101875	0.828586
C127	C	-0.023910	-0.769260	0.366530
C128	C	0.309423	-0.435927	0.699863
C129	C	0.642756	-0.102594	1.033197
C130	C	-0.023880	-0.564780	0.366623
C131	C	0.309454	-0.231447	0.699957
C132	C	0.642787	0.101886	1.033290
C133	C	-0.228325	-0.564561	0.366222
C134	C	0.105008	-0.231228	0.699555
C135	C	0.438341	0.102105	1.032888
C136	C	-0.129610	-0.597564	0.333467
C137	C	0.203723	-0.264230	0.666800
C138	C	0.537056	0.069103	1.000134
C139	C	-0.056729	-0.597644	0.333613
C140	C	0.276604	-0.264311	0.666946
C141	C	0.609937	0.069022	1.000279
C142	C	-0.074925	-0.615849	0.315324
C143	C	0.258409	-0.282516	0.648657
C144	C	0.591742	0.050817	0.981991
C145	C	-0.088689	-0.695351	0.357144
C146	C	0.244644	-0.362018	0.690478
C147	C	0.577978	-0.028685	1.023811
C148	C	-0.072155	-0.745068	0.373736
C149	C	0.261178	-0.411735	0.707069
C150	C	0.594511	-0.078401	1.040402
C151	C	0.008283	-0.745150	0.343188
C152	C	0.341616	-0.411817	0.676522
C153	C	0.674950	-0.078484	1.009855
C154	C	-0.008252	-0.695435	0.326596
C155	C	0.325081	-0.362101	0.659929
C156	C	0.658414	-0.028768	0.993263
C157	C	-0.154529	-0.609541	0.382326
C158	C	0.178805	-0.276208	0.715660
C159	C	0.512138	0.057125	1.048993
C160	C	-0.204241	-0.592916	0.398818
C161	C	0.129092	-0.259583	0.732151
C162	C	0.462425	0.073751	1.065484
C163	C	-0.204114	-0.552341	0.317588
C164	C	0.129220	-0.219007	0.650921
C165	C	0.462553	0.114326	0.984254
C166	C	-0.154401	-0.568966	0.301096
C167	C	0.178932	-0.235632	0.634430
C168	C	0.512266	0.097701	0.967763
C169	C	-0.068707	-0.548770	0.321590
C170	C	0.264626	-0.215436	0.654923
C171	C	0.597959	0.117897	0.988256
C172	C	-0.052166	-0.532225	0.338221
C173	C	0.281167	-0.198891	0.671554
C174	C	0.614500	0.134442	1.004888
C175	C	-0.011669	-0.613425	0.378886
C176	C	0.321665	-0.280091	0.712220
C177	C	0.654998	0.053242	1.045553
C178	C	-0.028210	-0.629972	0.362261
C179	C	0.305124	-0.296638	0.695594
C180	C	0.638457	0.036695	1.028927
C181	C	-0.068581	-0.548777	0.235758
C182	C	0.264752	-0.215444	0.569091
C183	C	0.598086	0.117890	0.902424
C184	C	-0.051939	-0.532234	0.186043
C185	C	0.281395	-0.198900	0.519376
C186	C	0.614728	0.134433	0.852709
C187	C	-0.011379	-0.613438	0.186090
C188	C	0.321955	-0.280105	0.519423
C189	C	0.655288	0.053228	0.852757
C190	C	-0.028020	-0.629981	0.235806
C191	C	0.305313	-0.296647	0.569140
C192	C	0.638647	0.036686	0.902473
C193	C	-0.056622	-0.597649	0.260639
C194	C	0.276711	-0.264315	0.593972
C195	C	0.610044	0.069018	0.927305
C196	C	-0.056739	-0.670537	0.333576
C197	C	0.276595	-0.337204	0.666909
C198	C	0.609928	-0.003870	1.000243
C199	C	-0.005614	-0.545951	0.107238
C200	C	0.327719	-0.212618	0.440571
C201	C	0.661052	0.120716	0.773905
C202	C	-0.006360	-0.823943	0.385033
C203	C	0.326973	-0.490610	0.718366
C204	C	0.660307	-0.157277	1.051699
C205	C	-0.005995	-0.545937	0.384582
C206	C	0.327338	-0.212604	0.717915
C207	C	0.660671	0.120730	1.051248
C208	C	-0.283006	-0.545971	0.383725
C209	C	0.050328	-0.212637	0.717058
C210	C	0.383661	0.120696	1.050391
N211	N	0.426163	-0.449489	0.481488
N212	N	0.759496	-0.116155	0.814821
N213	N	1.092829	0.217178	1.148155
O214	O	0.588601	-0.457377	0.364497
O215	O	0.921934	-0.124043	0.697830
O216	O	1.255268	0.209290	1.031163
O217	O	0.588789	-0.549696	0.489801
O218	O	0.922122	-0.216362	0.823134
O219	O	1.255456	0.116971	1.156468
O220	O	0.588709	-0.549485	0.410335
O221	O	0.922042	-0.216151	0.743668
O222	O	1.255375	0.117182	1.077002
O223	O	0.588681	-0.457588	0.443963
O224	O	0.922015	-0.124254	0.777296
O225	O	1.255348	0.209079	1.110629
O226	O	0.509731	-0.523223	0.436741
O227	O	0.843064	-0.189890	0.770074
O228	O	1.176398	0.143444	1.103408
O229	O	0.509811	-0.523434	0.516207
O230	O	0.843145	-0.190101	0.849540
O231	O	1.176478	0.143233	1.182874
O232	O	0.509624	-0.431115	0.390903
O233	O	0.842957	-0.097782	0.724236
O234	O	1.176290	0.235552	1.057569
Zn235	Zn	0.497178	-0.473105	0.457747
Zn236	Zn	0.830511	-0.139772	0.791081
Zn237	Zn	1.163845	0.193562	1.124414
Zn238	Zn	0.601234	-0.507706	0.422956
Zn239	Zn	0.934568	-0.174372	0.756290
Zn240	Zn	1.267901	0.158961	1.089623
O241	O	0.509704	-0.431326	0.470368
O242	O	0.843037	-0.097993	0.803702
O243	O	1.176371	0.235341	1.137035
N244	N	0.672250	-0.531322	0.399211
N245	N	1.005583	-0.197989	0.732544
N246	N	1.338917	0.135344	1.065877
N247	N	0.091303	-0.114798	0.481730
N248	N	0.424637	0.218535	0.815063
N249	N	0.757970	0.551869	1.148397
O250	O	-0.025603	0.047729	0.473733
O251	O	0.307731	0.381062	0.807066
O252	O	0.641064	0.714395	1.140400
O253	O	0.099703	0.047764	0.381394
O254	O	0.433037	0.381097	0.714727
O255	O	0.766370	0.714431	1.048061
O256	O	0.020199	0.047731	0.381655
O257	O	0.353533	0.381065	0.714988
O258	O	0.686866	0.714398	1.048321
O259	O	0.053901	0.047761	0.473472
O260	O	0.387235	0.381095	0.806805
O261	O	0.720568	0.714428	1.140139
O262	O	0.046564	-0.031252	0.407974
O263	O	0.379897	0.302081	0.741307
O264	O	0.713230	0.635415	1.074641
O265	O	0.126068	-0.031219	0.407713
O266	O	0.459401	0.302114	0.741046
O267	O	0.792735	0.635447	1.074380
O268	O	0.000762	-0.031254	0.500052
O269	O	0.334095	0.302079	0.833385
O270	O	0.667428	0.635412	1.166719
Zn271	Zn	0.067601	-0.043777	0.458061
Zn272	Zn	0.400934	0.289556	0.791395
Zn273	Zn	0.734267	0.622890	1.124728
Zn274	Zn	0.032864	0.060287	0.423385
Zn275	Zn	0.366198	0.393620	0.756718
Zn276	Zn	0.699531	0.726953	1.090051
O277	O	0.080266	-0.031222	0.499791
O278	O	0.413599	0.302111	0.833125
O279	O	0.746933	0.635445	1.166458
N280	N	0.009156	0.131307	0.399717
N281	N	0.342489	0.464641	0.733050
N282	N	0.675823	0.797974	1.066384
N283	N	0.091635	-0.449614	0.816396
N284	N	0.424968	-0.116281	1.149729
N285	N	0.758301	0.217052	1.483063
O286	O	0.083664	-0.566502	0.978913
O287	O	0.416997	-0.233169	1.312246
O288	O	0.750330	0.100165	1.645579
O289	O	-0.008637	-0.441152	0.978954
O290	O	0.324697	-0.107818	1.312287
O291	O	0.658030	0.225515	1.645620
O292	O	-0.008421	-0.520640	0.978930
O293	O	0.324912	-0.187307	1.312264
O294	O	0.658246	0.146027	1.645597
O295	O	0.083448	-0.487013	0.978936
O296	O	0.416781	-0.153680	1.312269
O297	O	0.750115	0.179653	1.645603
O298	O	0.017877	-0.494296	0.899950
O299	O	0.351210	-0.160962	1.233284
O300	O	0.684543	0.172371	1.566617
O301	O	0.017661	-0.414807	0.899974
O302	O	0.350994	-0.081474	1.233307
O303	O	0.684328	0.251860	1.566640
O304	O	0.109961	-0.540157	0.899933
O305	O	0.443295	-0.206824	1.233266
O306	O	0.776628	0.126509	1.566599
Zn307	Zn	0.067986	-0.473299	0.887414
Zn308	Zn	0.401320	-0.139966	1.220747
Zn309	Zn	0.734653	0.193367	1.554080
Zn310	Zn	0.033338	-0.508010	0.991473
Zn311	Zn	0.366672	-0.174676	1.324806
Zn312	Zn	0.700005	0.158657	1.658140
O313	O	0.109746	-0.460669	0.899956
O314	O	0.443079	-0.127336	1.233290
O315	O	0.776412	0.205998	1.566623
N316	N	0.009689	-0.531700	1.062491
N317	N	0.343022	-0.198366	1.395824
N318	N	0.676356	0.134967	1.729157
C319	C	0.030367	-0.412095	0.382120
C320	C	0.363700	-0.078761	0.715454
C321	C	0.697034	0.254572	1.048787
C322	C	0.128741	-0.510370	0.382016
C323	C	0.462075	-0.177037	0.715349
C324	C	0.795408	0.156296	1.048682
C325	C	0.070168	-0.569147	0.499490
C326	C	0.403501	-0.235814	0.832824
C327	C	0.736834	0.097520	1.166157
C328	C	-0.028207	-0.470871	0.499595
C329	C	0.305127	-0.137538	0.832928
C330	C	0.638460	0.195795	1.166262
C331	C	0.549323	-0.549278	0.518791
C332	C	0.882656	-0.215944	0.852124
C333	C	1.215989	0.117389	1.185457
C334	C	0.549225	-0.549017	0.420381
C335	C	0.882558	-0.215684	0.753715
C336	C	1.215891	0.117650	1.087048
C337	C	0.549087	-0.431532	0.361914
C338	C	0.882421	-0.098199	0.695247
C339	C	1.215754	0.235135	1.028581
C340	C	0.549188	-0.431794	0.460322
C341	C	0.882522	-0.098461	0.793655
C342	C	1.215855	0.234873	1.126989
C343	C	0.128638	0.008374	0.381806
C344	C	0.461972	0.341707	0.715139
C345	C	0.795305	0.675041	1.048472
C346	C	0.030215	0.008236	0.382161
C347	C	0.363548	0.341570	0.715494
C348	C	0.696882	0.674903	1.048828
C349	C	-0.028206	0.008233	0.499608
C350	C	0.305127	0.341567	0.832941
C351	C	0.638460	0.674900	1.166274
C352	C	0.070250	0.008272	0.499285
C353	C	0.403584	0.341606	0.832619
C354	C	0.736917	0.674939	1.165952
C355	C	-0.008199	-0.412187	0.939469
C356	C	0.325134	-0.078854	1.272802
C357	C	0.658468	0.254479	1.606136
C358	C	-0.007927	-0.510619	0.939425
C359	C	0.325407	-0.177286	1.272758
C360	C	0.658740	0.156048	1.606091
C361	C	0.109523	-0.569121	0.939417
C362	C	0.442857	-0.235788	1.272751
C363	C	0.776190	0.097545	1.606084
C364	C	0.109257	-0.470684	0.939444
C365	C	0.442591	-0.137351	1.272778
C366	C	0.775924	0.195983	1.606111
H367	H	0.019274	-0.411508	0.812539
H368	H	0.352608	-0.078174	1.145873
H369	H	0.685941	0.255159	1.479206
F370	F	0.059888	-0.771650	0.335765
F371	F	0.393221	-0.438317	0.669098
F372	F	0.726554	-0.104984	1.002432
F373	F	0.175578	0.008673	0.343820
F374	F	0.508911	0.342007	0.677154
F375	F	0.842244	0.675340	1.010487
H376	H	0.019013	-0.411451	0.519888
H377	H	0.352346	-0.078117	0.853221
H378	H	0.685680	0.255216	1.186554
F379	F	0.549009	-0.393645	0.314879
F380	F	0.882342	-0.060312	0.648212
F381	F	1.215676	0.273021	0.981545
F382	F	-0.046075	-0.365132	0.939482
F383	F	0.287258	-0.031798	1.272815
F384	F	0.620592	0.301535	1.606148
H385	H	0.196371	-0.454985	0.476195
H386	H	0.529704	-0.121652	0.809528
H387	H	0.863037	0.211681	1.142861
F388	F	0.020781	0.008230	0.344454
F389	F	0.354114	0.341564	0.677788
F390	F	0.687448	0.674897	1.011121
H391	H	-0.036776	-0.517804	0.939391
H392	H	0.296557	-0.184470	1.272725
H393	H	0.629891	0.148863	1.606058
F394	F	0.079683	0.008283	0.536990
F395	F	0.413016	0.341617	0.870323
F396	F	0.746350	0.674950	1.203657
H397	H	-0.064192	0.008222	0.528596
H398	H	0.269141	0.341556	0.861929
H399	H	0.602475	0.674889	1.195262
F400	F	-0.075269	-0.461606	0.537430
F401	F	0.258064	-0.128273	0.870764
F402	F	0.591397	0.205061	1.204097
F403	F	0.549387	-0.587160	0.565830
F404	F	0.882720	-0.253826	0.899164
F405	F	1.216053	0.079507	1.232497
F406	F	0.549242	-0.586753	0.410976
F407	F	0.882576	-0.253419	0.744310
F408	F	1.215909	0.079914	1.077643
F409	F	0.549179	-0.394061	0.469724
F410	F	0.882512	-0.060728	0.803058
F411	F	1.215845	0.272606	1.136391
F412	F	0.147402	-0.616175	0.939398
F413	F	0.480735	-0.282842	1.272731
F414	F	0.814068	0.050492	1.606065
H415	H	-0.018458	-0.669769	0.372051
H416	H	0.314876	-0.336436	0.705384
H417	H	0.648209	-0.003103	1.038718
F418	F	0.041167	-0.374270	0.716150
F419	F	0.374500	-0.040937	1.049483
F420	F	0.707834	0.292396	1.382816
F421	F	0.208811	-0.458037	0.716013
F422	F	0.542144	-0.124703	1.049346
F423	F	0.875478	0.208630	1.382680
F424	F	0.174697	-0.492268	0.818633
F425	F	0.508031	-0.158935	1.151966
F426	F	0.841364	0.174399	1.485299
F427	F	0.041027	-0.374249	0.557086
F428	F	0.374360	-0.040916	0.890419
F429	F	0.707693	0.292418	1.223753
F430	F	0.175800	-0.519639	0.344177
F431	F	0.509134	-0.186306	0.677510
F432	F	0.842467	0.147028	1.010844
F433	F	0.146982	-0.461280	0.939442
F434	F	0.480315	-0.127947	1.272776
F435	F	0.813649	0.205386	1.606109
H436	H	0.166284	-0.485062	0.446169
H437	H	0.499618	-0.151729	0.779502
H438	H	0.832951	0.181605	1.112836
H439	H	0.011902	-0.639768	0.165877
H440	H	0.345235	-0.306435	0.499210
H441	H	0.678569	0.026898	0.832543
F442	F	0.428494	-0.533289	0.512386
F443	F	0.761827	-0.199956	0.845719
F444	F	1.095161	0.133377	1.179052
F445	F	0.428436	-0.367235	0.449066
F446	F	0.761770	-0.033902	0.782399
F447	F	1.095103	0.299432	1.115733
F448	F	0.325883	-0.499107	0.546657
F449	F	0.659217	-0.165773	0.879991
F450	F	0.992550	0.167560	1.213324
H451	H	0.159477	-0.208876	0.439413
H452	H	0.492811	0.124457	0.772746
H453	H	0.826144	0.457790	1.106080
F454	F	0.325818	-0.333048	0.483331
F455	F	0.659152	0.000286	0.816665
F456	F	0.992485	0.333619	1.149998
H457	H	0.055841	-0.118733	0.556693
H458	H	0.389174	0.214600	0.890027
H459	H	0.722507	0.547933	1.223360
F460	F	0.132356	-0.112466	0.397165
F461	F	0.465690	0.220867	0.730498
F462	F	0.799023	0.554201	1.063832
F463	F	0.079528	-0.616245	0.537267
F464	F	0.412861	-0.282912	0.870600
F465	F	0.746194	0.050422	1.203934
H466	H	0.085944	-0.208923	0.586721
H467	H	0.419277	0.124410	0.920055
H468	H	0.752611	0.457744	1.253388
H469	H	-0.061683	-0.492436	0.165791
H470	H	0.271650	-0.159103	0.499124
H471	H	0.604984	0.174231	0.832457
F472	F	-0.015285	-0.681998	0.262283
F473	F	0.318048	-0.348665	0.595617
F474	F	0.651382	-0.015332	0.928950
F475	F	-0.099026	-0.514362	0.262184
F476	F	0.234307	-0.181029	0.595517
F477	F	0.567640	0.152305	0.928851
H478	H	-0.091926	-0.522444	0.298262
H479	H	0.241407	-0.189111	0.631595
H480	H	0.574741	0.144223	0.964929
H481	H	0.011557	-0.639751	0.402207
H482	H	0.344890	-0.306418	0.735540
H483	H	0.678223	0.026915	1.068874
F484	F	0.025757	-0.669026	0.301513
F485	F	0.359090	-0.335693	0.634847
F486	F	0.692423	-0.002359	0.968180
F487	F	-0.064915	-0.480207	0.325428
F488	F	0.268419	-0.146874	0.658762
F489	F	0.601752	0.186460	0.992095
F490	F	-0.106161	-0.771477	0.398817
F491	F	0.227172	-0.438144	0.732150
F492	F	0.560505	-0.104810	1.065484
H493	H	-0.134345	-0.632833	0.408685
H494	H	0.198988	-0.299499	0.742019
H495	H	0.532322	0.033834	1.075352
F496	F	-0.140294	-0.668857	0.364576
F497	F	0.193040	-0.335524	0.697910
F498	F	0.526373	-0.002191	1.031243
H499	H	-0.224531	-0.602667	0.438605
H500	H	0.108802	-0.269333	0.771939
H501	H	0.442136	0.064000	1.105272
H502	H	-0.134111	-0.559208	0.261309
H503	H	0.199222	-0.225874	0.594642
H504	H	0.532555	0.107459	0.927975
F505	F	0.021008	-0.364995	0.344345
F506	F	0.354341	-0.031662	0.677678
F507	F	0.687675	0.301671	1.011012
F508	F	-0.230499	-0.521908	0.283136
F509	F	0.102834	-0.188575	0.616469
F510	F	0.436167	0.144759	0.949802
