data_functionalizedCrystal
_audit_creation_method	'MofGen! by Chris Wilmer'
_symmetry_space_group_name_H-M	'P1'
_symmetry_Int_Tables_number	1
_symmetry_cell_setting	triclinic
loop_
_symmetry_equiv_pos_as_xyz
  x,y,z
_cell_length_a	16.120490
_cell_length_b	16.120444
_cell_length_c	16.120256
_cell_angle_alpha	95.616860
_cell_angle_beta	90.129807
_cell_angle_gamma	90.165174
loop_
_atom_site_label
_atom_site_type_symbol
_atom_site_fract_x
_atom_site_fract_y
_atom_site_fract_z
Zn1	Zn	1.224981	-0.422349	-0.554795
Zn2	Zn	1.724981	0.077651	-0.054795
Zn3	Zn	1.224874	-0.555030	-0.422101
Zn4	Zn	1.724874	-0.055030	0.077899
Zn5	Zn	1.093720	-0.408253	-0.408039
Zn6	Zn	1.593720	0.091747	0.091961
Zn7	Zn	1.078871	-0.554258	-0.554037
Zn8	Zn	1.578871	-0.054258	-0.054037
O9	O	1.155612	-0.484973	-0.484743
O10	O	1.655612	0.015027	0.015257
O11	O	1.341003	-0.446172	-0.543395
O12	O	1.841003	0.053828	-0.043395
O13	O	1.213646	-0.529983	-0.303602
O14	O	1.713646	-0.029983	0.196398
O15	O	1.117392	-0.293492	-0.421939
O16	O	1.617392	0.206508	0.078061
O17	O	1.340924	-0.543652	-0.445905
O18	O	1.840924	-0.043652	0.054095
O19	O	1.213828	-0.303849	-0.529760
O20	O	1.713828	0.196151	-0.029760
O21	O	1.117288	-0.422147	-0.293271
O22	O	1.617288	0.077853	0.206729
O23	O	0.975715	-0.421399	-0.421205
O24	O	1.475715	0.078601	0.078795
O25	O	1.092083	-0.542337	-0.670771
O26	O	1.592083	-0.042337	-0.170771
O27	O	0.964805	-0.528668	-0.528468
O28	O	1.464805	-0.028668	-0.028468
O29	O	1.199429	-0.445424	-0.671328
O30	O	1.699429	0.054576	-0.171328
O31	O	1.199247	-0.671558	-0.445170
O32	O	1.699247	-0.171558	0.054830
O33	O	1.091979	-0.670992	-0.542103
O34	O	1.591979	-0.170992	-0.042103
C35	C	0.940173	-0.473421	-0.473229
C36	C	1.440173	0.026579	0.026771
C37	C	0.848005	-0.468500	-0.468324
C38	C	1.348005	0.031500	0.031676
C39	C	0.632810	-0.510491	-0.510188
C40	C	1.132810	-0.010491	-0.010188
C41	C	0.679258	-0.459524	-0.459368
C42	C	1.179258	0.040476	0.040632
C43	C	0.773157	-0.464520	-0.464352
C44	C	1.273157	0.035480	0.035648
C45	C	0.538901	-0.505496	-0.505204
C46	C	1.038901	-0.005496	-0.005204
C47	C	1.144012	-0.701518	-0.495099
C48	C	1.644012	-0.201518	0.004901
C49	C	1.139124	-0.794163	-0.499562
C50	C	1.639124	-0.294163	0.000438
C51	C	1.181162	-1.005322	-0.461784
C52	C	1.681162	-0.505322	0.038216
C53	C	1.130214	-0.963781	-0.507719
C54	C	1.630214	-0.463781	-0.007719
C55	C	1.135173	-0.869396	-0.503179
C56	C	1.635173	-0.369396	-0.003179
C57	C	1.176204	-1.099715	-0.466323
C58	C	1.676204	-0.599715	0.033677
C59	C	1.371892	-0.496570	-0.496303
C60	C	1.871892	0.003430	0.003697
C61	C	1.464057	-0.501512	-0.501229
C62	C	1.964057	-0.001512	-0.001229
C63	C	1.144111	-0.495366	-0.702137
C64	C	1.644111	0.004634	-0.202137
C65	C	1.139211	-0.499796	-0.794777
C66	C	1.639211	0.000204	-0.294777
C67	C	1.167278	-0.267584	-0.474366
C68	C	1.667278	0.232416	0.025634
C69	C	1.172250	-0.174946	-0.469944
C70	C	1.672250	0.325054	0.030056
C71	C	1.181168	-0.461853	-1.005940
C72	C	1.681168	0.038147	-0.505940
C73	C	1.130237	-0.507846	-0.964384
C74	C	1.630237	-0.007846	-0.464384
C75	C	1.135232	-0.503366	-0.870006
C76	C	1.635232	-0.003366	-0.370006
C77	C	1.176175	-0.466333	-1.100327
C78	C	1.676175	0.033667	-0.600327
C79	C	1.167118	-0.474562	-0.268195
C80	C	1.667118	0.025438	0.231805
C81	C	1.172192	-0.469906	-0.175552
C82	C	1.672192	0.030094	0.324448
H83	H	0.663563	-0.557875	-0.557436
H84	H	1.163563	-0.057875	-0.057436
N85	N	0.640696	-0.400083	-0.400071
N86	N	1.140696	0.099917	0.099929
N87	N	0.684314	-0.352168	-0.352281
N88	N	1.184314	0.147832	0.147719
H89	H	0.657078	-0.310192	-0.310401
H90	H	1.157078	0.189808	0.189599
H91	H	1.228519	-0.419117	-0.970640
H92	H	1.728519	0.080883	-0.470640
H93	H	1.082872	-0.999101	-0.550454
H94	H	1.582872	-0.499101	-0.050454
N95	N	1.240548	-0.961008	-0.408183
N96	N	1.740548	-0.461008	0.091817
N97	N	1.244539	-0.883287	-0.404530
N98	N	1.744539	-0.383287	0.095470
H99	H	1.286479	-0.851980	-0.366675
H100	H	1.786479	-0.351980	0.133325
N101	N	1.070834	-0.561460	-1.008676
N102	N	1.570834	-0.061460	-0.508676
N103	N	1.066810	-0.565070	-1.086392
N104	N	1.566810	-0.065070	-0.586392
H105	H	1.024859	-0.602934	-1.117677
H106	H	1.524859	-0.102934	-0.617677
