data_functionalizedCrystal
_audit_creation_method	'MofGen! by Chris Wilmer'
_symmetry_space_group_name_H-M	'P1'
_symmetry_Int_Tables_number	1
_symmetry_cell_setting	triclinic
loop_
_symmetry_equiv_pos_as_xyz
  x,y,z
_cell_length_a	19.805407
_cell_length_b	18.101395
_cell_length_c	19.805399
_cell_angle_alpha	90.027963
_cell_angle_beta	90.019573
_cell_angle_gamma	90.031951
loop_
_atom_site_label
_atom_site_type_symbol
_atom_site_fract_x
_atom_site_fract_y
_atom_site_fract_z
Zn1	Zn	1.034710	-0.294847	0.382718
Zn2	Zn	1.034614	-0.418690	0.269529
Zn3	Zn	0.921524	-0.294867	0.269542
Zn4	Zn	0.921477	-0.418651	0.382676
O5	O	0.978081	-0.356764	0.326116
O6	O	1.129413	-0.311283	0.367715
O7	O	1.019592	-0.402290	0.174814
O8	O	0.936599	-0.191232	0.284579
O9	O	1.129343	-0.402270	0.284556
O10	O	1.019755	-0.191217	0.367728
O11	O	0.936505	-0.311318	0.174824
O12	O	0.826801	-0.311279	0.284538
O13	O	0.936518	-0.402203	0.477398
O14	O	0.826767	-0.402223	0.367656
O15	O	1.019709	-0.311245	0.477429
O16	O	1.019546	-0.522318	0.284515
O17	O	0.936425	-0.522289	0.367643
C18	C	0.802225	-0.356750	0.326094
C19	C	0.726993	-0.356761	0.326101
C20	C	0.977988	-0.549174	0.326088
C21	C	0.978010	-0.631489	0.326098
C22	C	0.691648	-0.404187	0.369311
C23	C	0.620960	-0.404188	0.369320
C24	C	0.585617	-0.356767	0.326116
C25	C	0.620967	-0.309336	0.282905
C26	C	0.691654	-0.309332	0.282899
C27	C	0.335894	-0.309353	0.282927
C28	C	0.265202	-0.309363	0.282934
C29	C	0.265200	-0.404209	0.369348
C30	C	0.335887	-0.404205	0.369343
C31	C	0.371230	-0.356771	0.326134
C32	C	0.447879	-0.356770	0.326125
C33	C	0.508970	-0.356772	0.326121
C34	C	0.978088	-0.782197	0.326125
C35	C	0.925763	-0.813564	0.378387
C36	C	0.925961	-0.899181	0.378607
C37	C	0.978163	-0.930579	0.326151
C38	C	1.049521	-0.899397	0.345342
C39	C	1.049174	-0.813752	0.345706
C40	C	0.959695	-0.813832	0.254547
C41	C	0.958164	-0.899484	0.254944
C42	C	0.978210	-1.014439	0.326165
C43	C	0.978045	-0.698337	0.326113
C44	C	1.154624	-0.356779	0.326139
C45	C	1.229856	-0.356785	0.326148
C46	C	0.978119	-0.356717	0.502659
C47	C	0.978135	-0.356697	0.577891
C48	C	0.978193	-0.163602	0.326160
C49	C	0.978241	-0.081288	0.326178
C50	C	0.978082	-0.356757	0.150260
C51	C	0.978197	-0.356568	0.075029
C52	C	1.021454	-0.309333	0.613252
C53	C	1.021461	-0.309311	0.683941
C54	C	0.978152	-0.356659	0.719267
C55	C	0.934828	-0.404025	0.683900
C56	C	0.934819	-0.404042	0.613213
C57	C	0.934867	-0.403956	0.968974
C58	C	0.934881	-0.403937	1.039666
C59	C	1.021509	-0.309225	1.039702
C60	C	1.021499	-0.309242	0.969014
C61	C	0.978173	-0.356606	0.933654
C62	C	0.978165	-0.356628	0.857006
C63	C	0.978163	-0.356641	0.795914
H64	H	0.720419	-0.442805	0.404490
H65	H	0.236414	-0.442829	0.404533
H66	H	0.899563	-0.442573	0.712668
H67	H	1.056723	-0.270780	0.584495
H68	H	0.899537	-0.442604	0.584423
C69	C	0.854036	-0.785835	0.362375
H70	H	0.855355	-0.754876	0.323677
H71	H	0.825345	-0.826853	0.353795
H72	H	0.837160	-0.758652	0.399775
C73	C	0.887240	-0.456019	1.078526
H74	H	0.893459	-0.449230	1.125689
H75	H	0.841766	-0.445179	1.066941
H76	H	0.897117	-0.505784	1.066931
H77	H	1.056768	-0.270690	0.940256
C78	C	1.069115	-0.257214	0.722836
H79	H	1.094913	-0.229026	0.691673
H80	H	1.043250	-0.224934	0.750413
H81	H	1.098594	-0.285546	0.750409
H82	H	0.592186	-0.442808	0.404505
C83	C	0.226326	-0.257191	0.235413
H84	H	0.257498	-0.228935	0.209684
H85	H	0.198725	-0.285476	0.205876
H86	H	0.198777	-0.224966	0.261370
C87	C	1.005906	-0.928351	0.199552
H88	H	1.038809	-0.959881	0.219217
H89	H	0.980613	-0.955151	0.166952
H90	H	1.027764	-0.887821	0.178323
H91	H	0.364662	-0.270735	0.247739
C92	C	0.374760	-0.456365	0.416869
H93	H	0.343585	-0.484606	0.442610
H94	H	0.402312	-0.488594	0.390925
H95	H	0.402358	-0.428068	0.446406
H96	H	0.937805	-0.791995	0.431122
C97	C	0.582092	-0.257177	0.235379
H98	H	0.534931	-0.263977	0.241564
H99	H	0.593701	-0.207431	0.245362
H100	H	0.593655	-0.267956	0.189882
C101	C	0.887276	-0.927142	0.235328
H102	H	0.869930	-0.957505	0.270388
H103	H	0.858153	-0.886091	0.228753
H104	H	0.890032	-0.954946	0.194728
C105	C	0.890567	-0.784758	0.230894
H106	H	0.880431	-0.804508	0.187608
H107	H	0.856737	-0.799453	0.262119
H108	H	0.891891	-0.732370	0.228357
C109	C	0.887197	-0.456038	0.930086
H110	H	0.861406	-0.484232	0.961251
H111	H	0.857722	-0.427697	0.902522
H112	H	0.913051	-0.488325	0.902499
C113	C	1.070201	-0.786687	0.416381
H114	H	1.070179	-0.734211	0.417225
H115	H	1.039189	-0.804832	0.448985
H116	H	1.114219	-0.804316	0.426529
C117	C	1.103658	-0.785705	0.296522
H118	H	1.103815	-0.733221	0.296411
H119	H	1.146634	-0.803286	0.310478
H120	H	1.094131	-0.803298	0.252333
H121	H	1.056785	-0.270657	1.068500
C122	C	0.854487	-0.927678	0.362422
H123	H	0.854513	-0.980161	0.362537
H124	H	0.823763	-0.910114	0.395559
H125	H	0.841094	-0.910344	0.319179
C126	C	0.730536	-0.257166	0.235370
H127	H	0.777696	-0.263949	0.241559
H128	H	0.718930	-0.267935	0.189875
H129	H	0.718977	-0.207421	0.245365
C130	C	0.942461	-0.926799	0.450262
H131	H	0.949076	-0.885676	0.479348
H132	H	0.906081	-0.955974	0.466577
H133	H	0.982420	-0.955778	0.449068
C134	C	1.103657	-0.926860	0.295515
H135	H	1.083173	-0.957665	0.262488
H136	H	1.124218	-0.885726	0.273972
H137	H	1.136974	-0.954148	0.319344
H138	H	1.065380	-0.920794	0.397093
C139	C	1.011169	-0.786419	0.201945
H140	H	1.043713	-0.755843	0.223462
H141	H	1.033132	-0.827582	0.181889
H142	H	0.988416	-0.758902	0.168038
