data_functionalizedCrystal
_audit_creation_method	'MofGen! by Chris Wilmer'
_symmetry_space_group_name_H-M	'P1'
_symmetry_Int_Tables_number	1
_symmetry_cell_setting	triclinic
loop_
_symmetry_equiv_pos_as_xyz
  x,y,z
_cell_length_a	19.188905
_cell_length_b	19.188924
_cell_length_c	9.730223
_cell_angle_alpha	89.993539
_cell_angle_beta	89.989587
_cell_angle_gamma	83.138260
loop_
_atom_site_label
_atom_site_type_symbol
_atom_site_fract_x
_atom_site_fract_y
_atom_site_fract_z
O1	O	0.926153	0.087084	-0.114523
O2	O	0.722839	0.098837	-0.114476
O3	O	0.830365	-0.008696	-0.114485
O4	O	0.818626	0.194617	-0.114514
O5	O	0.830358	-0.008699	0.114095
O6	O	0.722832	0.098834	0.114104
O7	O	0.926146	0.087082	0.114057
Zn8	Zn	0.824488	0.092957	0.150372
Zn9	Zn	0.824497	0.092961	-0.150791
O10	O	0.818619	0.194614	0.114066
C11	C	0.696824	0.098458	-0.000180
C12	C	0.619318	0.097324	-0.000162
C13	C	0.829982	-0.034708	-0.000193
C14	C	0.828844	-0.112213	-0.000189
C15	C	0.582930	0.096781	-0.124765
C16	C	0.510107	0.095708	-0.124782
C17	C	0.473676	0.095164	-0.000189
C18	C	0.510072	0.095711	0.124430
C19	C	0.582893	0.096791	0.124443
N20	N	0.364654	0.053734	0.092539
N21	N	0.295477	0.052707	0.092518
C22	C	0.254269	0.091911	-0.000222
N23	N	0.284853	0.132174	-0.092960
N24	N	0.354037	0.133198	-0.092943
C25	C	0.394713	0.093993	-0.000190
C26	C	0.138917	0.090206	-0.124851
C27	C	0.066092	0.089137	-0.124863
C28	C	0.066060	0.089133	0.124352
C29	C	0.138883	0.090209	0.124361
C30	C	0.175308	0.090742	-0.000245
C31	C	0.828316	-0.148610	-0.124788
C32	C	0.827236	-0.221433	-0.124799
C33	C	0.826698	-0.257857	-0.000203
C34	C	0.827222	-0.221451	0.124413
C35	C	0.828295	-0.148628	0.124420
N36	N	0.864743	-0.377525	0.092523
N37	N	0.863726	-0.446703	0.092508
C38	C	0.823464	-0.477266	-0.000215
N39	N	0.784267	-0.436039	-0.092944
N40	N	0.785288	-0.366854	-0.092933
C41	C	0.825534	-0.336821	-0.000196
C42	C	0.821764	-0.592626	-0.124834
C43	C	0.820680	-0.665449	-0.124839
C44	C	0.820673	-0.665467	0.124376
C45	C	0.821750	-0.592644	0.124378
C46	C	0.822299	-0.556228	-0.000231
C47	C	0.952160	0.087461	-0.000242
C48	C	1.029666	0.088594	-0.000269
C49	C	0.819002	0.220627	-0.000229
C50	C	0.820141	0.298132	-0.000242
N51	N	0.824487	0.092954	0.355909
N52	N	0.824503	0.092959	-0.356328
C53	C	0.872115	0.045359	0.427831
C54	C	0.872122	0.045359	0.571714
C55	C	0.776869	0.140557	0.571740
C56	C	0.776860	0.140553	0.427859
H57	H	0.612583	0.097215	-0.226228
C58	C	0.026063	0.088543	-0.261937
C59	C	0.044213	0.028073	-0.364714
C60	C	0.004184	0.027479	-0.501792
C61	C	-0.053995	0.087356	-0.536092
C62	C	-0.072147	0.147831	-0.433313
C63	C	-0.032118	0.148424	-0.296235
H64	H	0.087283	-0.016256	-0.339326
H65	H	0.017622	-0.017289	-0.577876
H66	H	-0.083627	0.086917	-0.637565
H67	H	-0.115217	0.192159	-0.458702
H68	H	-0.045556	0.193192	-0.220151
C69	C	0.470070	0.095102	-0.261852
C70	C	0.510135	0.095686	-0.398910
C71	C	0.470101	0.095076	-0.535979
C72	C	0.390001	0.093883	-0.535990
C73	C	0.349931	0.093300	-0.398927
C74	C	0.389965	0.093909	-0.261858
H75	H	0.569434	0.096569	-0.398906
H76	H	0.499764	0.095508	-0.637442
H77	H	0.360366	0.093432	-0.637457
H78	H	0.290632	0.092416	-0.398930
H79	H	0.360302	0.093477	-0.160395
H80	H	0.738071	0.179311	0.369296
C81	C	0.828907	-0.108555	-0.261858
C82	C	0.889375	-0.126681	-0.364675
C83	C	0.889962	-0.086625	-0.501746
C84	C	0.830081	-0.028442	-0.536000
C85	C	0.769609	-0.010313	-0.433180
C86	C	0.769022	-0.050370	-0.296109
H87	H	0.933706	-0.169754	-0.339321
H88	H	0.934727	-0.100045	-0.577860
H89	H	0.830515	0.001210	-0.637468
H90	H	0.725277	0.032759	-0.458534
H91	H	0.724256	-0.036949	-0.219995
C92	C	0.924517	-0.006995	0.650830
C93	C	0.976913	-0.059338	0.571684
C94	C	1.029309	-0.111695	0.650801
C95	C	1.029308	-0.111709	0.809064
C96	C	0.976910	-0.059363	0.888219
C97	C	0.924514	-0.007007	0.809102
H98	H	0.976915	-0.059330	0.454521
H99	H	1.068097	-0.150445	0.592204
H100	H	1.068095	-0.150466	0.867630
H101	H	0.976908	-0.059372	1.005382
H102	H	0.885725	0.031743	0.867699
C103	C	0.822341	-0.552605	0.261443
C104	C	0.762463	-0.494424	0.295738
C105	C	0.763051	-0.454386	0.432811
C106	C	0.823518	-0.472528	0.535589
C107	C	0.883400	-0.530712	0.501296
C108	C	0.882812	-0.570751	0.364223
H109	H	0.717698	-0.480991	0.219654
H110	H	0.718722	-0.411314	0.458197
H111	H	0.823954	-0.442890	0.637059
H112	H	0.928165	-0.544145	0.577381
H113	H	0.927141	-0.613822	0.338838
C114	C	0.724487	0.192918	0.650886
C115	C	0.724533	0.192969	0.809149
C116	C	0.672151	0.245334	0.888290
C117	C	0.619721	0.297649	0.809169
C118	C	0.619672	0.297600	0.650897
C119	C	0.672055	0.245235	0.571756
H120	H	0.763347	0.154241	0.867727
H121	H	0.672187	0.245370	1.005454
H122	H	0.580944	0.336413	0.867754
H123	H	0.580859	0.336329	0.592319
H124	H	0.672019	0.245200	0.454593
H125	H	0.480405	0.095270	0.225874
H126	H	0.612520	0.097234	0.225913
H127	H	0.168575	0.090647	-0.226312
H128	H	0.036398	0.088695	0.225798
H129	H	0.826802	-0.251073	-0.226265
C130	C	0.826627	-0.261516	0.261468
C131	C	0.766150	-0.243394	0.364267
C132	C	0.765549	-0.283458	0.501327
C133	C	0.825424	-0.341645	0.535587
C134	C	0.885906	-0.359770	0.432785
C135	C	0.886507	-0.319705	0.295726
H136	H	0.721823	-0.200318	0.338908
H137	H	0.720776	-0.270041	0.577427
H138	H	0.824979	-0.371303	0.637046
H139	H	0.930233	-0.402846	0.458144
H140	H	0.931279	-0.333123	0.219626
C141	C	0.820099	-0.705487	-0.261911
C142	C	0.880873	-0.703590	-0.364703
C143	C	0.880293	-0.743628	-0.501778
C144	C	0.818940	-0.785563	-0.536060
C145	C	0.758162	-0.787462	-0.433265
C146	C	0.758742	-0.747424	-0.296190
H147	H	0.926294	-0.672546	-0.339328
H148	H	0.925285	-0.742222	-0.577873
H149	H	0.818511	-0.815201	-0.637531
H150	H	0.712741	-0.818506	-0.458640
H151	H	0.713750	-0.748829	-0.220095
H152	H	0.168511	0.090647	0.225826
H153	H	0.822207	-0.562974	-0.226298
H154	H	0.828722	-0.118994	0.225886
H155	H	0.820229	-0.695122	0.225825
H156	H	0.910895	0.006600	0.369252
