data_functionalizedCrystal
_audit_creation_method	'MofGen! by Chris Wilmer'
_symmetry_space_group_name_H-M	'P1'
_symmetry_Int_Tables_number	1
_symmetry_cell_setting	triclinic
loop_
_symmetry_equiv_pos_as_xyz
  x,y,z
_cell_length_a	15.995350
_cell_length_b	15.995350
_cell_length_c	15.072220
_cell_angle_alpha	90.001101
_cell_angle_beta	89.991149
_cell_angle_gamma	83.492375
loop_
_atom_site_label
_atom_site_type_symbol
_atom_site_fract_x
_atom_site_fract_y
_atom_site_fract_z
O1	O	1.110996	0.107921	-0.073703
O2	O	0.867221	0.121249	-0.073721
O3	O	0.995772	-0.007303	-0.073710
O4	O	0.982444	0.236472	-0.073713
O5	O	0.995740	-0.007296	0.073855
O6	O	0.867189	0.121256	0.073844
O7	O	1.110964	0.107928	0.073862
Zn8	Zn	0.989071	0.114593	0.097283
Zn9	Zn	0.989113	0.114584	-0.097141
O10	O	0.982413	0.236480	0.073852
C11	C	0.836010	0.120701	0.000060
C12	C	0.743060	0.119049	0.000053
C13	C	0.995205	-0.038494	0.000070
C14	C	0.993553	-0.131444	0.000065
C15	C	0.405312	0.113117	0.000071
C16	C	0.452746	0.021565	0.000401
C17	C	0.549436	0.023217	0.000063
C18	C	0.572873	0.116060	0.000063
C19	C	0.531804	0.161212	-0.084201
C20	C	0.435168	0.158912	-0.084266
C21	C	0.434793	0.160812	0.083543
C22	C	0.531738	0.160790	0.084651
C23	C	0.667570	0.117727	0.000055
C24	C	0.310614	0.111452	0.000073
C25	C	0.987621	-0.469192	0.000068
C26	C	0.896069	-0.421758	-0.000270
C27	C	0.897721	-0.325068	0.000063
C28	C	0.990564	-0.301631	0.000066
C29	C	1.035702	-0.342705	0.084335
C30	C	1.033402	-0.439341	0.084405
C31	C	1.035330	-0.439707	-0.083404
C32	C	1.035308	-0.342761	-0.084518
C33	C	0.992231	-0.206934	0.000068
C34	C	0.985956	-0.563890	0.000072
C35	C	1.142175	0.108476	0.000080
C36	C	1.235125	0.110127	0.000081
C37	C	0.982980	0.267671	0.000069
C38	C	0.984631	0.360621	0.000069
N39	N	0.989049	0.114599	0.229971
N40	N	0.989142	0.114571	-0.229830
C41	C	0.989112	0.114580	0.589173
C42	C	0.920095	0.183135	0.551560
C43	C	0.920254	0.183385	0.448735
C44	C	0.989080	0.114590	0.410969
C45	C	1.076445	0.133671	0.448266
C46	C	1.076058	0.134159	0.551124
C47	C	0.971542	0.026741	0.551272
C48	C	0.969537	0.027327	0.448409
C49	C	0.989067	0.114593	0.310255
C50	C	0.989130	0.114579	0.689886
H51	H	0.577852	-0.012275	0.060467
C52	C	0.935056	0.270705	0.586428
H53	H	0.893089	0.311754	0.563381
H54	H	0.989003	0.283392	0.568022
H55	H	0.932296	0.270998	0.649391
C56	C	0.832078	0.168033	0.584992
H57	H	0.791330	0.210065	0.561536
H58	H	0.830944	0.170570	0.647954
H59	H	0.819652	0.114144	0.566093
H60	H	0.855314	0.172016	0.423519
C61	C	0.849433	-0.287411	0.081798
H62	H	0.850271	-0.228119	0.082276
H63	H	0.875385	-0.310889	0.134218
H64	H	0.792841	-0.299982	0.079316
C65	C	0.882723	0.007753	0.415480
H66	H	0.871262	-0.045109	0.438354
H67	H	0.882632	0.005874	0.352487
H68	H	0.840711	0.050419	0.435298
C69	C	1.097867	0.219224	0.413463
H70	H	1.150855	0.230207	0.436401
H71	H	1.055718	0.262311	0.432019
H72	H	1.100258	0.217926	0.350493
H73	H	0.560191	0.129845	-0.146912
H74	H	0.859490	-0.440293	-0.060701
H75	H	0.433165	-0.014865	-0.059694
H76	H	0.559041	0.127829	0.146989
H77	H	0.545929	0.229421	-0.087335
C78	C	0.587092	-0.025051	-0.081683
H79	H	0.543287	-0.045740	-0.114818
H80	H	0.626061	-0.070872	-0.062897
H81	H	0.615150	0.011690	-0.117779
C82	C	0.993310	-0.304375	0.169049
H83	H	0.948109	-0.263352	0.153244
H84	H	1.033289	-0.278635	0.203148
H85	H	0.972357	-0.347498	0.203012
H86	H	1.005411	-0.460250	-0.147274
H87	H	0.859626	-0.441349	0.059819
H88	H	0.931473	0.248570	0.424121
C89	C	1.096962	0.220700	0.583527
H90	H	1.105606	0.255230	0.533829
H91	H	1.146589	0.213644	0.618614
H92	H	1.051571	0.246625	0.618115
H93	H	0.547102	0.228494	0.089741
C94	C	1.126513	-0.482618	-0.084175
H95	H	1.135499	-0.518334	-0.033905
H96	H	1.164340	-0.440956	-0.082326
H97	H	1.135944	-0.515057	-0.136767
C98	C	0.391891	0.251999	0.084315
H99	H	0.356181	0.260994	0.034045
H100	H	0.433561	0.289819	0.082462
H101	H	0.359449	0.261432	0.136907
H102	H	0.414244	0.130885	0.147414
H103	H	1.000460	-0.457639	0.147395
C104	C	0.849776	-0.286670	-0.081532
H105	H	0.829108	-0.330160	-0.115180
H106	H	0.886677	-0.258380	-0.117185
H107	H	0.803945	-0.247790	-0.062562
H108	H	1.016540	-0.026078	0.422704
H109	H	1.129019	0.086195	0.576003
C110	C	1.147486	0.068021	0.415213
H111	H	1.124441	0.028299	0.378281
H112	H	1.174709	0.039832	0.464589
H113	H	1.187129	0.095435	0.382359
H114	H	1.100617	-0.471588	0.088231
H115	H	0.909219	0.008392	0.577258
C116	C	1.127843	-0.323619	0.088581
H117	H	1.139628	-0.290349	0.038883
H118	H	1.164148	-0.374906	0.087803
H119	H	1.136590	-0.293810	0.141677
C120	C	0.990792	-0.305885	-0.168738
H121	H	0.945130	-0.265587	-0.152430
H122	H	0.970233	-0.349787	-0.201827
H123	H	1.029551	-0.279511	-0.203907
C124	C	1.126774	-0.322017	-0.091390
H125	H	1.138927	-0.287853	-0.042542
H126	H	1.133878	-0.292675	-0.145172
H127	H	1.163953	-0.372733	-0.090672
C128	C	0.427701	-0.027876	0.082028
H129	H	0.457012	-0.082954	0.080986
H130	H	0.368821	-0.031379	0.080907
H131	H	0.441829	0.000197	0.134553
C132	C	1.039521	-0.042184	0.584136
H133	H	1.028571	-0.095114	0.561012
H134	H	1.038701	-0.044091	0.647119
H135	H	1.093234	-0.029868	0.564537
C136	C	0.410449	0.114417	-0.169352
H137	H	0.459445	0.097910	-0.203550
H138	H	0.372482	0.151823	-0.203041
H139	H	0.384185	0.066051	-0.153952
H140	H	0.402920	0.226128	-0.088090
