data_functionalizedCrystal
_audit_creation_method	'MofGen! by Chris Wilmer'
_symmetry_space_group_name_H-M	'P1'
_symmetry_Int_Tables_number	1
_symmetry_cell_setting	triclinic
loop_
_symmetry_equiv_pos_as_xyz
  x,y,z
_cell_length_a	19.805407
_cell_length_b	16.120484
_cell_length_c	19.805399
_cell_angle_alpha	87.128957
_cell_angle_beta	90.019573
_cell_angle_gamma	92.925608
loop_
_atom_site_label
_atom_site_type_symbol
_atom_site_fract_x
_atom_site_fract_y
_atom_site_fract_z
Zn1	Zn	1.021075	-0.331927	0.396377
Zn2	Zn	1.015252	-0.471346	0.288925
Zn3	Zn	0.907889	-0.331950	0.283203
Zn4	Zn	0.902117	-0.471302	0.402070
O5	O	0.961584	-0.401631	0.342644
O6	O	1.115019	-0.350431	0.382136
O7	O	1.000989	-0.452883	0.193451
O8	O	0.927756	-0.215281	0.293438
O9	O	1.110741	-0.452861	0.303191
O10	O	1.010913	-0.215264	0.376587
O11	O	0.922109	-0.350470	0.189246
O12	O	0.812407	-0.350427	0.298958
O13	O	0.917919	-0.452785	0.496030
O14	O	0.808167	-0.452807	0.386290
O15	O	1.005317	-0.350388	0.491848
O16	O	0.995392	-0.588006	0.308712
O17	O	0.912273	-0.587974	0.391839
C18	C	0.785728	-0.401615	0.342621
C19	C	0.710496	-0.401629	0.342628
C20	C	0.672958	-0.455019	0.388035
C21	C	0.602269	-0.455020	0.388045
C22	C	0.569120	-0.401635	0.342644
C23	C	0.606663	-0.348239	0.297235
C24	C	0.677350	-0.348234	0.297229
C25	C	0.321589	-0.348258	0.297258
C26	C	0.250896	-0.348269	0.297266
C27	C	0.246508	-0.455043	0.388074
C28	C	0.317195	-0.455038	0.388068
C29	C	0.354732	-0.401640	0.342662
C30	C	0.431381	-0.401638	0.342653
C31	C	0.492472	-0.401641	0.342649
C32	C	0.952593	-0.618240	0.351529
C33	C	0.948809	-0.710906	0.355353
C34	C	0.941903	-0.880568	0.362347
C35	C	0.981385	-0.921854	0.322951
C36	C	0.977543	-1.016260	0.326843
C37	C	0.945745	-0.786154	0.358456
C38	C	1.138126	-0.401648	0.342667
C39	C	1.213357	-0.401655	0.342677
C40	C	0.961624	-0.401579	0.519184
C41	C	0.961641	-0.401556	0.594416
C42	C	0.970628	-0.184177	0.333739
C43	C	0.974482	-0.091511	0.329944
C44	C	0.961585	-0.401623	0.166787
C45	C	0.961709	-0.401411	0.091547
C46	C	1.007150	-0.348235	0.627583
C47	C	1.007158	-0.348211	0.698270
C48	C	0.961659	-0.401513	0.735789
C49	C	0.916145	-0.454836	0.702617
C50	C	0.916135	-0.454856	0.631931
C51	C	0.916187	-0.454759	0.987688
C52	C	0.916202	-0.454737	1.058379
C53	C	1.007210	-0.348114	1.054027
C54	C	1.007199	-0.348133	0.983340
C55	C	0.961683	-0.401453	0.950174
C56	C	0.961674	-0.401478	0.873527
C57	C	0.961671	-0.401493	0.812436
H58	H	0.579667	-0.304769	0.260272
O59	O	1.025208	-0.879573	0.279205
C60	C	1.061149	-0.936553	0.243323
H61	H	1.061005	-0.998626	0.273559
H62	H	1.036017	-0.945851	0.192273
C63	C	1.134730	-0.826147	0.195109
C64	C	1.134558	-0.902384	0.232248
H65	H	1.180011	-0.805069	0.188274
H66	H	1.110515	-0.787758	0.219281
H67	H	1.113783	-0.833906	0.152572
H68	H	1.155497	-0.894623	0.274787
H69	H	1.158778	-0.940772	0.208083
H70	H	0.879149	-0.498143	1.088925
O71	O	0.713784	-0.296465	0.253025
C72	C	0.695720	-0.314565	0.186286
H73	H	0.673522	-0.381163	0.185514
H74	H	0.656539	-0.269841	0.166819
C75	C	0.786165	-0.222994	0.141670
C76	C	0.758907	-0.304793	0.140721
H77	H	0.825140	-0.216962	0.113562
H78	H	0.798334	-0.210796	0.186633
H79	H	0.753508	-0.185732	0.125450
H80	H	0.791561	-0.342051	0.156949
H81	H	0.746745	-0.316996	0.095760
O82	O	0.898151	-0.923106	0.406008
C83	C	0.904016	-1.009260	0.400224
H84	H	0.925751	-1.021062	0.348489
H85	H	0.939049	-1.033902	0.441404
C86	C	0.807043	-1.039643	0.471706
C87	C	0.833733	-1.054139	0.408162
H88	H	0.763691	-1.067328	0.476605
H89	H	0.803093	-0.981599	0.475605
H90	H	0.836244	-1.060178	0.506015
H91	H	0.804537	-1.033595	0.373853
H92	H	0.837677	-1.112180	0.404257
H93	H	1.044202	-0.304833	0.597039
H94	H	1.044217	-0.304794	0.725272
O95	O	0.871912	-0.506431	0.955434
C96	C	0.830178	-0.458966	0.912584
H97	H	0.828733	-0.393300	0.931204
H98	H	0.851219	-0.456104	0.858900
C99	C	0.759896	-0.580338	0.890276
C100	C	0.758116	-0.499689	0.913148
H101	H	0.715445	-0.605459	0.890621
H102	H	0.788014	-0.612318	0.919143
H103	H	0.777433	-0.577943	0.845541
H104	H	0.740587	-0.502086	0.957886
H105	H	0.729993	-0.467710	0.884289
O106	O	0.218585	-0.296491	0.253182
C107	C	0.148146	-0.307942	0.262932
H108	H	0.135839	-0.372317	0.287660
H109	H	0.130142	-0.258550	0.297011
C110	C	0.127265	-0.221146	0.163769
C111	C	0.112149	-0.300215	0.194136
H112	H	0.105059	-0.216376	0.121333
H113	H	0.174721	-0.213428	0.157201
H114	H	0.112261	-0.179994	0.192175
H115	H	0.127160	-0.341364	0.165733
H116	H	0.064694	-0.307940	0.200697
O117	O	0.871911	-0.506741	0.599818
C118	C	0.831747	-0.553774	0.648089
H119	H	0.859355	-0.556640	0.698602
H120	H	0.781607	-0.523247	0.654342
C121	C	0.784402	-0.638996	0.562094
C122	C	0.818314	-0.642522	0.624135
H123	H	0.776113	-0.693738	0.547318
H124	H	0.811459	-0.607307	0.529573
H125	H	0.742623	-0.613553	0.567313
H126	H	0.860095	-0.667954	0.618913
H127	H	0.791263	-0.674217	0.656655
O128	O	1.051421	-0.296277	0.946997
C129	C	1.091602	-0.249222	0.991430
H130	H	1.064008	-0.246319	1.041695
H131	H	1.141740	-0.279752	1.000206
C132	C	1.138932	-0.164064	0.898475
C133	C	1.105038	-0.160493	0.960210
H134	H	1.147223	-0.109333	0.879217
H135	H	1.111863	-0.195768	0.868539
H136	H	1.180710	-0.189510	0.905797
H137	H	1.063258	-0.135057	0.952885
H138	H	1.132100	-0.128783	0.990144
H139	H	0.352142	-0.304784	0.260281
H140	H	0.699943	-0.498494	0.425004
H141	H	1.044269	-0.304695	1.081039
H142	H	0.344182	-0.498513	0.425036
O143	O	0.565907	-0.506971	0.432170
C144	C	0.610323	-0.554082	0.472245
H145	H	0.660584	-0.556909	0.444631
H146	H	0.619123	-0.523649	0.522449
C147	C	0.517332	-0.639364	0.519425
C148	C	0.579060	-0.642841	0.485505
H149	H	0.498047	-0.694114	0.527607
H150	H	0.487407	-0.607623	0.492428
H151	H	0.524673	-0.614000	0.561257
H152	H	0.571717	-0.668196	0.443671
H153	H	0.608984	-0.674589	0.512496
O154	O	0.209942	-0.506832	0.432163
C155	C	0.140443	-0.495406	0.422428
H156	H	0.133447	-0.431030	0.397709
H157	H	0.118317	-0.544799	0.388345
C158	C	0.112455	-0.582231	0.521584
C159	C	0.103862	-0.503161	0.491229
H160	H	0.089889	-0.587018	0.564024
H161	H	0.159278	-0.589932	0.528142
H162	H	0.094017	-0.623383	0.493175
H163	H	0.122307	-0.462011	0.519635
H164	H	0.057041	-0.495453	0.484678
H165	H	0.879097	-0.498232	0.733171
