data_functionalizedCrystal
_audit_creation_method	'MofGen! by Chris Wilmer'
_symmetry_space_group_name_H-M	'P1'
_symmetry_Int_Tables_number	1
_symmetry_cell_setting	triclinic
loop_
_symmetry_equiv_pos_as_xyz
  x,y,z
_cell_length_a	16.625548
_cell_length_b	12.645330
_cell_length_c	16.625539
_cell_angle_alpha	89.975749
_cell_angle_beta	89.979432
_cell_angle_gamma	90.018760
loop_
_atom_site_label
_atom_site_type_symbol
_atom_site_fract_x
_atom_site_fract_y
_atom_site_fract_z
Zn1	Zn	1.232707	-0.422007	-0.455932
Zn2	Zn	1.566041	-0.088674	-0.122599
Zn3	Zn	1.899374	0.244659	0.210735
Zn4	Zn	1.232622	-0.599293	-0.321109
Zn5	Zn	1.565955	-0.265960	0.012224
Zn6	Zn	1.899288	0.067373	0.345558
Zn7	Zn	1.097869	-0.422048	-0.321113
Zn8	Zn	1.431202	-0.088714	0.012221
Zn9	Zn	1.764536	0.244619	0.345554
Zn10	Zn	1.097851	-0.599232	-0.455899
Zn11	Zn	1.431184	-0.265899	-0.122565
Zn12	Zn	1.764517	0.067434	0.210768
O13	O	1.165262	-0.510645	-0.388513
O14	O	1.498595	-0.177312	-0.055180
O15	O	1.831929	0.156022	0.278154
O16	O	1.345528	-0.445533	-0.438060
O17	O	1.678862	-0.112200	-0.104727
O18	O	2.012195	0.221133	0.228607
O19	O	1.214718	-0.575824	-0.208277
O20	O	1.548052	-0.242490	0.125056
O21	O	1.881385	0.090843	0.458390
O22	O	1.115799	-0.273695	-0.339012
O23	O	1.449132	0.059638	-0.005679
O24	O	1.782466	0.392972	0.327654
O25	O	1.345465	-0.575784	-0.339006
O26	O	1.678799	-0.242451	-0.005672
O27	O	2.012132	0.090882	0.327661
O28	O	1.214864	-0.273665	-0.438064
O29	O	1.548197	0.059668	-0.104730
O30	O	1.881531	0.393001	0.228603
O31	O	1.115716	-0.445602	-0.208280
O32	O	1.449049	-0.112269	0.125054
O33	O	1.782383	0.221065	0.458387
O34	O	0.985034	-0.445543	-0.338980
O35	O	1.318368	-0.112210	-0.005647
O36	O	1.651701	0.221124	0.327687
O37	O	1.115768	-0.575681	-0.568736
O38	O	1.449101	-0.242347	-0.235402
O39	O	1.782434	0.090986	0.097931
O40	O	0.985021	-0.575720	-0.438007
O41	O	1.318354	-0.242387	-0.104673
O42	O	1.651687	0.090947	0.228660
O43	O	1.214846	-0.445474	-0.568760
O44	O	1.548180	-0.112141	-0.235427
O45	O	1.881513	0.221192	0.097907
O46	O	1.214701	-0.747632	-0.338973
O47	O	1.548034	-0.414299	-0.005640
O48	O	1.881367	-0.080966	0.327693
O49	O	1.115685	-0.747588	-0.438003
O50	O	1.449018	-0.414254	-0.104670
O51	O	1.782352	-0.080921	0.228664
C52	C	0.955771	-0.510630	-0.388491
C53	C	1.289105	-0.177297	-0.055157
C54	C	1.622438	0.156037	0.278176
C55	C	0.866150	-0.510649	-0.388500
C56	C	1.199484	-0.177316	-0.055167
C57	C	1.532817	0.156018	0.278167
C58	C	0.537975	-0.510656	-0.388534
C59	C	0.871308	-0.177323	-0.055201
C60	C	1.204641	0.156011	0.278132
C61	C	0.629283	-0.510651	-0.388522
C62	C	0.962616	-0.177318	-0.055189
C63	C	1.295950	0.156016	0.278144
C64	C	0.702059	-0.510653	-0.388517
C65	C	1.035393	-0.177320	-0.055183
C66	C	1.368726	0.156014	0.278150
C67	C	0.793374	-0.510647	-0.388506
C68	C	1.126707	-0.177314	-0.055172
C69	C	1.460040	0.156020	0.278161
C70	C	1.165203	-0.786075	-0.388502
C71	C	1.498537	-0.452742	-0.055168
C72	C	1.831870	-0.119408	0.278165
C73	C	1.165252	-0.903905	-0.388524
C74	C	1.498585	-0.570572	-0.055191
C75	C	1.831919	-0.237238	0.278143
C76	C	1.103218	-1.071485	-0.451015
C77	C	1.436551	-0.738152	-0.117682
C78	C	1.769885	-0.404818	0.215651
C79	C	1.102901	-0.948925	-0.450815
C80	C	1.436234	-0.615592	-0.117481
C81	C	1.769567	-0.282259	0.215852
C82	C	1.142250	-0.948498	-0.303549
C83	C	1.475584	-0.615165	0.029785
C84	C	1.808917	-0.281832	0.363118
C85	C	1.141872	-1.071097	-0.303928
C86	C	1.475205	-0.737763	0.029405
C87	C	1.808538	-0.404430	0.362739
C88	C	1.250667	-1.070992	-0.410318
C89	C	1.584000	-0.737659	-0.076985
C90	C	1.917334	-0.404326	0.256348
C91	C	1.250144	-0.948386	-0.412177
C92	C	1.583477	-0.615052	-0.078843
C93	C	1.916810	-0.281719	0.254490
C94	C	1.375571	-0.510661	-0.388536
C95	C	1.708904	-0.177328	-0.055203
C96	C	2.042238	0.156006	0.278131
C97	C	1.465192	-0.510668	-0.388546
C98	C	1.798525	-0.177335	-0.055213
C99	C	2.131859	0.155999	0.278121
C100	C	1.165315	-0.510566	-0.598822
C101	C	1.498648	-0.177233	-0.265489
C102	C	1.831981	0.156101	0.067845
C103	C	1.165337	-0.510533	-0.688443
C104	C	1.498670	-0.177199	-0.355110
C105	C	1.832004	0.156134	-0.021777
C106	C	1.165343	-0.234140	-0.388542
C107	C	1.498677	0.099193	-0.055209
C108	C	1.832010	0.432527	0.278125
C109	C	1.165378	-0.116310	-0.388554
C110	C	1.498711	0.217024	-0.055221
C111	C	1.832044	0.550357	0.278112
C112	C	1.165374	-0.510414	-1.016619
C113	C	1.498707	-0.177080	-0.683286
C114	C	1.832041	0.156253	-0.349952
C115	C	1.165362	-0.510450	-0.925311
C116	C	1.498695	-0.177117	-0.591977
C117	C	1.832028	0.156216	-0.258644
C118	C	1.165356	-0.510474	-0.852534
C119	C	1.498689	-0.177141	-0.519201
C120	C	1.832023	0.156193	-0.185867
C121	C	1.165343	-0.510509	-0.761220
C122	C	1.498676	-0.177175	-0.427886
C123	C	1.832009	0.156158	-0.094553
C124	C	1.165256	-0.510647	-0.179022
C125	C	1.498590	-0.177314	0.154311
C126	C	1.831923	0.156019	0.487644
C127	C	1.165390	-0.510382	-0.089402
C128	C	1.498724	-0.177049	0.243932
C129	C	1.832057	0.156284	0.577265
H130	H	1.117292	-0.918772	-0.513823
H131	H	1.450625	-0.585439	-0.180490
H132	H	1.783958	-0.252105	0.152844
C133	C	1.273588	-0.908994	-0.496651
C134	C	1.606921	-0.575661	-0.163318
C135	C	1.940255	-0.242327	0.170015
H136	H	1.231823	-0.865616	-0.517424
H137	H	1.565156	-0.532282	-0.184091
H138	H	1.898490	-0.198949	0.149243
H139	H	1.281465	-0.967873	-0.531231
H140	H	1.614798	-0.634539	-0.197897
H141	H	1.948131	-0.301206	0.135436
H142	H	1.321937	-0.869165	-0.493409
H143	H	1.655271	-0.535832	-0.160076
H144	H	1.988604	-0.202499	0.173257
H145	H	1.117477	-1.100897	-0.514231
H146	H	1.450810	-0.767564	-0.180897
H147	H	1.784144	-0.434231	0.152436
H148	H	1.040384	-1.102387	-0.436781
H149	H	1.373717	-0.769054	-0.103447
H150	H	1.707050	-0.435720	0.229886
C151	C	1.316002	-0.907000	-0.355186
C152	C	1.649336	-0.573667	-0.021853
C153	C	1.982669	-0.240333	0.311480
H154	H	1.292482	-0.861855	-0.316044
H155	H	1.625816	-0.528522	0.017289
H156	H	1.959149	-0.195188	0.350622
H157	H	1.354882	-0.868634	-0.385249
H158	H	1.688215	-0.535300	-0.051916
H159	H	2.021549	-0.201967	0.281418
H160	H	1.341262	-0.964992	-0.329086
H161	H	1.674596	-0.631659	0.004247
H162	H	2.007929	-0.298325	0.337580
C163	C	1.057648	-1.109869	-0.279030
C164	C	1.390982	-0.776536	0.054303
C165	C	1.724315	-0.443203	0.387637
H166	H	1.056675	-1.184988	-0.279039
H167	H	1.390008	-0.851655	0.054294
H168	H	1.723342	-0.518322	0.387628
H169	H	1.018869	-1.083940	-0.316056
H170	H	1.352203	-0.750607	0.017277
H171	H	1.685536	-0.417274	0.350610
H172	H	1.045445	-1.084608	-0.226623
H173	H	1.378778	-0.751275	0.106710
H174	H	1.712112	-0.417941	0.440044
H175	H	1.185181	-1.100752	-0.255803
H176	H	1.518515	-0.767419	0.077531
H177	H	1.851848	-0.434086	0.410864
H178	H	1.296977	-1.099979	-0.364825
H179	H	1.630311	-0.766645	-0.031492
H180	H	1.963644	-0.433312	0.301841
C181	C	1.058901	-0.907164	-0.278187
C182	C	1.392234	-0.573831	0.055146
C183	C	1.725568	-0.240498	0.388479
H184	H	1.045517	-0.934588	-0.226683
H185	H	1.378850	-0.601254	0.106651
H186	H	1.712183	-0.267921	0.439984
H187	H	1.019797	-0.929288	-0.316281
H188	H	1.353130	-0.595955	0.017053
H189	H	1.686463	-0.262622	0.350386
H190	H	1.059974	-0.832110	-0.275941
H191	H	1.393307	-0.498776	0.057392
H192	H	1.726641	-0.165443	0.390725
C193	C	1.201464	-0.909103	-0.238957
C194	C	1.534798	-0.575769	0.094377
C195	C	1.868131	-0.242436	0.427710
H196	H	1.240832	-0.864999	-0.263297
H197	H	1.574166	-0.531666	0.070036
H198	H	1.907499	-0.198332	0.403370
H199	H	1.227108	-0.967951	-0.214394
H200	H	1.560442	-0.634617	0.118939
H201	H	1.893775	-0.301284	0.452272
H202	H	1.172980	-0.870031	-0.199335
H203	H	1.506313	-0.536698	0.133998
H204	H	1.839647	-0.203365	0.467332
C205	C	1.017488	-0.909426	-0.431325
C206	C	1.350821	-0.576092	-0.097992
C207	C	1.684155	-0.242759	0.235342
H208	H	0.982850	-0.968307	-0.423492
H209	H	1.316183	-0.634974	-0.090159
H210	H	1.649517	-0.301641	0.243175
H211	H	0.998113	-0.867701	-0.474710
H212	H	1.331446	-0.534367	-0.141376
H213	H	1.664780	-0.201034	0.191957
H214	H	1.018805	-0.867913	-0.383732
H215	H	1.352138	-0.534579	-0.050398
H216	H	1.685472	-0.201246	0.282935
H217	H	1.271650	-1.101837	-0.471229
H218	H	1.604983	-0.768503	-0.137896
H219	H	1.938316	-0.435170	0.195438
