data_functionalizedCrystal
_audit_creation_method	'MofGen! by Chris Wilmer'
_symmetry_space_group_name_H-M	'P1'
_symmetry_Int_Tables_number	1
_symmetry_cell_setting	triclinic
loop_
_symmetry_equiv_pos_as_xyz
  x,y,z
_cell_length_a	15.995350
_cell_length_b	14.472310
_cell_length_c	15.995350
_cell_angle_alpha	90.001162
_cell_angle_beta	96.507625
_cell_angle_gamma	90.009379
loop_
_atom_site_label
_atom_site_type_symbol
_atom_site_fract_x
_atom_site_fract_y
_atom_site_fract_z
O1	O	1.110997	0.076758	-0.107921
O2	O	0.867221	0.076776	-0.121248
O3	O	0.995773	0.076766	0.007303
O4	O	0.982445	0.076769	-0.236472
O5	O	0.995740	-0.076916	0.007296
O6	O	0.867188	-0.076906	-0.121256
O7	O	1.110963	-0.076924	-0.107928
Cu8	Cu	0.989073	-0.090947	-0.114593
Cu9	Cu	0.989112	0.090800	-0.114584
O10	O	0.982412	-0.076913	-0.236480
C11	C	0.836010	-0.000062	-0.120701
C12	C	0.743060	-0.000055	-0.119049
N13	N	0.989051	-0.218778	-0.114598
C14	C	0.405312	-0.000074	-0.113117
C15	C	0.452746	-0.000418	-0.021565
C16	C	0.549436	-0.000065	-0.023217
C17	C	0.572873	-0.000065	-0.116060
C18	C	0.531804	0.087692	-0.161212
C19	C	0.435169	0.087759	-0.158912
C20	C	0.434792	-0.087007	-0.160812
C21	C	0.531737	-0.088160	-0.160790
C22	C	0.667570	-0.000057	-0.117727
C23	C	0.310614	-0.000076	-0.111452
C24	C	0.989111	-0.592869	-0.114581
C25	C	0.920095	-0.553698	-0.183135
C26	C	0.920254	-0.446610	-0.183385
C27	C	0.989081	-0.407278	-0.114590
C28	C	1.076445	-0.446122	-0.133671
C29	C	1.076057	-0.553243	-0.134159
C30	C	0.971542	-0.553398	-0.026741
C31	C	0.969538	-0.446270	-0.027327
C32	C	0.989069	-0.302390	-0.114593
C33	C	0.989128	-0.697757	-0.114579
C34	C	1.142175	-0.000083	-0.108476
C35	C	1.235125	-0.000084	-0.110127
C36	C	0.995205	-0.000073	0.038494
C37	C	0.993553	-0.000068	0.131444
N38	N	0.989140	0.218631	-0.114572
C39	C	0.982980	-0.000072	-0.267671
C40	C	0.984631	-0.000071	-0.360621
C41	C	0.987621	-0.000071	0.469192
C42	C	0.896069	0.000281	0.421758
C43	C	0.897721	-0.000066	0.325068
C44	C	0.990564	-0.000069	0.301631
C45	C	1.035701	-0.087831	0.342705
C46	C	1.033401	-0.087904	0.439340
C47	C	1.035330	0.086861	0.439707
C48	C	1.035309	0.088021	0.342762
C49	C	0.992231	-0.000071	0.206934
C50	C	0.985956	-0.000075	0.563890
H51	H	0.434210	-0.063352	0.015027
N52	N	1.096558	-0.586345	-0.219011
H53	H	1.153948	-0.562816	-0.229324
H54	H	1.052901	-0.562265	-0.264335
H55	H	1.102831	0.087449	0.471468
N56	N	1.031803	-0.410824	0.043417
H57	H	1.000941	-0.375257	0.084763
H58	H	1.073730	-0.368841	0.019726
H59	H	1.103909	-0.091097	0.328579
H60	H	1.100617	-0.091888	0.471588
N61	N	0.587084	-0.083394	0.023790
H62	H	0.540873	-0.120686	0.045775
H63	H	0.628445	-0.062366	0.072481
N64	N	1.038205	-0.586946	0.040840
H65	H	1.079591	-0.627514	0.014733
H66	H	1.010797	-0.623572	0.084073
H67	H	1.000459	-0.153505	0.457639
H68	H	0.414242	-0.153524	-0.130885
H69	H	0.547101	-0.093461	-0.228494
H70	H	0.403031	-0.087600	-0.228313
H71	H	1.005412	0.153379	0.460250
N72	N	0.850720	0.083263	0.287415
H73	H	0.828739	0.120552	0.333623
H74	H	0.802027	0.062232	0.246057
N75	N	0.994155	-0.174342	0.305101
H76	H	0.946103	-0.156886	0.261472
H77	H	0.971921	-0.211959	0.350961
H78	H	1.002307	0.152945	0.315516
N79	N	0.567893	-0.174162	-0.117133
H80	H	0.595931	-0.213129	-0.158314
H81	H	0.521194	-0.210757	-0.095256
N82	N	0.850383	-0.083541	0.288149
H83	H	0.851259	-0.084112	0.225113
H84	H	0.790235	-0.080790	0.301561
H85	H	1.129018	-0.579154	-0.086196
H86	H	0.859626	-0.062299	0.441349
N87	N	0.426794	0.082462	0.026708
H88	H	0.384446	0.120232	-0.010470
H89	H	0.477898	0.121594	0.044978
N90	N	0.586355	0.083408	0.024122
H91	H	0.561410	0.141467	-0.003462
H92	H	0.649388	0.083904	0.023239
H93	H	0.416874	0.153359	-0.125979
H94	H	0.855314	-0.420349	-0.172016
N95	N	0.833792	-0.587848	-0.168334
H96	H	0.838591	-0.629046	-0.117048
H97	H	0.808541	-0.623955	-0.219054
N98	N	0.550521	0.092032	-0.251559
H99	H	0.585886	0.037021	-0.264119
H100	H	0.582181	0.150852	-0.260835
N101	N	1.124996	0.095044	0.322424
H102	H	1.125504	0.098958	0.259440
H103	H	1.157422	0.038620	0.344593
N104	N	0.392444	0.092998	-0.247943
H105	H	0.436411	0.095262	-0.288508
H106	H	0.356553	0.150507	-0.254667
H107	H	0.931159	-0.580608	-0.247952
H108	H	0.560193	0.153002	-0.129845
N109	N	0.934891	-0.412643	-0.269788
H110	H	0.941294	-0.467258	-0.307854
H111	H	0.987744	-0.373931	-0.265495
H112	H	1.129029	-0.420643	-0.085068
N113	N	0.884403	-0.412636	-0.008174
H114	H	0.891043	-0.375684	0.045738
H115	H	0.846545	-0.467408	-0.001663
N116	N	1.097453	-0.410577	-0.217556
H117	H	1.050508	-0.369323	-0.243312
H118	H	1.104306	-0.464474	-0.256306
H119	H	0.909219	-0.580461	-0.008392
H120	H	0.859490	0.063217	0.440293
