data_functionalizedCrystal
_audit_creation_method	'MofGen! by Chris Wilmer'
_symmetry_space_group_name_H-M	'P1'
_symmetry_Int_Tables_number	1
_symmetry_cell_setting	triclinic
loop_
_symmetry_equiv_pos_as_xyz
  x,y,z
_cell_length_a	17.077404
_cell_length_b	25.639234
_cell_length_c	17.077402
_cell_angle_alpha	90.021263
_cell_angle_beta	90.021402
_cell_angle_gamma	90.020687
loop_
_atom_site_label
_atom_site_type_symbol
_atom_site_fract_x
_atom_site_fract_y
_atom_site_fract_z
Zn1	Zn	-1.200054	-0.295635	0.312617
Zn2	Zn	-0.866721	0.037699	0.645951
Zn3	Zn	-0.533388	0.371032	0.979284
Zn4	Zn	-1.199956	-0.208205	0.443878
Zn5	Zn	-0.866623	0.125129	0.777211
Zn6	Zn	-0.533289	0.458462	1.110545
Zn7	Zn	-1.068784	-0.208212	0.312624
Zn8	Zn	-0.735451	0.125121	0.645957
Zn9	Zn	-0.402117	0.458455	0.979290
Zn10	Zn	-1.068751	-0.295608	0.443838
Zn11	Zn	-0.735417	0.037726	0.777172
Zn12	Zn	-0.402084	0.371059	1.110505
O13	O	-1.134386	-0.251915	0.378239
O14	O	-0.801053	0.081419	0.711573
O15	O	-0.467720	0.414752	1.044906
O16	O	-1.309888	-0.284045	0.330043
O17	O	-0.976555	0.049288	0.663377
O18	O	-0.643222	0.382622	0.996710
O19	O	-1.182528	-0.135040	0.426486
O20	O	-0.849195	0.198293	0.759819
O21	O	-0.515862	0.531626	1.093153
O22	O	-1.086252	-0.219823	0.202776
O23	O	-0.752919	0.113510	0.536109
O24	O	-0.419586	0.446844	0.869442
O25	O	-1.309816	-0.219811	0.426480
O26	O	-0.976482	0.113523	0.759813
O27	O	-0.643149	0.446856	1.093147
O28	O	-1.182696	-0.284052	0.202771
O29	O	-0.849363	0.049281	0.536105
O30	O	-0.516029	0.382614	0.869438
O31	O	-1.086157	-0.135046	0.330054
O32	O	-0.752823	0.198288	0.663387
O33	O	-0.419490	0.531621	0.996721
O34	O	-0.958933	-0.219797	0.330015
O35	O	-0.625599	0.113536	0.663349
O36	O	-0.292266	0.446870	0.996682
O37	O	-1.086196	-0.368776	0.426412
O38	O	-0.752863	-0.035443	0.759746
O39	O	-0.419529	0.297890	1.093079
O40	O	-0.958908	-0.284006	0.426418
O41	O	-0.625575	0.049327	0.759752
O42	O	-0.292242	0.382660	1.093085
O43	O	-1.182664	-0.368796	0.330005
O44	O	-0.849331	-0.035463	0.663338
O45	O	-0.515997	0.297870	0.996672
O46	O	-1.182496	-0.219784	0.553720
O47	O	-0.849163	0.113549	0.887053
O48	O	-0.515830	0.446882	1.220386
O49	O	-1.086100	-0.283999	0.553691
O50	O	-0.752767	0.049334	0.887024
O51	O	-0.419434	0.382668	1.220357
C52	C	-0.930438	-0.251900	0.378214
C53	C	-0.597105	0.081434	0.711547
C54	C	-0.263772	0.414767	1.044881
C55	C	-0.843189	-0.251906	0.378222
C56	C	-0.509855	0.081428	0.711555
C57	C	-0.176522	0.414761	1.044889
C58	C	-0.802237	-0.285403	0.328096
C59	C	-0.468904	0.047930	0.661429
C60	C	-0.135570	0.381264	0.994763
C61	C	-0.720256	-0.285404	0.328100
C62	C	-0.386923	0.047929	0.661433
C63	C	-0.053590	0.381262	0.994766
C64	C	-0.679229	-0.251910	0.378234
C65	C	-0.345896	0.081423	0.711567
C66	C	-0.012563	0.414756	1.044901
C67	C	-0.720187	-0.218409	0.428362
C68	C	-0.386853	0.114924	0.761695
C69	C	-0.053520	0.448257	1.095029
C70	C	-0.802166	-0.218406	0.428354
C71	C	-0.468832	0.114927	0.761687
C72	C	-0.135499	0.448261	1.095020
C73	C	-0.549317	-0.218420	0.428377
C74	C	-0.215983	0.114914	0.761711
C75	C	0.117350	0.448247	1.095044
C76	C	-0.467332	-0.218424	0.428387
C77	C	-0.133999	0.114910	0.761720
C78	C	0.199335	0.448243	1.095053
C79	C	-0.467407	-0.285418	0.328123
C80	C	-0.134074	0.047915	0.661456
C81	C	0.199259	0.381249	0.994790
C82	C	-0.549386	-0.285415	0.328115
C83	C	-0.216053	0.047919	0.661448
C84	C	0.117280	0.381252	0.994781
C85	C	-0.590338	-0.251914	0.378244
C86	C	-0.257005	0.081419	0.711578
C87	C	0.076329	0.414753	1.044911
C88	C	-1.134305	-0.251899	0.582187
C89	C	-0.800972	0.081434	0.915521
C90	C	-0.467639	0.414767	1.248854
C91	C	-1.134343	-0.251910	0.669437
C92	C	-0.801009	0.081423	1.002770
C93	C	-0.467676	0.414756	1.336104
C94	C	-0.339130	-0.251926	0.378261
C95	C	-0.005797	0.081407	0.711595
C96	C	0.327536	0.414741	1.044928
C97	C	-0.426380	-0.251921	0.378261
C98	C	-0.093047	0.081412	0.711594
C99	C	0.240286	0.414746	1.044928
C100	C	-1.134437	-0.388288	0.378204
C101	C	-0.801104	-0.054954	0.711537
C102	C	-0.467771	0.278379	1.044870
C103	C	-1.134459	-0.446402	0.378188
C104	C	-0.801126	-0.113068	0.711522
C105	C	-0.467792	0.220265	1.044855
C106	C	-1.084300	-0.806773	0.327883
C107	C	-0.750967	-0.473440	0.661216
C108	C	-0.417634	-0.140107	0.994549
C109	C	-1.084305	-0.861378	0.327868
C110	C	-0.750971	-0.528044	0.661202
C111	C	-0.417638	-0.194711	0.994535
O112	O	-1.041618	-0.889621	0.285183
O113	O	-0.708285	-0.556288	0.618516
O114	O	-0.374952	-0.222955	0.951850
N115	N	-1.134485	-0.888684	0.378065
N116	N	-0.801152	-0.555351	0.711398
N117	N	-0.467818	-0.222018	1.044732
C118	C	-1.184659	-0.861384	0.428285
C119	C	-0.851326	-0.528051	0.761618
C120	C	-0.517992	-0.194717	1.094952
O121	O	-1.227341	-0.889625	0.470981
O122	O	-0.894008	-0.556291	0.804314
O123	O	-0.560674	-0.222958	1.137647
C124	C	-1.184650	-0.806781	0.428303
C125	C	-0.851317	-0.473447	0.761636
C126	C	-0.517983	-0.140114	1.094969
C127	C	-1.134472	-0.779477	0.378097
C128	C	-0.801139	-0.446143	0.711430
C129	C	-0.467805	-0.112810	1.044764
C130	C	-1.034126	-0.779469	0.277682
C131	C	-0.700792	-0.446136	0.611015
C132	C	-0.367459	-0.112803	0.944348
C133	C	-1.034123	-0.724869	0.277695
C134	C	-0.700789	-0.391535	0.611028
C135	C	-0.367456	-0.058202	0.944362
C136	C	-1.084294	-0.697572	0.327909
C137	C	-0.750961	-0.364239	0.661243
C138	C	-0.417628	-0.030906	0.994576
C139	C	-1.134469	-0.724876	0.378110
C140	C	-0.801136	-0.391543	0.711444
C141	C	-0.467802	-0.058210	1.044777
C142	C	-1.234819	-0.779481	0.478526
C143	C	-0.901486	-0.446148	0.811859
C144	C	-0.568153	-0.112815	1.145193
C145	C	-1.234806	-0.724874	0.478540
C146	C	-0.901473	-0.391541	0.811873
C147	C	-0.568139	-0.058208	1.145206
C148	C	-1.184628	-0.697570	0.428334
C149	C	-0.851294	-0.364237	0.761667
C150	C	-0.517961	-0.030904	1.095001
C151	C	-1.184638	-0.642979	0.428338
C152	C	-0.851304	-0.309646	0.761671
C153	C	-0.517971	0.023688	1.095005
N154	N	-1.134457	-0.615672	0.378141
N155	N	-0.801124	-0.282339	0.711475
N156	N	-0.467791	0.050994	1.044808
C157	C	-1.084286	-0.642969	0.327927
C158	C	-0.750952	-0.309636	0.661260
C159	C	-0.417619	0.023698	0.994594
C160	C	-1.184673	-0.976055	0.428245
C161	C	-0.851339	-0.642721	0.761579
C162	C	-0.518006	-0.309388	1.094912
C163	C	-1.184686	-1.030657	0.428224
C164	C	-0.851353	-0.697324	0.761558
C165	C	-0.518019	-0.363990	1.094891
C166	C	-1.084330	-1.030647	0.327808
C167	C	-0.750997	-0.697314	0.661142
C168	C	-0.417664	-0.363980	0.994475
C169	C	-1.084322	-0.976044	0.327826
C170	C	-0.750988	-0.642710	0.661159
C171	C	-0.417655	-0.309377	0.994493
C172	C	-1.134492	-0.948748	0.378048
C173	C	-0.801159	-0.615415	0.711382
C174	C	-0.467825	-0.282081	1.044715
C175	C	-1.084284	-0.528304	0.327958
C176	C	-0.750950	-0.194970	0.661292
C177	C	-0.417617	0.138363	0.994625
C178	C	-1.084287	-0.473698	0.327974
C179	C	-0.750954	-0.140365	0.661307
C180	C	-0.417621	0.192968	0.994641
C181	C	-1.184640	-0.473713	0.428392
C182	C	-0.851306	-0.140380	0.761726
C183	C	-0.517973	0.192953	1.095059
C184	C	-1.184639	-0.528314	0.428374
C185	C	-0.851306	-0.194981	0.761708
C186	C	-0.517972	0.138353	1.095041
C187	C	-1.134455	-0.555608	0.378155
C188	C	-0.801121	-0.222274	0.711488
C189	C	-0.467788	0.111059	1.044821
O190	O	-1.227300	-0.614701	0.471004
O191	O	-0.893967	-0.281367	0.804337
O192	O	-0.560633	0.051966	1.137671
O193	O	-1.041603	-0.614722	0.285246
O194	O	-0.708270	-0.281388	0.618579
O195	O	-0.374937	0.051945	0.951913
C196	C	-1.134381	-0.116072	0.378218
C197	C	-0.801047	0.217261	0.711552
C198	C	-0.467714	0.550594	1.044885
C199	C	-1.134511	-0.057958	0.378012
C200	C	-0.801178	0.275375	0.711346
C201	C	-0.467844	0.608708	1.044679
C202	C	-1.184586	-0.218511	0.710416
C203	C	-0.851253	0.114823	1.043750
C204	C	-0.517919	0.448156	1.377083
C205	C	-1.184622	-0.218526	0.792397
C206	C	-0.851289	0.114807	1.125730
C207	C	-0.517956	0.448140	1.459063
C208	C	-1.134411	-0.251939	0.833396
C209	C	-0.801077	0.081394	1.166730
C210	C	-0.467744	0.414727	1.500063
C211	C	-1.084165	-0.285343	0.792411
C212	C	-0.750832	0.047991	1.125745
C213	C	-0.417498	0.381324	1.459078
C214	C	-1.084133	-0.285329	0.710432
C215	C	-0.750800	0.048004	1.043766
C216	C	-0.417466	0.381337	1.377099
C217	C	-1.084233	-0.285367	0.963281
C218	C	-0.750900	0.047966	1.296615
C219	C	-0.417567	0.381300	1.629948
C220	C	-1.084264	-0.285380	1.045266
C221	C	-0.750930	0.047954	1.378599
C222	C	-0.417597	0.381287	1.711933
C223	C	-1.184723	-0.218564	1.045246
C224	C	-0.851389	0.114769	1.378579
C225	C	-0.518056	0.448102	1.711912
C226	C	-1.184691	-0.218551	0.963267
C227	C	-0.851357	0.114782	1.296600
C228	C	-0.518024	0.448116	1.629933
C229	C	-1.134444	-0.251954	0.922287
C230	C	-0.801110	0.081380	1.255621
C231	C	-0.467777	0.414713	1.588954
C232	C	-1.134483	-0.251948	1.173495
C233	C	-0.801149	0.081385	1.506828
C234	C	-0.467816	0.414718	1.840162
C235	C	-1.134507	-0.251980	1.086245
C236	C	-0.801174	0.081353	1.419579
C237	C	-0.467841	0.414686	1.752912
H238	H	-0.582789	-0.312691	0.287296
H239	H	-0.249455	0.020642	0.620629
H240	H	0.083878	0.353975	0.953962
F241	F	-0.980712	-0.695817	0.224262
F242	F	-0.647379	-0.362483	0.557596
F243	F	-0.314046	-0.029150	0.890929
F244	F	-1.288204	-0.695828	0.531997
F245	F	-0.954870	-0.362494	0.865330
F246	F	-0.621537	-0.029161	1.198664
F247	F	-0.980713	-0.808512	0.224240
F248	F	-0.647379	-0.475179	0.557574
F249	F	-0.314046	-0.141846	0.890907
H250	H	-0.835507	-0.191129	0.469171
H251	H	-0.502174	0.142205	0.802504
H252	H	-0.168841	0.475538	1.135838
F253	F	-0.845894	-0.321055	0.274739
F254	F	-0.512561	0.012278	0.608072
F255	F	-0.179227	0.345612	0.941406
F256	F	-1.030659	-0.320879	0.666820
F257	F	-0.697326	0.012454	1.000153
F258	F	-0.363992	0.345788	1.333486
H259	H	-0.433930	-0.191150	0.469211
H260	H	-0.100596	0.142183	0.802544
H261	H	0.232737	0.475516	1.135878
F262	F	-1.238101	-0.182979	0.836006
F263	F	-0.904767	0.150354	1.169340
F264	F	-0.571434	0.483687	1.502673
H265	H	-0.434061	-0.312694	0.287304
H266	H	-0.100727	0.020639	0.620638
H267	H	0.232606	0.353972	0.953971
F268	F	-0.592899	-0.182767	0.481734
F269	F	-0.259565	0.150567	0.815068
F270	F	0.073768	0.483900	1.148401
H271	H	-1.225638	-0.191368	1.078615
H272	H	-0.892305	0.141965	1.411948
H273	H	-0.558971	0.475298	1.745282
H274	H	-1.043392	-0.312597	1.078646
H275	H	-0.710058	0.020736	1.411979
H276	H	-0.376725	0.354069	1.745312
F277	F	-0.676676	-0.321058	0.274750
F278	F	-0.343343	0.012276	0.608084
F279	F	-0.010009	0.345609	0.941417
H280	H	-1.225471	-0.191300	0.677040
H281	H	-0.892137	0.142033	1.010373
H282	H	-0.558804	0.475367	1.343706
F283	F	-1.030915	-0.946990	0.274392
F284	F	-0.697581	-0.613656	0.607725
F285	F	-0.364248	-0.280323	0.941058
F286	F	-1.238131	-0.182989	0.919633
F287	F	-0.904797	0.150345	1.252967
F288	F	-0.571464	0.483678	1.586300
H289	H	-1.043285	-0.312550	0.825800
H290	H	-0.709952	0.020783	1.159133
H291	H	-0.376618	0.354117	1.492466
H292	H	-0.686776	-0.191135	0.469178
H293	H	-0.353442	0.142198	0.802512
H294	H	-0.020109	0.475531	1.135845
F295	F	-1.030880	-0.444642	0.274534
F296	F	-0.697547	-0.111309	0.607867
F297	F	-0.364214	0.222024	0.941201
H298	H	-1.043419	-0.550520	0.287064
H299	H	-0.710086	-0.217187	0.620397
H300	H	-0.376753	0.116147	0.953731
H301	H	-1.043477	-1.052882	0.286921
H302	H	-0.710144	-0.719548	0.620255
H303	H	-0.376811	-0.386215	0.953588
F304	F	-1.030756	-0.320920	0.919670
F305	F	-0.697423	0.012414	1.253003
F306	F	-0.364090	0.345747	1.586337
H307	H	-1.225555	-1.052883	0.469098
H308	H	-0.892221	-0.719550	0.802431
H309	H	-0.558888	-0.386217	1.135765
H310	H	-1.225537	-0.953834	0.469138
H311	H	-0.892204	-0.620501	0.802471
H312	H	-0.558870	-0.287167	1.135805
H313	H	-1.275679	-0.801703	0.519410
H314	H	-0.942346	-0.468370	0.852743
H315	H	-0.609013	-0.135036	1.186076
H316	H	-1.225507	-0.550546	0.469247
H317	H	-0.892174	-0.217213	0.802580
H318	H	-0.558840	0.116121	1.135914
H319	H	-1.225490	-0.451479	0.469273
H320	H	-0.892157	-0.118145	0.802607
H321	H	-0.558824	0.215188	1.135940
