data_functionalizedCrystal
_audit_creation_method	'MofGen! by Chris Wilmer'
_symmetry_space_group_name_H-M	'P1'
_symmetry_Int_Tables_number	1
_symmetry_cell_setting	triclinic
loop_
_symmetry_equiv_pos_as_xyz
  x,y,z
_cell_length_a	11.026623
_cell_length_b	9.483335
_cell_length_c	10.967829
_cell_angle_alpha	111.321163
_cell_angle_beta	83.619121
_cell_angle_gamma	101.374660
loop_
_atom_site_label
_atom_site_type_symbol
_atom_site_fract_x
_atom_site_fract_y
_atom_site_fract_z
O1	O	-1.573999	0.260272	0.556392
O2	O	-1.240666	0.593605	0.889726
O3	O	-0.907333	0.926939	1.223059
O4	O	-1.222598	0.244851	0.494830
O5	O	-0.889264	0.578185	0.828163
O6	O	-0.555931	0.911518	1.161497
O7	O	-1.413701	0.206038	0.339918
O8	O	-1.080368	0.539371	0.673252
O9	O	-0.747035	0.872705	1.006585
O10	O	-1.382896	0.299086	0.711304
O11	O	-1.049562	0.632419	1.044637
O12	O	-0.716229	0.965752	1.377971
O13	O	-1.452564	-0.043640	0.308380
O14	O	-1.119230	0.289694	0.641713
O15	O	-0.785897	0.623027	0.975046
O16	O	-1.261460	-0.004826	0.463292
O17	O	-0.928127	0.328507	0.796625
O18	O	-0.594793	0.661841	1.129958
O19	O	-1.612862	0.010595	0.524854
O20	O	-1.279528	0.343928	0.858187
O21	O	-0.946195	0.677261	1.191520
Cu22	Cu	-1.440709	-0.019913	0.491193
Cu23	Cu	-1.107376	0.313420	0.824526
Cu24	Cu	-0.774043	0.646753	1.157860
Cu25	Cu	-1.394750	0.275359	0.528491
Cu26	Cu	-1.061417	0.608693	0.861824
Cu27	Cu	-0.728083	0.942026	1.195158
O28	O	-1.421758	0.049408	0.679765
O29	O	-1.088425	0.382741	1.013099
O30	O	-0.755091	0.716075	1.346432
C31	C	-1.197169	0.117168	0.467704
C32	C	-0.863836	0.450501	0.801037
C33	C	-0.530503	0.783835	1.134371
C34	C	-1.063502	0.108687	0.433848
C35	C	-0.730169	0.442021	0.767182
C36	C	-0.396836	0.775354	1.100515
C37	C	-0.986805	0.132108	0.527327
C38	C	-0.653471	0.465442	0.860660
C39	C	-0.320138	0.798775	1.193994
C40	C	-0.848653	0.123344	0.492338
C41	C	-0.515319	0.456677	0.825671
C42	C	-0.181986	0.790010	1.159005
N43	N	-1.473043	-0.227592	0.464961
N44	N	-1.139710	0.105742	0.798294
N45	N	-0.806377	0.439075	1.131627
C46	C	-1.433827	0.069105	0.275865
C47	C	-1.100494	0.402438	0.609198
C48	C	-0.767161	0.735772	0.942532
C49	C	-1.435883	0.033068	0.131990
C50	C	-1.102550	0.366401	0.465324
C51	C	-0.769216	0.699735	0.798657
C52	C	-0.638290	0.138281	0.551979
C53	C	-0.304957	0.471614	0.885312
C54	C	0.028377	0.804947	1.218645
C55	C	-0.771956	0.146768	0.585831
C56	C	-0.438623	0.480102	0.919164
C57	C	-0.105289	0.813435	1.252497
C58	C	-1.431196	-0.458713	0.498926
C59	C	-1.097863	-0.125380	0.832259
C60	C	-0.764530	0.207954	1.165593
C61	C	-1.404263	-0.285837	0.520758
C62	C	-1.070929	0.047496	0.854091
C63	C	-0.737596	0.380829	1.187425
N64	N	-1.362426	0.483036	0.554715
N65	N	-1.029092	0.816369	0.888048
N66	N	-0.695759	1.149702	1.221382
C67	C	-1.416668	0.146343	0.084191
C68	C	-1.083334	0.479677	0.417524
C69	C	-0.750001	0.813010	0.750857
C70	C	-1.418792	0.109100	-0.064511
C71	C	-1.085459	0.442433	0.268823
C72	C	-0.752125	0.775766	0.602156
C73	C	-1.401631	0.186344	0.743819
C74	C	-1.068298	0.519678	1.077153
C75	C	-0.734965	0.853011	1.410486
C76	C	-1.399574	0.222391	0.887695
C77	C	-1.066241	0.555725	1.221028
C78	C	-0.732907	0.889058	1.554362
H79	H	-1.026882	0.082185	0.327919
H80	H	-0.693549	0.415518	0.661252
H81	H	-0.360216	0.748851	0.994586
H82	H	-1.023420	0.158641	0.633260
H83	H	-0.690087	0.491974	0.966593
H84	H	-0.356753	0.825307	1.299927
H85	H	-1.551870	-0.305698	0.401036
H86	H	-1.218536	0.027635	0.734369
H87	H	-0.885203	0.360969	1.067703
O88	O	-1.535601	-0.562175	0.414249
O89	O	-1.202268	-0.228842	0.747582
O90	O	-0.868935	0.104491	1.080916
H91	H	-1.624356	-0.522455	0.456475
H92	H	-1.291023	-0.189122	0.789808
H93	H	-0.957690	0.144212	1.123142
H94	H	-0.812039	0.096840	0.386402
H95	H	-0.478705	0.430173	0.719735
H96	H	-0.145372	0.763506	1.053069
O97	O	-1.299834	-0.182398	0.605421
O98	O	-0.966501	0.150935	0.938754
O99	O	-0.633168	0.484269	1.272087
H100	H	-1.295053	-0.062852	0.609265
H101	H	-0.961719	0.270481	0.942598
H102	H	-0.628386	0.603815	1.275932
H103	H	-1.283613	-0.438851	0.618647
H104	H	-0.950280	-0.105517	0.951980
H105	H	-0.616946	0.227816	1.285313
H106	H	-1.436809	-0.015460	-0.133673
H107	H	-1.103476	0.317873	0.199661
H108	H	-0.770143	0.651206	0.532994
O109	O	-1.392788	0.311335	0.175790
O110	O	-1.059454	0.644668	0.509123
O111	O	-0.726121	0.978001	0.842456
H112	H	-1.394872	0.314696	0.278212
H113	H	-1.061539	0.648029	0.611546
H114	H	-0.728206	0.981362	0.944879
O115	O	-1.375700	0.387392	-0.020712
O116	O	-1.042366	0.720726	0.312622
O117	O	-0.709033	1.054059	0.645955
H118	H	-1.377786	0.390758	0.081712
H119	H	-1.044453	0.724091	0.415046
H120	H	-0.711120	1.057424	0.748379
H121	H	-0.808564	0.173301	0.691771
H122	H	-0.475231	0.506635	1.025104
H123	H	-0.141897	0.839968	1.358437
O124	O	-1.459776	-0.131923	0.040393
O125	O	-1.126443	0.201410	0.373726
O126	O	-0.793110	0.534743	0.707059
H127	H	-1.457712	-0.135284	-0.062028
H128	H	-1.124379	0.198050	0.271305
H129	H	-0.791045	0.531383	0.604639
