data_functionalizedCrystal
_audit_creation_method	'MofGen! by Chris Wilmer'
_symmetry_space_group_name_H-M	'P1'
_symmetry_Int_Tables_number	1
_symmetry_cell_setting	triclinic
loop_
_symmetry_equiv_pos_as_xyz
  x,y,z
_cell_length_a	6.817900
_cell_length_b	23.752966
_cell_length_c	9.514088
_cell_angle_alpha	93.109599
_cell_angle_beta	118.843545
_cell_angle_gamma	100.066535
loop_
_atom_site_label
_atom_site_type_symbol
_atom_site_fract_x
_atom_site_fract_y
_atom_site_fract_z
V1	V	-4.200834	-0.080176	-0.501656
O2	O	-4.201945	0.002809	-0.491179
O3	O	-4.134896	-0.157972	-0.499117
O4	O	-4.235773	-0.079401	-0.720039
O5	O	-4.100370	-0.076306	-0.268728
V6	V	-4.675936	-0.070196	-0.473688
O7	O	-4.480566	-0.102068	-0.563007
O8	O	-4.846402	-0.048304	-0.412337
O9	O	-4.518667	0.007600	-0.476226
O10	O	-4.792222	-0.153181	-0.484165
O11	O	-4.893797	-0.074066	-0.706615
O12	O	-4.417791	-0.070971	-0.255305
C13	C	-3.972934	-0.176922	-0.491434
C14	C	-4.000865	-0.240524	-0.490814
C15	C	-4.101611	-0.076697	-0.773239
C16	C	-4.211345	-0.076577	-0.951773
C17	C	-4.358949	-0.637867	-0.495191
C18	C	-4.385236	-0.697629	-0.494633
O19	O	-4.555820	-0.731034	-0.501244
N20	N	-4.213817	-0.724588	-0.486297
C21	C	-4.016108	-0.691783	-0.478535
O22	O	-3.872718	-0.720201	-0.471395
C23	C	-3.989831	-0.632022	-0.479104
C24	C	-4.161252	-0.605065	-0.487425
C25	C	-4.530356	-0.610910	-0.503512
C26	C	-4.504068	-0.551151	-0.504067
C27	C	-4.306372	-0.518349	-0.496300
C28	C	-4.134964	-0.545306	-0.487979
C29	C	-3.792132	-0.599218	-0.471354
C30	C	-3.765869	-0.539453	-0.471925
C31	C	-3.937291	-0.512496	-0.480245
C32	C	-3.910980	-0.452746	-0.480767
N33	N	-4.082398	-0.425787	-0.489104
C34	C	-4.280094	-0.458589	-0.496870
C35	C	-4.071309	-0.817285	-0.477342
C36	C	-4.097576	-0.877044	-0.476761
C37	C	-4.466704	-0.882887	-0.492862
C38	C	-4.440427	-0.823126	-0.493432
C39	C	-4.242727	-0.790326	-0.485678
C40	C	-4.224872	-0.333091	-0.498033
C41	C	-4.198561	-0.273326	-0.498580
C42	C	-3.829441	-0.267489	-0.482488
C43	C	-3.855743	-0.327248	-0.481932
C44	C	-4.053478	-0.360048	-0.489711
O45	O	-3.740464	-0.419305	-0.474167
O46	O	-4.423469	-0.430164	-0.504030
C47	C	-4.343969	0.026547	-0.483906
C48	C	-4.295281	0.090149	-0.484536
C49	C	-4.215291	-0.073677	-0.202097
C50	C	-4.084796	-0.073794	-0.023560
H51	H	-3.892507	-0.071507	-0.948439
Br52	Br	-4.531872	-0.080401	-1.076988
H53	H	-4.338158	-0.251381	-0.505350
H54	H	-4.385884	-0.359790	-0.504370
Br55	Br	-4.798689	-0.655416	-0.514056
Br56	Br	-4.673084	-0.786548	-0.504728
H57	H	-4.643668	-0.529209	-0.510853
H58	H	-3.957970	-0.898985	-0.469965
Br59	Br	-3.561131	-0.222960	-0.471924
Br60	Br	-4.735020	-0.927415	-0.503412
Br61	Br	-3.802969	-0.772775	-0.466802
Br62	Br	-3.497556	-0.494942	-0.461413
Br63	Br	-3.623096	-0.363833	-0.470634
H64	H	-3.652528	-0.621154	-0.464567
