data_functionalizedCrystal
_audit_creation_method	'MofGen! by Chris Wilmer'
_symmetry_space_group_name_H-M	'P1'
_symmetry_Int_Tables_number	1
_symmetry_cell_setting	triclinic
loop_
_symmetry_equiv_pos_as_xyz
  x,y,z
_cell_length_a	14.044220
_cell_length_b	14.044220
_cell_length_c	13.101018
_cell_angle_alpha	86.320065
_cell_angle_beta	86.337807
_cell_angle_gamma	86.811123
loop_
_atom_site_label
_atom_site_type_symbol
_atom_site_fract_x
_atom_site_fract_y
_atom_site_fract_z
O1	O	1.272353	-0.234994	0.085219
O2	O	1.605687	0.098339	0.418552
O3	O	1.939020	0.431673	0.751885
O4	O	0.995682	-0.226689	0.085221
O5	O	1.329015	0.106645	0.418554
O6	O	1.662348	0.439978	0.751888
O7	O	1.129865	-0.092505	0.085210
O8	O	1.463198	0.240828	0.418543
O9	O	1.796532	0.574162	0.751876
O10	O	1.138170	-0.369178	0.085230
O11	O	1.471503	-0.035844	0.418563
O12	O	1.804836	0.297489	0.751897
O13	O	1.139481	-0.082847	-0.085221
O14	O	1.472815	0.250487	0.248112
O15	O	1.806148	0.583820	0.581445
O16	O	1.005298	-0.217030	-0.085210
O17	O	1.338631	0.116303	0.248123
O18	O	1.671964	0.449637	0.581457
O19	O	1.281969	-0.225336	-0.085212
O20	O	1.615303	0.107998	0.248121
O21	O	1.948636	0.441331	0.581454
Zn22	Zn	1.145160	-0.219649	-0.112271
Zn23	Zn	1.478494	0.113684	0.221062
Zn24	Zn	1.811827	0.447017	0.554396
Zn25	Zn	1.132491	-0.232375	0.112279
Zn26	Zn	1.465824	0.100959	0.445613
Zn27	Zn	1.799157	0.434292	0.778946
O28	O	1.147786	-0.359519	-0.085201
O29	O	1.481119	-0.026186	0.248132
O30	O	1.814452	0.307147	0.581465
C31	C	0.964868	-0.218224	0.000006
C32	C	1.298201	0.115110	0.333339
C33	C	1.631534	0.448443	0.666672
C34	C	0.858725	-0.207379	0.000006
C35	C	1.192058	0.125954	0.333340
C36	C	1.525392	0.459288	0.666673
C37	C	1.312783	-0.233801	0.000005
C38	C	1.646116	0.099533	0.333338
C39	C	1.979450	0.432866	0.666672
C40	C	1.418925	-0.244646	0.000011
C41	C	1.752259	0.088688	0.333345
C42	C	2.085592	0.422021	0.666678
C43	C	1.131038	-0.052054	-0.000006
C44	C	1.464371	0.281279	0.333327
C45	C	1.797704	0.614613	0.666660
C46	C	1.120193	0.054089	-0.000007
C47	C	1.453526	0.387422	0.333326
C48	C	1.786860	0.720756	0.666659
C49	C	1.613263	-0.264472	0.000012
C50	C	1.946596	0.068861	0.333345
C51	C	2.279930	0.402195	0.666678
C52	C	1.664393	-0.187557	0.000006
C53	C	1.997727	0.145776	0.333339
C54	C	2.331060	0.479110	0.666672
C55	C	1.772529	-0.198589	0.000006
C56	C	2.105863	0.134745	0.333339
C57	C	2.439196	0.468078	0.666673
C58	C	1.505117	-0.253442	0.000012
C59	C	1.838450	0.079892	0.333345
C60	C	2.171784	0.413225	0.666678
C61	C	1.146613	-0.399970	0.000017
C62	C	1.479947	-0.066637	0.333350
C63	C	1.813280	0.266696	0.666684
C64	C	1.157457	-0.506114	0.000025
C65	C	1.490791	-0.172780	0.333358
C66	C	1.824124	0.160553	0.666692
N67	N	1.153814	-0.210965	-0.265521
N68	N	1.487147	0.122369	0.067813
N69	N	1.820481	0.455702	0.401146
C70	C	1.100366	0.248426	0.000008
C71	C	1.433699	0.581759	0.333341
C72	C	1.767033	0.915092	0.666674
C73	C	1.177280	0.299555	0.000010
C74	C	1.510614	0.632889	0.333343
C75	C	1.843947	0.966222	0.666677
C76	C	1.166248	0.407691	0.000018
C77	C	1.499581	0.741025	0.333352
C78	C	1.832915	1.074358	0.666685
C79	C	1.111397	0.140280	-0.000001
C80	C	1.444730	0.473613	0.333333
C81	C	1.778063	0.806947	0.666666
N82	N	1.123844	-0.241053	0.265529
N83	N	1.457177	0.092281	0.598863
N84	N	1.790511	0.425614	0.932196
C85	C	1.165582	-0.199163	0.525435
C86	C	1.498916	0.134170	0.858768
C87	C	1.832249	0.467503	1.192102
C88	C	1.112079	-0.252851	0.474567
C89	C	1.445412	0.080482	0.807900
C90	C	1.778745	0.413816	1.141234
C91	C	1.118627	-0.246285	0.358247
C92	C	1.451960	0.087049	0.691581
C93	C	1.785293	0.420382	1.024914
C94	C	1.159035	-0.205729	0.641765
C95	C	1.492369	0.127605	0.975098
C96	C	1.825702	0.460938	1.308432
H97	H	1.650700	-0.338600	0.000018
H98	H	1.984033	-0.005266	0.333351
H99	H	2.317366	0.328067	0.666685
N100	N	1.275485	0.249979	-0.000013
N101	N	1.608818	0.583313	0.333320
N102	N	1.942151	0.916646	0.666653
H103	H	1.307792	0.265447	0.063162
H104	H	1.641125	0.598780	0.396495
H105	H	1.974459	0.932113	0.729829
H106	H	1.269477	0.178654	-0.000062
H107	H	1.602811	0.511988	0.333272
H108	H	1.936144	0.845321	0.666605
H109	H	1.626950	-0.113428	0.000075
H110	H	1.960284	0.219906	0.333408
H111	H	2.293617	0.553239	0.666741
N112	N	1.002172	0.298008	0.000010
N113	N	1.335505	0.631341	0.333343
N114	N	1.668838	0.964674	0.666676
H115	H	1.008112	0.369347	0.000012
H116	H	1.341445	0.702681	0.333345
H117	H	1.674779	1.036014	0.666679
H118	H	0.969930	0.282465	-0.063176
H119	H	1.303263	0.615798	0.270157
H120	H	1.636596	0.949131	0.603491
N121	N	1.044887	-0.320269	0.532586
N122	N	1.378220	0.013065	0.865919
N123	N	1.711553	0.346398	1.199252
H124	H	1.049670	-0.315463	0.608661
H125	H	1.383003	0.017870	0.941994
H126	H	1.716337	0.351203	1.275328
H127	H	0.977240	-0.302560	0.513896
H128	H	1.310573	0.030773	0.847229
H129	H	1.643906	0.364107	1.180562
N130	N	1.232769	-0.131750	0.467417
N131	N	1.566102	0.201583	0.800750
N132	N	1.899435	0.534917	1.134083
H133	H	1.227978	-0.136557	0.391343
H134	H	1.561311	0.196776	0.724676
H135	H	1.894645	0.530110	1.058010
H136	H	1.214847	-0.064145	0.486089
H137	H	1.548181	0.269188	0.819423
H138	H	1.881514	0.602521	1.152756
