data_functionalizedCrystal
_audit_creation_method	'MofGen! by Chris Wilmer'
_symmetry_space_group_name_H-M	'P1'
_symmetry_Int_Tables_number	1
_symmetry_cell_setting	triclinic
loop_
_symmetry_equiv_pos_as_xyz
  x,y,z
_cell_length_a	19.288840
_cell_length_b	14.519709
_cell_length_c	17.766277
_cell_angle_alpha	90.014774
_cell_angle_beta	89.983415
_cell_angle_gamma	96.596921
loop_
_atom_site_label
_atom_site_type_symbol
_atom_site_fract_x
_atom_site_fract_y
_atom_site_fract_z
O1	O	0.921778	-0.114935	-0.062734
O2	O	0.719571	-0.130478	-0.062710
O3	O	0.826035	0.011566	-0.062701
O4	O	0.815313	-0.256980	-0.062742
O5	O	0.826017	0.011574	0.062487
O6	O	0.719552	-0.130471	0.062479
O7	O	0.921759	-0.114928	0.062455
Cu8	Cu	0.820654	-0.122699	0.073898
Cu9	Cu	0.820676	-0.122707	-0.074152
O10	O	0.815294	-0.256973	0.062446
C11	C	0.693683	-0.129979	-0.000112
C12	C	0.616573	-0.128489	-0.000102
C13	C	0.580377	-0.127777	-0.068344
C14	C	0.507925	-0.126367	-0.068353
C15	C	0.471673	-0.125650	-0.000116
C16	C	0.507878	-0.126367	0.068135
C17	C	0.580327	-0.127787	0.068142
C18	C	0.362135	-0.069381	0.052161
C19	C	0.289688	-0.067956	0.052151
C20	C	0.248214	-0.121276	-0.000135
C21	C	0.279198	-0.176010	-0.052424
C22	C	0.351648	-0.177429	-0.052417
C23	C	0.393114	-0.124112	-0.000116
C24	C	0.133457	-0.119037	-0.068391
C25	C	0.061003	-0.117633	-0.068397
C26	C	0.060958	-0.117624	0.068093
C27	C	0.133410	-0.119037	0.068097
C28	C	0.169656	-0.119740	-0.000147
C29	C	0.825526	0.045927	-0.000103
C30	C	0.824029	0.148298	-0.000092
C31	C	0.818516	0.523158	-0.000071
C32	C	0.820047	0.418860	-0.000076
C33	C	0.821272	0.335732	-0.000080
C34	C	0.822804	0.231427	-0.000087
C35	C	0.947647	-0.115428	-0.000145
C36	C	1.024757	-0.116917	-0.000160
C37	C	0.815803	0.708667	-0.000127
C38	C	0.817301	0.606296	-0.000063
N39	N	0.820643	-0.122692	0.178028
N40	N	0.820692	-0.122707	-0.178283
C41	C	0.867801	-0.059826	0.217418
C42	C	0.867805	-0.059821	0.296220
C43	C	0.820658	-0.122700	0.335628
C44	C	0.773491	-0.185571	0.296228
C45	C	0.773484	-0.185568	0.217428
C46	C	0.811661	-0.206729	0.460454
C47	C	0.811673	-0.206734	0.539253
C48	C	0.820676	-0.122711	0.578675
C49	C	0.829682	-0.038679	0.539288
C50	C	0.829675	-0.038676	0.460487
C51	C	0.820660	-0.122710	0.421074
C52	C	0.867841	-0.059834	0.703511
C53	C	0.867840	-0.059829	0.782314
C54	C	0.773530	-0.185587	0.782321
C55	C	0.773527	-0.185584	0.703519
C56	C	0.820687	-0.122709	0.664119
H57	H	0.162969	-0.119619	-0.123960
Cl58	Cl	0.840987	0.066959	0.410975
H59	H	0.609884	-0.128349	-0.123913
H60	H	0.906240	-0.008630	0.814387
Cl61	Cl	0.462305	-0.125472	0.153919
Cl62	Cl	0.390597	-0.246238	-0.118145
Cl63	Cl	0.462412	-0.125471	-0.154149
Cl64	Cl	0.015391	-0.116732	0.153877
Cl65	Cl	0.178916	-0.119926	0.153892
H66	H	0.245431	-0.219432	-0.094998
H67	H	0.735102	-0.236766	0.328318
H68	H	0.735139	-0.236780	0.814407
Cl69	Cl	0.015499	-0.116746	-0.154196
H70	H	0.906239	-0.008634	0.671430
H71	H	0.735081	-0.236762	0.185355
H72	H	0.264467	-0.023385	0.094725
Cl73	Cl	0.414267	-0.002345	0.117900
Cl74	Cl	0.625833	-0.128680	0.153940
Cl75	Cl	0.841006	0.066957	0.588837
Cl76	Cl	0.714244	-0.264625	0.653995
Cl77	Cl	0.800357	-0.312372	0.588760
Cl78	Cl	0.927082	0.019220	0.167887
Cl79	Cl	0.800407	-0.312371	0.410904
H80	H	0.906208	-0.008626	0.328298
