data_functionalizedCrystal
_audit_creation_method	'MofGen! by Chris Wilmer'
_symmetry_space_group_name_H-M	'P1'
_symmetry_Int_Tables_number	1
_symmetry_cell_setting	triclinic
loop_
_symmetry_equiv_pos_as_xyz
  x,y,z
_cell_length_a	19.188925
_cell_length_b	19.188930
_cell_length_c	17.666332
_cell_angle_alpha	89.988397
_cell_angle_beta	89.989697
_cell_angle_gamma	83.143665
loop_
_atom_site_label
_atom_site_type_symbol
_atom_site_fract_x
_atom_site_fract_y
_atom_site_fract_z
O1	O	0.926152	0.087151	-0.062973
O2	O	0.722840	0.098889	-0.062972
O3	O	0.830363	-0.008636	-0.062958
O4	O	0.818629	0.194676	-0.062987
O5	O	0.830344	-0.008642	0.062939
O6	O	0.722821	0.098883	0.062925
O7	O	0.926133	0.087145	0.062924
Cu8	Cu	0.824476	0.093014	0.074419
Cu9	Cu	0.824498	0.093020	-0.074468
O10	O	0.818610	0.194670	0.062909
C11	C	0.696820	0.098507	-0.000023
C12	C	0.619315	0.097367	-0.000022
C13	C	0.057545	0.152831	-0.000032
C14	C	0.130368	0.153908	-0.000037
C15	C	0.175302	0.090816	-0.000026
C16	C	0.147408	0.026642	-0.000031
C17	C	0.074586	0.025568	-0.000034
N18	N	0.295973	0.045138	0.042837
N19	N	0.365150	0.046163	0.042842
C20	C	0.394712	0.094050	-0.000018
N21	N	0.352481	0.140883	-0.042872
N22	N	0.283297	0.139860	-0.042874
C23	C	0.254267	0.091974	-0.000023
C24	C	0.501561	0.159386	-0.000023
C25	C	0.574385	0.160460	-0.000032
C26	C	0.591425	0.033193	-0.000018
C27	C	0.518601	0.032121	-0.000017
C28	C	0.473673	0.095220	-0.000016
C29	C	0.829974	-0.034650	-0.000007
C30	C	0.828833	-0.112154	-0.000001
C31	C	0.891924	-0.157079	0.000003
C32	C	0.890852	-0.229903	-0.000010
C33	C	0.826686	-0.257799	-0.000010
C34	C	0.763587	-0.212864	-0.000017
C35	C	0.764660	-0.140041	-0.000013
N36	N	0.777632	-0.365805	0.042835
N37	N	0.776617	-0.434983	0.042833
C38	C	0.823448	-0.477207	-0.000025
N39	N	0.871344	-0.447641	-0.042871
N40	N	0.872361	-0.378456	-0.042865
C41	C	0.825515	-0.336761	-0.000015
C42	C	0.885381	-0.601097	-0.000036
C43	C	0.884307	-0.673922	-0.000053
C44	C	0.757040	-0.656880	-0.000053
C45	C	0.758116	-0.584057	-0.000044
C46	C	0.822289	-0.556170	-0.000032
C47	C	0.952154	0.087527	-0.000027
C48	C	1.029658	0.088666	-0.000033
C49	C	0.819000	0.220684	-0.000043
C50	C	0.820140	0.298188	-0.000054
N51	N	0.824465	0.093008	0.179139
N52	N	0.824514	0.093020	-0.179187
C53	C	0.872092	0.045420	0.218755
C54	C	0.872096	0.045416	0.298003
C55	C	0.824480	0.093014	0.337631
C56	C	0.776844	0.140606	0.298005
C57	C	0.776837	0.140604	0.218759
N58	N	0.815404	0.154821	0.462041
N59	N	0.815415	0.154821	0.537321
C60	C	0.824498	0.093023	0.576395
N61	N	0.833584	0.031223	0.537345
N62	N	0.833576	0.031223	0.462057
C63	C	0.824482	0.093022	0.423560
C64	C	0.872132	0.045427	0.701940
C65	C	0.872131	0.045423	0.781190
C66	C	0.776883	0.140619	0.781191
C67	C	0.776880	0.140617	0.701943
C68	C	0.824509	0.093022	0.662323
H69	H	0.051883	-0.026685	-0.000035
Cl70	Cl	0.001068	0.232156	-0.000041
Cl71	Cl	0.716960	0.200435	0.168953
Cl72	Cl	0.483542	-0.048549	-0.000020
Cl73	Cl	0.932005	-0.014412	0.830996
Cl74	Cl	0.609442	0.241132	-0.000039
H75	H	0.711342	-0.235581	-0.000019
Cl76	Cl	0.676372	-0.691942	-0.000058
Cl77	Cl	0.970173	-0.286391	-0.000006
Cl78	Cl	0.931962	-0.014416	0.168947
H79	H	0.464978	0.210765	-0.000023
H80	H	0.628010	-0.018178	-0.000016
Cl81	Cl	0.972598	-0.122025	-0.000004
H82	H	0.738111	0.179371	0.813456
H83	H	0.713282	-0.103462	-0.000015
H84	H	0.706740	-0.547478	-0.000042
Cl85	Cl	0.931975	-0.014415	0.347814
Cl86	Cl	0.717008	0.200449	0.652135
Cl87	Cl	0.716981	0.200440	0.347822
Cl88	Cl	0.165434	0.234579	-0.000034
Cl89	Cl	0.203896	-0.052674	-0.000021
H90	H	0.910911	0.006670	0.669680
H91	H	0.935686	-0.710500	-0.000054
Cl92	Cl	0.966054	-0.566035	-0.000016
