data_functionalizedCrystal
_audit_creation_method	'MofGen! by Chris Wilmer'
_symmetry_space_group_name_H-M	'P1'
_symmetry_Int_Tables_number	1
_symmetry_cell_setting	triclinic
loop_
_symmetry_equiv_pos_as_xyz
  x,y,z
_cell_length_a	18.101398
_cell_length_b	18.101397
_cell_length_c	17.077396
_cell_angle_alpha	89.966723
_cell_angle_beta	89.977519
_cell_angle_gamma	90.015732
loop_
_atom_site_label
_atom_site_type_symbol
_atom_site_fract_x
_atom_site_fract_y
_atom_site_fract_z
Zn1	Zn	1.132162	-0.294911	-0.443939
Zn2	Zn	1.382162	-0.044911	-0.193939
Zn3	Zn	1.632162	0.205089	0.056061
Zn4	Zn	1.882162	0.455089	0.306061
Zn5	Zn	1.132085	-0.418763	-0.312665
Zn6	Zn	1.382085	-0.168763	-0.062665
Zn7	Zn	1.632085	0.081237	0.187335
Zn8	Zn	1.882085	0.331237	0.437335
Zn9	Zn	1.008325	-0.294930	-0.312674
Zn10	Zn	1.258325	-0.044930	-0.062674
Zn11	Zn	1.508325	0.205070	0.187326
Zn12	Zn	1.758325	0.455070	0.437326
Zn13	Zn	1.008295	-0.418705	-0.443877
Zn14	Zn	1.258295	-0.168705	-0.193877
Zn15	Zn	1.508295	0.081295	0.056123
Zn16	Zn	1.758295	0.331295	0.306123
O17	O	1.070217	-0.356828	-0.378289
O18	O	1.320217	-0.106828	-0.128289
O19	O	1.570217	0.143172	0.121711
O20	O	1.820217	0.393172	0.371711
O21	O	1.235785	-0.311357	-0.426547
O22	O	1.485785	-0.061357	-0.176547
O23	O	1.735785	0.188643	0.073453
O24	O	1.985785	0.438643	0.323453
O25	O	1.115648	-0.402369	-0.202820
O26	O	1.365648	-0.152369	0.047180
O27	O	1.615648	0.097631	0.297180
O28	O	1.865648	0.347631	0.547180
O29	O	1.024797	-0.191295	-0.330117
O30	O	1.274797	0.058705	-0.080117
O31	O	1.524797	0.308705	0.169883
O32	O	1.774797	0.558705	0.419883
O33	O	1.235728	-0.402351	-0.330101
O34	O	1.485728	-0.152351	-0.080101
O35	O	1.735728	0.097649	0.169899
O36	O	1.985728	0.347649	0.419899
O37	O	1.115780	-0.191281	-0.426556
O38	O	1.365780	0.058719	-0.176556
O39	O	1.615780	0.308719	0.073444
O40	O	1.865780	0.558719	0.323444
O41	O	1.024723	-0.311389	-0.202826
O42	O	1.274723	-0.061389	0.047174
O43	O	1.524723	0.188611	0.297174
O44	O	1.774723	0.438611	0.547174
O45	O	0.904688	-0.311333	-0.330056
O46	O	1.154688	-0.061333	-0.080056
O47	O	1.404688	0.188667	0.169944
O48	O	1.654688	0.438667	0.419944
O49	O	1.024746	-0.402252	-0.553732
O50	O	1.274746	-0.152252	-0.303732
O51	O	1.524746	0.097748	-0.053732
O52	O	1.774746	0.347748	0.196268
O53	O	0.904666	-0.402270	-0.426450
O54	O	1.154666	-0.152270	-0.176450
O55	O	1.404666	0.097730	0.073550
O56	O	1.654666	0.347730	0.323550
O57	O	1.115751	-0.311301	-0.553778
O58	O	1.365751	-0.061301	-0.303778
O59	O	1.615751	0.188699	-0.053778
O60	O	1.865751	0.438699	0.196222
O61	O	1.115619	-0.522389	-0.330041
O62	O	1.365619	-0.272389	-0.080041
O63	O	1.615619	-0.022389	0.169959
O64	O	1.865619	0.227611	0.419959
O65	O	1.024671	-0.522346	-0.426441
O66	O	1.274671	-0.272346	-0.176441
O67	O	1.524671	-0.022346	0.073559
O68	O	1.774671	0.227654	0.323559
C69	C	0.877806	-0.356797	-0.378248
C70	C	1.127806	-0.106797	-0.128248
C71	C	1.377806	0.143203	0.121752
C72	C	1.627806	0.393203	0.371752
C73	C	0.795492	-0.356802	-0.378249
C74	C	1.045492	-0.106802	-0.128249
C75	C	1.295492	0.143198	0.121751
C76	C	1.545492	0.393198	0.371751
C77	C	0.496401	-0.356849	-0.378315
C78	C	0.746401	-0.106849	-0.128315
C79	C	0.996401	0.143151	0.121685
C80	C	1.246401	0.393151	0.371685
C81	C	0.527716	-0.299347	-0.317962
C82	C	0.777716	-0.049347	-0.067962
C83	C	1.027716	0.200653	0.182038
C84	C	1.277716	0.450653	0.432038
C85	C	0.613334	-0.299502	-0.317705
C86	C	0.863334	-0.049502	-0.067705
C87	C	1.113334	0.200498	0.182295
C88	C	1.363334	0.450498	0.432295
C89	C	0.644784	-0.356825	-0.378282
C90	C	0.894784	-0.106825	-0.128282
C91	C	1.144784	0.143175	0.121718
C92	C	1.394784	0.393175	0.371718
C93	C	0.613681	-0.434838	-0.355675
C94	C	0.863681	-0.184838	-0.105675
C95	C	1.113681	0.065162	0.144325
C96	C	1.363681	0.315162	0.394325
C97	C	0.528036	-0.434518	-0.355256
C98	C	0.778036	-0.184518	-0.105256
C99	C	1.028036	0.065482	0.144744
C100	C	1.278036	0.315482	0.394744
C101	C	0.528010	-0.337016	-0.461416
C102	C	0.778010	-0.087016	-0.211416
C103	C	1.028010	0.162984	0.038584
C104	C	1.278010	0.412984	0.288584
C105	C	0.613660	-0.335278	-0.460963
C106	C	0.863660	-0.085278	-0.210963
C107	C	1.113660	0.164722	0.039037
C108	C	1.363660	0.414722	0.289037
C109	C	0.728643	-0.356817	-0.378265
C110	C	0.978643	-0.106817	-0.128265
C111	C	1.228643	0.143183	0.121735
C112	C	1.478643	0.393183	0.371735
C113	C	0.412542	-0.356862	-0.378330
C114	C	0.662542	-0.106862	-0.128330
C115	C	0.912542	0.143138	0.121670
C116	C	1.162542	0.393138	0.371670
C117	C	1.070154	-0.549238	-0.378251
C118	C	1.320154	-0.299238	-0.128251
C119	C	1.570154	-0.049238	0.121749
C120	C	1.820154	0.200762	0.371749
C121	C	1.070194	-0.631552	-0.378261
C122	C	1.320194	-0.381552	-0.128261
C123	C	1.570194	-0.131552	0.121739
C124	C	1.820194	0.118448	0.371739
C125	C	1.070289	-0.930643	-0.378332
C126	C	1.320289	-0.680643	-0.128332
C127	C	1.570289	-0.430643	0.121668
C128	C	1.820289	-0.180643	0.371668
C129	C	1.127351	-0.899314	-0.317517
C130	C	1.377351	-0.649314	-0.067517
C131	C	1.627351	-0.399314	0.182483
C132	C	1.877351	-0.149314	0.432483
C133	C	1.127549	-0.813695	-0.317675
C134	C	1.377549	-0.563695	-0.067675
C135	C	1.627549	-0.313695	0.182325
C136	C	1.877549	-0.063695	0.432325
C137	C	1.070242	-0.782261	-0.378296
C138	C	1.320242	-0.532261	-0.128296
C139	C	1.570242	-0.282261	0.121704
C140	C	1.820242	-0.032261	0.371704
C141	C	1.091395	-0.813266	-0.461040
C142	C	1.341395	-0.563266	-0.211040
C143	C	1.591395	-0.313266	0.038960
C144	C	1.841395	-0.063266	0.288960
C145	C	1.091837	-0.898911	-0.460708
C146	C	1.341837	-0.648911	-0.210708
C147	C	1.591837	-0.398911	0.039292
C148	C	1.841837	-0.148911	0.289292
C149	C	0.991921	-0.899147	-0.357120
C150	C	1.241921	-0.649147	-0.107120
C151	C	1.491921	-0.399147	0.142880
C152	C	1.741921	-0.149147	0.392880
C153	C	0.992308	-0.813497	-0.355273
C154	C	1.242308	-0.563497	-0.105273
C155	C	1.492308	-0.313497	0.144727
C156	C	1.742308	-0.063497	0.394727
C157	C	1.070214	-0.698401	-0.378281
C158	C	1.320214	-0.448401	-0.128281
C159	C	1.570214	-0.198401	0.121719
C160	C	1.820214	0.051599	0.371719
C161	C	1.070318	-1.014503	-0.378353
C162	C	1.320318	-0.764503	-0.128353
C163	C	1.570318	-0.514503	0.121647
C164	C	1.820318	-0.264503	0.371647
C165	C	1.263379	-0.356858	-0.378330
C166	C	1.513379	-0.106858	-0.128330
C167	C	1.763379	0.143142	0.121670
C168	C	2.013379	0.393142	0.371670
C169	C	1.345693	-0.356871	-0.378348
C170	C	1.595693	-0.106871	-0.128348
C171	C	1.845693	0.143129	0.121652
C172	C	2.095693	0.393129	0.371652
C173	C	1.070253	-0.356768	-0.583033
C174	C	1.320253	-0.106768	-0.333033
C175	C	1.570253	0.143232	-0.083033
C176	C	1.820253	0.393232	0.166967
C177	C	1.070269	-0.356742	-0.670283
C178	C	1.320269	-0.106742	-0.420283
C179	C	1.570269	0.143258	-0.170283
C180	C	1.820269	0.393258	0.079717
C181	C	1.070301	-0.163666	-0.378344
C182	C	1.320301	0.086334	-0.128344
C183	C	1.570301	0.336334	0.121656
C184	C	1.820301	0.586334	0.371656
C185	C	1.070336	-0.081352	-0.378368
C186	C	1.320336	0.168648	-0.128368
C187	C	1.570336	0.418648	0.121632
C188	C	1.820336	0.668648	0.371632
C189	C	1.117681	-0.404029	-1.046097
C190	C	1.367681	-0.154029	-0.796097
C191	C	1.617681	0.095971	-0.546097
C192	C	1.867681	0.345971	-0.296097
C193	C	1.117663	-0.404051	-0.964116
C194	C	1.367663	-0.154051	-0.714116
C195	C	1.617663	0.095949	-0.464116
C196	C	1.867663	0.345949	-0.214116
C197	C	1.070317	-0.356690	-0.923132
C198	C	1.320317	-0.106690	-0.673132
C199	C	1.570317	0.143310	-0.423132
C200	C	1.820317	0.393310	-0.173132
C201	C	1.022981	-0.309309	-0.964133
C202	C	1.272981	-0.059309	-0.714133
C203	C	1.522981	0.190691	-0.464133
C204	C	1.772981	0.440691	-0.214133
C205	C	1.022997	-0.309292	-1.046112
C206	C	1.272997	-0.059292	-0.796112
C207	C	1.522997	0.190708	-0.546112
C208	C	1.772997	0.440708	-0.296112
C209	C	1.022953	-0.309348	-0.793263
C210	C	1.272953	-0.059348	-0.543263
C211	C	1.522953	0.190652	-0.293263
C212	C	1.772953	0.440652	-0.043263
C213	C	1.022939	-0.309364	-0.711278
C214	C	1.272939	-0.059364	-0.461278
C215	C	1.522939	0.190636	-0.211278
C216	C	1.772939	0.440636	0.038722
C217	C	1.117620	-0.404106	-0.711267
C218	C	1.367620	-0.154106	-0.461267
C219	C	1.617620	0.095894	-0.211267
C220	C	1.867620	0.345894	0.038733
C221	C	1.117635	-0.404089	-0.793246
C222	C	1.367635	-0.154089	-0.543246
C223	C	1.617635	0.095911	-0.293246
C224	C	1.867635	0.345911	-0.043246
C225	C	1.070300	-0.356707	-0.834241
C226	C	1.320300	-0.106707	-0.584241
C227	C	1.570300	0.143293	-0.334241
C228	C	1.820300	0.393293	-0.084241
C229	C	1.070223	-0.356834	-0.174341
C230	C	1.320223	-0.106834	0.075659
C231	C	1.570223	0.143166	0.325659
C232	C	1.820223	0.393166	0.575659
C233	C	1.070351	-0.356651	-0.087092
C234	C	1.320351	-0.106651	0.162908
C235	C	1.570351	0.143349	0.412908
C236	C	1.820351	0.393349	0.662908
H237	H	0.634052	-0.478828	-0.398257
H238	H	0.884052	-0.228828	-0.148257
H239	H	1.134052	0.021172	0.101743
H240	H	1.384052	0.271172	0.351743
Br241	Br	1.185802	-0.777428	-0.491497
Br242	Br	1.435802	-0.527428	-0.241497
Br243	Br	1.685802	-0.277428	0.008503
Br244	Br	1.935802	-0.027428	0.258503
H245	H	0.947505	-0.792106	-0.396323
H246	H	1.197505	-0.542106	-0.146323
H247	H	1.447505	-0.292106	0.103677
H248	H	1.697505	-0.042106	0.353677
Br249	Br	0.958734	-0.245023	-0.908513
Br250	Br	1.208734	0.004977	-0.658513
Br251	Br	1.458734	0.254977	-0.408513
Br252	Br	1.708734	0.504977	-0.158513
Br253	Br	0.965716	-0.779731	-0.253783
Br254	Br	1.215716	-0.529731	-0.003783
Br255	Br	1.465716	-0.279731	0.246217
Br256	Br	1.715716	-0.029731	0.496217
Br257	Br	0.958724	-0.245032	-0.848898
Br258	Br	1.208724	0.004968	-0.598898
Br259	Br	1.458724	0.254968	-0.348898
Br260	Br	1.708724	0.504968	-0.098898
H261	H	0.507134	-0.241321	-0.331977
H262	H	0.757134	0.008679	-0.081977
H263	H	1.007134	0.258679	0.168023
H264	H	1.257134	0.508679	0.418023
Br265	Br	1.105436	-0.778756	-0.215430
Br266	Br	1.355436	-0.528756	0.034570
Br267	Br	1.605436	-0.278756	0.284570
Br268	Br	1.855436	-0.028756	0.534570
H269	H	1.156161	-0.442686	-0.677885
H270	H	1.406161	-0.192686	-0.427885
H271	H	1.656161	0.057314	-0.177885
H272	H	1.906161	0.307314	0.072115
H273	H	0.633792	-0.312613	-0.256128
H274	H	0.883792	-0.062613	-0.006128
H275	H	1.133792	0.187387	0.243872
H276	H	1.383792	0.437387	0.493872
Br277	Br	0.649340	-0.399998	-0.539932
Br278	Br	0.899340	-0.149998	-0.289932
Br279	Br	1.149340	0.100002	-0.039932
Br280	Br	1.399340	0.350002	0.210068
H281	H	0.635101	-0.451948	-0.295580
H282	H	0.885101	-0.201948	-0.045580
H283	H	1.135101	0.048052	0.204420
H284	H	1.385101	0.298052	0.454420
Br285	Br	1.187312	-0.932122	-0.490655
Br286	Br	1.437312	-0.682122	-0.240655
Br287	Br	1.687312	-0.432122	0.009345
Br288	Br	1.937312	-0.182122	0.259345
H289	H	0.506427	-0.281119	-0.481970
H290	H	0.756427	-0.031119	-0.231970
H291	H	1.006427	0.218881	0.018030
H292	H	1.256427	0.468881	0.268030
H293	H	0.506171	-0.312311	-0.256744
H294	H	0.756171	-0.062311	-0.006744
H295	H	1.006171	0.187689	0.243256
H296	H	1.256171	0.437689	0.493256
Br297	Br	0.494685	-0.462550	-0.254000
Br298	Br	0.744685	-0.212550	-0.004000
Br299	Br	0.994685	0.037450	0.246000
Br300	Br	1.244685	0.287450	0.496000
H301	H	0.507321	-0.478812	-0.397296
H302	H	0.757321	-0.228812	-0.147296
H303	H	1.007321	0.021188	0.102704
H304	H	1.257321	0.271188	0.352704
H305	H	0.633993	-0.277870	-0.478009
H306	H	0.883993	-0.027870	-0.228009
H307	H	1.133993	0.222130	0.021991
H308	H	1.383993	0.472130	0.271991
H309	H	0.634363	-0.241652	-0.331876
H310	H	0.884363	0.008348	-0.081876
H311	H	1.134363	0.258348	0.168124
H312	H	1.384363	0.508348	0.418124
Br313	Br	0.958762	-0.244988	-1.101749
Br314	Br	1.208762	0.005012	-0.851749
Br315	Br	1.458762	0.255012	-0.601749
Br316	Br	1.708762	0.505012	-0.351749
Br317	Br	1.024236	-0.779338	-0.538596
Br318	Br	1.274236	-0.529338	-0.288596
Br319	Br	1.524236	-0.279338	-0.038596
Br320	Br	1.774236	-0.029338	0.211404
H321	H	1.156240	-0.442592	-1.079460
H322	H	1.406240	-0.192592	-0.829460
H323	H	1.656240	0.057408	-0.579460
H324	H	1.906240	0.307408	-0.329460
H325	H	1.156195	-0.442640	-0.930742
H326	H	1.406195	-0.192640	-0.680742
H327	H	1.656195	0.057360	-0.430742
H328	H	1.906195	0.307360	-0.180742
H329	H	0.507760	-0.378897	-0.506385
H330	H	0.757760	-0.128897	-0.256385
H331	H	1.007760	0.121103	-0.006385
H332	H	1.257760	0.371103	0.243615
H333	H	1.114277	-0.919959	-0.255981
H334	H	1.364277	-0.669959	-0.005981
H335	H	1.614277	-0.419959	0.244019
H336	H	1.864277	-0.169959	0.494019
Br337	Br	1.223580	-0.935098	-0.340638
Br338	Br	1.473580	-0.685098	-0.090638
Br339	Br	1.723580	-0.435098	0.159362
Br340	Br	1.973580	-0.185098	0.409362
H341	H	1.185600	-0.793156	-0.331711
H342	H	1.435600	-0.543156	-0.081711
H343	H	1.685600	-0.293156	0.168289
H344	H	1.935600	-0.043156	0.418289
Br345	Br	1.181894	-0.468361	-0.848867
Br346	Br	1.431894	-0.218361	-0.598867
Br347	Br	1.681894	0.031639	-0.348867
Br348	Br	1.931894	0.281639	-0.098867
Br349	Br	1.025564	-0.933453	-0.538797
Br350	Br	1.275564	-0.683453	-0.288797
Br351	Br	1.525564	-0.433453	-0.038797
Br352	Br	1.775564	-0.183453	0.211203
H353	H	0.984388	-0.270796	-0.677911
H354	H	1.234388	-0.020796	-0.427911
H355	H	1.484388	0.229204	-0.177911
H356	H	1.734388	0.479204	0.072089
H357	H	0.949405	-0.919407	-0.401414
H358	H	1.199405	-0.669407	-0.151414
H359	H	1.449405	-0.419407	0.098586
H360	H	1.699405	-0.169407	0.348586
Br361	Br	0.959843	-0.935252	-0.258299
Br362	Br	1.209843	-0.685252	-0.008299
Br363	Br	1.459843	-0.435252	0.241701
Br364	Br	1.709843	-0.185252	0.491701
