data_functionalizedCrystal
_audit_creation_method	'MofGen! by Chris Wilmer'
_symmetry_space_group_name_H-M	'P1'
_symmetry_Int_Tables_number	1
_symmetry_cell_setting	triclinic
loop_
_symmetry_equiv_pos_as_xyz
  x,y,z
_cell_length_a	19.188905
_cell_length_b	17.666332
_cell_length_c	8.559649
_cell_angle_alpha	90.005352
_cell_angle_beta	76.456610
_cell_angle_gamma	90.016479
loop_
_atom_site_label
_atom_site_type_symbol
_atom_site_fract_x
_atom_site_fract_y
_atom_site_fract_z
O1	O	0.915736	0.063068	0.199374
O2	O	0.711015	0.063042	0.226280
O3	O	0.831412	0.063056	-0.019905
O4	O	0.795340	0.063053	0.445559
O5	O	0.831394	-0.062840	-0.019918
O6	O	0.710997	-0.062855	0.226267
O7	O	0.915718	-0.062829	0.199361
Cu8	Cu	0.813356	-0.074337	0.212813
Cu9	Cu	0.813377	0.074550	0.212828
O10	O	0.795322	-0.062843	0.445546
C11	C	0.685040	0.000090	0.225409
C12	C	0.607671	0.000080	0.222813
N13	N	0.813346	-0.179057	0.212801
C14	C	0.571354	0.068708	0.221574
C15	C	0.498659	0.068718	0.219117
C16	C	0.462287	0.000095	0.217868
C17	C	0.498611	-0.068542	0.219117
C18	C	0.571303	-0.068550	0.221590
N19	N	0.358218	-0.050974	0.123016
N20	N	0.289164	-0.050962	0.120664
C21	C	0.243269	0.000113	0.210421
N22	N	0.269039	0.051188	0.302600
N23	N	0.338100	0.051178	0.304946
C24	C	0.383464	0.000095	0.215188
C25	C	0.128128	0.068757	0.206520
C26	C	0.055430	0.068763	0.204074
C27	C	0.055386	-0.068499	0.204057
C28	C	0.128080	-0.068504	0.206520
C29	C	0.164448	0.000126	0.207744
C30	C	0.866670	-0.218660	0.103843
C31	C	0.866675	-0.297908	0.103836
C32	C	0.813360	-0.337549	0.212813
C33	C	0.760027	-0.297936	0.321779
C34	C	0.760020	-0.218690	0.321773
N35	N	0.796885	-0.461969	0.354317
N36	N	0.796896	-0.537250	0.354317
C37	C	0.813377	-0.576313	0.212835
N38	N	0.829861	-0.537252	0.071348
N39	N	0.829853	-0.461964	0.071349
C40	C	0.813362	-0.423478	0.212831
C41	C	0.866709	-0.701845	0.103860
C42	C	0.866709	-0.781094	0.103851
C43	C	0.760064	-0.781122	0.321808
C44	C	0.760062	-0.701874	0.321804
C45	C	0.813388	-0.662241	0.212832
C46	C	0.941693	0.000125	0.200232
C47	C	1.019063	0.000140	0.202827
C48	C	0.834136	0.000110	-0.079461
C49	C	0.842273	0.000115	-0.256900
N50	N	0.813394	0.179270	0.212827
C51	C	0.792597	0.000105	0.505102
C52	C	0.784460	0.000105	0.682540
H53	H	0.600960	0.124592	0.222570
N54	N	0.924182	-0.175916	-0.013696
H55	H	0.901291	-0.143051	-0.084322
H56	H	0.951805	-0.143065	0.047326
N57	N	0.924189	-0.340636	-0.013691
H58	H	0.957968	-0.303503	-0.082726
H59	H	0.951779	-0.373498	0.047340
H60	H	0.728738	0.000095	-0.233562
N61	N	0.167256	-0.142525	0.207856
H62	H	0.133186	-0.185997	0.206694
H63	H	0.208397	-0.145519	0.109814
H64	H	0.897999	0.000116	-0.340806
H65	H	0.469084	0.124605	0.218110
N66	N	0.459309	-0.142454	0.216988
H67	H	0.418048	-0.145647	0.314760
H68	H	0.440334	-0.145087	0.116576
N69	N	0.610478	-0.142573	0.222933
H70	H	0.576408	-0.186046	0.221777
H71	H	0.651617	-0.145567	0.124887
N72	N	0.167359	0.142774	0.207848
H73	H	0.133317	0.186253	0.206703
H74	H	0.186543	0.145758	0.307940
H75	H	0.716616	-0.330216	0.410507
H76	H	0.025861	0.124651	0.203074
H77	H	0.025771	-0.124373	0.203050
N78	N	0.702502	-0.175969	0.439290
H79	H	0.668724	-0.213104	0.508324
H80	H	0.725443	-0.143076	0.509804
H81	H	0.910129	-0.669575	0.015124
H82	H	0.910130	-0.813340	0.015116
N83	N	0.702554	-0.823867	0.439336
H84	H	0.725442	-0.856734	0.509966
H85	H	0.668791	-0.786700	0.508252
N86	N	0.702547	-0.659153	0.439322
H87	H	0.668771	-0.696288	0.508358
H88	H	0.725487	-0.626256	0.509833
