data_functionalizedCrystal
_audit_creation_method	'MofGen! by Chris Wilmer'
_symmetry_space_group_name_H-M	'P1'
_symmetry_Int_Tables_number	1
_symmetry_cell_setting	triclinic
loop_
_symmetry_equiv_pos_as_xyz
  x,y,z
_cell_length_a	10.654550
_cell_length_b	19.288865
_cell_length_c	9.730223
_cell_angle_alpha	89.990377
_cell_angle_beta	89.999957
_cell_angle_gamma	83.810589
loop_
_atom_site_label
_atom_site_type_symbol
_atom_site_fract_x
_atom_site_fract_y
_atom_site_fract_z
O1	O	1.665751	0.097555	-0.114205
O2	O	1.300073	0.106849	-0.114232
O3	O	1.493478	0.001141	-0.114191
O4	O	1.472346	0.203263	-0.114247
O5	O	1.493466	0.001138	0.114389
O6	O	1.300061	0.106846	0.114348
O7	O	1.665738	0.097552	0.114375
Zn8	Zn	1.482898	0.102198	0.150653
Zn9	Zn	1.482914	0.102202	-0.150511
O10	O	1.472333	0.203260	0.114333
C11	C	1.253284	0.106165	0.000055
C12	C	1.113884	0.104123	0.000046
C13	C	1.033066	0.166363	0.000033
C14	C	0.902087	0.164440	0.000057
C15	C	0.932756	0.038033	0.000102
C16	C	1.063733	0.039956	0.000088
C17	C	1.492792	-0.024742	0.000103
C18	C	1.490751	-0.101859	0.000115
C19	C	1.604232	-0.145812	0.000131
C20	C	1.602315	-0.218272	0.000109
C21	C	1.486909	-0.246775	0.000099
C22	C	1.373413	-0.202812	0.000076
C23	C	1.375334	-0.130354	0.000085
C24	C	1.396183	-0.355657	0.080159
C25	C	1.394267	-0.428114	0.080160
C26	C	1.480980	-0.470259	0.000068
C27	C	1.569631	-0.439940	-0.080006
C28	C	1.571552	-0.367482	-0.079998
C29	C	1.484814	-0.325343	0.000090
C30	C	1.592390	-0.592782	0.000057
C31	C	1.590467	-0.665243	0.000027
C32	C	1.361562	-0.649781	0.000009
C33	C	1.363488	-0.577322	0.000025
C34	C	1.478905	-0.548827	0.000056
C35	C	1.712528	0.098236	0.000085
C36	C	1.851928	0.100277	0.000085
C37	C	1.473020	0.229142	0.000036
C38	C	1.475061	0.306259	0.000015
N39	N	1.482896	0.102195	0.356190
N40	N	1.482926	0.102200	-0.356047
C41	C	1.568564	0.055408	0.428134
C42	C	1.568577	0.055408	0.572017
C43	C	1.397248	0.148990	0.571999
C44	C	1.397231	0.148986	0.428118
H45	H	0.891906	-0.014209	0.000145
O46	O	1.307986	-0.457518	0.157777
C47	C	1.185235	-0.431472	0.115808
H48	H	1.188231	-0.411711	0.005559
H49	H	1.147476	-0.386792	0.186240
C50	C	1.094428	-0.514338	0.259156
C51	C	1.098106	-0.490074	0.123742
H52	H	1.040680	-0.550485	0.264056
H53	H	1.177127	-0.531885	0.287436
H54	H	1.062965	-0.477099	0.317835
H55	H	1.129584	-0.527310	0.065069
H56	H	1.015410	-0.472535	0.095452
H57	H	1.638316	0.017307	0.369573
H58	H	1.327463	0.187086	0.369537
O59	O	1.657481	-0.337941	-0.157874
C60	C	1.593938	-0.291667	-0.253373
H61	H	1.494802	-0.274107	-0.214067
H62	H	1.587524	-0.319198	-0.356403
C63	C	1.788869	-0.249221	-0.319884
C64	C	1.667112	-0.227648	-0.271603
H65	H	1.834007	-0.209732	-0.331136
H66	H	1.831681	-0.280398	-0.255549
H67	H	1.783506	-0.272163	-0.405738
H68	H	1.672475	-0.204714	-0.185743
H69	H	1.624302	-0.196465	-0.335925
H70	H	1.267597	-0.672988	-0.000006
H71	H	1.073895	0.218611	0.000009
H72	H	1.638334	0.017308	0.630590
H73	H	1.327503	0.187086	0.630577
O74	O	1.712671	-0.260878	0.000189
C75	C	1.814951	-0.220190	0.000177
H76	H	1.782768	-0.166276	0.043448
H77	H	1.850362	-0.214852	-0.109477
C78	C	1.961839	-0.322001	0.036691
C79	C	1.922315	-0.255785	0.089848
H80	H	2.028070	-0.343958	0.091998
H81	H	1.892933	-0.349414	0.036693
H82	H	1.991341	-0.317544	-0.054687
H83	H	1.892800	-0.260244	0.181217
H84	H	1.991219	-0.228373	0.089863
H85	H	1.640240	-0.474253	-0.145225
H86	H	0.836289	0.215122	0.000049
H87	H	1.698214	-0.122616	0.000151
O88	O	1.704610	-0.565211	0.000002
C89	C	1.804364	-0.619548	0.000025
H90	H	1.769441	-0.668928	-0.043255
H91	H	1.839356	-0.629644	0.109684
C92	C	1.956131	-0.537912	-0.036460
C93	C	1.913240	-0.598559	-0.089628
H94	H	2.023294	-0.524965	-0.091756
H95	H	1.888925	-0.501304	-0.036470
H96	H	1.985282	-0.546333	0.054922
H97	H	1.884075	-0.590135	-0.181001
H98	H	1.980443	-0.635166	-0.089635
H99	H	1.129539	-0.010730	0.000102
O100	O	1.312113	-0.314659	0.158053
C101	C	1.377861	-0.277136	0.253570
H102	H	1.477572	-0.272987	0.214274
H103	H	1.382795	-0.305458	0.356592
C104	C	1.185855	-0.208588	0.320085
C105	C	1.308319	-0.203488	0.271816
H106	H	1.142956	-0.163160	0.331346
H107	H	1.141557	-0.233870	0.255737
H108	H	1.189984	-0.232193	0.405932
H109	H	1.304188	-0.179892	0.185963
H110	H	1.352614	-0.178201	0.336149
H111	H	1.682881	-0.701029	0.000032
H112	H	1.279449	-0.226024	0.000066
H113	H	1.271079	-0.541534	0.000021
H114	H	1.282921	-0.094566	0.000073
