data_functionalizedCrystal
_audit_creation_method	'MofGen! by Chris Wilmer'
_symmetry_space_group_name_H-M	'P1'
_symmetry_Int_Tables_number	1
_symmetry_cell_setting	triclinic
loop_
_symmetry_equiv_pos_as_xyz
  x,y,z
_cell_length_a	6.394989
_cell_length_b	8.559649
_cell_length_c	7.681481
_cell_angle_alpha	85.086760
_cell_angle_beta	95.906187
_cell_angle_gamma	78.138188
loop_
_atom_site_label
_atom_site_type_symbol
_atom_site_fract_x
_atom_site_fract_y
_atom_site_fract_z
O1	O	0.048509	-2.104046	-0.146402
O2	O	-0.059017	-1.641007	-0.146408
O3	O	0.299864	-1.879099	-0.146406
O4	O	-0.310373	-1.865954	-0.146404
O5	O	0.344125	-1.908402	0.146452
O6	O	-0.014756	-1.670310	0.146450
O7	O	0.092770	-2.133349	0.146456
Zn8	Zn	0.046035	-1.906482	0.192951
Zn9	Zn	-0.012282	-1.867874	-0.192902
O10	O	-0.266111	-1.895257	0.146454
C11	C	-0.045035	-1.596293	0.000021
C12	C	-0.069291	-1.419401	0.000018
C13	C	0.399398	-1.891151	0.000016
C14	C	0.634359	-1.883208	0.000015
C15	C	0.078787	-2.178063	0.000024
C16	C	0.103041	-2.354954	0.000015
N17	N	0.085837	-1.932843	0.456285
N18	N	-0.052066	-1.841525	-0.456237
H19	H	0.269137	-1.435105	0.000005
H20	H	0.226592	-2.026079	0.531491
C21	C	-0.293700	-1.311124	0.000016
C22	C	-0.385174	-1.177442	-0.152061
C23	C	-0.609579	-1.069166	-0.152063
C24	C	-0.742510	-1.094571	0.000011
C25	C	-0.651038	-1.228258	0.152099
C26	C	-0.426633	-1.336535	0.152101
H27	H	-0.286769	-1.158630	-0.264646
H28	H	-0.677291	-0.970201	-0.264650
H29	H	-0.908628	-1.014418	0.000009
H30	H	-0.749443	-1.247070	0.264684
H31	H	-0.358920	-1.435499	0.264688
C32	C	-0.242220	-1.715582	0.442187
C33	C	-0.273054	-1.695812	0.239421
C34	C	-0.463212	-1.569866	0.137832
C35	C	-0.622535	-1.463690	0.239009
C36	C	-0.591706	-1.483456	0.441787
C37	C	-0.401548	-1.609402	0.543376
H38	H	-0.155109	-1.774414	0.164513
H39	H	-0.486033	-1.555235	-0.012278
H40	H	-0.763302	-1.370457	0.163807
H41	H	-0.709651	-1.404855	0.516695
H42	H	-0.378727	-1.624033	0.693486
