data_functionalizedCrystal
_audit_creation_method	'MofGen! by Chris Wilmer'
_symmetry_space_group_name_H-M	'P1'
_symmetry_Int_Tables_number	1
_symmetry_cell_setting	triclinic
loop_
_symmetry_equiv_pos_as_xyz
  x,y,z
_cell_length_a	14.044191
_cell_length_b	10.489711
_cell_length_c	13.101039
_cell_angle_alpha	93.399879
_cell_angle_beta	86.337551
_cell_angle_gamma	88.859393
loop_
_atom_site_label
_atom_site_type_symbol
_atom_site_fract_x
_atom_site_fract_y
_atom_site_fract_z
O1	O	1.264952	0.301342	-0.085149
O2	O	1.764952	0.801342	0.414851
O3	O	0.988908	0.290226	-0.085163
O4	O	1.488908	0.790226	0.414837
O5	O	1.133226	0.110822	-0.085158
O6	O	1.633226	0.610822	0.414842
O7	O	1.120634	0.480745	-0.085153
O8	O	1.620634	0.980745	0.414847
O9	O	1.122872	0.123717	0.085271
O10	O	1.622872	0.623717	0.585271
O11	O	0.978554	0.303121	0.085267
O12	O	1.478554	0.803121	0.585267
O13	O	1.254597	0.314237	0.085280
O14	O	1.754597	0.814237	0.585280
Zn15	Zn	1.114932	0.310727	0.112333
Zn16	Zn	1.614932	0.810727	0.612333
Zn17	Zn	1.128574	0.293736	-0.112215
Zn18	Zn	1.628574	0.793736	0.387785
O19	O	1.110279	0.493641	0.085276
O20	O	1.610279	0.993641	0.585276
C21	C	0.948384	0.291811	0.000050
C22	C	1.448384	0.791811	0.500050
C23	C	0.843060	0.277308	0.000045
C24	C	1.343060	0.777308	0.500045
C25	C	0.593288	0.353654	0.000056
C26	C	1.093288	0.853654	0.500056
C27	C	0.650224	0.250814	0.000053
C28	C	1.150224	0.750814	0.500053
C29	C	0.757528	0.265558	0.000048
C30	C	1.257528	0.765558	0.500048
C31	C	0.485974	0.338912	0.000061
C32	C	0.985974	0.838912	0.500061
C33	C	1.127104	0.069641	0.000054
C34	C	1.627104	0.569641	0.500054
C35	C	1.124277	-0.072277	0.000045
C36	C	1.624277	0.427723	0.500045
C37	C	1.211065	-0.245857	0.000059
C38	C	1.711065	0.254143	0.500059
C39	C	1.162608	-0.151754	0.084087
C40	C	1.662608	0.348246	0.584087
C41	C	1.172793	-0.164494	-0.083943
C42	C	1.672793	0.335506	0.416057
C43	C	1.070729	-0.231021	0.084161
C44	C	1.570729	0.268979	0.584161
C45	C	1.080932	-0.243775	-0.083944
C46	C	1.580932	0.256225	0.416056
C47	C	1.032407	-0.149704	0.000104
C48	C	1.532407	0.350296	0.500104
C49	C	1.295122	0.312651	0.000065
C50	C	1.795122	0.812651	0.500065
C51	C	1.400446	0.327155	0.000064
C52	C	1.900446	0.827155	0.500064
C53	C	1.116402	0.534821	0.000062
C54	C	1.616402	1.034821	0.500062
C55	C	1.119229	0.676740	0.000064
C56	C	1.619229	1.176740	0.500064
N57	N	1.105628	0.322322	0.265581
N58	N	1.605628	0.822322	0.765581
N59	N	1.137885	0.282132	-0.265463
N60	N	1.637885	0.782132	0.234537
C61	C	1.092970	0.338109	0.474624
C62	C	1.592970	0.838109	0.974624
C63	C	1.150540	0.266348	0.525501
C64	C	1.650540	0.766348	1.025501
C65	C	1.143497	0.275133	0.641819
C66	C	1.643497	0.775133	1.141819
C67	C	1.100012	0.329326	0.358295
C68	C	1.600012	0.829326	0.858295
H69	H	1.286542	-0.287882	0.000146
H70	H	1.786542	0.212118	0.500146
H71	H	1.038397	0.406140	0.518419
H72	H	1.538397	0.906140	1.018419
H73	H	0.625131	0.452765	0.000054
H74	H	1.125131	0.952765	0.500054
H75	H	0.956855	-0.107901	0.000147
H76	H	1.456855	0.392099	0.500147
C77	C	1.209268	-0.097290	0.180059
C78	C	1.709268	0.402710	0.680059
C79	C	1.312823	-0.135970	0.198525
C80	C	1.812823	0.364030	0.698525
C81	C	1.359490	-0.081512	0.294493
C82	C	1.859490	0.418488	0.794493
C83	C	1.302602	0.011626	0.371994
C84	C	1.802602	0.511626	0.871994
C85	C	1.199040	0.050311	0.353530
C86	C	1.699040	0.550311	0.853530
C87	C	1.152373	-0.004147	0.257563
C88	C	1.652373	0.495853	0.757563
H89	H	1.354941	-0.204920	0.141152
H90	H	1.854941	0.295080	0.641152
H91	H	1.436153	-0.110149	0.308161
H92	H	1.936153	0.389851	0.808161
H93	H	1.337147	0.051939	0.443035
H94	H	1.837147	0.551939	0.943035
H95	H	1.156923	0.119261	0.410903
H96	H	1.656923	0.619261	0.910903
H97	H	1.075710	0.024490	0.243895
H98	H	1.575710	0.524490	0.743895
C99	C	1.034311	-0.298282	-0.179920
C100	C	1.534311	0.201718	0.320080
C101	C	0.931363	-0.257824	-0.199420
C102	C	1.431363	0.242176	0.300580
C103	C	0.884751	-0.312336	-0.295405
C104	C	1.384751	0.187664	0.204595
C105	C	0.941086	-0.407305	-0.371889
C106	C	1.441086	0.092695	0.128111
C107	C	1.044040	-0.447768	-0.352391
C108	C	1.544040	0.052232	0.147609
C109	C	1.090652	-0.393256	-0.256406
C110	C	1.590652	0.106744	0.243594
H111	H	0.889654	-0.187517	-0.142800
H112	H	1.389654	0.312483	0.357200
H113	H	0.808537	-0.282382	-0.309838
H114	H	1.308537	0.217618	0.190162
H115	H	0.906581	-0.447658	-0.442942
H116	H	1.406581	0.052342	0.057058
H117	H	1.085748	-0.518075	-0.409011
H118	H	1.585748	-0.018075	0.090989
H119	H	1.166866	-0.423210	-0.241972
H120	H	1.666866	0.076790	0.258028
H121	H	1.027582	-0.260388	0.155280
H122	H	1.527582	0.239612	0.655280
H123	H	1.215983	-0.134965	-0.154981
H124	H	1.715983	0.365035	0.345019
H125	H	0.618384	0.151689	-0.000021
H126	H	1.118384	0.651689	0.499979
H127	H	1.205118	0.198315	0.481700
H128	H	1.705118	0.698315	0.981700
