data_functionalizedCrystal
_audit_creation_method	'MofGen! by Chris Wilmer'
_symmetry_space_group_name_H-M	'P1'
_symmetry_Int_Tables_number	1
_symmetry_cell_setting	triclinic
loop_
_symmetry_equiv_pos_as_xyz
  x,y,z
_cell_length_a	10.654550
_cell_length_b	10.868271
_cell_length_c	10.654550
_cell_angle_alpha	89.998743
_cell_angle_beta	95.515069
_cell_angle_gamma	90.001123
loop_
_atom_site_label
_atom_site_type_symbol
_atom_site_fract_x
_atom_site_fract_y
_atom_site_fract_z
O1	O	1.667842	0.102230	-0.176393
O2	O	2.167842	0.602230	0.323607
O3	O	1.302363	0.102253	-0.193199
O4	O	1.802363	0.602253	0.306801
O5	O	1.493505	0.102233	-0.002057
O6	O	1.993505	0.602233	0.497943
O7	O	1.476699	0.102250	-0.367535
O8	O	1.976699	0.602250	0.132465
O9	O	1.493488	-0.102412	-0.002063
O10	O	1.993488	0.397588	0.497937
O11	O	1.302346	-0.102392	-0.193205
O12	O	1.802346	0.397608	0.306795
O13	O	1.667824	-0.102415	-0.176399
O14	O	2.167824	0.397585	0.323601
Zn15	Zn	1.485082	-0.134895	-0.184803
Zn16	Zn	1.985082	0.365105	0.315197
Zn17	Zn	1.485105	0.134733	-0.184795
Zn18	Zn	1.985105	0.634733	0.315205
O19	O	1.476682	-0.102395	-0.367541
O20	O	1.976682	0.397605	0.132459
C21	C	1.255556	-0.000067	-0.191968
C22	C	1.755556	0.499933	0.308032
C23	C	1.116113	-0.000058	-0.188276
C24	C	1.616113	0.499942	0.311724
C25	C	1.036628	-0.000057	-0.300818
C26	C	1.536628	0.499943	0.199182
C27	C	0.905607	-0.000078	-0.297341
C28	C	1.405607	0.499922	0.202659
C29	C	0.933570	-0.000098	-0.068772
C30	C	1.433570	0.499902	0.431228
C31	C	1.064588	-0.000085	-0.072250
C32	C	1.564588	0.499915	0.427750
N33	N	1.485076	-0.318909	-0.184808
N34	N	1.985076	0.181091	0.315192
C35	C	1.485085	-0.430247	-0.184808
C36	C	1.985085	0.069753	0.315192
C37	C	1.485102	-0.569924	-0.184797
C38	C	1.985102	-0.069924	0.315203
C39	C	1.714631	-0.000092	-0.177630
C40	C	2.214631	0.499908	0.322370
C41	C	1.854074	-0.000093	-0.181322
C42	C	2.354074	0.499907	0.318678
C43	C	1.492263	-0.000089	0.044738
C44	C	1.992263	0.499911	0.544738
C45	C	1.488571	-0.000086	0.184181
C46	C	1.988571	0.499914	0.684181
N47	N	1.485121	0.318747	-0.184780
N48	N	1.985121	0.818747	0.315220
C49	C	1.477925	-0.000071	-0.414336
C50	C	1.977925	0.499929	0.085664
C51	C	1.481616	-0.000065	-0.553779
C52	C	1.981616	0.499935	-0.053779
C53	C	1.601112	-0.000093	0.263667
C54	C	2.101112	0.499907	0.763667
C55	C	1.597636	-0.000078	0.394688
C56	C	2.097636	0.499922	0.894688
C57	C	1.369066	-0.000055	0.366725
C58	C	1.869066	0.499945	0.866725
C59	C	1.372544	-0.000061	0.235706
C60	C	1.872544	0.499939	0.735706
H61	H	0.891602	-0.000127	0.025693
H62	H	1.391602	0.499873	0.525693
F63	F	1.091460	-0.000033	-0.424303
F64	F	1.591460	0.499967	0.075697
H65	H	1.280893	-0.000052	0.170985
H66	H	1.780893	0.499948	0.670985
F67	F	0.821017	-0.000079	-0.417124
F68	F	1.321017	0.499921	0.082876
H69	H	1.274601	-0.000036	0.408693
H70	H	1.774601	0.499964	0.908693
H71	H	1.129309	-0.000090	0.019401
H72	H	1.629309	0.499910	0.519401
F73	F	1.717418	-0.000082	0.479278
F74	F	2.217418	0.499918	0.979278
F75	F	1.724598	-0.000118	0.208835
F76	F	2.224598	0.499882	0.708835
