data_functionalizedCrystal
_audit_creation_method	'MofGen! by Chris Wilmer'
_symmetry_space_group_name_H-M	'P1'
_symmetry_Int_Tables_number	1
_symmetry_cell_setting	triclinic
loop_
_symmetry_equiv_pos_as_xyz
  x,y,z
_cell_length_a	14.971506
_cell_length_b	14.971486
_cell_length_c	13.448316
_cell_angle_alpha	90.006811
_cell_angle_beta	90.007063
_cell_angle_gamma	83.618258
loop_
_atom_site_label
_atom_site_type_symbol
_atom_site_fract_x
_atom_site_fract_y
_atom_site_fract_z
O1	O	-1.186936	-0.116651	-0.082699
O2	O	-0.926539	-0.130591	-0.082700
O3	O	-1.063717	0.006579	-0.082692
O4	O	-1.049758	-0.253820	-0.082707
O5	O	-1.063699	0.006587	0.082691
O6	O	-0.926521	-0.130582	0.082684
O7	O	-1.186919	-0.116642	0.082684
Cu8	Cu	-1.056719	-0.123612	0.097785
Cu9	Cu	-1.056739	-0.123622	-0.097800
O10	O	-1.049741	-0.253812	0.082677
C11	C	-0.893205	-0.129960	-0.000008
C12	C	-0.793909	-0.128082	-0.000008
C13	C	-1.220252	-0.117273	-0.000010
C14	C	-1.319548	-0.119151	-0.000016
C15	C	-0.355627	-0.201500	-0.000022
C16	C	-0.448927	-0.203258	-0.000027
C17	C	-0.506147	-0.122665	-0.000018
C18	C	-0.470062	-0.040310	-0.000015
C19	C	-0.376764	-0.038553	-0.000017
C20	C	-0.664525	-0.043977	-0.000007
C21	C	-0.757831	-0.045733	-0.000002
C22	C	-0.736689	-0.208681	-0.000016
C23	C	-0.643390	-0.206924	-0.000018
C24	C	-0.607312	-0.124569	-0.000013
C25	C	-1.063084	0.039908	-0.000001
C26	C	-1.061213	0.139205	-0.000002
C27	C	-1.050374	-0.287141	-0.000017
C28	C	-1.052244	-0.386438	-0.000022
N29	N	-1.056711	-0.123604	0.235349
C30	C	-1.141802	0.196424	-0.000001
C31	C	-1.140038	0.289724	-0.000011
C32	C	-1.057686	0.325802	-0.000015
C33	C	-0.977091	0.268575	-0.000019
C34	C	-0.978855	0.175278	-0.000016
C35	C	-0.973420	0.463038	-0.000022
C36	C	-0.971656	0.556342	-0.000023
C37	C	-1.134603	0.577485	-0.000017
C38	C	-1.136367	0.484187	-0.000015
C39	C	-1.055772	0.426966	-0.000017
N40	N	-1.056754	-0.123622	-0.235365
C41	C	-1.117472	-0.062890	0.287393
C42	C	-1.117478	-0.062890	0.391496
C43	C	-1.056725	-0.123608	0.443554
C44	C	-0.995958	-0.184324	0.391503
C45	C	-0.995948	-0.184320	0.287402
C46	C	-0.995982	-0.184330	0.608483
C47	C	-0.995992	-0.184336	0.712592
C48	C	-1.117512	-0.062900	0.712578
C49	C	-1.117503	-0.062896	0.608476
C50	C	-1.056736	-0.123614	0.556433
H51	H	-0.309044	-0.267128	-0.000022
H52	H	-0.516658	0.025310	-0.000013
H53	H	-0.347391	0.028503	-0.000014
H54	H	-0.946469	-0.233758	0.245029
H55	H	-1.166976	-0.013459	0.566091
Cl56	Cl	-1.235923	0.649418	-0.000020
H57	H	-0.478297	-0.270314	-0.000041
Cl58	Cl	-0.868126	0.601697	-0.000027
Cl59	Cl	-0.619172	0.059558	0.000007
Cl60	Cl	-1.239898	0.438832	-0.000015
H61	H	-1.205662	0.336309	-0.000008
Cl62	Cl	-1.193864	0.013438	0.456924
H63	H	-1.208862	0.167057	0.000008
H64	H	-0.910038	0.297958	-0.000028
H65	H	-0.596803	-0.272550	-0.000019
H66	H	-0.766067	-0.275738	-0.000019
H67	H	-0.907791	0.416451	-0.000026
Cl68	Cl	-0.877540	0.103344	-0.000021
Cl69	Cl	-1.193855	0.013442	0.221960
H70	H	-0.804417	0.019892	-0.000003
Cl71	Cl	-1.193904	0.013428	0.778007
H72	H	-0.946521	-0.233778	0.754972
Cl73	Cl	-0.919585	-0.260661	0.543061
Cl74	Cl	-0.919578	-0.260653	0.456945
