data_functionalizedCrystal
_audit_creation_method	'MofGen! by Chris Wilmer'
_symmetry_space_group_name_H-M	'P1'
_symmetry_Int_Tables_number	1
_symmetry_cell_setting	triclinic
loop_
_symmetry_equiv_pos_as_xyz
  x,y,z
_cell_length_a	16.625548
_cell_length_b	16.625546
_cell_length_c	16.625539
_cell_angle_alpha	89.971468
_cell_angle_beta	89.982945
_cell_angle_gamma	90.023536
loop_
_atom_site_label
_atom_site_type_symbol
_atom_site_fract_x
_atom_site_fract_y
_atom_site_fract_z
Zn1	Zn	-1.232652	0.320992	0.455898
Zn2	Zn	-0.982652	0.570992	0.705898
Zn3	Zn	-0.732652	0.820992	0.955898
Zn4	Zn	-0.482652	1.070992	1.205898
Zn5	Zn	-1.232564	0.455831	0.321060
Zn6	Zn	-0.982564	0.705831	0.571060
Zn7	Zn	-0.732564	0.955831	0.821060
Zn8	Zn	-0.482564	1.205831	1.071060
Zn9	Zn	-1.097823	0.321018	0.321078
Zn10	Zn	-0.847823	0.571018	0.571078
Zn11	Zn	-0.597823	0.821018	0.821078
Zn12	Zn	-0.347823	1.071018	1.071078
Zn13	Zn	-1.097785	0.455789	0.455850
Zn14	Zn	-0.847785	0.705789	0.705850
Zn15	Zn	-0.597785	0.955789	0.955850
Zn16	Zn	-0.347785	1.205789	1.205850
O17	O	-1.165206	0.388408	0.388471
O18	O	-0.915206	0.638408	0.638471
O19	O	-0.665206	0.888408	0.888471
O20	O	-0.415206	1.138408	1.138471
O21	O	-1.345473	0.338885	0.438024
O22	O	-1.095473	0.588885	0.688024
O23	O	-0.845473	0.838885	0.938024
O24	O	-0.595473	1.088885	1.188024
O25	O	-1.214669	0.437976	0.208230
O26	O	-0.964669	0.687976	0.458230
O27	O	-0.714669	0.937976	0.708230
O28	O	-0.464669	1.187976	0.958230
O29	O	-1.115761	0.208182	0.338990
O30	O	-0.865761	0.458182	0.588990
O31	O	-0.615761	0.708182	0.838990
O32	O	-0.365761	0.958182	1.088990
O33	O	-1.345408	0.437951	0.338959
O34	O	-1.095408	0.687951	0.588959
O35	O	-0.845408	0.937951	0.838959
O36	O	-0.595408	1.187951	1.088959
O37	O	-1.214820	0.208163	0.438041
O38	O	-0.964820	0.458163	0.688041
O39	O	-0.714820	0.708163	0.938041
O40	O	-0.464820	0.958163	1.188041
O41	O	-1.115675	0.338930	0.208243
O42	O	-0.865675	0.588930	0.458243
O43	O	-0.615675	0.838930	0.708243
O44	O	-0.365675	1.088930	0.958243
O45	O	-0.984985	0.338889	0.338944
O46	O	-0.734985	0.588889	0.588944
O47	O	-0.484985	0.838889	0.838944
O48	O	-0.234985	1.088889	1.088944
O49	O	-1.115696	0.437879	0.568689
O50	O	-0.865696	0.687879	0.818689
O51	O	-0.615696	0.937879	1.068689
O52	O	-0.365696	1.187879	1.318689
O53	O	-0.984957	0.437905	0.437960
O54	O	-0.734957	0.687905	0.687960
O55	O	-0.484957	0.937905	0.937960
O56	O	-0.234957	1.187905	1.187960
O57	O	-1.214783	0.338845	0.568724
O58	O	-0.964783	0.588845	0.818724
O59	O	-0.714783	0.838845	1.068724
O60	O	-0.464783	1.088845	1.318724
O61	O	-1.214632	0.568658	0.338912
O62	O	-0.964632	0.818658	0.588912
O63	O	-0.714632	1.068658	0.838912
O64	O	-0.464632	1.318658	1.088912
O65	O	-1.115611	0.568627	0.437942
O66	O	-0.865611	0.818627	0.687942
O67	O	-0.615611	1.068627	0.937942
O68	O	-0.365611	1.318627	1.187942
C69	C	-0.955715	0.388396	0.388449
C70	C	-0.705715	0.638396	0.638449
C71	C	-0.455715	0.888396	0.888449
C72	C	-0.205715	1.138396	1.138449
C73	C	-0.866094	0.388410	0.388458
C74	C	-0.616094	0.638410	0.638458
C75	C	-0.366094	0.888410	0.888458
C76	C	-0.116094	1.138410	1.138458
C77	C	-1.165130	0.597898	0.388438
C78	C	-0.915130	0.847898	0.638438
C79	C	-0.665130	1.097898	0.888438
C80	C	-0.415130	1.347898	1.138438
C81	C	-1.165171	0.687519	0.388450
C82	C	-0.915171	0.937519	0.638450
C83	C	-0.665171	1.187519	0.888450
C84	C	-0.415171	1.437519	1.138450
C85	C	-1.165245	0.388354	0.598780
C86	C	-0.915245	0.638354	0.848780
C87	C	-0.665245	0.888354	1.098780
C88	C	-0.415245	1.138354	1.348780
C89	C	-1.165262	0.388332	0.688402
C90	C	-0.915262	0.638332	0.938402
C91	C	-0.665262	0.888332	1.188402
C92	C	-0.415262	1.138332	1.438402
C93	C	-1.375515	0.388420	0.388494
C94	C	-1.125515	0.638420	0.638494
C95	C	-0.875515	0.888420	0.888494
C96	C	-0.625515	1.138420	1.138494
C97	C	-1.465136	0.388425	0.388504
C98	C	-1.215136	0.638425	0.638504
C99	C	-0.965136	0.888425	0.888504
C100	C	-0.715136	1.138425	1.138504
C101	C	-0.537918	0.388416	0.388493
C102	C	-0.287918	0.638416	0.638493
C103	C	-0.037918	0.888416	0.888493
C104	C	0.212082	1.138416	1.138493
C105	C	-0.629227	0.388412	0.388481
C106	C	-0.379227	0.638412	0.638481
C107	C	-0.129227	0.888412	0.888481
C108	C	0.120773	1.138412	1.138481
C109	C	-0.702003	0.388414	0.388475
C110	C	-0.452003	0.638414	0.638475
C111	C	-0.202003	0.888414	0.888475
C112	C	0.047997	1.138414	1.138475
C113	C	-0.793318	0.388409	0.388464
C114	C	-0.543318	0.638409	0.638464
C115	C	-0.293318	0.888409	0.888464
C116	C	-0.043318	1.138409	1.138464
C117	C	-1.165305	0.178099	0.388523
C118	C	-0.915305	0.428099	0.638523
C119	C	-0.665305	0.678099	0.888523
C120	C	-0.415305	0.928099	1.138523
C121	C	-1.165347	0.088477	0.388545
C122	C	-0.915347	0.338477	0.638545
C123	C	-0.665347	0.588477	0.888545
C124	C	-0.415347	0.838477	1.138545
C125	C	-1.165311	1.015695	0.388534
C126	C	-0.915311	1.265695	0.638534
C127	C	-0.665311	1.515695	0.888534
C128	C	-0.415311	1.765695	1.138534
C129	C	-1.165270	0.924387	0.388513
C130	C	-0.915270	1.174387	0.638513
C131	C	-0.665270	1.424387	0.888513
C132	C	-0.415270	1.674387	1.138513
C133	C	-1.165240	0.851610	0.388492
C134	C	-0.915240	1.101610	0.638492
C135	C	-0.665240	1.351610	0.888492
C136	C	-0.415240	1.601610	1.138492
C137	C	-1.165200	0.760296	0.388471
C138	C	-0.915200	1.010296	0.638471
C139	C	-0.665200	1.260296	0.888471
C140	C	-0.415200	1.510296	1.138471
C141	C	-1.165213	0.388402	0.178981
C142	C	-0.915213	0.638402	0.428981
C143	C	-0.665213	0.888402	0.678981
C144	C	-0.415213	1.138402	0.928981
C145	C	-1.165352	0.388198	0.089360
C146	C	-0.915352	0.638198	0.339360
C147	C	-0.665352	0.888198	0.589360
C148	C	-0.415352	1.138198	0.839360
C149	C	-1.165275	0.388314	0.761184
C150	C	-0.915275	0.638314	1.011184
C151	C	-0.665275	0.888314	1.261184
C152	C	-0.415275	1.138314	1.511184
C153	C	-1.165294	0.388284	0.852493
C154	C	-0.915294	0.638284	1.102493
C155	C	-0.665294	0.888284	1.352493
C156	C	-0.415294	1.138284	1.602493
C157	C	-1.165313	0.388255	0.925269
C158	C	-0.915313	0.638255	1.175269
C159	C	-0.665313	0.888255	1.425269
C160	C	-0.415313	1.138255	1.675269
C161	C	-1.165333	0.388226	1.016583
C162	C	-0.915333	0.638226	1.266583
C163	C	-0.665333	0.888226	1.516583
C164	C	-0.415333	1.138226	1.766583
