data_functionalizedCrystal
_audit_creation_method	'MofGen! by Chris Wilmer'
_symmetry_space_group_name_H-M	'P1'
_symmetry_Int_Tables_number	1
_symmetry_cell_setting	triclinic
loop_
_symmetry_equiv_pos_as_xyz
  x,y,z
_cell_length_a	16.625548
_cell_length_b	21.295417
_cell_length_c	16.625548
_cell_angle_alpha	90.016382
_cell_angle_beta	90.008236
_cell_angle_gamma	90.031575
loop_
_atom_site_label
_atom_site_type_symbol
_atom_site_fract_x
_atom_site_fract_y
_atom_site_fract_z
Zn1	Zn	1.232537	-0.250696	0.455881
Zn2	Zn	1.565871	0.082638	0.789214
Zn3	Zn	1.899204	0.415971	1.122547
Zn4	Zn	1.232451	-0.355938	0.321036
Zn5	Zn	1.565784	-0.022605	0.654369
Zn6	Zn	1.899117	0.310729	0.987703
Zn7	Zn	1.097728	-0.250688	0.321061
Zn8	Zn	1.431061	0.082645	0.654395
Zn9	Zn	1.764395	0.415978	0.987728
Zn10	Zn	1.097651	-0.355933	0.455826
Zn11	Zn	1.430984	-0.022600	0.789159
Zn12	Zn	1.764317	0.310734	1.122492
O13	O	1.165092	-0.303314	0.388451
O14	O	1.498425	0.030020	0.721784
O15	O	1.831758	0.363353	1.055118
O16	O	1.345358	-0.264661	0.438006
O17	O	1.678691	0.068672	0.771339
O18	O	2.012025	0.402005	1.104672
O19	O	1.214576	-0.341975	0.208207
O20	O	1.547909	-0.008642	0.541540
O21	O	1.881242	0.324691	0.874874
O22	O	1.115680	-0.162600	0.338979
O23	O	1.449013	0.170733	0.672312
O24	O	1.782346	0.504067	1.005646
O25	O	1.345294	-0.341982	0.338936
O26	O	1.678628	-0.008649	0.672269
O27	O	2.011961	0.324684	1.005602
O28	O	1.214723	-0.162605	0.438030
O29	O	1.548057	0.170728	0.771363
O30	O	1.881390	0.504061	1.104697
O31	O	1.115595	-0.264649	0.208226
O32	O	1.448929	0.068684	0.541559
O33	O	1.782262	0.402018	0.874892
O34	O	0.984885	-0.264644	0.338926
O35	O	1.318219	0.068689	0.672259
O36	O	1.651552	0.402022	1.005592
O37	O	1.115547	-0.341974	0.568665
O38	O	1.448881	-0.008641	0.901999
O39	O	1.782214	0.324693	1.235332
O40	O	0.984828	-0.341967	0.437937
O41	O	1.318162	-0.008634	0.771270
O42	O	1.651495	0.324700	1.104603
O43	O	1.214648	-0.264657	0.568706
O44	O	1.547981	0.068677	0.902039
O45	O	1.881315	0.402010	1.235372
O46	O	1.214500	-0.444027	0.338883
O47	O	1.547834	-0.110693	0.672216
O48	O	1.881167	0.222640	1.005549
O49	O	1.115463	-0.444023	0.437912
O50	O	1.448797	-0.110690	0.771245
O51	O	1.782130	0.222644	1.104579
C52	C	0.955601	-0.303305	0.388428
C53	C	1.288934	0.030029	0.721762
C54	C	1.622267	0.363362	1.055095
C55	C	0.865980	-0.303316	0.388438
C56	C	1.199313	0.030017	0.721771
C57	C	1.532646	0.363351	1.055105
C58	C	0.537804	-0.303320	0.388472
C59	C	0.871137	0.030013	0.721806
C60	C	1.204471	0.363346	1.055139
C61	C	0.629112	-0.303317	0.388460
C62	C	0.962446	0.030016	0.721793
C63	C	1.295779	0.363349	1.055127
C64	C	0.701889	-0.303318	0.388454
C65	C	1.035222	0.030015	0.721788
C66	C	1.368556	0.363348	1.055121
C67	C	0.793203	-0.303315	0.388444
C68	C	1.126537	0.030018	0.721777
C69	C	1.459870	0.363352	1.055110
C70	C	1.164986	-0.466865	0.388406
C71	C	1.498319	-0.133532	0.721740
C72	C	1.831653	0.199801	1.055073
C73	C	1.165014	-0.536833	0.388414
C74	C	1.498348	-0.203500	0.721747
C75	C	1.831681	0.129833	1.055081
C76	C	1.216629	-0.569681	0.336902
C77	C	1.549962	-0.236348	0.670236
C78	C	1.883295	0.096986	1.003569
C79	C	1.216667	-0.635424	0.336920
C80	C	1.550000	-0.302090	0.670254
C81	C	1.883333	0.031243	1.003587
C82	C	1.165076	-0.668316	0.388442
C83	C	1.498409	-0.334983	0.721775
C84	C	1.831742	-0.001649	1.055109
C85	C	1.113458	-0.635460	0.439964
C86	C	1.446791	-0.302127	0.773297
C87	C	1.780124	0.031206	1.106630
C88	C	1.113427	-0.569719	0.439950
C89	C	1.446760	-0.236386	0.773283
C90	C	1.780094	0.096947	1.106617
N91	N	1.094539	-0.771584	0.394581
N92	N	1.427873	-0.438251	0.727915
N93	N	1.761206	-0.104917	1.061248
N94	N	1.094571	-0.834036	0.394590
N95	N	1.427904	-0.500702	0.727923
N96	N	1.761237	-0.167369	1.061256
C97	C	1.165166	-0.866391	0.388488
C98	C	1.498499	-0.533057	0.721821
C99	C	1.831833	-0.199724	1.055155
N100	N	1.235730	-0.833935	0.382362
N101	N	1.569064	-0.500602	0.715695
N102	N	1.902397	-0.167268	1.049029
N103	N	1.235698	-0.771478	0.382349
N104	N	1.569031	-0.438145	0.715683
N105	N	1.902365	-0.104811	1.049016
C106	C	1.165103	-0.739601	0.388463
C107	C	1.498437	-0.406268	0.721796
C108	C	1.831770	-0.072935	1.055130
C109	C	1.216826	-0.970524	0.336993
C110	C	1.550159	-0.637191	0.670327
C111	C	1.883492	-0.303857	1.003660
C112	C	1.216865	-1.036268	0.337017
C113	C	1.550198	-0.702934	0.670350
C114	C	1.883531	-0.369601	1.003684
C115	C	1.113649	-1.036303	0.440056
C116	C	1.446982	-0.702970	0.773389
C117	C	1.780315	-0.369636	1.106723
C118	C	1.113617	-0.970561	0.440037
C119	C	1.446950	-0.637227	0.773370
C120	C	1.780283	-0.303894	1.106703
C121	C	1.165204	-0.937675	0.388501
C122	C	1.498537	-0.604342	0.721834
C123	C	1.831871	-0.271008	1.055168
C124	C	1.375400	-0.303323	0.388474
C125	C	1.708734	0.030010	0.721807
C126	C	2.042067	0.363343	1.055141
C127	C	1.465022	-0.303327	0.388484
C128	C	1.798355	0.030006	0.721817
C129	C	2.131688	0.363339	1.055151
C130	C	1.165099	-0.303316	0.598760
C131	C	1.498432	0.030018	0.932093
C132	C	1.831765	0.363351	1.265426
C133	C	1.165102	-0.303316	0.688381
C134	C	1.498435	0.030017	1.021714
C135	C	1.831768	0.363350	1.355048
C136	C	1.165220	-0.139123	0.388513
C137	C	1.498553	0.194210	0.721847
C138	C	1.831886	0.527543	1.055180
C139	C	1.165274	-0.069155	0.388540
C140	C	1.498608	0.264178	0.721873
C141	C	1.831941	0.597511	1.055207
C142	C	1.165068	-0.303322	1.016557
C143	C	1.498402	0.030011	1.349890
C144	C	1.831735	0.363345	1.683223
C145	C	1.165075	-0.303322	0.925248
C146	C	1.498409	0.030011	1.258581
C147	C	1.831742	0.363344	1.591915
C148	C	1.165085	-0.303320	0.852472
C149	C	1.498419	0.030014	1.185805
C150	C	1.831752	0.363347	1.519138
C151	C	1.165092	-0.303319	0.761157
C152	C	1.498425	0.030014	1.094491
C153	C	1.831758	0.363348	1.427824
C154	C	1.165077	-0.303325	1.178960
C155	C	1.498410	0.030009	1.512293
C156	C	1.831743	0.363342	1.845627
C157	C	1.165069	-0.303320	1.089339
C158	C	1.498402	0.030013	1.422672
C159	C	1.831735	0.363347	1.756006
H160	H	1.258636	-0.542908	0.294941
H161	H	1.591970	-0.209574	0.628274
H162	H	1.925303	0.123759	0.961608
H163	H	1.258834	-0.943747	0.295032
H164	H	1.592167	-0.610414	0.628366
H165	H	1.925501	-0.277081	0.961699
Br166	Br	1.286928	-1.080848	0.267110
Br167	Br	1.620261	-0.747515	0.600443
Br168	Br	1.953594	-0.414181	0.933777
H169	H	1.071396	-0.542974	0.481898
H170	H	1.404729	-0.209641	0.815231
H171	H	1.738062	0.123693	1.148565
Br172	Br	1.043639	-1.080935	0.509988
Br173	Br	1.376972	-0.747602	0.843321
Br174	Br	1.710306	-0.414269	1.176655
H175	H	1.071584	-0.943814	0.481979
H176	H	1.404917	-0.610481	0.815312
H177	H	1.738251	-0.277148	1.148646
Br178	Br	1.043447	-0.680098	0.509893
Br179	Br	1.376780	-0.346765	0.843226
Br180	Br	1.710114	-0.013431	1.176559
H181	H	1.258700	-0.662173	0.294974
H182	H	1.592033	-0.328840	0.628307
H183	H	1.925367	0.004493	0.961640
