data_functionalizedCrystal
_audit_creation_method	'MofGen! by Chris Wilmer'
_symmetry_space_group_name_H-M	'P1'
_symmetry_Int_Tables_number	1
_symmetry_cell_setting	triclinic
loop_
_symmetry_equiv_pos_as_xyz
  x,y,z
_cell_length_a	18.215407
_cell_length_b	12.759399
_cell_length_c	18.215398
_cell_angle_alpha	89.978345
_cell_angle_beta	89.983001
_cell_angle_gamma	90.012850
loop_
_atom_site_label
_atom_site_type_symbol
_atom_site_fract_x
_atom_site_fract_y
_atom_site_fract_z
Zn1	Zn	1.125118	-0.418375	-0.416087
Zn2	Zn	1.125047	-0.594065	-0.293029
Zn3	Zn	1.002051	-0.418392	-0.293039
Zn4	Zn	1.002037	-0.594005	-0.416059
O5	O	1.063563	-0.506209	-0.354553
O6	O	1.228093	-0.441698	-0.399770
O7	O	1.108708	-0.570794	-0.190046
O8	O	1.018412	-0.271369	-0.309378
O9	O	1.228041	-0.570777	-0.309360
O10	O	1.108828	-0.271356	-0.399780
O11	O	1.018343	-0.441728	-0.190054
O12	O	0.899065	-0.441670	-0.309351
O13	O	1.018387	-0.570675	-0.519047
O14	O	0.899054	-0.570691	-0.399733
O15	O	1.108814	-0.441640	-0.519067
O16	O	1.108694	-0.741078	-0.309333
O17	O	1.018319	-0.741034	-0.399722
C18	C	0.872357	-0.506177	-0.354540
C19	C	0.790558	-0.506188	-0.354552
C20	C	0.602390	-0.439116	-0.401703
C21	C	0.525531	-0.439125	-0.401706
C22	C	0.525488	-0.573332	-0.307416
C23	C	0.602346	-0.573317	-0.307411
C24	C	0.640795	-0.506210	-0.354558
C25	C	0.487078	-0.506234	-0.354566
C26	C	0.403745	-0.506245	-0.354569
C27	C	0.724133	-0.506198	-0.354555
C28	C	1.063517	-0.779177	-0.354539
C29	C	1.063565	-0.895953	-0.354558
C30	C	1.110728	-1.060528	-0.307566
C31	C	1.110679	-0.950804	-0.307545
C32	C	1.016490	-0.950832	-0.401590
C33	C	1.016535	-1.060554	-0.401607
C34	C	1.157851	-1.115373	-0.260555
C35	C	1.204925	-1.060502	-0.213522
C36	C	1.204877	-0.950778	-0.213500
C37	C	1.157754	-0.895925	-0.260512
C38	C	1.255516	-0.506242	-0.354567
C39	C	1.337315	-0.506256	-0.354572
C40	C	1.063607	-0.506149	-0.546506
C41	C	1.063625	-0.506123	-0.628305
C42	C	1.063629	-0.232176	-0.354584
C43	C	1.063658	-0.115399	-0.354597
C44	C	1.110712	-0.573198	-0.893363
C45	C	1.110701	-0.573234	-0.816504
C46	C	1.016594	-0.438845	-0.816496
C47	C	1.016602	-0.438815	-0.893353
C48	C	1.063665	-0.505990	-0.931785
C49	C	1.063646	-0.506057	-0.778069
C50	C	1.063634	-0.506096	-0.694735
C51	C	1.063677	-0.505952	-1.015124
C52	C	1.063562	-0.506193	-0.163347
C53	C	1.063686	-0.505923	-0.081549
H54	H	1.243286	-1.105170	-0.175243
H55	H	1.243201	-0.906103	-0.175199
H56	H	0.978288	-0.384085	-0.924637
H57	H	0.978278	-0.384153	-0.785196
H58	H	0.633693	-0.384470	-0.440092
H59	H	0.494174	-0.627969	-0.269031
H60	H	0.978213	-1.105231	-0.439911
H61	H	0.633615	-0.627955	-0.269015
C62	C	1.209200	-1.272538	-0.209382
C63	C	1.157902	-1.235982	-0.260575
H64	H	1.209228	-1.346996	-0.209394
H65	H	1.256665	-1.247651	-0.222152
H66	H	1.196490	-1.247769	-0.161876
H67	H	1.170616	-1.260745	-0.308082
H68	H	1.110427	-1.260880	-0.247809
H69	H	1.157711	-0.806580	-0.260483
C70	C	0.533299	-0.306478	-0.494913
C71	C	0.483317	-0.365377	-0.453533
H72	H	0.507236	-0.260953	-0.526913
H73	H	0.563266	-0.266226	-0.462896
H74	H	0.563284	-0.352315	-0.523004
H75	H	0.453336	-0.319540	-0.425438
H76	H	0.453338	-0.405632	-0.485554
C77	C	1.235321	-0.624384	-0.917040
C78	C	1.162438	-0.647044	-0.935606
H79	H	1.267253	-0.669983	-0.943114
H80	H	1.246104	-0.553800	-0.929648
H81	H	1.242037	-0.634021	-0.865765
H82	H	1.155721	-0.637400	-0.986880
H83	H	1.151652	-0.717645	-0.923003
H84	H	0.978125	-0.906164	-0.439866
H85	H	1.149011	-0.627962	-0.785225
