data_functionalizedCrystal
_audit_creation_method	'MofGen! by Chris Wilmer'
_symmetry_space_group_name_H-M	'P1'
_symmetry_Int_Tables_number	1
_symmetry_cell_setting	triclinic
loop_
_symmetry_equiv_pos_as_xyz
  x,y,z
_cell_length_a	13.034595
_cell_length_b	13.032831
_cell_length_c	11.169409
_cell_angle_alpha	82.804574
_cell_angle_beta	97.152496
_cell_angle_gamma	76.683238
loop_
_atom_site_label
_atom_site_type_symbol
_atom_site_fract_x
_atom_site_fract_y
_atom_site_fract_z
Zn1	Zn	-0.629163	1.677647	-1.014785
Zn2	Zn	-0.806765	1.700086	-0.843301
Zn3	Zn	-0.606639	1.500015	-0.784955
Zn4	Zn	-0.784104	1.522539	-1.014774
O5	O	-0.706668	1.600072	-0.914454
O6	O	-0.671632	1.829268	-1.016460
O7	O	-0.780276	1.673510	-0.667615
O8	O	-0.461029	1.504761	-0.791030
O9	O	-0.802116	1.845753	-0.890472
O10	O	-0.477578	1.635267	-0.959885
O11	O	-0.633244	1.526519	-0.624749
O12	O	-0.611269	1.354359	-0.791019
O13	O	-0.763493	1.543150	-1.182722
O14	O	-0.741652	1.370908	-0.959866
O15	O	-0.649658	1.657108	-1.182731
O16	O	-0.952357	1.695351	-0.890461
O17	O	-0.935707	1.564908	-1.016441
C18	C	-0.671558	1.324092	-0.869110
C19	C	-0.656564	1.206030	-0.849745
C20	C	-0.714493	1.161622	-0.924561
C21	C	-0.698997	1.039599	-0.904548
C22	C	-0.982565	1.635037	-0.959812
C23	C	-1.100607	1.650093	-0.979272
C24	C	-1.145138	1.592297	-0.904365
C25	C	-1.267141	1.607856	-0.924477
C26	C	-0.429696	1.564999	-0.868950
C27	C	-0.311668	1.550053	-0.849559
C28	C	-0.706560	1.600138	-1.227491
C29	C	-0.706514	1.600167	-1.360888
C30	C	-0.741915	1.877130	-0.959976
C31	C	-0.756935	1.995195	-0.979374
C32	C	-0.706706	1.600057	-0.602633
C33	C	-0.706479	1.600196	-0.469221
H34	H	-0.775557	1.213940	-1.003434
Br35	Br	-0.597196	0.952411	-0.773091
Br36	Br	-0.858707	1.082377	-1.110861
Br37	Br	-1.224686	1.448382	-0.717832
H38	H	-1.152806	1.711097	-1.058288
Br39	Br	-1.058150	1.490630	-0.772647
H40	H	-0.595492	1.153710	-0.770880
Br41	Br	-1.354128	1.709545	-1.056184
