data_functionalizedCrystal
_audit_creation_method	'MofGen! by Chris Wilmer'
_symmetry_space_group_name_H-M	'P1'
_symmetry_Int_Tables_number	1
_symmetry_cell_setting	triclinic
loop_
_symmetry_equiv_pos_as_xyz
  x,y,z
_cell_length_a	19.288859
_cell_length_b	11.792254
_cell_length_c	18.366186
_cell_angle_alpha	89.993617
_cell_angle_beta	89.990083
_cell_angle_gamma	83.666162
loop_
_atom_site_label
_atom_site_type_symbol
_atom_site_fract_x
_atom_site_fract_y
_atom_site_fract_z
O1	O	0.922163	0.141548	-0.060564
O2	O	0.720011	0.160654	-0.060563
O3	O	0.825988	-0.014143	-0.060558
O4	O	0.816186	0.316345	-0.060569
O5	O	0.825970	-0.014152	0.060541
O6	O	0.719993	0.160646	0.060537
O7	O	0.922145	0.141539	0.060535
Zn8	Zn	0.821066	0.151091	0.079763
Zn9	Zn	0.821090	0.151102	-0.079791
O10	O	0.816168	0.316337	0.060531
C11	C	0.694122	0.160036	-0.000013
C12	C	0.617008	0.158194	-0.000012
C13	C	0.825362	-0.056429	-0.000009
C14	C	0.823514	-0.182413	-0.000010
C15	C	0.053482	0.248297	-0.000016
C16	C	0.125938	0.250038	-0.000020
C17	C	0.170059	0.147475	-0.000015
C18	C	0.141719	0.043163	-0.000025
C19	C	0.069263	0.041425	-0.000029
C20	C	0.290886	0.070980	0.042416
C21	C	0.363340	0.072722	0.042424
C22	C	0.393536	0.152830	-0.000008
C23	C	0.351267	0.231214	-0.042439
C24	C	0.278812	0.229477	-0.042442
C25	C	0.248626	0.149347	-0.000012
C26	C	0.500433	0.259022	-0.000007
C27	C	0.572891	0.260759	-0.000015
C28	C	0.588671	0.053881	-0.000014
C29	C	0.516214	0.052148	-0.000013
C30	C	0.472099	0.154722	-0.000006
C31	C	0.822012	-0.284727	-0.000012
C32	C	0.820134	-0.413085	-0.000019
C33	C	0.948034	0.142157	-0.000016
C34	C	1.025149	0.143999	-0.000022
C35	C	0.816795	0.358622	-0.000020
C36	C	0.818643	0.484607	-0.000024
N37	N	0.821055	0.151083	0.188654
N38	N	0.821107	0.151102	-0.188682
C39	C	0.867997	0.073720	0.226756
C40	C	0.868002	0.073715	0.302984
C41	C	0.821071	0.151092	0.341107
C42	C	0.774119	0.228460	0.302995
C43	C	0.774112	0.228456	0.226769
C44	C	0.812363	0.254503	0.461864
C45	C	0.812375	0.254509	0.538089
C46	C	0.821090	0.151106	0.576214
C47	C	0.829808	0.047693	0.538105
C48	C	0.829800	0.047688	0.461879
C49	C	0.821073	0.151105	0.423762
C50	C	0.868040	0.073732	0.696972
C51	C	0.868040	0.073726	0.773201
C52	C	0.774160	0.228480	0.773211
C53	C	0.774158	0.228477	0.696983
C54	C	0.821101	0.151104	0.658868
H55	H	0.017567	0.331821	-0.000014
H56	H	0.266308	0.005742	0.076971
Cl57	Cl	0.927007	-0.023552	0.178841
Cl58	Cl	0.801470	0.384511	0.413943
H59	H	0.735906	0.291460	0.334039
Cl60	Cl	0.840750	-0.082310	0.413973
H61	H	0.149011	0.334972	-0.000008
H62	H	0.493146	-0.032783	-0.000013
H63	H	0.735945	0.291478	0.804249
H64	H	0.624594	-0.029628	-0.000016
H65	H	0.836904	-0.036508	0.569145
Cl66	Cl	0.927050	-0.023542	0.649055
Cl67	Cl	0.927053	-0.023545	0.821104
Cl68	Cl	0.715094	0.325720	0.178866
Cl69	Cl	0.715145	0.325743	0.649078
H70	H	0.397749	0.008903	0.076978
H71	H	0.177647	-0.040344	-0.000024
H72	H	0.805282	0.338714	0.569111
H73	H	0.375850	0.296448	-0.076989
Cl74	Cl	0.225678	0.328005	-0.095785
Cl75	Cl	0.444972	0.387969	-0.000001
H76	H	0.595958	0.345694	-0.000016
H77	H	0.046196	-0.043509	-0.000034
H78	H	0.906229	0.010715	0.334013
