data_functionalizedCrystal
_audit_creation_method	'MofGen! by Chris Wilmer'
_symmetry_space_group_name_H-M	'P1'
_symmetry_Int_Tables_number	1
_symmetry_cell_setting	triclinic
loop_
_symmetry_equiv_pos_as_xyz
  x,y,z
_cell_length_a	10.654550
_cell_length_b	7.540329
_cell_length_c	10.654550
_cell_angle_alpha	89.996554
_cell_angle_beta	95.515069
_cell_angle_gamma	89.999719
loop_
_atom_site_label
_atom_site_type_symbol
_atom_site_fract_x
_atom_site_fract_y
_atom_site_fract_z
O1	O	1.667839	0.147350	-0.176397
O2	O	2.167839	0.647350	0.323603
O3	O	1.302360	0.147382	-0.193203
O4	O	1.802360	0.647382	0.306797
O5	O	1.493502	0.147354	-0.002061
O6	O	1.993502	0.647354	0.497939
O7	O	1.476696	0.147378	-0.367539
O8	O	1.976696	0.647378	0.132461
O9	O	1.493491	-0.147611	-0.002059
O10	O	1.993491	0.352389	0.497941
O11	O	1.302349	-0.147583	-0.193201
O12	O	1.802349	0.352417	0.306799
O13	O	1.667827	-0.147616	-0.176395
O14	O	2.167827	0.352384	0.323605
Cu15	Cu	1.485087	-0.174532	-0.184798
Cu16	Cu	1.985087	0.325468	0.315202
Cu17	Cu	1.485100	0.174298	-0.184800
Cu18	Cu	1.985100	0.674298	0.315200
O19	O	1.476685	-0.147587	-0.367537
O20	O	1.976685	0.352413	0.132463
C21	C	1.255556	-0.000096	-0.191968
C22	C	1.755556	0.499904	0.308032
C23	C	1.116113	-0.000084	-0.188276
C24	C	1.616113	0.499916	0.311724
C25	C	1.036628	-0.000082	-0.300818
C26	C	1.536628	0.499918	0.199182
C27	C	0.905607	-0.000113	-0.297341
C28	C	1.405607	0.499887	0.202659
C29	C	0.933570	-0.000141	-0.068772
C30	C	1.433570	0.499859	0.431228
C31	C	1.064588	-0.000123	-0.072250
C32	C	1.564588	0.499877	0.427750
N33	N	1.485086	-0.419880	-0.184795
N34	N	1.985086	0.080120	0.315205
C35	C	1.714631	-0.000133	-0.177630
C36	C	2.214631	0.499867	0.322370
C37	C	1.854074	-0.000134	-0.181322
C38	C	2.354074	0.499866	0.318678
C39	C	1.492263	-0.000128	0.044738
C40	C	1.992263	0.499872	0.544738
C41	C	1.488571	-0.000125	0.184181
C42	C	1.988571	0.499875	0.684181
N43	N	1.485111	0.419647	-0.184793
N44	N	1.985111	0.919647	0.315207
C45	C	1.477925	-0.000102	-0.414336
C46	C	1.977925	0.499898	0.085664
C47	C	1.481617	-0.000093	-0.553779
C48	C	1.981617	0.499907	-0.053779
C49	C	1.601112	-0.000134	0.263667
C50	C	2.101112	0.499866	0.763667
C51	C	1.597636	-0.000112	0.394688
C52	C	2.097636	0.499888	0.894688
C53	C	1.369066	-0.000079	0.366725
C54	C	1.869066	0.499921	0.866725
C55	C	1.372544	-0.000088	0.235706
C56	C	1.872544	0.499912	0.735706
H57	H	1.129309	-0.000130	0.019401
H58	H	1.629309	0.499870	0.519401
H59	H	0.891602	-0.000183	0.025693
H60	H	1.391602	0.499817	0.525693
H61	H	1.274601	-0.000052	0.408693
H62	H	1.774601	0.499948	0.908693
C63	C	0.818172	-0.000102	-0.421133
C64	C	1.318172	0.499898	0.078867
H65	H	0.732762	-0.000136	-0.402450
H66	H	1.232762	0.499864	0.097550
H67	H	0.833891	0.102770	-0.468656
H68	H	1.333891	0.602770	0.031344
H69	H	0.833911	-0.102965	-0.468662
H70	H	1.333911	0.397035	0.031338
C71	C	1.093302	-0.000058	-0.428441
C72	C	1.593302	0.499942	0.071559
H73	H	1.027193	-0.000077	-0.494967
H74	H	1.527193	0.499923	0.005033
H75	H	1.143824	0.102809	-0.434552
H76	H	1.643824	0.602809	0.065448
H77	H	1.143836	-0.102926	-0.434547
H78	H	1.643836	0.397074	0.065453
C79	C	1.728735	-0.000154	0.206993
C80	C	2.228735	0.499846	0.706993
H81	H	1.795262	-0.000140	0.273101
H82	H	2.295262	0.499860	0.773101
H83	H	1.734843	-0.103017	0.156470
H84	H	2.234843	0.396983	0.656470
H85	H	1.734845	0.102717	0.156459
H86	H	2.234845	0.602717	0.656459
C87	C	1.721432	-0.000133	0.482117
C88	C	2.221432	0.499867	0.982117
H89	H	1.791026	-0.000170	0.432661
H90	H	2.291026	0.499830	0.932661
H91	H	1.724840	0.102730	0.533801
H92	H	2.224840	0.602730	1.033801
H93	H	1.724815	-0.103004	0.533814
H94	H	2.224815	0.396996	1.033814
H95	H	1.280893	-0.000075	0.170985
H96	H	1.780893	0.499925	0.670985
