data_functionalizedCrystal
_audit_creation_method	'MofGen! by Chris Wilmer'
_symmetry_space_group_name_H-M	'P1'
_symmetry_Int_Tables_number	1
_symmetry_cell_setting	triclinic
loop_
_symmetry_equiv_pos_as_xyz
  x,y,z
_cell_length_a	20.919309
_cell_length_b	20.919309
_cell_length_c	16.704494
_cell_angle_alpha	90.228451
_cell_angle_beta	60.956690
_cell_angle_gamma	60.099716
loop_
_atom_site_label
_atom_site_type_symbol
_atom_site_fract_x
_atom_site_fract_y
_atom_site_fract_z
Zr1	Zr	0.640284	0.671951	-0.098715
O2	O	0.770417	0.576511	-0.231083
O3	O	0.508413	0.697302	-0.054045
O4	O	0.627567	0.709150	-0.218285
O5	O	0.661901	0.559760	0.058059
O6	O	0.619512	0.818221	-0.212845
O7	O	0.651264	0.564663	-0.066842
O8	O	0.406368	0.797027	0.080952
O9	O	0.875045	0.580954	-0.235738
O10	O	0.557286	0.794231	-0.035877
O11	O	0.571236	0.709174	0.053275
O12	O	0.711524	0.723123	-0.140097
O13	O	0.725474	0.638066	-0.050945
Zr14	Zr	0.644403	0.838086	0.109165
Zr15	Zr	0.627438	0.845906	-0.090038
Zr16	Zr	0.657250	0.664131	0.100488
Zr17	Zr	0.807154	0.679036	-0.106138
Zr18	Zr	0.477534	0.831000	0.116589
O19	O	0.776274	0.812734	0.064495
O20	O	0.752151	0.823853	-0.218746
O21	O	0.794540	0.565392	0.052158
O22	O	0.514270	0.933525	0.241534
O23	O	0.490148	0.944644	-0.041707
O24	O	0.532536	0.686183	0.229196
O25	O	0.622786	0.950276	-0.047608
O26	O	0.657121	0.800886	0.228736
O27	O	0.665175	0.691815	0.223295
O28	O	0.633424	0.945373	0.077293
O29	O	0.864834	0.719225	-0.228841
O30	O	0.419854	0.790811	0.239291
O31	O	0.409642	0.929082	0.246188
O32	O	0.396157	0.935298	0.087849
O33	O	0.888530	0.574738	-0.077398
O34	O	0.878319	0.713009	-0.070501
O35	O	0.573164	0.786913	0.150548
O36	O	0.559214	0.871970	0.061395
O37	O	0.713452	0.800862	-0.042825
O38	O	0.727401	0.715805	0.046328
C39	C	0.658413	0.537427	-0.005628
C40	C	0.663866	0.463578	-0.009311
C41	C	0.433616	0.746155	0.014511
C42	C	0.362775	0.743147	0.017663
C43	C	0.585920	0.466000	0.043355
C44	C	0.591049	0.396609	0.039891
C45	C	0.674126	0.324798	-0.016244
C46	C	0.752079	0.322378	-0.068912
C47	C	0.746949	0.391768	-0.065443
C48	C	0.693644	0.113428	-0.029436
C49	C	0.698768	0.044036	-0.032904
C50	C	0.537738	0.118272	0.075901
C51	C	0.532615	0.187660	0.079361
C52	C	0.610568	0.185234	0.026697
C53	C	0.679371	0.253868	-0.019788
C54	C	0.605322	0.256163	0.030247
C55	C	0.322213	0.786131	-0.027393
C56	C	0.255646	0.783307	-0.024423
C57	C	0.229648	0.737493	0.023598
C58	C	0.270214	0.694508	0.068660
C59	C	0.336775	0.697338	0.065695
C60	C	0.029039	0.726733	0.034885
C61	C	-0.037525	0.723905	0.037844
C62	C	-0.052089	0.812705	-0.055238
C63	C	0.014477	0.815527	-0.058204
C64	C	0.055033	0.772545	-0.013138
C65	C	0.161609	0.734603	0.026633
C66	C	0.123067	0.775440	-0.016167
C67	C	0.851072	0.763881	-0.004061
C68	C	0.921912	0.766889	-0.007212
C69	C	0.621122	0.764800	-0.243947
C70	C	0.613920	0.768119	-0.328514
C71	C	0.626275	0.972609	0.016079
C72	C	0.620821	1.046458	0.019762
C73	C	0.761424	0.700127	-0.596240
C74	C	0.754661	0.703244	-0.675701
C75	C	0.593631	0.777476	-0.566899
C76	C	0.600394	0.774359	-0.487438
C77	C	0.684294	0.735682	-0.502114
C78	C	0.691056	0.732560	-0.422651
C79	C	0.530027	0.806796	-0.313850
C80	C	0.523264	0.809914	-0.393311
C81	C	0.663565	0.745236	0.254398
C82	C	0.670767	0.741917	0.338965
C83	C	0.417547	0.963747	0.025365
C84	C	0.341253	1.034587	0.032200
C85	C	0.454837	0.736374	0.263684
C86	C	0.391199	0.730046	0.351402
C87	C	0.438768	0.953965	0.274537
C88	C	0.369676	1.021486	0.365939
C89	C	0.845920	0.556071	-0.264087
C90	C	0.915011	0.488550	-0.355488
C91	C	0.867141	0.546290	-0.014914
C92	C	0.943435	0.475449	-0.021749
C93	C	0.829851	0.773662	-0.253233
C94	C	0.893489	0.779990	-0.340952
C95	C	0.304417	1.027276	-0.015374
C96	C	0.232739	1.093833	-0.008971
C97	C	0.197893	1.167699	0.045012
C98	C	0.234735	1.175009	0.092587
C99	C	0.306416	1.108454	0.086177
C100	C	0.362321	0.767653	0.443379
C101	C	0.302536	0.761704	0.525807
C102	C	0.271626	0.718153	0.516256
C103	C	0.300510	0.680541	0.424269
C104	C	0.360299	0.686486	0.341843
C105	C	0.329948	1.097600	0.362326
C106	C	0.265037	1.161051	0.448200
C107	C	0.239851	1.148384	0.537687
C108	C	0.279587	1.072262	0.541297
C109	C	0.344501	1.008813	0.455424
C110	C	0.954748	0.412436	-0.351876
C111	C	1.019679	0.348987	-0.437751
C112	C	1.044869	0.361653	-0.527237
C113	C	1.005129	0.437776	-0.530848
C114	C	0.940203	0.501224	-0.444974
C115	C	0.980277	0.482761	0.025816
C116	C	1.051971	0.416206	0.019390
C117	C	1.086819	0.342339	-0.034595
C118	C	1.049974	0.335029	-0.082166
C119	C	0.978285	0.401584	-0.075746
C120	C	0.924380	0.823548	-0.331370
C121	C	0.984165	0.829508	-0.413782
C122	C	1.013063	0.791906	-0.505775
C123	C	0.982166	0.748347	-0.515355
C124	C	0.922377	0.742392	-0.432944
H125	H	0.518270	0.524468	0.089071
Cl126	Cl	0.107777	1.251362	0.053062
H127	H	0.206353	1.235160	0.136538
H128	H	0.817468	0.674292	-0.752342
H129	H	0.383803	0.655863	0.266955
Cl130	Cl	0.931973	0.392378	-0.135542
H131	H	0.336399	1.114417	0.124924
Cl132	Cl	1.036802	0.453686	-0.643353
H133	H	1.097736	0.309983	-0.597154
Cl134	Cl	0.439747	0.121315	0.142108
Cl135	Cl	1.018513	0.701072	-0.631013
H136	H	-0.058688	0.686594	0.076948
Cl137	Cl	0.401164	0.822410	0.455412
H138	H	1.009316	0.864977	-0.405963
Cl139	Cl	0.348211	0.934423	-0.083250
H140	H	1.061748	0.796762	-0.572872
H141	H	1.145193	0.288152	-0.039815
Cl142	Cl	0.186434	1.084625	-0.068781
H143	H	0.897232	0.706919	-0.440759
Cl144	Cl	1.069622	0.253299	-0.433190
Cl145	Cl	0.080013	0.672701	0.091544
H146	H	0.527577	0.398588	0.082779
H147	H	0.900860	0.854169	-0.256471
Cl148	Cl	0.204674	0.837329	-0.081091
Cl149	Cl	0.237519	0.636926	0.129046
Cl150	Cl	1.093790	0.242162	-0.150026
H151	H	0.766422	-0.014437	-0.078621
H152	H	0.279025	0.792336	0.600699
Cl153	Cl	0.215093	1.256739	0.443639
H154	H	0.907849	0.563198	-0.447926
Cl155	Cl	0.428171	0.277935	0.149935
Cl156	Cl	0.936487	0.575614	0.093685
Cl157	Cl	0.433058	0.851491	-0.195511
H158	H	0.759372	0.701063	-0.434604
H159	H	1.081959	0.422173	0.058133
H160	H	0.343379	0.823433	-0.066502
H161	H	0.757117	0.111443	-0.072336
H162	H	0.369803	0.662334	0.102382
H163	H	0.525324	0.808975	-0.554967
Cl164	Cl	0.856519	0.232100	-0.139477
H165	H	0.934243	0.402107	-0.279020
Cl166	Cl	-0.103081	0.866739	-0.111885
Cl167	Cl	0.844943	0.388721	-0.131651
Cl168	Cl	0.158240	1.228157	0.645635
Cl169	Cl	0.196461	0.710689	0.619889
Cl170	Cl	0.394433	0.913127	0.459983
H171	H	0.537682	0.314634	0.075957
H172	H	0.035642	0.852831	-0.097307
Cl173	Cl	0.783807	0.163587	-0.090357
H174	H	0.350443	1.107929	0.289470
H175	H	0.829739	0.668626	-0.608191
H176	H	0.144233	0.812744	-0.055262
Cl177	Cl	0.128910	0.677021	0.087014
H178	H	0.275334	0.645082	0.416507
H179	H	0.259071	1.061960	0.614168
H180	H	0.454956	0.841406	-0.381375
