data_functionalizedCrystal
_audit_creation_method	'MofGen! by Chris Wilmer'
_symmetry_space_group_name_H-M	'P1'
_symmetry_Int_Tables_number	1
_symmetry_cell_setting	triclinic
loop_
_symmetry_equiv_pos_as_xyz
  x,y,z
_cell_length_a	12.837943
_cell_length_b	17.699105
_cell_length_c	11.892295
_cell_angle_alpha	86.106057
_cell_angle_beta	85.697121
_cell_angle_gamma	90.939596
loop_
_atom_site_label
_atom_site_type_symbol
_atom_site_fract_x
_atom_site_fract_y
_atom_site_fract_z
O1	O	1.368342	-0.201078	0.094013
O2	O	1.066559	-0.191361	0.094018
O3	O	1.225967	-0.086656	0.093991
O4	O	1.208934	-0.305783	0.094040
O5	O	1.239226	-0.077938	-0.094013
O6	O	1.079819	-0.182643	-0.093986
O7	O	1.381602	-0.192361	-0.093991
Zn8	Zn	1.232816	-0.186118	-0.123838
Zn9	Zn	1.215345	-0.197604	0.123865
O10	O	1.222194	-0.297066	-0.093964
C11	C	1.034576	-0.183719	0.000016
C12	C	0.919523	-0.173928	0.000017
C13	C	1.231983	-0.054055	-0.000015
C14	C	1.230142	0.030098	-0.000027
N15	N	1.244746	-0.178279	-0.292890
C16	C	0.678280	-0.291633	0.000028
C17	C	0.570176	-0.282437	0.000027
C18	C	0.595210	-0.146341	0.000009
C19	C	0.703314	-0.155537	0.000009
C20	C	0.744844	-0.228185	0.000020
C21	C	0.852950	-0.237381	0.000028
C22	C	0.877982	-0.101285	0.000001
C23	C	0.769879	-0.092089	0.000001
C24	C	1.413584	-0.200002	0.000013
C25	C	1.528637	-0.209793	0.000020
C26	C	1.211642	0.541882	0.102514
C27	C	1.213372	0.462812	0.102507
C28	C	1.221463	0.428043	0.000020
C29	C	1.227835	0.472348	-0.102466
C30	C	1.226113	0.551416	-0.102457
C31	C	1.234784	0.153473	-0.102505
C32	C	1.236503	0.074398	-0.102506
C33	C	1.222043	0.064869	0.102459
C34	C	1.220321	0.143938	0.102468
C35	C	1.226698	0.188236	-0.000017
C36	C	1.224824	0.273972	-0.000007
C37	C	1.223330	0.342307	0.000009
C38	C	1.216176	0.670334	0.000038
C39	C	1.218011	0.586181	0.000037
C40	C	1.120281	-0.260011	-0.529567
C41	C	1.128645	-0.254526	-0.647907
C42	C	1.269843	-0.161830	-0.647911
C43	C	1.261479	-0.167315	-0.529572
C44	C	1.186694	-0.216406	-0.470404
C45	C	1.178326	-0.221886	-0.352062
C46	C	1.319528	-0.129194	-0.352068
C47	C	1.327892	-0.123709	-0.470408
N48	N	1.203423	-0.205437	0.292917
H49	H	0.886761	-0.296534	0.000035
H50	H	1.234430	0.444032	-0.185913
H51	H	0.712094	-0.350786	0.000038
C52	C	1.241783	0.202191	-0.215241
N53	N	1.247050	0.238887	-0.300160
C54	C	1.352103	-0.107836	-0.713016
N55	N	1.414061	-0.067167	-0.762055
H56	H	0.515982	-0.334103	0.000031
H57	H	1.388783	-0.083742	-0.518596
H58	H	0.932191	-0.049622	0.000003
H59	H	0.561384	-0.087190	-0.000093
H60	H	1.373604	-0.093685	-0.303883
C61	C	1.233115	0.600145	-0.215191
N62	N	1.238392	0.636847	-0.300105
H63	H	0.736050	-0.032940	-0.000021
C64	C	1.202752	0.580121	0.215260
N65	N	1.196064	0.608921	0.300184
H66	H	1.117430	-0.261856	-0.303888
C67	C	1.206366	0.414086	0.215241
N68	N	1.201089	0.377386	0.300157
C69	C	1.038005	-0.314000	-0.464480
N70	N	0.976031	-0.354664	-0.415458
C71	C	1.211462	0.182180	0.215211
N72	N	1.204809	0.210984	0.300132
C73	C	1.055581	-0.302493	-0.712983
N74	N	1.000545	-0.338623	-0.761998
C75	C	1.215044	0.016134	0.215196
N76	N	1.209773	-0.020572	0.300107
H77	H	1.243086	0.046092	-0.185968
