data_functionalizedCrystal
_audit_creation_method	'MofGen! by Chris Wilmer'
_symmetry_space_group_name_H-M	'P1'
_symmetry_Int_Tables_number	1
_symmetry_cell_setting	triclinic
loop_
_symmetry_equiv_pos_as_xyz
  x,y,z
_cell_length_a	12.759401
_cell_length_b	19.077432
_cell_length_c	12.759393
_cell_angle_alpha	87.666576
_cell_angle_beta	89.982620
_cell_angle_gamma	87.727271
loop_
_atom_site_label
_atom_site_type_symbol
_atom_site_fract_x
_atom_site_fract_y
_atom_site_fract_z
Zn1	Zn	1.622958	-0.280152	-0.577164
Zn2	Zn	1.629879	-0.397868	-0.394418
Zn3	Zn	1.447266	-0.280190	-0.401501
Zn4	Zn	1.454269	-0.397813	-0.570062
O5	O	1.538593	-0.339006	-0.485786
O6	O	1.770898	-0.295775	-0.552930
O7	O	1.605621	-0.382296	-0.248334
O8	O	1.464745	-0.181695	-0.430740
O9	O	1.775982	-0.382260	-0.418667
O10	O	1.593825	-0.181667	-0.559798
O11	O	1.471455	-0.295838	-0.253538
O12	O	1.301173	-0.295785	-0.423854
O13	O	1.476680	-0.382167	-0.718028
O14	O	1.306318	-0.382203	-0.547695
O15	O	1.600615	-0.295722	-0.723245
O16	O	1.612411	-0.496350	-0.411781
O17	O	1.483391	-0.496310	-0.540826
C18	C	1.265625	-0.338993	-0.485773
C19	C	1.148849	-0.339004	-0.485791
C20	C	1.549440	-0.521868	-0.474787
C21	C	1.554177	-0.600097	-0.470117
C22	C	1.096698	-0.384074	-0.550160
C23	C	0.986974	-0.384083	-0.550171
C24	C	0.981563	-0.293950	-0.421435
C25	C	1.091284	-0.293938	-0.421430
C26	C	1.099821	-0.436113	-0.624481
C27	C	0.990097	-0.436122	-0.624492
C28	C	1.489182	-0.636854	-0.535054
C29	C	1.493638	-0.710358	-0.530662
C30	C	1.563093	-0.747104	-0.461337
C31	C	1.628091	-0.710342	-0.396392
C32	C	1.623629	-0.636839	-0.400780
C33	C	1.583639	-0.966935	-0.441010
C34	C	1.588098	-1.040443	-0.436629
C35	C	1.453643	-1.040454	-0.570898
C36	C	1.449192	-0.966950	-0.575284
C37	C	1.514186	-0.930194	-0.510336
N38	N	1.567651	-0.822238	-0.456847
N39	N	1.509622	-0.855062	-0.514821
C40	C	1.812627	-0.339019	-0.485800
C41	C	1.929404	-0.339025	-0.485806
C42	C	1.538657	-0.338934	-0.759824
C43	C	1.538684	-0.338903	-0.876603
C44	C	1.527732	-0.155430	-0.496851
C45	C	1.523103	-0.077200	-0.501566
C46	C	1.468852	-0.293877	-0.934181
C47	C	1.468883	-0.293856	-1.043906
C48	C	1.608586	-0.383890	-1.038465
C49	C	1.608550	-0.383914	-0.928742
C50	C	1.388199	-0.241894	-0.937323
C51	C	1.388229	-0.241873	-1.047049
C52	C	1.538587	-0.339026	-0.212818
C53	C	1.538751	-0.338858	-0.096052
H54	H	1.133741	-0.257234	-0.369023
C55	C	0.857540	-0.284074	-0.280732
C56	C	0.918289	-0.244422	-0.350679
H57	H	0.818487	-0.253496	-0.237044
H58	H	0.810776	-0.310907	-0.319071
H59	H	0.902164	-0.314703	-0.238633
H60	H	0.873665	-0.213796	-0.392784
H61	H	0.965058	-0.217577	-0.312337
C62	C	1.654510	-1.153116	-0.370164
C63	C	1.664357	-1.080838	-0.360329
H64	H	1.701566	-1.178052	-0.323041
H65	H	1.584637	-1.165179	-0.354096
H66	H	1.670667	-1.165134	-0.440024
H67	H	1.648192	-1.068818	-0.290471
H68	H	1.734246	-1.068770	-0.376390
C69	C	1.279489	-0.261620	-0.786187
C70	C	1.279510	-0.261604	-0.895929
H71	H	1.212388	-0.273785	-0.760634
H72	H	1.331074	-0.294877	-0.759372
H73	H	1.294973	-0.216204	-0.764130
H74	H	1.264033	-0.307022	-0.917986
H75	H	1.227908	-0.228346	-0.922754
H76	H	1.440702	-0.740282	-0.583531
H77	H	1.392636	-0.937032	-0.631735
C78	C	0.844510	-0.509683	-0.590481
C79	C	0.954252	-0.509684	-0.590459
H80	H	0.822383	-0.555097	-0.569477
H81	H	0.817705	-0.476398	-0.542941
H82	H	0.819018	-0.497566	-0.659049
H83	H	0.979743	-0.521797	-0.521889
H84	H	0.981067	-0.542981	-0.638001
C85	C	1.807386	-0.732896	-0.344006
C86	C	1.704431	-0.750737	-0.320185
H87	H	1.854513	-0.757832	-0.296954
H88	H	1.823446	-0.744896	-0.413885
H89	H	1.814023	-0.683859	-0.337317
H90	H	1.697792	-0.799773	-0.326882
H91	H	1.688366	-0.738741	-0.250289
H92	H	1.128760	-0.421576	-0.706760
C93	C	1.446540	-0.126086	-0.980089
C94	C	1.423390	-0.172008	-0.895587
H95	H	1.468261	-0.082941	-0.954320
H96	H	1.501254	-0.146451	-1.020750
H97	H	1.385796	-0.117714	-1.022496
H98	H	1.484136	-0.180384	-0.853184
H99	H	1.368671	-0.151639	-0.854909
H100	H	1.312096	-0.261384	-1.079903
C101	C	1.400771	-1.153134	-0.623786
C102	C	1.382196	-1.080858	-0.642276
H103	H	1.356652	-1.178075	-0.667849
H104	H	1.472070	-1.165125	-0.638514
H105	H	1.386169	-1.165219	-0.552457
H106	H	1.396804	-1.068772	-0.713604
H107	H	1.310880	-1.068862	-0.627556
H108	H	1.432629	-0.606940	-0.591511
C109	C	1.717008	-0.974318	-0.307873
C110	C	1.655095	-0.926540	-0.369635
H111	H	1.761130	-0.949376	-0.263815
H112	H	1.673000	-1.003033	-0.265928
H113	H	1.758894	-1.002940	-0.351992
H114	H	1.613203	-0.897920	-0.325516
H115	H	1.699108	-0.897812	-0.411584
H116	H	1.406794	-0.187355	-1.080119
C117	C	1.213503	-0.536046	-0.657750
C118	C	1.149920	-0.505975	-0.580765
H119	H	1.244436	-0.579173	-0.630755
H120	H	1.172117	-0.544461	-0.717469
H121	H	1.267090	-0.504899	-0.677222
H122	H	1.096328	-0.537120	-0.561298
H123	H	1.191308	-0.497562	-0.521027
C124	C	0.979141	-0.453440	-0.809447
C125	C	0.942623	-0.409857	-0.730486
H126	H	0.949826	-0.437225	-0.874879
H127	H	1.053433	-0.452536	-0.813046
H128	H	0.958914	-0.500117	-0.793974
H129	H	0.962857	-0.363182	-0.745955
H130	H	0.868315	-0.410755	-0.726890
C131	C	1.673535	-0.614272	-0.224270
C132	C	1.695074	-0.596433	-0.329399
H133	H	1.717645	-0.589330	-0.180200
H134	H	1.602232	-0.602277	-0.209560
H135	H	1.686137	-0.663308	-0.211750
H136	H	1.682464	-0.547398	-0.341920
H137	H	1.766393	-0.608423	-0.344114
H138	H	1.665399	-0.420589	-0.881865
C139	C	1.670676	-0.423830	-1.204249
C140	C	1.685389	-0.433358	-1.095781
H141	H	1.718099	-0.454366	-1.239629
H142	H	1.600710	-0.434125	-1.221605
H143	H	1.683260	-0.376535	-1.225075
H144	H	1.672797	-0.480651	-1.074953
H145	H	1.755372	-0.423067	-1.078418
