data_functionalizedCrystal
_audit_creation_method	'MofGen! by Chris Wilmer'
_symmetry_space_group_name_H-M	'P1'
_symmetry_Int_Tables_number	1
_symmetry_cell_setting	triclinic
loop_
_symmetry_equiv_pos_as_xyz
  x,y,z
_cell_length_a	11.792254
_cell_length_b	11.792241
_cell_length_c	10.868271
_cell_angle_alpha	90.005281
_cell_angle_beta	89.995955
_cell_angle_gamma	95.803993
loop_
_atom_site_label
_atom_site_type_symbol
_atom_site_fract_x
_atom_site_fract_y
_atom_site_fract_z
O1	O	1.506900	-0.155637	-0.102316
O2	O	1.840233	0.177696	0.231018
O3	O	2.173566	0.511030	0.564351
O4	O	1.176561	-0.171655	-0.102320
O5	O	1.509894	0.161678	0.231014
O6	O	1.843227	0.495012	0.564347
O7	O	1.349747	0.001524	-0.102309
O8	O	1.683080	0.334858	0.231024
O9	O	2.016413	0.668191	0.564358
O10	O	1.333714	-0.328816	-0.102326
O11	O	1.667047	0.004517	0.231007
O12	O	2.000380	0.337851	0.564340
O13	O	1.349732	0.001531	0.102336
O14	O	1.683066	0.334864	0.435669
O15	O	2.016399	0.668198	0.769002
O16	O	1.176546	-0.171648	0.102325
O17	O	1.509880	0.161685	0.435658
O18	O	1.843213	0.495019	0.768992
O19	O	1.506885	-0.155630	0.102329
O20	O	1.840219	0.177703	0.435662
O21	O	2.173552	0.511037	0.768996
Zn22	Zn	1.341714	-0.163638	0.134819
Zn23	Zn	1.675047	0.169695	0.468152
Zn24	Zn	2.008380	0.503029	0.801485
Zn25	Zn	1.341732	-0.163647	-0.134809
Zn26	Zn	1.675066	0.169686	0.198524
Zn27	Zn	2.008399	0.503020	0.531857
O28	O	1.333699	-0.328809	0.102318
O29	O	1.667033	0.004524	0.435652
O30	O	2.000366	0.337857	0.768985
C31	C	1.134263	-0.170642	0.000002
C32	C	1.467596	0.162691	0.333335
C33	C	1.800929	0.496024	0.666669
C34	C	1.008250	-0.167622	0.000001
C35	C	1.341583	0.165711	0.333334
C36	C	1.674916	0.499044	0.666667
C37	C	1.348732	0.043819	0.000013
C38	C	1.682066	0.377152	0.333346
C39	C	2.015399	0.710485	0.666680
C40	C	1.345718	0.169832	0.000012
C41	C	1.679051	0.503166	0.333345
C42	C	2.012385	0.836499	0.666678
C43	C	1.549183	-0.156643	0.000004
C44	C	1.882517	0.176691	0.333338
C45	C	2.215850	0.510024	0.666671
C46	C	1.675196	-0.159663	-0.000002
C47	C	2.008530	0.173671	0.333331
C48	C	2.341863	0.507004	0.666664
C49	C	1.334714	-0.371104	-0.000006
C50	C	1.668047	-0.037770	0.333327
C51	C	2.001380	0.295563	0.666660
C52	C	1.337728	-0.497118	-0.000013
C53	C	1.671061	-0.163784	0.333320
C54	C	2.004395	0.169549	0.666653
C55	C	1.777533	-0.162117	-0.000005
C56	C	2.110866	0.171217	0.333329
C57	C	2.444200	0.504550	0.666662
C58	C	1.905920	-0.165185	-0.000002
C59	C	2.239253	0.168148	0.333331
C60	C	2.572586	0.501482	0.666665
N61	N	1.341709	-0.163631	0.318833
N62	N	1.675042	0.169702	0.652166
N63	N	2.008376	0.503035	0.985499
C64	C	1.340175	0.400545	-0.000009
C65	C	1.673508	0.733878	0.333324
C66	C	2.006842	1.067212	0.666658
C67	C	1.343255	0.272160	0.000002
C68	C	1.676588	0.605493	0.333336
C69	C	2.009921	0.938826	0.666669
N70	N	1.341746	-0.163645	-0.318824
N71	N	1.675079	0.169688	0.014510
N72	N	2.008413	0.503022	0.347843
C73	C	1.341727	-0.163645	0.569839
C74	C	1.675060	0.169689	0.903172
C75	C	2.008393	0.503022	1.236505
C76	C	1.341713	-0.163640	0.430161
C77	C	1.675046	0.169693	0.763495
C78	C	2.008380	0.503026	1.096828
