data_functionalizedCrystal
_audit_creation_method	'MofGen! by Chris Wilmer'
_symmetry_space_group_name_H-M	'P1'
_symmetry_Int_Tables_number	1
_symmetry_cell_setting	triclinic
loop_
_symmetry_equiv_pos_as_xyz
  x,y,z
_cell_length_a	10.540510
_cell_length_b	10.540539
_cell_length_c	15.186229
_cell_angle_alpha	89.998389
_cell_angle_beta	89.996395
_cell_angle_gamma	84.519401
loop_
_atom_site_label
_atom_site_type_symbol
_atom_site_fract_x
_atom_site_fract_y
_atom_site_fract_z
O1	O	1.685907	0.178719	-0.073230
O2	O	1.316489	0.195614	-0.073230
O3	O	1.509626	0.002459	-0.073229
O4	O	1.492770	0.371874	-0.073231
O5	O	1.509613	0.002456	0.073229
O6	O	1.316476	0.195611	0.073228
O7	O	1.685894	0.178716	0.073228
Zn8	Zn	1.501183	0.187163	0.096481
Zn9	Zn	1.501200	0.187167	-0.096483
O10	O	1.492757	0.371871	0.073227
C11	C	1.269179	0.194354	-0.000001
C12	C	1.128229	0.190587	-0.000001
C13	C	0.910774	0.324771	-0.000339
C14	C	1.057370	0.328789	-0.000003
C15	C	1.083462	0.119839	0.083631
C16	C	0.936701	0.116800	0.083696
C17	C	0.936910	0.113925	-0.082853
C18	C	1.083251	0.120480	-0.083953
C19	C	1.508356	-0.044845	-0.000001
C20	C	1.504574	-0.185793	-0.000006
C21	C	1.359655	-0.369204	-0.000335
C22	C	1.363489	-0.222587	-0.000005
C23	C	1.572463	-0.247459	0.083628
C24	C	1.567648	-0.394003	0.083699
C25	C	1.570532	-0.394519	-0.082851
C26	C	1.571832	-0.247537	-0.083957
C27	C	1.733204	0.179976	-0.000003
C28	C	1.874154	0.183743	-0.000008
C29	C	1.494028	0.419175	-0.000002
C30	C	1.497810	0.560123	-0.000003
N31	N	1.501181	0.187160	0.228174
N32	N	1.501213	0.187160	-0.228176
C33	C	1.586732	0.101660	0.453897
C34	C	1.586735	0.101657	0.546087
C35	C	1.415653	0.272664	0.546095
C36	C	1.415644	0.272660	0.453907
C37	C	1.501190	0.187159	0.407810
C38	C	1.501203	0.187161	0.592188
C39	C	1.501207	0.187158	0.692144
C40	C	1.501185	0.187160	0.307848
H41	H	1.085768	0.384470	0.060048
H42	H	1.669114	-0.441983	0.087493
O43	O	1.292727	-0.166126	-0.079414
H44	H	1.212205	-0.097980	-0.057362
O45	O	1.124326	0.184911	0.166076
H46	H	1.092132	0.134014	0.224764
H47	H	1.674694	-0.223326	-0.089007
H48	H	1.345980	0.342284	0.416380
O49	O	1.709701	-0.217853	0.087757
H50	H	1.773122	-0.308179	0.086842
O51	O	1.510126	-0.436340	-0.166834
H52	H	1.477278	-0.351240	-0.206716
O53	O	0.907565	-0.023518	-0.083614
H54	H	0.848579	-0.042075	-0.025309
H55	H	1.130852	0.018097	0.086742
H56	H	1.656389	0.032034	0.583608
O57	O	1.096242	0.402138	-0.079404
H58	H	1.144350	0.485774	-0.057341
O59	O	1.506128	-0.193301	-0.165916
H60	H	1.554220	-0.237421	-0.224953
H61	H	1.672437	-0.441756	-0.083413
O62	O	0.883395	0.180839	0.166499
H63	H	0.907582	0.281020	0.167964
O64	O	1.285811	-0.407095	-0.079764
H65	H	1.346781	-0.476707	-0.119855
O66	O	1.286117	-0.409182	0.078669
H67	H	1.347539	-0.479166	0.118172
H68	H	0.868826	0.378614	-0.060317
H69	H	1.132319	0.019582	-0.089003
O70	O	0.853172	0.395685	0.078666
H71	H	0.798577	0.330922	0.118168
H72	H	1.525293	-0.204856	0.145866
O73	O	1.678980	0.009433	0.404174
H74	H	1.738452	-0.050030	0.451713
O75	O	0.880716	0.171784	-0.166828
H76	H	0.807423	0.250958	-0.150450
O77	O	1.121144	0.188663	-0.165916
H78	H	1.171811	0.272130	-0.146950
H79	H	1.309684	-0.180826	0.060047
O80	O	1.323406	0.364900	0.595812
H81	H	1.261232	0.310889	0.637831
O82	O	0.906223	-0.020112	0.088742
H83	H	0.996276	-0.083860	0.091132
O84	O	1.501162	-0.431367	0.166503
H85	H	1.472739	-0.344803	0.206116
