data_functionalizedCrystal
_audit_creation_method	'MofGen! by Chris Wilmer'
_symmetry_space_group_name_H-M	'P1'
_symmetry_Int_Tables_number	1
_symmetry_cell_setting	triclinic
loop_
_symmetry_equiv_pos_as_xyz
  x,y,z
_cell_length_a	35.277628
_cell_length_b	35.288095
_cell_length_c	35.277682
_cell_angle_alpha	59.997929
_cell_angle_beta	89.998958
_cell_angle_gamma	60.000166
loop_
_atom_site_label
_atom_site_type_symbol
_atom_site_fract_x
_atom_site_fract_y
_atom_site_fract_z
O1	O	-0.323087	-0.271234	0.011271
O2	O	-0.267964	-0.193634	-0.011228
O3	O	-0.267962	-0.271233	0.066395
O4	O	-0.323089	-0.193635	-0.066351
O5	O	-0.204915	-0.334261	0.066394
O6	O	-0.204918	-0.256661	-0.011228
O7	O	-0.260040	-0.334261	0.011271
Cu8	Cu	-0.226722	-0.301216	0.000022
Cu9	Cu	-0.301282	-0.226679	0.000022
O10	O	-0.260043	-0.256662	-0.066351
C11	C	-0.163481	-0.071298	-0.023519
C12	C	-0.186872	-0.024531	-0.020298
C13	C	-0.117860	-0.093995	-0.023838
C14	C	-0.163483	-0.139918	-0.023524
C15	C	-0.186875	-0.166518	-0.020308
C16	C	-0.117862	-0.162510	-0.023843
C17	C	-0.094838	-0.139921	-0.023519
C18	C	-0.044836	-0.166525	-0.020298
C19	C	-0.186401	-0.093991	-0.023843
C20	C	-0.004439	-0.188019	-0.017694
C21	C	-0.205769	0.013252	-0.017695
C22	C	-0.205774	-0.188010	-0.017709
C23	C	0.046241	-0.214983	-0.014429
C24	C	-0.229477	0.060653	-0.014430
C25	C	-0.229483	-0.214971	-0.014450
C26	C	-0.500364	-0.466062	0.034181
C27	C	-0.477341	-0.511990	0.034503
C28	C	-0.431722	-0.466060	0.034178
C29	C	-0.408804	-0.511988	0.034500
C30	C	-0.431721	-0.534685	0.034181
C31	C	-0.477342	-0.443470	0.034500
C32	C	-0.665895	-0.342485	0.021756
C33	C	-0.712772	-0.317221	0.018243
C34	C	-0.736287	-0.338907	0.016481
C35	C	-0.787116	-0.311512	0.012664
C36	C	-0.712921	-0.385861	0.018236
C37	C	-0.666047	-0.411125	0.021755
C38	C	-0.642533	-0.389434	0.023515
C39	C	-0.389805	-0.687746	0.021758
C40	C	-0.368199	-0.731097	0.018245
C41	C	-0.322995	-0.752841	0.016478
C42	C	-0.299567	-0.799839	0.012662
C43	C	-0.299393	-0.731235	0.018230
C44	C	-0.320995	-0.687892	0.021751
C45	C	-0.366205	-0.666148	0.023512
C46	C	-0.389808	-0.342477	0.021744
C47	C	-0.368205	-0.317208	0.018222
C48	C	-0.322998	-0.338892	0.016457
C49	C	-0.299573	-0.311495	0.012637
C50	C	-0.299398	-0.385842	0.018210
C51	C	-0.321003	-0.411107	0.021730
C52	C	-0.366208	-0.389423	0.023501
C53	C	-0.591706	-0.416830	0.027326
C54	C	-0.551191	-0.438667	0.030366
C55	C	-0.408299	-0.438663	0.030360
C56	C	-0.389629	-0.416824	0.027317
C57	C	-0.408298	-0.581682	0.030365
C58	C	-0.389627	-0.619146	0.027325
C59	C	-0.432024	-0.061845	-0.438511
C60	C	-0.477645	-0.015917	-0.461431
C61	C	-0.432025	-0.061844	-0.369869
C62	C	-0.477645	-0.015916	-0.392892
C63	C	-0.500668	0.006779	-0.438513
C64	C	-0.409106	-0.084435	-0.392891
C65	C	-0.320834	-0.185425	-0.480424
C66	C	-0.299076	-0.210690	-0.502029
C67	C	-0.322531	-0.189005	-0.547237
C68	C	-0.298945	-0.216401	-0.570661
C69	C	-0.367745	-0.142051	-0.570839
C70	C	-0.389497	-0.116787	-0.549237
C71	C	-0.366040	-0.138476	-0.504027
C72	C	-0.666200	0.159838	-0.549704
C73	C	-0.713077	0.203188	-0.571462
C74	C	-0.736595	0.224934	-0.548009
C75	C	-0.787423	0.271931	-0.571594
C76	C	-0.713230	0.203329	-0.502796
C77	C	-0.666353	0.159987	-0.481041
C78	C	-0.642841	0.138241	-0.504500
C79	C	-0.320836	-0.185423	-0.204335
C80	C	-0.299080	-0.210691	-0.157455
C81	C	-0.322536	-0.189006	-0.133940
C82	C	-0.298950	-0.216402	-0.083110
C83	C	-0.367748	-0.142056	-0.157305
C84	C	-0.389502	-0.116792	-0.204182
C85	C	-0.366040	-0.138478	-0.227695
C86	C	-0.389632	-0.111079	-0.480604
C87	C	-0.408436	-0.089241	-0.461934
C88	C	-0.408437	-0.089240	-0.319041
C89	C	-0.389634	-0.111078	-0.278525
C90	C	-0.551496	0.053776	-0.462102
C91	C	-0.592011	0.091239	-0.480906
O92	O	0.196122	-0.334274	0.011291
O93	O	0.063378	-0.256674	-0.011208
O94	O	0.140994	-0.334276	0.066414
O95	O	0.118506	-0.256671	-0.066331
O96	O	0.140996	-0.271251	0.066419
O97	O	0.063380	-0.193649	-0.011203
O98	O	0.196124	-0.271249	0.011296
Cu99	Cu	0.129752	-0.226694	0.000047
Cu100	Cu	0.129750	-0.301228	0.000041
O101	O	0.118508	-0.193647	-0.066327
O102	O	-0.260036	0.184774	0.011294
O103	O	-0.204910	0.074561	-0.011204
O104	O	-0.204913	0.074554	0.066418
O105	O	-0.260033	0.184781	-0.066328
O106	O	-0.267961	0.074557	0.066413
O107	O	-0.267958	0.074564	-0.011209
O108	O	-0.323083	0.184777	0.011289
Cu109	Cu	-0.301278	0.129670	0.000040
Cu110	Cu	-0.226716	0.129668	0.000045
O111	O	-0.323081	0.184784	-0.066333
O112	O	-0.936929	0.397535	-0.602582
O113	O	-0.804185	0.287317	-0.547454
O114	O	-0.881802	0.287315	-0.547452
O115	O	-0.859312	0.397537	-0.602584
O116	O	-0.881801	0.287314	-0.610498
O117	O	-0.804183	0.287316	-0.610500
O118	O	-0.936927	0.397533	-0.665628
Cu119	Cu	-0.870555	0.342425	-0.643820
Cu120	Cu	-0.870557	0.342426	-0.569261
O121	O	-0.859310	0.397536	-0.665629
O122	O	-0.267961	-0.271234	-0.665316
O123	O	-0.323086	-0.193638	-0.610192
O124	O	-0.323085	-0.271236	-0.610189
O125	O	-0.267962	-0.193636	-0.665319
O126	O	-0.260038	-0.334264	-0.547142
O127	O	-0.260039	-0.256666	-0.547145
O128	O	-0.204914	-0.334262	-0.602269
Cu129	Cu	-0.226720	-0.301219	-0.568950
Cu130	Cu	-0.301280	-0.226681	-0.643511
O131	O	-0.204915	-0.256664	-0.602272
C132	C	-0.094840	-0.456607	0.293255
C133	C	-0.044837	-0.503376	0.316647
C134	C	-0.117862	-0.433912	0.316174
C135	C	-0.163483	-0.387984	0.224612
C136	C	-0.186875	-0.361381	0.174609
C137	C	-0.186401	-0.365393	0.247634
C138	C	-0.163483	-0.387984	0.293255
C139	C	-0.186874	-0.361382	0.316646
C140	C	-0.117862	-0.433912	0.247635
C141	C	-0.205772	-0.339889	0.335543
C142	C	-0.004440	-0.541160	0.335545
C143	C	-0.205773	-0.339888	0.134212
C144	C	-0.229480	-0.312925	0.359250
C145	C	0.046239	-0.588562	0.359254
C146	C	-0.229481	-0.312924	0.083532
C147	C	0.153295	-0.388013	0.293279
C148	C	0.150076	-0.361413	0.316673
C149	C	0.153614	-0.433940	0.316196
C150	C	0.153297	-0.388008	0.224634
C151	C	0.150079	-0.361403	0.174632
C152	C	0.153616	-0.433935	0.247655
C153	C	0.153293	-0.456633	0.293275
C154	C	0.150072	-0.503401	0.316665
C155	C	0.153617	-0.365420	0.247659
C156	C	0.147469	-0.541185	0.335561
C157	C	0.147474	-0.339922	0.335572
C158	C	0.147479	-0.339908	0.134234
C159	C	0.144204	-0.588587	0.359267
C160	C	0.144211	-0.312962	0.359282
C161	C	0.144218	-0.312942	0.083555
C162	C	-0.163482	-0.139963	0.293267
C163	C	-0.186875	-0.166567	0.316654
C164	C	-0.117861	-0.162559	0.316187
C165	C	-0.163482	-0.071333	0.224628
C166	C	-0.186873	-0.024557	0.174627
C167	C	-0.117860	-0.094033	0.247653
C168	C	-0.094838	-0.139967	0.293272
C169	C	-0.044835	-0.166574	0.316665
C170	C	-0.186401	-0.094030	0.247648
C171	C	-0.004438	-0.188070	0.335563
C172	C	-0.205773	-0.188061	0.335549
C173	C	-0.205771	0.013233	0.134231
C174	C	0.046242	-0.215038	0.359273
C175	C	-0.229482	-0.215026	0.359253
C176	C	-0.229479	0.060643	0.083553
C177	C	0.095627	0.006487	-0.438489
C178	C	0.095306	-0.016206	-0.461409
C179	C	0.095623	-0.062137	-0.369847
C180	C	0.095303	-0.084726	-0.392871
C181	C	0.095625	-0.062133	-0.438492
C182	C	0.095305	-0.016210	-0.392868
C183	C	0.108059	0.159543	-0.480399
C184	C	0.111575	0.202893	-0.502003
C185	C	0.113340	0.224640	-0.547210
C186	C	0.117161	0.271637	-0.570634
C187	C	0.111587	0.203038	-0.570814
C188	C	0.108065	0.159695	-0.549212
C189	C	0.106302	0.137948	-0.504002
C190	C	0.108054	-0.116452	-0.549685
C191	C	0.111568	-0.141562	-0.571444
C192	C	0.113332	-0.188519	-0.547992
C193	C	0.117148	-0.215753	-0.571578
C194	C	0.111577	-0.210363	-0.502779
C195	C	0.108055	-0.185249	-0.481023
C196	C	0.106297	-0.138292	-0.504481
C197	C	0.108046	-0.116473	-0.204312
C198	C	0.111564	-0.141591	-0.157432
C199	C	0.113326	-0.188548	-0.133918
C200	C	0.117142	-0.215786	-0.083088
C201	C	0.111574	-0.210388	-0.157283
C202	C	0.108058	-0.185270	-0.204161
C203	C	0.106290	-0.138308	-0.227673
C204	C	0.102487	0.090947	-0.480580
C205	C	0.099445	0.053484	-0.461911
C206	C	0.099438	-0.089371	-0.319019
C207	C	0.102477	-0.111078	-0.278503
C208	C	0.099442	-0.089362	-0.462081
C209	C	0.102482	-0.111066	-0.480886
O210	O	0.118477	-0.256700	0.452885
O211	O	0.140984	-0.334299	0.397762
O212	O	0.063360	-0.256699	0.397752
O213	O	0.196101	-0.334300	0.452895
O214	O	0.063367	-0.193672	0.334708
O215	O	0.140992	-0.271271	0.334718
O216	O	0.118484	-0.193673	0.389842
Cu217	Cu	0.129739	-0.226717	0.356523
Cu218	Cu	0.129730	-0.301254	0.431080
O219	O	0.196108	-0.271272	0.389852
C220	C	-0.500364	0.533998	-0.438484
C221	C	-0.477341	0.556591	-0.461399
C222	C	-0.431721	0.465364	-0.369840
C223	C	-0.408802	0.488061	-0.392859
C224	C	-0.431720	0.533995	-0.438478
C225	C	-0.477342	0.488064	-0.392865
C226	C	-0.665898	0.588334	-0.480407
C227	C	-0.712776	0.613450	-0.502014
C228	C	-0.736291	0.660414	-0.547220
C229	C	-0.787122	0.687654	-0.570647
C230	C	-0.712926	0.682257	-0.570819
C231	C	-0.666050	0.657138	-0.549214
C232	C	-0.642536	0.610174	-0.504006
C233	C	-0.389802	0.657585	-0.549654
C234	C	-0.368196	0.682850	-0.571408
C235	C	-0.322990	0.661164	-0.547952
C236	C	-0.299561	0.688558	-0.571532
C237	C	-0.299388	0.614205	-0.502740
C238	C	-0.320990	0.588935	-0.480990
C239	C	-0.366202	0.610633	-0.504452
C240	C	-0.389804	0.312282	-0.204314
C241	C	-0.368201	0.268929	-0.157436
C242	C	-0.322993	0.247179	-0.133918
C243	C	-0.299567	0.200174	-0.083089
C244	C	-0.299392	0.268786	-0.157278
C245	C	-0.320998	0.312139	-0.204154
C246	C	-0.366204	0.333881	-0.227670
C247	C	-0.591708	0.582942	-0.480581
C248	C	-0.551193	0.561234	-0.461909
C249	C	-0.408297	0.418359	-0.319013
C250	C	-0.389626	0.380890	-0.278499
C251	C	-0.408296	0.561393	-0.462062
C252	C	-0.389624	0.583232	-0.480862
H253	H	-0.099379	-0.074998	-0.024355
H254	H	-0.301727	-0.203079	-0.223479
C255	C	0.094701	0.008998	-0.511363
C256	C	0.134210	-0.028263	-0.513820
C257	C	0.133669	-0.005078	-0.559827
H258	H	0.094588	0.039646	-0.521836
H259	H	0.067648	0.019343	-0.530431
H260	H	0.161256	-0.038601	-0.494758
H261	H	0.134332	-0.058913	-0.503356
H262	H	0.106616	0.005268	-0.578895
H263	H	0.133555	0.025570	-0.570297
H264	H	0.160473	-0.030357	-0.561501
H265	H	0.154122	-0.452930	0.353678
C266	C	0.154271	-0.459318	0.223077
C267	C	0.154468	-0.504472	0.253019
C268	C	0.155060	-0.527861	0.230392
H269	H	0.181327	-0.469733	0.214378
H270	H	0.127474	-0.434141	0.196119
H271	H	0.181262	-0.529645	0.279969
H272	H	0.127413	-0.494072	0.261719
H273	H	0.128264	-0.502683	0.203434
H274	H	0.182118	-0.538272	0.221694
H275	H	0.155190	-0.558497	0.250702
H276	H	-0.262587	-0.403497	0.016771
C277	C	-0.438911	0.681240	-0.575156
C278	C	-0.468972	0.733145	-0.586606
C279	C	-0.514213	0.754953	-0.610102
H280	H	-0.448466	0.659535	-0.555770
H281	H	-0.439655	0.682538	-0.602720
H282	H	-0.468230	0.731843	-0.559046
H283	H	-0.459432	0.754863	-0.605997
H284	H	-0.514957	0.756251	-0.637666
H285	H	-0.523763	0.733244	-0.590714
H286	H	-0.534614	0.790174	-0.617878
H287	H	-0.223885	-0.074993	-0.024363
C288	C	-0.295381	0.538018	-0.431871
C289	C	-0.283941	0.548507	-0.401880
C290	C	-0.260356	0.501618	-0.356626
H291	H	-0.267809	0.511042	-0.431135
H292	H	-0.314719	0.526076	-0.422251
H293	H	-0.264603	0.560441	-0.411498
H294	H	-0.311504	0.575475	-0.402602
H295	H	-0.279694	0.489676	-0.347005
H296	H	-0.232786	0.474645	-0.355895
H297	H	-0.252595	0.508730	-0.336271
C298	C	-0.236411	-0.068653	0.223050
C299	C	-0.264399	-0.053423	0.247746
C300	C	-0.310470	-0.030037	0.225095
H301	H	-0.238249	-0.093797	0.221447
H302	H	-0.246844	-0.037969	0.192533
H303	H	-0.253969	-0.084104	0.278254
H304	H	-0.262575	-0.028274	0.249349
H305	H	-0.320902	0.000647	0.194579
H306	H	-0.312302	-0.055183	0.223495
H307	H	-0.329465	-0.019696	0.241846
H308	H	-0.099380	-0.199466	-0.024359
H309	H	-0.647059	0.142138	-0.568809
C310	C	-0.250313	0.245265	-0.131823
C311	C	-0.234276	0.273475	-0.162311
C312	C	-0.189071	0.251828	-0.138878
H313	H	-0.230534	0.208622	-0.120649
H314	H	-0.250310	0.248098	-0.106421
H315	H	-0.234276	0.270637	-0.187705
H316	H	-0.254043	0.310117	-0.173487
H317	H	-0.189068	0.254661	-0.113477
H318	H	-0.169295	0.215186	-0.127706
H319	H	-0.178185	0.270968	-0.159560
C320	C	-0.093282	-0.459236	0.222967
C321	C	-0.117969	-0.474469	0.210206
C322	C	-0.095336	-0.497794	0.187480
H323	H	-0.062759	-0.489910	0.243189
H324	H	-0.091713	-0.434043	0.195978
H325	H	-0.119532	-0.499661	0.237191
H326	H	-0.148491	-0.443805	0.189978
H327	H	-0.093768	-0.472602	0.160491
H328	H	-0.064814	-0.528467	0.207706
H329	H	-0.112085	-0.508129	0.178815
C330	C	-0.093312	-0.459185	0.366167
C331	C	-0.123267	-0.429474	0.381402
C332	C	-0.100675	-0.452747	0.427456
H333	H	-0.066342	-0.459386	0.368010
H334	H	-0.084644	-0.494927	0.385234
H335	H	-0.131929	-0.393742	0.362340
H336	H	-0.150237	-0.429271	0.379571
H337	H	-0.092007	-0.488489	0.446522
H338	H	-0.073706	-0.452947	0.429294
H339	H	-0.120997	-0.432595	0.437799
C340	C	-0.393163	-0.118469	-0.131781
C341	C	-0.368127	-0.105899	-0.115374
C342	C	-0.391529	-0.084163	-0.091867
H343	H	-0.395984	-0.143841	-0.106347
H344	H	-0.423198	-0.086872	-0.152404
H345	H	-0.338100	-0.137492	-0.094751
H346	H	-0.365305	-0.080523	-0.140798
H347	H	-0.421564	-0.052566	-0.112490
H348	H	-0.394349	-0.109537	-0.066435
H349	H	-0.374548	-0.075627	-0.080735
C350	C	0.094505	-0.133929	-0.368249
C351	C	0.054564	-0.121970	-0.355512
C352	C	0.053805	-0.167275	-0.332841
H353	H	0.121251	-0.162518	-0.341254
H354	H	0.094329	-0.144180	-0.388510
H355	H	0.054744	-0.111727	-0.335251
H356	H	0.027811	-0.093389	-0.382498
H357	H	0.053629	-0.177526	-0.353103
H358	H	0.080553	-0.195861	-0.305848
H359	H	0.026703	-0.159166	-0.324200
H360	H	0.154133	-0.328462	0.229178
C361	C	-0.250270	0.590569	-0.477284
C362	C	-0.220206	0.538676	-0.465859
C363	C	-0.174955	0.516891	-0.442412
H364	H	-0.249479	0.589247	-0.449713
H365	H	-0.240755	0.612312	-0.496706
H366	H	-0.229718	0.516939	-0.446437
H367	H	-0.220982	0.539983	-0.493421
H368	H	-0.165441	0.538634	-0.461834
H369	H	-0.174170	0.515573	-0.414843
H370	H	-0.154551	0.481682	-0.434661
C371	C	-0.093300	-0.068609	0.222943
C372	C	-0.123244	-0.023436	0.177982
C373	C	-0.100638	0.000001	0.155211
H374	H	-0.066330	-0.093740	0.221312
H375	H	-0.084631	-0.058213	0.239626
H376	H	-0.131907	-0.033834	0.161304
H377	H	-0.150214	0.001706	0.179600
H378	H	-0.091968	0.010397	0.171894
H379	H	-0.073669	-0.025134	0.153583
H380	H	-0.120953	0.030656	0.124704
C381	C	-0.502364	0.009506	-0.511418
C382	C	-0.547322	0.054677	-0.526651
C383	C	-0.570104	0.078114	-0.572697
H384	H	-0.504000	-0.015625	-0.513245
H385	H	-0.485687	0.019905	-0.530496
H386	H	-0.563995	0.044278	-0.507579
H387	H	-0.545699	0.079820	-0.524836
H388	H	-0.553428	0.088513	-0.591775
H389	H	-0.571737	0.052979	-0.574519
H390	H	-0.600609	0.108768	-0.583040
C391	C	0.113385	-0.261306	-0.131763
C392	C	0.075771	-0.252671	-0.115361
C393	C	0.077418	-0.299559	-0.091859
H394	H	0.141582	-0.289559	-0.106327
H395	H	0.111811	-0.270712	-0.152389
H396	H	0.077349	-0.243272	-0.094737
H397	H	0.047569	-0.224426	-0.140788
H398	H	0.075845	-0.308964	-0.112484
H399	H	0.105617	-0.327808	-0.066425
H400	H	0.051896	-0.293705	-0.080731
H401	H	-0.371622	-0.121391	-0.374409
C402	C	-0.236349	-0.316047	0.222988
C403	C	-0.238811	-0.274079	0.220724
C404	C	-0.284811	-0.228612	0.198023
H405	H	-0.255449	-0.323983	0.239659
H406	H	-0.246780	-0.305733	0.192447
H407	H	-0.228386	-0.284392	0.251260
H408	H	-0.219721	-0.266127	0.204050
H409	H	-0.295242	-0.218297	0.167482
H410	H	-0.303907	-0.236553	0.214697
H411	H	-0.286487	-0.200129	0.196480
C412	C	-0.358813	-0.537260	0.035221
C413	C	-0.343577	-0.507544	0.035440
C414	C	-0.297527	-0.530815	0.036116
H415	H	-0.356978	-0.537465	0.008454
H416	H	-0.339744	-0.573000	0.062307
H417	H	-0.362641	-0.471813	0.008358
H418	H	-0.345400	-0.507337	0.062206
H419	H	-0.278457	-0.566555	0.063202
H420	H	-0.295696	-0.531019	0.009348
H421	H	-0.287181	-0.510659	0.036269
C422	C	-0.250287	-0.754951	0.016385
C423	C	-0.221315	-0.808961	0.053981
C424	C	-0.176077	-0.830827	0.052291
H425	H	-0.239260	-0.735943	0.017953
H426	H	-0.250280	-0.752160	-0.011833
H427	H	-0.221320	-0.811748	0.082191
H428	H	-0.232327	-0.827982	0.052420
H429	H	-0.176070	-0.828036	0.024073
H430	H	-0.165055	-0.811815	0.053858
H431	H	-0.156415	-0.867476	0.077797
C432	C	-0.295431	0.335686	-0.229516
C433	C	-0.320378	0.389678	-0.245910
C434	C	-0.296836	0.411385	-0.269270
H435	H	-0.292552	0.332920	-0.254945
H436	H	-0.265417	0.316556	-0.208805
H437	H	-0.350383	0.408804	-0.266620
H438	H	-0.323257	0.392460	-0.220490
H439	H	-0.266823	0.392255	-0.248559
H440	H	-0.293959	0.408615	-0.294697
H441	H	-0.313757	0.448020	-0.280393
C442	C	0.113474	0.226590	-0.619904
C443	C	0.111172	0.198406	-0.635955
C444	C	0.112904	0.220090	-0.681178
H445	H	0.141696	0.223772	-0.619948
H446	H	0.087980	0.263238	-0.639654
H447	H	0.136664	0.161767	-0.616211
H448	H	0.082951	0.201222	-0.635923
H449	H	0.087409	0.256738	-0.700928
H450	H	0.141127	0.217271	-0.681217
H451	H	0.111338	0.200974	-0.692076
C452	C	-0.502066	-0.537236	0.035186
C453	C	-0.547033	-0.507509	0.035388
C454	C	-0.569820	-0.530750	0.036018
H455	H	-0.485415	-0.572976	0.062255
H456	H	-0.503678	-0.537419	0.008401
H457	H	-0.545419	-0.507332	0.062170
H458	H	-0.563696	-0.471770	0.008321
H459	H	-0.571432	-0.530933	0.009233
H460	H	-0.553165	-0.566489	0.063087
H461	H	-0.600334	-0.510581	0.036151
H462	H	-0.099381	-0.199518	0.353671
H463	H	-0.387419	-0.748683	0.016816
H464	H	0.094825	0.002760	-0.374372
C465	C	-0.393791	0.733884	-0.620460
C466	C	-0.397941	0.775428	-0.620375
C467	C	-0.421511	0.822448	-0.665554
H468	H	-0.423827	0.743263	-0.631364
H469	H	-0.376921	0.728221	-0.640259
H470	H	-0.414811	0.781091	-0.600583
H471	H	-0.367912	0.766066	-0.609479
H472	H	-0.404641	0.816784	-0.685353
H473	H	-0.451546	0.831821	-0.676455
H474	H	-0.424326	0.850639	-0.665503
C475	C	0.113434	-0.117781	-0.132154
C476	C	0.111121	-0.071273	-0.162783
C477	C	0.112833	-0.049318	-0.139515
H478	H	0.141654	-0.143070	-0.106754
H479	H	0.087937	-0.109138	-0.120999
H480	H	0.136616	-0.079918	-0.173930
H481	H	0.082903	-0.045971	-0.188183
H482	H	0.087336	-0.040674	-0.128361
H483	H	0.141054	-0.074611	-0.114116
H484	H	0.111260	-0.017757	-0.160294
H485	H	0.106608	-0.078237	-0.223453
C486	C	0.106123	0.136029	-0.431323
C487	C	0.108398	0.164233	-0.415283
C488	C	0.106610	0.142590	-0.370080
H489	H	0.131599	0.099384	-0.411541
H490	H	0.077884	0.138869	-0.431325
H491	H	0.136633	0.161388	-0.415277
H492	H	0.082924	0.200878	-0.435052
H493	H	0.078371	0.145430	-0.370082
H494	H	0.132087	0.105945	-0.350302
H495	H	0.108149	0.161726	-0.359192
H496	H	-0.301775	-0.670305	0.023178
C497	C	-0.502059	-0.394204	0.035204
C498	C	-0.547022	-0.379187	0.035418
C499	C	-0.569802	-0.333810	0.036069
H500	H	-0.503686	-0.365617	0.008430
H501	H	-0.485386	-0.402201	0.062283
H502	H	-0.563691	-0.371188	0.008342
H503	H	-0.545409	-0.407761	0.062190
H504	H	-0.553129	-0.341807	0.063148
H505	H	-0.571425	-0.305228	0.009295
H506	H	-0.600310	-0.323619	0.036219
H507	H	-0.387425	-0.278978	0.016792
C508	C	-0.438858	-0.664140	0.023751
C509	C	-0.438711	-0.668353	0.065386
C510	C	-0.483891	-0.646604	0.067234
H511	H	-0.449867	-0.683185	0.022233
H512	H	-0.458596	-0.627478	-0.001719
H513	H	-0.418980	-0.705008	0.090849
H514	H	-0.427711	-0.649307	0.066913
H515	H	-0.503629	-0.609942	0.041764
H516	H	-0.494896	-0.665650	0.065715
H517	H	-0.483798	-0.649454	0.095481
H518	H	-0.731792	-0.278991	0.016812
H519	H	0.113004	0.220477	-0.482781
C520	C	-0.502206	0.009349	-0.368179
C521	C	-0.472264	-0.020369	-0.323216
C522	C	-0.494871	0.002894	-0.300440
H523	H	-0.529176	0.009548	-0.366550
H524	H	-0.510877	0.045091	-0.384856
H525	H	-0.463599	-0.056101	-0.306542
H526	H	-0.445294	-0.020569	-0.324831
H527	H	-0.503542	0.038636	-0.317118
H528	H	-0.521840	0.003092	-0.298815
H529	H	-0.474557	-0.017263	-0.269932
C530	C	-0.501939	0.605813	-0.511406
C531	C	-0.477257	0.593880	-0.539404
C532	C	-0.499908	0.639208	-0.585471
H533	H	-0.503528	0.634385	-0.513235
H534	H	-0.532460	0.616078	-0.521837
H535	H	-0.446744	0.583623	-0.528976
H536	H	-0.475667	0.565316	-0.537589
H537	H	-0.530429	0.649474	-0.595902
H538	H	-0.501496	0.667777	-0.587296
H539	H	-0.483167	0.631117	-0.604475
C540	C	0.106233	0.136135	-0.574755
C541	C	0.143831	0.082134	-0.549790
C542	C	0.142158	0.060409	-0.573302
H543	H	0.107810	0.155228	-0.604771
H544	H	0.078018	0.138928	-0.577616
H545	H	0.172039	0.079344	-0.546934
H546	H	0.142262	0.063027	-0.519775
H547	H	0.113943	0.063202	-0.576164
H548	H	0.143734	0.079506	-0.603318
H549	H	0.167665	0.023766	-0.556365
H550	H	0.106619	-0.078217	-0.568789
H551	H	0.112999	-0.123775	-0.608256
C552	C	0.113517	-0.261360	-0.477382
C553	C	0.116986	-0.278687	-0.506105
C554	C	0.118783	-0.325669	-0.482723
H555	H	0.086097	-0.254458	-0.469578
H556	H	0.139810	-0.288384	-0.449843
H557	H	0.090695	-0.251669	-0.533636
H558	H	0.144405	-0.285600	-0.513911
H559	H	0.145077	-0.352693	-0.455184
H560	H	0.091362	-0.318763	-0.474919
H561	H	0.121141	-0.337435	-0.502206
C562	C	-0.438901	-0.318831	0.023627
C563	C	-0.454953	-0.272296	0.021320
C564	C	-0.500179	-0.250495	0.023044
H565	H	-0.438950	-0.344180	0.051849
H566	H	-0.458647	-0.310250	-0.001869
H567	H	-0.435213	-0.280878	0.046814
H568	H	-0.454916	-0.246934	-0.006900
H569	H	-0.519924	-0.241914	-0.002452
H570	H	-0.500222	-0.275848	0.051266
H571	H	-0.511077	-0.218916	0.021474
C572	C	0.106179	-0.209060	-0.431928
C573	C	0.108487	-0.255565	-0.416038
C574	C	0.106768	-0.277519	-0.370810
H575	H	0.077959	-0.183769	-0.431828
H576	H	0.131676	-0.217708	-0.412123
H577	H	0.082992	-0.246915	-0.435837
H578	H	0.136705	-0.280868	-0.416127
H579	H	0.132265	-0.286167	-0.351006
H580	H	0.078547	-0.252224	-0.370715
H581	H	0.108338	-0.309077	-0.360022
H582	H	-0.301784	-0.449335	0.023157
H583	H	0.106630	-0.203055	-0.223182
C584	C	-0.358828	0.462826	-0.368286
C585	C	-0.343602	0.492560	-0.398228
C586	C	-0.297573	0.469334	-0.375607
H587	H	-0.339720	0.427084	-0.359596
H588	H	-0.357043	0.462652	-0.341322
H589	H	-0.345384	0.492727	-0.425183
H590	H	-0.362698	0.528301	-0.406919
H591	H	-0.295788	0.469161	-0.348643
H592	H	-0.278470	0.433593	-0.366918
H593	H	-0.287238	0.489508	-0.395917
C594	C	-0.502059	0.462800	-0.368306
C595	C	-0.547023	0.492526	-0.398249
C596	C	-0.569802	0.469267	-0.375643
H597	H	-0.503684	0.462598	-0.341334
H598	H	-0.485386	0.427060	-0.359637
H599	H	-0.563691	0.528257	-0.406911
H600	H	-0.545411	0.492730	-0.425221
H601	H	-0.553130	0.433526	-0.366974
H602	H	-0.571424	0.469066	-0.348672
H603	H	-0.600311	0.489429	-0.395957
H604	H	-0.387422	0.251343	-0.138417
H605	H	-0.732378	0.221040	-0.483702
C606	C	-0.438898	0.335836	-0.229757
C607	C	-0.454949	0.307649	-0.199264
C608	C	-0.500174	0.329339	-0.222685
H609	H	-0.438946	0.333025	-0.255165
H610	H	-0.458644	0.372482	-0.240917
H611	H	-0.435209	0.271012	-0.188112
H612	H	-0.454913	0.310457	-0.173856
H613	H	-0.519920	0.365986	-0.233845
H614	H	-0.500217	0.326528	-0.248092
H615	H	-0.511073	0.310221	-0.201998
H616	H	-0.262268	-0.248920	-0.138435
H617	H	-0.646757	0.550094	-0.443598
H618	H	-0.731797	0.595663	-0.482796
H619	H	-0.732075	0.720493	-0.607626
C620	C	-0.640733	0.680937	-0.574820
C621	C	-0.662670	0.732843	-0.586250
C622	C	-0.639357	0.754782	-0.609832
H623	H	-0.641319	0.682268	-0.602395
H624	H	-0.609450	0.659280	-0.555481
H625	H	-0.693944	0.754494	-0.605588
H626	H	-0.662083	0.731527	-0.558684
H627	H	-0.608074	0.733125	-0.590494
H628	H	-0.639945	0.756109	-0.637406
H629	H	-0.654235	0.790000	-0.617587
C630	C	-0.640437	-0.318881	0.023707
C631	C	-0.670924	-0.272372	0.021441
C632	C	-0.647483	-0.250625	0.023252
H633	H	-0.629251	-0.310276	-0.001764
H634	H	-0.615044	-0.344283	0.051951
H635	H	-0.696309	-0.246975	-0.006799
H636	H	-0.682111	-0.280962	0.046911
H637	H	-0.622090	-0.276027	0.051495
H638	H	-0.636298	-0.242023	-0.002221
H639	H	-0.668164	-0.219069	0.021719
H640	H	-0.732070	-0.403516	0.016804
H641	H	-0.647026	-0.449354	0.023185
H642	H	-0.301729	-0.203089	-0.443614
C643	C	-0.249995	-0.261669	-0.476322
C644	C	-0.234112	-0.275258	-0.432106
C645	C	-0.188901	-0.322217	-0.408411
H646	H	-0.230164	-0.256020	-0.493141
H647	H	-0.249932	-0.289959	-0.473418
H648	H	-0.234171	-0.246974	-0.435012
H649	H	-0.253929	-0.280917	-0.415275
H650	H	-0.188838	-0.350507	-0.405506
H651	H	-0.169074	-0.316563	-0.425233
H652	H	-0.178120	-0.331446	-0.378406
H653	H	-0.386837	-0.124397	-0.607648
H654	H	-0.732097	0.220775	-0.608274
C655	C	-0.438556	-0.065768	-0.574940
C656	C	-0.439417	-0.026160	-0.615520
C657	C	-0.484603	0.020843	-0.639213
H658	H	-0.448198	-0.053758	-0.555657
H659	H	-0.458981	-0.072762	-0.582777
H660	H	-0.418999	-0.019166	-0.607683
H661	H	-0.429784	-0.038153	-0.634815
H662	H	-0.505029	0.013849	-0.647049
H663	H	-0.494242	0.032848	-0.619925
H664	H	-0.485195	0.047721	-0.666751
C665	C	-0.641023	0.136638	-0.431983
C666	C	-0.641983	0.176345	-0.431123
C667	C	-0.618659	0.154857	-0.385937
H668	H	-0.609725	0.107720	-0.422340
H669	H	-0.655855	0.124053	-0.411556
H670	H	-0.627150	0.188922	-0.451543
H671	H	-0.673275	0.205265	-0.440757
H672	H	-0.633491	0.142271	-0.365511
H673	H	-0.587362	0.125939	-0.376298
H674	H	-0.619311	0.181795	-0.385347
C675	C	-0.438579	-0.065806	-0.229474
C676	C	-0.454460	-0.052213	-0.198853
C677	C	-0.499665	-0.005243	-0.222137
H678	H	-0.458416	-0.071444	-0.240646
H679	H	-0.438631	-0.037522	-0.254867
H680	H	-0.454410	-0.080490	-0.173469
H681	H	-0.434636	-0.046564	-0.187680
H682	H	-0.499718	0.023040	-0.247530
H683	H	-0.519498	-0.010886	-0.233308
H684	H	-0.510445	0.003988	-0.201366
