data_functionalizedCrystal
_audit_creation_method	'MofGen! by Chris Wilmer'
_symmetry_space_group_name_H-M	'P1'
_symmetry_Int_Tables_number	1
_symmetry_cell_setting	triclinic
loop_
_symmetry_equiv_pos_as_xyz
  x,y,z
_cell_length_a	11.026607
_cell_length_b	15.995292
_cell_length_c	10.065875
_cell_angle_alpha	98.790453
_cell_angle_beta	79.302338
_cell_angle_gamma	96.027316
loop_
_atom_site_label
_atom_site_type_symbol
_atom_site_fract_x
_atom_site_fract_y
_atom_site_fract_z
O1	O	1.627812	0.340985	-0.113471
O2	O	1.274519	0.301061	-0.113476
O3	O	1.460860	0.200593	-0.113475
O4	O	1.441471	0.441453	-0.113472
O5	O	1.425327	0.219849	0.113513
O6	O	1.238986	0.320317	0.113513
O7	O	1.592279	0.360241	0.113517
Zn8	Zn	1.409991	0.343336	0.149555
Zn9	Zn	1.456807	0.317966	-0.149513
O10	O	1.405938	0.460709	0.113517
C11	C	1.211544	0.303323	0.000018
C12	C	1.076837	0.281367	0.000016
C13	C	1.442305	0.178906	0.000015
C14	C	1.439941	0.085596	0.000005
C15	C	1.003013	0.341992	0.000016
C16	C	0.863786	0.319300	0.000014
C17	C	1.431242	-0.253452	0.000018
C18	C	1.565658	-0.209824	0.000526
C19	C	1.568295	-0.112807	0.000010
C20	C	1.435558	-0.085246	0.000012
C21	C	1.388607	-0.135479	-0.129606
C22	C	1.387004	-0.232522	-0.129710
C23	C	1.343850	-0.210895	0.128419
C24	C	1.348567	-0.113507	0.130127
C25	C	1.437991	0.009816	0.000005
C26	C	1.428806	-0.348516	0.000016
C27	C	1.655255	0.357979	0.000021
C28	C	1.789963	0.379934	0.000014
C29	C	1.424493	0.482395	0.000023
C30	C	1.426859	0.575705	0.000025
N31	N	1.378049	0.360652	0.353660
N32	N	1.488758	0.300645	-0.353618
C33	C	1.445686	0.323984	0.421439
C34	C	1.421112	0.337318	0.578606
H35	H	0.823926	0.250590	-0.000022
N36	N	1.468797	-0.269640	-0.258038
H37	H	1.436513	-0.258086	-0.340492
H38	H	1.556077	-0.242755	-0.260087
N39	N	1.393518	-0.068362	0.257155
H40	H	1.480576	-0.083005	0.256329
H41	H	1.392816	-0.005049	0.259663
N42	N	0.842749	0.470948	0.000029
H43	H	0.934724	0.474260	0.000032
H44	H	0.827530	0.492591	-0.084118
H45	H	1.606413	-0.077962	0.092923
H46	H	1.631681	-0.238913	-0.091906
H47	H	1.564858	0.259373	0.588061
N48	N	1.257609	-0.272151	-0.137524
H49	H	1.259308	-0.315055	-0.222488
H50	H	1.225041	-0.301339	-0.054379
H51	H	1.521781	0.282715	0.363115
N52	N	1.320301	0.391983	0.655843
H53	H	1.237975	0.367391	0.631063
H54	H	1.317144	0.393743	0.757144
H55	H	1.244714	-0.239734	0.129294
N56	N	1.277238	0.415307	0.430910
H57	H	1.314535	0.464313	0.490191
H58	H	1.235510	0.437884	0.364000
N59	N	1.055807	0.433000	0.000027
H60	H	1.147783	0.436310	0.000028
H61	H	1.040590	0.454641	-0.084122
N62	N	1.218592	-0.088334	0.140482
H63	H	1.214238	-0.058118	0.060619
H64	H	1.159064	-0.140824	0.139362
N65	N	1.024038	0.190360	0.000031
H66	H	0.932062	0.187051	0.000033
H67	H	1.065599	0.154438	-0.084115
H68	H	1.602948	-0.222122	0.093481
N69	N	1.260221	-0.113320	-0.135999
H70	H	1.231190	-0.070401	-0.054741
H71	H	1.262027	-0.088535	-0.222870
H72	H	1.635838	-0.094314	-0.093067
N73	N	1.470456	-0.110433	-0.257390
H74	H	1.537980	-0.066582	-0.231613
H75	H	1.508864	-0.162129	-0.312929
H76	H	1.370826	-0.224265	0.226669
