data_functionalizedCrystal
_audit_creation_method	'MofGen! by Chris Wilmer'
_symmetry_space_group_name_H-M	'P1'
_symmetry_Int_Tables_number	1
_symmetry_cell_setting	triclinic
loop_
_symmetry_equiv_pos_as_xyz
  x,y,z
_cell_length_a	12.759401
_cell_length_b	19.121063
_cell_length_c	12.759393
_cell_angle_alpha	92.404035
_cell_angle_beta	89.979062
_cell_angle_gamma	92.470439
loop_
_atom_site_label
_atom_site_type_symbol
_atom_site_fract_x
_atom_site_fract_y
_atom_site_fract_z
Zn1	Zn	1.588334	-0.279551	-0.611809
Zn2	Zn	1.580690	-0.397017	-0.443603
Zn3	Zn	1.412630	-0.279588	-0.436146
Zn4	Zn	1.405092	-0.396968	-0.619238
O5	O	1.496686	-0.338281	-0.527699
O6	O	1.734340	-0.295138	-0.589508
O7	O	1.558352	-0.381476	-0.295595
O8	O	1.442291	-0.181299	-0.453218
O9	O	1.728724	-0.381440	-0.465928
O10	O	1.571380	-0.181271	-0.582277
O11	O	1.434879	-0.295201	-0.290117
O12	O	1.264609	-0.295154	-0.460422
O13	O	1.429444	-0.381356	-0.765271
O14	O	1.259071	-0.381393	-0.594938
O15	O	1.564071	-0.295090	-0.759813
O16	O	1.551042	-0.495295	-0.473132
O17	O	1.422032	-0.495259	-0.602169
C18	C	1.223720	-0.338272	-0.527678
C19	C	1.106942	-0.338286	-0.527694
C20	C	1.484918	-0.520761	-0.539289
C21	C	1.479980	-0.598827	-0.544282
C22	C	1.049220	-0.383259	-0.597636
C23	C	0.939495	-0.383261	-0.597657
C24	C	0.945226	-0.293316	-0.457786
C25	C	1.054948	-0.293311	-0.457771
C26	C	1.544881	-0.635498	-0.479500
C27	C	1.540243	-0.708849	-0.484203
C28	C	1.470697	-0.745528	-0.553682
C29	C	1.405794	-0.708852	-0.618471
C30	C	1.410438	-0.635502	-0.613773
C31	C	1.453316	-0.966997	-0.571229
C32	C	1.448675	-1.040352	-0.575920
C33	C	1.583126	-1.040344	-0.441653
C34	C	1.587759	-0.966993	-0.436957
C35	C	1.522860	-0.930323	-0.501749
C36	C	1.465952	-0.820504	-0.558488
C37	C	1.527611	-0.855348	-0.496948
C38	C	1.770719	-0.338290	-0.527721
C39	C	1.887495	-0.338294	-0.527731
C40	C	1.496769	-0.338214	-0.801728
C41	C	1.496805	-0.338185	-0.918503
C42	C	1.508529	-0.155088	-0.516087
C43	C	1.513576	-0.077023	-0.511139
C44	C	1.566910	-0.293259	-0.970524
C45	C	1.566930	-0.293229	-1.080246
C46	C	1.426735	-0.383056	-1.085917
C47	C	1.426711	-0.383083	-0.976196
C48	C	1.496667	-0.338298	-0.254733
C49	C	1.496848	-0.338128	-0.137946
H50	H	1.091550	-0.419879	-0.654575
C51	C	0.877010	-0.432168	-0.673637
C52	C	0.946032	-0.471563	-0.734848
C53	C	0.888509	-0.516631	-0.804846
H54	H	0.835953	-0.405420	-0.717883
H55	H	0.832234	-0.462777	-0.635344
H56	H	0.990789	-0.440959	-0.773138
H57	H	0.987090	-0.498326	-0.690629
H58	H	0.843733	-0.547239	-0.766553
H59	H	0.847454	-0.489877	-0.849086
H60	H	0.935331	-0.543370	-0.846379
H61	H	1.623982	-0.256698	-0.923553
H62	H	1.593091	-0.738703	-0.431450
H63	H	0.902879	-0.256700	-0.400855
C64	C	1.117815	-0.244508	-0.381944
C65	C	1.225033	-0.254116	-0.396920
C66	C	1.282978	-0.209165	-0.327104
H67	H	1.099272	-0.254685	-0.311933
H68	H	1.102944	-0.197315	-0.394453
H69	H	1.239897	-0.301297	-0.384403
H70	H	1.243608	-0.243933	-0.466917
H71	H	1.268108	-0.161972	-0.339613
H72	H	1.264427	-0.219346	-0.257097
H73	H	1.355732	-0.215673	-0.337262
C74	C	1.620494	-0.595805	-0.404029
C75	C	1.676357	-0.643624	-0.348324
C76	C	1.746033	-0.607087	-0.278800
H77	H	1.582254	-0.567237	-0.356293
H78	H	1.668121	-0.567158	-0.442400
H79	H	1.628737	-0.672258	-0.309955
H80	H	1.714618	-0.672193	-0.396032
H81	H	1.793660	-0.578440	-0.317171
H82	H	1.707785	-0.578520	-0.231071
H83	H	1.783952	-0.639526	-0.241003
H84	H	1.349173	-0.738721	-0.675047
C85	C	1.663385	-0.927299	-0.361500
C86	C	1.719254	-0.975114	-0.305794
C87	C	1.788939	-0.938573	-0.236284
H88	H	1.625151	-0.898727	-0.313763
H89	H	1.711007	-0.898655	-0.399880
H90	H	1.671638	-1.003746	-0.267416
H91	H	1.757509	-1.003687	-0.353503
H92	H	1.836562	-0.909930	-0.274664
H93	H	1.750697	-0.910003	-0.188554
H94	H	1.826862	-0.971010	-0.198486
H95	H	1.635965	-1.070208	-0.388904
C96	C	1.373140	-1.080050	-0.651474
C97	C	1.317319	-1.032237	-0.707235
C98	C	1.247742	-1.068781	-0.776850
H99	H	1.325473	-1.108713	-0.613201
H100	H	1.411484	-1.108602	-0.699164
H101	H	1.278977	-1.003697	-0.659552
H102	H	1.364959	-1.003572	-0.745530
H103	H	1.286086	-1.097333	-0.824539
H104	H	1.200082	-1.097444	-0.738568
H105	H	1.209866	-1.036347	-0.814699
C106	C	1.383021	-0.927157	-0.641695
C107	C	1.445132	-0.884992	-0.706417
C108	C	1.380407	-0.848288	-0.771355
H109	H	1.339054	-0.898533	-0.599757
H110	H	1.340958	-0.959490	-0.683798
H111	H	1.487177	-0.852663	-0.664318
H112	H	1.489098	-0.913599	-0.748377
H113	H	1.338344	-0.880621	-0.813458
H114	H	1.336443	-0.819668	-0.729409
H115	H	1.422540	-0.819680	-0.815283
H116	H	1.357590	-0.605645	-0.666526
C117	C	1.643165	-0.244426	-1.136536
C118	C	1.704557	-0.205127	-1.062522
C119	C	1.774808	-0.160168	-1.114336
H120	H	1.605088	-0.213747	-1.177389
H121	H	1.687269	-0.271270	-1.181026
H122	H	1.660459	-0.178286	-1.018050
H123	H	1.742657	-0.235788	-1.021665
H124	H	1.818911	-0.187012	-1.158827
H125	H	1.736722	-0.129493	-1.155188
H126	H	1.816477	-0.133503	-1.064127
C127	C	1.350759	-0.431778	-1.148746
C128	C	1.365803	-0.422155	-1.255971
C129	C	1.295842	-0.467033	-1.313878
H130	H	1.280784	-0.421544	-1.130232
H131	H	1.363088	-0.478988	-1.133818
H132	H	1.353466	-0.374955	-1.270893
H133	H	1.435764	-0.432393	-1.274516
H134	H	1.308171	-0.514244	-1.298950
H135	H	1.225872	-0.456796	-1.295356
H136	H	1.306047	-0.460514	-1.386636
H137	H	1.584239	-0.825482	-0.440382
C138	C	1.350549	-0.431941	-0.919902
C139	C	1.289194	-0.471273	-0.993910
C140	C	1.219034	-0.516290	-0.942091
H141	H	1.306404	-0.405159	-0.875391
H142	H	1.388726	-0.462592	-0.879071
H143	H	1.251019	-0.440626	-1.034724
H144	H	1.333310	-0.498069	-1.038425
H145	H	1.257212	-0.546941	-0.901260
H146	H	1.174896	-0.489503	-0.897581
H147	H	1.177403	-0.542987	-0.992297
H148	H	1.409326	-0.850376	-0.615056
