data_functionalizedCrystal
_audit_creation_method	'MofGen! by Chris Wilmer'
_symmetry_space_group_name_H-M	'P1'
_symmetry_Int_Tables_number	1
_symmetry_cell_setting	triclinic
loop_
_symmetry_equiv_pos_as_xyz
  x,y,z
_cell_length_a	17.640112
_cell_length_b	12.594516
_cell_length_c	17.640968
_cell_angle_alpha	101.227826
_cell_angle_beta	87.860920
_cell_angle_gamma	101.240082
loop_
_atom_site_label
_atom_site_type_symbol
_atom_site_fract_x
_atom_site_fract_y
_atom_site_fract_z
Zn1	Zn	1.247781	-0.030581	0.195081
Zn2	Zn	1.747781	0.469419	0.695081
Zn3	Zn	1.222032	-0.250168	0.068109
Zn4	Zn	1.722032	0.249832	0.568109
Zn5	Zn	1.095120	-0.099815	0.093731
Zn6	Zn	1.595120	0.400185	0.593731
Zn7	Zn	1.120772	-0.236158	0.220690
Zn8	Zn	1.620772	0.263842	0.720690
O9	O	1.171426	-0.154181	0.144403
O10	O	1.671426	0.345819	0.644403
O11	O	1.350633	-0.036598	0.156798
O12	O	1.850633	0.463402	0.656798
O13	O	1.183686	-0.265062	-0.034764
O14	O	1.683686	0.234938	0.465236
O15	O	1.115411	0.058327	0.107180
O16	O	1.615411	0.558327	0.607180
O17	O	1.331715	-0.197928	0.063512
O18	O	1.831715	0.302072	0.563512
O19	O	1.227571	0.109193	0.181642
O20	O	1.727571	0.609193	0.681642
O21	O	1.090444	-0.154598	-0.015940
O22	O	1.590444	0.345402	0.484060
O23	O	0.992255	-0.141013	0.132012
O24	O	1.492255	0.358987	0.632012
O25	O	1.159131	-0.174050	0.323565
O26	O	1.659131	0.325950	0.823565
O27	O	1.011102	-0.241184	0.225289
O28	O	1.511102	0.258816	0.725289
O29	O	1.252445	-0.023013	0.304750
O30	O	1.752445	0.476987	0.804750
O31	O	1.208559	-0.397268	0.088344
O32	O	1.708559	0.102732	0.588344
O33	O	1.134164	-0.386975	0.200445
O34	O	1.634164	0.113025	0.700445
C35	C	0.974125	-0.197091	0.184210
C36	C	1.474125	0.302909	0.684210
C37	C	0.889722	-0.215468	0.201258
C38	C	1.389722	0.284532	0.701258
C39	C	0.563040	-0.014551	0.014899
C40	C	1.063040	0.485449	0.514899
C41	C	0.483733	-0.031838	0.030928
C42	C	0.983733	0.468162	0.530928
C43	C	0.503379	-0.136388	0.127890
C44	C	1.003379	0.363612	0.627890
C45	C	0.582690	-0.119106	0.111871
C46	C	1.082690	0.380894	0.611871
C47	C	0.612514	-0.058188	0.055374
C48	C	1.112514	0.441812	0.555374
C49	C	0.632163	-0.162742	0.152347
C50	C	1.132163	0.337258	0.652347
C51	C	0.711466	-0.145466	0.136326
C52	C	1.211466	0.354534	0.636326
C53	C	0.741296	-0.084554	0.079830
C54	C	1.241296	0.415446	0.579830
C55	C	0.691817	-0.040912	0.039354
C56	C	1.191817	0.459088	0.539354
C57	C	0.602336	-0.223666	0.208839
C58	C	1.102336	0.276334	0.708839
C59	C	0.651810	-0.267303	0.249315
C60	C	1.151810	0.232697	0.749315
C61	C	0.731115	-0.250020	0.233299
C62	C	1.231115	0.249980	0.733299
C63	C	0.760946	-0.189108	0.176803
C64	C	1.260946	0.310892	0.676803
C65	C	0.780595	-0.293662	0.273775
C66	C	1.280595	0.206338	0.773775
C67	C	0.859898	-0.276386	0.257755
C68	C	1.359898	0.223614	0.757755
C69	C	0.840249	-0.171832	0.160783
C70	C	1.340249	0.328168	0.660783
C71	C	1.171375	-0.430735	0.144405
C72	C	1.671375	0.069265	0.644405
C73	C	1.171428	-0.549023	0.144418
C74	C	1.671428	-0.049023	0.644418
C75	C	1.130952	-0.612729	0.205355
C76	C	1.630952	-0.112729	0.705355
C77	C	1.098441	-0.710300	0.139790
C78	C	1.598441	-0.210300	0.639790
C79	C	1.204011	-0.662232	0.209981
C80	C	1.704011	-0.162232	0.709981
C81	C	1.138872	-0.645055	0.078824
C82	C	1.638872	-0.145055	0.578824
C83	C	1.244484	-0.596959	0.149055
C84	C	1.744484	-0.096959	0.649055
C85	C	1.211989	-0.694508	0.083437
C86	C	1.711989	-0.194508	0.583437
C87	C	1.369498	-0.111103	0.104440
C88	C	1.869498	0.388897	0.604440
C89	C	1.453905	-0.092746	0.087411
C90	C	1.953905	0.407254	0.587411
C91	C	1.211522	-0.089246	0.342483
C92	C	1.711522	0.410754	0.842483
C93	C	1.228608	-0.061575	0.426893
C94	C	1.728608	0.438425	0.926893
C95	C	1.171502	0.123463	0.144413
C96	C	1.671502	0.623463	0.644413
C97	C	1.171534	0.241779	0.144417
C98	C	1.671534	0.741779	0.644417
C99	C	1.131531	-0.218777	-0.052915
C100	C	1.631531	0.281223	0.447085
C101	C	1.114592	-0.246116	-0.137354
C102	C	1.614592	0.253884	0.362646
C103	C	1.041915	-0.363754	0.753480
C104	C	1.541915	0.136246	1.253480
C105	C	1.057987	-0.337736	0.832792
C106	C	1.557987	0.162264	1.332792
C107	C	1.155145	-0.180474	0.813192
C108	C	1.655145	0.319526	1.313192
C109	C	1.139080	-0.206477	0.733876
C110	C	1.639080	0.293523	1.233876
C111	C	1.082465	-0.298118	0.704027
C112	C	1.582465	0.201882	1.204027
C113	C	1.179629	-0.140841	0.684423
C114	C	1.679629	0.359159	1.184423
C115	C	1.163567	-0.166845	0.605114
C116	C	1.663567	0.333155	1.105114
C117	C	1.106956	-0.258484	0.575258
C118	C	1.606956	0.241516	1.075258
C119	C	1.066403	-0.324122	0.624718
C120	C	1.566403	0.175878	1.124718
C121	C	1.236247	-0.049204	0.714274
C122	C	1.736247	0.450796	1.214274
C123	C	1.276797	0.016432	0.664821
C124	C	1.776797	0.516432	1.164821
C125	C	1.260731	-0.009567	0.585511
C126	C	1.760731	0.490433	1.085511
C127	C	1.204120	-0.101207	0.555655
C128	C	1.704120	0.398793	1.055655
C129	C	1.301285	0.056071	0.536051
C130	C	1.801285	0.556071	1.036051
C131	C	1.285223	0.030067	0.456742
C132	C	1.785223	0.530067	0.956742
C133	C	1.188059	-0.127210	0.476346
C134	C	1.688059	0.372790	0.976346
H135	H	0.805870	-0.070492	0.066786
H136	H	1.305870	0.429508	0.566786
H137	H	0.627515	-0.316906	0.295312
H138	H	1.127515	0.183094	0.795312
H139	H	0.443454	0.003710	-0.002031
H140	H	0.943454	0.503710	0.497969
H141	H	0.900181	-0.311918	0.290715
H142	H	1.400181	0.188082	0.790715
F143	F	0.471627	-0.201232	0.188008
F144	F	0.971627	0.298768	0.688008
F145	F	1.239973	-0.673261	0.282451
F146	F	1.739973	-0.173261	0.782451
H147	H	0.537762	-0.237731	0.221881
H148	H	1.037762	0.262269	0.721881
F149	F	0.981653	-0.461283	0.721709
F150	F	1.481653	0.038717	1.221709
F151	F	1.006140	-0.421651	0.592947
F152	F	1.506140	0.078349	1.092947
H153	H	1.141939	-0.201813	0.452045
H154	H	1.641939	0.298187	0.952045
H155	H	1.246254	-0.730048	0.031854
H156	H	1.746254	-0.230048	0.531854
F157	F	1.325164	-0.532762	0.154221
F158	F	1.825164	-0.032762	0.654221
F159	F	0.748840	-0.358514	0.333889
F160	F	1.248840	0.141486	0.833889
F161	F	1.086098	-0.566068	0.272651
F162	F	1.586098	-0.066068	0.772651
F163	F	0.723563	0.023933	-0.020772
F164	F	1.223563	0.523933	0.479228
H165	H	1.093883	-0.279658	0.510678
H166	H	1.593883	0.220342	1.010678
F167	F	1.328382	0.099921	0.404108
F168	F	1.828382	0.599921	0.904108
F169	F	0.594787	0.050293	-0.045227
F170	F	1.094787	0.550293	0.454773
F171	F	1.014822	-0.407600	0.885423
F172	F	1.514822	0.092400	1.385423
F173	F	1.017745	-0.774461	0.134653
F174	F	1.517745	-0.274461	0.634653
F175	F	1.102818	-0.634229	0.006347
F176	F	1.602818	-0.134229	0.506347
H177	H	1.201243	-0.105862	0.837506
H178	H	1.701243	0.394138	1.337506
F179	F	1.253343	-0.021533	0.798682
F180	F	1.753343	0.478467	1.298682
F181	F	1.337051	0.113958	0.696597
F182	F	1.837051	0.613958	1.196597
H183	H	0.864535	-0.122207	0.114788
H184	H	1.364535	0.377793	0.614788
F185	F	1.361544	0.153590	0.567828
F186	F	1.861544	0.653590	1.067828
