data_functionalizedCrystal
_audit_creation_method	'MofGen! by Chris Wilmer'
_symmetry_space_group_name_H-M	'P1'
_symmetry_Int_Tables_number	1
_symmetry_cell_setting	triclinic
loop_
_symmetry_equiv_pos_as_xyz
  x,y,z
_cell_length_a	19.805407
_cell_length_b	12.594516
_cell_length_c	19.805399
_cell_angle_alpha	90.025437
_cell_angle_beta	90.019573
_cell_angle_gamma	90.013523
loop_
_atom_site_label
_atom_site_type_symbol
_atom_site_fract_x
_atom_site_fract_y
_atom_site_fract_z
Zn1	Zn	1.034796	-0.423767	0.382730
Zn2	Zn	1.034737	-0.601760	0.269546
Zn3	Zn	0.921611	-0.423796	0.269554
Zn4	Zn	0.921600	-0.601704	0.382692
O5	O	0.978186	-0.512757	0.326131
O6	O	1.129505	-0.447389	0.367728
O7	O	1.019710	-0.578189	0.174830
O8	O	0.936655	-0.274846	0.284586
O9	O	1.129461	-0.578160	0.284572
O10	O	1.019812	-0.274825	0.367736
O11	O	0.936597	-0.447439	0.174837
O12	O	0.826893	-0.447385	0.284550
O13	O	0.936636	-0.578064	0.477414
O14	O	0.826885	-0.578092	0.367672
O15	O	1.019801	-0.447335	0.477441
O16	O	1.019699	-0.750699	0.284536
O17	O	0.936578	-0.750657	0.367664
C18	C	0.802330	-0.512736	0.326109
C19	C	0.727098	-0.512753	0.326115
C20	C	0.691767	-0.580915	0.369327
C21	C	0.621079	-0.580917	0.369337
C22	C	0.585722	-0.512762	0.326131
C23	C	0.621058	-0.444592	0.282917
C24	C	0.691745	-0.444586	0.282911
C25	C	0.335985	-0.444616	0.282939
C26	C	0.265293	-0.444629	0.282947
C27	C	0.265318	-0.580947	0.369365
C28	C	0.336006	-0.580941	0.369359
C29	C	0.371335	-0.512768	0.326148
C30	C	0.447983	-0.512765	0.326139
C31	C	0.509075	-0.512769	0.326136
C32	C	0.978149	-0.789298	0.326110
C33	C	0.978196	-0.907603	0.326123
C34	C	1.023488	-1.047604	0.280988
C35	C	0.961722	-0.976917	0.264353
C36	C	1.039954	-0.976718	0.342728
C37	C	0.916467	-1.047702	0.309515
C38	C	0.994740	-1.047509	0.387918
C39	C	0.932932	-0.976855	0.371306
C40	C	1.154729	-0.512778	0.326153
C41	C	1.229961	-0.512787	0.326162
C42	C	0.978224	-0.512690	0.502673
C43	C	0.978240	-0.512661	0.577905
C44	C	0.978241	-0.235136	0.326166
C45	C	0.978265	-0.116830	0.326182
C46	C	0.978187	-0.512747	0.150275
C47	C	0.978302	-0.512475	0.075043
C48	C	1.021545	-0.444587	0.613265
C49	C	1.021552	-0.444556	0.683953
C50	C	0.978257	-0.512605	0.719281
C51	C	0.934947	-0.580683	0.683917
C52	C	0.934937	-0.580707	0.613229
C53	C	0.934985	-0.580583	0.968990
C54	C	0.935000	-0.580556	1.039682
C55	C	1.021600	-0.444432	1.039714
C56	C	1.021590	-0.444457	0.969027
C57	C	0.978278	-0.512530	0.933669
C58	C	0.978270	-0.512561	0.857020
C59	C	0.978268	-0.512580	0.795928
H60	H	0.720510	-0.389075	0.247728
C61	C	1.075128	-1.089582	0.229360
H62	H	1.108205	-1.131014	0.251993
H63	H	1.052632	-1.132196	0.196777
H64	H	1.096412	-1.031425	0.207465
C65	C	1.069238	-0.369545	1.078610
H66	H	1.063041	-0.379265	1.125768
H67	H	1.114710	-0.385136	1.067032
H68	H	1.059344	-0.298029	1.067031
H69	H	0.947753	-0.945905	0.212119
H70	H	0.364789	-0.636444	0.404539
C71	C	0.730653	-0.655886	0.416855
H72	H	0.699485	-0.696473	0.442596
H73	H	0.758213	-0.702208	0.390913
H74	H	0.758244	-0.615220	0.446392
C75	C	0.845931	-1.089629	0.290491
H76	H	0.816464	-1.031444	0.282552
H77	H	0.849089	-1.131668	0.250784
H78	H	0.828719	-1.131631	0.326409
C79	C	0.582218	-0.655960	0.416828
H80	H	0.613399	-0.696578	0.442540
H81	H	0.554640	-0.615371	0.446383
H82	H	0.554647	-0.702266	0.390844
H83	H	0.894614	-0.945987	0.409500
C84	C	1.069191	-0.369680	0.722846
H85	H	1.094980	-0.329166	0.691682
H86	H	1.043316	-0.323286	0.750422
H87	H	1.098678	-0.410399	0.750421
C88	C	1.069167	-0.369726	0.574411
H89	H	1.094953	-0.329171	0.605596
H90	H	1.098648	-0.410447	0.546833
H91	H	1.043273	-0.323354	0.546840
C92	C	0.226454	-0.655927	0.416903
H93	H	0.179292	-0.646164	0.410727
H94	H	0.238026	-0.727419	0.406916
H95	H	0.238063	-0.640436	0.462398
C96	C	0.374838	-0.369647	0.235398
H97	H	0.343655	-0.329071	0.209661
H98	H	0.402433	-0.323314	0.261330
H99	H	0.402392	-0.410315	0.205858
H100	H	1.008727	-1.078544	0.440138
C101	C	0.582171	-0.369618	0.235392
H102	H	0.613339	-0.329015	0.209660
H103	H	0.554579	-0.410272	0.205856
H104	H	0.554613	-0.323295	0.261342
C105	C	1.069212	-0.369599	0.930170
H106	H	1.095000	-0.329043	0.961353
H107	H	1.098691	-0.410323	0.902593
H108	H	1.043318	-0.323228	0.902599
H109	H	1.092152	-0.945540	0.356747
C110	C	0.226401	-0.369646	0.235424
H111	H	0.257566	-0.329035	0.209693
H112	H	0.198809	-0.410299	0.205887
H113	H	0.198843	-0.323331	0.261379
H114	H	0.899741	-0.635972	1.068444
H115	H	0.899728	-0.636028	0.940210
C116	C	0.887324	-0.655537	0.722775
H117	H	0.893537	-0.645782	0.769938
H118	H	0.841848	-0.639961	0.711185
H119	H	0.897219	-0.727060	0.711181
H120	H	0.899667	-0.636130	0.584441
