data_functionalizedCrystal
_audit_creation_method	'MofGen! by Chris Wilmer'
_symmetry_space_group_name_H-M	'P1'
_symmetry_Int_Tables_number	1
_symmetry_cell_setting	triclinic
loop_
_symmetry_equiv_pos_as_xyz
  x,y,z
_cell_length_a	14.519709
_cell_length_b	13.262390
_cell_length_c	12.376457
_cell_angle_alpha	63.168449
_cell_angle_beta	101.296542
_cell_angle_gamma	84.070969
loop_
_atom_site_label
_atom_site_type_symbol
_atom_site_fract_x
_atom_site_fract_y
_atom_site_fract_z
O1	O	0.019563	1.512441	-0.559020
O2	O	0.051895	1.185380	-0.458464
O3	O	-0.098987	1.357580	-0.511397
O4	O	0.170445	1.340241	-0.506087
O5	O	-0.061316	1.314545	-0.310157
O6	O	0.089566	1.142345	-0.257224
O7	O	0.057235	1.469406	-0.357779
Zn8	Zn	0.079382	1.299043	-0.275550
Zn9	Zn	0.029748	1.355743	-0.540693
O10	O	0.208117	1.297206	-0.304846
C11	C	0.072383	1.122005	-0.344975
C12	C	0.077295	0.997283	-0.306629
C13	C	0.008987	0.739558	-0.637341
C14	C	0.004367	0.856741	-0.673371
C15	C	0.022599	0.891883	-0.581689
C16	C	0.045451	0.809829	-0.453970
C17	C	0.050065	0.692635	-0.417936
C18	C	0.063676	0.844960	-0.362284
C19	C	0.086529	0.762905	-0.234565
C20	C	0.091142	0.645723	-0.198538
C21	C	0.072910	0.610582	-0.290220
C22	C	0.059063	0.962154	-0.398318
C23	C	0.100141	0.915230	-0.178913
C24	C	0.104761	0.798047	-0.142883
C25	C	-0.114466	1.335254	-0.410528
C26	C	-0.216713	1.332832	-0.409783
C27	C	-0.591122	1.323922	-0.407073
C28	C	-0.486949	1.326396	-0.407825
C29	C	-0.403921	1.328376	-0.408427
C30	C	-0.299742	1.330851	-0.409181
C31	C	0.223596	1.319533	-0.405718
C32	C	0.325841	1.321956	-0.406471
C33	C	0.036746	1.532782	-0.471271
C34	C	0.031833	1.657505	-0.509625
N35	N	0.113255	1.260355	-0.094599
N36	N	-0.004132	1.394440	-0.721647
C37	C	-0.082780	1.484247	0.191563
C38	C	-0.106487	1.511319	0.064902
C39	C	-0.051554	1.448580	0.025020
C40	C	0.027091	1.358765	0.111812
C41	C	0.050805	1.331697	0.238484
C42	C	0.082031	1.296029	0.071941
C43	C	0.160676	1.206215	0.158734
C44	C	0.184386	1.179150	0.285393
C45	C	0.129453	1.241890	0.325275
C46	C	0.058317	1.323098	-0.054731
C47	C	0.191902	1.170547	-0.007809
C48	C	0.215609	1.143476	0.118852
H49	H	0.076674	0.515163	-0.260891
Cl50	Cl	0.133488	0.694882	0.017674
H51	H	-0.005716	1.396225	-0.125387
H52	H	-0.070860	1.470626	-0.078115
Cl53	Cl	0.314476	1.030570	0.227974
H54	H	0.109733	0.578919	-0.094542
H55	H	0.236636	1.119461	-0.040279
Cl56	Cl	-0.205349	1.624222	-0.044204
H57	H	0.114985	0.943841	-0.104257
H58	H	-0.127495	1.535327	0.224043
H59	H	-0.014244	0.923543	-0.777360
Cl60	Cl	0.159254	1.207850	0.484515
Cl61	Cl	0.283263	1.066254	0.394501
H62	H	0.018837	0.987300	-0.611033
Cl63	Cl	0.030337	1.065292	-0.558872
H64	H	-0.005864	0.710934	-0.711976
