data_functionalizedCrystal
_audit_creation_method	'MofGen! by Chris Wilmer'
_symmetry_space_group_name_H-M	'P1'
_symmetry_Int_Tables_number	1
_symmetry_cell_setting	triclinic
loop_
_symmetry_equiv_pos_as_xyz
  x,y,z
_cell_length_a	27.440280
_cell_length_b	27.440280
_cell_length_c	20.016444
_cell_angle_alpha	90.005481
_cell_angle_beta	59.992610
_cell_angle_gamma	60.007024
loop_
_atom_site_label
_atom_site_type_symbol
_atom_site_fract_x
_atom_site_fract_y
_atom_site_fract_z
Zr1	Zr	0.533360	0.469576	-0.087658
O2	O	0.635038	0.391768	-0.194361
O3	O	0.431690	0.493418	-0.054940
O4	O	0.533361	0.493427	-0.194332
O5	O	0.533364	0.391762	0.054976
O6	O	0.533351	0.573630	-0.194318
O7	O	0.533368	0.391758	-0.054969
O8	O	0.351481	0.573613	0.055029
O9	O	0.715234	0.391779	-0.194371
O10	O	0.473498	0.563453	-0.040986
O11	O	0.473502	0.503602	0.041055
O12	O	0.593206	0.503613	-0.123061
O13	O	0.593210	0.443762	-0.041021
Zr14	Zr	0.533339	0.597497	0.087713
Zr15	Zr	0.533345	0.597490	-0.087636
Zr16	Zr	0.533354	0.469583	0.087691
Zr17	Zr	0.661263	0.469595	-0.087674
Zr18	Zr	0.405436	0.597478	0.087729
O19	O	0.635008	0.573655	0.054995
O20	O	0.635017	0.573645	-0.194330
O21	O	0.635030	0.391777	0.054963
O22	O	0.431660	0.675305	0.194416
O23	O	0.431669	0.675296	-0.054909
O24	O	0.431681	0.493428	0.194385
O25	O	0.533335	0.675310	-0.054921
O26	O	0.533338	0.573645	0.194387
O27	O	0.533347	0.493442	0.194373
O28	O	0.533331	0.675315	0.055024
O29	O	0.715222	0.493454	-0.194354
O30	O	0.351476	0.573619	0.194408
O31	O	0.351464	0.675293	0.194426
O32	O	0.351469	0.675288	0.055046
O33	O	0.715229	0.391785	-0.054991
O34	O	0.715217	0.493459	-0.054974
O35	O	0.473492	0.563460	0.123116
O36	O	0.473488	0.623311	0.041075
O37	O	0.593196	0.563471	-0.041000
O38	O	0.593200	0.503619	0.041041
C39	C	0.373362	0.533513	0.000047
C40	C	0.319064	0.533505	0.000053
C41	C	0.040173	0.577722	0.060614
C42	C	0.091195	0.577717	0.060617
O43	O	0.080012	0.615299	0.112124
N44	N	0.160894	0.533531	0.000037
C45	C	0.179570	0.489350	-0.060555
O46	O	0.243539	0.451766	-0.112083
C47	C	0.128549	0.489359	-0.060561
C48	C	0.058850	0.533544	0.000028
C49	C	-0.029522	0.621905	0.121197
C50	C	-0.080540	0.621910	0.121194
C51	C	-0.061863	0.577732	0.060609
C52	C	0.007832	0.533549	0.000025
C53	C	0.147226	0.445181	-0.121155
C54	C	0.096197	0.445194	-0.121156
C55	C	0.026498	0.489380	-0.060567
C56	C	-0.024510	0.489376	-0.060563
N57	N	-0.094208	0.533562	0.000017
C58	C	-0.112885	0.577740	0.060603
C59	C	0.286715	0.489336	-0.060539
C60	C	0.337737	0.489325	-0.060530
C61	C	0.249358	0.577693	0.060641
C62	C	0.198336	0.577701	0.060635
C63	C	0.217017	0.533523	0.000041
C64	C	-0.220023	0.577746	0.060593
C65	C	-0.271042	0.577746	0.060587
C66	C	-0.182660	0.489380	-0.060586
C67	C	-0.131645	0.489379	-0.060578
C68	C	-0.150332	0.533567	0.000016
O69	O	-0.013378	0.451815	-0.112045
O70	O	-0.176853	0.615323	0.112116
C71	C	0.533368	0.373535	-0.000000
C72	C	0.533374	0.319232	-0.000009
C73	C	0.470851	0.013771	0.042893
C74	C	0.470848	-0.037248	0.042900
O75	O	0.417705	-0.037071	0.079361
N76	N	0.533333	-0.094001	0.000056
C77	C	0.595827	-0.099734	-0.042790
O78	O	0.648976	-0.152691	-0.079230
C79	C	0.595830	-0.048716	-0.042792
C80	C	0.533340	0.008036	0.000047
C81	C	0.408367	0.070520	0.085729
C82	C	0.408371	0.121535	0.085721
C83	C	0.470860	0.115800	0.042875
C84	C	0.533344	0.059051	0.000039
C85	C	0.658323	-0.054450	-0.085633
C86	C	0.658321	-0.003426	-0.085631
C87	C	0.595831	0.053326	-0.042792
C88	C	0.595837	0.104331	-0.042815
N89	N	0.533351	0.161083	0.000028
C90	C	0.470863	0.166818	0.042873
C91	C	0.595816	-0.206873	-0.042782
C92	C	0.595813	-0.257890	-0.042785
C93	C	0.470834	-0.195400	0.042907
C94	C	0.470837	-0.144382	0.042905
C95	C	0.533330	-0.150120	0.000062
C96	C	0.470876	0.273950	0.042851
C97	C	0.470885	0.324967	0.042836
C98	C	0.595865	0.262473	-0.042852
C99	C	0.595856	0.211461	-0.042840
C100	C	0.533356	0.217203	0.000017
O101	O	0.648952	0.104200	-0.079255
O102	O	0.417723	0.219777	0.079316
C103	C	0.693336	0.533560	0.000008
C104	C	0.747634	0.533568	0.000002
C105	C	0.533357	0.533528	-0.219308
C106	C	0.533359	0.533525	-0.293749
C107	C	0.533330	0.693537	0.000055
C108	C	0.533324	0.747840	0.000064
C109	C	0.595838	0.502300	-0.507848
C110	C	0.595835	0.502304	-0.577789
C111	C	0.470856	0.564777	-0.492089
C112	C	0.470859	0.564775	-0.422150
C113	C	0.533352	0.533533	-0.430032
C114	C	0.533346	0.533540	-0.569913
C115	C	0.533342	0.533545	-0.645746
C116	C	0.533356	0.533528	-0.354195
C117	C	0.533342	0.533545	0.219363
C118	C	0.533339	0.533548	0.293804
C119	C	0.373343	0.693514	0.000074
C120	C	0.319039	0.747809	0.000090
C121	C	0.373354	0.533521	0.219383
C122	C	0.319054	0.533516	0.293830
C123	C	0.373336	0.693523	0.219410
C124	C	0.319029	0.747820	0.293866
C125	C	0.693363	0.373550	-0.219355
C126	C	0.747670	0.319252	-0.293812
C127	C	0.693355	0.373559	-0.000019
C128	C	0.747660	0.319264	-0.000035
C129	C	0.693344	0.533551	-0.219328
C130	C	0.747645	0.533556	-0.293775
C131	C	0.293542	0.742062	-0.042745
C132	C	0.242524	0.793073	-0.042746
C133	C	0.217001	0.849831	0.000092
C134	C	0.242503	0.855577	0.042929
C135	C	0.293523	0.804567	0.042925
C136	C	0.293548	0.564759	0.371633
C137	C	0.242534	0.564752	0.441591
C138	C	0.217023	0.533506	0.433743
C139	C	0.242533	0.502259	0.355931
C140	C	0.293550	0.502263	0.285976
C141	C	0.293523	0.804566	0.286008
C142	C	0.242503	0.855590	0.355961
C143	C	0.216986	0.849866	0.433772
C144	C	0.242496	0.793114	0.441629
C145	C	0.293519	0.742092	0.371677
C146	C	0.773181	0.262506	-0.285953
C147	C	0.824217	0.211483	-0.355906
C148	C	0.849738	0.217207	-0.433717
C149	C	0.824224	0.273959	-0.441574
C150	C	0.773192	0.324981	-0.371622
C151	C	0.773162	0.325011	0.042793
C152	C	0.824194	0.274000	0.042775
C153	C	0.849719	0.217242	-0.000066
C154	C	0.824215	0.211496	-0.042899
C155	C	0.773187	0.262506	-0.042886
C156	C	0.773140	0.564809	-0.285901
C157	C	0.824154	0.564825	-0.355845
C158	C	0.849676	0.533585	-0.433662
C159	C	0.824176	0.502332	-0.441535
C160	C	0.773159	0.502319	-0.371591
H161	H	-0.044741	0.657883	0.170534
C162	C	0.664568	-0.213194	-0.089929
N163	N	0.716352	-0.217957	-0.125442
C164	C	0.321612	0.679632	-0.089880
N165	N	0.342755	0.632612	-0.125389
C166	C	0.402094	-0.189101	0.090045
N167	N	0.350323	-0.184360	0.125548
H168	H	0.891269	0.175711	-0.000071
H169	H	0.175456	0.891362	0.000090
C170	C	0.745133	0.256174	-0.089992
N171	N	0.724003	0.251400	-0.125473
H172	H	0.221714	0.901796	0.077806
H173	H	0.752368	0.590248	-0.222544
H174	H	0.646717	0.476872	-0.641148
H175	H	0.314310	0.476823	0.222627
H176	H	0.314314	0.590204	0.378039
C177	C	0.905869	0.161074	-0.510659
N178	N	0.948144	0.118793	-0.568609
C179	C	0.228822	0.626293	0.127282
N180	N	0.213358	0.662897	0.177472
H181	H	0.646699	-0.304096	-0.077680
H182	H	0.221770	0.590199	0.504942
H183	H	0.752406	0.476867	-0.378014
H184	H	0.419973	0.590212	-0.358784
C185	C	0.402117	0.599135	-0.483427
N186	N	0.350341	0.625011	-0.476902
H187	H	0.845005	0.165277	-0.077780
C188	C	0.214414	0.786828	0.527229
N189	N	0.193257	0.782095	0.591705
H190	H	0.394485	0.453338	-0.109859
H191	H	-0.074892	0.453384	-0.109894
H192	H	0.314279	0.695889	0.378087
C193	C	0.745127	0.387400	-0.380280
N194	N	0.723989	0.434414	-0.386808
H195	H	0.844911	0.590275	-0.349419
C196	C	0.905798	0.533604	-0.510595
N197	N	0.948070	0.533619	-0.568538
H198	H	0.221767	0.788382	-0.077629
H199	H	0.646742	0.257814	-0.077738
C200	C	0.160896	0.533513	0.510705
N201	N	0.118618	0.533525	0.568676
H202	H	0.844982	0.165278	-0.349492
C203	C	0.214459	0.467893	0.347313
N204	N	0.193309	0.442013	0.340824
C205	C	0.852297	0.280245	-0.527174
N206	N	0.873439	0.284978	-0.591650
H207	H	0.844951	0.278691	0.077657
C208	C	0.339618	0.076842	0.132858
N209	N	0.287831	0.081609	0.168351
H210	H	0.314276	0.809255	0.077811
C211	C	0.852233	0.467994	-0.527142
N212	N	0.873361	0.442139	-0.591623
C213	C	0.727068	-0.116869	-0.132758
N214	N	0.778851	-0.163885	-0.168254
C215	C	0.745097	0.387440	0.089920
N216	N	0.723965	0.434461	0.125415
C217	C	0.160854	0.905998	0.510714
N218	N	0.118573	0.948279	0.568664
C219	C	-0.347713	0.626361	0.127235
N220	N	-0.405459	0.662980	0.177429
C221	C	0.402123	0.280277	0.089990
N222	N	0.350338	0.285042	0.125489
C223	C	0.214445	0.918011	0.347299
N224	N	0.193311	0.965026	0.340773
H225	H	-0.137289	0.657892	0.170530
C226	C	-0.240589	0.626353	0.127253
N227	N	-0.256079	0.662961	0.177464
H228	H	0.752406	0.257834	-0.222601
C229	C	0.121670	0.626313	0.127279
N230	N	0.063925	0.662932	0.177477
H231	H	0.301936	0.453356	-0.109881
C232	C	0.223887	0.396576	-0.187814
N233	N	0.281631	0.359966	-0.238029
H234	H	0.111415	0.409219	-0.170502
H235	H	-0.167463	0.453410	-0.109910
C236	C	0.402139	0.387395	0.089967
N237	N	0.350360	0.434413	0.125467
C238	C	0.339626	0.183958	0.132856
N239	N	0.287844	0.230974	0.168363
H240	H	0.419952	-0.098175	0.077796
H241	H	0.646740	0.165250	-0.077734
C242	C	0.664582	0.467938	-0.516522
N243	N	0.716363	0.442058	-0.523059
C244	C	0.727070	-0.009744	-0.132767
N245	N	0.778852	-0.014504	-0.168272
H246	H	0.314292	0.809238	0.222656
