data_functionalizedCrystal
_audit_creation_method	'MofGen! by Chris Wilmer'
_symmetry_space_group_name_H-M	'P1'
_symmetry_Int_Tables_number	1
_symmetry_cell_setting	triclinic
loop_
_symmetry_equiv_pos_as_xyz
  x,y,z
_cell_length_a	12.759401
_cell_length_b	19.077068
_cell_length_c	12.759393
_cell_angle_alpha	92.261180
_cell_angle_beta	89.980163
_cell_angle_gamma	92.328499
loop_
_atom_site_label
_atom_site_type_symbol
_atom_site_fract_x
_atom_site_fract_y
_atom_site_fract_z
Zn1	Zn	1.589362	-0.280130	-0.610770
Zn2	Zn	2.089362	0.219870	-0.110770
Zn3	Zn	1.582158	-0.397846	-0.442129
Zn4	Zn	2.082158	0.102154	0.057871
Zn5	Zn	1.413662	-0.280170	-0.435108
Zn6	Zn	1.913662	0.219830	0.064892
Zn7	Zn	1.406558	-0.397794	-0.617763
Zn8	Zn	1.906558	0.102206	-0.117763
O9	O	1.497935	-0.338985	-0.526442
O10	O	1.997935	0.161015	-0.026442
O11	O	1.735428	-0.295750	-0.588411
O12	O	2.235428	0.204250	-0.088411
O13	O	1.559765	-0.382274	-0.294179
O14	O	2.059765	0.117726	0.205821
O15	O	1.442957	-0.181674	-0.452545
O16	O	1.942957	0.318326	0.047455
O17	O	1.730135	-0.382235	-0.464511
O18	O	2.230135	0.117765	0.035489
O19	O	1.572044	-0.181644	-0.581603
O20	O	2.072044	0.318356	-0.081603
O21	O	1.435972	-0.295818	-0.289020
O22	O	1.935972	0.204182	0.210980
O23	O	1.265699	-0.295768	-0.459325
O24	O	1.765699	0.204232	0.040675
O25	O	1.430849	-0.382148	-0.763854
O26	O	1.930849	0.117852	-0.263854
O27	O	1.260479	-0.382186	-0.593521
O28	O	1.760479	0.117814	-0.093521
O29	O	1.565155	-0.295700	-0.758716
O30	O	2.065155	0.204300	-0.258716
O31	O	1.552876	-0.496330	-0.471292
O32	O	2.052876	0.003670	0.028708
O33	O	1.423863	-0.496292	-0.600330
O34	O	1.923863	0.003708	-0.100330
C35	C	1.224968	-0.338976	-0.526421
C36	C	1.724968	0.161024	-0.026421
C37	C	1.108191	-0.338990	-0.526438
C38	C	1.608191	0.161010	-0.026438
C39	C	1.050634	-0.384056	-0.596212
C40	C	1.550634	0.115944	-0.096212
C41	C	0.940910	-0.384059	-0.596233
C42	C	1.440910	0.115941	-0.096233
C43	C	0.946309	-0.293926	-0.456696
C44	C	1.446309	0.206074	0.043304
C45	C	1.056031	-0.293921	-0.456681
C46	C	1.556031	0.206079	0.043319
C47	C	1.486846	-0.521848	-0.537354
C48	C	1.986846	-0.021848	-0.037354
C49	C	1.482198	-0.600078	-0.542058
C50	C	1.982198	-0.100078	-0.042058
C51	C	1.547236	-0.636827	-0.477140
C52	C	2.047236	-0.136827	0.022860
C53	C	1.542871	-0.710332	-0.481570
C54	C	2.042871	-0.210332	0.018430
C55	C	1.473461	-0.747087	-0.550913
C56	C	1.973461	-0.247087	-0.050913
C57	C	1.408419	-0.710333	-0.615838
C58	C	1.908419	-0.210333	-0.115838
C59	C	1.412791	-0.636829	-0.611412
C60	C	1.912791	-0.136829	-0.111412
C61	C	1.453183	-0.966920	-0.571352
C62	C	1.953183	-0.466920	-0.071352
C63	C	1.448814	-1.040429	-0.575770
C64	C	1.948814	-0.540429	-0.075770
C65	C	1.583268	-1.040423	-0.441503
C66	C	2.083268	-0.540423	0.058497
C67	C	1.587629	-0.966918	-0.437079
C68	C	2.087629	-0.466918	0.062921
C69	C	1.522591	-0.930170	-0.502008
C70	C	2.022591	-0.430170	-0.002008
N71	N	1.468995	-0.822221	-0.555440
N72	N	1.968995	-0.322221	-0.055440
N73	N	1.527063	-0.855037	-0.497485
N74	N	2.027063	-0.355037	0.002515
C75	C	1.771968	-0.338994	-0.526464
C76	C	2.271968	0.161006	-0.026464
C77	C	1.888744	-0.338998	-0.526474
C78	C	2.388744	0.161002	-0.026474
C79	C	1.498013	-0.338914	-0.800472
C80	C	1.998013	0.161086	-0.300472
C81	C	1.498046	-0.338883	-0.917246
C82	C	1.998046	0.161117	-0.417246
C83	C	1.509097	-0.155407	-0.515511
C84	C	2.009097	0.344593	-0.015511
C85	C	1.513853	-0.077178	-0.510852
C86	C	2.013853	0.422822	-0.010852
C87	C	1.433611	-0.293857	-0.969421
C88	C	1.933611	0.206143	-0.469421
C89	C	1.433637	-0.293836	-1.079144
C90	C	1.933637	0.206164	-0.579144
C91	C	1.562541	-0.383868	-1.084508
C92	C	2.062541	0.116132	-0.584508
C93	C	1.562509	-0.383893	-0.974787
C94	C	2.062509	0.116107	-0.474787
C95	C	1.497921	-0.339005	-0.253476
C96	C	1.997921	0.160995	0.246524
C97	C	1.498104	-0.338837	-0.136690
C98	C	1.998104	0.161163	0.363310
H99	H	1.093100	-0.420752	-0.653015
H100	H	1.593100	0.079248	-0.153015
H101	H	1.381167	-0.257172	-1.121620
H102	H	1.881167	0.242828	-0.621620
H103	H	0.894052	-0.420755	-0.653052
H104	H	1.394052	0.079245	-0.153052
C105	C	1.372461	-1.080858	-0.652063
C106	C	1.872461	-0.580858	-0.152063
N107	N	1.314956	-1.111309	-0.709524
N108	N	1.814956	-0.611309	-0.209524
H109	H	0.903827	-0.257234	-0.399902
H110	H	1.403827	0.242766	0.100098
H111	H	1.102895	-0.257218	-0.399862
H112	H	1.602895	0.242782	0.100138
C113	C	1.623591	-0.596403	-0.400854
C114	C	2.123591	-0.096403	0.099146
N115	N	1.681107	-0.565958	-0.343396
N116	N	2.181107	-0.065958	0.156604
H117	H	1.615025	-0.420512	-1.131370
H118	H	2.115025	0.079488	-0.631370
H119	H	1.614982	-0.420561	-0.932305
H120	H	2.114982	0.079439	-0.432305
C121	C	1.614413	-0.750752	-0.410148
C122	C	2.114413	-0.250752	0.089852
N123	N	1.668299	-0.781196	-0.356349
N124	N	2.168299	-0.281196	0.143651
H125	H	1.359831	-0.606909	-0.664276
H126	H	1.859831	-0.106909	-0.164276
H127	H	1.381121	-0.257208	-0.922575
H128	H	1.881121	0.242792	-0.422575
C129	C	1.654807	-1.080851	-0.370090
C130	C	2.154807	-0.580851	0.129910
N131	N	1.708696	-1.111302	-0.316301
N132	N	2.208696	-0.611302	0.183699
C133	C	1.663958	-0.926493	-0.360770
C134	C	2.163958	-0.426493	0.139230
N135	N	1.721439	-0.896045	-0.303280
N136	N	2.221439	-0.396045	0.196720
H137	H	1.351909	-0.740265	-0.672303
H138	H	1.851909	-0.240265	-0.172303
C139	C	1.381693	-0.926507	-0.642829
C140	C	1.881693	-0.426507	-0.142829
N141	N	1.327863	-0.896066	-0.696690
N142	N	1.827863	-0.396066	-0.196690
