data_functionalizedCrystal
_audit_creation_method	'MofGen! by Chris Wilmer'
_symmetry_space_group_name_H-M	'P1'
_symmetry_Int_Tables_number	1
_symmetry_cell_setting	triclinic
loop_
_symmetry_equiv_pos_as_xyz
  x,y,z
_cell_length_a	10.654541
_cell_length_b	17.699083
_cell_length_c	16.776229
_cell_angle_alpha	90.001114
_cell_angle_beta	89.993604
_cell_angle_gamma	96.116528
loop_
_atom_site_label
_atom_site_type_symbol
_atom_site_fract_x
_atom_site_fract_y
_atom_site_fract_z
O1	O	0.158809	-1.005087	-0.066176
O2	O	0.179470	-0.784840	-0.066202
O3	O	-0.013689	-0.900029	-0.066184
O4	O	0.351968	-0.889899	-0.066194
O5	O	-0.013700	-0.900013	0.066393
O6	O	0.179458	-0.784825	0.066374
O7	O	0.158797	-1.005072	0.066400
Zn8	Zn	0.169126	-0.894946	0.087437
Zn9	Zn	0.169142	-0.894966	-0.087238
O10	O	0.351956	-0.889883	0.066382
C11	C	0.178724	-0.756631	0.000083
C12	C	0.176503	-0.672599	0.000073
C13	C	-0.060480	-0.899277	0.000104
C14	C	-0.199884	-0.897053	0.000103
C15	C	0.159543	-1.033281	0.000114
C16	C	0.161764	-1.117313	0.000118
C17	C	-0.230266	-1.034792	0.000129
C18	C	-0.310947	-1.102614	0.000144
C19	C	-0.441929	-1.100519	0.000141
C20	C	-0.492230	-1.030596	0.000121
C21	C	-0.411549	-0.962775	0.000106
C22	C	-0.280566	-0.964876	0.000111
C23	C	-0.381167	-0.825037	0.000074
C24	C	-0.250185	-0.827130	0.000083
C25	C	-0.431468	-0.755114	0.000054
C26	C	-0.350786	-0.687291	0.000045
C27	C	-0.219798	-0.689388	0.000049
C28	C	-0.169504	-0.759308	0.000068
C29	C	0.398747	-0.890634	0.000093
C30	C	0.538151	-0.892859	0.000089
N31	N	0.169115	-0.894937	0.206648
C32	C	0.289883	-0.624698	0.000070
C33	C	0.287789	-0.545741	0.000080
C34	C	0.172313	-0.514687	0.000088
C35	C	0.058924	-0.562594	0.000094
C36	C	0.061020	-0.641549	0.000089
C37	C	0.050470	-0.244177	0.000114
C38	C	0.048383	-0.165216	0.000116
C39	C	0.277239	-0.148369	0.000105
C40	C	0.279335	-0.227324	0.000100
C41	C	0.165946	-0.275224	0.000110
C42	C	0.168219	-0.360838	0.000100
C43	C	0.170039	-0.429075	0.000092
N44	N	0.169143	-0.894981	-0.206450
C45	C	0.083619	-0.945959	0.248373
C46	C	0.083618	-0.945963	0.331826
C47	C	0.169119	-0.894949	0.373551
C48	C	0.254619	-0.843922	0.331820
C49	C	0.254613	-0.843915	0.248369
C50	C	0.254644	-0.843950	0.668367
C51	C	0.254646	-0.843962	0.751824
C52	C	0.083648	-0.945998	0.751823
C53	C	0.083642	-0.945990	0.668373
C54	C	0.169137	-0.894961	0.626649
C55	C	0.169136	-0.894956	0.536161
C56	C	0.169128	-0.894957	0.464038
H57	H	-0.123616	-1.036505	0.000142
H58	H	-0.538121	-0.753413	0.000047
H59	H	0.369565	-0.109359	0.000101
H60	H	0.014000	-0.987508	0.365798
N61	N	-0.061274	-0.693211	0.000090
H62	H	-0.065506	-0.726346	-0.049056
H63	H	-0.065435	-0.726295	0.049269
N64	N	-0.008571	-1.001015	0.623369
H65	H	-0.062736	-1.033338	0.662465
H66	H	-0.064030	-0.971748	0.588754
N67	N	-0.065625	-0.529101	0.000095
H68	H	-0.137134	-0.571429	0.000097
H69	H	-0.071486	-0.496709	0.049242
N70	N	-0.008570	-1.001037	0.796825
H71	H	0.004400	-0.993303	0.856022
H72	H	-0.097643	-0.991834	0.782246
H73	H	-0.269977	-1.159544	0.000167
N74	N	0.414430	-0.658193	0.000065
H75	H	0.420407	-0.690573	-0.049084
H76	H	0.485867	-0.615824	0.000097
H77	H	-0.041858	-0.283168	0.000122
H78	H	0.324232	-0.802382	0.365797
N79	N	-0.633502	-1.028338	0.000118
H80	H	-0.653125	-0.973753	0.000106
H81	H	-0.670911	-1.054917	-0.049027
N82	N	-0.008595	-1.000986	0.203372
H83	H	-0.062757	-1.033307	0.242471
H84	H	-0.064056	-0.971721	0.168757
H85	H	0.324274	-0.802418	0.785795
H86	H	0.324259	-0.802401	0.634402
N87	N	-0.405029	-0.611878	0.000023
H88	H	-0.458681	-0.607948	-0.049128
H89	H	-0.458650	-0.607975	0.049197
N90	N	-0.028232	-0.761565	0.000071
H91	H	-0.002651	-0.789099	0.049223
H92	H	-0.002738	-0.789105	-0.049101
H93	H	0.324231	-0.802367	0.214397
H94	H	-0.154113	-0.634159	0.000034
N95	N	-0.528966	-1.173663	0.000156
H96	H	-0.512810	-1.204150	-0.048983
H97	H	-0.512786	-1.204068	0.049342
N98	N	0.410077	-0.494076	0.000167
H99	H	0.483547	-0.525729	0.000186
H100	H	0.414290	-0.460905	-0.048948
H101	H	0.373367	-0.252604	0.000090
N102	N	-0.076171	-0.131719	0.000125
H103	H	-0.147686	-0.174043	0.000133
H104	H	-0.082017	-0.099326	0.049274
