data_functionalizedCrystal
_audit_creation_method	'MofGen! by Chris Wilmer'
_symmetry_space_group_name_H-M	'P1'
_symmetry_Int_Tables_number	1
_symmetry_cell_setting	triclinic
loop_
_symmetry_equiv_pos_as_xyz
  x,y,z
_cell_length_a	6.817900
_cell_length_b	11.102291
_cell_length_c	10.943881
_cell_angle_alpha	91.860077
_cell_angle_beta	108.843448
_cell_angle_gamma	108.605753
loop_
_atom_site_label
_atom_site_type_symbol
_atom_site_fract_x
_atom_site_fract_y
_atom_site_fract_z
V1	V	-4.114337	-0.175803	-0.402553
O2	O	-4.073315	0.008485	-0.394889
O3	O	-4.091096	-0.348624	-0.399801
O4	O	-4.092342	-0.173083	-0.578120
O5	O	-4.072061	-0.168271	-0.215336
V6	V	-4.591283	-0.153762	-0.380160
O7	O	-4.390021	-0.224152	-0.451674
O8	O	-4.765796	-0.105413	-0.331040
O9	O	-4.391318	0.019059	-0.382913
O10	O	-4.749702	-0.338050	-0.387824
O11	O	-4.750957	-0.161294	-0.567378
O12	O	-4.390072	-0.156483	-0.204593
C13	C	-3.941363	-0.390754	-0.393451
C14	C	-4.003823	-0.532037	-0.392371
C15	C	-4.152825	-0.749301	-0.509090
C16	C	-4.094157	-0.616551	-0.510102
C17	C	-3.972177	-0.580281	-0.273620
C18	C	-4.030859	-0.713029	-0.272610
C19	C	-4.243139	-0.833807	-0.626828
C20	C	-4.274793	-0.785574	-0.745579
C21	C	-4.216125	-0.652823	-0.746592
C22	C	-4.125803	-0.568307	-0.628853
C23	C	-3.942951	-0.166832	-0.620913
C24	C	-4.006417	-0.165752	-0.764440
C25	C	-4.235819	-0.171737	-0.855323
C26	C	-4.123117	-0.062491	-0.921059
C27	C	-4.232144	-0.272994	-0.954430
C28	C	-3.892833	-0.056434	-0.828272
C29	C	-4.001934	-0.267032	-0.861651
C30	C	-3.889061	-0.157756	-0.927339
C31	C	-4.204394	0.061182	-0.389259
C32	C	-4.121173	0.202464	-0.390348
C33	C	-4.202805	-0.162737	-0.161794
C34	C	-4.118576	-0.163811	-0.018266
H35	H	-4.005081	-0.752302	-0.175919
Cl36	Cl	-3.858648	-0.474033	-0.125617
Cl37	Cl	-4.461023	-0.180677	-0.806115
H38	H	-3.748857	0.035169	-0.773671
H39	H	-3.950172	-0.353530	-0.835097
H40	H	-4.376230	-0.364500	-1.009177
Cl41	Cl	-4.203108	0.071052	-0.962009
Cl42	Cl	-3.663360	-0.148572	-0.976132
H43	H	-4.348349	-0.854395	-0.841438
Cl44	Cl	-4.316893	-1.000694	-0.625563
H45	H	-4.078056	-0.460215	-0.629687
Cl46	Cl	-4.255940	-0.592190	-0.895876
