data_functionalizedCrystal
_audit_creation_method	'MofGen! by Chris Wilmer'
_symmetry_space_group_name_H-M	'P1'
_symmetry_Int_Tables_number	1
_symmetry_cell_setting	triclinic
loop_
_symmetry_equiv_pos_as_xyz
  x,y,z
_cell_length_a	10.489741
_cell_length_b	14.971486
_cell_length_c	13.448316
_cell_angle_alpha	90.006811
_cell_angle_beta	89.995953
_cell_angle_gamma	95.923349
loop_
_atom_site_label
_atom_site_type_symbol
_atom_site_fract_x
_atom_site_fract_y
_atom_site_fract_z
O1	O	1.692597	-0.126198	-0.082631
O2	O	1.321264	-0.138043	-0.082646
O3	O	1.516883	-0.001977	-0.082631
O4	O	1.496978	-0.262264	-0.082646
O5	O	1.516859	-0.001968	0.082753
O6	O	1.321240	-0.138035	0.082737
O7	O	1.692572	-0.126189	0.082753
Cu8	Cu	1.506904	-0.132111	0.097846
Cu9	Cu	1.506933	-0.132121	-0.097740
O10	O	1.496953	-0.262255	0.082738
C11	C	1.273731	-0.137144	0.000043
C12	C	1.132132	-0.134468	0.000038
N13	N	1.506893	-0.132103	0.235410
C14	C	1.515981	0.031357	0.000060
C15	C	1.513313	0.130669	0.000059
C16	C	1.064994	-0.047893	0.000052
C17	C	0.972406	-0.088794	-0.081491
C18	C	0.972415	-0.088806	0.081564
C19	C	1.041409	-0.175405	-0.081573
C20	C	1.041428	-0.175405	0.081556
C21	C	0.948867	-0.216369	-0.000007
C22	C	1.740106	-0.127088	0.000061
C23	C	1.881704	-0.129765	0.000060
C24	C	1.497856	-0.295589	0.000044
C25	C	1.500523	-0.394902	0.000038
C26	C	1.628234	0.187241	0.000065
C27	C	1.625720	0.280554	0.000055
C28	C	1.508283	0.317295	0.000046
C29	C	1.393354	0.260716	0.000038
C30	C	1.395869	0.167404	0.000041
C31	C	1.388119	0.455209	0.000034
C32	C	1.385603	0.548527	0.000033
C33	C	1.617969	0.568359	0.000048
C34	C	1.620485	0.475047	0.000051
C35	C	1.505554	0.418474	0.000044
N36	N	1.506954	-0.132122	-0.235304
C37	C	1.593540	-0.071879	0.287457
C38	C	1.593548	-0.071878	0.391561
C39	C	1.506914	-0.132107	0.443615
C40	C	1.420257	-0.192335	0.391560
C41	C	1.420244	-0.192331	0.287459
C42	C	1.420293	-0.192341	0.608540
C43	C	1.420307	-0.192347	0.712649
C44	C	1.593596	-0.071888	0.712642
C45	C	1.593583	-0.071884	0.608541
C46	C	1.506928	-0.132113	0.556493
H47	H	1.115507	0.023277	-0.000046
H48	H	1.349759	-0.241391	0.755026
H49	H	1.723864	0.157334	0.000078
F50	F	1.748035	0.340758	0.000062
F51	F	1.685821	-0.007790	0.768038
H52	H	1.349686	-0.241371	0.245083
F53	F	1.328047	-0.256432	0.446961
H54	H	1.071824	-0.212011	-0.150589
H55	H	1.349725	-0.241383	0.566167
H56	H	1.664101	-0.022838	0.433937
H57	H	0.898618	-0.287614	-0.000056
H58	H	0.941851	-0.052155	0.150503
F59	F	0.932437	-0.040921	-0.171597
F60	F	1.740288	0.628568	0.000051
F61	F	1.273555	0.107197	0.000032
F62	F	1.685755	-0.007777	0.232067
F63	F	1.081444	-0.223242	0.171665
H64	H	1.716112	0.445136	0.000065
F65	F	1.265796	0.395002	0.000025
H66	H	1.297735	0.290638	0.000025
F67	F	1.260614	0.587627	0.000025
F68	F	1.685794	-0.007788	0.553140
