data_functionalizedCrystal
_audit_creation_method	'MofGen! by Chris Wilmer'
_symmetry_space_group_name_H-M	'P1'
_symmetry_Int_Tables_number	1
_symmetry_cell_setting	triclinic
loop_
_symmetry_equiv_pos_as_xyz
  x,y,z
_cell_length_a	12.827893
_cell_length_b	21.295417
_cell_length_c	12.827885
_cell_angle_alpha	89.962947
_cell_angle_beta	89.980538
_cell_angle_gamma	90.029863
loop_
_atom_site_label
_atom_site_type_symbol
_atom_site_fract_x
_atom_site_fract_y
_atom_site_fract_z
Zn1	Zn	1.597568	-0.250576	-0.590796
Zn2	Zn	1.597418	-0.355858	-0.416034
Zn3	Zn	1.422808	-0.250607	-0.416070
Zn4	Zn	1.422751	-0.355812	-0.590734
O5	O	1.510136	-0.303213	-0.503408
O6	O	1.743784	-0.264548	-0.567624
O7	O	1.574217	-0.341929	-0.269803
O8	O	1.446078	-0.162514	-0.439288
O9	O	1.743673	-0.341899	-0.439228
O10	O	1.574472	-0.162491	-0.567659
O11	O	1.445932	-0.264601	-0.269829
O12	O	1.276565	-0.264556	-0.439228
O13	O	1.445979	-0.341819	-0.736978
O14	O	1.276522	-0.341850	-0.567553
O15	O	1.574416	-0.264503	-0.737024
O16	O	1.574161	-0.443941	-0.439168
O17	O	1.445834	-0.443907	-0.567519
C18	C	1.238626	-0.303202	-0.503388
C19	C	1.122473	-0.303212	-0.503405
C20	C	1.070743	-0.265004	-0.567039
C21	C	0.950692	-0.265014	-0.567057
C22	C	1.510003	-0.466765	-0.503355
C23	C	1.510042	-0.536733	-0.503368
C24	C	1.576858	-0.569531	-0.570258
C25	C	1.576895	-0.635273	-0.570284
C26	C	1.510126	-0.668215	-0.503401
C27	C	1.443296	-0.635410	-0.436506
C28	C	1.443254	-0.569669	-0.436489
N29	N	1.502230	-0.771484	-0.411945
N30	N	1.502276	-0.833935	-0.411964
C31	C	1.510248	-0.866290	-0.503448
N32	N	1.518193	-0.833834	-0.594915
N33	N	1.518152	-0.771377	-0.594895
C34	C	1.510164	-0.739501	-0.503412
C35	C	1.577109	-0.970373	-0.570372
C36	C	1.577138	-1.036117	-0.570399
C37	C	1.443545	-1.036252	-0.436612
C38	C	1.443510	-0.970510	-0.436594
C39	C	1.510297	-0.937574	-0.503472
C40	C	1.782706	-0.303225	-0.503429
C41	C	1.898859	-0.303230	-0.503438
C42	C	1.510208	-0.303153	-0.775979
C43	C	1.510239	-0.303127	-0.892132
C44	C	1.510298	-0.139023	-0.503484
C45	C	1.510367	-0.069055	-0.503517
C46	C	1.446780	-0.264855	-0.943930
C47	C	1.446810	-0.264828	-1.063980
C48	C	1.510124	-0.303228	-0.231898
C49	C	1.510296	-0.303076	-0.115746
H50	H	1.115331	-0.232284	-0.621500
H51	H	0.906205	-0.232305	-0.621539
H52	H	1.631297	-0.661982	-0.624766
C53	C	1.373359	-0.220611	-0.883775
N54	N	1.318060	-0.187282	-0.838468
H55	H	0.943340	-0.335946	-0.448961
C56	C	1.370083	-1.072485	-0.363053
N57	N	1.314744	-1.099779	-0.307653
H58	H	1.389106	-0.943804	-0.382121
H59	H	1.564633	-0.335841	-1.071208
H60	H	1.564590	-0.335873	-0.936663
C61	C	1.650333	-0.533305	-0.643821
N62	N	1.705677	-0.506019	-0.699227
H63	H	1.077885	-0.335928	-0.448937
H64	H	1.392485	-0.232059	-1.108525
C65	C	1.369891	-0.671648	-0.362893
N66	N	1.314612	-0.698942	-0.307434
H67	H	1.388842	-0.542964	-0.382018
C68	C	1.650561	-0.934142	-0.643953
N69	N	1.705884	-0.906854	-0.699378
C70	C	1.650651	-1.072194	-0.643983
N71	N	1.706027	-1.099368	-0.699404
