data_functionalizedCrystal
_audit_creation_method	'MofGen! by Chris Wilmer'
_symmetry_space_group_name_H-M	'P1'
_symmetry_Int_Tables_number	1
_symmetry_cell_setting	triclinic
loop_
_symmetry_equiv_pos_as_xyz
  x,y,z
_cell_length_a	16.625546
_cell_length_b	17.077404
_cell_length_c	17.077396
_cell_angle_alpha	89.980499
_cell_angle_beta	90.030215
_cell_angle_gamma	89.977307
loop_
_atom_site_label
_atom_site_type_symbol
_atom_site_fract_x
_atom_site_fract_y
_atom_site_fract_z
Zn1	Zn	-0.320997	-1.200057	0.443833
Zn2	Zn	0.179003	-0.700057	0.943833
Zn3	Zn	-0.455839	-1.199965	0.312563
Zn4	Zn	0.044161	-0.699965	0.812563
Zn5	Zn	-0.321025	-1.068789	0.312581
Zn6	Zn	0.178975	-0.568789	0.812581
Zn7	Zn	-0.455792	-1.068758	0.443787
Zn8	Zn	0.044208	-0.568758	0.943787
O9	O	-0.388413	-1.134392	0.378191
O10	O	0.111587	-0.634392	0.878191
O11	O	-0.338892	-1.309892	0.426432
O12	O	0.161108	-0.809892	0.926432
O13	O	-0.437988	-1.182539	0.202719
O14	O	0.062012	-0.682539	0.702719
O15	O	-0.208189	-1.086253	0.330019
O16	O	0.291811	-0.586253	0.830019
O17	O	-0.437960	-1.309824	0.329988
O18	O	0.062040	-0.809824	0.829988
O19	O	-0.208168	-1.182695	0.426449
O20	O	0.291832	-0.682695	0.926449
O21	O	-0.338940	-1.086164	0.202732
O22	O	0.161060	-0.586164	0.702732
O23	O	-0.338894	-0.958938	0.329974
O24	O	0.161106	-0.458938	0.829974
O25	O	-0.437879	-1.086200	0.553640
O26	O	0.062121	-0.586200	1.053640
O27	O	-0.437906	-0.958915	0.426370
O28	O	0.062094	-0.458915	0.926370
O29	O	-0.338846	-1.182665	0.553674
O30	O	0.161154	-0.682665	1.053674
O31	O	-0.568666	-1.182509	0.329943
O32	O	-0.068666	-0.682509	0.829943
O33	O	-0.568630	-1.086111	0.426353
O34	O	-0.068630	-0.586111	0.926353
C35	C	-0.388399	-0.930444	0.378169
C36	C	0.111601	-0.430444	0.878169
C37	C	-0.388412	-0.843194	0.378179
C38	C	0.111588	-0.343194	0.878179
C39	C	-0.597904	-1.134318	0.378158
C40	C	-0.097904	-0.634318	0.878158
C41	C	-0.687525	-1.134358	0.378170
C42	C	-0.187525	-0.634358	0.878170
C43	C	-0.388354	-1.134440	0.582936
C44	C	0.111646	-0.634440	1.082936
C45	C	-0.388329	-1.134460	0.670185
C46	C	0.111671	-0.634460	1.170185
C47	C	-1.015701	-1.134495	0.378252
C48	C	-0.515701	-0.634495	0.878252
C49	C	-0.924392	-1.134454	0.378232
C50	C	-0.424392	-0.634454	0.878232
C51	C	-0.851616	-1.134426	0.378211
C52	C	-0.351616	-0.634426	0.878211
C53	C	-0.760302	-1.134386	0.378191
C54	C	-0.260302	-0.634386	0.878191
C55	C	-0.178104	-1.134488	0.378241
C56	C	0.321896	-0.634488	0.878241
C57	C	-0.088483	-1.134529	0.378263
C58	C	0.411517	-0.634529	0.878263
C59	C	-0.388428	-1.339136	0.378213
C60	C	0.111572	-0.839136	0.878213
C61	C	-0.388435	-1.426386	0.378223
C62	C	0.111565	-0.926386	0.878223
C63	C	-0.440045	-0.802213	0.428292
C64	C	0.059955	-0.302213	0.928292
C65	C	-0.440047	-0.720232	0.428304
C66	C	0.059953	-0.220232	0.928304
C67	C	-0.388419	-0.679235	0.378199
C68	C	0.111581	-0.179235	0.878199
C69	C	-0.336780	-0.720222	0.328084
C70	C	0.163220	-0.220222	0.828084
C71	C	-0.336774	-0.802201	0.328076
C72	C	0.163226	-0.302201	0.828076
C73	C	-0.336795	-0.549352	0.328103
C74	C	0.163205	-0.049352	0.828103
C75	C	-0.336801	-0.467368	0.328110
C76	C	0.163199	0.032632	0.828110
C77	C	-0.440068	-0.467383	0.428331
C78	C	0.059932	0.032617	0.928331
C79	C	-0.440063	-0.549362	0.428323
C80	C	0.059937	-0.049362	0.928323
C81	C	-0.388425	-0.590344	0.378207
C82	C	0.111575	-0.090344	0.878207
C83	C	-0.388414	-1.134390	0.174243
C84	C	0.111586	-0.634390	0.674243
C85	C	-0.388212	-1.134522	0.086994
C86	C	0.111788	-0.634522	0.586994
C87	C	-0.336758	-1.184691	0.711195
C88	C	0.163242	-0.684691	1.211195
C89	C	-0.336731	-1.184700	0.793175
C90	C	0.163269	-0.684700	1.293175
C91	C	-0.388280	-1.134482	0.834145
C92	C	0.111720	-0.634482	1.334145
C93	C	-0.439853	-1.084245	0.793130
C94	C	0.060147	-0.584245	1.293130
C95	C	-0.439875	-1.084233	0.711151
C96	C	0.060125	-0.584233	1.211151
C97	C	-0.439804	-1.084277	0.964000
C98	C	0.060196	-0.584277	1.464000
C99	C	-0.439783	-1.084291	1.045985
C100	C	0.060217	-0.584291	1.545985
C101	C	-0.336660	-1.184745	1.046024
C102	C	0.163340	-0.684745	1.546024
C103	C	-0.336682	-1.184732	0.964045
C104	C	0.163318	-0.684732	1.464045
C105	C	-0.388257	-1.134496	0.923036
C106	C	0.111743	-0.634496	1.423036
H107	H	-0.482090	-0.835587	0.469091
H108	H	0.017910	-0.335587	0.969091
H109	H	-0.294739	-0.686836	0.287291
H110	H	0.205261	-0.186836	0.787291
H111	H	-0.482093	-0.686869	0.469111
H112	H	0.017907	-0.186869	0.969111
H113	H	-0.481822	-1.043354	0.826494
H114	H	0.018178	-0.543354	1.326494
H115	H	-0.481861	-1.043321	0.677762
H116	H	0.018139	-0.543321	1.177762
H117	H	-0.481789	-1.043357	0.930613
H118	H	0.018211	-0.543357	1.430613
N119	N	-0.281025	-1.238912	1.090263
N120	N	0.218975	-0.738912	1.590263
H121	H	-0.223419	-1.226741	1.076004
H122	H	0.276581	-0.726741	1.576004
H123	H	-0.293619	-1.294972	1.075997
H124	H	0.206381	-0.794972	1.575997
N125	N	-0.281082	-1.238888	0.919848
N126	N	0.218918	-0.738888	1.419848
H127	H	-0.313863	-1.275242	0.885832
H128	H	0.186137	-0.775242	1.385832
H129	H	-0.248413	-1.270661	0.958311
H130	H	0.251587	-0.770661	1.458311
N131	N	-0.281090	-0.846411	0.274024
N132	N	0.218910	-0.346411	0.774024
H133	H	-0.243765	-0.880448	0.305989
H134	H	0.256235	-0.380448	0.805989
H135	H	-0.248438	-0.807955	0.242291
H136	H	0.251562	-0.307955	0.742291
H137	H	-0.482108	-0.582740	0.469119
H138	H	0.017892	-0.082740	0.969119
N139	N	-0.281163	-1.238861	0.667008
N140	N	0.218837	-0.738861	1.167008
H141	H	-0.248489	-1.270682	0.705431
H142	H	0.251511	-0.770682	1.205431
H143	H	-0.243856	-1.206921	0.632997
H144	H	0.256144	-0.706921	1.132997
H145	H	-0.294752	-0.433990	0.287319
H146	H	0.205248	0.066010	0.787319
H147	H	-0.481757	-1.043397	1.079340
H148	H	0.018243	-0.543397	1.579340
H149	H	-0.294739	-0.582717	0.287300
H150	H	0.205261	-0.082717	0.787300
N151	N	-0.281117	-1.238877	0.837418
N152	N	0.218883	-0.738877	1.337418
H153	H	-0.243740	-1.206996	0.871432
H154	H	0.256260	-0.706996	1.371432
H155	H	-0.248517	-1.270686	0.798984
H156	H	0.251483	-0.770686	1.298984
N157	N	-0.495766	-0.423185	0.482384
N158	N	0.004234	0.076815	0.982384
H159	H	-0.528478	-0.461596	0.514117
H160	H	-0.028478	0.038404	1.014117
H161	H	-0.533035	-0.389148	0.450360
H162	H	-0.033035	0.110852	0.950360
