data_functionalizedCrystal
_audit_creation_method	'MofGen! by Chris Wilmer'
_symmetry_space_group_name_H-M	'P1'
_symmetry_Int_Tables_number	1
_symmetry_cell_setting	triclinic
loop_
_symmetry_equiv_pos_as_xyz
  x,y,z
_cell_length_a	14.044191
_cell_length_b	14.044220
_cell_length_c	13.101039
_cell_angle_alpha	86.332523
_cell_angle_beta	86.339405
_cell_angle_gamma	86.809673
loop_
_atom_site_label
_atom_site_type_symbol
_atom_site_fract_x
_atom_site_fract_y
_atom_site_fract_z
O1	O	1.281974	-0.225380	-0.085125
O2	O	1.781974	0.274620	0.414875
O3	O	1.005303	-0.217066	-0.085147
O4	O	1.505303	0.282934	0.414853
O5	O	1.139485	-0.082888	-0.085126
O6	O	1.639485	0.417112	0.414874
O7	O	1.147792	-0.359558	-0.085146
O8	O	1.647792	0.140442	0.414854
O9	O	1.129859	-0.092532	0.085302
O10	O	1.629859	0.407468	0.585302
O11	O	0.995677	-0.226710	0.085281
O12	O	1.495677	0.273290	0.585281
O13	O	1.272348	-0.235024	0.085304
O14	O	1.772348	0.264976	0.585304
Zn15	Zn	1.132484	-0.232399	0.112352
Zn16	Zn	1.632484	0.267601	0.612352
Zn17	Zn	1.145167	-0.219692	-0.112195
Zn18	Zn	1.645167	0.280308	0.387805
O19	O	1.138166	-0.369203	0.085283
O20	O	1.638166	0.130797	0.585283
C21	C	1.131036	-0.052088	0.000088
C22	C	1.631036	0.447912	0.500088
C23	C	1.120192	0.054055	0.000089
C24	C	1.620192	0.554055	0.500089
C25	C	0.964868	-0.218251	0.000064
C26	C	1.464868	0.281749	0.500064
C27	C	0.858725	-0.207404	0.000056
C28	C	1.358725	0.292596	0.500056
C29	C	1.312783	-0.233839	0.000090
C30	C	1.812783	0.266161	0.500090
C31	C	1.418926	-0.244686	0.000092
C32	C	1.918926	0.255314	0.500092
C33	C	1.664385	-0.187585	0.000075
C34	C	2.164385	0.312415	0.500075
C35	C	1.613260	-0.264501	0.000073
C36	C	2.113260	0.235499	0.500073
C37	C	1.505122	-0.253473	0.000083
C38	C	2.005122	0.246527	0.500083
C39	C	1.772533	-0.198611	0.000064
C40	C	2.272533	0.301389	0.500064
C41	C	1.146615	-0.400002	0.000066
C42	C	1.646615	0.099998	0.500066
C43	C	1.157460	-0.506145	0.000059
C44	C	1.657460	-0.006145	0.500059
N45	N	1.123835	-0.241071	0.265599
N46	N	1.623835	0.258929	0.765599
C47	C	1.100366	0.248394	0.000072
C48	C	1.600366	0.748394	0.500072
C49	C	1.177281	0.299522	0.000075
C50	C	1.677281	0.799522	0.500075
C51	C	1.166250	0.407659	0.000066
C52	C	1.666250	0.907659	0.500066
C53	C	1.111396	0.140247	0.000081
C54	C	1.611396	0.640247	0.500081
N55	N	1.153822	-0.211012	-0.265442
N56	N	1.653822	0.288988	0.234558
C57	C	1.112069	-0.252879	0.474640
C58	C	1.612069	0.247121	0.974640
C59	C	1.165585	-0.199208	0.525524
C60	C	1.665585	0.300792	1.025524
C61	C	1.159039	-0.205778	0.641841
C62	C	1.659039	0.294222	1.141841
C63	C	1.118615	-0.246310	0.358312
C64	C	1.618615	0.253690	0.858312
H65	H	1.650704	-0.338633	0.000063
H66	H	2.150704	0.161367	0.500063
O67	O	1.002172	0.297983	0.000082
O68	O	1.502172	0.797983	0.500082
H69	H	0.997404	0.347171	-0.069377
H70	H	1.497404	0.847171	0.430623
H71	H	1.216319	-0.148325	0.481729
H72	H	1.716319	0.351675	0.981729
O73	O	1.044880	-0.320289	0.532636
O74	O	1.544880	0.179711	1.032636
H75	H	1.050229	-0.314943	0.616218
H76	H	1.550229	0.185057	1.116218
O77	O	1.614794	-0.089393	0.000087
O78	O	2.114794	0.410607	0.500087
H79	H	1.639716	-0.046135	-0.069373
H80	H	2.139716	0.453865	0.430627
O81	O	1.275483	0.249938	0.000102
O82	O	1.775483	0.749938	0.500102
H83	H	1.268851	0.171551	0.000119
H84	H	1.768851	0.671551	0.500119
