data_functionalizedCrystal
_audit_creation_method	'MofGen! by Chris Wilmer'
_symmetry_space_group_name_H-M	'P1'
_symmetry_Int_Tables_number	1
_symmetry_cell_setting	triclinic
loop_
_symmetry_equiv_pos_as_xyz
  x,y,z
_cell_length_a	17.639115
_cell_length_b	14.908932
_cell_length_c	14.908694
_cell_angle_alpha	90.169261
_cell_angle_beta	81.399029
_cell_angle_gamma	97.296074
loop_
_atom_site_label
_atom_site_type_symbol
_atom_site_fract_x
_atom_site_fract_y
_atom_site_fract_z
Zn1	Zn	-1.185927	-0.644087	-0.198851
Zn2	Zn	-1.171021	-0.782561	-0.043468
Zn3	Zn	-1.049757	-0.605962	-0.081683
Zn4	Zn	-1.048913	-0.764735	-0.223534
O5	O	-1.113905	-0.699336	-0.136884
O6	O	-1.292039	-0.685872	-0.151916
O7	O	-1.149050	-0.750639	0.075856
O8	O	-1.074411	-0.486621	-0.102888
O9	O	-1.281088	-0.787608	-0.037757
O10	O	-1.174455	-0.514631	-0.188971
O11	O	-1.059958	-0.620893	0.047780
O12	O	-0.941555	-0.603608	-0.126823
O13	O	-1.072973	-0.757225	-0.344653
O14	O	-0.940935	-0.720257	-0.231040
O15	O	-1.173636	-0.668586	-0.326518
O16	O	-1.148232	-0.904595	-0.061692
O17	O	-1.058520	-0.891498	-0.193986
C18	C	-0.913219	-0.655862	-0.185757
C19	C	-0.827364	-0.637286	-0.206686
C20	C	-1.101689	-0.930307	-0.126385
C21	C	-1.096535	-1.029135	-0.121906
C22	C	-1.124873	-0.715170	-0.368742
C23	C	-1.129548	-0.721918	-0.467545
C24	C	-0.712056	-0.558234	-0.295697
C25	C	-0.792728	-0.575695	-0.276025
C26	C	-0.781335	-0.681437	-0.156987
C27	C	-0.700659	-0.663981	-0.176646
C28	C	-0.666026	-0.602380	-0.246003
C29	C	-0.654630	-0.708127	-0.126952
C30	C	-0.573962	-0.690676	-0.146613
C31	C	-0.539323	-0.629080	-0.215968
C32	C	-0.585358	-0.584929	-0.265664
C33	C	-0.689265	-0.769733	-0.057600
C34	C	-0.643236	-0.813878	-0.007905
C35	C	-0.562566	-0.796423	-0.027561
C36	C	-0.527927	-0.734827	-0.096917
C37	C	-0.516531	-0.840574	0.022134
C38	C	-0.435863	-0.823123	0.002473
C39	C	-0.447259	-0.717376	-0.116578
C40	C	-0.315374	-0.742966	-0.087813
C41	C	-0.401230	-0.761522	-0.066883
C42	C	-1.126190	-0.467469	-0.147439
C43	C	-1.131425	-0.368661	-0.151936
C44	C	-1.037070	-0.153818	-0.070757
C45	C	-1.041986	-0.060978	-0.074980
C46	C	-1.146170	-0.090139	-0.164613
C47	C	-1.141253	-0.182979	-0.160389
C48	C	-1.086703	-0.214814	-0.113458
C49	C	-1.081791	-0.307656	-0.109229
C50	C	-1.185970	-0.336816	-0.198866
C51	C	-1.190886	-0.243976	-0.203090
C52	C	-1.045541	-0.599491	-0.682450
C53	C	-1.049931	-0.605827	-0.775285
C54	C	-1.142711	-0.740930	-0.746056
C55	C	-1.138322	-0.734593	-0.653220
C56	C	-1.089736	-0.663871	-0.621420
C57	C	-1.085351	-0.657531	-0.528582
C58	C	-1.178127	-0.792637	-0.499355
C59	C	-1.182517	-0.798974	-0.592190
C60	C	-1.103026	-0.683509	0.094079
C61	C	-1.098515	-0.676543	0.192908
H62	H	-0.419059	-0.667203	-0.173046
H63	H	-0.544741	-0.890736	0.078599
H64	H	-1.214117	-0.845058	-0.449653
F65	F	-0.841714	-0.528704	-0.328923
F66	F	-0.989159	0.003938	-0.029534
H67	H	-1.190578	-0.064205	-0.202830
F68	F	-0.386872	-0.870119	0.055353
H69	H	-0.557158	-0.534756	-0.322132
F70	F	-1.238800	-0.401741	-0.244309
F71	F	-1.248935	-0.210083	-0.253041
F72	F	-1.023736	-0.341537	-0.059279
F73	F	-1.033645	-0.582261	-0.494740
H74	H	-1.005988	-0.541899	-0.656557
F75	F	-0.675192	-0.492660	-0.369505
F76	F	-0.979021	-0.187703	-0.020800
F77	F	-1.194405	-0.816200	-0.779917
F78	F	-0.453468	-0.610508	-0.236895
F79	F	-0.818202	-0.746998	-0.083177
H80	H	-0.754950	-0.783925	-0.041581
H81	H	-0.671445	-0.864036	0.048563
F82	F	-1.002890	-0.537307	-0.840236
F83	F	-1.234219	-0.874240	-0.626045
