data_functionalizedCrystal
_audit_creation_method	'MofGen! by Chris Wilmer'
_symmetry_space_group_name_H-M	'P1'
_symmetry_Int_Tables_number	1
_symmetry_cell_setting	triclinic
loop_
_symmetry_equiv_pos_as_xyz
  x,y,z
_cell_length_a	17.699077
_cell_length_b	16.974813
_cell_length_c	16.776229
_cell_angle_alpha	86.338786
_cell_angle_beta	89.993415
_cell_angle_gamma	83.338069
loop_
_atom_site_label
_atom_site_type_symbol
_atom_site_fract_x
_atom_site_fract_y
_atom_site_fract_z
O1	O	1.004154	0.099970	-0.072725
O2	O	1.504154	0.599970	0.427275
O3	O	0.783784	0.112984	-0.073568
O4	O	1.283784	0.612984	0.426432
O5	O	0.900112	-0.008639	-0.065717
O6	O	1.400112	0.491361	0.434283
O7	O	0.887826	0.221592	-0.080577
O8	O	1.387826	0.721592	0.419423
O9	O	0.900096	-0.008646	0.066860
O10	O	1.400096	0.491354	0.566860
O11	O	0.783769	0.112976	0.059009
O12	O	1.283769	0.612976	0.559009
O13	O	1.004138	0.099962	0.059852
O14	O	1.504138	0.599962	0.559852
Zn15	Zn	0.893951	0.106468	0.080480
Zn16	Zn	1.393951	0.606468	0.580480
Zn17	Zn	0.893971	0.106478	-0.094196
Zn18	Zn	1.393971	0.606478	0.405804
O19	O	0.887810	0.221585	0.052000
O20	O	1.387810	0.721585	0.552000
C21	C	0.755579	0.112514	-0.007250
C22	C	1.255579	0.612514	0.492750
C23	C	0.671560	0.111118	-0.007162
C24	C	1.171560	0.611118	0.492838
C25	C	0.632083	0.110456	0.065149
C26	C	1.132083	0.610456	0.565149
C27	C	0.553140	0.109131	0.065236
C28	C	1.053140	0.609131	0.565236
C29	C	0.513673	0.108474	-0.006990
C30	C	1.013673	0.608474	0.493010
C31	C	0.553155	0.109134	-0.079307
C32	C	1.053155	0.609134	0.420693
C33	C	0.632098	0.110453	-0.079392
C34	C	1.132098	0.610453	0.420608
C35	C	0.234788	0.103813	-0.078965
C36	C	0.734788	0.603813	0.421035
C37	C	0.155840	0.102496	-0.078874
C38	C	0.655840	0.602496	0.421126
C39	C	0.155830	0.102491	0.065663
C40	C	0.655830	0.602491	0.565663
C41	C	0.234773	0.103810	0.065578
C42	C	0.734773	0.603810	0.565578
C43	C	0.274248	0.104465	-0.006738
C44	C	0.774248	0.604465	0.493262
C45	C	0.359848	0.105900	-0.006831
C46	C	0.859848	0.605900	0.493169
C47	C	0.428074	0.107045	-0.006899
C48	C	0.928074	0.607045	0.493101
C49	C	0.899637	-0.038100	0.002471
C50	C	1.399637	0.461900	0.502471
C51	C	0.898235	-0.125875	0.008131
C52	C	1.398235	0.374125	0.508131
C53	C	0.897586	-0.167103	-0.061477
C54	C	1.397586	0.332897	0.438523
C55	C	0.896264	-0.249575	-0.056157
C56	C	1.396264	0.250425	0.443843
C57	C	0.895595	-0.290819	0.018773
C58	C	1.395595	0.209181	0.518773
C59	C	0.896242	-0.249585	0.088386
C60	C	1.396242	0.250415	0.588386
C61	C	0.897559	-0.167113	0.083065
C62	C	1.397559	0.332887	0.583065
C63	C	0.891651	-0.537474	0.042437
C64	C	1.391651	-0.037474	0.542437
C65	C	0.890336	-0.619951	0.047754
C66	C	1.390336	-0.119951	0.547754
C67	C	0.890357	-0.619936	-0.096790
C68	C	1.390357	-0.119936	0.403210
C69	C	0.891678	-0.537463	-0.102105
C70	C	1.391678	-0.037463	0.397895
C71	C	0.892321	-0.496236	-0.032491
C72	C	1.392321	0.003764	0.467509
N73	N	0.894246	-0.375120	0.024213
N74	N	1.394246	0.124880	0.524213
N75	N	0.893664	-0.411936	-0.037933
N76	N	1.393664	0.088064	0.462067
C77	C	1.032343	0.100431	-0.006468
C78	C	1.532343	0.600431	0.493532
C79	C	1.116363	0.101828	-0.006562
C80	C	1.616363	0.601828	0.493438
C81	C	0.888286	0.251046	-0.016189
C82	C	1.388286	0.751046	0.483811
C83	C	0.889688	0.338820	-0.021855
C84	C	1.389688	0.838820	0.478145
N85	N	0.893943	0.106461	0.199691
N86	N	1.393943	0.606461	0.699691
N87	N	0.893986	0.106479	-0.213408
N88	N	1.393986	0.606479	0.286592
C89	C	0.945468	0.052628	0.244884
C90	C	1.445468	0.552628	0.744884
C91	C	0.945472	0.052628	0.328336
C92	C	1.445472	0.552628	0.828336
C93	C	0.893954	0.106464	0.366594
C94	C	1.393954	0.606464	0.866594
C95	C	0.842423	0.160299	0.321396
C96	C	1.342423	0.660299	0.821396
C97	C	0.842416	0.160295	0.237945
C98	C	1.342416	0.660295	0.737945
C99	C	0.842450	0.160314	0.657942
C100	C	1.342450	0.660314	1.157942
C101	C	0.842463	0.160316	0.741398
C102	C	1.342463	0.660316	1.241398
C103	C	0.945507	0.052647	0.748332
C104	C	1.445507	0.552647	1.248332
C105	C	0.945500	0.052643	0.664882
C106	C	1.445500	0.552643	1.164882
C107	C	0.893966	0.106475	0.619691
C108	C	1.393966	0.606475	1.119691
C109	C	0.893962	0.106474	0.529203
C110	C	1.393962	0.606474	1.029203
C111	C	0.893962	0.106469	0.457080
C112	C	1.393962	0.606469	0.957080
H113	H	0.664239	0.110994	-0.138275
H114	H	1.164239	0.610994	0.361725
C115	C	0.711354	0.206895	0.344114
C116	C	1.211354	0.706895	0.844114
C117	C	0.785790	0.219472	0.363451
C118	C	1.285790	0.719472	0.863451
H119	H	0.676392	0.243424	0.370082
H120	H	1.176392	0.743424	0.870082
H121	H	0.703979	0.214602	0.287953
H122	H	1.203979	0.714602	0.787953
H123	H	0.703208	0.154130	0.361207
H124	H	1.203208	0.654130	0.861207
H125	H	0.793938	0.272235	0.346352
H126	H	1.293938	0.772235	0.846352
H127	H	0.793168	0.211772	0.419624
H128	H	1.293168	0.711772	0.919624
H129	H	0.521016	0.108593	-0.138114
H130	H	1.021016	0.608593	0.361886
H131	H	0.889833	-0.653512	-0.153465
H132	H	1.389833	-0.153512	0.346535
H133	H	0.889788	-0.653529	0.108773
H134	H	1.389788	-0.153529	0.608773
C135	C	0.894229	-0.376016	0.160724
C136	C	1.394229	0.123984	0.660724
C137	C	0.895514	-0.294919	0.170751
C138	C	1.395514	0.205081	0.670751
H139	H	0.893787	-0.404001	0.211575
H140	H	1.393787	0.095999	0.711575
H141	H	0.849903	-0.383414	0.131516
H142	H	1.349903	0.116586	0.631516
H143	H	0.938133	-0.395632	0.132292
H144	H	1.438133	0.104368	0.632292
H145	H	0.851606	-0.275301	0.199178
H146	H	1.351606	0.224699	0.699178
H147	H	0.939844	-0.287516	0.199972
H148	H	1.439844	0.212484	0.699972
C149	C	0.267654	0.036259	0.193132
C150	C	0.767654	0.536259	0.693132
C151	C	0.278155	0.104528	0.144970
C152	C	0.778155	0.604528	0.644970
H153	H	0.294440	0.036699	0.242144
H154	H	0.794440	0.536699	0.742144
H155	H	0.214995	0.035385	0.203530
H156	H	0.714995	0.535385	0.703530
H157	H	0.286419	-0.009608	0.166386
H158	H	0.786419	0.490392	0.666386
H159	H	0.259385	0.150395	0.171713
H160	H	0.759385	0.650395	0.671713
H161	H	0.330825	0.105409	0.134573
H162	H	0.830825	0.605409	0.634573
H163	H	0.895739	-0.283140	-0.112839
H164	H	1.395739	0.216860	0.387161
H165	H	0.892224	-0.503888	-0.163120
H166	H	1.392224	-0.003888	0.336880
H167	H	0.987428	0.008793	0.365131
H168	H	1.487428	0.508793	0.865131
H169	H	0.898076	-0.133545	0.139747
H170	H	1.398076	0.366455	0.639747
H171	H	0.800508	0.204157	0.772546
H172	H	1.300508	0.704157	1.272546
C173	C	0.891540	-0.545791	0.185844
C174	C	1.391540	-0.045791	0.685844
C175	C	0.892388	-0.492168	0.118956
C176	C	1.392388	0.007832	0.618956
H177	H	0.892008	-0.517818	0.233085
H178	H	1.392008	-0.017818	0.733085
H179	H	0.846909	-0.571832	0.184532
H180	H	1.346909	-0.071832	0.684532
H181	H	0.935139	-0.584081	0.185284
H182	H	1.435139	-0.084081	0.685284
H183	H	0.848787	-0.453881	0.119513
H184	H	1.348787	0.046119	0.619513
H185	H	0.937024	-0.466113	0.120269
H186	H	1.437024	0.033887	0.620269
C187	C	0.796686	0.208132	0.526946
C188	C	1.296686	0.708132	1.026946
C189	C	0.785818	0.219498	0.608273
C190	C	1.285818	0.719498	1.108273
H191	H	0.761721	0.244672	0.496282
H192	H	1.261721	0.744672	0.996282
H193	H	0.847181	0.216645	0.512714
H194	H	1.347181	0.716645	1.012714
H195	H	0.788511	0.155372	0.516686
H196	H	1.288511	0.655372	1.016686
H197	H	0.793998	0.272257	0.618534
H198	H	1.293998	0.772257	1.118534
H199	H	0.735310	0.210991	0.622511
H200	H	1.235310	0.710991	1.122511
C201	C	0.034813	0.100452	0.129986
C202	C	0.534813	0.600452	0.629986
C203	C	0.112437	0.101756	0.145157
C204	C	0.612437	0.601756	0.645157
H205	H	0.008028	0.099995	0.179062
H206	H	0.508028	0.599995	0.679062
H207	H	0.016057	0.146326	0.097337
H208	H	0.516057	0.646326	0.597337
H209	H	0.027711	0.054142	0.103281
H210	H	0.527711	0.554142	0.603281
H211	H	0.119540	0.148070	0.171857
H212	H	0.619540	0.648070	0.671857
H213	H	0.131200	0.055878	0.177819
H214	H	0.631200	0.555878	0.677819
H215	H	0.898134	-0.133528	-0.122493
H216	H	1.398134	0.366472	0.377507
H217	H	0.123708	0.101960	-0.137693
H218	H	0.623708	0.601960	0.362307
H219	H	0.800458	0.204130	0.201150
H220	H	1.300458	0.704130	0.701150
C221	C	0.226857	0.103686	-0.221827
C222	C	0.726857	0.603686	0.278173
C223	C	0.278173	0.104537	-0.158453
C224	C	0.778173	0.604537	0.341547
H225	H	0.253644	0.104138	-0.270902
H226	H	0.753644	0.604138	0.229098
H227	H	0.201888	0.057085	-0.215809
H228	H	0.701888	0.557085	0.284191
H229	H	0.190244	0.149269	-0.221756
H230	H	0.690244	0.649269	0.278244
H231	H	0.314782	0.058951	-0.158521
H232	H	0.814782	0.558951	0.341479
H233	H	0.303155	0.151143	-0.164474
H234	H	0.803155	0.651143	0.335526
H235	H	0.987424	0.008792	0.213739
H236	H	1.487424	0.508792	0.713739
C237	C	0.472961	0.039683	0.153579
C238	C	0.972961	0.539683	0.653579
C239	C	0.509756	0.108394	0.144727
C240	C	1.009756	0.608394	0.644727
H241	H	0.446184	0.039223	0.202660
H242	H	0.946184	0.539223	0.702660
H243	H	0.438156	0.039108	0.110587
H244	H	0.938156	0.539108	0.610587
H245	H	0.509593	-0.005884	0.153506
H246	H	1.009593	0.494116	0.653506
H247	H	0.473123	0.153961	0.144795
H248	H	0.973123	0.653961	0.644795
H249	H	0.544564	0.108976	0.187731
H250	H	1.044564	0.608976	0.687731
H251	H	0.987453	0.008807	0.633735
H252	H	1.487453	0.508807	1.133735
C253	C	0.962060	-0.054995	0.849129
C254	C	1.462060	0.445005	1.349129
C255	C	1.002147	-0.006537	0.798010
C256	C	1.502147	0.493463	1.298010
H257	H	0.997028	-0.091533	0.879792
H258	H	1.497028	0.408467	1.379792
H259	H	0.931386	-0.022934	0.883853
H260	H	1.431386	0.477066	1.383853
H261	H	0.930589	-0.083394	0.818406
H262	H	1.430589	0.416606	1.318406
H263	H	1.033614	0.021867	0.828733
H264	H	1.533614	0.521867	1.328733
H265	H	1.032834	-0.038602	0.763282
H266	H	1.532834	0.461398	1.263282
H267	H	0.664210	0.110997	0.123964
H268	H	1.164210	0.610997	0.623964
