data_functionalizedCrystal
_audit_creation_method	'MofGen! by Chris Wilmer'
_symmetry_space_group_name_H-M	'P1'
_symmetry_Int_Tables_number	1
_symmetry_cell_setting	triclinic
loop_
_symmetry_equiv_pos_as_xyz
  x,y,z
_cell_length_a	19.805407
_cell_length_b	18.215405
_cell_length_c	18.215399
_cell_angle_alpha	90.030551
_cell_angle_beta	89.979366
_cell_angle_gamma	89.975115
loop_
_atom_site_label
_atom_site_type_symbol
_atom_site_fract_x
_atom_site_fract_y
_atom_site_fract_z
Zn1	Zn	1.034750	0.292992	-0.416118
Zn2	Zn	1.034666	0.416063	-0.293046
Zn3	Zn	0.921562	0.293015	-0.293064
Zn4	Zn	0.921531	0.416021	-0.416070
O5	O	0.978127	0.354523	-0.354575
O6	O	1.129455	0.309325	-0.399806
O7	O	1.019640	0.399768	-0.190064
O8	O	0.936625	0.190028	-0.309415
O9	O	1.129393	0.399745	-0.309385
O10	O	1.019784	0.190011	-0.399823
O11	O	0.936544	0.309365	-0.190077
O12	O	0.826842	0.309324	-0.309368
O13	O	0.936572	0.399674	-0.519060
O14	O	0.826819	0.399696	-0.399740
O15	O	1.019753	0.309285	-0.519096
O16	O	1.019610	0.519042	-0.309338
O17	O	0.936490	0.519011	-0.399723
C18	C	0.978056	0.545729	-0.354539
C19	C	0.978087	0.627528	-0.354549
C20	C	0.802271	0.354509	-0.354551
C21	C	0.727039	0.354520	-0.354558
C22	C	0.978169	0.354472	-0.546528
C23	C	0.978186	0.354450	-0.628327
C24	C	0.691701	0.401648	-0.401538
C25	C	0.621012	0.401649	-0.401549
C26	C	0.585664	0.354526	-0.354575
C27	C	0.621007	0.307393	-0.307592
C28	C	0.691694	0.307389	-0.307586
C29	C	0.335934	0.307410	-0.307616
C30	C	0.265242	0.307419	-0.307625
C31	C	0.265252	0.401670	-0.401579
C32	C	0.335939	0.401666	-0.401573
C33	C	0.371276	0.354530	-0.354594
C34	C	0.447925	0.354529	-0.354584
C35	C	0.509017	0.354531	-0.354580
C36	C	1.154670	0.354537	-0.354599
C37	C	1.229902	0.354544	-0.354609
C38	C	0.978217	0.162570	-0.354626
C39	C	0.978256	0.080771	-0.354648
C40	C	1.021469	0.815713	-0.307572
C41	C	1.021499	0.892572	-0.307590
C42	C	0.934872	0.892580	-0.401630
C43	C	0.934846	0.815723	-0.401615
C44	C	0.978143	0.777291	-0.354582
C45	C	0.978200	0.931007	-0.354615
C46	C	0.978232	1.014341	-0.354634
C47	C	0.978112	0.693952	-0.354563
C48	C	1.021514	0.307341	-0.816540
C49	C	1.021522	0.307319	-0.893399
C50	C	0.934906	0.401446	-0.893351
C51	C	0.934895	0.401463	-0.816493
C52	C	0.978203	0.354412	-0.778090
C53	C	0.978222	0.354373	-0.931806
C54	C	0.978230	0.354350	-1.015140
C55	C	0.978194	0.354433	-0.694751
C56	C	0.978125	0.354520	-0.163368
C57	C	0.978239	0.354334	-0.081570
H58	H	0.720477	0.440024	-0.439788
O59	O	0.888102	0.774281	-0.452315
H60	H	0.899672	0.788983	-0.510090
H61	H	0.899621	0.439794	-0.785186
H62	H	1.056726	0.784424	-0.269276
H63	H	0.899620	0.923880	-0.439922
H64	H	0.364697	0.269035	-0.269357
H65	H	1.056790	0.268988	-0.924702
O66	O	1.068217	0.256590	-0.775116
H67	H	1.098331	0.223850	-0.814769
O68	O	1.068238	0.934010	-0.256891
H69	H	1.060993	0.993911	-0.264810
O70	O	0.888197	0.452195	-0.934770
H71	H	0.895484	0.444280	-0.994674
H72	H	0.364717	0.440041	-0.439822
O73	O	0.582895	0.452620	-0.452079
H74	H	0.619350	0.485444	-0.484683
O75	O	0.227164	0.452530	-0.452257
H76	H	0.194987	0.419671	-0.489789
O77	O	0.227111	0.256585	-0.256964
H78	H	0.263558	0.223802	-0.224301
H79	H	0.720466	0.269009	-0.269334
H80	H	0.592221	0.269022	-0.269348
