data_functionalizedCrystal
_audit_creation_method	'MofGen! by Chris Wilmer'
_symmetry_space_group_name_H-M	'P1'
_symmetry_Int_Tables_number	1
_symmetry_cell_setting	triclinic
loop_
_symmetry_equiv_pos_as_xyz
  x,y,z
_cell_length_a	12.759401
_cell_length_b	17.637651
_cell_length_c	12.759393
_cell_angle_alpha	78.749835
_cell_angle_beta	89.980875
_cell_angle_gamma	101.218910
loop_
_atom_site_label
_atom_site_type_symbol
_atom_site_fract_x
_atom_site_fract_y
_atom_site_fract_z
Zn1	Zn	1.521687	-0.314730	-0.509324
Zn2	Zn	1.486049	-0.446968	-0.298067
Zn3	Zn	1.345979	-0.314770	-0.333651
Zn4	Zn	1.310462	-0.446906	-0.473723
O5	O	1.416044	-0.380844	-0.403691
O6	O	1.663979	-0.332281	-0.481307
O7	O	1.467418	-0.429475	-0.155754
O8	O	1.399065	-0.204123	-0.386745
O9	O	1.637795	-0.429436	-0.326098
O10	O	1.528158	-0.204094	-0.515812
O11	O	1.364508	-0.332349	-0.181898
O12	O	1.194249	-0.332289	-0.352224
O13	O	1.338533	-0.429330	-0.625478
O14	O	1.168155	-0.429369	-0.455135
O15	O	1.493719	-0.332221	-0.651634
O16	O	1.432979	-0.557602	-0.291577
O17	O	1.303976	-0.557556	-0.420631
C18	C	1.143082	-0.380827	-0.403678
C19	C	1.026302	-0.380839	-0.403693
C20	C	0.875284	-0.330240	-0.350249
C21	C	0.985013	-0.330224	-0.350243
C22	C	0.957857	-0.431469	-0.457160
C23	C	0.848132	-0.431481	-0.457172
C24	C	0.834000	-0.279627	-0.296787
C25	C	0.902438	-0.228996	-0.243321
C26	C	1.012166	-0.228980	-0.243315
C27	C	1.053457	-0.279594	-0.296775
C28	C	1.360785	-0.586267	-0.348402
C29	C	1.337241	-0.674148	-0.324784
C30	C	1.595590	-0.962806	-0.583444
C31	C	1.573433	-1.045384	-0.561233
C32	C	1.439099	-1.045522	-0.426706
C33	C	1.461248	-0.962943	-0.448902
C34	C	1.539494	-0.921591	-0.527273
C35	C	1.405151	-0.921728	-0.392731
C36	C	1.427295	-0.839156	-0.414929
C37	C	1.505535	-0.797799	-0.493299
C38	C	1.561637	-0.839019	-0.549471
C39	C	1.326901	-0.963081	-0.314366
C40	C	1.270804	-0.921866	-0.258195
C41	C	1.292953	-0.839292	-0.280388
C42	C	1.371193	-0.797935	-0.358757
C43	C	1.236851	-0.798072	-0.224215
C44	C	1.258995	-0.715500	-0.246414
C45	C	1.393337	-0.715363	-0.380955
C46	C	1.690073	-0.380861	-0.403704
C47	C	1.806848	-0.380868	-0.403710
C48	C	1.416139	-0.380764	-0.677746
C49	C	1.416180	-0.380730	-0.794532
C50	C	1.471549	-0.174618	-0.459219
C51	C	1.495201	-0.086737	-0.482882
C52	C	1.496996	-0.330160	-0.863016
C53	C	1.497029	-0.330132	-0.972748
C54	C	1.335424	-0.431249	-0.945500
C55	C	1.335389	-0.431273	-0.835771
C56	C	1.577787	-0.279617	-0.821777
C57	C	1.658611	-0.229044	-0.890263
C58	C	1.658643	-0.229015	-0.999995
C59	C	1.577853	-0.279560	-1.041241
C60	C	1.416026	-0.380866	-0.130718
C61	C	1.416249	-0.380677	-0.013992
H62	H	1.067887	-0.187748	-0.199789
H63	H	1.577876	-0.279523	-1.130596
H64	H	0.868812	-0.187783	-0.199803
H65	H	1.173136	-0.831752	-0.160413
F66	F	1.633150	-1.089245	-0.621019
H67	H	0.991486	-0.472677	-0.500685
F68	F	1.744577	-0.175243	-0.846366
H69	H	1.207094	-0.955545	-0.194388
H70	H	0.792409	-0.472704	-0.500709
H71	H	1.269568	-0.472439	-0.780012
F72	F	1.476627	-0.671349	-0.464355
F73	F	1.303458	-1.050962	-0.290619
H74	H	1.659314	-0.929137	-0.647253
H75	H	1.213314	-0.681942	-0.200674
H76	H	1.577772	-0.279636	-0.732429
H77	H	1.523564	-0.730563	-0.511370
H78	H	1.724447	-0.187830	-1.055755
H79	H	1.269648	-0.472400	-0.979092
H80	H	0.744655	-0.279637	-0.296784
H81	H	1.375388	-1.079202	-0.362899
F82	F	1.170243	-0.279570	-0.296772
H83	H	1.625361	-0.805350	-0.613281
