data_functionalizedCrystal
_audit_creation_method	'MofGen! by Chris Wilmer'
_symmetry_space_group_name_H-M	'P1'
_symmetry_Int_Tables_number	1
_symmetry_cell_setting	triclinic
loop_
_symmetry_equiv_pos_as_xyz
  x,y,z
_cell_length_a	9.065215
_cell_length_b	13.596369
_cell_length_c	9.065218
_cell_angle_alpha	90.004126
_cell_angle_beta	85.015291
_cell_angle_gamma	90.004765
loop_
_atom_site_label
_atom_site_type_symbol
_atom_site_fract_x
_atom_site_fract_y
_atom_site_fract_z
O1	O	1.960405	0.081776	0.216339
O2	O	2.460405	0.581776	0.716339
O3	O	1.531120	0.081780	0.234090
O4	O	2.031120	0.581780	0.734090
O5	O	1.754636	0.081776	0.010572
O6	O	2.254636	0.581776	0.510572
O7	O	1.736890	0.081780	0.439857
O8	O	2.236890	0.581780	0.939857
O9	O	1.754613	-0.081807	0.010560
O10	O	2.254613	0.418193	0.510560
O11	O	1.531097	-0.081803	0.234078
O12	O	2.031097	0.418197	0.734078
O13	O	1.960383	-0.081807	0.216327
O14	O	2.460383	0.418193	0.716327
Zn15	Zn	1.745736	-0.107778	0.225200
Zn16	Zn	2.245736	0.392222	0.725200
Zn17	Zn	1.745766	0.107750	0.225216
Zn18	Zn	2.245766	0.607750	0.725216
O19	O	1.736867	-0.081803	0.439845
O20	O	2.236867	0.418197	0.939845
C21	C	1.476122	-0.000011	0.232379
C22	C	1.976122	0.499989	0.732379
C23	C	1.312279	-0.000010	0.227281
C24	C	1.812279	0.499990	0.727281
N25	N	1.745727	-0.254869	0.225188
N26	N	2.245727	0.245131	0.725188
C27	C	1.745764	-0.656160	0.225218
C28	C	2.245764	-0.156160	0.725218
C29	C	1.745750	-0.544509	0.225215
C30	C	2.245750	-0.044509	0.725215
C31	C	1.745746	-0.455518	0.225204
C32	C	2.245746	0.044482	0.725204
C33	C	1.745730	-0.343860	0.225199
C34	C	2.245730	0.156140	0.725199
C35	C	2.015381	-0.000014	0.218038
C36	C	2.515381	0.499986	0.718038
C37	C	2.179224	-0.000009	0.223136
C38	C	2.679224	0.499991	0.723136
C39	C	1.752919	-0.000014	-0.044421
C40	C	2.252919	0.499986	0.455579
C41	C	1.747819	-0.000010	-0.208264
C42	C	2.247819	0.499990	0.291736
N43	N	1.745788	0.254842	0.225217
N44	N	2.245788	0.754842	0.725217
C45	C	1.738584	-0.000011	0.494837
C46	C	2.238584	0.499989	0.994837
C47	C	1.743683	-0.000009	0.658680
C48	C	2.243683	0.499991	1.158680
