data_functionalizedCrystal
_audit_creation_method	'MofGen! by Chris Wilmer'
_symmetry_space_group_name_H-M	'P1'
_symmetry_Int_Tables_number	1
_symmetry_cell_setting	triclinic
loop_
_symmetry_equiv_pos_as_xyz
  x,y,z
_cell_length_a	12.594517
_cell_length_b	12.594516
_cell_length_c	16.120297
_cell_angle_alpha	87.123207
_cell_angle_beta	87.112004
_cell_angle_gamma	90.014059
loop_
_atom_site_label
_atom_site_type_symbol
_atom_site_fract_x
_atom_site_fract_y
_atom_site_fract_z
Zn1	Zn	1.596736	-0.454388	0.471204
Zn2	Zn	2.096736	0.045612	0.971204
Zn3	Zn	1.605648	-0.623357	0.331803
Zn4	Zn	2.105648	-0.123357	0.831803
Zn5	Zn	1.427766	-0.445382	0.331829
Zn6	Zn	1.927766	0.054618	0.831829
Zn7	Zn	1.418716	-0.632311	0.471193
Zn8	Zn	1.918716	-0.132311	0.971193
O9	O	1.512216	-0.538860	0.401507
O10	O	2.012216	-0.038860	0.901507
O11	O	1.746864	-0.476824	0.452706
O12	O	2.246864	0.023176	0.952706
O13	O	1.589568	-0.592232	0.215142
O14	O	2.089568	-0.092232	0.715142
O15	O	1.450238	-0.297632	0.350334
O16	O	1.950238	0.202368	0.850334
O17	O	1.753412	-0.600965	0.350288
O18	O	2.253412	-0.100965	0.850288
O19	O	1.574379	-0.304249	0.452732
O20	O	2.074379	0.195751	0.952732
O21	O	1.458879	-0.461474	0.215162
O22	O	1.958879	0.038526	0.715162
O23	O	1.277619	-0.470157	0.350323
O24	O	1.777619	0.029843	0.850323
O25	O	1.434814	-0.616226	0.587859
O26	O	1.934814	-0.116226	1.087859
O27	O	1.270970	-0.607493	0.452713
O28	O	1.770970	-0.107493	0.952713
O29	O	1.565604	-0.485507	0.587867
O30	O	2.065604	0.014493	1.087867
O31	O	1.580793	-0.773490	0.350277
O32	O	2.080793	-0.273490	0.850277
O33	O	1.443456	-0.780068	0.452687
O34	O	1.943456	-0.280068	0.952687
C35	C	1.235675	-0.538820	0.401520
C36	C	1.735675	-0.038820	0.901520
C37	C	1.117368	-0.538830	0.401545
C38	C	1.617368	-0.038830	0.901545
C39	C	1.044536	-0.613660	0.457127
C40	C	1.544536	-0.113660	0.957127
C41	C	0.972403	-0.517944	0.477630
C42	C	1.472403	-0.017944	0.977630
C43	C	0.978703	-0.634625	0.381024
C44	C	1.478703	-0.134625	0.881024
C45	C	1.046791	-0.443065	0.422088
C46	C	1.546791	0.056935	0.922088
C47	C	1.053098	-0.559810	0.325446
C48	C	1.553098	-0.059810	0.825446
C49	C	0.980999	-0.464025	0.345920
C50	C	1.480999	0.035975	0.845920
C51	C	1.512137	-0.815400	0.401496
C52	C	2.012137	-0.315400	0.901496
C53	C	1.512199	-0.933707	0.401519
C54	C	2.012199	-0.433707	0.901519
C55	C	1.437561	-1.077339	0.457191
C56	C	1.937561	-0.577339	0.957191
C57	C	1.533272	-1.007760	0.477633
C58	C	2.033272	-0.507760	0.977633
C59	C	1.416495	-1.001716	0.381114
C60	C	1.916495	-0.501716	0.881114
C61	C	1.608131	-1.074918	0.422031
C62	C	2.108131	-0.574918	0.922031
C63	C	1.491291	-1.068878	0.325477
C64	C	1.991291	-0.568878	0.825477
C65	C	1.587071	-0.999330	0.345890
C66	C	2.087071	-0.499330	0.845890
C67	C	1.789838	-0.538900	0.401495
C68	C	2.289838	-0.038900	0.901495
C69	C	1.908144	-0.538917	0.401490
C70	C	2.408144	-0.038917	0.901490
C71	C	1.498206	-0.552870	0.618958
C72	C	1.998206	-0.052870	1.118958
C73	C	1.492235	-0.558840	0.711623
C74	C	1.992235	-0.058840	1.211623
C75	C	1.512324	-0.261241	0.401537
C76	C	2.012324	0.238759	0.901537
C77	C	1.512370	-0.142936	0.401550
C78	C	2.012370	0.357064	0.901550
C79	C	1.526234	-0.524827	0.184902
C80	C	2.026234	-0.024827	0.684902
C81	C	1.532411	-0.518557	0.092238
C82	C	2.032411	-0.018557	0.592238
C83	C	1.481295	-0.569717	0.881283
C84	C	1.981295	-0.069717	1.381283
C85	C	1.543348	-0.507684	0.922584
C86	C	2.043348	-0.007684	1.422584
C87	C	1.537261	-0.513736	1.016988
C88	C	2.037261	-0.013736	1.516988
C89	C	1.487381	-0.563666	0.786870
C90	C	1.987381	-0.063666	1.286870
H91	H	0.937121	-0.500228	0.541962
H92	H	1.437121	-0.000228	1.041962
H93	H	1.650331	-0.965392	0.298822
H94	H	2.150331	-0.465392	0.798822
H95	H	1.689158	-1.106906	0.439376
H96	H	2.189158	-0.606906	0.939376
H97	H	1.601043	-0.450030	0.887042
H98	H	2.101043	0.049970	1.387042
Br99	Br	1.332358	-1.134239	0.535695
Br100	Br	1.832358	-0.634239	1.035695
H101	H	1.423604	-0.627366	0.916822
H102	H	1.923604	-0.127366	1.416822
Br103	Br	1.461637	-1.113936	0.218302
Br104	Br	1.961637	-0.613936	0.718302
Br105	Br	1.091229	-0.718951	0.535565
Br106	Br	1.591229	-0.218951	1.035565
H107	H	0.953181	-0.400712	0.298893
H108	H	1.453181	0.099288	0.798893
Br109	Br	1.096483	-0.308065	0.451100
Br110	Br	1.596483	0.191935	0.951100
Br111	Br	1.111902	-0.589362	0.218233
Br112	Br	1.611902	-0.089362	0.718233
H113	H	1.551035	-0.980754	0.541953
H114	H	2.051035	-0.480754	1.041953
Br115	Br	1.281479	-0.948186	0.352328
Br116	Br	1.781479	-0.448186	0.852328
Br117	Br	0.928771	-0.769588	0.352132
Br118	Br	1.428771	-0.269588	0.852132
