data_functionalizedCrystal
_audit_creation_method	'MofGen! by Chris Wilmer'
_symmetry_space_group_name_H-M	'P1'
_symmetry_Int_Tables_number	1
_symmetry_cell_setting	triclinic
loop_
_symmetry_equiv_pos_as_xyz
  x,y,z
_cell_length_a	12.594517
_cell_length_b	19.121747
_cell_length_c	12.594509
_cell_angle_alpha	87.591360
_cell_angle_beta	90.022214
_cell_angle_gamma	87.590789
loop_
_atom_site_label
_atom_site_type_symbol
_atom_site_fract_x
_atom_site_fract_y
_atom_site_fract_z
Zn1	Zn	1.645232	-0.279581	0.619940
Zn2	Zn	1.652670	-0.397035	0.449547
Zn3	Zn	1.467238	-0.279610	0.441968
Zn4	Zn	1.474762	-0.396986	0.627471
O5	O	1.559975	-0.338303	0.534731
O6	O	1.795165	-0.295170	0.597357
O7	O	1.628036	-0.381492	0.299598
O8	O	1.484587	-0.181330	0.459253
O9	O	1.800630	-0.381463	0.472170
O10	O	1.615359	-0.181308	0.590009
O11	O	1.491800	-0.295220	0.294030
O12	O	1.319289	-0.295172	0.466555
O13	O	1.497411	-0.381379	0.775416
O14	O	1.324818	-0.381407	0.602843
O15	O	1.622655	-0.295122	0.769883
O16	O	1.635332	-0.495305	0.479472
O17	O	1.504624	-0.495269	0.610192
C18	C	1.283433	-0.338288	0.534695
C19	C	1.165129	-0.338298	0.534705
C20	C	1.022071	-0.291344	0.460738
C21	C	1.091830	-0.274232	0.556759
C22	C	1.096939	-0.355378	0.438693
C23	C	1.024102	-0.321182	0.630856
C24	C	1.029207	-0.402357	0.512726
C25	C	1.098935	-0.385270	0.608816
C26	C	1.571630	-0.520769	0.546495
C27	C	1.576714	-0.598829	0.551563
C28	C	1.608962	-1.040316	0.583665
C29	C	1.604173	-0.966970	0.578894
C30	C	1.533748	-0.930375	0.508385
C31	C	1.468114	-0.967129	0.442637
C32	C	1.472908	-1.040473	0.447403
C33	C	1.515874	-0.708927	0.490580
C34	C	1.511082	-0.635578	0.485821
C35	C	1.647144	-0.635424	0.622077
C36	C	1.651927	-0.708770	0.626842
C37	C	1.586297	-0.745517	0.561089
C38	C	1.528850	-0.855404	0.503509
C39	C	1.591202	-0.820487	0.565961
C40	C	1.837597	-0.338319	0.534769
C41	C	1.955903	-0.338326	0.534785
C42	C	1.560043	-0.338242	0.812348
C43	C	1.560071	-0.338215	0.930652
C44	C	1.548304	-0.155124	0.522946
C45	C	1.543330	-0.077065	0.517923
C46	C	1.559966	-0.338314	0.258191
C47	C	1.560131	-0.338142	0.139875
C48	C	1.491972	-0.385104	1.002913
C49	C	1.590195	-0.402264	1.074813
C50	C	1.461921	-0.321013	1.069549
C51	C	1.658348	-0.355409	1.000996
C52	C	1.530006	-0.274129	0.995724
C53	C	1.628295	-0.291264	1.067590
H54	H	1.666299	-1.070106	0.641091
N55	N	1.435123	-0.596114	0.409756
H56	H	1.476419	-0.565678	0.358499
H57	H	1.383798	-0.565736	0.451063
N58	N	1.392164	-0.927656	0.366584
H59	H	1.340828	-0.897237	0.407818
H60	H	1.351388	-0.962109	0.325672
N61	N	0.992552	-0.474080	0.488017
H62	H	1.019024	-0.486930	0.415406
H63	H	0.912341	-0.473615	0.488984
H64	H	1.132389	-0.424990	0.671470
N65	N	1.674958	-0.927337	0.649808
H66	H	1.629686	-0.896908	0.697111
H67	H	1.722310	-0.896938	0.604550
H68	H	0.992269	-0.306684	0.712105
H69	H	1.462433	-0.738838	0.437040
N70	N	1.402126	-1.080113	0.376492
H71	H	1.356783	-1.045802	0.331102
H72	H	1.354837	-1.110557	0.421748
H73	H	1.378892	-0.306494	1.099700
N74	N	1.717939	-0.595788	0.692977
H75	H	1.763282	-0.630100	0.738364
H76	H	1.672605	-0.565360	0.740221
N77	N	1.667143	-0.859963	0.642013
H78	H	1.649726	-0.847174	0.717215
H79	H	1.742342	-0.847151	0.624645
H80	H	1.471506	-0.825602	0.446102
H81	H	1.504517	-0.219979	0.961098
H82	H	1.741405	-0.369990	0.970980
H83	H	1.615657	-0.456429	1.109416
H84	H	1.709288	-0.738561	0.684245
N85	N	1.415755	-0.437702	0.965156
H86	H	1.438633	-0.486073	0.994040
H87	H	1.415805	-0.436981	0.884928
H88	H	1.128900	-0.369812	0.357463
N89	N	0.977477	-0.238699	0.377934
H90	H	1.005075	-0.251094	0.305527
H91	H	1.000155	-0.190352	0.394804
N92	N	1.128449	-0.202493	0.581448
H93	H	1.100412	-0.167045	0.525506
H94	H	1.208676	-0.203193	0.581941
N95	N	1.704698	-0.238706	1.105107
H96	H	1.778803	-0.251765	1.080073
H97	H	1.703748	-0.238710	1.185292
