data_functionalizedCrystal
_audit_creation_method	'MofGen! by Chris Wilmer'
_symmetry_space_group_name_H-M	'P1'
_symmetry_Int_Tables_number	1
_symmetry_cell_setting	triclinic
loop_
_symmetry_equiv_pos_as_xyz
  x,y,z
_cell_length_a	21.395362
_cell_length_b	25.639239
_cell_length_c	21.395355
_cell_angle_alpha	90.019334
_cell_angle_beta	90.043940
_cell_angle_gamma	90.054564
loop_
_atom_site_label
_atom_site_type_symbol
_atom_site_fract_x
_atom_site_fract_y
_atom_site_fract_z
Zn1	Zn	0.957825	-0.207990	0.354582
Zn2	Zn	1.457825	0.292010	0.854582
Zn3	Zn	0.957713	-0.295409	0.249803
Zn4	Zn	1.457713	0.204591	0.749803
Zn5	Zn	0.853040	-0.208014	0.249783
Zn6	Zn	1.353040	0.291986	0.749783
Zn7	Zn	0.852994	-0.295420	0.354508
Zn8	Zn	1.352994	0.204580	0.854508
O9	O	0.905393	-0.251708	0.302169
O10	O	1.405393	0.248292	0.802169
O11	O	1.045488	-0.219571	0.340722
O12	O	1.545488	0.280429	0.840722
O13	O	0.943800	-0.283822	0.162122
O14	O	1.443800	0.216178	0.662122
O15	O	0.867006	-0.134846	0.263708
O16	O	1.367006	0.365154	0.763708
O17	O	1.045405	-0.283798	0.263742
O18	O	1.545405	0.216202	0.763742
O19	O	0.943991	-0.134828	0.340703
O20	O	1.443991	0.365172	0.840703
O21	O	0.866897	-0.219613	0.162108
O22	O	1.366897	0.280387	0.662108
O23	O	0.765356	-0.219623	0.263636
O24	O	1.265356	0.280377	0.763636
O25	O	0.866928	-0.283817	0.442196
O26	O	1.366928	0.216183	0.942196
O27	O	0.765322	-0.283840	0.340576
O28	O	1.265322	0.216160	0.840576
O29	O	0.943947	-0.219582	0.442250
O30	O	1.443947	0.280418	0.942250
O31	O	0.943756	-0.368576	0.263669
O32	O	1.443756	0.131424	0.763669
O33	O	0.866820	-0.368584	0.340596
O34	O	1.366820	0.131416	0.840596
C35	C	0.742605	-0.251736	0.302096
C36	C	1.242605	0.248264	0.802096
C37	C	0.672964	-0.251760	0.302080
C38	C	1.172964	0.248240	0.802080
C39	C	0.905288	-0.387551	0.302140
C40	C	1.405288	0.112449	0.802140
C41	C	0.905300	-0.445665	0.302149
C42	C	1.405300	0.054335	0.802149
C43	C	0.640250	-0.285243	0.342083
C44	C	1.140250	0.214757	0.842083
C45	C	0.574814	-0.285230	0.342111
C46	C	1.074814	0.214770	0.842111
C47	C	0.542096	-0.251740	0.302125
C48	C	1.042096	0.248260	0.802125
C49	C	0.574818	-0.218252	0.262119
C50	C	1.074818	0.281748	0.762119
C51	C	0.640252	-0.218262	0.262097
C52	C	1.140252	0.281738	0.762097
C53	C	0.438372	-0.247528	0.245720
C54	C	0.938372	0.252472	0.745720
C55	C	0.372939	-0.247522	0.245741
C56	C	0.872939	0.252478	0.745741
C57	C	0.340275	-0.251706	0.302194
C58	C	0.840275	0.248294	0.802194
C59	C	0.373052	-0.255908	0.358627
C60	C	0.873052	0.244092	0.858627
C61	C	0.438486	-0.255918	0.358605
C62	C	0.938486	0.244082	0.858605
C63	C	0.471143	-0.251725	0.302145
C64	C	0.971143	0.248275	0.802145
C65	C	0.236608	-0.285176	0.342231
C66	C	0.736608	0.214824	0.842231
C67	C	0.171172	-0.285160	0.342260
C68	C	0.671172	0.214840	0.842260
C69	C	0.171176	-0.218185	0.262262
C70	C	0.671176	0.281815	0.762262
C71	C	0.236612	-0.218198	0.262239
C72	C	0.736612	0.281802	0.762239
C73	C	0.269324	-0.251697	0.302222
C74	C	0.769324	0.248303	0.802222
C75	C	0.945558	-0.806011	0.262182
C76	C	1.445558	-0.306011	0.762182
C77	C	0.945582	-0.860616	0.262190
C78	C	1.445582	-0.360616	0.762190
O79	O	0.979702	-0.888838	0.228177
O80	O	1.479702	-0.388838	0.728177
N81	N	0.905503	-0.887947	0.302211
N82	N	1.405503	-0.387947	0.802211
C83	C	0.865401	-0.860672	0.342230
C84	C	1.365401	-0.360672	0.842230
O85	O	0.831313	-0.888934	0.376271
O86	O	1.331313	-0.388934	0.876271
C87	C	0.865381	-0.806069	0.342224
C88	C	1.365381	-0.306069	0.842224
C89	C	0.905458	-0.778740	0.302196
C90	C	1.405458	-0.278740	0.802196
C91	C	0.985633	-0.778682	0.222158
C92	C	1.485633	-0.278682	0.722158
C93	C	0.985608	-0.724082	0.222149
C94	C	1.485608	-0.224082	0.722149
C95	C	0.945508	-0.696810	0.262164
C96	C	1.445508	-0.196810	0.762164
C97	C	0.905433	-0.724139	0.302187
C98	C	1.405433	-0.224139	0.802187
C99	C	0.825282	-0.778794	0.382246
C100	C	1.325282	-0.278794	0.882246
C101	C	0.825266	-0.724187	0.382237
C102	C	1.325266	-0.224187	0.882237
C103	C	0.865343	-0.696858	0.342209
C104	C	1.365343	-0.196858	0.842209
C105	C	0.865308	-0.642267	0.342193
C106	C	1.365308	-0.142267	0.842193
N107	N	0.905387	-0.614935	0.302173
N108	N	1.405387	-0.114935	0.802173
C109	C	0.945487	-0.642207	0.262158
C110	C	1.445487	-0.142207	0.762158
C111	C	0.865448	-0.975343	0.342239
C112	C	1.365448	-0.475343	0.842239
C113	C	0.865465	-1.029945	0.342242
C114	C	1.365465	-0.529945	0.842242
C115	C	0.945648	-1.029885	0.262204
C116	C	1.445648	-0.529885	0.762204
C117	C	0.945627	-0.975281	0.262198
C118	C	1.445627	-0.475281	0.762198
C119	C	0.905528	-0.948011	0.302219
C120	C	1.405528	-0.448011	0.802219
C121	C	0.945430	-0.527542	0.262142
C122	C	1.445430	-0.027542	0.762142
C123	C	0.945400	-0.472937	0.262134
C124	C	1.445400	0.027063	0.762134
C125	C	0.865220	-0.473002	0.342175
C126	C	1.365220	0.026998	0.842175
C127	C	0.865248	-0.527602	0.342180
C128	C	1.365248	-0.027602	0.842180
C129	C	0.905358	-0.554871	0.302162
C130	C	1.405358	-0.054871	0.802162
O131	O	0.831207	-0.614010	0.376190
O132	O	1.331207	-0.114010	0.876190
O133	O	0.979575	-0.613939	0.228128
O134	O	1.479575	-0.113939	0.728128
C135	C	1.068816	-0.251681	0.302242
C136	C	1.568816	0.248319	0.802242
C137	C	1.138458	-0.251669	0.302274
C138	C	1.638458	0.248331	0.802274
C139	C	0.905445	-0.251698	0.465592
C140	C	1.405445	0.248302	0.965592
C141	C	0.905467	-0.251693	0.535234
C142	C	1.405467	0.248307	1.035234
C143	C	0.905516	-0.115335	0.302212
C144	C	1.405516	0.384665	0.802212
C145	C	0.905568	-0.057221	0.302230
C146	C	1.405568	0.442779	0.802230
C147	C	0.905377	-0.251681	0.139381
C148	C	1.405377	0.248319	0.639381
C149	C	0.905476	-0.251538	0.069741
C150	C	1.405476	0.248462	0.569741
C151	C	0.945569	-0.218245	0.567976
C152	C	1.445569	0.281755	1.067976
C153	C	0.945568	-0.218222	0.633412
C154	C	1.445568	0.281778	1.133412
C155	C	0.905472	-0.251658	0.666102
C156	C	1.405472	0.248342	1.166102
C157	C	0.865362	-0.285108	0.633352
C158	C	1.365362	0.214892	1.133352
C159	C	0.865360	-0.285126	0.567917
C160	C	1.365360	0.214874	1.067917
C161	C	0.900488	-0.298736	0.769765
C162	C	1.400488	0.201264	1.269765
C163	C	0.900495	-0.298719	0.835198
C164	C	1.400495	0.201281	1.335198
C165	C	0.905476	-0.251602	0.867923
C166	C	1.405476	0.248398	1.367923
C167	C	0.910463	-0.204501	0.835207
C168	C	1.410463	0.295499	1.335207
C169	C	0.910461	-0.204519	0.769773
C170	C	1.410461	0.295481	1.269773
C171	C	0.905470	-0.251642	0.737054
C172	C	1.405470	0.248358	1.237054
C173	C	0.945579	-0.218127	0.971618
C174	C	1.445579	0.281873	1.471618
C175	C	0.945574	-0.218103	1.037055
C176	C	1.445574	0.281897	1.537055
C177	C	0.865371	-0.284994	1.036993
C178	C	1.365371	0.215006	1.536993
C179	C	0.865373	-0.285013	0.971558
C180	C	1.365373	0.214987	1.471558
C181	C	0.905480	-0.251580	0.938874
C182	C	1.405480	0.248420	1.438874
H183	H	0.666880	-0.312519	0.374642
H184	H	1.166880	0.187481	0.874642
O185	O	0.539517	-0.321364	0.385234
O186	O	1.039517	0.178636	0.885234
H187	H	0.573257	-0.344667	0.413022
H188	H	1.073257	0.155333	0.913022
H189	H	0.465171	-0.259338	0.404555
H190	H	0.965171	0.240662	0.904555
H191	H	0.346459	-0.259314	0.404597
H192	H	0.846459	0.240686	0.904597
H193	H	0.263244	-0.312450	0.374791
H194	H	0.763244	0.187550	0.874791
H195	H	0.914520	-0.166167	0.743138
H196	H	1.414520	0.333833	1.243138
O197	O	0.675544	-0.182150	0.218947
O198	O	1.175544	0.317850	0.718947
H199	H	0.705290	-0.205521	0.187014
H200	H	1.205290	0.294479	0.687014
H201	H	0.464961	-0.244119	0.199746
H202	H	0.964961	0.255881	0.699746
O203	O	0.822013	-0.557085	0.385339
O204	O	1.322013	-0.057085	0.885339
H205	H	0.850049	-0.581922	0.417254
H206	H	1.350049	-0.081922	0.917254
H207	H	0.978227	-0.191020	0.541369
H208	H	1.478227	0.308980	1.041369
O209	O	0.988829	-0.182067	0.936357
O210	O	1.488829	0.317933	1.436357
H211	H	0.978116	-0.141030	0.948900
H212	H	1.478116	0.358970	1.448900
H213	H	1.018290	-0.800881	0.189573
H214	H	1.518290	-0.300881	0.689573
H215	H	0.548174	-0.190984	0.229563
H216	H	1.048174	0.309016	0.729563
H217	H	0.832569	-0.450789	0.374753
H218	H	1.332569	0.049211	0.874753
H219	H	0.978222	-0.190982	0.660076
H220	H	1.478222	0.309018	1.160076
H221	H	0.978228	-0.190863	1.063713
H222	H	1.478228	0.309137	1.563713
O223	O	0.782007	-0.694773	0.425395
O224	O	1.282007	-0.194773	0.925395
H225	H	0.754141	-0.722954	0.453221
H226	H	1.254141	-0.222954	0.953221
O227	O	0.915829	-0.153681	0.870501
O228	O	1.415829	0.346319	1.370501
H229	H	0.960427	-0.134170	0.857987
H230	H	1.460427	0.365830	1.357987
H231	H	0.832722	-0.312253	0.944899
H232	H	1.332722	0.187747	1.444899
O233	O	0.988632	-0.443459	0.218965
O234	O	1.488632	0.056541	0.718965
H235	H	1.016525	-0.471600	0.191149
H236	H	1.516525	0.028400	0.691149
H237	H	1.018244	-0.701834	0.189557
H238	H	1.518244	-0.201834	0.689557
O239	O	0.988862	-0.945804	0.219037
O240	O	1.488862	-0.445804	0.719037
H241	H	0.978152	-0.956313	0.169849
H242	H	1.478152	-0.456313	0.669849
O243	O	0.988685	-0.556950	0.218975
O244	O	1.488685	-0.056950	0.718975
H245	H	1.016539	-0.528766	0.191141
H246	H	1.516539	-0.028766	0.691141
O247	O	0.988904	-1.059311	0.219052
O248	O	1.488904	-0.559311	0.719052
H249	H	0.978181	-1.048871	0.169859
H250	H	1.478181	-0.548871	0.669859
H251	H	0.832824	-1.052192	0.374831
H252	H	1.332824	-0.552192	0.874831
O253	O	0.822122	-0.321058	1.072241
O254	O	1.322122	0.178942	1.572241
H255	H	0.828862	-0.315429	1.123244
H256	H	1.328862	0.184571	1.623244
H257	H	0.896265	-0.337094	0.743126
H258	H	1.396265	0.162906	1.243126
O259	O	0.895110	-0.349517	0.870484
O260	O	1.395110	0.150483	1.370484
H261	H	0.891630	-0.382282	0.836737
H262	H	1.391630	0.117718	1.336737
O263	O	0.822181	-0.945930	0.385392
O264	O	1.322181	-0.445930	0.885392
H265	H	0.794311	-0.974113	0.413211
H266	H	1.294311	-0.474113	0.913211
H267	H	0.832714	-0.312330	0.659972
H268	H	1.332714	0.187670	1.159972
O269	O	0.782060	-0.808263	0.425422
O270	O	1.282060	-0.308263	0.925422
H271	H	0.754183	-0.780118	0.453248
H272	H	1.254183	-0.280118	0.953248
O273	O	0.135882	-0.321343	0.385324
O274	O	0.635882	0.178657	0.885324
H275	H	0.169625	-0.344665	0.413087
H276	H	0.669625	0.155335	0.913087
O277	O	0.822092	-0.321193	0.532596
O278	O	1.322092	0.178807	1.032596
H279	H	0.794205	-0.344436	0.566318
H280	H	1.294205	0.155564	1.066318
H281	H	0.144537	-0.190914	0.229707
H282	H	0.644537	0.309086	0.729707
H283	H	0.346256	-0.244104	0.199789
H284	H	0.846256	0.255896	0.699789
O285	O	0.271903	-0.182099	0.219076
O286	O	0.771903	0.317901	0.719076
H287	H	0.238160	-0.158815	0.191267
H288	H	0.738160	0.341185	0.691267
