data_functionalizedCrystal
_audit_creation_method	'MofGen! by Chris Wilmer'
_symmetry_space_group_name_H-M	'P1'
_symmetry_Int_Tables_number	1
_symmetry_cell_setting	triclinic
loop_
_symmetry_equiv_pos_as_xyz
  x,y,z
_cell_length_a	13.897449
_cell_length_b	18.101395
_cell_length_c	13.897441
_cell_angle_alpha	89.969302
_cell_angle_beta	89.979267
_cell_angle_gamma	90.032384
loop_
_atom_site_label
_atom_site_type_symbol
_atom_site_fract_x
_atom_site_fract_y
_atom_site_fract_z
Zn1	Zn	1.474613	-0.294781	-0.545380
Zn2	Zn	1.474469	-0.418636	-0.384082
Zn3	Zn	1.313302	-0.294816	-0.384099
Zn4	Zn	1.313246	-0.418588	-0.545334
O5	O	1.393907	-0.356705	-0.464724
O6	O	1.609575	-0.311216	-0.523996
O7	O	1.453053	-0.402246	-0.249102
O8	O	1.334784	-0.191178	-0.405520
O9	O	1.609470	-0.402212	-0.405490
O10	O	1.453298	-0.191152	-0.524013
O11	O	1.334644	-0.311276	-0.249115
O12	O	1.178313	-0.311229	-0.405475
O13	O	1.334688	-0.402129	-0.680322
O14	O	1.178272	-0.402164	-0.523934
O15	O	1.453244	-0.311169	-0.680356
O16	O	1.452999	-0.522263	-0.405445
O17	O	1.334549	-0.522227	-0.523917
C18	C	1.143293	-0.356695	-0.464702
C19	C	1.036079	-0.356709	-0.464715
C20	C	0.839784	-0.356712	-0.464741
C21	C	0.949016	-0.356708	-0.464724
C22	C	1.393778	-0.549116	-0.464695
C23	C	1.393811	-0.631430	-0.464716
C24	C	1.394023	-0.930521	-0.464767
C25	C	1.319670	-0.899204	-0.539492
C26	C	1.319317	-0.813586	-0.539258
C27	C	1.393918	-0.782138	-0.464743
C28	C	1.366392	-0.813295	-0.363084
C29	C	1.365913	-0.898940	-0.363531
C30	C	1.496064	-0.898862	-0.490807
C31	C	1.495464	-0.813210	-0.493037
C32	C	1.393860	-0.698279	-0.464722
C33	C	1.394078	-1.014380	-0.464781
C34	C	1.645500	-0.356716	-0.464746
C35	C	1.752714	-0.356720	-0.464756
C36	C	1.393976	-0.356640	-0.716317
C37	C	1.394005	-0.356612	-0.823531
C38	C	1.394063	-0.163543	-0.464773
C39	C	1.394130	-0.081229	-0.464795
C40	C	1.394031	-0.356562	-1.019826
C41	C	1.394014	-0.356592	-0.910594
C42	C	1.393895	-0.356717	-0.214109
C43	C	1.394052	-0.356536	-0.106896
H44	H	1.336539	-0.792518	-0.614637
H45	H	1.521159	-0.920406	-0.563673
C46	C	1.574267	-0.784291	-0.424877
H47	H	1.634798	-0.803938	-0.443664
H48	H	1.560171	-0.799199	-0.360856
H49	H	1.576457	-0.731891	-0.428072
C50	C	1.266687	-0.784423	-0.332753
H51	H	1.241702	-0.753390	-0.381897
H52	H	1.272454	-0.757092	-0.274706
H53	H	1.224384	-0.824982	-0.322963
C54	C	1.265147	-0.926023	-0.333742
H55	H	1.224887	-0.884683	-0.321486
H56	H	1.270081	-0.955279	-0.277194
H57	H	1.238295	-0.954806	-0.384185
H58	H	1.336722	-0.919748	-0.615115
C59	C	1.523511	-0.785707	-0.594107
H60	H	1.584999	-0.804696	-0.610817
H61	H	1.525644	-0.733253	-0.594335
H62	H	1.477192	-0.802219	-0.639532
C63	C	1.218112	-0.928358	-0.516483
H64	H	1.220826	-0.959530	-0.461534
H65	H	1.194416	-0.955600	-0.569865
H66	H	1.176442	-0.887924	-0.503834
C67	C	1.217145	-0.785989	-0.515956
H68	H	1.216577	-0.733508	-0.515743
H69	H	1.198276	-0.803787	-0.454461
H70	H	1.173545	-0.803641	-0.563304
C71	C	1.435878	-0.926934	-0.285743
H72	H	1.464462	-0.885962	-0.254004
H73	H	1.484660	-0.956043	-0.314944
H74	H	1.401659	-0.956057	-0.240274
C75	C	1.437239	-0.785777	-0.285815
H76	H	1.484344	-0.754965	-0.314936
H77	H	1.467905	-0.826888	-0.256428
H78	H	1.403172	-0.758484	-0.238417
H79	H	1.551460	-0.919113	-0.436383
