data_functionalizedCrystal
_audit_creation_method	'MofGen! by Chris Wilmer'
_symmetry_space_group_name_H-M	'P1'
_symmetry_Int_Tables_number	1
_symmetry_cell_setting	triclinic
loop_
_symmetry_equiv_pos_as_xyz
  x,y,z
_cell_length_a	19.188930
_cell_length_b	10.654559
_cell_length_c	9.130313
_cell_angle_alpha	89.998313
_cell_angle_beta	89.985896
_cell_angle_gamma	83.816712
loop_
_atom_site_label
_atom_site_type_symbol
_atom_site_fract_x
_atom_site_fract_y
_atom_site_fract_z
O1	O	0.927169	0.156774	-0.122272
O2	O	0.723996	0.177879	-0.122172
O3	O	0.830251	-0.015511	-0.122213
O4	O	0.820915	0.350163	-0.122231
O5	O	0.830249	-0.015506	0.121386
O6	O	0.723995	0.177884	0.121427
O7	O	0.927168	0.156779	0.121327
Cu8	Cu	0.825581	0.167332	0.143619
Cu9	Cu	0.825583	0.167326	-0.144465
O10	O	0.820913	0.350169	0.121368
C11	C	0.697980	0.177198	-0.000360
C12	C	0.620462	0.175146	-0.000321
C13	C	0.829563	-0.062292	-0.000414
C14	C	0.827508	-0.201691	-0.000413
C15	C	0.824618	-0.398150	-0.133224
C16	C	0.826546	-0.267169	-0.133209
C17	C	0.826548	-0.267202	0.132376
C18	C	0.824624	-0.398182	0.132359
C19	C	0.824614	-0.398129	-0.286557
C20	C	0.826542	-0.267148	-0.286542
C21	C	0.576282	0.288621	-0.000350
C22	C	0.503446	0.286694	-0.000366
C23	C	0.474792	0.171285	-0.000382
C24	C	0.518982	0.057795	-0.000346
C25	C	0.591817	0.059726	-0.000315
N26	N	0.366234	0.083067	-0.083344
N27	N	0.297044	0.081241	-0.083377
C28	C	0.255346	0.165461	-0.000472
N29	N	0.285451	0.251595	0.082448
N30	N	0.354647	0.253425	0.082474
C31	C	0.395816	0.169179	-0.000415
C32	C	0.132188	0.276853	-0.000516
C33	C	0.059350	0.274921	-0.000523
C34	C	0.074888	0.046019	-0.000517
C35	C	0.147724	0.047955	-0.000496
C36	C	0.176369	0.163375	-0.000502
C37	C	0.953184	0.157460	-0.000489
C38	C	1.030702	0.159511	-0.000537
C39	C	0.821601	0.396949	-0.000435
C40	C	0.823656	0.536349	-0.000445
N41	N	0.825585	0.167335	0.346242
N42	N	0.825584	0.167312	-0.347087
C43	C	0.872647	0.081731	0.422876
C44	C	0.872645	0.081716	0.576213
C45	C	0.778517	0.252921	0.576268
C46	C	0.778517	0.252929	0.422934
C47	C	0.926993	-0.017109	0.422845
C48	C	0.926991	-0.017124	0.576182
H49	H	0.823851	-0.451511	0.240481
N50	N	0.994289	0.008457	0.628378
N51	N	0.999689	0.102898	0.707105
H52	H	1.047216	0.120962	0.743973
N53	N	0.458295	0.402597	-0.000396
N54	N	0.415891	0.427061	0.102258
H55	H	0.384002	0.508916	0.102234
H56	H	0.872862	-0.445417	-0.345464
H57	H	0.773696	-0.426624	-0.334116
N58	N	0.730432	0.340349	0.654590
N59	N	0.665896	0.338905	0.637487
H60	H	0.631933	0.400653	0.692798
N61	N	0.730429	0.340360	0.344677
N62	N	0.688407	0.416768	0.413174
H63	H	0.654441	0.478519	0.357906
N64	N	0.912013	-0.137879	0.370658
N65	N	0.901455	-0.222972	0.459634
H66	H	0.890865	-0.308259	0.422778
H67	H	0.877462	-0.238645	-0.334147
N68	N	0.766017	-0.207810	-0.360377
N69	N	0.721790	-0.273416	-0.412398
H70	H	0.679046	-0.231511	-0.464548
N71	N	0.990575	0.019963	0.363159
N72	N	1.038191	0.047714	0.446685
H73	H	1.083093	0.073914	0.404533
H74	H	0.827338	-0.213881	0.240501
N75	N	0.161455	0.394745	-0.000472
N76	N	0.200344	0.421352	0.102230
H77	H	0.221013	0.504613	0.102266
H78	H	0.627789	-0.032682	-0.000293
H79	H	0.599600	0.382605	-0.000357
H80	H	0.495648	-0.036172	-0.000379
N81	N	0.014229	0.390851	-0.000534
N82	N	0.039818	0.493889	-0.000535
H83	H	0.007951	0.575768	-0.000542
N84	N	0.045631	-0.071872	-0.000496
N85	N	0.006705	-0.098480	0.102184
H86	H	-0.013960	-0.181746	0.102209
N87	N	0.192847	-0.067970	-0.000471
N88	N	0.167258	-0.171008	-0.000479
H89	H	0.199125	-0.252887	-0.000457
N90	N	0.905711	-0.131096	0.635886
N91	N	0.903045	-0.145341	0.771589
H92	H	0.888011	-0.225827	0.813760
