data_functionalizedCrystal
_audit_creation_method	'MofGen! by Chris Wilmer'
_symmetry_space_group_name_H-M	'P1'
_symmetry_Int_Tables_number	1
_symmetry_cell_setting	triclinic
loop_
_symmetry_equiv_pos_as_xyz
  x,y,z
_cell_length_a	12.759399
_cell_length_b	15.297621
_cell_length_c	15.298431
_cell_angle_alpha	88.366421
_cell_angle_beta	99.707677
_cell_angle_gamma	99.681768
loop_
_atom_site_label
_atom_site_type_symbol
_atom_site_fract_x
_atom_site_fract_y
_atom_site_fract_z
Zn1	Zn	-0.524777	-1.253569	0.726751
Zn2	Zn	-0.735110	-1.278824	0.580269
Zn3	Zn	-0.534993	-1.132418	0.554972
Zn4	Zn	-0.675954	-1.107068	0.701396
O5	O	-0.617709	-1.192970	0.640847
O6	O	-0.573159	-1.379501	0.728518
O7	O	-0.737597	-1.280581	0.454331
O8	O	-0.386620	-1.148528	0.577784
O9	O	-0.727691	-1.398057	0.620898
O10	O	-0.379114	-1.237537	0.703989
O11	O	-0.590572	-1.173017	0.435746
O12	O	-0.533210	-1.006472	0.553198
O13	O	-0.626867	-1.105323	0.827342
O14	O	-0.636774	-0.987848	0.660775
O15	O	-0.515798	-1.212956	0.845970
O16	O	-0.874281	-1.256001	0.596312
O17	O	-0.830819	-1.129812	0.685304
C18	C	-0.579682	-0.965376	0.601491
C19	C	-0.563434	-0.868006	0.584675
C20	C	-0.501745	-0.831922	0.520850
C21	C	-0.486478	-0.740439	0.505048
C22	C	-0.532891	-0.685031	0.553075
C23	C	-0.594575	-0.721114	0.616905
C24	C	-0.609851	-0.812607	0.632704
C25	C	-0.640996	-0.665716	0.664928
C26	C	-0.702680	-0.701800	0.728759
C27	C	-0.717952	-0.793283	0.744555
C28	C	-0.671539	-0.848692	0.696528
C29	C	-0.625720	-0.574223	0.649130
C30	C	-0.733825	-0.554908	0.760984
C31	C	-0.749092	-0.646391	0.776785
C32	C	-0.890670	-1.192917	0.640825
C33	C	-1.007450	-1.192969	0.640858
C34	C	-1.176060	-1.146762	0.575152
C35	C	-1.066330	-1.146707	0.575126
C36	C	-1.058304	-1.239283	0.706625
C37	C	-1.168030	-1.239333	0.706654
C38	C	-1.234936	-1.100504	0.509411
C39	C	-1.184090	-1.054189	0.443644
C40	C	-1.074360	-1.054134	0.443619
C41	C	-1.015476	-1.100393	0.509359
C42	C	-0.343681	-1.193043	0.640893
C43	C	-0.226907	-1.193074	0.640913
C44	C	-0.563594	-1.153495	0.869329
C45	C	-0.540534	-1.136673	0.966695
C46	C	-0.655880	-0.421454	0.680349
C47	C	-0.672136	-0.518824	0.697159
C48	C	-0.671545	-1.232341	0.413263
C49	C	-0.694338	-1.249332	0.315927
C50	C	-0.453148	-1.072766	1.002754
C51	C	-0.431481	-1.056949	1.094231
C52	C	-0.497193	-1.105044	1.149660
C53	C	-0.584576	-1.168957	1.113602
C54	C	-0.606250	-1.184770	1.022114
C55	C	-0.650295	-1.217048	1.169020
C56	C	-0.737679	-1.280962	1.132962
C57	C	-0.759348	-1.296772	1.041483
C58	C	-0.693636	-1.248678	0.986055
C59	C	-0.628621	-1.201235	1.260508
C60	C	-0.781724	-1.313240	1.279868
C61	C	-0.803390	-1.329056	1.188391
H62	H	-0.768190	-0.822661	0.796522
H63	H	-0.799316	-0.675784	0.828757
H64	H	-0.771619	-0.509795	0.800091
F65	F	-0.898596	-1.100054	0.509525
H66	H	-0.463970	-0.877043	0.481749
F67	F	-0.995633	-1.288513	0.776586
H68	H	-0.520456	-0.610542	0.540206
H69	H	-0.830513	-1.348803	1.012126
H70	H	-0.683965	-0.923185	0.709392
H71	H	-1.324285	-1.100546	0.509423
H72	H	-1.232037	-1.016519	0.390125
H73	H	-0.479545	-1.092163	1.224145
F74	F	-0.383213	-1.021598	0.943761
H75	H	-0.557472	-1.149198	1.289857
H76	H	-1.209426	-1.277032	0.760210
F77	F	-0.851667	-1.364427	1.338854
H78	H	-0.360336	-1.004908	1.123583
F79	F	-0.560074	-0.535831	0.581199
F80	F	-0.716687	-1.265512	0.888693
H81	H	-1.032959	-1.016415	0.390074
H82	H	-0.436261	-0.711067	0.453073
F83	F	-0.896387	-1.397077	1.150004
