data_functionalizedCrystal
_audit_creation_method	'MofGen! by Chris Wilmer'
_symmetry_space_group_name_H-M	'P1'
_symmetry_Int_Tables_number	1
_symmetry_cell_setting	triclinic
loop_
_symmetry_equiv_pos_as_xyz
  x,y,z
_cell_length_a	16.992694
_cell_length_b	15.455313
_cell_length_c	16.992695
_cell_angle_alpha	92.847427
_cell_angle_beta	90.668223
_cell_angle_gamma	87.142206
loop_
_atom_site_label
_atom_site_type_symbol
_atom_site_fract_x
_atom_site_fract_y
_atom_site_fract_z
O1	O	1.054080	-0.072023	0.163694
O2	O	1.554080	0.427977	0.663694
O3	O	0.825681	-0.072048	0.161862
O4	O	1.325681	0.427952	0.661862
O5	O	0.938965	-0.072029	0.048579
O6	O	1.438965	0.427971	0.548579
O7	O	0.940797	-0.072042	0.276978
O8	O	1.440797	0.427958	0.776978
O9	O	0.932485	0.072232	0.055028
O10	O	1.432485	0.572232	0.555028
O11	O	0.819202	0.072213	0.168312
O12	O	1.319202	0.572213	0.668312
O13	O	1.047601	0.072238	0.170144
O14	O	1.547601	0.572238	0.670144
Cu15	Cu	0.932809	0.085398	0.169817
Cu16	Cu	1.432809	0.585398	0.669817
Cu17	Cu	0.940473	-0.085207	0.162189
Cu18	Cu	1.440473	0.414793	0.662189
O19	O	0.934317	0.072219	0.283428
O20	O	1.434317	0.572219	0.783428
C21	C	0.793081	0.000079	0.162731
C22	C	1.293081	0.500079	0.662731
C23	C	0.705597	0.000070	0.155702
C24	C	1.205597	0.500070	0.655702
C25	C	0.933369	0.000102	0.022443
C26	C	1.433369	0.500102	0.522443
C27	C	0.926341	0.000101	-0.065041
C28	C	1.426341	0.500101	0.434959
N29	N	0.927425	0.205392	0.175181
N30	N	1.427425	0.705392	0.675181
C31	C	0.659607	0.000066	0.223520
C32	C	1.159607	0.500066	0.723520
C33	C	0.577405	0.000079	0.216911
C34	C	1.077405	0.500079	0.716911
C35	C	0.541197	0.000088	0.142484
C36	C	1.041197	0.500088	0.642484
C37	C	0.587193	0.000094	0.074661
C38	C	1.087193	0.500094	0.574661
C39	C	0.669393	0.000088	0.081271
C40	C	1.169393	0.500088	0.581271
C41	C	0.295881	0.000113	0.115091
C42	C	0.795881	0.500113	0.615091
C43	C	0.213676	0.000116	0.108486
C44	C	0.713676	0.500116	0.608486
C45	C	0.203893	0.000103	0.250737
C46	C	0.703893	0.500103	0.750737
C47	C	0.286095	0.000091	0.257340
C48	C	0.786095	0.500091	0.757340
C49	C	0.332084	0.000102	0.189517
C50	C	0.832084	0.500102	0.689517
N51	N	0.457174	0.000098	0.135727
N52	N	0.957174	0.500098	0.635727
N53	N	0.416105	0.000098	0.196275
N54	N	0.916105	0.500098	0.696275
C55	C	1.080201	0.000109	0.169275
C56	C	1.580201	0.500109	0.669275
C57	C	1.167685	0.000113	0.176304
C58	C	1.667685	0.500113	0.676304
N59	N	0.945863	-0.205202	0.156819
N60	N	1.445863	0.294798	0.656819
C61	C	0.975571	0.250795	0.127074
C62	C	1.475571	0.750795	0.627074
C63	C	0.971507	0.341602	0.131139
C64	C	1.471507	0.841602	0.631139
C65	C	0.919301	0.387005	0.183315
C66	C	1.419301	0.887005	0.683315
C67	C	0.871149	0.341596	0.231424
C68	C	1.371149	0.841596	0.731424
C69	C	0.875210	0.250791	0.227355
C70	C	1.375210	0.750791	0.727355
C71	C	0.901772	0.658584	0.200858
C72	C	1.401772	1.158584	0.700858
C73	C	0.897717	0.749395	0.204926
C74	C	1.397717	1.249395	0.704926
C75	C	0.998074	0.749395	0.104639
C76	C	1.498074	1.249395	0.604639
C77	C	1.002133	0.658588	0.100578
C78	C	1.502133	1.158588	0.600578
C79	C	0.953979	0.613187	0.148684
C80	C	1.453979	1.113187	0.648684
N81	N	0.915147	0.479825	0.187473
N82	N	1.415147	0.979825	0.687473
N83	N	0.958129	0.520369	0.144522
N84	N	1.458129	1.020369	0.644522
C85	C	0.994158	0.000109	-0.111032
C86	C	1.494158	0.500109	0.388968
C87	C	0.987550	0.000100	-0.193233
C88	C	1.487550	0.500100	0.306767
C89	C	0.913123	0.000089	-0.229442
C90	C	1.413123	0.500089	0.270558
C91	C	0.845300	0.000078	-0.183445
C92	C	1.345300	0.500078	0.316555
C93	C	0.851910	0.000081	-0.101246
C94	C	1.351910	0.500081	0.398754
C95	C	0.885729	0.000074	-0.474757
C96	C	1.385729	0.500074	0.025243
C97	C	0.879124	0.000074	-0.556962
C98	C	1.379124	0.500074	-0.056962
C99	C	1.021375	0.000094	-0.566744
C100	C	1.521375	0.500094	-0.066744
C101	C	1.027977	0.000102	-0.484543
C102	C	1.527977	0.500102	0.015457
C103	C	0.960155	0.000087	-0.438554
C104	C	1.460155	0.500087	0.061446
N105	N	0.906366	0.000082	-0.313464
N106	N	1.406366	0.500082	0.186536
N107	N	0.966913	0.000087	-0.354533
N108	N	1.466913	0.500087	0.145467
C109	C	0.939913	0.000087	0.309563
C110	C	1.439913	0.500087	0.809563
C111	C	0.946942	0.000082	0.397047
C112	C	1.446942	0.500082	0.897047
H113	H	0.689081	0.000058	0.284126
H114	H	1.189081	0.500058	0.784126
H115	H	1.042774	0.000109	-0.230675
H116	H	1.542774	0.500109	0.269325
H117	H	0.315570	0.000074	0.317946
H118	H	0.815570	0.500074	0.817946
Cl119	Cl	0.832080	0.806468	0.270526
Cl120	Cl	1.332080	1.306468	0.770526
H121	H	0.796685	0.000073	-0.063801
H122	H	1.296685	0.500073	0.436199
H123	H	0.836004	0.213825	0.266527
H124	H	1.336004	0.713825	0.766527
Cl125	Cl	0.805513	0.398673	0.297014
Cl126	Cl	1.305513	0.898673	0.797014
H127	H	0.539963	0.000075	0.272136
H128	H	1.039963	0.500075	0.772136
H129	H	1.018087	0.213834	0.084591
H130	H	1.518087	0.713834	0.584591
Cl131	Cl	0.146074	0.000093	0.335994
Cl132	Cl	0.646074	0.500093	0.835994
H133	H	0.184198	0.000123	0.047876
H134	H	0.684198	0.500123	0.547876
Cl135	Cl	0.800465	0.000052	-0.416953
Cl136	Cl	1.300465	0.500052	0.083047
Cl137	Cl	1.087728	0.000132	-0.065520
Cl138	Cl	1.587728	0.500132	0.434480
Cl139	Cl	0.353686	0.000125	0.029827
Cl140	Cl	0.853686	0.500125	0.529827
H141	H	0.557705	0.000114	0.014061
H142	H	1.057705	0.500114	0.514061
Cl143	Cl	0.727210	0.000096	-0.003990
Cl144	Cl	1.227210	0.500096	0.496010
Cl145	Cl	1.121548	0.000088	-0.439031
Cl146	Cl	1.621548	0.500088	0.060969
H147	H	1.010711	0.378568	0.091966
H148	H	1.510711	0.878568	0.591966
H149	H	1.076591	0.000106	-0.604197
H150	H	1.576591	0.500106	-0.104197
H151	H	1.044644	0.621622	0.058092
H152	H	1.544644	1.121622	0.558092
H153	H	0.784700	0.000063	-0.212933
H154	H	1.284700	0.500063	0.287067
Cl155	Cl	0.785551	0.000065	-0.602480
Cl156	Cl	1.285551	0.500065	-0.102480
H157	H	0.862564	0.621625	0.240030
H158	H	1.362564	1.121625	0.740030
H159	H	1.037278	0.786369	0.065473
H160	H	1.537278	1.286369	0.565473
