data_functionalizedCrystal
_audit_creation_method	'MofGen! by Chris Wilmer'
_symmetry_space_group_name_H-M	'P1'
_symmetry_Int_Tables_number	1
_symmetry_cell_setting	triclinic
loop_
_symmetry_equiv_pos_as_xyz
  x,y,z
_cell_length_a	10.967829
_cell_length_b	14.971486
_cell_length_c	10.066323
_cell_angle_alpha	81.193904
_cell_angle_beta	69.235394
_cell_angle_gamma	95.825032
loop_
_atom_site_label
_atom_site_type_symbol
_atom_site_fract_x
_atom_site_fract_y
_atom_site_fract_z
O1	O	1.701959	-0.092509	-0.286812
O2	O	1.324413	-0.114717	-0.198010
O3	O	1.523307	0.026809	-0.244801
O4	O	1.503065	-0.234035	-0.240021
O5	O	1.561202	0.053900	-0.480690
O6	O	1.362308	-0.087626	-0.433899
O7	O	1.739855	-0.065418	-0.522700
Zn8	Zn	1.557098	-0.072221	-0.515752
Zn9	Zn	1.507169	-0.107914	-0.204958
O10	O	1.540960	-0.206944	-0.475909
C11	C	1.295044	-0.101602	-0.304590
C12	C	1.151076	-0.102877	-0.270728
C13	C	1.769223	-0.078533	-0.416117
C14	C	1.913190	-0.077259	-0.449970
C15	C	1.957737	-0.090725	-0.342864
C16	C	2.106534	-0.089409	-0.377849
C17	C	1.541349	0.073660	-0.362532
C18	C	1.538637	0.172898	-0.361893
C19	C	1.522917	-0.253795	-0.358175
C20	C	1.525628	-0.353034	-0.358805
N21	N	1.591182	-0.047860	-0.727863
C22	C	1.655481	0.232676	-0.389376
C23	C	1.652922	0.325918	-0.388761
C24	C	1.533520	0.359381	-0.360672
C25	C	1.416666	0.299595	-0.333182
C26	C	1.419224	0.206353	-0.333787
C27	C	1.411343	0.493940	-0.331925
C28	C	1.408784	0.587188	-0.331321
C29	C	1.645041	0.613505	-0.386898
C30	C	1.647599	0.520263	-0.387504
C31	C	1.530745	0.460484	-0.360016
C32	C	1.519011	-0.099439	-0.778691
C33	C	1.545277	-0.080681	-0.942027
N34	N	1.473095	-0.132268	0.007150
H35	H	2.178550	-0.076901	-0.495456
H36	H	1.740187	0.662182	-0.409275
H37	H	1.744829	0.493023	-0.410387
N38	N	1.862349	-0.107296	-0.187087
H39	H	1.912520	-0.116103	-0.120416
H40	H	1.815757	-0.052793	-0.170819
H41	H	2.079061	-0.115382	-0.153121
H42	H	1.319445	0.326846	-0.310302
H43	H	1.985210	-0.064752	-0.567568
N44	N	1.698798	0.029027	-0.830380
H45	H	1.702309	0.031527	-0.932531
H46	H	1.679325	0.089160	-0.800909
N47	N	1.778948	0.390396	-0.418416
H48	H	1.817000	0.369876	-0.343237
H49	H	1.844977	0.389944	-0.518152
H50	H	1.626521	-0.022633	-1.019429
N51	N	1.784269	0.196588	-0.419686
H52	H	1.857899	0.248610	-0.437001
H53	H	1.776431	0.148427	-0.333703
H54	H	1.311560	0.614433	-0.308472
N55	N	1.285309	0.429460	-0.302269
H56	H	1.209279	0.464806	-0.284387
H57	H	1.295274	0.400247	-0.388757
H58	H	1.391860	-0.190321	-0.915451
N59	N	1.293199	0.141872	-0.304136
H60	H	1.217169	0.177218	-0.286251
H61	H	1.303158	0.112657	-0.390620
H62	H	1.437781	-0.157490	-0.701289
