data_functionalizedCrystal
_audit_creation_method	'MofGen! by Chris Wilmer'
_symmetry_space_group_name_H-M	'P1'
_symmetry_Int_Tables_number	1
_symmetry_cell_setting	triclinic
loop_
_symmetry_equiv_pos_as_xyz
  x,y,z
_cell_length_a	17.077404
_cell_length_b	13.032721
_cell_length_c	17.077396
_cell_angle_alpha	97.153695
_cell_angle_beta	89.980499
_cell_angle_gamma	97.204757
loop_
_atom_site_label
_atom_site_type_symbol
_atom_site_fract_x
_atom_site_fract_y
_atom_site_fract_z
Zn1	Zn	1.160375	-0.416035	-0.483523
Zn2	Zn	1.143613	-0.590801	-0.368926
Zn3	Zn	1.029103	-0.416072	-0.352275
Zn4	Zn	1.012412	-0.590739	-0.500144
O5	O	1.086376	-0.503412	-0.426217
O6	O	1.267997	-0.439229	-0.468335
O7	O	1.128394	-0.567664	-0.256874
O8	O	1.060517	-0.269828	-0.355761
O9	O	1.255683	-0.567629	-0.384141
O10	O	1.156961	-0.269801	-0.452188
O11	O	1.044264	-0.439292	-0.244641
O12	O	0.917043	-0.439231	-0.371877
O13	O	1.032069	-0.567523	-0.607782
O14	O	0.904780	-0.567559	-0.480516
O15	O	1.140777	-0.439169	-0.595571
O16	O	1.112209	-0.737032	-0.400257
O17	O	1.015816	-0.736987	-0.496662
C18	C	0.882430	-0.503393	-0.426193
C19	C	0.795178	-0.503410	-0.426204
C20	C	1.060404	-0.774928	-0.452087
C21	C	1.049365	-0.891083	-0.463180
C22	C	0.747814	-0.570331	-0.482702
C23	C	0.665833	-0.570333	-0.482715
C24	C	0.631218	-0.503419	-0.426226
C25	C	0.678589	-0.436491	-0.369726
C26	C	0.760569	-0.436484	-0.369717
C27	C	0.507717	-0.436512	-0.369747
C28	C	0.425732	-0.436519	-0.369754
C29	C	0.412982	-0.570361	-0.482744
C30	C	0.494961	-0.570354	-0.482735
C31	C	0.542326	-0.503427	-0.426234
C32	C	1.092179	-0.942857	-0.420462
C33	C	1.080770	-1.062910	-0.431927
C34	C	1.291118	-0.503432	-0.426241
C35	C	1.378367	-0.503440	-0.426251
C36	C	1.086431	-0.503335	-0.630954
C37	C	1.086454	-0.503302	-0.718201
C38	C	1.112470	-0.230836	-0.400263
C39	C	1.123590	-0.114681	-0.389203
C40	C	1.143060	-0.436463	-0.752833
C41	C	1.143073	-0.436428	-0.834811
C42	C	1.086482	-0.503239	-0.882154
C43	C	1.029870	-0.570081	-0.847516
C44	C	1.029855	-0.570110	-0.765540
C45	C	1.029908	-0.570018	-1.018380
C46	C	1.029924	-0.569991	-1.100362
C47	C	1.143126	-0.436336	-1.087651
C48	C	1.143111	-0.436365	-1.005675
C49	C	1.086499	-0.503209	-0.971042
C50	C	1.086374	-0.503413	-0.222269
C51	C	1.086530	-0.503152	-0.134995
H52	H	0.775990	-0.624824	-0.528699
F53	F	0.388893	-0.365306	-0.309630
F54	F	0.362572	-0.641578	-0.542885
F55	F	0.558125	-0.365278	-0.309612
F56	F	0.969688	-0.641090	-1.150747
F57	F	0.641748	-0.365269	-0.309610
F58	F	1.203345	-0.365324	-0.871669
H59	H	0.627272	-0.624828	-0.528720
H60	H	1.004267	-0.935636	-0.508243
F61	F	0.810978	-0.365256	-0.309586
F62	F	1.151135	-0.884628	-0.361569
H63	H	1.189145	-0.382061	-0.714292
H64	H	0.983798	-0.624434	-0.990184
H65	H	1.189220	-0.381907	-1.115852
F66	F	1.021820	-1.121134	-0.490832
F67	F	1.203345	-0.365264	-0.955290
F68	F	0.969639	-0.641183	-0.897904
F69	F	1.182549	-1.056458	-0.330305
H70	H	0.983753	-0.624527	-0.737343
H71	H	0.523141	-0.624847	-0.528730
