data_functionalizedCrystal
_audit_creation_method	'MofGen! by Chris Wilmer'
_symmetry_space_group_name_H-M	'P1'
_symmetry_Int_Tables_number	1
_symmetry_cell_setting	triclinic
loop_
_symmetry_equiv_pos_as_xyz
  x,y,z
_cell_length_a	19.288859
_cell_length_b	12.811415
_cell_length_c	17.766277
_cell_angle_alpha	84.562803
_cell_angle_beta	89.989768
_cell_angle_gamma	83.590528
loop_
_atom_site_label
_atom_site_type_symbol
_atom_site_fract_x
_atom_site_fract_y
_atom_site_fract_z
O1	O	0.922006	0.130903	-0.071543
O2	O	0.719833	0.148573	-0.072747
O3	O	0.826005	-0.013079	-0.061711
O4	O	0.815834	0.292555	-0.082580
O5	O	0.825986	-0.013087	0.063478
O6	O	0.719814	0.148564	0.052442
O7	O	0.921987	0.130895	0.053646
Cu8	Cu	0.820899	0.139729	0.064475
Cu9	Cu	0.820921	0.139739	-0.083576
O10	O	0.815815	0.292547	0.042609
C11	C	0.693944	0.148001	-0.010114
C12	C	0.616832	0.146298	-0.009997
C13	C	0.053205	0.229624	-0.015687
C14	C	0.125659	0.231234	-0.015801
C15	C	0.169895	0.136384	-0.009323
C16	C	0.141671	0.039917	-0.002750
C17	C	0.069217	0.038310	-0.002644
C18	C	0.290807	0.065642	0.039369
C19	C	0.363259	0.067253	0.039267
C20	C	0.393365	0.141337	-0.009654
C21	C	0.351010	0.213826	-0.058465
C22	C	0.278557	0.212219	-0.058358
C23	C	0.248459	0.138116	-0.009438
C24	C	0.500145	0.239543	-0.016355
C25	C	0.572601	0.241149	-0.016473
C26	C	0.588611	0.049829	-0.003415
C27	C	0.516156	0.048226	-0.003304
C28	C	0.471927	0.143086	-0.009771
C29	C	0.825425	-0.052185	0.003552
C30	C	0.823717	-0.168695	0.011503
C31	C	0.820516	-0.387610	-0.110053
C32	C	0.818911	-0.497082	-0.102587
C33	C	0.818898	-0.497112	0.033903
C34	C	0.820503	-0.387640	0.026436
C35	C	0.821312	-0.332893	-0.045545
C36	C	0.822922	-0.223420	-0.053011
C37	C	0.822904	-0.223451	0.083478
C38	C	0.821299	-0.332923	0.090945
C39	C	0.947876	0.131467	-0.008989
C40	C	1.024988	0.133170	-0.009111
C41	C	0.816395	0.331653	-0.022655
C42	C	0.818103	0.448163	-0.030611
N43	N	0.820888	0.139722	0.168605
N44	N	0.820937	0.139738	-0.187706
C45	C	0.867917	0.068177	0.212877
C46	C	0.867921	0.068172	0.291679
C47	C	0.820903	0.139730	0.326206
C48	C	0.773866	0.211280	0.281924
C49	C	0.773858	0.211276	0.203124
C50	C	0.812079	0.235364	0.444514
C51	C	0.812091	0.235369	0.523312
C52	C	0.820922	0.139742	0.569251
C53	C	0.829754	0.044106	0.536382
C54	C	0.829747	0.044102	0.457582
C55	C	0.820905	0.139742	0.411650
C56	C	0.867957	0.068187	0.698969
C57	C	0.867956	0.068180	0.777773
C58	C	0.773905	0.211297	0.768016
C59	C	0.773902	0.211294	0.689214
C60	C	0.820932	0.139740	0.654696
H61	H	0.464132	0.316784	-0.021622
H62	H	0.818259	-0.541628	-0.155117
Br63	Br	0.931780	-0.028925	0.652121
Br64	Br	0.817774	-0.571424	0.131582
H65	H	0.375520	0.274154	-0.098299
H66	H	0.735610	0.269557	0.653165
Br67	Br	0.824026	-0.149122	-0.150697
H68	H	0.397739	0.008233	0.079015
H69	H	0.017197	0.306867	-0.020957
H70	H	0.821181	-0.343036	-0.168663
Br71	Br	0.710050	0.308388	0.328778
H72	H	0.836937	-0.033768	0.430824
Br73	Br	0.648637	-0.078899	0.005361
Br74	Br	0.931779	-0.028932	0.837861
Br75	Br	0.610896	0.372063	-0.025411
Br76	Br	0.820191	-0.407230	0.188628
Br77	Br	0.800112	0.365159	0.567912
Br78	Br	0.710087	0.308401	0.814867
H79	H	0.493183	-0.030318	0.002055
Br80	Br	0.201703	-0.088809	0.006035
Br81	Br	0.249962	-0.034968	0.105720
H82	H	0.823555	-0.178890	0.136006
H83	H	0.804877	0.313239	0.407115
H84	H	0.906209	0.009911	0.184775
Br85	Br	0.931749	-0.028934	0.351772
Br86	Br	0.841747	-0.085682	0.598718
H87	H	0.735562	0.269537	0.167077
H88	H	0.244074	0.271241	-0.098103
Br89	Br	0.163964	0.362145	-0.024727
Br90	Br	0.030921	-0.092603	0.006277
