data_functionalizedCrystal
_audit_creation_method	'MofGen! by Chris Wilmer'
_symmetry_space_group_name_H-M	'P1'
_symmetry_Int_Tables_number	1
_symmetry_cell_setting	triclinic
loop_
_symmetry_equiv_pos_as_xyz
  x,y,z
_cell_length_a	12.759401
_cell_length_b	16.625545
_cell_length_c	12.759393
_cell_angle_alpha	89.966096
_cell_angle_beta	89.980903
_cell_angle_gamma	90.025541
loop_
_atom_site_label
_atom_site_type_symbol
_atom_site_fract_x
_atom_site_fract_y
_atom_site_fract_z
Zn1	Zn	1.606176	-0.320954	-0.593981
Zn2	Zn	2.106176	0.179046	-0.093981
Zn3	Zn	1.606037	-0.455811	-0.418294
Zn4	Zn	2.106037	0.044189	0.081706
Zn5	Zn	1.430478	-0.320996	-0.418319
Zn6	Zn	1.930478	0.179004	0.081681
Zn7	Zn	1.430433	-0.455749	-0.593934
Zn8	Zn	1.930433	0.044251	-0.093934
O9	O	1.518281	-0.388378	-0.506132
O10	O	2.018281	0.111622	-0.006132
O11	O	1.753179	-0.338852	-0.570685
O12	O	2.253179	0.161148	-0.070685
O13	O	1.582709	-0.437971	-0.271276
O14	O	2.082709	0.062029	0.228724
O15	O	1.453862	-0.208158	-0.441651
O16	O	1.953862	0.291842	0.058349
O17	O	1.753077	-0.437931	-0.441609
O18	O	2.253077	0.062069	0.058391
O19	O	1.582946	-0.208128	-0.570709
O20	O	2.082946	0.291872	-0.070709
O21	O	1.453727	-0.338923	-0.271294
O22	O	1.953727	0.161077	0.228706
O23	O	1.283451	-0.338863	-0.441605
O24	O	1.783451	0.161137	0.058395
O25	O	1.453786	-0.437824	-0.740961
O26	O	1.953786	0.062176	-0.240961
O27	O	1.283418	-0.437865	-0.570628
O28	O	1.783418	0.062135	-0.070628
O29	O	1.582903	-0.338792	-0.740996
O30	O	2.082903	0.161208	-0.240996
O31	O	1.582666	-0.568635	-0.441563
O32	O	2.082666	-0.068635	0.058437
O33	O	1.453651	-0.568589	-0.570605
O34	O	1.953651	-0.068589	-0.070605
C35	C	1.245314	-0.388362	-0.506115
C36	C	1.745314	0.111638	-0.006115
C37	C	1.128537	-0.388375	-0.506132
C38	C	1.628537	0.111625	-0.006132
C39	C	0.963999	-0.336888	-0.573455
C40	C	1.463999	0.163112	-0.073455
C41	C	1.073723	-0.336877	-0.573446
C42	C	1.573723	0.163123	-0.073446
C43	C	1.073622	-0.439893	-0.438831
C44	C	1.573622	0.060107	0.061169
C45	C	0.963900	-0.439908	-0.438847
C46	C	1.463900	0.060092	0.061153
C47	C	0.909190	-0.285381	-0.640766
C48	C	1.409190	0.214619	-0.140766
C49	C	0.964097	-0.233864	-0.708068
C50	C	1.464097	0.266136	-0.208068
C51	C	1.073821	-0.233853	-0.708059
C52	C	1.573821	0.266147	-0.208059
C53	C	1.128638	-0.285359	-0.640747
C54	C	1.628638	0.214641	-0.140747
C55	C	1.518167	-0.597869	-0.506099
C56	C	2.018167	-0.097869	-0.006099
C57	C	1.518214	-0.687490	-0.506120
C58	C	2.018214	-0.187490	-0.006120
C59	C	1.518255	-0.760272	-0.506141
C60	C	2.018255	-0.260272	-0.006141
C61	C	1.518316	-0.851580	-0.506164
C62	C	2.018316	-0.351580	-0.006164
C63	C	1.518371	-0.924357	-0.506177
C64	C	2.018371	-0.424357	-0.006177
C65	C	1.518431	-1.015671	-0.506199
C66	C	2.018431	-0.515671	-0.006199
C67	C	1.792314	-0.388394	-0.506150
C68	C	2.292314	0.111606	-0.006150
C69	C	1.909091	-0.388401	-0.506157
C70	C	2.409091	0.111599	-0.006157
C71	C	1.518355	-0.388296	-0.780165
C72	C	2.018355	0.111704	-0.280165
C73	C	1.518386	-0.388262	-0.896942
C74	C	2.018386	0.111738	-0.396942
C75	C	1.518424	-0.178069	-0.506188
C76	C	2.018424	0.321931	-0.006188
C77	C	1.518485	-0.088448	-0.506212
C78	C	2.018485	0.411552	-0.006212
C79	C	1.585627	-0.336690	-0.951824
C80	C	2.085627	0.163310	-0.451824
C81	C	1.585652	-0.336661	-1.061548
C82	C	2.085652	0.163339	-0.561548
C83	C	1.451192	-0.439782	-1.061499
C84	C	1.951192	0.060218	-0.561499
C85	C	1.451163	-0.439806	-0.951777
C86	C	1.951163	0.060194	-0.451777
C87	C	1.652850	-0.285146	-0.896989
C88	C	2.152850	0.214854	-0.396989
C89	C	1.720097	-0.233571	-0.951871
C90	C	2.220097	0.266429	-0.451871
C91	C	1.720122	-0.233542	-1.061595
C92	C	2.220122	0.266458	-0.561595
C93	C	1.652900	-0.285088	-1.116438
C94	C	2.152900	0.214912	-0.616438
C95	C	1.518268	-0.388401	-0.233164
C96	C	2.018268	0.111599	0.266836
C97	C	1.518441	-0.388208	-0.116388
C98	C	2.018441	0.111792	0.383612
H99	H	1.118524	-0.191910	-0.762867
H100	H	1.618524	0.308090	-0.262867
H101	H	1.652913	-0.285050	-1.205783
H102	H	2.152913	0.214950	-0.705783
Br103	Br	0.760279	-0.285388	-0.640776
Br104	Br	1.260279	0.214612	-0.140776
H105	H	1.396463	-0.481747	-1.106160
H106	H	1.896463	0.018253	-0.606160
Br107	Br	1.652826	-0.285188	-0.748079
Br108	Br	2.152826	0.214812	-0.248079
H109	H	0.919193	-0.481855	-0.384049
H110	H	1.419193	0.018145	0.115951
Br111	Br	1.359902	-0.509793	-0.877287
Br112	Br	1.859902	-0.009793	-0.377287
H113	H	0.919458	-0.191934	-0.762877
H114	H	1.419458	0.308066	-0.262877
H115	H	1.217983	-0.285340	-0.640737
H116	H	1.717983	0.214660	-0.140737
Br117	Br	1.148015	-0.509788	-0.347484
Br118	Br	1.648015	-0.009788	0.152516
Br119	Br	1.811384	-0.163550	-1.136076
Br120	Br	2.311384	0.336450	-0.636076
Br121	Br	1.811301	-0.163604	-0.877447
Br122	Br	2.311301	0.336396	-0.377447
