data_functionalizedCrystal
_audit_creation_method	'MofGen! by Chris Wilmer'
_symmetry_space_group_name_H-M	'P1'
_symmetry_Int_Tables_number	1
_symmetry_cell_setting	triclinic
loop_
_symmetry_equiv_pos_as_xyz
  x,y,z
_cell_length_a	17.699083
_cell_length_b	14.044220
_cell_length_c	16.776229
_cell_angle_alpha	89.992645
_cell_angle_beta	89.998886
_cell_angle_gamma	88.235946
loop_
_atom_site_label
_atom_site_type_symbol
_atom_site_fract_x
_atom_site_fract_y
_atom_site_fract_z
O1	O	1.012346	0.119850	-0.066178
O2	O	0.793043	0.135443	-0.066204
O3	O	0.899403	-0.010330	-0.066183
O4	O	0.905986	0.265624	-0.066198
O5	O	0.899387	-0.010339	0.066393
O6	O	0.793027	0.135434	0.066372
O7	O	1.012330	0.119841	0.066399
Zn8	Zn	0.902676	0.127636	0.087435
Zn9	Zn	0.902697	0.127648	-0.087240
O10	O	0.905970	0.265615	0.066378
C11	C	0.764800	0.134880	0.000081
C12	C	0.680666	0.133204	0.000071
C13	C	0.637948	0.218769	0.000067
C14	C	0.558895	0.217189	0.000077
C15	C	0.522563	0.130041	0.000086
C16	C	0.565287	0.044469	0.000093
C17	C	0.644338	0.046050	0.000088
C18	C	0.246484	0.038089	0.000113
C19	C	0.167427	0.036514	0.000115
C20	C	0.161041	0.209227	0.000102
C21	C	0.240092	0.210809	0.000097
C22	C	0.282809	0.125237	0.000108
C23	C	0.368527	0.126952	0.000098
C24	C	0.436847	0.128325	0.000090
C25	C	0.896513	-0.045643	0.000105
C26	C	0.887917	-0.150849	0.000105
C27	C	0.872202	-0.343474	0.000091
C28	C	0.933168	-0.401248	0.000096
C29	C	0.924424	-0.508431	0.000089
C30	C	0.880945	-0.236281	0.000099
C31	C	1.040574	0.120404	0.000112
C32	C	1.124707	0.122081	0.000117
C33	C	0.908860	0.300927	0.000088
C34	C	0.917456	0.406133	0.000083
N35	N	0.902667	0.127628	0.206646
N36	N	0.902712	0.127649	-0.206452
C37	C	0.949781	0.063106	0.248372
C38	C	0.949785	0.063105	0.331825
C39	C	0.902679	0.127631	0.373549
C40	C	0.855560	0.192156	0.331817
C41	C	0.855552	0.192152	0.248366
C42	C	0.855589	0.192175	0.668364
C43	C	0.855601	0.192176	0.751821
C44	C	0.949821	0.063128	0.751822
C45	C	0.949813	0.063123	0.668372
C46	C	0.902692	0.127645	0.626647
C47	C	0.902687	0.127644	0.536159
C48	C	0.902687	0.127638	0.464036
H49	H	0.137848	-0.034456	0.000124
O50	O	1.003289	-0.364277	-0.000026
C51	C	1.122318	-0.353410	-0.068650
C52	C	1.042927	-0.395328	-0.068625
H53	H	1.154393	-0.378514	-0.124098
H54	H	1.117021	-0.272304	-0.068695
H55	H	1.154333	-0.378432	-0.013135
H56	H	1.010867	-0.370379	-0.124131
H57	H	1.048278	-0.476430	-0.068539
O58	O	0.802158	-0.380648	0.000122
C59	C	0.729475	-0.522937	0.000069
C60	C	0.808842	-0.480950	0.000049
H61	H	0.734852	-0.604036	-0.000007
H62	H	0.697395	-0.497998	0.055566
H63	H	0.697418	-0.497850	-0.055400
H64	H	0.840962	-0.506017	0.055481
H65	H	0.840864	-0.505884	-0.055485
H66	H	0.817222	0.244712	0.634398
O67	O	0.995563	0.000332	0.207968
C68	C	1.089050	-0.127636	0.216788
C69	C	1.037227	-0.056608	0.262641
H70	H	1.122760	-0.173677	0.260971
H71	H	1.053215	-0.174999	0.177751
H72	H	1.129579	-0.086762	0.177686
H73	H	0.996689	-0.097404	0.301786
H74	H	1.073109	-0.009245	0.301627
H75	H	0.988187	0.010588	0.785804
H76	H	0.988148	0.010565	0.365798
H77	H	0.667523	0.289735	0.000059
O78	O	0.995594	0.000350	0.627965
C79	C	1.089079	-0.127621	0.636777
C80	C	1.037260	-0.056592	0.682634
H81	H	1.122792	-0.173664	0.680956
H82	H	1.053242	-0.174982	0.597741
H83	H	1.129607	-0.086746	0.597673
H84	H	0.996723	-0.097389	0.721781
H85	H	1.073144	-0.009232	0.721619
O86	O	0.809764	0.254891	0.792230
C87	C	0.716327	0.382919	0.783427
C88	C	0.768184	0.311938	0.737564
H89	H	0.682708	0.429073	0.739250
H90	H	0.675725	0.342102	0.822487
H91	H	0.752206	0.430177	0.822506
H92	H	0.732365	0.264661	0.698442
H93	H	0.808790	0.352814	0.698555
H94	H	0.817201	0.244692	0.365794
O95	O	0.288086	-0.044945	0.000147
C96	C	0.412697	-0.119069	0.000086
C97	C	0.365669	-0.024959	0.000071
H98	H	0.475431	-0.102944	0.000008
H99	H	0.398787	-0.161988	0.055582
H100	H	0.398678	-0.161954	-0.055385
H101	H	0.379662	0.018002	0.055504
H102	H	0.379585	0.017887	-0.055462
O103	O	0.685723	-0.037156	0.000053
C104	C	0.683720	-0.208637	0.000111
C105	C	0.636761	-0.114475	0.000129
H106	H	0.644154	-0.271174	0.000190
H107	H	0.720869	-0.212277	-0.055386
H108	H	0.720910	-0.212165	0.055580
H109	H	0.599528	-0.110884	-0.055302
H110	H	0.599661	-0.110874	0.055664
O111	O	0.809766	0.254923	0.207954
C112	C	0.716277	0.382888	0.216754
C113	C	0.768110	0.311869	0.262618
H114	H	0.682573	0.428934	0.260930
H115	H	0.752104	0.430247	0.177694
H116	H	0.675743	0.342006	0.177675
H117	H	0.808654	0.352673	0.301741
H118	H	0.732236	0.264511	0.301628
H119	H	0.524117	0.286865	0.000073
H120	H	0.126251	0.278904	0.000097
O121	O	0.275295	0.295525	-0.000020
C122	C	0.294044	0.443613	-0.068739
C123	C	0.254120	0.347712	-0.068700
H124	H	0.276952	0.485824	-0.124269
H125	H	0.276909	0.485950	-0.013296
H126	H	0.357880	0.430029	-0.068704
H127	H	0.190278	0.361209	-0.068762
H128	H	0.271318	0.305406	-0.124138
H129	H	0.535699	-0.026488	0.000112
