data_functionalizedCrystal
_audit_creation_method	'MofGen! by Chris Wilmer'
_symmetry_space_group_name_H-M	'P1'
_symmetry_Int_Tables_number	1
_symmetry_cell_setting	triclinic
loop_
_symmetry_equiv_pos_as_xyz
  x,y,z
_cell_length_a	20.919320
_cell_length_b	20.919309
_cell_length_c	14.809374
_cell_angle_alpha	65.056180
_cell_angle_beta	89.509969
_cell_angle_gamma	65.116602
loop_
_atom_site_label
_atom_site_type_symbol
_atom_site_fract_x
_atom_site_fract_y
_atom_site_fract_z
Zr1	Zr	0.633940	0.722733	-0.175845
O2	O	0.549481	0.829051	-0.308272
O3	O	0.656012	0.597975	-0.130445
O4	O	0.673386	0.705146	-0.308271
O5	O	0.522747	0.742184	0.004360
O6	O	0.775468	0.712249	-0.313735
O7	O	0.532107	0.721881	-0.130446
O8	O	0.744390	0.520540	0.004363
O9	O	0.553824	0.933893	-0.313738
O10	O	0.746223	0.661420	-0.120965
O11	O	0.663054	0.671272	-0.016282
O12	O	0.683509	0.797452	-0.225650
O13	O	0.600340	0.807304	-0.120967
Zr14	Zr	0.781820	0.766444	0.030440
Zr15	Zr	0.796749	0.734062	-0.184561
Zr16	Zr	0.619011	0.755116	0.039155
Zr17	Zr	0.640868	0.889944	-0.184563
Zr18	Zr	0.774892	0.599233	0.039157
O19	O	0.759748	0.891203	-0.014961
O20	O	0.780975	0.845159	-0.320664
O21	O	0.528253	0.875095	-0.002569
O22	O	0.866279	0.660126	0.162866
O23	O	0.887507	0.614083	-0.142837
O24	O	0.634785	0.644018	0.175259
O25	O	0.893013	0.746993	-0.149766
O26	O	0.742374	0.784032	0.162865
O27	O	0.640292	0.776929	0.168329
O28	O	0.883653	0.767297	-0.014960
O29	O	0.683236	0.942898	-0.320665
O30	O	0.732524	0.546279	0.175260
O31	O	0.861935	0.555284	0.168332
O32	O	0.873802	0.529544	-0.002565
O33	O	0.541958	0.959633	-0.142841
O34	O	0.671370	0.968638	-0.149769
O35	O	0.732251	0.691726	0.080244
O36	O	0.815420	0.681874	-0.024439
O37	O	0.752706	0.817905	-0.129123
O38	O	0.669537	0.827757	-0.024441
C39	C	0.699214	0.535433	-0.061799
C40	C	0.696273	0.464448	-0.058098
C41	C	0.504230	0.730418	-0.061801
C42	C	0.435113	0.725609	-0.058101
C43	C	0.045855	0.694823	-0.034404
C44	C	0.110795	0.699347	-0.037891
C45	C	0.110525	0.772618	-0.094274
C46	C	0.045310	0.841368	-0.147181
C47	C	-0.019628	0.836843	-0.143699
C48	C	0.304960	0.789834	-0.107526
C49	C	0.369905	0.794355	-0.111002
C50	C	0.435386	0.652332	-0.001713
C51	C	0.370443	0.647814	0.001769
C52	C	0.305234	0.716564	-0.051143
C53	C	0.176904	0.777244	-0.097837
C54	C	0.238857	0.711936	-0.047585
C55	C	0.738303	0.425956	-0.111003
C56	C	0.735540	0.359255	-0.107516
C57	C	0.690744	0.331049	-0.051130
C58	C	0.648713	0.369545	0.001781
C59	C	0.651480	0.436242	-0.001700
C60	C	0.680222	0.129922	-0.037878
C61	C	0.677457	0.063221	-0.034403
C62	C	0.764286	0.052935	-0.143699
C63	C	0.767045	0.119636	-0.147181
C64	C	0.725017	0.158123	-0.094266
C65	C	0.687918	0.262871	-0.047567
C66	C	0.727848	0.226297	-0.097823
C67	C	0.911530	0.758759	-0.083605
C68	C	0.980647	0.763568	-0.087305
C69	C	0.726554	0.704083	-0.341636
C70	C	0.732892	0.690336	-0.432909
C71	C	0.716546	0.953744	-0.083607
C72	C	0.719487	1.024730	-0.087308
C73	C	0.704607	0.751688	-0.525532
C74	C	0.711157	0.737481	-0.619869
C75	C	0.689206	0.785094	0.196230
C76	C	0.682868	0.798841	0.287504
C77	C	0.902864	0.549604	-0.072701
C78	C	0.969040	0.483427	-0.072700
C79	C	0.680540	0.575939	0.207134
C80	C	0.671261	0.518700	0.302108
C81	C	0.884190	0.590109	0.196232
C82	C	0.944028	0.537680	0.287506
C83	C	0.531570	0.899069	-0.341638
C84	C	0.471732	0.951498	-0.432912
C85	C	0.512896	0.939574	-0.072705
C86	C	0.446720	1.005750	-0.072706
C87	C	0.735220	0.913239	-0.352540
C88	C	0.744499	0.970477	-0.447514
C89	C	0.963997	0.441672	-0.123094
C90	C	1.026172	0.379499	-0.123114
C91	C	1.093388	0.359077	-0.072732
C92	C	1.098430	0.400839	-0.022337
C93	C	1.036256	0.463015	-0.022324
C94	C	0.703023	0.502499	0.397104
C95	C	0.694302	0.448728	0.486350
C96	C	0.653822	0.411155	0.480598
C97	C	0.622056	0.427361	0.385593
C98	C	0.630774	0.481136	0.296349
C99	C	1.015549	0.507917	0.275726
C100	C	1.071780	0.458663	0.361479
C101	C	1.056489	0.439168	0.459011
C102	C	0.984961	0.468937	0.470790
C103	C	0.928732	0.518195	0.385038
C104	C	0.400212	0.981269	-0.421132
C105	C	0.343981	1.030544	-0.506886
C106	C	0.359272	1.050042	-0.604419
C107	C	0.430800	1.020269	-0.616197
C108	C	0.487029	0.970999	-0.530444
C109	C	0.451764	1.047511	-0.022321
C110	C	0.389591	1.109699	-0.022326
C111	C	0.322375	1.130123	-0.072710
C112	C	0.317334	1.088358	-0.123102
C113	C	0.379506	1.026175	-0.123102
C114	C	0.784983	1.008034	-0.441730
C115	C	0.793715	1.061809	-0.530960
C116	C	0.761958	1.078030	-0.625974
C117	C	0.721473	1.040467	-0.631756
C118	C	0.712745	0.986689	-0.542527
H119	H	0.046083	0.635158	0.011513
H120	H	0.271756	1.180758	-0.072702
Br121	Br	0.964222	0.442473	0.603163
Br122	Br	0.282952	1.116909	-0.720788
Br123	Br	0.634429	0.903929	-0.728284
Br124	Br	0.226106	1.116084	-0.191474
Br125	Br	0.379439	0.954816	-0.288777
H126	H	0.679776	0.956115	-0.547250
H127	H	0.761958	0.627293	-0.423452
Br128	Br	0.656169	0.856770	-0.541309
H129	H	0.646003	0.161248	0.005213
H130	H	1.102282	0.399058	0.528827
Br131	Br	1.043112	0.519673	0.046082
Br132	Br	0.616654	0.024947	0.042120
Br133	Br	0.759611	0.632396	-0.604086
H134	H	0.393710	1.143695	0.018713
Br135	Br	0.369535	0.893801	-0.187522
Br136	Br	0.831669	0.558579	0.401044
Br137	Br	0.757968	0.553476	0.404938
H138	H	0.612243	0.346572	0.047698
H139	H	1.153165	0.384203	0.018682
H140	H	1.144008	0.308447	-0.072750
H141	H	0.720174	0.435540	0.563698
Br142	Br	0.828089	0.986034	-0.312794
Br143	Br	0.246916	1.070939	-0.490877
Br144	Br	0.372647	0.969502	-0.191484
Br145	Br	0.451540	1.046736	-0.748570
H146	H	0.695618	1.053683	-0.709128
H147	H	0.251872	0.845815	-0.150607
H148	H	0.826681	1.092389	-0.526232
H149	H	0.239074	0.652278	-0.001684
Br150	Br	0.584091	0.930596	-0.546450
Br151	Br	0.567122	0.376363	0.377804
H152	H	0.506488	1.030889	0.018715
Br153	Br	-0.108127	0.930142	-0.215506
Br154	Br	0.199292	0.606044	0.033902
Br155	Br	0.370814	0.548374	0.078309
H156	H	0.909273	0.458296	-0.164134
Br157	Br	0.773809	1.151019	-0.747062
H158	H	0.488484	0.596360	0.041363
H159	H	0.045095	0.901026	-0.193094
H160	H	0.176691	0.836902	-0.143742
Br161	Br	0.792568	0.307031	-0.179341
Br162	Br	0.799095	0.464233	-0.187539
Br163	Br	0.641998	0.338177	0.601727
Br164	Br	0.827835	0.157916	-0.223719
Br165	Br	1.019313	0.322833	-0.191510
H166	H	0.798504	0.021592	-0.186779
H167	H	0.764324	0.249261	-0.143729
Br168	Br	0.594442	0.488478	0.070108
Br169	Br	0.587665	0.503113	0.167430
H170	H	1.130017	0.434429	0.351870
Br171	Br	0.627137	0.224577	0.028974
H172	H	1.028013	0.523781	0.196318
