data_functionalizedCrystal
_audit_creation_method	'MofGen! by Chris Wilmer'
_symmetry_space_group_name_H-M	'P1'
_symmetry_Int_Tables_number	1
_symmetry_cell_setting	triclinic
loop_
_symmetry_equiv_pos_as_xyz
  x,y,z
_cell_length_a	19.077105
_cell_length_b	15.297327
_cell_length_c	15.299447
_cell_angle_alpha	91.592977
_cell_angle_beta	77.651896
_cell_angle_gamma	97.818066
loop_
_atom_site_label
_atom_site_type_symbol
_atom_site_fract_x
_atom_site_fract_y
_atom_site_fract_z
Zn1	Zn	1.118126	-0.309311	-0.621137
Zn2	Zn	1.078375	-0.479510	-0.497664
Zn3	Zn	0.976887	-0.328844	-0.466399
Zn4	Zn	0.983724	-0.450186	-0.638542
O5	O	1.039278	-0.391963	-0.555935
O6	O	1.211574	-0.335986	-0.610559
O7	O	1.045416	-0.479971	-0.369800
O8	O	1.009397	-0.204243	-0.466557
O9	O	1.182369	-0.461030	-0.519843
O10	O	1.113164	-0.189891	-0.580242
O11	O	0.970852	-0.369277	-0.346830
O12	O	0.879072	-0.340843	-0.483433
O13	O	1.021049	-0.411051	-0.759949
O14	O	0.884095	-0.429992	-0.609906
O15	O	1.119794	-0.307551	-0.747162
O16	O	1.052045	-0.597631	-0.536720
O17	O	0.982505	-0.576086	-0.640222
C18	C	0.855987	-0.384356	-0.545166
C19	C	0.777575	-0.381119	-0.540584
C20	C	0.743347	-0.426112	-0.604204
C21	C	0.669673	-0.423058	-0.599900
C22	C	0.630226	-0.375016	-0.531973
C23	C	0.664459	-0.330018	-0.468350
C24	C	0.738134	-0.333066	-0.472657
C25	C	0.409605	-0.360905	-0.512039
C26	C	0.335925	-0.357862	-0.507734
C27	C	0.341144	-0.450901	-0.639287
C28	C	0.414818	-0.453950	-0.643585
C29	C	0.449046	-0.408948	-0.579965
N30	N	0.554919	-0.371896	-0.527570
N31	N	0.524353	-0.412063	-0.584372
C32	C	1.013726	-0.618492	-0.593773
C33	C	1.002864	-0.715400	-0.609993
C34	C	1.117249	-1.033291	-0.440325
C35	C	1.127454	-0.942242	-0.425080
C36	C	1.096307	-0.885527	-0.471307
C37	C	1.054954	-0.919870	-0.532781
C38	C	1.044744	-1.010929	-0.548022
C39	C	1.023802	-0.863165	-0.579004
C40	C	0.982449	-0.897508	-0.640478
C41	C	0.972241	-0.988558	-0.655717
C42	C	1.003388	-1.045273	-0.609490
C43	C	1.034012	-0.772106	-0.563764
C44	C	0.961507	-0.749744	-0.671461
C45	C	0.951303	-0.840793	-0.686705
C46	C	1.223285	-0.399600	-0.566747
C47	C	1.301698	-0.402855	-0.571354
C48	C	1.075618	-0.353851	-0.786531
C49	C	1.091105	-0.337610	-0.884797
C50	C	1.064952	-0.164546	-0.517971
C51	C	1.075893	-0.067635	-0.501792
C52	C	0.929114	-0.507381	-1.188424
C53	C	0.914558	-0.522635	-1.096097
C54	C	0.958693	-0.476380	-1.043268
C55	C	1.017388	-0.414868	-1.082774
C56	C	1.031942	-0.399608	-1.175109
C57	C	1.061521	-0.368607	-1.029953
C58	C	1.120216	-0.307095	-1.069459
C59	C	1.134768	-0.291838	-1.161786
C60	C	1.090632	-0.338092	-1.214615
C61	C	1.046967	-0.383868	-0.937618
C62	C	1.149795	-0.276095	-0.924303
C63	C	1.164351	-0.260841	-1.016630
C64	C	1.003126	-0.429865	-0.326229
C65	C	0.987804	-0.445865	-0.227930
H66	H	0.641808	-0.459697	-0.651706
H67	H	1.104617	-0.811392	-0.458891
C68	C	1.269570	-0.243272	-0.895791
C69	C	1.198310	-0.225247	-0.866238
H70	H	1.299515	-0.211876	-0.859940
H71	H	1.270892	-0.304776	-0.891043
H72	H	1.286633	-0.225372	-0.956432
H73	H	1.181245	-0.243152	-0.805598
H74	H	1.196985	-0.163729	-0.870978
C75	C	0.515041	-0.450015	-0.769389
C76	C	0.458176	-0.506752	-0.718262
H77	H	0.541809	-0.482616	-0.815487
H78	H	0.495919	-0.405298	-0.795246
H79	H	0.545968	-0.423664	-0.732106
H80	H	0.427246	-0.533098	-0.755543
H81	H	0.477298	-0.551485	-0.692404
H82	H	1.067682	-0.744153	-0.513711
C83	C	1.019975	-1.162487	-0.716493
C84	C	0.992180	-1.145359	-0.626249
H85	H	1.013062	-1.224278	-0.726835
H86	H	0.995497	-1.133640	-0.752809
H87	H	1.070220	-1.141170	-0.731031
H88	H	0.941933	-1.166670	-0.611712
H89	H	1.016656	-1.174217	-0.589920
H90	H	0.766002	-0.296423	-0.420855
H91	H	1.161122	-0.914284	-0.375028
C92	C	0.859027	-0.673536	-1.090298
C93	C	0.850040	-0.590241	-1.052679
H94	H	0.819193	-0.715273	-1.063490
H95	H	0.861382	-0.671062	-1.152839
H96	H	0.902595	-0.690767	-1.080065
H97	H	0.806474	-0.573006	-1.062918
H98	H	0.847677	-0.592713	-0.990123
C99	C	1.133741	-1.182809	-0.415830
C100	C	1.151451	-1.095636	-0.389485
H101	H	1.154853	-1.221298	-0.384433
H102	H	1.082627	-1.197936	-0.402591
H103	H	1.151745	-1.188314	-0.478332
H104	H	1.133443	-1.090129	-0.326983
H105	H	1.202576	-1.080504	-0.402716
H106	H	0.938559	-1.016518	-0.705762
C107	C	0.230526	-0.487534	-0.691103
C108	C	0.303521	-0.500356	-0.709222
H109	H	0.207303	-0.518061	-0.734286
H110	H	0.207651	-0.509529	-0.633100
H111	H	0.227120	-0.426316	-0.693650
H112	H	0.306927	-0.561574	-0.706669
H113	H	0.326402	-0.478365	-0.767240
C114	C	1.176083	-0.341269	-1.354522
C115	C	1.106633	-0.321335	-1.316108
H116	H	1.185956	-0.330933	-1.417182
H117	H	1.210760	-0.304908	-1.328724
H118	H	1.178626	-0.401492	-1.343724
H119	H	1.104091	-0.261110	-1.326901
H120	H	1.071947	-0.357696	-1.341915
C121	C	0.903460	-0.970447	-0.757878
C122	C	0.905842	-0.878550	-0.754269
H123	H	0.875391	-0.993755	-0.799585
H124	H	0.951228	-0.985124	-0.776137
H125	H	0.882134	-0.994783	-0.700360
H126	H	0.927173	-0.854213	-0.811786
H127	H	0.858065	-0.863865	-0.736015
H128	H	1.212140	-0.210757	-1.048809
H129	H	1.182557	-0.241745	-1.193948
C130	C	0.922438	-0.607081	-1.311267
C131	C	0.880604	-0.558214	-1.246494
H132	H	0.892484	-0.638467	-1.347113
H133	H	0.959468	-0.568260	-1.348000
H134	H	0.943724	-0.647667	-1.282614
H135	H	0.859322	-0.517623	-1.275147
H136	H	0.843560	-0.597039	-1.209756
C137	C	0.978995	-0.455111	-0.802001
C138	C	0.982455	-0.451482	-0.894198
H139	H	0.939163	-0.496854	-0.775198
H140	H	1.022563	-0.472344	-0.791786
H141	H	0.972901	-0.398598	-0.776491
H142	H	0.988555	-0.507994	-0.919710
H143	H	0.938877	-0.434254	-0.904419
H144	H	0.936143	-0.703566	-0.709101
C145	C	0.264413	-0.239109	-0.471245
C146	C	0.292578	-0.305021	-0.433076
H147	H	0.237654	-0.206488	-0.425158
H148	H	0.302998	-0.200655	-0.505948
H149	H	0.233476	-0.265487	-0.508503
H150	H	0.323520	-0.278642	-0.395823
H151	H	0.253988	-0.343480	-0.398358
H152	H	0.775458	-0.465236	-0.659515
C153	C	0.397036	-0.268634	-0.381576
C154	C	0.447221	-0.311440	-0.442107
H155	H	0.420262	-0.238099	-0.338400
H156	H	0.378139	-0.227786	-0.412913
H157	H	0.358678	-0.310991	-0.352352
H158	H	0.485577	-0.269082	-0.471336
H159	H	0.466130	-0.352292	-0.410766
H160	H	0.946839	-0.488805	-0.968091
H161	H	0.632337	-0.290896	-0.413044
