data_functionalizedCrystal
_audit_creation_method	'MofGen! by Chris Wilmer'
_symmetry_space_group_name_H-M	'P1'
_symmetry_Int_Tables_number	1
_symmetry_cell_setting	triclinic
loop_
_symmetry_equiv_pos_as_xyz
  x,y,z
_cell_length_a	19.188905
_cell_length_b	19.188930
_cell_length_c	14.185569
_cell_angle_alpha	76.885558
_cell_angle_beta	103.100864
_cell_angle_gamma	83.139668
loop_
_atom_site_label
_atom_site_type_symbol
_atom_site_fract_x
_atom_site_fract_y
_atom_site_fract_z
O1	O	0.910236	0.102998	-0.083594
O2	O	1.410236	0.602998	0.416406
O3	O	0.706928	0.114744	-0.083561
O4	O	1.206928	0.614744	0.416439
O5	O	0.814453	0.007211	-0.083559
O6	O	1.314453	0.507211	0.416441
O7	O	0.802711	0.210531	-0.083596
O8	O	1.302711	0.710531	0.416404
O9	O	0.846217	-0.024552	0.083276
O10	O	1.346217	0.475448	0.583276
O11	O	0.738692	0.082981	0.083274
O12	O	1.238692	0.582981	0.583274
O13	O	0.942000	0.071235	0.083241
O14	O	1.442000	0.571235	0.583241
Cu15	Cu	0.843246	0.074208	0.098491
Cu16	Cu	1.343246	0.574208	0.598491
Cu17	Cu	0.805682	0.111771	-0.098811
Cu18	Cu	1.305682	0.611771	0.401189
O19	O	0.834475	0.178768	0.083239
O20	O	1.334475	0.678768	0.583239
C21	C	0.696800	0.098484	-0.000139
C22	C	1.196800	0.598484	0.499861
C23	C	0.619297	0.097348	-0.000126
C24	C	1.119297	0.597348	0.499874
C25	C	0.565590	0.114118	-0.091070
C26	C	1.065590	0.614118	0.408930
C27	C	0.492764	0.113047	-0.091083
C28	C	0.992764	0.613047	0.408917
C29	C	0.473651	0.095191	-0.000145
C30	C	0.973651	0.595191	0.499855
C31	C	0.527368	0.078423	0.090811
C32	C	1.027368	0.578423	0.590811
C33	C	0.600191	0.079502	0.090821
C34	C	1.100191	0.579502	0.590821
N35	N	0.377516	0.040877	0.067538
N36	N	0.877516	0.540877	0.567538
N37	N	0.308337	0.039852	0.067523
N38	N	0.808337	0.539852	0.567523
C39	C	0.254239	0.091943	-0.000169
C40	C	0.754239	0.591943	0.499831
N41	N	0.271934	0.145092	-0.067860
N42	N	0.771934	0.645092	0.432140
N43	N	0.341120	0.146114	-0.067847
N44	N	0.841120	0.646114	0.432153
C45	C	0.394688	0.094021	-0.000146
C46	C	0.894688	0.594021	0.499854
C47	C	0.121565	0.107554	-0.091133
C48	C	0.621565	0.607554	0.408867
C49	C	0.048738	0.106487	-0.091141
C50	C	0.548738	0.606487	0.408859
C51	C	0.083344	0.071856	0.090755
C52	C	0.583344	0.571856	0.590755
C53	C	0.156169	0.072931	0.090761
C54	C	0.656169	0.572931	0.590761
C55	C	0.175275	0.090777	-0.000186
C56	C	0.675275	0.590777	0.499814
C57	C	0.829955	-0.034682	-0.000138
C58	C	1.329955	0.465318	0.499862
C59	C	0.828816	-0.112188	-0.000130
C60	C	1.328816	0.387812	0.499870
C61	C	0.891907	-0.157116	-0.000135
C62	C	1.391907	0.342884	0.499865
C63	C	0.890832	-0.229937	-0.000151
C64	C	1.390832	0.270063	0.499849
C65	C	0.826667	-0.257830	-0.000141
C66	C	1.326667	0.242170	0.499859
C67	C	0.763567	-0.212890	-0.000142
C68	C	1.263567	0.287110	0.499858
C69	C	0.764642	-0.140069	-0.000136
C70	C	1.264642	0.359931	0.499864
N71	N	0.788430	-0.376641	0.056644
N72	N	1.288430	0.123359	0.556644
N73	N	0.787414	-0.445819	0.056640
N74	N	1.287414	0.054181	0.556640
C75	C	0.823425	-0.477234	-0.000161
C76	C	1.323425	0.022766	0.499839
N77	N	0.860503	-0.436862	-0.056946
N78	N	1.360503	0.063138	0.443054
N79	N	0.861523	-0.367679	-0.056939
N80	N	1.361523	0.132321	0.443061
C81	C	0.825495	-0.336791	-0.000148
C82	C	1.325495	0.163209	0.499852
C83	C	0.885355	-0.601124	-0.000185
C84	C	1.385355	-0.101124	0.499815
C85	C	0.884276	-0.673944	-0.000207
C86	C	1.384276	-0.173944	0.499793
C87	C	0.757011	-0.656898	-0.000188
C88	C	1.257011	-0.156898	0.499812
C89	C	0.758090	-0.584077	-0.000176
C90	C	1.258090	-0.084077	0.499824
C91	C	0.822264	-0.556195	-0.000170
C92	C	1.322264	-0.056195	0.499830
C93	C	0.952128	0.087495	-0.000183
C94	C	1.452128	0.587495	0.499817
C95	C	1.029629	0.088633	-0.000203
C96	C	1.529629	0.588633	0.499797
C97	C	0.818972	0.220661	-0.000184
C98	C	1.318972	0.720661	0.499816
C99	C	0.820110	0.298168	-0.000199
C100	C	1.320110	0.798168	0.499801
N101	N	0.869672	0.047788	0.237263
N102	N	1.369672	0.547788	0.737263
N103	N	0.779262	0.138186	-0.237583
N104	N	1.279262	0.638186	0.262417
C105	C	0.701623	0.215778	0.604909
C106	C	1.201623	0.715778	1.104909
C107	C	0.721645	0.195770	0.709931
C108	C	1.221645	0.695770	1.209931
C109	C	0.816877	0.100585	0.709894
C110	C	1.316877	0.600585	1.209894
C111	C	0.796861	0.120583	0.604870
C112	C	1.296861	0.620583	1.104870
C113	C	0.739234	0.178181	0.552386
C114	C	1.239234	0.678181	1.052386
C115	C	0.834471	0.082985	0.552346
C116	C	1.334471	0.582985	1.052346
C117	C	0.814459	0.102985	0.447332
C118	C	1.314459	0.602985	0.947332
C119	C	0.756836	0.160581	0.394840
C120	C	1.256836	0.660581	0.894840
C121	C	0.719221	0.198180	0.447371
C122	C	1.219221	0.698180	0.947371
C123	C	0.892101	0.025391	0.604833
C124	C	1.392101	0.525391	1.104833
C125	C	0.929712	-0.012206	0.552309
C126	C	1.429712	0.487794	1.052309
C127	C	0.909697	0.007789	0.447292
C128	C	1.409697	0.507789	0.947292
C129	C	0.852073	0.065386	0.394801
C130	C	1.352073	0.565386	0.894801
C131	C	0.947311	-0.029809	0.394762
C132	C	1.447311	0.470191	0.894762
C133	C	0.927299	-0.009810	0.289747
C134	C	1.427299	0.490190	0.789747
C135	C	0.832061	0.085385	0.289786
C136	C	1.332061	0.585385	0.789786
H137	H	0.067783	0.057322	0.164798
H138	H	0.567783	0.557322	0.664798
H139	H	0.785130	0.132282	0.247051
H140	H	1.285130	0.632282	0.747051
H141	H	0.937608	-0.578421	-0.000185
H142	H	1.437608	-0.078421	0.499815
H143	H	0.740544	0.176866	0.309330
H144	H	1.240544	0.676866	0.809330
H145	H	0.672291	0.245077	0.404636
H146	H	1.172291	0.745077	0.904636
Cl147	Cl	0.629168	0.288182	0.538925
Cl148	Cl	1.129168	0.788182	1.038925
Cl149	Cl	0.223690	0.051843	0.205098
Cl150	Cl	0.723690	0.551843	0.705098
H151	H	0.942209	-0.266524	-0.000159
H152	H	1.442209	0.233476	0.499841
H153	H	0.704766	-0.679606	-0.000185
H154	H	1.204766	-0.179606	0.499815
Cl155	Cl	0.674355	0.243046	0.775953
Cl156	Cl	1.174355	0.743046	1.275953
Cl157	Cl	0.889322	0.028180	0.775881
Cl158	Cl	1.389322	0.528180	1.275881
Cl159	Cl	0.963596	-0.730426	-0.000221
Cl160	Cl	1.463596	-0.230426	0.499779
H161	H	0.137121	0.122093	-0.165187
H162	H	0.637121	0.622093	0.334813
H163	H	0.706715	-0.547496	-0.000166
H164	H	1.206715	-0.047496	0.499834
Cl165	Cl	0.917261	0.000255	0.736853
Cl166	Cl	1.417261	0.500255	1.236853
H167	H	0.976635	-0.059102	0.595054
H168	H	1.476635	0.440898	1.095054
H169	H	0.944162	-0.134420	-0.000133
H170	H	1.444162	0.365580	0.499867
H171	H	0.957926	-0.040426	0.246982
H172	H	1.457926	0.459574	0.746982
Cl173	Cl	0.589605	0.136556	-0.205403
Cl174	Cl	1.089605	0.636556	0.294597
Cl175	Cl	0.425236	0.134130	-0.205421
Cl176	Cl	0.925236	0.634130	0.294579
Cl177	Cl	1.019761	-0.102208	0.460752
Cl178	Cl	1.519761	0.397792	0.960752
Cl179	Cl	-0.018783	0.127577	-0.205483
Cl180	Cl	0.481217	0.627577	0.294517
H181	H	0.511801	0.063887	0.164853
H182	H	1.011801	0.563887	0.664853
H183	H	0.643921	0.065846	0.164881
H184	H	1.143921	0.565846	0.664881
H185	H	0.711323	-0.235605	-0.000136
H186	H	1.211323	0.264395	0.499864
H187	H	0.713264	-0.103488	-0.000131
H188	H	1.213264	0.396512	0.499869
