data_functionalizedCrystal
_audit_creation_method	'MofGen! by Chris Wilmer'
_symmetry_space_group_name_H-M	'P1'
_symmetry_Int_Tables_number	1
_symmetry_cell_setting	triclinic
loop_
_symmetry_equiv_pos_as_xyz
  x,y,z
_cell_length_a	12.759394
_cell_length_b	11.169417
_cell_length_c	11.169409
_cell_angle_alpha	89.980176
_cell_angle_beta	90.034524
_cell_angle_gamma	89.984284
loop_
_atom_site_label
_atom_site_type_symbol
_atom_site_fract_x
_atom_site_fract_y
_atom_site_fract_z
Zn1	Zn	-0.418157	-1.834925	0.678525
Zn2	Zn	-0.593883	-1.834798	0.477834
Zn3	Zn	-0.418221	-1.634211	0.477859
Zn4	Zn	-0.593797	-1.634202	0.678479
O5	O	-0.506014	-1.734534	0.578174
O6	O	-0.441476	-2.002858	0.651911
O7	O	-0.570643	-1.808141	0.309887
O8	O	-0.271191	-1.660892	0.504507
O9	O	-0.570581	-2.002765	0.504465
O10	O	-0.271144	-1.808356	0.651935
O11	O	-0.441585	-1.660770	0.309906
O12	O	-0.441502	-1.466260	0.504463
O13	O	-0.570435	-1.660878	0.846435
O14	O	-0.570498	-1.466254	0.651857
O15	O	-0.441393	-1.808348	0.846468
O16	O	-0.740892	-1.808133	0.504420
O17	O	-0.740830	-1.660756	0.651833
C18	C	-0.505998	-1.422709	0.578159
C19	C	-0.506017	-1.289309	0.578180
C20	C	-0.778982	-1.734462	0.578145
C21	C	-0.895759	-1.734541	0.578173
C22	C	-0.505898	-1.734626	0.891217
C23	C	-0.505848	-1.734666	1.024617
C24	C	-0.895771	-1.888120	0.424787
C25	C	-0.950637	-1.964941	0.348108
C26	C	-1.060359	-1.965011	0.348140
C27	C	-1.115216	-1.888255	0.424863
C28	C	-1.060349	-1.811434	0.501541
C29	C	-0.950625	-1.811370	0.501498
C30	C	-1.060337	-1.657863	0.654932
C31	C	-0.950616	-1.657785	0.654895
C32	C	-1.115195	-1.581107	0.731654
C33	C	-1.060328	-1.504279	0.808329
C34	C	-0.950600	-1.504210	0.808292
C35	C	-0.895749	-1.580964	0.731574
C36	C	-0.231981	-1.734639	0.578229
C37	C	-0.115204	-1.734684	0.578253
C38	C	-0.506031	-2.047576	0.578190
C39	C	-0.506038	-2.180976	0.578197
C40	C	-0.506055	-1.734511	0.266349
C41	C	-0.505808	-1.734705	0.132950
H42	H	-0.905963	-2.027437	0.285643
H43	H	-1.204557	-1.888329	0.424893
O44	O	-1.113824	-2.039601	0.273776
C45	C	-1.222429	-2.023177	0.290244
H46	H	-1.237362	-1.983829	0.382837
H47	H	-1.264075	-2.113103	0.282200
H48	H	-1.253670	-1.959319	0.219012
H49	H	-0.806408	-1.580908	0.731529
H50	H	-1.105001	-1.441796	0.870795
H51	H	-0.806430	-1.888055	0.424737
O52	O	-1.221777	-1.581397	0.731693
C53	C	-1.258330	-1.696426	0.762639
H54	H	-1.195066	-1.765526	0.742165
H55	H	-1.331761	-1.717824	0.708543
H56	H	-1.277720	-1.698943	0.862230
H57	H	-0.905933	-1.441658	0.870738
