data_functionalizedCrystal
_audit_creation_method	'MofGen! by Chris Wilmer'
_symmetry_space_group_name_H-M	'P1'
_symmetry_Int_Tables_number	1
_symmetry_cell_setting	triclinic
loop_
_symmetry_equiv_pos_as_xyz
  x,y,z
_cell_length_a	11.792254
_cell_length_b	15.944493
_cell_length_c	10.268362
_cell_angle_alpha	90.000590
_cell_angle_beta	89.995475
_cell_angle_gamma	83.836821
loop_
_atom_site_label
_atom_site_type_symbol
_atom_site_fract_x
_atom_site_fract_y
_atom_site_fract_z
O1	O	1.505919	0.115182	-0.108281
O2	O	1.175479	0.127036	-0.108282
O3	O	1.349757	-0.001128	-0.108292
O4	O	1.331641	0.243346	-0.108271
O5	O	1.349742	-0.001133	0.108309
O6	O	1.175464	0.127031	0.108319
O7	O	1.505904	0.115177	0.108320
Cu8	Cu	1.340682	0.121103	0.128097
Cu9	Cu	1.340700	0.121110	-0.128059
O10	O	1.331626	0.243341	0.108330
C11	C	1.133187	0.126287	0.000018
C12	C	1.007193	0.124052	0.000017
C13	C	0.904872	0.122236	0.000011
C14	C	0.776504	0.119965	0.000010
C15	C	1.349009	-0.032429	0.000003
C16	C	1.346789	-0.125687	-0.000014
C17	C	1.449373	-0.360981	0.000011
C18	C	1.394061	-0.411798	-0.106784
C19	C	1.342676	-0.296427	0.000002
C20	C	1.394021	-0.411779	0.106767
C21	C	1.338711	-0.461355	0.000023
C22	C	1.287392	-0.346016	-0.106881
C23	C	1.287368	-0.345994	0.106766
C24	C	1.231977	-0.396778	-0.000055
C25	C	1.344963	-0.201417	-0.000011
C26	C	1.336415	-0.556362	0.000027
C27	C	1.548196	0.115926	0.000017
C28	C	1.674190	0.118161	0.000010
C29	C	1.332374	0.274642	0.000033
C30	C	1.334594	0.367900	0.000041
N31	N	1.340678	0.121098	0.308263
N32	N	1.340713	0.121108	-0.308225
C33	C	1.340694	0.121108	0.573933
C34	C	1.340682	0.121105	0.426095
H35	H	1.439127	-0.440536	-0.197072
H36	H	1.242365	-0.317398	-0.197264
C37	C	1.226543	-0.307138	0.228741
C38	C	1.120904	-0.242126	0.214204
C39	C	1.060091	-0.203268	0.336191
C40	C	1.104918	-0.229422	0.472716
C41	C	1.210563	-0.294437	0.487258
C42	C	1.271376	-0.333295	0.365271
H43	H	1.087715	-0.222762	0.113136
H44	H	0.981885	-0.155139	0.325425
H45	H	1.059900	-0.200657	0.563018
H46	H	1.243752	-0.313801	0.588327
H47	H	1.349582	-0.381424	0.376037
C48	C	1.107727	-0.418247	-0.000128
C49	C	1.027480	-0.388555	-0.113188
C50	C	0.903232	-0.410026	-0.113268
C51	C	0.859231	-0.461188	-0.000287
C52	C	0.939480	-0.490883	0.112782
C53	C	1.063728	-0.469412	0.112862
H54	H	1.060050	-0.350679	-0.196831
H55	H	0.843827	-0.388043	-0.196969
H56	H	0.767255	-0.477082	-0.000346
H57	H	0.906909	-0.528759	0.196424
H58	H	1.123133	-0.491394	0.196563
C59	C	1.454903	-0.450582	0.228742
C60	C	1.581629	-0.440225	0.252170
C61	C	1.642521	-0.479025	0.374137
C62	C	1.576686	-0.528183	0.472675
C63	C	1.449952	-0.538543	0.449249
C64	C	1.389061	-0.499743	0.327283
H65	H	1.630371	-0.403833	0.179224
H66	H	1.736337	-0.471356	0.391478
H67	H	1.621761	-0.556906	0.562962
H68	H	1.401211	-0.574935	0.522196
H69	H	1.295244	-0.507412	0.309942
H70	H	1.541279	-0.344935	-0.000096
