data_functionalizedCrystal
_audit_creation_method	'MofGen! by Chris Wilmer'
_symmetry_space_group_name_H-M	'P1'
_symmetry_Int_Tables_number	1
_symmetry_cell_setting	triclinic
loop_
_symmetry_equiv_pos_as_xyz
  x,y,z
_cell_length_a	19.288840
_cell_length_b	10.654545
_cell_length_c	17.766277
_cell_angle_alpha	89.996032
_cell_angle_beta	89.983415
_cell_angle_gamma	83.805722
loop_
_atom_site_label
_atom_site_type_symbol
_atom_site_fract_x
_atom_site_fract_y
_atom_site_fract_z
O1	O	0.922389	0.156507	-0.062716
O2	O	0.720265	0.177672	-0.062690
O3	O	0.825974	-0.015750	-0.062703
O4	O	0.816680	0.349929	-0.062703
O5	O	0.825955	-0.015760	0.062485
O6	O	0.720246	0.177663	0.062499
O7	O	0.922371	0.156497	0.062472
Cu8	Cu	0.821307	0.167079	0.073916
Cu9	Cu	0.821329	0.167090	-0.074134
O10	O	0.816662	0.349919	0.062486
C11	C	0.694374	0.176992	-0.000092
C12	C	0.617256	0.174963	-0.000082
C13	C	0.581057	0.173994	-0.068324
C14	C	0.508597	0.172074	-0.068333
C15	C	0.472342	0.171097	-0.000097
C16	C	0.508550	0.172074	0.068155
C17	C	0.581007	0.174007	0.068162
C18	C	0.362505	0.094477	0.052172
C19	C	0.290049	0.092536	0.052162
C20	C	0.248859	0.165142	-0.000116
C21	C	0.280135	0.239672	-0.052397
C22	C	0.352592	0.241605	-0.052390
C23	C	0.393774	0.169003	-0.000097
C24	C	0.134091	0.162093	-0.068373
C25	C	0.061629	0.160180	-0.068380
C26	C	0.061584	0.160168	0.068110
C27	C	0.134043	0.162093	0.068115
C28	C	0.170293	0.163049	-0.000129
C29	C	0.825282	-0.062538	-0.000110
C30	C	0.823240	-0.201937	-0.000114
C31	C	0.823269	-0.201935	-0.136599
C32	C	0.822326	-0.267424	-0.204840
C33	C	0.820408	-0.398401	-0.204841
C34	C	0.819429	-0.463893	-0.136593
C35	C	0.820372	-0.398404	-0.068351
C36	C	0.822292	-0.267424	-0.068358
C37	C	0.820338	-0.398405	0.068132
C38	C	0.822261	-0.267429	0.068134
C39	C	0.819360	-0.463897	0.136380
C40	C	0.820307	-0.398410	0.204624
C41	C	0.822226	-0.267424	0.204622
C42	C	0.823204	-0.201941	0.136376
C43	C	0.948261	0.157178	-0.000127
C44	C	1.025379	0.159206	-0.000142
C45	C	0.817353	0.396707	-0.000109
C46	C	0.819396	0.536107	-0.000110
N47	N	0.821296	0.167070	0.178047
N48	N	0.821345	0.167089	-0.178264
C49	C	0.868119	0.081464	0.217428
C50	C	0.868123	0.081459	0.296229
C51	C	0.821311	0.167080	0.335647
C52	C	0.774478	0.252692	0.296257
C53	C	0.774471	0.252687	0.217456
C54	C	0.812761	0.281502	0.460486
C55	C	0.812774	0.281509	0.539285
C56	C	0.821329	0.167095	0.578693
C57	C	0.829888	0.052669	0.539294
C58	C	0.829880	0.052664	0.460493
C59	C	0.821313	0.167094	0.421093
C60	C	0.868160	0.081476	0.703520
C61	C	0.868159	0.081469	0.782324
C62	C	0.774517	0.252713	0.782349
C63	C	0.774515	0.252709	0.703548
C64	C	0.821340	0.167092	0.664138
H65	H	0.246599	0.298800	-0.094964
Cl66	Cl	0.463080	0.170854	-0.154130
H67	H	0.822983	-0.214109	0.260192
H68	H	0.736389	0.322423	0.671481
Cl69	Cl	0.825621	-0.037283	0.136367
H70	H	0.479026	0.171282	0.123713
Cl71	Cl	0.825694	-0.037280	-0.136603
Cl72	Cl	0.391908	0.335302	-0.118107
H73	H	0.805809	0.374681	0.571358
H74	H	0.736399	0.322423	0.814443
H75	H	0.610480	0.174797	0.123735
Cl76	Cl	0.802069	0.425355	0.410952
Cl77	Cl	0.840631	-0.091177	0.410965
Cl78	Cl	0.715625	0.360326	0.345808
H79	H	0.906285	0.011757	0.671432
Cl80	Cl	0.823575	-0.185091	-0.290634
H81	H	0.396036	0.035349	0.094747
H82	H	0.906245	0.011747	0.185342
H83	H	0.836854	-0.040498	0.571379
H84	H	0.819634	-0.451720	-0.260409
Cl85	Cl	0.016012	0.158954	0.153895
H86	H	0.736341	0.322398	0.185392
H87	H	0.817859	-0.570539	-0.136599
H88	H	0.264591	0.031843	0.094728
H89	H	0.817794	-0.570545	0.136375
Cl90	Cl	0.926993	-0.026169	0.345745
Cl91	Cl	0.819069	-0.480745	0.290412
H92	H	0.610567	0.174773	-0.123894
Cl93	Cl	0.179664	0.163307	-0.154163
H94	H	0.032156	0.159399	-0.123953
H95	H	0.163518	0.162874	0.123685
H96	H	0.906286	0.011752	0.814388
