data_functionalizedCrystal
_audit_creation_method	'MofGen! by Chris Wilmer'
_symmetry_space_group_name_H-M	'P1'
_symmetry_Int_Tables_number	1
_symmetry_cell_setting	triclinic
loop_
_symmetry_equiv_pos_as_xyz
  x,y,z
_cell_length_a	12.759401
_cell_length_b	12.759400
_cell_length_c	12.759393
_cell_angle_alpha	89.968436
_cell_angle_beta	89.981504
_cell_angle_gamma	90.014845
loop_
_atom_site_label
_atom_site_type_symbol
_atom_site_fract_x
_atom_site_fract_y
_atom_site_fract_z
Zn1	Zn	1.606255	-0.418200	-0.593981
Zn2	Zn	1.606150	-0.593919	-0.418301
Zn3	Zn	1.430557	-0.418255	-0.418321
Zn4	Zn	1.430546	-0.593838	-0.593943
O5	O	1.518377	-0.506053	-0.506137
O6	O	1.753262	-0.441520	-0.570685
O7	O	1.582818	-0.570673	-0.271283
O8	O	1.453913	-0.271226	-0.441647
O9	O	1.753185	-0.570620	-0.441614
O10	O	1.582998	-0.271186	-0.570704
O11	O	1.453811	-0.441614	-0.271297
O12	O	1.283535	-0.441535	-0.441609
O13	O	1.453894	-0.570482	-0.740969
O14	O	1.283527	-0.570536	-0.570638
O15	O	1.582987	-0.441442	-0.740997
O16	O	1.582807	-0.740929	-0.441577
O17	O	1.453791	-0.740870	-0.570620
C18	C	1.245410	-0.506033	-0.506122
C19	C	1.128633	-0.506050	-0.506141
C20	C	1.518315	-0.779020	-0.506115
C21	C	1.518384	-0.895797	-0.506140
C22	C	1.073794	-0.573328	-0.573215
C23	C	0.964070	-0.573342	-0.573227
C24	C	0.964034	-0.438796	-0.439081
C25	C	1.073756	-0.438778	-0.439075
C26	C	1.073815	-0.651010	-0.650660
C27	C	0.964091	-0.651024	-0.650672
C28	C	1.585637	-0.950655	-0.439022
C29	C	1.585702	-1.060379	-0.439054
C30	C	1.451252	-1.060377	-0.573327
C31	C	1.451193	-0.950655	-0.573299
C32	C	1.652828	-0.895797	-0.371864
C33	C	1.720086	-0.950655	-0.304739
C34	C	1.720150	-1.060379	-0.304771
C35	C	1.652957	-1.115245	-0.371929
C36	C	1.792410	-0.506073	-0.506152
C37	C	1.909187	-0.506082	-0.506158
C38	C	1.518451	-0.505947	-0.780170
C39	C	1.518482	-0.505902	-0.896947
C40	C	1.518468	-0.232019	-0.506182
C41	C	1.518507	-0.115243	-0.506201
C42	C	1.585710	-0.438704	-0.951825
C43	C	1.585735	-0.438666	-1.061549
C44	C	1.451301	-0.573033	-1.061507
C45	C	1.451272	-0.573064	-0.951785
C46	C	1.663328	-0.361131	-0.951851
C47	C	1.663353	-0.361093	-1.061575
C48	C	1.518364	-0.506083	-0.233169
C49	C	1.518537	-0.505832	-0.116393
H50	H	0.919339	-0.384025	-0.384479
O51	O	1.386063	-0.638479	-0.898527
C52	C	1.408954	-0.743189	-0.925331
H53	H	1.492895	-0.748514	-0.955485
H54	H	1.352635	-0.770613	-0.989017
C55	C	1.293549	-0.806792	-0.790808
C56	C	1.396650	-0.813333	-0.827836
H57	H	1.285955	-0.850062	-0.730671
H58	H	1.278124	-0.736247	-0.772752
H59	H	1.246629	-0.829644	-0.843889
H60	H	1.443567	-0.790469	-0.774760
H61	H	1.412083	-0.883876	-0.845881
O62	O	0.923348	-0.616364	-0.742866
C63	C	0.812998	-0.618454	-0.737427
H64	H	0.787308	-0.615328	-0.651906
H65	H	0.782737	-0.693728	-0.774826
C66	C	0.799590	-0.527117	-0.901527
C67	C	0.768037	-0.523268	-0.796489
H68	H	0.771854	-0.468405	-0.937963
H69	H	0.873935	-0.525712	-0.905194
H70	H	0.774370	-0.589850	-0.932679
H71	H	0.793267	-0.460543	-0.765335
H72	H	0.693695	-0.524661	-0.792818
H73	H	1.744723	-0.382886	-1.091353
H74	H	0.934295	-0.732373	-0.628740
H75	H	1.652780	-0.806454	-0.371827
O76	O	1.386092	-1.113624	-0.638703
C77	C	1.408964	-1.086694	-0.743428
H78	H	1.492876	-1.056460	-0.748799
H79	H	1.352586	-1.023030	-0.770828
C80	C	1.293690	-1.221254	-0.806959
C81	C	1.396756	-1.184128	-0.813557
H82	H	1.286155	-1.281354	-0.850219
H83	H	1.278277	-1.239395	-0.736404
H84	H	1.246720	-1.168191	-0.829791
H85	H	1.443722	-1.237186	-0.790713
H86	H	1.412176	-1.165999	-0.884110
O87	O	1.109257	-0.625244	-0.747852
C88	C	1.072373	-0.699117	-0.821247
H89	H	0.998968	-0.738801	-0.789249
H90	H	1.135491	-0.760622	-0.835883
C91	C	1.136135	-0.594382	-0.964171
C92	C	1.045973	-0.643117	-0.924875
H93	H	1.119855	-0.559841	-1.028096
H94	H	1.160989	-0.544614	-0.914725
H95	H	1.188725	-0.645645	-0.976359
H96	H	0.993391	-0.591853	-0.912675
H97	H	1.021111	-0.692875	-0.974322
O98	O	1.637534	-0.264041	-0.916291
C99	C	1.720278	-0.224116	-0.854925
H100	H	1.796502	-0.264830	-0.877579
H101	H	1.703100	-0.238993	-0.768499
C102	C	1.637282	-0.055403	-0.846211
C103	C	1.730903	-0.105403	-0.874042
H104	H	1.643834	0.017825	-0.857999
H105	H	1.581533	-0.082302	-0.887551
H106	H	1.622977	-0.067812	-0.774191
H107	H	1.745200	-0.093005	-0.946063
H108	H	1.786655	-0.078499	-0.832714
O109	O	1.126864	-0.373381	-0.373832
C110	C	1.054896	-0.313992	-0.314663
H111	H	0.976679	-0.357036	-0.310943
H112	H	1.043245	-0.234255	-0.353290
C113	C	1.193749	-0.245820	-0.207442
C114	C	1.097683	-0.298691	-0.202866
H115	H	1.220143	-0.236376	-0.138482
H116	H	1.242236	-0.285827	-0.247307
H117	H	1.184026	-0.179377	-0.239636
H118	H	1.107410	-0.365137	-0.170684
H119	H	1.049198	-0.258694	-0.162993
O120	O	1.653124	-1.221831	-0.371801
C121	C	1.726917	-1.258490	-0.298184
H122	H	1.741626	-1.195300	-0.236793
H123	H	1.803515	-1.277855	-0.339916
C124	C	1.666121	-1.435342	-0.319728
C125	C	1.684179	-1.357735	-0.244321
H126	H	1.639761	-1.496564	-0.286505
H127	H	1.616407	-1.410646	-0.369328
H128	H	1.729957	-1.451467	-0.354498
H129	H	1.620342	-1.341602	-0.209561
H130	H	1.733881	-1.382431	-0.194713
H131	H	1.396579	-0.627712	-1.106169
O132	O	1.785257	-0.897201	-0.239543
C133	C	1.770799	-0.788593	-0.253922
H134	H	1.689693	-0.773646	-0.288258
H135	H	1.833070	-0.757356	-0.309913
C136	C	1.880066	-0.750702	-0.105439
C137	C	1.780446	-0.732343	-0.147603
H138	H	1.886021	-0.716002	-0.039858
H139	H	1.889810	-0.823873	-0.095753
H140	H	1.931948	-0.724671	-0.152108
H141	H	1.728568	-0.758385	-0.100939
H142	H	1.770694	-0.659175	-0.157278
H143	H	1.396431	-0.905989	-0.627954
H144	H	1.740599	-0.390300	-0.917815
H145	H	1.107829	-0.728262	-0.621376
H146	H	1.774922	-1.105041	-0.250123
H147	H	1.634239	-0.283784	-1.095623
