data_functionalizedCrystal
_audit_creation_method	'MofGen! by Chris Wilmer'
_symmetry_space_group_name_H-M	'P1'
_symmetry_Int_Tables_number	1
_symmetry_cell_setting	triclinic
loop_
_symmetry_equiv_pos_as_xyz
  x,y,z
_cell_length_a	19.121424
_cell_length_b	19.120786
_cell_length_c	16.120256
_cell_angle_alpha	90.308049
_cell_angle_beta	95.181730
_cell_angle_gamma	95.008527
loop_
_atom_site_label
_atom_site_type_symbol
_atom_site_fract_x
_atom_site_fract_y
_atom_site_fract_z
Zn1	Zn	1.045609	-0.252347	-0.405826
Zn2	Zn	1.545609	0.247653	0.094174
Zn3	Zn	1.046976	-0.363543	-0.260708
Zn4	Zn	1.546976	0.136457	0.239292
Zn5	Zn	0.933911	-0.251419	-0.272113
Zn6	Zn	1.433911	0.248581	0.227887
Zn7	Zn	0.922896	-0.375005	-0.405755
Zn8	Zn	1.422896	0.124995	0.094245
O9	O	0.987348	-0.310579	-0.336100
O10	O	1.487348	0.189421	0.163900
O11	O	1.144464	-0.262688	-0.381833
O12	O	1.644464	0.237312	0.118167
O13	O	1.037160	-0.343485	-0.145559
O14	O	1.537160	0.156515	0.354441
O15	O	0.952766	-0.153285	-0.294653
O16	O	1.452766	0.346715	0.205347
O17	O	1.145468	-0.344384	-0.275215
O18	O	1.645468	0.155616	0.224785
O19	O	1.034829	-0.153966	-0.392892
O20	O	1.534829	0.346034	0.107108
O21	O	0.954091	-0.261108	-0.153938
O22	O	1.454091	0.238892	0.346062
O23	O	0.833776	-0.272222	-0.294584
O24	O	1.333776	0.227778	0.205416
O25	O	0.933993	-0.363919	-0.522426
O26	O	1.433993	0.136081	-0.022426
O27	O	0.825684	-0.363020	-0.392770
O28	O	1.325684	0.136980	0.107230
O29	O	1.024149	-0.273802	-0.522478
O30	O	1.524149	0.226198	-0.022478
O31	O	1.026479	-0.463321	-0.275146
O32	O	1.526479	0.036679	0.224854
O33	O	0.935318	-0.471742	-0.381711
O34	O	1.435318	0.028258	0.118289
C35	C	0.804145	-0.318765	-0.344907
C36	C	1.304145	0.181235	0.155093
C37	C	0.725768	-0.322284	-0.348694
C38	C	1.225768	0.177716	0.151306
C39	C	0.979870	-0.493009	-0.327200
C40	C	1.479870	0.006991	0.172800
C41	C	0.976734	-0.571051	-0.323417
C42	C	1.476734	-0.071051	0.176583
C43	C	0.282273	-0.344546	-0.372737
C44	C	0.782273	0.155454	0.127263
C45	C	0.355917	-0.341244	-0.369164
C46	C	0.855917	0.158756	0.130836
C47	C	0.396928	-0.292250	-0.316349
C48	C	0.896928	0.207750	0.183651
C49	C	0.364292	-0.246562	-0.267098
C50	C	0.864292	0.253438	0.232902
C51	C	0.290649	-0.249868	-0.270668
C52	C	0.790649	0.250132	0.229332
C53	C	0.619490	-0.279902	-0.303013
C54	C	1.119490	0.220098	0.196987
C55	C	0.693137	-0.276598	-0.299449
C56	C	1.193137	0.223402	0.200551
C57	C	0.684757	-0.371281	-0.401514
C58	C	1.184757	0.128719	0.098486
C59	C	0.611113	-0.374580	-0.405083
C60	C	1.111113	0.125420	0.094917
C61	C	0.578484	-0.328894	-0.355829
C62	C	1.078484	0.171106	0.144171
C63	C	0.472204	-0.288872	-0.312696
C64	C	0.972204	0.211128	0.187304
C65	C	0.503209	-0.332276	-0.359477
C66	C	1.003209	0.167724	0.140523
C67	C	1.017952	-0.608013	-0.372833
C68	C	1.517952	-0.108013	0.127167
C69	C	1.015002	-0.681343	-0.369280
C70	C	1.515002	-0.181343	0.130720
C71	C	0.970839	-0.717709	-0.316307
C72	C	1.470839	-0.217709	0.183693
C73	C	0.929617	-0.680741	-0.266890
C74	C	1.429617	-0.180741	0.233110
C75	C	0.932563	-0.607413	-0.270448
C76	C	1.432563	-0.107413	0.229552
C77	C	0.959804	-0.939097	-0.303008
C78	C	1.459804	-0.439097	0.196992
C79	C	0.956863	-1.012430	-0.299452
C80	C	1.456863	-0.512430	0.200548
C81	C	1.042248	-1.013026	-0.401844
C82	C	1.542248	-0.513026	0.098156
C83	C	1.045194	-0.939697	-0.405393
C84	C	1.545194	-0.439697	0.094607
C85	C	1.003969	-0.902736	-0.355979
C86	C	1.503969	-0.402736	0.144021
C87	C	0.967825	-0.792663	-0.312672
C88	C	1.467825	-0.292663	0.187328
C89	C	1.006980	-0.827783	-0.359619
C90	C	1.506980	-0.327783	0.140381
C91	C	1.171267	-0.302361	-0.327259
C92	C	1.671267	0.197639	0.172741
C93	C	1.249642	-0.298859	-0.323492
C94	C	1.749642	0.201141	0.176508
C95	C	0.977690	-0.320242	-0.553547
C96	C	1.477690	0.179758	-0.053547
C97	C	0.973574	-0.324361	-0.646210
C98	C	1.473574	0.175639	-0.146210
C99	C	0.994874	-0.127436	-0.345053
C100	C	1.494874	0.372564	0.154947
C101	C	0.998081	-0.049392	-0.348868
C102	C	1.498081	0.450608	0.151132
C103	C	1.008811	-0.289085	-0.857182
C104	C	1.508811	0.210915	-0.357182
C105	C	0.966037	-0.331851	-0.815863
C106	C	1.466037	0.168149	-0.315863
C107	C	0.970232	-0.327682	-0.721460
C108	C	1.470232	0.172318	-0.221460
C109	C	1.004618	-0.293253	-0.951594
C110	C	1.504618	0.206747	-0.451594
C111	C	0.997012	-0.300900	-0.119500
C112	C	1.497012	0.199100	0.380500
C113	C	1.001272	-0.296578	-0.026841
C114	C	1.501272	0.203422	0.473159
H115	H	0.382481	-0.378448	-0.409262
H116	H	0.882481	0.121552	0.090738
H117	H	1.048572	-0.711434	-0.409512
H118	H	1.548572	-0.211434	0.090488
H119	H	1.042935	-0.798173	-0.402753
H120	H	1.542935	-0.298173	0.097247
H121	H	0.920896	-1.042037	-0.256315
H122	H	1.420896	-0.542037	0.243685
H123	H	0.248886	-0.384438	-0.415750
H124	H	0.748886	0.115562	0.084250
O125	O	1.061493	-0.236446	-0.810128
O126	O	1.561493	0.263554	-0.310128
H127	H	1.092183	-0.205756	-0.854956
H128	H	1.592183	0.294244	-0.354956
O129	O	0.913353	-0.384499	-0.862913
O130	O	1.413353	0.115501	-0.362913
H131	H	0.923907	-0.438345	-0.842994
H132	H	1.423907	0.061655	-0.342994
H133	H	1.075810	-1.043128	-0.442075
H134	H	1.575810	-0.543128	0.057925
H135	H	0.931869	-0.822280	-0.269539
H136	H	1.431869	-0.322280	0.230461
H137	H	0.469815	-0.372168	-0.402476
H138	H	0.969815	0.127832	0.097524
H139	H	0.577727	-0.414477	-0.448088
H140	H	1.077727	0.085523	0.051912
H141	H	0.711332	-0.408476	-0.441613
H142	H	1.211332	0.091524	0.058387
H143	H	0.592932	-0.242704	-0.262904
H144	H	1.092932	0.257296	0.237096
O145	O	0.737375	-0.223757	-0.242477
O146	O	1.237375	0.276243	0.257523
H147	H	0.702315	-0.192548	-0.208821
H148	H	1.202315	0.307452	0.291179
O149	O	1.092828	-0.900479	-0.462531
O150	O	1.592828	-0.400479	0.037469
H151	H	1.087957	-0.843279	-0.456697
H152	H	1.587957	-0.343279	0.043303
O153	O	0.408520	-0.193716	-0.210132
O154	O	0.908520	0.306284	0.289868
H155	H	0.465211	-0.199085	-0.215929
H156	H	0.965211	0.300915	0.284071
H157	H	0.264082	-0.212663	-0.230569
H158	H	0.764082	0.287337	0.269431
H159	H	0.505603	-0.248981	-0.269695
H160	H	1.005603	0.251019	0.230305
H161	H	1.053918	-0.578409	-0.415965
H162	H	1.553918	-0.078409	0.084035
O163	O	0.915358	-0.899234	-0.249697
O164	O	1.415358	-0.399234	0.250303
H165	H	0.884165	-0.936842	-0.212254
H166	H	1.384165	-0.436842	0.287746
H167	H	0.893655	-0.710356	-0.223762
H168	H	1.393655	-0.210356	0.276238
O169	O	0.888114	-0.567541	-0.217143
O170	O	1.388114	-0.067541	0.282857
H171	H	0.856915	-0.605145	-0.179702
H172	H	1.356915	-0.105145	0.320298
