data_functionalizedCrystal
_audit_creation_method	'MofGen! by Chris Wilmer'
_symmetry_space_group_name_H-M	'P1'
_symmetry_Int_Tables_number	1
_symmetry_cell_setting	triclinic
loop_
_symmetry_equiv_pos_as_xyz
  x,y,z
_cell_length_a	20.919319
_cell_length_b	14.395555
_cell_length_c	14.395555
_cell_angle_alpha	90.000811
_cell_angle_beta	57.454678
_cell_angle_gamma	62.602722
loop_
_atom_site_label
_atom_site_type_symbol
_atom_site_fract_x
_atom_site_fract_y
_atom_site_fract_z
Zr1	Zr	0.700576	0.934800	-0.161220
O2	O	0.834088	0.794086	-0.317029
O3	O	0.567057	0.972660	-0.108263
O4	O	0.700573	0.980270	-0.309545
O5	O	0.700577	0.786475	0.037120
O6	O	0.700577	1.133137	-0.309549
O7	O	0.700573	0.786476	-0.115747
O8	O	0.461742	1.119524	0.050508
O9	O	0.939413	0.800088	-0.322937
O10	O	0.621981	1.109265	-0.091955
O11	O	0.621981	0.995181	0.022131
O12	O	0.779179	1.004141	-0.214852
O13	O	0.779179	0.890057	-0.100767
Zr14	Zr	0.700591	1.178605	0.082579
Zr15	Zr	0.700583	1.178606	-0.161226
Zr16	Zr	0.700583	0.934799	0.082585
Zr17	Zr	0.868556	0.944373	-0.170642
Zr18	Zr	0.532611	1.169031	0.092001
O19	O	0.834110	1.140745	0.029621
O20	O	0.834099	1.140747	-0.317038
O21	O	0.834099	0.794084	0.029630
O22	O	0.567078	1.319318	0.238388
O23	O	0.567067	1.319320	-0.108272
O24	O	0.567067	0.972658	0.238397
O25	O	0.700589	1.326930	-0.115761
O26	O	0.700594	1.133134	0.230903
O27	O	0.700589	0.980267	0.230907
O28	O	0.700594	1.326929	0.037106
O29	O	0.939419	0.993882	-0.322942
O30	O	0.461748	1.119523	0.244301
O31	O	0.461754	1.313316	0.244296
O32	O	0.461748	1.313317	0.050503
O33	O	0.939419	0.800087	-0.129144
O34	O	0.939425	0.993881	-0.129149
O35	O	0.621988	1.109263	0.136211
O36	O	0.621988	1.223347	0.022125
O37	O	0.779186	1.118224	-0.100772
O38	O	0.779186	1.004140	0.013313
C39	C	0.490466	1.044728	-0.027535
C40	C	0.419154	1.040664	-0.023535
C41	C	0.015540	1.015071	0.002531
C42	C	0.082589	1.018833	-0.001300
C43	C	0.116115	1.080259	-0.062775
C44	C	0.082582	1.137935	-0.120413
C45	C	0.015529	1.134179	-0.116575
C46	C	0.318568	1.094584	-0.077336
C47	C	0.385627	1.098334	-0.081172
C48	C	0.385628	0.979232	0.037944
C49	C	0.318578	0.975476	0.041770
C50	C	0.285047	1.033157	-0.015863
C51	C	0.184653	1.084102	-0.066694
C52	C	0.216506	1.029319	-0.011936
C53	C	0.700574	0.751738	-0.039313
C54	C	0.700571	0.648236	-0.039310
C55	C	0.614860	0.644965	0.027697
C56	C	0.657709	0.554391	0.070379
C57	C	0.657725	0.554382	-0.081959
C58	C	0.743421	0.559025	0.003434
C59	C	0.743424	0.559029	-0.148963
C60	C	0.786336	0.468442	-0.106312
C61	C	0.910701	1.068677	-0.051106
C62	C	0.982013	1.072741	-0.055106
C63	C	0.700574	1.056704	-0.344284
C64	C	0.700571	1.056705	-0.447785
C65	C	0.700593	1.361666	-0.039328
C66	C	0.700596	1.465168	-0.039331
C67	C	0.614860	1.114028	-0.441365
C68	C	0.657704	1.009199	-0.536787
C69	C	0.657729	1.161508	-0.536792
C70	C	0.743416	0.951812	-0.541845
C71	C	0.743429	1.104198	-0.541834
C72	C	0.786336	0.999308	-0.637277
C73	C	0.700593	1.056701	0.265642
C74	C	0.700596	1.056700	0.369144
C75	C	0.490475	1.349692	-0.027543
C76	C	0.419166	1.449130	-0.023545
C77	C	0.490475	1.044726	0.277428
C78	C	0.419166	1.040661	0.384930
C79	C	0.490485	1.349690	0.277420
C80	C	0.419179	1.449128	0.384919
C81	C	0.910682	0.763714	-0.356062
C82	C	0.981988	0.664277	-0.463561
C83	C	0.910692	0.763713	-0.051099
C84	C	0.982000	0.664275	-0.055096
C85	C	0.910692	1.068678	-0.356069
C86	C	0.982000	1.072743	-0.463571
C87	C	0.385675	1.436277	-0.081227
C88	C	0.318682	1.529701	-0.077494
C89	C	0.285177	1.635976	-0.016072
C90	C	0.318675	1.648827	0.041611
C91	C	0.385671	1.555405	0.037870
C92	C	0.385683	1.098303	0.494973
C93	C	0.318690	1.094480	0.595991
C94	C	0.285177	1.033021	0.586964
C95	C	0.318668	0.975373	0.476909
C96	C	0.385664	0.979190	0.375893
C97	C	0.385693	1.555385	0.375851
C98	C	0.318703	1.648827	0.476847
C99	C	0.285196	1.636009	0.586912
C100	C	0.318688	1.529740	0.595979
C101	C	0.385682	1.436301	0.494983
C102	C	1.015482	0.558020	-0.454492
C103	C	1.082492	0.464579	-0.555490
C104	C	1.116003	0.477398	-0.665555
C105	C	1.082506	0.583666	-0.674622
C106	C	1.015502	0.677105	-0.573625
C107	C	1.015498	0.677128	0.002575
C108	C	1.082510	0.583705	-0.001186
C109	C	1.116017	0.477430	-0.062611
C110	C	1.082517	0.464579	-0.120289
C111	C	1.015511	0.558001	-0.116535
C112	C	1.015492	1.134212	-0.454506
C113	C	1.082485	1.138053	-0.555506
C114	C	1.115990	1.080418	-0.665569
C115	C	1.082492	1.018947	-0.674631
C116	C	1.015496	1.015113	-0.573633
H117	H	0.291284	0.925458	0.091831
H118	H	1.109809	0.378037	-0.170300
Br119	Br	0.970015	0.540592	-0.305131
Br120	Br	0.194276	1.762832	0.723969
Br121	Br	0.194252	1.762754	-0.011008
Br122	Br	1.127981	0.940723	-0.824013
Br123	Br	1.206940	0.350575	-0.802613
Br124	Br	0.431145	1.181725	0.507256
Br125	Br	1.127993	0.601044	-0.824005
H126	H	0.291397	1.519319	0.685607
Br127	Br	0.970035	1.212441	-0.305148
Br128	Br	0.803748	0.564086	-0.303477
H129	H	0.779612	0.863133	-0.543051
Br130	Br	0.128078	1.221306	-0.203839
Br131	Br	0.431094	0.900959	0.226554
Br132	Br	-0.029982	1.212463	-0.194785
H133	H	0.779624	1.144399	-0.542890
Br134	Br	0.970049	0.821308	-0.585953
Br135	Br	1.127936	1.221477	-0.543180
H136	H	0.858872	0.392948	-0.162977
H137	H	0.621493	1.250145	-0.535660
Br138	Br	0.273234	1.512234	-0.155782
H139	H	0.621486	0.551400	0.163103
Br140	Br	0.431111	1.572868	0.116168
Br141	Br	0.431115	1.292097	0.507312
Br142	Br	0.597329	0.942227	-0.534953
Br143	Br	0.803761	0.563831	0.063715
H144	H	0.291430	1.141428	0.685591
Br145	Br	0.431158	1.572813	0.226489
Br146	Br	1.206955	0.350653	-0.067694
Br147	Br	0.907232	0.918396	-0.776778
Br148	Br	0.273176	0.891971	0.464678
H149	H	1.109754	0.378059	-0.548086
H150	H	0.230625	1.029922	0.669226
H151	H	0.988222	0.763654	0.052602
Br152	Br	0.431134	1.292058	-0.164598
H153	H	0.291385	1.735369	0.091618
Br154	Br	0.273262	1.793035	0.464516
H155	H	1.170544	1.083548	-0.747799
Br156	Br	0.431128	1.181702	-0.164609
Br157	Br	0.431134	0.900958	0.116160
Br158	Br	1.127959	0.601172	0.077102
Br159	Br	0.970053	0.540536	-0.194805
Br160	Br	0.970059	0.931673	-0.585956
H161	H	0.109878	0.971879	0.045642
Br162	Br	0.273095	1.172832	-0.155590
Br163	Br	-0.029947	0.931693	0.085955
H164	H	0.189204	0.979310	0.038121
H165	H	0.211957	1.134114	-0.116751
H166	H	0.542383	0.720590	0.084433
H167	H	0.542385	1.162416	-0.357541
Br168	Br	0.597319	0.549417	-0.142067
