data_functionalizedCrystal
_audit_creation_method	'MofGen! by Chris Wilmer'
_symmetry_space_group_name_H-M	'P1'
_symmetry_Int_Tables_number	1
_symmetry_cell_setting	triclinic
loop_
_symmetry_equiv_pos_as_xyz
  x,y,z
_cell_length_a	18.101398
_cell_length_b	25.639240
_cell_length_c	18.101390
_cell_angle_alpha	89.957963
_cell_angle_beta	89.987205
_cell_angle_gamma	90.030910
loop_
_atom_site_label
_atom_site_type_symbol
_atom_site_fract_x
_atom_site_fract_y
_atom_site_fract_z
Zn1	Zn	1.132101	-0.208157	-0.418594
Zn2	Zn	1.465434	0.125176	-0.085261
Zn3	Zn	1.798768	0.458510	0.248073
Zn4	Zn	1.131997	-0.295600	-0.294733
Zn5	Zn	1.465330	0.037733	0.038601
Zn6	Zn	1.798663	0.371066	0.371934
Zn7	Zn	1.008263	-0.208178	-0.294777
Zn8	Zn	1.341597	0.125155	0.038556
Zn9	Zn	1.674930	0.458489	0.371890
Zn10	Zn	1.008207	-0.295561	-0.418543
Zn11	Zn	1.341541	0.037773	-0.085210
Zn12	Zn	1.674874	0.371106	0.248124
O13	O	1.070142	-0.251874	-0.356662
O14	O	1.403475	0.081459	-0.023328
O15	O	1.736809	0.414793	0.310005
O16	O	1.235720	-0.219765	-0.402167
O17	O	1.569053	0.113569	-0.068833
O18	O	1.902387	0.446902	0.264500
O19	O	1.115563	-0.284029	-0.191106
O20	O	1.448896	0.049304	0.142228
O21	O	1.782230	0.382637	0.475561
O22	O	1.024758	-0.135010	-0.311241
O23	O	1.358091	0.198323	0.022092
O24	O	1.691425	0.531657	0.355425
O25	O	1.235643	-0.284009	-0.311166
O26	O	1.568977	0.049324	0.022167
O27	O	1.902310	0.382658	0.355501
O28	O	1.115741	-0.134995	-0.402209
O29	O	1.449074	0.198339	-0.068876
O30	O	1.782408	0.531672	0.264457
O31	O	1.024657	-0.219800	-0.191138
O32	O	1.357990	0.113533	0.142195
O33	O	1.691323	0.446866	0.475529
O34	O	0.904623	-0.219762	-0.311192
O35	O	1.237956	0.113572	0.022142
O36	O	1.571290	0.446905	0.355475
O37	O	1.024662	-0.283941	-0.522183
O38	O	1.357996	0.049393	-0.188849
O39	O	1.691329	0.382726	0.144484
O40	O	0.904582	-0.283961	-0.402122
O41	O	1.237915	0.049372	-0.068789
O42	O	1.571248	0.382706	0.264545
O43	O	1.115687	-0.219726	-0.522220
O44	O	1.449020	0.113607	-0.188887
O45	O	1.782353	0.446941	0.144446
O46	O	1.115509	-0.368760	-0.311116
O47	O	1.448842	-0.035427	0.022217
O48	O	1.782175	0.297906	0.355550
O49	O	1.024561	-0.368731	-0.402079
O50	O	1.357894	-0.035398	-0.068746
O51	O	1.691228	0.297936	0.264587
C52	C	0.877732	-0.251860	-0.356657
C53	C	1.211065	0.081474	-0.023323
C54	C	1.544398	0.414807	0.310010
C55	C	0.795418	-0.251866	-0.356672
C56	C	1.128751	0.081467	-0.023339
C57	C	1.462084	0.414801	0.309995
C58	C	1.070037	-0.387717	-0.356604
C59	C	1.403371	-0.054383	-0.023270
C60	C	1.736704	0.278950	0.310063
C61	C	1.070060	-0.445831	-0.356604
C62	C	1.403394	-0.112497	-0.023270
C63	C	1.736727	0.220836	0.310063
C64	C	0.644709	-0.251876	-0.356671
C65	C	0.978042	0.081458	-0.023337
C66	C	1.311376	0.414791	0.309996
C67	C	0.613354	-0.292331	-0.413793
C68	C	0.946688	0.041003	-0.080460
C69	C	1.280021	0.374336	0.252874
C70	C	0.527736	-0.292494	-0.413624
C71	C	0.861069	0.040839	-0.080290
C72	C	1.194402	0.374172	0.253043
C73	C	0.496327	-0.251885	-0.356671
C74	C	0.829660	0.081448	-0.023337
C75	C	1.162993	0.414781	0.309996
C76	C	0.527381	-0.266593	-0.278526
C77	C	0.860714	0.066740	0.054808
C78	C	1.194047	0.400073	0.388141
C79	C	0.613026	-0.266882	-0.278856
C80	C	0.946359	0.066452	0.054477
C81	C	1.279692	0.399785	0.387811
C82	C	0.613190	-0.196613	-0.377011
C83	C	0.946523	0.136721	-0.043678
C84	C	1.279856	0.470054	0.289655
C85	C	0.527539	-0.196915	-0.378732
C86	C	0.860873	0.136418	-0.045399
C87	C	1.194206	0.469751	0.287934
C88	C	0.412467	-0.251890	-0.356666
C89	C	0.745800	0.081443	-0.023333
C90	C	1.079134	0.414777	0.310001
C91	C	0.728569	-0.251873	-0.356670
C92	C	1.061902	0.081461	-0.023337
C93	C	1.395235	0.414794	0.309996
C94	C	1.117541	-0.806147	-0.404114
C95	C	1.450874	-0.472814	-0.070781
C96	C	1.784207	-0.139481	0.262553
C97	C	1.117562	-0.860751	-0.404129
C98	C	1.450896	-0.527418	-0.070796
C99	C	1.784229	-0.194085	0.262538
O100	O	1.157807	-0.888949	-0.444465
O101	O	1.491140	-0.555615	-0.111131
O102	O	1.824474	-0.222282	0.222202
N103	N	1.070245	-0.888113	-0.356733
N104	N	1.403578	-0.554780	-0.023400
N105	N	1.736912	-0.221446	0.309933
C106	C	1.022897	-0.860868	-0.309324
C107	C	1.356230	-0.527534	0.024009
C108	C	1.689564	-0.194201	0.357342
O109	O	0.982651	-0.889155	-0.269012
O110	O	1.315985	-0.555821	0.064321
O111	O	1.649318	-0.222488	0.397654
C112	C	1.022872	-0.806264	-0.309314
C113	C	1.356205	-0.472931	0.024020
C114	C	1.689539	-0.139598	0.357353
C115	C	1.070198	-0.778905	-0.356707
C116	C	1.403531	-0.445572	-0.023374
C117	C	1.736865	-0.112239	0.309959
C118	C	1.164862	-0.778788	-0.451505
C119	C	1.498195	-0.445455	-0.118171
C120	C	1.831529	-0.112122	0.215162
C121	C	1.164841	-0.724188	-0.451488
C122	C	1.498174	-0.390855	-0.118155
C123	C	1.831508	-0.057521	0.215178
C124	C	1.117498	-0.696946	-0.404082
C125	C	1.450832	-0.363613	-0.070748
C126	C	1.784165	-0.030279	0.262585
C127	C	1.070177	-0.724305	-0.356691
C128	C	1.403510	-0.390972	-0.023358
C129	C	1.736844	-0.057638	0.309975
C130	C	0.975521	-0.779020	-0.261909
C131	C	1.308855	-0.445686	0.071424
C132	C	1.642188	-0.112353	0.404758
C133	C	0.975500	-0.724413	-0.261903
C134	C	1.308833	-0.391079	0.071431
C135	C	1.642167	-0.057746	0.404764
C136	C	1.022826	-0.697054	-0.309297
C137	C	1.356159	-0.363721	0.024037
C138	C	1.689492	-0.030387	0.357370
C139	C	1.022813	-0.642463	-0.309268
C140	C	1.356147	-0.309129	0.024065
C141	C	1.689480	0.024204	0.357398
N142	N	1.070131	-0.615101	-0.356664
N143	N	1.403464	-0.281768	-0.023331
N144	N	1.736798	0.051566	0.310002
C145	C	1.117473	-0.642343	-0.404071
C146	C	1.450807	-0.309009	-0.070738
C147	C	1.784140	0.024324	0.262596
C148	C	1.022952	-0.975538	-0.309352
C149	C	1.356286	-0.642205	0.023982
C150	C	1.689619	-0.308871	0.357315
C151	C	1.022981	-1.030140	-0.309358
C152	C	1.356314	-0.696807	0.023975
C153	C	1.689647	-0.363474	0.357309
C154	C	1.117645	-1.030021	-0.404164
C155	C	1.450978	-0.696687	-0.070831
C156	C	1.784312	-0.363354	0.262503
C157	C	1.117620	-0.975417	-0.404153
C158	C	1.450953	-0.642084	-0.070820
C159	C	1.784287	-0.308751	0.262513
C160	C	1.070270	-0.948177	-0.356747
C161	C	1.403603	-0.614843	-0.023414
C162	C	1.736937	-0.281510	0.309919
C163	C	1.117426	-0.527678	-0.404033
C164	C	1.450759	-0.194344	-0.070700
C165	C	1.784093	0.138989	0.262634
C166	C	1.117403	-0.473072	-0.404010
C167	C	1.450736	-0.139739	-0.070677
C168	C	1.784070	0.193594	0.262656
C169	C	1.022736	-0.473197	-0.309207
C170	C	1.356069	-0.139864	0.024126
C171	C	1.689403	0.193470	0.357459
C172	C	1.022762	-0.527798	-0.309227
C173	C	1.356095	-0.194464	0.024106
C174	C	1.689428	0.138869	0.357440
C175	C	1.070109	-0.555037	-0.356646
C176	C	1.403442	-0.221703	-0.023312
C177	C	1.736776	0.111630	0.310021
O178	O	0.982587	-0.614231	-0.268955
O179	O	1.315920	-0.280897	0.064378
O180	O	1.649254	0.052436	0.397711
O181	O	1.157705	-0.614049	-0.444383
O182	O	1.491039	-0.280716	-0.111050
O183	O	1.824372	0.052618	0.222284
C184	C	1.263304	-0.251889	-0.356667
C185	C	1.596637	0.081444	-0.023334
C186	C	1.929971	0.414778	0.309999
C187	C	1.345618	-0.251895	-0.356670
C188	C	1.678951	0.081438	-0.023336
C189	C	2.012285	0.414771	0.309997
C190	C	1.070180	-0.251827	-0.549824
C191	C	1.403513	0.081507	-0.216490
C192	C	1.736846	0.414840	0.116843
C193	C	1.070196	-0.251806	-0.632138
C194	C	1.403529	0.081527	-0.298804
C195	C	1.736862	0.414860	0.034529
C196	C	1.070267	-0.115501	-0.356736
C197	C	1.403601	0.217832	-0.023403
C198	C	1.736934	0.551166	0.309931
C199	C	1.070321	-0.057387	-0.356768
C200	C	1.403654	0.275946	-0.023434
C201	C	1.736987	0.609280	0.309899
C202	C	1.070222	-0.251790	-0.782846
C203	C	1.403556	0.081543	-0.449513
C204	C	1.736889	0.414877	-0.116180
C205	C	1.127494	-0.211384	-0.814224
C206	C	1.460828	0.121949	-0.480890
C207	C	1.794161	0.455283	-0.147557
C208	C	1.127734	-0.211493	-0.899842
C209	C	1.461067	0.121840	-0.566509
C210	C	1.794400	0.455173	-0.233175
C211	C	1.070248	-0.251773	-0.931229
C212	C	1.403582	0.081560	-0.597896
C213	C	1.736915	0.414894	-0.264562
C214	C	1.091122	-0.306920	-0.900104
C215	C	1.424455	0.026413	-0.566771
C216	C	1.757788	0.359746	-0.233437
C217	C	1.091522	-0.306696	-0.814459
C218	C	1.424856	0.026637	-0.481126
C219	C	1.758189	0.359970	-0.147793
C220	C	0.991938	-0.237527	-0.814413
C221	C	1.325271	0.095807	-0.481080
C222	C	1.658604	0.429140	-0.147747
C223	C	0.992373	-0.236301	-0.900065
C224	C	1.325706	0.097032	-0.566731
C225	C	1.659039	0.430365	-0.233398
C226	C	1.070262	-0.251767	-1.015088
C227	C	1.403595	0.081567	-0.681755
C228	C	1.736928	0.414900	-0.348422
C229	C	1.070211	-0.251800	-0.698987
C230	C	1.403544	0.081533	-0.365653
C231	C	1.736877	0.414867	-0.032320
C232	C	1.070147	-0.251884	-0.164251
C233	C	1.403481	0.081450	0.169082
C234	C	1.736814	0.414783	0.502416
C235	C	1.070275	-0.251757	-0.081937
C236	C	1.403608	0.081577	0.251396
C237	C	1.736941	0.414910	0.584729
H238	H	0.506740	-0.283319	-0.471557
H239	H	0.840073	0.050014	-0.138224
H240	H	1.173407	0.383348	0.195110
H241	H	1.156156	-0.953145	-0.442746
H242	H	1.489490	-0.619812	-0.109412
H243	H	1.822823	-0.286478	0.223921
H244	H	1.114693	-0.170609	-0.920889
H245	H	1.448026	0.162724	-0.587556
H246	H	1.781360	0.496058	-0.254223
F247	F	0.641440	-0.345552	-0.396370
F248	F	0.974773	-0.012218	-0.063037
F249	F	1.308107	0.321115	0.270296
F250	F	0.499591	-0.155436	-0.328367
F251	F	0.832924	0.177897	0.004967
F252	F	1.166257	0.511231	0.338300
H253	H	0.984231	-0.550074	-0.270629
H254	H	1.317564	-0.216741	0.062704
H255	H	1.650898	0.116592	0.396037
F256	F	0.640322	-0.280488	-0.489750
F257	F	0.973656	0.052846	-0.156417
F258	F	1.306989	0.386179	0.176916
H259	H	1.114611	-0.170374	-0.793662
H260	H	1.447944	0.162960	-0.460328
H261	H	1.781277	0.496293	-0.126995
F262	F	0.971788	-0.183255	-0.926660
F263	F	1.305121	0.150078	-0.593327
F264	F	1.638455	0.483412	-0.259993
H265	H	0.984396	-0.953361	-0.270742
H266	H	1.317730	-0.620028	0.062591
H267	H	1.651063	-0.286695	0.395925
H268	H	1.155944	-0.450799	-0.442604
H269	H	1.489277	-0.117465	-0.109271
H270	H	1.822611	0.215868	0.224063
H271	H	0.633469	-0.166474	-0.335411
H272	H	0.966802	0.166859	-0.002077
H273	H	1.300136	0.500192	0.331256
H274	H	0.632967	-0.307271	-0.261666
H275	H	0.966300	0.026062	0.071668
H276	H	1.299633	0.359396	0.405001
F277	F	0.936165	-0.275984	-0.787875
F278	F	1.269499	0.057349	-0.454542
F279	F	1.602832	0.390682	-0.121208
F280	F	1.038280	-0.347341	-0.926671
F281	F	1.371613	-0.014008	-0.593338
F282	F	1.704946	0.319325	-0.260004
F283	F	0.641453	-0.179050	-0.450239
F284	F	0.974787	0.154284	-0.116906
F285	F	1.308120	0.487617	0.216427
F286	F	1.202887	-0.223596	-0.786105
F287	F	1.536221	0.109737	-0.452772
F288	F	1.869554	0.443070	-0.119438
F289	F	0.501015	-0.182412	-0.453903
F290	F	0.834349	0.150922	-0.120570
F291	F	1.167682	0.484255	0.212763
F292	F	1.167819	-0.556660	-0.454500
F293	F	1.501153	-0.223327	-0.121167
F294	F	1.834486	0.110007	0.212166
H295	H	0.633767	-0.238675	-0.234834
H296	H	0.967101	0.094658	0.098499
H297	H	1.300434	0.427991	0.431832
F298	F	1.215208	-0.695077	-0.501936
F299	F	1.548541	-0.361744	-0.168603
F300	F	1.881874	-0.028411	0.164730
F301	F	1.168031	-1.059023	-0.454620
F302	F	1.501364	-0.725690	-0.121286
F303	F	1.834697	-0.392356	0.212047
H304	H	1.203414	-0.800963	-0.490113
H305	H	1.536747	-0.467629	-0.156780
H306	H	1.870080	-0.134296	0.176553
H307	H	1.185749	-0.220944	-0.920331
H308	H	1.519082	0.112389	-0.586998
H309	H	1.852416	0.445722	-0.253665
H310	H	0.984451	-1.052411	-0.270757
H311	H	1.317784	-0.719078	0.062576
H312	H	1.651118	-0.385745	0.395909
F313	F	0.967017	-0.185863	-0.786216
F314	F	1.300351	0.147470	-0.452883
F315	F	1.633684	0.480803	-0.119549
H316	H	1.148739	-0.318761	-0.794482
H317	H	1.482072	0.014573	-0.461148
H318	H	1.815406	0.347906	-0.127815
F319	F	0.500907	-0.346025	-0.396000
F320	F	0.834240	-0.012692	-0.062667
F321	F	1.167574	0.320641	0.270666
F322	F	0.972354	-0.444195	-0.258755
F323	F	1.305688	-0.110861	0.074578
F324	F	1.639021	0.222472	0.407911
F325	F	0.500791	-0.229262	-0.221365
F326	F	0.834124	0.104071	0.111968
F327	F	1.167458	0.437405	0.445302
F328	F	0.925148	-0.808125	-0.211467
F329	F	1.258481	-0.474792	0.121866
F330	F	1.591814	-0.141459	0.455200
H331	H	1.051590	-0.337827	-0.793698
H332	H	1.384923	-0.004494	-0.460365
H333	H	1.718257	0.328839	-0.127032
F334	F	0.499301	-0.318808	-0.255670
F335	F	0.832635	0.014525	0.077663
F336	F	1.165968	0.347858	0.410997
F337	F	0.925101	-0.695424	-0.211446
F338	F	1.258435	-0.362091	0.121887
F339	F	1.591768	-0.028758	0.455221
F340	F	1.165095	-0.322958	-0.928136
F341	F	1.498428	0.010376	-0.594803
F342	F	1.831762	0.343709	-0.261469
F343	F	0.933652	-0.271937	-0.927988
F344	F	1.266985	0.061396	-0.594655
F345	F	1.600319	0.394730	-0.261322
