data_functionalizedCrystal
_audit_creation_method	'MofGen! by Chris Wilmer'
_symmetry_space_group_name_H-M	'P1'
_symmetry_Int_Tables_number	1
_symmetry_cell_setting	triclinic
loop_
_symmetry_equiv_pos_as_xyz
  x,y,z
_cell_length_a	6.817900
_cell_length_b	11.168138
_cell_length_c	10.943881
_cell_angle_alpha	91.896964
_cell_angle_beta	108.843448
_cell_angle_gamma	108.508793
loop_
_atom_site_label
_atom_site_type_symbol
_atom_site_fract_x
_atom_site_fract_y
_atom_site_fract_z
V1	V	-4.113832	-0.174669	-0.402563
O2	O	-4.073340	0.008430	-0.394889
O3	O	-4.090094	-0.346374	-0.399821
O4	O	-4.091845	-0.171966	-0.578130
O5	O	-4.071577	-0.167185	-0.215345
V6	V	-4.590842	-0.152770	-0.380169
O7	O	-4.389378	-0.222706	-0.451686
O8	O	-4.765493	-0.104733	-0.331046
O9	O	-4.391373	0.018936	-0.382912
O10	O	-4.748731	-0.335869	-0.387843
O11	O	-4.750493	-0.160253	-0.567387
O12	O	-4.389623	-0.155473	-0.204602
C13	C	-3.940240	-0.388233	-0.393473
C14	C	-4.002294	-0.528604	-0.392401
C15	C	-3.942471	-0.165756	-0.620922
C16	C	-4.005941	-0.164682	-0.764449
C17	C	-3.855061	-0.585076	-0.385799
C18	C	-3.919194	-0.730157	-0.384691
C19	C	-4.235325	-0.170629	-0.855333
C20	C	-4.122937	-0.062088	-0.921063
C21	C	-4.231360	-0.271232	-0.954446
C22	C	-3.892671	-0.056070	-0.828275
C23	C	-4.001167	-0.265309	-0.861666
C24	C	-3.888608	-0.156738	-0.927348
C25	C	-4.204570	0.060788	-0.389256
C26	C	-4.121755	0.201158	-0.390336
C27	C	-4.202338	-0.161687	-0.161803
C28	C	-4.118105	-0.162754	-0.018275
H29	H	-3.793252	-0.778747	-0.379044
C30	C	-4.236724	-0.608371	-0.398926
H31	H	-4.320776	-0.554127	-0.403202
H32	H	-4.306005	-0.671624	-0.474435
H33	H	-4.228017	-0.648556	-0.323144
C34	C	-4.432339	-0.178398	-0.812266
H35	H	-4.474743	-0.106090	-0.832236
H36	H	-4.553006	-0.254071	-0.857144
H37	H	-4.390780	-0.179796	-0.720833
C38	C	-3.698625	0.066918	-0.754515
H39	H	-3.659311	0.065500	-0.663146
H40	H	-3.575510	0.072166	-0.779626
H41	H	-3.741395	0.138976	-0.775252
C42	C	-4.193287	0.053992	-0.956912
H43	H	-4.316968	0.048965	-0.932457
H44	H	-4.074250	0.130326	-0.911991
H45	H	-4.232097	0.054278	-1.048420
H46	H	-3.949156	-0.351249	-0.835117
C47	C	-3.691160	-0.148750	-0.970053
H48	H	-3.571557	-0.072284	-0.926181
H49	H	-3.646971	-0.220224	-0.948627
H50	H	-3.733139	-0.148784	-1.061708
H51	H	-3.681526	-0.526015	-0.380960
H52	H	-4.247715	-0.750264	-0.395997
H53	H	-4.375183	-0.362148	-1.009198
