data_functionalizedCrystal
_audit_creation_method	'MofGen! by Chris Wilmer'
_symmetry_space_group_name_H-M	'P1'
_symmetry_Int_Tables_number	1
_symmetry_cell_setting	triclinic
loop_
_symmetry_equiv_pos_as_xyz
  x,y,z
_cell_length_a	11.792241
_cell_length_b	13.101039
_cell_length_c	11.792254
_cell_angle_alpha	86.614705
_cell_angle_beta	84.196007
_cell_angle_gamma	93.376518
loop_
_atom_site_label
_atom_site_type_symbol
_atom_site_fract_x
_atom_site_fract_y
_atom_site_fract_z
O1	O	1.513114	0.085115	0.149348
O2	O	2.013114	0.585115	0.649348
O3	O	1.182775	0.085139	0.165379
O4	O	1.682775	0.585139	0.665379
O5	O	1.355953	0.085119	-0.007805
O6	O	1.855953	0.585119	0.492195
O7	O	1.339936	0.085135	0.322533
O8	O	1.839936	0.585135	0.822533
O9	O	1.343528	-0.085309	0.004641
O10	O	1.843528	0.414691	0.504641
O11	O	1.170350	-0.085289	0.177826
O12	O	1.670350	0.414711	0.677826
O13	O	1.500688	-0.085313	0.161795
O14	O	2.000688	0.414687	0.661795
Zn15	Zn	1.333546	-0.112361	0.171786
Zn16	Zn	1.833546	0.387639	0.671786
Zn17	Zn	1.349917	0.112186	0.155388
Zn18	Zn	1.849917	0.612186	0.655388
O19	O	1.327511	-0.085293	0.334979
O20	O	1.827511	0.414707	0.834979
C21	C	1.134272	-0.000072	0.170595
C22	C	1.634272	0.499928	0.670595
C23	C	1.008259	-0.000063	0.167580
C24	C	1.508259	0.499937	0.667580
N25	N	1.322382	-0.265608	0.182977
N26	N	1.822382	0.234392	0.682977
C27	C	0.777544	-0.000093	0.162039
C28	C	1.277544	0.499907	0.662039
C29	C	0.905930	-0.000077	0.165118
C30	C	1.405930	0.499923	0.665118
C31	C	1.307193	-0.474649	0.198214
C32	C	1.807193	0.025351	0.698214
C33	C	1.376276	-0.525532	0.128955
C34	C	1.876276	-0.025532	0.628955
C35	C	1.367824	-0.641850	0.137433
C36	C	1.867824	-0.141850	0.637433
C37	C	1.315643	-0.358321	0.189738
C38	C	1.815643	0.141679	0.689738
C39	C	1.549192	-0.000100	0.156579
C40	C	2.049192	0.499900	0.656579
C41	C	1.675206	-0.000102	0.159593
C42	C	2.175206	0.499898	0.659593
C43	C	1.348731	-0.000095	-0.043873
C44	C	1.848731	0.499905	0.456127
C45	C	1.345711	-0.000093	-0.169886
C46	C	1.845711	0.499907	0.330114
N47	N	1.361090	0.265434	0.144188
N48	N	1.861090	0.765434	0.644188
C49	C	1.343258	-0.000090	-0.272223
C50	C	1.843258	0.499910	0.227777
C51	C	1.340190	-0.000080	-0.400610
C52	C	1.840190	0.499920	0.099390
C53	C	1.334733	-0.000077	0.371047
C54	C	1.834733	0.499923	0.871047
C55	C	1.337753	-0.000072	0.497059
C56	C	1.837753	0.499928	0.997059
H57	H	1.441768	-0.481737	0.063295
H58	H	1.941768	0.018263	0.563295
Cl59	Cl	1.206087	-0.542258	0.299588
Cl60	Cl	1.706087	-0.042258	0.799588
