data_functionalizedCrystal
_audit_creation_method	'MofGen! by Chris Wilmer'
_symmetry_space_group_name_H-M	'P1'
_symmetry_Int_Tables_number	1
_symmetry_cell_setting	triclinic
loop_
_symmetry_equiv_pos_as_xyz
  x,y,z
_cell_length_a	6.817900
_cell_length_b	12.840964
_cell_length_c	10.943632
_cell_angle_alpha	81.927485
_cell_angle_beta	108.838880
_cell_angle_gamma	88.344333
loop_
_atom_site_label
_atom_site_type_symbol
_atom_site_fract_x
_atom_site_fract_y
_atom_site_fract_z
V1	V	-3.926142	0.325184	-0.181645
O2	O	-3.887440	0.319020	0.005626
O3	O	-3.905401	0.322936	-0.357187
O4	O	-3.821514	0.467020	-0.180212
O5	O	-3.971908	0.173938	-0.172574
V6	V	-4.413471	0.307097	-0.159084
O7	O	-4.179050	0.364860	-0.231133
O8	O	-4.610760	0.267421	-0.109595
O9	O	-4.211005	0.309346	0.016458
O10	O	-4.569569	0.313262	-0.346355
O11	O	-4.485101	0.458343	-0.168155
O12	O	-4.294892	0.165262	-0.160517
C13	C	-3.758950	0.317799	-0.399938
C14	C	-3.822904	0.316906	-0.543455
C15	C	-3.647811	0.619723	-0.174202
C16	C	-3.651945	0.501590	-0.174199
C17	C	-4.127793	0.130684	-0.166544
C18	C	-4.110799	0.012553	-0.166552
C19	C	-3.671210	0.310966	-0.620552
C20	C	-3.799075	0.226765	-0.692418
C21	C	-3.809015	0.399526	-0.727313
C22	C	-3.949924	0.232646	-0.613416
C23	C	-3.959838	0.405483	-0.648317
C24	C	-4.087823	0.321266	-0.720145
V25	V	-3.909086	0.811348	-0.181664
O26	O	-3.944242	0.962559	-0.172596
O27	O	-3.814598	0.664163	-0.180228
O28	O	-3.886808	0.852706	-0.357205
O29	O	-3.871532	0.772710	0.005606
V30	V	-4.394473	0.848802	-0.159113
O31	O	-4.163932	0.795809	-0.231157
O32	O	-4.589033	0.887028	-0.109628
O33	O	-4.266147	0.984738	-0.160545
O34	O	-4.476508	0.703508	-0.168183
O35	O	-4.549217	0.893356	-0.346385
O36	O	-4.193937	0.796195	0.016432
C37	C	-4.020800	0.314479	0.059202
C38	C	-3.936082	0.315379	0.202718
C39	C	-3.739907	0.860229	-0.399946
C40	C	-3.802527	0.897183	-0.543461
C41	C	-4.004770	0.771703	0.059186
C42	C	-3.921425	0.733712	0.202704
C43	C	-4.013015	0.919990	-0.617490
C44	C	-4.071880	0.954728	-0.752336
C45	C	-3.920254	0.966651	-0.813152
C46	C	-3.709747	0.943844	-0.739113
C47	C	-3.650885	0.909114	-0.604268
C48	C	-3.709240	0.703445	0.263494
C49	C	-3.630896	0.667761	0.398346
C50	C	-3.764745	0.662337	0.472404
C51	C	-3.976948	0.692610	0.411606
C52	C	-4.055286	0.728301	0.276757
H53	H	-3.494490	0.306512	-0.577027
N54	N	-3.730894	0.492930	-0.792943
H55	H	-3.790083	0.560391	-0.776082
H56	H	-3.776152	0.491954	-0.890198
N57	N	-4.284155	0.760929	0.211191
H58	H	-4.303027	0.837274	0.168670
H59	H	-4.356903	0.752004	0.278643
N60	N	-3.983739	1.004102	-0.958593
H61	H	-4.060836	1.076247	-0.980526
H62	H	-4.077102	0.952884	-1.006713
H63	H	-3.731773	0.151194	-0.712475
H64	H	-3.458106	0.643114	0.447828
H65	H	-4.243293	0.973290	-0.812601
N66	N	-4.028011	0.139132	-0.547962
H67	H	-3.983914	0.140267	-0.450765
H68	H	-3.967687	0.071774	-0.564343
H69	H	-4.264561	0.325591	-0.763410
N70	N	-4.048866	0.505577	-0.621675
H71	H	-4.205556	0.510160	-0.659569
H72	H	-3.994763	0.568503	-0.663414
H73	H	-4.136506	0.910283	-0.567993
H74	H	-3.700931	0.633271	0.582205
H75	H	-3.479484	0.890542	-0.544005
N76	N	-3.546286	0.956222	-0.804818
H77	H	-3.615560	0.981518	-0.901508
H78	H	-3.465711	0.885922	-0.791321
H79	H	-3.600221	0.707861	0.203213
N80	N	-4.121300	0.686759	0.491491
H81	H	-4.039456	0.659552	0.586137
H82	H	-4.231914	0.637435	0.457685
