data_functionalizedCrystal
_audit_creation_method	'MofGen! by Chris Wilmer'
_symmetry_space_group_name_H-M	'P1'
_symmetry_Int_Tables_number	1
_symmetry_cell_setting	triclinic
loop_
_symmetry_equiv_pos_as_xyz
  x,y,z
_cell_length_a	19.805407
_cell_length_b	19.120786
_cell_length_c	19.805399
_cell_angle_alpha	87.531070
_cell_angle_beta	89.982197
_cell_angle_gamma	92.462474
loop_
_atom_site_label
_atom_site_type_symbol
_atom_site_fract_x
_atom_site_fract_y
_atom_site_fract_z
Zn1	Zn	1.023242	-0.279696	-0.371182
Zn2	Zn	1.523242	0.220304	0.128818
Zn3	Zn	1.018330	-0.397155	-0.253161
Zn4	Zn	1.518330	0.102845	0.246839
Zn5	Zn	0.910056	-0.279710	-0.258009
Zn6	Zn	1.410056	0.220290	0.241991
Zn7	Zn	0.905195	-0.397112	-0.366313
Zn8	Zn	1.405195	0.102888	0.133687
O9	O	0.964206	-0.338418	-0.312166
O10	O	1.464206	0.161582	0.187834
O11	O	1.117306	-0.295289	-0.355535
O12	O	1.617306	0.204711	0.144465
O13	O	1.003946	-0.381599	-0.159087
O14	O	1.503946	0.118401	0.340913
O15	O	0.929160	-0.181418	-0.277088
O16	O	1.429160	0.318582	0.222912
O17	O	1.113698	-0.381586	-0.268826
O18	O	1.613698	0.118414	0.231174
O19	O	1.012318	-0.181408	-0.360235
O20	O	1.512318	0.318592	0.139765
O21	O	0.924397	-0.295313	-0.162649
O22	O	1.424397	0.204687	0.337351
O23	O	0.814695	-0.295271	-0.272367
O24	O	1.314695	0.204729	0.227633
O25	O	0.920876	-0.381513	-0.461677
O26	O	1.420876	0.118487	0.038323
O27	O	0.811124	-0.381526	-0.351938
O28	O	1.311124	0.118474	0.148062
O29	O	1.007604	-0.295248	-0.465253
O30	O	1.507604	0.204752	0.034747
O31	O	0.999232	-0.495439	-0.264105
O32	O	1.499232	0.004561	0.235895
O33	O	0.916113	-0.495408	-0.347237
O34	O	1.416113	0.004592	0.152763
C35	C	0.788351	-0.338396	-0.312151
C36	C	1.288351	0.161604	0.187849
C37	C	0.713118	-0.338404	-0.312160
C38	C	1.213118	0.161596	0.187840
C39	C	0.679651	-0.293549	-0.357372
C40	C	1.179651	0.206451	0.142628
C41	C	0.608962	-0.293552	-0.357374
C42	C	1.108962	0.206448	0.142626
C43	C	0.571742	-0.338415	-0.312167
C44	C	1.071742	0.161585	0.187833
C45	C	0.605215	-0.383272	-0.266951
C46	C	1.105215	0.116728	0.233049
C47	C	0.675902	-0.383264	-0.266945
C48	C	1.175902	0.116736	0.233055
C49	C	0.320140	-0.383304	-0.266970
C50	C	0.820140	0.116696	0.233030
C51	C	0.249448	-0.383309	-0.266980
C52	C	0.749448	0.116691	0.233020
C53	C	0.253200	-0.293592	-0.357399
C54	C	0.753200	0.206408	0.142601
C55	C	0.323887	-0.293584	-0.357393
C56	C	0.823887	0.206416	0.142607
C57	C	0.357354	-0.338438	-0.312175
C58	C	0.857354	0.161562	0.187825
C59	C	0.434003	-0.338432	-0.312172
C60	C	0.934003	0.161568	0.187828
C61	C	0.495095	-0.338425	-0.312173
C62	C	0.995095	0.161575	0.187827
C63	C	0.956630	-0.520909	-0.304632
C64	C	1.456630	-0.020909	0.195368
C65	C	0.953452	-0.598979	-0.301431
C66	C	1.453452	-0.098979	0.198569
C67	C	0.995221	-0.635591	-0.343253
C68	C	1.495221	-0.135591	0.156747
C69	C	0.992232	-0.708946	-0.340247
C70	C	1.492232	-0.208946	0.159753
C71	C	0.947475	-0.745688	-0.295415
C72	C	1.447475	-0.245688	0.204585
C73	C	0.905701	-0.709071	-0.253591
C74	C	1.405701	-0.209071	0.246409
C75	C	0.908688	-0.635717	-0.256601
C76	C	1.408688	-0.135717	0.243399
C77	C	0.936290	-0.967173	-0.284162
C78	C	1.436290	-0.467173	0.215838
C79	C	0.933308	-1.040533	-0.281153
C80	C	1.433308	-0.540533	0.218847
C81	C	1.019838	-1.040402	-0.367810
C82	C	1.519838	-0.540402	0.132190
C83	C	1.022824	-0.967047	-0.370813
C84	C	1.522824	-0.467047	0.129187
C85	C	0.981047	-0.930436	-0.328992
C86	C	1.481047	-0.430436	0.171008
C87	C	0.944420	-0.820669	-0.292339
C88	C	1.444420	-0.320669	0.207661
C89	C	0.984099	-0.855457	-0.332072
C90	C	1.484099	-0.355457	0.167928
C91	C	1.140748	-0.338441	-0.312182
C92	C	1.640748	0.161559	0.187818
C93	C	1.215979	-0.338450	-0.312189
C94	C	1.715979	0.161550	0.187811
C95	C	0.964246	-0.338374	-0.488711
C96	C	1.464246	0.161626	0.011289
C97	C	0.964262	-0.338355	-0.563944
C98	C	1.464262	0.161645	-0.063944
C99	C	0.971829	-0.155215	-0.319745
C100	C	1.471829	0.344785	0.180255
C101	C	0.975078	-0.077144	-0.322975
C102	C	1.475078	0.422856	0.177025
C103	C	1.009423	-0.293435	-0.601152
C104	C	1.509423	0.206565	-0.101152
C105	C	1.009431	-0.293414	-0.671841
C106	C	1.509431	0.206586	-0.171841
C107	C	0.964281	-0.338318	-0.705321
C108	C	1.464281	0.161682	-0.205321
C109	C	0.919115	-0.383241	-0.668108
C110	C	1.419115	0.116759	-0.168108
C111	C	0.919105	-0.383257	-0.597420
C112	C	1.419105	0.116743	-0.097420
C113	C	0.919156	-0.383175	-0.953184
C114	C	1.419156	0.116825	-0.453184
C115	C	0.919172	-0.383157	-1.023877
C116	C	1.419172	0.116843	-0.523877
C117	C	1.009482	-0.293332	-1.027605
C118	C	1.509482	0.206668	-0.527605
C119	C	1.009472	-0.293349	-0.956917
C120	C	1.509472	0.206651	-0.456917
C121	C	0.964304	-0.338268	-0.919711
C122	C	1.464304	0.161732	-0.419711
C123	C	0.964295	-0.338289	-0.843061
C124	C	1.464295	0.161711	-0.343061
C125	C	0.964292	-0.338302	-0.781969
C126	C	1.464292	0.161698	-0.281969
C127	C	0.964207	-0.338412	-0.136311
C128	C	1.464207	0.161588	0.363689
C129	C	0.964329	-0.338232	-0.061087
C130	C	1.464329	0.161768	0.438913
H131	H	0.574905	-0.419797	-0.230139
H132	H	1.074905	0.080203	0.269861
F133	F	0.217577	-0.245851	-0.405523
F134	F	0.717577	0.254149	0.094477
F135	F	0.858061	-0.748177	-0.205883
F136	F	1.358061	-0.248177	0.294117
H137	H	0.581716	-0.257028	-0.394191
H138	H	1.081716	0.242972	0.105809
H139	H	0.219145	-0.419844	-0.230165
H140	H	0.719145	0.080156	0.269835
F141	F	1.070459	-0.927949	-0.418530
F142	F	1.570459	-0.427949	0.081470
F143	F	1.057519	-0.245628	-0.711436
F144	F	1.557519	0.254372	-0.211436
F145	F	1.057529	-0.245558	-0.921289
F146	F	1.557529	0.254442	-0.421289
H147	H	1.046258	-0.256754	-1.057907
H148	H	1.546258	0.243246	-0.557907
H149	H	0.354188	-0.257054	-0.394208
H150	H	0.854188	0.242946	0.105792
H151	H	0.347380	-0.419827	-0.230151
H152	H	0.847380	0.080173	0.269849
F153	F	0.711521	-0.431006	-0.218825
F154	F	1.211521	0.068994	0.281175
F155	F	0.871060	-0.431028	-0.703742
F156	F	1.371060	0.068972	-0.203742
F157	F	1.042861	-0.596494	-0.390966
F158	F	1.542861	-0.096494	0.109034
F159	F	1.057482	-0.245644	-0.565526
F160	F	1.557482	0.254356	-0.065526
F161	F	0.871114	-0.430952	-1.059508
F162	F	1.371114	0.069048	-0.559508
F163	F	0.871085	-0.430983	-0.913596
F164	F	1.371085	0.069017	-0.413596
H165	H	1.026250	-0.738753	-0.374297
H166	H	1.526250	-0.238753	0.125703
H167	H	0.882324	-0.419829	-0.567127
H168	H	1.382324	0.080171	-0.067127
H169	H	0.896859	-1.070446	-0.244645
H170	H	1.396859	-0.570446	0.255355
F171	F	0.719257	-0.245802	-0.405491
F172	F	1.219257	0.254198	0.094509
H173	H	0.902275	-0.937371	-0.250108
H174	H	1.402275	-0.437371	0.249892
F175	F	1.064295	-1.079371	-0.412317
F176	F	1.564295	-0.579371	0.087683
H177	H	0.907981	-0.850593	-0.255835
H178	H	1.407981	-0.350593	0.244165
H179	H	0.874673	-0.605909	-0.222546
H180	H	1.374673	-0.105909	0.277454
F181	F	1.031727	-0.816352	-0.379787
F182	F	1.531727	-0.316352	0.120213
