data_functionalizedCrystal
_audit_creation_method	'MofGen! by Chris Wilmer'
_symmetry_space_group_name_H-M	'P1'
_symmetry_Int_Tables_number	1
_symmetry_cell_setting	triclinic
loop_
_symmetry_equiv_pos_as_xyz
  x,y,z
_cell_length_a	10.654550
_cell_length_b	22.010155
_cell_length_c	10.654559
_cell_angle_alpha	90.003977
_cell_angle_beta	95.513276
_cell_angle_gamma	90.012063
loop_
_atom_site_label
_atom_site_type_symbol
_atom_site_fract_x
_atom_site_fract_y
_atom_site_fract_z
O1	O	1.667856	0.050576	-0.176381
O2	O	1.302378	0.050566	-0.193187
O3	O	1.493514	0.050567	-0.002045
O4	O	1.476720	0.050575	-0.367522
O5	O	1.493479	-0.050484	-0.002074
O6	O	1.302343	-0.050484	-0.193215
O7	O	1.667821	-0.050475	-0.176409
Cu8	Cu	1.485079	-0.059706	-0.184815
Cu9	Cu	1.485120	0.059798	-0.184781
O10	O	1.476685	-0.050475	-0.367551
C11	C	1.255563	0.000040	-0.191967
C12	C	1.116119	0.000036	-0.188275
N13	N	1.485059	-0.143759	-0.184838
C14	C	1.036637	0.000047	-0.300816
C15	C	0.905616	0.000058	-0.297340
C16	C	0.933572	0.000048	-0.068771
C17	C	1.064591	0.000033	-0.072249
C18	C	1.088166	0.000050	-0.416842
C19	C	1.008682	0.000062	-0.529393
C20	C	0.877661	0.000073	-0.525916
C21	C	0.826124	0.000071	-0.409889
C22	C	1.569760	-0.563538	-0.100156
C23	C	1.569766	-0.627145	-0.100147
O24	O	1.641732	-0.660037	-0.028163
N25	N	1.485119	-0.658966	-0.184755
C26	C	1.400452	-0.627175	-0.269368
O27	O	1.328453	-0.660082	-0.341332
C28	C	1.400441	-0.563569	-0.269369
C29	C	1.485103	-0.531752	-0.184765
C30	C	1.654414	-0.531721	-0.015557
C31	C	1.654409	-0.468118	-0.015568
C32	C	1.569751	-0.436331	-0.100177
C33	C	1.485098	-0.468149	-0.184775
C34	C	1.315770	-0.531779	-0.353975
C35	C	1.315765	-0.468169	-0.353969
C36	C	1.400427	-0.436352	-0.269364
C37	C	1.400436	-0.372759	-0.269395
N38	N	1.485083	-0.340939	-0.184787
C39	C	1.569741	-0.372725	-0.100178
C40	C	1.400480	-0.760753	-0.269357
C41	C	1.400496	-0.824358	-0.269362
C42	C	1.569808	-0.824324	-0.100140
C43	C	1.569798	-0.760718	-0.100141
C44	C	1.485127	-0.728933	-0.184749
C45	C	1.569725	-0.239154	-0.100207
C46	C	1.569717	-0.175545	-0.100229
C47	C	1.400401	-0.175585	-0.269446
C48	C	1.400413	-0.239188	-0.269430
C49	C	1.485080	-0.270971	-0.184800
O50	O	1.328504	-0.339828	-0.341339
O51	O	1.641716	-0.339811	-0.028215
C52	C	1.714637	0.000053	-0.177629
C53	C	1.854080	0.000061	-0.181321
N54	N	1.485150	0.143850	-0.184748
C55	C	1.477938	0.000051	-0.414334
C56	C	1.481634	0.000055	-0.553777
C57	C	1.483380	0.055135	-0.619286
C58	C	1.486850	0.055128	-0.750307
C59	C	1.486822	-0.055042	-0.750300
C60	C	1.483361	-0.055035	-0.619280
C61	C	1.481653	0.110225	-0.553783
C62	C	1.483398	0.165309	-0.619292
C63	C	1.486868	0.165303	-0.750314
C64	C	1.488593	0.110212	-0.815826
C65	C	1.492261	0.000041	0.044738
C66	C	1.488565	0.000042	0.184181
H67	H	1.050653	0.000059	-0.623858
H68	H	1.491430	0.110212	-0.922511
H69	H	1.246830	-0.557676	-0.422867
N70	N	1.488587	-0.111307	-0.817235
N71	N	1.491677	-0.111304	-0.934216
H72	H	1.492920	-0.151042	-0.981490
N73	N	1.145770	0.000013	0.042718
N74	N	1.099750	0.000013	0.146303
H75	H	1.157083	-0.000005	0.227503
N76	N	1.478122	0.110228	-0.419948
N77	N	1.564935	0.085643	-0.350657
H78	H	1.562435	0.085643	-0.256136
H79	H	1.481936	-0.099886	-0.565942
H80	H	1.723352	-0.557595	0.053347
H81	H	1.331477	-0.149694	-0.338338
N82	N	0.796488	0.000076	-0.640888
N83	N	0.842518	0.000075	-0.744467
H84	H	0.785192	0.000078	-0.825671
H85	H	1.723344	-0.442216	0.053328
H86	H	1.194848	0.000044	-0.419686
N87	N	0.692290	0.000060	-0.406328
N88	N	0.627548	-0.042535	-0.455802
H89	H	0.533029	-0.042544	-0.453285
H90	H	0.891599	0.000056	0.025693
H91	H	1.638663	-0.149641	-0.031334
H92	H	1.638668	-0.265024	-0.031292
H93	H	1.638740	-0.850216	-0.031245
N94	N	1.656219	-0.728230	-0.013647
N95	N	1.731756	-0.756625	0.061925
H96	H	1.792771	-0.733684	0.123043
H97	H	1.331570	-0.850259	-0.338268
H98	H	1.331534	-0.734877	-0.338265
H99	H	1.246812	-0.442292	-0.422866
N100	N	1.313933	-0.271682	-0.355862
N101	N	1.238351	-0.243291	-0.431398
H102	H	1.177262	-0.266236	-0.492434
N103	N	1.481658	0.221574	-0.552357
N104	N	1.478566	0.221574	-0.435376
H105	H	1.477341	0.261312	-0.388103
H106	H	1.488301	0.210155	-0.803646
