data_functionalizedCrystal
_audit_creation_method	'MofGen! by Chris Wilmer'
_symmetry_space_group_name_H-M	'P1'
_symmetry_Int_Tables_number	1
_symmetry_cell_setting	triclinic
loop_
_symmetry_equiv_pos_as_xyz
  x,y,z
_cell_length_a	15.995300
_cell_length_b	16.109301
_cell_length_c	14.586319
_cell_angle_alpha	90.000787
_cell_angle_beta	90.000755
_cell_angle_gamma	96.533356
loop_
_atom_site_label
_atom_site_type_symbol
_atom_site_fract_x
_atom_site_fract_y
_atom_site_fract_z
O1	O	0.107627	-1.103140	-0.076173
O2	O	0.607627	-0.603140	0.423827
O3	O	0.121021	-0.861080	-0.076186
O4	O	0.621021	-0.361080	0.423814
O5	O	-0.007569	-0.988749	-0.076184
O6	O	0.492431	-0.488749	0.423816
O7	O	0.236216	-0.975471	-0.076176
O8	O	0.736216	-0.475471	0.423824
O9	O	-0.007571	-0.988740	0.076297
O10	O	0.492429	-0.488740	0.576297
O11	O	0.121019	-0.861071	0.076294
O12	O	0.621019	-0.361071	0.576294
O13	O	0.107625	-1.103132	0.076308
O14	O	0.607625	-0.603132	0.576308
Cu15	Cu	0.114322	-0.982100	0.090224
Cu16	Cu	0.614322	-0.482100	0.590224
Cu17	Cu	0.114324	-0.982111	-0.090102
Cu18	Cu	0.614324	-0.482111	0.409898
O19	O	0.236214	-0.975463	0.076305
O20	O	0.736214	-0.475463	0.576305
C21	C	0.120477	-0.830100	0.000052
C22	C	0.620477	-0.330100	0.500052
C23	C	0.118850	-0.737805	0.000047
C24	C	0.618850	-0.237805	0.500047
C25	C	-0.038765	-0.988203	0.000053
C26	C	0.461235	-0.488203	0.500053
C27	C	-0.131717	-0.986579	0.000044
C28	C	0.368283	-0.486579	0.500044
C29	C	0.108168	-1.134111	0.000067
C30	C	0.608168	-0.634111	0.500067
C31	C	0.109795	-1.226406	0.000067
C32	C	0.609795	-0.726406	0.500067
C33	C	-0.301899	-0.983581	0.000053
C34	C	0.198101	-0.483581	0.500053
C35	C	-0.349390	-1.074484	0.000056
C36	C	0.150610	-0.574484	0.500056
C37	C	-0.446077	-1.072826	0.000406
C38	C	0.053923	-0.572826	0.500406
C39	C	-0.469455	-0.980630	0.000061
C40	C	0.030545	-0.480630	0.500061
C41	C	-0.428310	-0.935525	0.086960
C42	C	0.071690	-0.435525	0.586960
C43	C	-0.331677	-0.937825	0.087029
C44	C	0.168323	-0.437825	0.587029
C45	C	-0.331399	-0.936489	-0.086376
C46	C	0.168601	-0.436489	0.413624
C47	C	-0.428343	-0.936498	-0.087514
C48	C	0.071657	-0.436498	0.412486
C49	C	-0.564150	-0.978958	0.000068
C50	C	-0.064150	-0.478958	0.500068
C51	C	-0.207204	-0.985251	0.000052
C52	C	0.292796	-0.485251	0.500052
C53	C	0.267410	-0.976008	0.000066
C54	C	0.767410	-0.476008	0.500066
C55	C	0.360362	-0.977632	0.000069
C56	C	0.860362	-0.477632	0.500069
N57	N	0.114319	-0.982099	0.217056
N58	N	0.614319	-0.482099	0.717056
C59	C	0.191371	-0.515539	0.000060
C60	C	0.691371	-0.015539	0.500060
C61	C	0.189836	-0.428819	0.000065
C62	C	0.689836	0.071181	0.500065
C63	C	0.037269	-0.448679	0.000056
C64	C	0.537269	0.051321	0.500056
C65	C	0.038805	-0.535398	0.000057
C66	C	0.538805	-0.035398	0.500057
C67	C	0.115858	-0.568825	0.000054
C68	C	0.615858	-0.068825	0.500054
C69	C	0.112787	-0.395386	0.000059
C70	C	0.612787	0.104614	0.500059
C71	C	0.111123	-0.301360	0.000066
C72	C	0.611123	0.198640	0.500066
C73	C	0.117523	-0.662857	0.000050
C74	C	0.617523	-0.162857	0.500050
N75	N	0.114319	-0.982119	-0.216934
N76	N	0.614319	-0.482119	0.283066
C77	C	0.057399	-1.038650	0.452063
C78	C	0.557399	-0.538650	0.952063
C79	C	0.057397	-1.038652	0.548044
C80	C	0.557397	-0.538652	1.048044
C81	C	0.171242	-0.925562	0.548052
C82	C	0.671242	-0.425562	1.048052
C83	C	0.171240	-0.925557	0.452072
C84	C	0.671240	-0.425557	0.952072
C85	C	0.114319	-0.982105	0.404080
C86	C	0.614319	-0.482105	0.904080
C87	C	0.114320	-0.982113	0.596041
C88	C	0.614320	-0.482113	1.096041
C89	C	0.114318	-0.982115	0.700108
C90	C	0.614318	-0.482115	1.200108
C91	C	0.114320	-0.982102	0.300007
C92	C	0.614320	-0.482102	0.800007
H93	H	-0.330921	-1.111014	-0.062259
H94	H	0.169079	-0.611014	0.437741
H95	H	-0.313366	-0.970324	0.152239
H96	H	0.186634	-0.470324	0.652239
H97	H	0.217591	-0.879507	0.413002
H98	H	0.717591	-0.379507	0.913002
H99	H	-0.442391	-0.867782	0.089944
H100	H	0.057609	-0.367782	0.589944
H101	H	-0.022691	-0.578786	0.000055
H102	H	0.477309	-0.078786	0.500055
O103	O	-0.037598	-0.416247	0.000211
O104	O	0.462402	0.083753	0.500211
C105	C	-0.083646	-0.443492	0.079166
C106	C	0.416354	0.056508	0.579166
H107	H	-0.038595	-0.461516	0.134370
H108	H	0.461405	0.038484	0.634370
H109	H	-0.119262	-0.390966	0.105665
H110	H	0.380738	0.109034	0.605665
H111	H	-0.130315	-0.500022	0.061309
H112	H	0.369685	-0.000022	0.561309
H113	H	-0.299385	-0.871074	0.090735
H114	H	0.200615	-0.371074	0.590735
H115	H	0.011050	-1.084694	0.412990
H116	H	0.511050	-0.584694	0.912990
H117	H	0.254112	-0.542752	0.000064
H118	H	0.754112	-0.042752	0.500064
O119	O	0.002075	-1.093662	0.594512
O120	O	0.502075	-0.593662	1.094512
C121	C	-0.048176	-1.143552	0.531568
C122	C	0.451824	-0.643552	1.031568
H123	H	-0.013844	-1.144480	0.463152
H124	H	0.486156	-0.644480	0.963152
H125	H	-0.060930	-1.209950	0.559294
H126	H	0.439070	-0.709950	1.059294
H127	H	-0.110387	-1.116572	0.521360
H128	H	0.389613	-0.616572	1.021360
H129	H	-0.474551	-1.108268	-0.061873
H130	H	0.025449	-0.608268	0.438127
O131	O	0.226451	-0.870523	0.594634
O132	O	0.726451	-0.370523	1.094634
C133	C	0.212827	-0.788227	0.571173
C134	C	0.712827	-0.288227	1.071173
H135	H	0.145787	-0.787834	0.544789
H136	H	0.645787	-0.287834	1.044789
H137	H	0.222445	-0.746507	0.634298
H138	H	0.722445	-0.246507	1.134298
H139	H	0.259231	-0.763793	0.515464
H140	H	0.759231	-0.263793	1.015464
H141	H	-0.473934	-1.108107	0.063066
H142	H	0.026066	-0.608107	0.563066
O143	O	-0.326100	-1.117331	0.074394
O144	O	0.173900	-0.617331	0.574394
C145	C	-0.346352	-1.075748	0.155074
C146	C	0.153648	-0.575748	0.655074
H147	H	-0.398695	-1.035260	0.139910
H148	H	0.101305	-0.535260	0.639910
H149	H	-0.368412	-1.123741	0.209894
H150	H	0.131588	-0.623741	0.709894
H151	H	-0.288327	-1.034619	0.180656
H152	H	0.211673	-0.534619	0.680656
O153	O	-0.462225	-0.972309	0.164438
O154	O	0.037775	-0.472309	0.664438
C155	C	-0.500303	-0.913082	0.216398
C156	C	-0.000303	-0.413082	0.716398
H157	H	-0.516739	-0.860642	0.169585
H158	H	-0.016739	-0.360642	0.669585
H159	H	-0.560113	-0.944606	0.249775
H160	H	-0.060113	-0.444606	0.749775
H161	H	-0.454849	-0.886107	0.271848
H162	H	0.045151	-0.386107	0.771848
O163	O	-0.306925	-0.972318	-0.164894
O164	O	0.193075	-0.472318	0.335106
C165	C	-0.262681	-1.040521	-0.142894
C166	C	0.237319	-0.540521	0.357106
H167	H	-0.281412	-1.064216	-0.071315
H168	H	0.218588	-0.564216	0.428685
H169	H	-0.278708	-1.092769	-0.194862
H170	H	0.221292	-0.592769	0.305138
H171	H	-0.192149	-1.019731	-0.144717
H172	H	0.307851	-0.519731	0.355283
H173	H	-0.455692	-0.969436	-0.151804
H174	H	0.044308	-0.469436	0.348196
O175	O	-0.446664	-0.856313	-0.093932
O176	O	0.053336	-0.356313	0.406068
C177	C	-0.497338	-0.838289	-0.019048
C178	C	0.002662	-0.338289	0.480952
H179	H	-0.487661	-0.882640	0.039926
H180	H	0.012339	-0.382640	0.539926
H181	H	-0.479034	-0.771082	0.004089
H182	H	0.020966	-0.271082	0.504089
H183	H	-0.566293	-0.846569	-0.040605
H184	H	-0.066293	-0.346569	0.459395
O185	O	0.263166	-0.377021	0.000227
O186	O	0.763166	0.122979	0.500227
C187	C	0.266836	-0.326251	0.079187
C188	C	0.766836	0.173749	0.579187
H189	H	0.224012	-0.358019	0.134384
H190	H	0.724012	0.141981	0.634384
H191	H	0.334287	-0.316485	0.105694
H192	H	0.834287	0.183515	0.605694
H193	H	0.245178	-0.263196	0.061334
H194	H	0.745178	0.236804	0.561334
O195	O	-0.293358	-0.856572	-0.087272
O196	O	0.206642	-0.356572	0.412728
C197	C	-0.240367	-0.843209	-0.010173
C198	C	0.259633	-0.343209	0.489827
H199	H	-0.222153	-0.905643	0.015150
H200	H	0.277847	-0.405643	0.515150
H201	H	-0.181196	-0.800748	-0.029953
H202	H	0.318804	-0.300748	0.470047
H203	H	-0.274901	-0.812432	0.046627
H204	H	0.225099	-0.312432	0.546627
