data_functionalizedCrystal
_audit_creation_method	'MofGen! by Chris Wilmer'
_symmetry_space_group_name_H-M	'P1'
_symmetry_Int_Tables_number	1
_symmetry_cell_setting	triclinic
loop_
_symmetry_equiv_pos_as_xyz
  x,y,z
_cell_length_a	6.817900
_cell_length_b	11.102193
_cell_length_c	14.125465
_cell_angle_alpha	94.636759
_cell_angle_beta	100.398878
_cell_angle_gamma	108.604125
loop_
_atom_site_label
_atom_site_type_symbol
_atom_site_fract_x
_atom_site_fract_y
_atom_site_fract_z
V1	V	-4.017261	-0.174748	-0.299980
O2	O	-3.978095	0.009521	-0.294266
O3	O	-3.994676	-0.347576	-0.297932
O4	O	-3.952931	-0.171567	-0.430810
O5	O	-4.020129	-0.167707	-0.160468
V6	V	-4.499608	-0.152765	-0.283293
O7	O	-4.281099	-0.222968	-0.336585
O8	O	-4.685967	-0.104545	-0.246688
O9	O	-4.298986	0.020063	-0.285341
O10	O	-4.656171	-0.337034	-0.289007
O11	O	-4.614137	-0.159807	-0.422805
O12	O	-4.340731	-0.155946	-0.152463
C13	C	-3.846472	-0.389723	-0.293200
C14	C	-3.909187	-0.531010	-0.292398
C15	C	-3.962057	-0.760838	-0.114658
C16	C	-3.900102	-0.676627	-0.026927
C17	C	-3.841178	-0.543877	-0.027683
C18	C	-3.844203	-0.495337	-0.116180
C19	C	-3.906158	-0.579548	-0.203911
C20	C	-3.965086	-0.712300	-0.203145
C21	C	-3.971142	-0.615221	-0.380129
C22	C	-4.030082	-0.747972	-0.379375
C23	C	-3.974167	-0.566681	-0.468625
C24	C	-4.036137	-0.650893	-0.556359
C25	C	-4.095066	-0.783650	-0.555599
C26	C	-4.092036	-0.832183	-0.467106
C27	C	-3.793221	-0.165205	-0.462698
C28	C	-3.822078	-0.163747	-0.569653
C29	C	-3.874972	-0.161075	-0.765476
C30	C	-4.061265	-0.166436	-0.817797
C31	C	-4.090698	-0.164949	-0.926760
C32	C	-3.845531	-0.162562	-0.656503
C33	C	-4.110533	0.062203	-0.290070
C34	C	-4.027056	0.203488	-0.290878
C35	C	-4.163785	-0.162313	-0.120569
C36	C	-4.114165	-0.163764	-0.013614
H37	H	-3.790714	-0.475311	0.043755
H38	H	-4.010052	-0.868929	-0.114034
H39	H	-4.140020	-0.940273	-0.466479
H40	H	-3.897641	-0.716163	0.045125
H41	H	-3.737598	-0.155371	-0.802513
C42	C	-3.779359	-0.349311	-0.117010
C43	C	-3.590959	-0.279971	-0.161316
C44	C	-3.526109	-0.133943	-0.162147
C45	C	-3.649660	-0.057255	-0.118672
C46	C	-3.838072	-0.126594	-0.074363
C47	C	-3.902921	-0.272622	-0.073532
H48	H	-3.499489	-0.336740	-0.193501
H49	H	-3.386634	-0.082614	-0.194947
H50	H	-3.601654	0.050844	-0.119287
H51	H	-3.929542	-0.069824	-0.042178
H52	H	-4.042397	-0.323951	-0.040732
C53	C	-4.039464	-0.597498	-0.653695
C54	C	-3.974633	-0.451478	-0.654529
C55	C	-3.977963	-0.398078	-0.751868
C56	C	-4.046125	-0.490699	-0.848373
C57	C	-4.110962	-0.636729	-0.847543
C58	C	-4.107631	-0.690128	-0.750204
H59	H	-3.924171	-0.382906	-0.583087
H60	H	-3.929967	-0.289977	-0.752482
H61	H	-4.048591	-0.451170	-0.920429
H62	H	-4.161424	-0.705300	-0.918985
H63	H	-4.155628	-0.798229	-0.749590
H64	H	-3.926177	-0.458587	-0.469235
H65	H	-4.145497	-0.852209	-0.627040
H66	H	-4.198658	-0.172155	-0.780759
