data_functionalizedCrystal
_audit_creation_method	'MofGen! by Chris Wilmer'
_symmetry_space_group_name_H-M	'P1'
_symmetry_Int_Tables_number	1
_symmetry_cell_setting	triclinic
loop_
_symmetry_equiv_pos_as_xyz
  x,y,z
_cell_length_a	12.759401
_cell_length_b	19.077068
_cell_length_c	19.077569
_cell_angle_alpha	90.064237
_cell_angle_beta	87.687111
_cell_angle_gamma	92.328499
loop_
_atom_site_label
_atom_site_type_symbol
_atom_site_fract_x
_atom_site_fract_y
_atom_site_fract_z
Zn1	Zn	1.614794	-0.263779	-0.408508
Zn2	Zn	1.600568	-0.386010	-0.295713
Zn3	Zn	1.431779	-0.268522	-0.291017
Zn4	Zn	1.432280	-0.381256	-0.413185
O5	O	1.519855	-0.324892	-0.352106
O6	O	1.759928	-0.279998	-0.393553
O7	O	1.572014	-0.374399	-0.196758
O8	O	1.461800	-0.169559	-0.302680
O9	O	1.749476	-0.369800	-0.310684
O10	O	1.596260	-0.166075	-0.389000
O11	O	1.448006	-0.288081	-0.193308
O12	O	1.284824	-0.283472	-0.307215
O13	O	1.462654	-0.361699	-0.510896
O14	O	1.285192	-0.366297	-0.396971
O15	O	1.596746	-0.275389	-0.507460
O16	O	1.572500	-0.483713	-0.315219
O17	O	1.448860	-0.480221	-0.401525
C18	C	1.246887	-0.324884	-0.352091
C19	C	1.130111	-0.324897	-0.352103
C20	C	1.075460	-0.368095	-0.398771
C21	C	0.965736	-0.368097	-0.398785
C22	C	0.965325	-0.281701	-0.305457
C23	C	1.075046	-0.281695	-0.305447
C24	C	1.509220	-0.507463	-0.359404
C25	C	1.504768	-0.585567	-0.362550
C26	C	1.567104	-0.624054	-0.319131
C27	C	1.562923	-0.697440	-0.322093
C28	C	1.496400	-0.732339	-0.368473
C29	C	1.434062	-0.693847	-0.411897
C30	C	1.438249	-0.620461	-0.408937
C31	C	1.476973	-0.951625	-0.382143
C32	C	1.472788	-1.025015	-0.385098
C33	C	1.601651	-1.028604	-0.295295
C34	C	1.605828	-0.955217	-0.292336
C35	C	1.543494	-0.916731	-0.335763
N36	N	1.492122	-0.807352	-0.371501
N37	N	1.547778	-0.841720	-0.332738
C38	C	1.793889	-0.324900	-0.352121
C39	C	1.910666	-0.324904	-0.352127
C40	C	1.531343	-0.317485	-0.535388
C41	C	1.536238	-0.314328	-0.613491
C42	C	1.530561	-0.141607	-0.344794
C43	C	1.535124	-0.063502	-0.341678
C44	C	1.468725	-0.357779	-0.651975
C45	C	1.473334	-0.354813	-0.725361
C46	C	1.545451	-0.308393	-0.760263
C47	C	1.612971	-0.264940	-0.721775
C48	C	1.608367	-0.267910	-0.648389
C49	C	1.566711	-0.294695	-0.979550
C50	C	1.571308	-0.291727	-1.052940
C51	C	1.431672	-0.381601	-1.056522
C52	C	1.427070	-0.384564	-0.983135
C53	C	1.494594	-0.341114	-0.944653
N54	N	1.550161	-0.305358	-0.835276
N55	N	1.489888	-0.344153	-0.869642
C56	C	1.508476	-0.332219	-0.169535
C57	C	1.503795	-0.335178	-0.091424
H58	H	1.621269	-0.595644	-0.281360
F59	F	1.689729	-0.215539	-0.758922
H60	H	1.613682	-0.728773	-0.286736
F61	F	1.363269	-0.730990	-0.461262
H62	H	1.409987	-0.395571	-0.623563
H63	H	0.921244	-0.403273	-0.436787
F64	F	1.680227	-0.221666	-0.607433
F65	F	1.638574	-0.248449	-0.938604
H66	H	1.120290	-0.403271	-0.436763
H67	H	1.387490	-0.589126	-0.444295
F68	F	1.133214	-0.235711	-0.255777
F69	F	1.648034	-0.242294	-1.090083
F70	F	1.401484	-0.401065	-0.766315
F71	F	1.350308	-0.433968	-0.945995
H72	H	1.376698	-0.416976	-1.087862
F73	F	1.676643	-0.918080	-0.242981
H74	H	1.652401	-1.059946	-0.259940
F75	F	1.401971	-1.062156	-0.434456
H76	H	0.920478	-0.246529	-0.267470
F77	F	1.410630	-0.910675	-0.428361
