data_functionalizedCrystal
_audit_creation_method	'MofGen! by Chris Wilmer'
_symmetry_space_group_name_H-M	'P1'
_symmetry_Int_Tables_number	1
_symmetry_cell_setting	triclinic
loop_
_symmetry_equiv_pos_as_xyz
  x,y,z
_cell_length_a	18.215407
_cell_length_b	17.637651
_cell_length_c	18.215399
_cell_angle_alpha	78.756317
_cell_angle_beta	89.980167
_cell_angle_gamma	101.219162
loop_
_atom_site_label
_atom_site_type_symbol
_atom_site_fract_x
_atom_site_fract_y
_atom_site_fract_z
Zn1	Zn	1.065883	-0.314761	-0.356812
Zn2	Zn	1.565883	0.185239	0.143188
Zn3	Zn	1.040928	-0.446980	-0.208835
Zn4	Zn	1.540928	0.053020	0.291165
Zn5	Zn	0.942810	-0.314787	-0.233755
Zn6	Zn	1.442810	0.185213	0.266245
Zn7	Zn	0.917926	-0.446936	-0.331868
Zn8	Zn	1.417926	0.053064	0.168132
O9	O	0.991887	-0.380866	-0.282817
O10	O	1.491887	0.119134	0.217183
O11	O	1.165555	-0.332308	-0.337193
O12	O	1.665555	0.167692	0.162807
O13	O	1.027883	-0.429474	-0.109150
O14	O	1.527883	0.070526	0.390850
O15	O	0.979994	-0.204144	-0.270947
O16	O	1.479994	0.295856	0.229053
O17	O	1.147221	-0.429449	-0.228474
O18	O	1.647221	0.070551	0.271526
O19	O	1.070415	-0.204125	-0.361357
O20	O	1.570415	0.295875	0.138643
O21	O	0.955796	-0.332352	-0.127459
O22	O	1.455796	0.167648	0.372541
O23	O	0.836527	-0.332309	-0.246759
O24	O	1.336527	0.167691	0.253241
O25	O	0.937583	-0.429374	-0.438167
O26	O	1.437583	0.070626	0.061833
O27	O	0.818244	-0.429399	-0.318843
O28	O	1.318244	0.070601	0.181157
O29	O	1.046286	-0.332265	-0.456493
O30	O	1.546286	0.167735	0.043507
O31	O	1.003754	-0.557614	-0.204287
O32	O	1.503754	-0.057614	0.295713
O33	O	0.913385	-0.557581	-0.294679
O34	O	1.413385	-0.057581	0.205321
C35	C	0.800683	-0.380852	-0.282799
C36	C	1.300683	0.119148	0.217201
C37	C	0.718882	-0.380866	-0.282805
C38	C	1.218882	0.119134	0.217195
C39	C	0.521173	-0.431500	-0.320264
C40	C	1.021173	0.068500	0.179736
C41	C	0.444313	-0.431502	-0.320273
C42	C	0.944313	0.068498	0.179727
C43	C	0.463351	-0.330246	-0.245384
C44	C	0.963351	0.169754	0.254616
C45	C	0.540209	-0.330241	-0.245380
C46	C	1.040209	0.169759	0.254620
C47	C	0.569117	-0.380872	-0.282818
C48	C	1.069117	0.119128	0.217182
C49	C	0.415400	-0.380880	-0.282831
C50	C	0.915400	0.119120	0.217169
C51	C	0.332065	-0.380882	-0.282840
C52	C	0.832065	0.119118	0.217160
C53	C	0.652457	-0.380869	-0.282810
C54	C	1.152457	0.119131	0.217190
C55	C	0.953181	-0.586285	-0.244088
C56	C	1.453181	-0.086285	0.255912
C57	C	0.936690	-0.674164	-0.227544
C58	C	1.436690	-0.174164	0.272456
C59	C	1.117646	-0.962843	-0.408732
C60	C	1.617646	-0.462843	0.091268
C61	C	1.102127	-1.045419	-0.393174
C62	C	1.602127	-0.545419	0.106826
C63	C	1.008035	-1.045546	-0.298939
C64	C	1.508035	-0.545546	0.201061
C65	C	1.023549	-0.962969	-0.314487
C66	C	1.523549	-0.462969	0.185513
C67	C	1.078355	-0.921624	-0.369385
C68	C	1.578355	-0.421624	0.130615
C69	C	0.984257	-0.921749	-0.275140
C70	C	1.484257	-0.421749	0.224860
C71	C	0.999767	-0.839179	-0.290690
C72	C	1.499767	-0.339179	0.209310
C73	C	1.054569	-0.797828	-0.345586
C74	C	1.554569	-0.297828	0.154414
C75	C	1.093865	-0.839054	-0.384935
C76	C	1.593865	-0.339054	0.115065
C77	C	0.929448	-0.963096	-0.220246
C78	C	1.429448	-0.463096	0.279754
C79	C	0.890156	-0.921876	-0.180899
C80	C	1.390156	-0.421876	0.319101
C81	C	0.905670	-0.839304	-0.196444
C82	C	1.405670	-0.339304	0.303556
C83	C	0.960471	-0.797954	-0.251341
C84	C	1.460471	-0.297954	0.248659
C85	C	0.866374	-0.798079	-0.157096
C86	C	1.366374	-0.298079	0.342904
C87	C	0.881884	-0.715509	-0.172646
C88	C	1.381884	-0.215509	0.327354
C89	C	0.975982	-0.715383	-0.266891
C90	C	1.475982	-0.215383	0.233109
C91	C	1.183837	-0.380880	-0.282836
C92	C	1.683837	0.119120	0.217164
C93	C	1.265635	-0.380886	-0.282844
C94	C	1.765635	0.119114	0.217156
C95	C	0.991942	-0.380811	-0.474781
C96	C	1.491942	0.119189	0.025219
C97	C	0.991965	-0.380788	-0.556584
C98	C	1.491965	0.119212	-0.056584
C99	C	1.030764	-0.174645	-0.321714
C100	C	1.530764	0.325355	0.178286
C101	C	1.047331	-0.086766	-0.338290
C102	C	1.547331	0.413234	0.161710
C103	C	1.048593	-0.330176	-0.754331
C104	C	1.548593	0.169824	-0.254331
C105	C	1.048606	-0.330153	-0.831194
C106	C	1.548606	0.169847	-0.331194
C107	C	0.935413	-0.431278	-0.812098
C108	C	1.435413	0.068722	-0.312098
C109	C	0.935398	-0.431296	-0.735237
C110	C	1.435398	0.068704	-0.235237
C111	C	0.991992	-0.380747	-0.706355
C112	C	1.491992	0.119253	-0.206355
C113	C	0.992020	-0.380705	-0.860079
C114	C	1.492020	0.119295	-0.360079
C115	C	0.992034	-0.380681	-0.943418
C116	C	1.492034	0.119319	-0.443418
C117	C	0.991977	-0.380770	-0.623012
C118	C	1.491977	0.119230	-0.123012
C119	C	0.991885	-0.380863	-0.091612
C120	C	1.491885	0.119137	0.408388
C121	C	0.992046	-0.380664	-0.009851
C122	C	1.492046	0.119336	0.490149
H123	H	0.405280	-0.472727	-0.350767
H124	H	0.905280	0.027273	0.149233
H125	H	1.067197	-0.730594	-0.358246
H126	H	1.567197	-0.230594	0.141754
H127	H	0.439804	-0.289026	-0.214901
H128	H	0.939804	0.210974	0.285099
H129	H	0.889338	-0.472435	-0.835623
H130	H	1.389338	0.027565	-0.335623
H131	H	1.134117	-1.078977	-0.425230
H132	H	1.634117	-0.578977	0.074770
C133	C	0.823514	-0.531263	-0.724074
C134	C	1.323514	-0.031263	-0.224074
C135	C	0.873179	-0.486891	-0.682495
C136	C	1.373179	0.013109	-0.182495
H137	H	0.785107	-0.565585	-0.691512
H138	H	1.285107	-0.065585	-0.191512
H139	H	0.801861	-0.496810	-0.760544
H140	H	1.301861	0.003190	-0.260544
H141	H	0.849891	-0.561499	-0.748355
H142	H	1.349891	-0.061499	-0.248355
H143	H	0.846803	-0.456651	-0.658219
H144	H	1.346803	0.043349	-0.158219
H145	H	0.894833	-0.521349	-0.646012
H146	H	1.394833	-0.021349	-0.146012
C147	C	1.160474	-0.230211	-0.780930
C148	C	1.660474	0.269789	-0.280930
C149	C	1.110794	-0.274605	-0.722584
C150	C	1.610794	0.225395	-0.222584
H151	H	1.198871	-0.195898	-0.761332
H152	H	1.698871	0.304102	-0.261332
H153	H	1.182138	-0.264650	-0.804413
H154	H	1.682138	0.235350	-0.304413
H155	H	1.134105	-0.199965	-0.816609
H156	H	1.634105	0.300035	-0.316609
H157	H	1.137162	-0.304856	-0.686908
H158	H	1.637162	0.195144	-0.186908
H159	H	1.089128	-0.240161	-0.699090
H160	H	1.589128	0.259839	-0.199090
C161	C	1.078893	-0.223772	-0.937683
C162	C	1.578893	0.276228	-0.437683
C163	C	1.110824	-0.274561	-0.883926
C164	C	1.610824	0.225439	-0.383926
H165	H	1.117306	-0.189446	-0.970234
H166	H	1.617306	0.310554	-0.470234
H167	H	1.045203	-0.253873	-0.965886
H168	H	1.545203	0.246127	-0.465886
H169	H	1.052523	-0.193544	-0.913385
H170	H	1.552523	0.306456	-0.413385
H171	H	1.137189	-0.304794	-0.908224
H172	H	1.637189	0.195206	-0.408224
H173	H	1.144526	-0.244457	-0.855720
H174	H	1.644526	0.255543	-0.355720
C175	C	1.121488	-0.746115	-0.501431
C176	C	1.621488	-0.246115	-0.001431
C177	C	1.154111	-0.793592	-0.445276
C178	C	1.654111	-0.293592	0.054724
H179	H	1.158681	-0.718045	-0.538679
H180	H	1.658681	-0.218045	-0.038679
H181	H	1.083369	-0.778334	-0.523487
H182	H	1.583369	-0.278334	-0.023487
H183	H	1.100302	-0.709758	-0.480212
H184	H	1.600302	-0.209758	0.019788
H185	H	1.175293	-0.829954	-0.466495
H186	H	1.675293	-0.329954	0.033505
H187	H	1.192244	-0.761371	-0.423218
H188	H	1.692244	-0.261371	0.076782
H189	H	0.544707	-0.472725	-0.350751
H190	H	1.044707	0.027275	0.149249
H191	H	0.579248	-0.289008	-0.214887
H192	H	1.079248	0.210992	0.285113
H193	H	1.162281	-0.929179	-0.453430
H194	H	1.662281	-0.429179	0.046570
C195	C	1.016552	-0.689842	-0.396354
C196	C	1.516552	-0.189842	0.103646
C197	C	1.036223	-0.669923	-0.327237
C198	C	1.536223	-0.169923	0.172763
H199	H	1.053737	-0.661770	-0.433608
H200	H	1.553737	-0.161770	0.066392
H201	H	1.012951	-0.744908	-0.392724
H202	H	1.512951	-0.244908	0.107276
H203	H	0.969630	-0.676342	-0.409608
H204	H	1.469630	-0.176342	0.090392
H205	H	1.083142	-0.683428	-0.313981
H206	H	1.583142	-0.183428	0.186019
H207	H	1.039832	-0.614844	-0.330866
H208	H	1.539832	-0.114844	0.169134
C209	C	0.888429	-1.081343	-0.267972
C210	C	1.388429	-0.581343	0.232028
C211	C	0.912389	-1.053859	-0.203154
C212	C	1.412389	-0.553859	0.296846
H213	H	0.877900	-1.137376	-0.257420
H214	H	1.377900	-0.637376	0.242580
H215	H	0.844444	-1.062683	-0.284163
H216	H	1.344444	-0.562683	0.215837
H217	H	0.926703	-1.062618	-0.306287
H218	H	1.426703	-0.562618	0.193713
H219	H	0.874113	-1.072580	-0.164840
H220	H	1.374113	-0.572580	0.335160
H221	H	0.956379	-1.072527	-0.186953
H222	H	1.456379	-0.572527	0.313047
C223	C	0.824602	-1.048507	-0.115210
C224	C	1.324602	-0.548507	0.384790
C225	C	0.829919	-0.967327	-0.120552
C226	C	1.329919	-0.467327	0.379448
H227	H	0.787418	-1.076564	-0.077949
H228	H	1.287418	-0.576564	0.422051
H229	H	0.811258	-1.062011	-0.162097
H230	H	1.311258	-0.562011	0.337903
H231	H	0.871524	-1.062002	-0.101950
H232	H	1.371524	-0.562002	0.398050
H233	H	0.782998	-0.953831	-0.133818
H234	H	1.282998	-0.453831	0.366182
H235	H	0.843259	-0.953818	-0.073656
H236	H	1.343259	-0.453818	0.426344
C237	C	0.736980	-0.823615	-0.116329
C238	C	1.236980	-0.323615	0.383671
C239	C	0.806128	-0.843534	-0.096759
C240	C	1.306128	-0.343534	0.403241
H241	H	0.699787	-0.851681	-0.079081
H242	H	1.199787	-0.351681	0.420919
H243	H	0.740599	-0.768547	-0.119949
H244	H	1.240599	-0.268547	0.380051
H245	H	0.723654	-0.837122	-0.163226
H246	H	1.223654	-0.337122	0.336774
H247	H	0.819457	-0.830021	-0.049865
H248	H	1.319457	-0.330021	0.450135
H249	H	0.802510	-0.898614	-0.093131
H250	H	1.302510	-0.398614	0.406869
C251	C	0.800331	-0.622727	-0.179806
C252	C	1.300331	-0.122727	0.320194
C253	C	0.838697	-0.670192	-0.129398
C254	C	1.338697	-0.170192	0.370602
H255	H	0.773664	-0.594754	-0.153106
H256	H	1.273664	-0.094754	0.346894
H257	H	0.835190	-0.586293	-0.214719
H258	H	1.335190	-0.086293	0.285281
H259	H	0.766110	-0.654949	-0.205770
H260	H	1.266110	-0.154949	0.294230
H261	H	0.872922	-0.637969	-0.103438
H262	H	1.372922	-0.137969	0.396562
H263	H	0.803833	-0.706630	-0.094472
H264	H	1.303833	-0.206630	0.405528
H265	H	0.963410	-1.079221	-0.254243
H266	H	1.463410	-0.579221	0.245757
