data_functionalizedCrystal
_audit_creation_method	'MofGen! by Chris Wilmer'
_symmetry_space_group_name_H-M	'P1'
_symmetry_Int_Tables_number	1
_symmetry_cell_setting	triclinic
loop_
_symmetry_equiv_pos_as_xyz
  x,y,z
_cell_length_a	10.654559
_cell_length_b	23.532357
_cell_length_c	9.730223
_cell_angle_alpha	89.993164
_cell_angle_beta	89.999563
_cell_angle_gamma	83.658488
loop_
_atom_site_label
_atom_site_type_symbol
_atom_site_fract_x
_atom_site_fract_y
_atom_site_fract_z
O1	O	1.665261	0.080009	-0.114316
O2	O	1.299539	0.087624	-0.114319
O3	O	1.493461	0.000955	-0.114289
O4	O	1.471339	0.166678	-0.114346
O5	O	1.493459	0.000957	0.114291
O6	O	1.299537	0.087626	0.114261
O7	O	1.665258	0.080011	0.114264
Zn8	Zn	1.482397	0.083819	0.150554
Zn9	Zn	1.482400	0.083816	-0.150609
O10	O	1.471337	0.166680	0.114234
C11	C	1.252758	0.087065	-0.000029
C12	C	1.113370	0.085389	-0.000029
C13	C	1.063517	0.032784	-0.000007
C14	C	0.932545	0.031213	-0.000017
C15	C	0.901289	0.134856	-0.000064
C16	C	1.032258	0.136426	-0.000064
C17	C	1.081562	-0.027053	0.000026
C18	C	0.950590	-0.028625	0.000016
C19	C	1.492907	-0.020264	0.000005
C20	C	1.491243	-0.083493	0.000018
C21	C	1.480800	-0.475574	-0.124655
C22	C	1.479219	-0.534984	-0.124663
O23	O	1.478359	-0.565707	-0.230630
N24	N	1.478433	-0.564699	-0.000066
C25	C	1.479216	-0.535000	0.124547
O26	O	1.478402	-0.565731	0.230526
C27	C	1.480789	-0.475591	0.124554
C28	C	1.481587	-0.445880	-0.000052
C29	C	1.481597	-0.445863	-0.249250
C30	C	1.483181	-0.386457	-0.249242
C31	C	1.483968	-0.356763	-0.124638
C32	C	1.483171	-0.386474	-0.000043
C33	C	1.481563	-0.445893	0.249165
C34	C	1.483135	-0.386480	0.249161
C35	C	1.483933	-0.356769	0.124556
C36	C	1.485541	-0.297375	0.124569
N37	N	1.486327	-0.267660	-0.000028
C38	C	1.485540	-0.297354	-0.124632
C39	C	1.475912	-0.659764	0.124524
C40	C	1.474349	-0.719172	0.124519
C41	C	1.474349	-0.719151	-0.124692
C42	C	1.475921	-0.659742	-0.124685
C43	C	1.476697	-0.630049	-0.000073
C44	C	1.488867	-0.172598	-0.124605
C45	C	1.490456	-0.113187	-0.124586
C46	C	1.490449	-0.113213	0.124624
C47	C	1.488867	-0.172619	0.124606
C48	C	1.488072	-0.202310	-0.000020
O49	O	1.486397	-0.266614	0.230481
O50	O	1.486338	-0.266615	-0.230593
C51	C	1.712039	0.080570	-0.000029
C52	C	1.851428	0.082247	-0.000038
C53	C	1.471891	0.187899	-0.000063
C54	C	1.473555	0.251129	-0.000085
N55	N	1.482405	0.083821	0.356091
N56	N	1.482403	0.083810	-0.356146
C57	C	1.568295	0.045457	0.428030
C58	C	1.568292	0.045450	0.571913
C59	C	1.396504	0.122176	0.571905
C60	C	1.396502	0.122180	0.428024
C61	C	1.667478	0.001161	0.428036
C62	C	1.667475	0.001154	0.571919
H63	H	1.127783	-0.045130	0.098729
H64	H	0.921971	-0.052022	0.095685
C65	C	1.480785	-0.478520	-0.386337
N66	N	1.480202	-0.503115	-0.489599
C67	C	1.628031	-0.054723	0.632219
N68	N	1.598314	-0.096807	0.677638
H69	H	1.488229	-0.196812	0.226070
C70	C	0.812055	0.190993	-0.000093
N71	N	0.744845	0.233278	-0.000110
H72	H	1.326564	0.153406	0.630489
C73	C	1.138945	-0.057516	-0.129188
N74	N	1.182166	-0.080459	-0.226512
H75	H	0.915573	-0.047684	-0.098674
C76	C	1.491330	-0.080508	-0.261667
N77	N	1.491985	-0.055896	-0.364914
H78	H	1.647440	-0.042611	0.388997
H79	H	1.488213	-0.196765	-0.226087
H80	H	1.758217	0.015033	0.383405
H81	H	1.483826	-0.362271	-0.350709
H82	H	1.763673	0.010913	0.610966
H83	H	1.072842	0.179262	-0.000105
C84	C	1.491303	-0.080538	0.261682
N85	N	1.491932	-0.055924	0.364914
H86	H	1.476569	-0.635555	-0.226150
H87	H	1.473704	-0.743339	-0.226151
H88	H	1.476548	-0.635591	0.226005
C89	C	1.483994	-0.353821	0.386248
N90	N	1.484646	-0.329224	0.489502
C91	C	1.473483	-0.751849	0.261595
N92	N	1.472822	-0.776458	0.364845
H93	H	1.480915	-0.470074	0.350633
C94	C	1.302112	0.164427	0.348896
N95	N	1.231052	0.196267	0.289297
