data_functionalizedCrystal
_audit_creation_method	'MofGen! by Chris Wilmer'
_symmetry_space_group_name_H-M	'P1'
_symmetry_Int_Tables_number	1
_symmetry_cell_setting	triclinic
loop_
_symmetry_equiv_pos_as_xyz
  x,y,z
_cell_length_a	19.805407
_cell_length_b	19.077068
_cell_length_c	19.077237
_cell_angle_alpha	85.344389
_cell_angle_beta	92.313575
_cell_angle_gamma	92.327086
loop_
_atom_site_label
_atom_site_type_symbol
_atom_site_fract_x
_atom_site_fract_y
_atom_site_fract_z
Zn1	Zn	1.039064	-0.296669	0.409869
Zn2	Zn	1.372397	0.036665	0.743203
Zn3	Zn	1.705730	0.369998	1.076536
Zn4	Zn	1.030244	-0.409826	0.296714
Zn5	Zn	1.363577	-0.076493	0.630047
Zn6	Zn	1.696910	0.256841	0.963380
Zn7	Zn	0.921518	-0.291957	0.291997
Zn8	Zn	1.254851	0.041376	0.625330
Zn9	Zn	1.588185	0.374710	0.958664
Zn10	Zn	0.921467	-0.414518	0.414556
Zn11	Zn	1.254800	-0.081185	0.747889
Zn12	Zn	1.588134	0.252148	1.081222
O13	O	0.978073	-0.353242	0.353284
O14	O	1.311406	-0.019909	0.686617
O15	O	1.644740	0.313424	1.019951
O16	O	1.132610	-0.311687	0.394872
O17	O	1.465944	0.021646	0.728205
O18	O	1.799277	0.354980	1.061539
O19	O	1.012151	-0.390255	0.197441
O20	O	1.345484	-0.056922	0.530774
O21	O	1.678818	0.276412	0.864107
O22	O	0.940823	-0.193933	0.303698
O23	O	1.274156	0.139400	0.637031
O24	O	1.607490	0.472734	0.970365
O25	O	1.126130	-0.394823	0.311737
O26	O	1.459464	-0.061490	0.645070
O27	O	1.792797	0.271843	0.978403
O28	O	1.027183	-0.197394	0.390298
O29	O	1.360517	0.135939	0.723632
O30	O	1.693850	0.469272	1.056965
O31	O	0.932271	-0.303657	0.193975
O32	O	1.265604	0.029676	0.527309
O33	O	1.598937	0.363010	0.860642
O34	O	0.826794	-0.308207	0.308242
O35	O	1.160128	0.025126	0.641575
O36	O	1.493461	0.358460	0.974908
O37	O	0.940736	-0.402821	0.512581
O38	O	1.274070	-0.069487	0.845915
O39	O	1.607403	0.263846	1.179248
O40	O	0.826757	-0.398252	0.398285
O41	O	1.160090	-0.064919	0.731618
O42	O	1.493424	0.268414	1.064952
O43	O	1.027134	-0.316237	0.509138
O44	O	1.360467	0.017096	0.842472
O45	O	1.693801	0.350430	1.175805
O46	O	1.012102	-0.509098	0.316281
O47	O	1.345435	-0.175764	0.649614
O48	O	1.678768	0.157569	0.982947
O49	O	0.932184	-0.512545	0.402859
O50	O	1.265517	-0.179212	0.736192
O51	O	1.598851	0.154122	1.069525
C52	C	0.802217	-0.353228	0.353261
C53	C	1.135550	-0.019895	0.686594
C54	C	1.468883	0.313439	1.019927
C55	C	0.726985	-0.353240	0.353268
C56	C	1.060318	-0.019906	0.686601
C57	C	1.393651	0.313427	1.019935
C58	C	0.691633	-0.400191	0.400083
C59	C	1.024967	-0.066858	0.733417
C60	C	1.358300	0.266476	1.066750
C61	C	0.620945	-0.400193	0.400093
C62	C	0.954279	-0.066859	0.733427
C63	C	1.287612	0.266474	1.066760
C64	C	0.585609	-0.353246	0.353284
C65	C	0.918943	-0.019912	0.686617
C66	C	1.252276	0.313421	1.019951
C67	C	0.620966	-0.306289	0.306466
C68	C	0.954299	0.027044	0.639800
C69	C	1.287632	0.360378	0.973133
C70	C	0.691653	-0.306285	0.306460
C71	C	1.024986	0.027049	0.639794
C72	C	1.358319	0.360382	0.973127
C73	C	0.335893	-0.306306	0.306490
C74	C	0.669226	0.027028	0.639824
C75	C	1.002559	0.360361	0.973157
C76	C	0.265200	-0.306315	0.306499
C77	C	0.598534	0.027018	0.639832
C78	C	0.931867	0.360351	0.973165
C79	C	0.265185	-0.400214	0.400123
C80	C	0.598519	-0.066880	0.733457
C81	C	0.931852	0.266453	1.066790
C82	C	0.335872	-0.400209	0.400117
C83	C	0.669206	-0.066876	0.733450
C84	C	1.002539	0.266457	1.066784
C85	C	0.371222	-0.353250	0.353303
C86	C	0.704556	-0.019917	0.686636
C87	C	1.037889	0.313416	1.019969
C88	C	0.447871	-0.353248	0.353293
C89	C	0.781204	-0.019915	0.686627
C90	C	1.114537	0.313418	1.019960
C91	C	0.508962	-0.353251	0.353289
C92	C	0.842296	-0.019917	0.686623
C93	C	1.175629	0.313416	1.019956
C94	C	0.971199	-0.536401	0.360605
C95	C	1.304532	-0.203067	0.693939
C96	C	1.637866	0.130266	1.027272
C97	C	0.968321	-0.614757	0.363761
C98	C	1.301655	-0.281424	0.697094
C99	C	1.634988	0.051909	1.030428
C100	C	1.008613	-0.649753	0.320205
C101	C	1.341946	-0.316419	0.653538
C102	C	1.675280	0.016914	0.986871
C103	C	1.005910	-0.723377	0.323177
C104	C	1.339244	-0.390044	0.656510
C105	C	1.672577	-0.056711	0.989843
C106	C	0.962912	-0.762005	0.369703
C107	C	1.296245	-0.428672	0.703036
C108	C	1.629579	-0.095339	1.036369
C109	C	0.922619	-0.727005	0.413264
C110	C	1.255952	-0.393672	0.746597
C111	C	1.589285	-0.060338	1.079931
C112	C	0.925325	-0.653382	0.410295
C113	C	1.258659	-0.320048	0.743628
C114	C	1.591992	0.013285	1.076961
C115	C	0.950355	-0.982391	0.383416
C116	C	1.283688	-0.649057	0.716749
C117	C	1.617021	-0.315724	1.050082
C118	C	0.947650	-1.056019	0.386380
C119	C	1.280983	-0.722685	0.719714
C120	C	1.614316	-0.389352	1.053047
C121	C	1.030943	-1.052386	0.296294
C122	C	1.364276	-0.719053	0.629627
C123	C	1.697609	-0.385720	0.962960
C124	C	1.033643	-0.978762	0.293326
C125	C	1.366976	-0.645428	0.626659
C126	C	1.700309	-0.312095	0.959992
C127	C	0.993352	-0.943768	0.336889
C128	C	1.326685	-0.610434	0.670223
C129	C	1.660019	-0.277101	1.003556
N130	N	0.960147	-0.837262	0.372740
N131	N	1.293480	-0.503928	0.706074
N132	N	1.626814	-0.170595	1.039407
N133	N	0.996121	-0.868513	0.333855
N134	N	1.329454	-0.535180	0.667188
N135	N	1.662788	-0.201846	1.000522
C136	C	1.154616	-0.353257	0.353308
C137	C	1.487949	-0.019924	0.686641
C138	C	1.821283	0.313409	1.019974
C139	C	1.229848	-0.353264	0.353318
C140	C	1.563182	-0.019931	0.686651
C141	C	1.896515	0.313403	1.019985
C142	C	0.984913	-0.360578	0.537153
C143	C	1.318247	-0.027245	0.870486
C144	C	1.651580	0.306089	1.203820
C145	C	0.987828	-0.363704	0.615507
C146	C	1.321162	-0.030371	0.948841
C147	C	1.654495	0.302963	1.282174
C148	C	0.984993	-0.169370	0.345949
C149	C	1.318326	0.163964	0.679283
C150	C	1.651659	0.497297	1.012616
C151	C	0.987942	-0.091014	0.342824
C152	C	1.321275	0.242319	0.676157
C153	C	1.654608	0.575652	1.009490
C154	C	0.971300	-0.345885	0.170128
C155	C	1.304633	-0.012551	0.503461
C156	C	1.637967	0.320782	0.836795
C157	C	0.968524	-0.342560	0.091766
C158	C	1.301857	-0.009227	0.425099
C159	C	1.635190	0.324106	0.758433
C160	C	1.008738	-0.386176	1.056753
C161	C	1.342071	-0.052842	1.390086
C162	C	1.675404	0.280491	1.723419
C163	C	1.005989	-0.383234	0.983131
C164	C	1.339322	-0.049901	1.316464
C165	C	1.672656	0.283433	1.649797
C166	C	0.963029	-0.336673	0.944523
C167	C	1.296363	-0.003340	1.277856
C168	C	1.629696	0.329993	1.611190
C169	C	0.922811	-0.293056	0.979541
C170	C	1.256144	0.040277	1.312875
C171	C	1.589478	0.373611	1.646208
C172	C	0.925556	-0.296002	1.053162
C173	C	1.258890	0.037332	1.386496
C174	C	1.592223	0.370665	1.719829
C175	C	0.950355	-0.323032	0.724147
C176	C	1.283689	0.010301	1.057480
C177	C	1.617022	0.343634	1.390813
C178	C	0.947614	-0.320088	0.650521
C179	C	1.280948	0.013245	0.983854
C180	C	1.614281	0.346578	1.317187
C181	C	1.030792	-0.410268	0.654115
C182	C	1.364125	-0.076935	0.987448
C183	C	1.697459	0.256399	1.320782
C184	C	1.033537	-0.413206	0.727737
C185	C	1.366870	-0.079873	1.061071
C186	C	1.700203	0.253460	1.394404
C187	C	0.993316	-0.369592	0.762749
C188	C	1.326649	-0.036258	1.096083
C189	C	1.659982	0.297075	1.429416
N190	N	0.960220	-0.333664	0.869269
N191	N	1.293554	-0.000330	1.202602
N192	N	1.626887	0.333003	1.535936
N193	N	0.996122	-0.372605	0.838002
N194	N	1.329455	-0.039272	1.171335
N195	N	1.662788	0.294061	1.504669
H196	H	0.364666	-0.268074	0.268366
H197	H	0.697999	0.065259	0.601699
H198	H	1.031332	0.398593	0.935033
H199	H	1.068519	-0.451122	0.759167
H200	H	1.401852	-0.117788	1.092500
H201	H	1.735185	0.215545	1.425833
F202	F	1.054374	-0.608648	0.270681
F203	F	1.387707	-0.275315	0.604014
F204	F	1.721041	0.058018	0.937347
H205	H	0.720399	-0.438423	0.438199
H206	H	1.053732	-0.105090	0.771532
H207	H	1.387065	0.228244	1.104865
H208	H	0.887829	-0.255148	0.948101
H209	H	1.221162	0.078185	1.281435
H210	H	1.554496	0.411518	1.614768
F211	F	0.882443	-0.616137	0.456655
F212	F	1.215776	-0.282804	0.789989
F213	F	1.549110	0.050529	1.123322
H214	H	0.917547	-0.953904	0.418886
H215	H	1.250880	-0.620571	0.752219
H216	H	1.584214	-0.287238	1.085553
F217	F	1.079415	-0.937656	0.243814
F218	F	1.412749	-0.604323	0.577148
F219	F	1.746082	-0.270990	0.910481
F220	F	0.729276	-0.256311	0.256635
F221	F	1.062609	0.077022	0.589968
F222	F	1.395942	0.410356	0.923301
F223	F	0.373475	-0.450179	0.449935
F224	F	0.706809	-0.116846	0.783269
F225	F	1.040142	0.216488	1.116602
F226	F	0.227557	-0.450191	0.449949
F227	F	0.560891	-0.116858	0.783282
F228	F	0.894224	0.216475	1.116615
F229	F	0.882758	-0.249577	1.090426
F230	F	1.216091	0.083756	1.423759
F231	F	1.549425	0.417090	1.757092
H232	H	0.887611	-0.758462	0.451149
H233	H	1.220945	-0.425128	0.784483
H234	H	1.554278	-0.091795	1.117816
F235	F	0.227595	-0.256344	0.256676
F236	F	0.560928	0.076989	0.590009
F237	F	0.894261	0.410322	0.923343
H238	H	0.592190	-0.268061	0.268356
H239	H	0.925523	0.065272	0.601690
H240	H	1.258856	0.398605	0.935023
F241	F	1.054466	-0.435729	1.097835
F242	F	1.387799	-0.102395	1.431169
F243	F	1.721132	0.230938	1.764502
F244	F	1.073594	-0.456683	0.616847
F245	F	1.406928	-0.123350	0.950181
F246	F	1.740261	0.209984	1.283514
F247	F	1.048792	-0.429655	0.945870
F248	F	1.382125	-0.096322	1.279203
F249	F	1.715458	0.237012	1.612537
F250	F	1.048797	-0.760619	0.276820
F251	F	1.382130	-0.427286	0.610153
F252	F	1.715464	-0.093952	0.943486
H253	H	0.592165	-0.438426	0.438214
H254	H	0.925499	-0.105093	0.771548
H255	H	1.258832	0.228241	1.104881
H256	H	1.063746	-1.080886	0.260828
H257	H	1.397080	-0.747553	0.594161
H258	H	1.730413	-0.414220	0.927494
H259	H	0.912644	-1.087468	0.424279
H260	H	1.245977	-0.754135	0.757613
H261	H	1.579310	-0.420802	1.090946
H262	H	0.912633	-0.282168	0.619088
H263	H	1.245966	0.051165	0.952421
H264	H	1.579299	0.384499	1.285755
F265	F	0.907523	-0.276638	0.761401
F266	F	1.240856	0.056695	1.094734
F267	F	1.574190	0.390028	1.428068
