data_functionalizedCrystal
_audit_creation_method	'MofGen! by Chris Wilmer'
_symmetry_space_group_name_H-M	'P1'
_symmetry_Int_Tables_number	1
_symmetry_cell_setting	triclinic
loop_
_symmetry_equiv_pos_as_xyz
  x,y,z
_cell_length_a	14.519709
_cell_length_b	16.098538
_cell_length_c	14.519731
_cell_angle_alpha	87.272855
_cell_angle_beta	83.684499
_cell_angle_gamma	92.738106
loop_
_atom_site_label
_atom_site_type_symbol
_atom_site_fract_x
_atom_site_fract_y
_atom_site_fract_z
O1	O	1.227993	0.069149	0.116782
O2	O	1.477993	0.319149	0.366782
O3	O	1.727993	0.569149	0.616782
O4	O	1.977993	0.819149	0.866782
O5	O	0.959518	0.069175	0.131017
O6	O	1.209518	0.319175	0.381017
O7	O	1.459518	0.569175	0.631017
O8	O	1.709518	0.819175	0.881017
O9	O	1.100863	0.069154	-0.010337
O10	O	1.350863	0.319154	0.239663
O11	O	1.600863	0.569154	0.489663
O12	O	1.850863	0.819154	0.739663
O13	O	1.086648	0.069170	0.258136
O14	O	1.336648	0.319170	0.508136
O15	O	1.586648	0.569170	0.758136
O16	O	1.836648	0.819170	1.008136
O17	O	1.092606	-0.069358	-0.002113
O18	O	1.342606	0.180642	0.247887
O19	O	1.592606	0.430642	0.497887
O20	O	1.842606	0.680642	0.747887
O21	O	0.951262	-0.069337	0.139241
O22	O	1.201262	0.180663	0.389241
O23	O	1.451262	0.430663	0.639241
O24	O	1.701262	0.680663	0.889241
O25	O	1.219736	-0.069362	0.125007
O26	O	1.469736	0.180638	0.375007
O27	O	1.719736	0.430638	0.625007
O28	O	1.969736	0.680638	0.875007
Zn29	Zn	1.084188	-0.091341	0.133430
Zn30	Zn	1.334188	0.158659	0.383430
Zn31	Zn	1.584188	0.408659	0.633430
Zn32	Zn	1.834188	0.658659	0.883430
Zn33	Zn	1.095066	0.091154	0.122593
Zn34	Zn	1.345066	0.341154	0.372593
Zn35	Zn	1.595066	0.591154	0.622593
Zn36	Zn	1.845066	0.841154	0.872593
O37	O	1.078391	-0.069341	0.266361
O38	O	1.328391	0.180659	0.516361
O39	O	1.578391	0.430659	0.766361
O40	O	1.828391	0.680659	1.016361
C41	C	0.921030	-0.000078	0.134465
C42	C	1.171030	0.249922	0.384465
C43	C	1.421030	0.499922	0.634465
C44	C	1.671030	0.749922	0.884465
C45	C	0.818650	-0.000068	0.132477
C46	C	1.068650	0.249932	0.382477
C47	C	1.318650	0.499932	0.632477
C48	C	1.568650	0.749932	0.882477
N49	N	1.076770	-0.215889	0.140825
N50	N	1.326770	0.034111	0.390825
N51	N	1.576770	0.284111	0.640825
N52	N	1.826770	0.534111	0.890825
C53	C	0.443751	-0.000106	0.125159
C54	C	0.693751	0.249894	0.375159
C55	C	0.943751	0.499894	0.625159
C56	C	1.193751	0.749894	0.875159
C57	C	0.548060	-0.000096	0.127191
C58	C	0.798060	0.249904	0.377191
C59	C	1.048060	0.499904	0.627191
C60	C	1.298060	0.749904	0.877191
C61	C	0.631197	-0.000087	0.128818
C62	C	0.881197	0.249913	0.378818
C63	C	1.131197	0.499913	0.628818
C64	C	1.381197	0.749913	0.878818
C65	C	0.735512	-0.000077	0.130850
C66	C	0.985512	0.249923	0.380850
C67	C	1.235512	0.499923	0.630850
C68	C	1.485512	0.749923	0.880850
C69	C	1.136785	-0.259483	0.080850
C70	C	1.386785	-0.009483	0.330850
C71	C	1.636785	0.240517	0.580850
C72	C	1.886785	0.490517	0.830850
C73	C	1.131604	-0.346672	0.086032
C74	C	1.381604	-0.096672	0.336032
C75	C	1.631604	0.153328	0.586032
C76	C	1.881604	0.403328	0.836032
C77	C	1.066413	-0.390264	0.151194
C78	C	1.316413	-0.140264	0.401194
C79	C	1.566413	0.109736	0.651194
C80	C	1.816413	0.359736	0.901194
C81	C	1.006392	-0.346664	0.211172
C82	C	1.256392	-0.096664	0.461172
C83	C	1.506392	0.153336	0.711172
C84	C	1.756392	0.403336	0.961172
C85	C	1.011569	-0.259477	0.205985
C86	C	1.261569	-0.009477	0.455985
C87	C	1.511569	0.240523	0.705985
C88	C	1.761569	0.490523	0.955985
C89	C	1.047647	-0.653511	0.169982
C90	C	1.297647	-0.403511	0.419982
C91	C	1.547647	-0.153511	0.669982
C92	C	1.797647	0.096489	0.919982
C93	C	1.042477	-0.740704	0.175166
C94	C	1.292477	-0.490704	0.425166
C95	C	1.542477	-0.240704	0.675166
C96	C	1.792477	0.009296	0.925166
C97	C	1.167688	-0.740706	0.050025
C98	C	1.417688	-0.490706	0.300025
C99	C	1.667688	-0.240706	0.550025
C100	C	1.917688	0.009294	0.800025
C101	C	1.172863	-0.653517	0.044847
C102	C	1.422863	-0.403517	0.294847
C103	C	1.672863	-0.153517	0.544847
C104	C	1.922863	0.096483	0.794847
C105	C	1.112839	-0.609925	0.104821
C106	C	1.362839	-0.359925	0.354821
C107	C	1.612839	-0.109925	0.604821
C108	C	1.862839	0.140075	0.854821
C109	C	1.061118	-0.479385	0.156494
C110	C	1.311118	-0.229385	0.406494
C111	C	1.561118	0.020615	0.656494
C112	C	1.811118	0.270615	0.906494
C113	C	1.118130	-0.520806	0.099516
C114	C	1.368130	-0.270806	0.349516
C115	C	1.618130	-0.020806	0.599516
C116	C	1.868130	0.229194	0.849516
C117	C	1.258224	-0.000108	0.121558
C118	C	1.508224	0.249892	0.371558
C119	C	1.758224	0.499892	0.621558
C120	C	2.008224	0.749892	0.871558
C121	C	1.360605	-0.000112	0.123546
C122	C	1.610605	0.249888	0.373546
C123	C	1.860605	0.499888	0.623546
C124	C	2.110605	0.749888	0.873546
C125	C	1.096069	-0.000102	-0.040584
C126	C	1.346069	0.249898	0.209416
C127	C	1.596069	0.499898	0.459416
C128	C	1.846069	0.749898	0.709416
C129	C	1.094072	-0.000102	-0.142965
C130	C	1.344072	0.249898	0.107035
C131	C	1.594072	0.499898	0.357035
C132	C	1.844072	0.749898	0.607035
N133	N	1.102491	0.215702	0.115191
N134	N	1.352491	0.465702	0.365191
N135	N	1.602491	0.715702	0.615191
N136	N	1.852491	0.965702	0.865191
C137	C	1.092451	-0.000100	-0.226109
C138	C	1.342451	0.249900	0.023891
C139	C	1.592451	0.499900	0.273891
C140	C	1.842451	0.749900	0.523891
C141	C	1.090424	-0.000094	-0.330418
C142	C	1.340424	0.249906	-0.080418
C143	C	1.590424	0.499906	0.169582
C144	C	1.840424	0.749906	0.419582
C145	C	1.088816	-0.000088	-0.413557
C146	C	1.338816	0.249912	-0.163557
C147	C	1.588816	0.499912	0.086443
C148	C	1.838816	0.749912	0.336443
C149	C	1.086790	-0.000083	-0.517873
C150	C	1.336790	0.249917	-0.267873
C151	C	1.586790	0.499917	-0.017873
C152	C	1.836790	0.749917	0.232127
C153	C	1.083186	-0.000084	0.296608
C154	C	1.333186	0.249916	0.546608
C155	C	1.583186	0.499916	0.796608
C156	C	1.833186	0.749916	1.046608
C157	C	1.085182	-0.000078	0.398987
C158	C	1.335182	0.249922	0.648987
C159	C	1.585182	0.499922	0.898987
C160	C	1.835182	0.749922	1.148987
H161	H	1.189874	-0.223996	0.027792
H162	H	1.439874	0.026004	0.277792
H163	H	1.689874	0.276004	0.527792
H164	H	1.939874	0.526004	0.777792
H165	H	0.998775	-0.618025	0.218817
H166	H	1.248775	-0.368025	0.468817
H167	H	1.498775	-0.118025	0.718817
H168	H	1.748775	0.131975	0.968817
H169	H	1.180472	-0.382165	0.037195
H170	H	1.430472	-0.132165	0.287195
H171	H	1.680472	0.117835	0.537195
H172	H	1.930472	0.367835	0.787195
Cl173	Cl	0.960516	-0.795501	0.257094
Cl174	Cl	1.210516	-0.545501	0.507094
Cl175	Cl	1.460516	-0.295501	0.757094
Cl176	Cl	1.710516	-0.045501	1.007094
H177	H	1.225946	-0.618026	-0.008213
H178	H	1.475946	-0.368026	0.241787
H179	H	1.725946	-0.118026	0.491787
H180	H	1.975946	0.131974	0.741787
H181	H	1.216556	-0.776207	0.001195
H182	H	1.466556	-0.526207	0.251195
H183	H	1.716556	-0.276207	0.501195
H184	H	1.966556	-0.026207	0.751195
H185	H	0.953308	-0.382162	0.264225
H186	H	1.203308	-0.132162	0.514225
H187	H	1.453308	0.117838	0.764225
H188	H	1.703308	0.367838	1.014225
H189	H	0.962698	-0.223984	0.254821
H190	H	1.212698	0.026016	0.504821
H191	H	1.462698	0.276016	0.754821
H192	H	1.712698	0.526016	1.004821
Cl193	Cl	1.200078	-0.466003	0.017598
Cl194	Cl	1.450078	-0.216003	0.267598
Cl195	Cl	1.700078	0.033997	0.517598
Cl196	Cl	1.950078	0.283997	0.767598
H197	H	1.008040	-0.514885	0.209552
H198	H	1.258040	-0.264885	0.459552
H199	H	1.508040	-0.014885	0.709552
H200	H	1.758040	0.235115	0.959552
