data_functionalizedCrystal
_audit_creation_method	'MofGen! by Chris Wilmer'
_symmetry_space_group_name_H-M	'P1'
_symmetry_Int_Tables_number	1
_symmetry_cell_setting	triclinic
loop_
_symmetry_equiv_pos_as_xyz
  x,y,z
_cell_length_a	12.594517
_cell_length_b	10.686285
_cell_length_c	10.686551
_cell_angle_alpha	80.915481
_cell_angle_beta	94.389873
_cell_angle_gamma	94.365748
loop_
_atom_site_label
_atom_site_type_symbol
_atom_site_fract_x
_atom_site_fract_y
_atom_site_fract_z
Zn1	Zn	1.700414	0.450107	0.678809
Zn2	Zn	2.200414	0.950107	1.178809
Zn3	Zn	1.700328	0.678687	0.450307
Zn4	Zn	2.200328	1.178687	0.950307
Zn5	Zn	1.509735	0.466467	0.466593
Zn6	Zn	2.009735	0.966467	0.966593
Zn7	Zn	1.535105	0.662309	0.662530
Zn8	Zn	2.035105	1.162309	1.162530
O9	O	1.611395	0.564392	0.564560
O10	O	2.111395	1.064392	1.064560
O11	O	1.849348	0.480435	0.648495
O12	O	2.349348	0.980435	1.148495
O13	O	1.664392	0.664236	0.274838
O14	O	2.164392	1.164236	0.774838
O15	O	1.524447	0.286674	0.508373
O16	O	2.024447	0.786674	1.008373
O17	O	1.849285	0.648372	0.480615
O18	O	2.349285	1.148372	0.980615
O19	O	1.664538	0.274655	0.664287
O20	O	2.164538	0.774655	1.164287
O21	O	1.524364	0.508319	0.286804
O22	O	2.024364	1.008319	0.786804
O23	O	1.364154	0.492439	0.492587
O24	O	1.864154	0.992439	0.992587
O25	O	1.567687	0.620459	0.842318
O26	O	2.067687	1.120459	1.342318
O27	O	1.382794	0.636323	0.636541
O28	O	1.882794	1.136323	1.136541
O29	O	1.689139	0.464555	0.854279
O30	O	2.189139	0.964555	1.354279
O31	O	1.688992	0.854136	0.464830
O32	O	2.188992	1.354136	0.964830
O33	O	1.567604	0.842104	0.620749
O34	O	2.067604	1.342104	1.120749
C35	C	1.631072	0.894174	0.539283
C36	C	2.131072	1.394174	1.039283
C37	C	1.639590	1.035252	0.528512
C38	C	2.139590	1.535252	1.028512
C39	C	1.334854	0.564380	0.564566
C40	C	1.834854	1.064380	1.064566
C41	C	1.216552	0.564403	0.564596
C42	C	1.716552	1.064403	1.064596
C43	C	1.889017	0.564406	0.564554
C44	C	2.389017	1.064406	1.064554
C45	C	2.007322	0.564411	0.564552
C46	C	2.507322	1.064411	1.064552
C47	C	2.076542	0.655748	0.473261
C48	C	2.576542	1.155748	0.973261
C49	C	2.138564	0.542335	0.451112
C50	C	2.638564	1.042335	0.951112
C51	C	2.156097	0.677806	0.586690
C52	C	2.656097	1.177806	1.086690
C53	C	2.067779	0.450943	0.542347
C54	C	2.567779	0.950943	1.042347
C55	C	2.085314	0.586487	0.677973
C56	C	2.585314	1.086487	1.177973
C57	C	2.147302	0.472992	0.655874
C58	C	2.647302	0.972992	1.155874
C59	C	1.631253	0.538856	0.895643
C60	C	2.131253	1.038856	1.395643
C61	C	1.639714	0.527973	1.036732
C62	C	2.139714	1.027973	1.536732
C63	C	1.591672	0.233321	0.589963
C64	C	2.091672	0.733321	1.089963
C65	C	1.583268	0.092238	0.600788
C66	C	2.083268	0.592238	1.100788
C67	C	1.591671	0.589738	0.234771
C68	C	2.091671	1.089738	0.734771
C69	C	1.583394	0.600263	0.093711
C70	C	2.083394	1.100263	0.593711
H71	H	2.045462	0.732906	0.395993
H72	H	2.545462	1.232906	0.895993
H73	H	2.162243	0.523650	0.355213
H74	H	2.662243	1.023650	0.855213
F75	F	2.017617	0.325568	0.517748
F76	F	2.517617	0.825568	1.017748
F77	F	1.711127	1.112558	0.436840
F78	F	2.211127	1.612558	0.936840
F79	F	1.511723	1.014940	0.692443
F80	F	2.011723	1.514940	1.192443
H81	H	1.694415	0.457758	1.095892
H82	H	2.194415	0.957758	1.595892
H83	H	1.528705	0.670482	1.034556
H84	H	2.028705	1.170482	1.534556
F85	F	2.206426	0.803153	0.611143
F86	F	2.706426	1.303153	1.111143
F87	F	2.054330	0.610958	0.803280
F88	F	2.554330	1.110958	1.303280
F89	F	2.187650	0.371925	0.756820
F90	F	2.687650	0.871925	1.256820
