data_functionalizedCrystal
_audit_creation_method	'MofGen! by Chris Wilmer'
_symmetry_space_group_name_H-M	'P1'
_symmetry_Int_Tables_number	1
_symmetry_cell_setting	triclinic
loop_
_symmetry_equiv_pos_as_xyz
  x,y,z
_cell_length_a	21.295417
_cell_length_b	18.050591
_cell_length_c	18.050582
_cell_angle_alpha	89.979078
_cell_angle_beta	90.026755
_cell_angle_gamma	89.973488
loop_
_atom_site_label
_atom_site_type_symbol
_atom_site_fract_x
_atom_site_fract_y
_atom_site_fract_z
Zn1	Zn	-0.250716	-1.135281	0.420010
Zn2	Zn	0.249284	-0.635281	0.920010
Zn3	Zn	-0.355977	-1.135186	0.295811
Zn4	Zn	0.144023	-0.635186	0.795811
Zn5	Zn	-0.250719	-1.011100	0.295821
Zn6	Zn	0.249281	-0.511100	0.795821
Zn7	Zn	-0.355944	-1.011043	0.419946
Zn8	Zn	0.144056	-0.511043	0.919946
O9	O	-0.303339	-1.073153	0.357897
O10	O	0.196661	-0.573153	0.857897
O11	O	-0.264692	-1.239193	0.403557
O12	O	0.235308	-0.739193	0.903557
O13	O	-0.342030	-1.118710	0.191887
O14	O	0.157970	-0.618710	0.691887
O15	O	-0.162629	-1.027636	0.312326
O16	O	0.337371	-0.527636	0.812326
O17	O	-0.342027	-1.239124	0.312308
O18	O	0.157973	-0.739124	0.812308
O19	O	-0.162627	-1.118871	0.403567
O20	O	0.337373	-0.618871	0.903567
O21	O	-0.264697	-1.027545	0.191895
O22	O	0.235303	-0.527545	0.691895
O23	O	-0.264664	-0.907168	0.312264
O24	O	0.235336	-0.407168	0.812264
O25	O	-0.341971	-1.027539	0.523879
O26	O	0.158029	-0.527539	1.023879
O27	O	-0.341973	-0.907126	0.403458
O28	O	0.158027	-0.407126	0.903458
O29	O	-0.264660	-1.118816	0.523926
O30	O	0.235340	-0.618816	1.023926
O31	O	-0.444062	-1.118655	0.312247
O32	O	0.055938	-0.618655	0.812247
O33	O	-0.444038	-1.027448	0.403449
O34	O	0.055962	-0.527448	0.903449
C35	C	-0.303316	-0.880200	0.357856
C36	C	0.196684	-0.380200	0.857856
C37	C	-0.303321	-0.797655	0.357856
C38	C	0.196679	-0.297655	0.857856
C39	C	-0.466891	-1.073055	0.357856
C40	C	0.033109	-0.573055	0.857856
C41	C	-0.536859	-1.073081	0.357863
C42	C	-0.036859	-0.573081	0.857863
C43	C	-0.303311	-1.073182	0.551603
C44	C	0.196689	-0.573182	1.051603
C45	C	-0.303299	-1.073194	0.634148
C46	C	0.196701	-0.573194	1.134148
C47	C	-0.569717	-1.120615	0.310423
C48	C	-0.069717	-0.620615	0.810423
C49	C	-0.635460	-1.120650	0.310440
C50	C	-0.135460	-0.620650	0.810440
C51	C	-0.668341	-1.073138	0.357889
C52	C	-0.168341	-0.573138	0.857889
C53	C	-0.635475	-1.025600	0.405338
C54	C	-0.135475	-0.525600	0.905338
C55	C	-0.569734	-1.025572	0.405325
C56	C	-0.069734	-0.525572	0.905325
N57	N	-0.771604	-1.008171	0.363536
N58	N	-0.271604	-0.508171	0.863536
N59	N	-0.834055	-1.008200	0.363544
N60	N	-0.334055	-0.508200	0.863544
C61	C	-0.866416	-1.073221	0.357931
C62	C	-0.366416	-0.573221	0.857931
N63	N	-0.833966	-1.138214	0.352296
N64	N	-0.333966	-0.638214	0.852296
N65	N	-0.771509	-1.138184	0.352284
N66	N	-0.271509	-0.638184	0.852284
C67	C	-0.739627	-1.073163	0.357908
C68	C	-0.239627	-0.573163	0.857908
C69	C	-0.970560	-1.120797	0.310507
C70	C	-0.470560	-0.620797	0.810507
C71	C	-1.036304	-1.120833	0.310529
C72	C	-0.536304	-0.620833	0.810529
C73	C	-1.036318	-1.025776	0.405423
C74	C	-0.536318	-0.525776	0.905423
C75	C	-0.970575	-1.025747	0.405405
C76	C	-0.470575	-0.525747	0.905405
C77	C	-0.937700	-1.073256	0.357943
C78	C	-0.437700	-0.573256	0.857943
C79	C	-0.139149	-1.073270	0.357954
C80	C	0.360851	-0.573270	0.857954
C81	C	-0.069181	-1.073321	0.357979
C82	C	0.430819	-0.573321	0.857979
C83	C	-0.303363	-1.266858	0.357939
C84	C	0.196637	-0.766858	0.857939
C85	C	-0.303373	-1.349404	0.357956
C86	C	0.196627	-0.849404	0.857956
C87	C	-0.261232	-0.598205	0.308379
C88	C	0.238768	-0.098205	0.808379
C89	C	-0.318646	-0.548783	0.290098
C90	C	0.181354	-0.048783	0.790098
C91	C	-0.303340	-0.646524	0.357889
C92	C	0.196660	-0.146524	0.857889
C93	C	-0.245945	-0.548865	0.376169
C94	C	0.254055	-0.048865	0.876169
C95	C	-0.303353	-0.500539	0.357920
C96	C	0.196647	-0.000539	0.857920
C97	C	-0.360785	-0.598189	0.339573
C98	C	0.139215	-0.098189	0.839573
C99	C	-0.288045	-0.598276	0.425676
C100	C	0.211955	-0.098276	0.925676
C101	C	-0.345499	-0.548875	0.407420
C102	C	0.154501	-0.048875	0.907420
C103	C	-0.303331	-0.730623	0.357870
C104	C	0.196669	-0.230623	0.857870
C105	C	-0.303368	-0.416443	0.357940
C106	C	0.196632	0.083557	0.857940
C107	C	-0.303322	-1.073166	0.164945
C108	C	0.196678	-0.573166	0.664945
C109	C	-0.303156	-1.073298	0.082399
C110	C	0.196844	-0.573298	0.582399
C111	C	-0.345283	-1.023596	0.833574
C112	C	0.154717	-0.523596	1.333574
C113	C	-0.360675	-1.091350	0.882971
C114	C	0.139325	-0.591350	1.382971
C115	C	-0.303251	-1.073231	0.785279
C116	C	0.196749	-0.573231	1.285279
C117	C	-0.287842	-1.005513	0.882964
C118	C	0.212158	-0.505513	1.382964
C119	C	-0.303206	-1.073260	0.931264
C120	C	0.196794	-0.573260	1.431264
C121	C	-0.318673	-1.141021	0.833589
C122	C	0.181327	-0.641021	1.333589
C123	C	-0.245814	-1.055138	0.833577
C124	C	0.254186	-0.555138	1.333577
C125	C	-0.261183	-1.122940	0.882952
C126	C	0.238817	-0.622940	1.382952
C127	C	-0.303279	-1.073213	0.701181
C128	C	0.196721	-0.573213	1.201181
C129	C	-0.303178	-1.073286	1.015361
C130	C	0.196822	-0.573286	1.515361
H131	H	-0.542953	-1.159302	0.271778
H132	H	-0.042953	-0.659302	0.771778
H133	H	-0.409229	-1.106671	0.904667
H134	H	0.090771	-0.606671	1.404667
Br135	Br	-0.404925	-0.512999	0.477231
Br136	Br	0.095075	-0.012999	0.977231
H137	H	-0.331742	-1.198317	0.811991
H138	H	0.168258	-0.698317	1.311991
H139	H	-0.275080	-0.620032	0.482970
H140	H	0.224920	-0.120032	0.982970
H141	H	-0.662218	-1.159361	0.271808
H142	H	-0.162218	-0.659361	0.771808
Br143	Br	-0.201906	-1.192998	0.918865
Br144	Br	0.298094	-0.692998	1.418865
H145	H	-0.197408	-0.527159	0.391591
H146	H	0.302592	-0.027159	0.891591
Br147	Br	-0.404601	-0.953699	0.797435
Br148	Br	0.095399	-0.453699	1.297435
H149	H	-0.197273	-1.039798	0.811864
H150	H	0.302727	-0.539798	1.311864
H151	H	-0.274828	-0.948233	0.904653
H152	H	0.225172	-0.448233	1.404653
Br153	Br	-1.080899	-1.185357	0.246147
Br154	Br	-0.580899	-0.685357	0.746147
H155	H	-0.225660	-0.619865	0.266464
H156	H	0.274340	-0.119865	0.766464
Br157	Br	-0.680098	-0.961124	0.469740
Br158	Br	-0.180098	-0.461124	0.969740
Br159	Br	-0.525137	-0.961058	0.469714
Br160	Br	-0.025137	-0.461058	0.969714
Br161	Br	-0.925940	-1.185269	0.246093
Br162	Br	-0.425940	-0.685269	0.746093
Br163	Br	-1.080935	-0.961301	0.469827
Br164	Br	-0.580935	-0.461301	0.969827
Br165	Br	-0.441719	-0.634145	0.313716
Br166	Br	0.058281	-0.134145	0.813716
Br167	Br	-0.925978	-0.961231	0.469790
Br168	Br	-0.425978	-0.461231	0.969790
H169	H	-0.331593	-0.527044	0.232786
H170	H	0.168407	-0.027044	0.732786
