data_functionalizedCrystal
_audit_creation_method	'MofGen! by Chris Wilmer'
_symmetry_space_group_name_H-M	'P1'
_symmetry_Int_Tables_number	1
_symmetry_cell_setting	triclinic
loop_
_symmetry_equiv_pos_as_xyz
  x,y,z
_cell_length_a	23.204082
_cell_length_b	23.204045
_cell_length_c	23.204116
_cell_angle_alpha	89.997122
_cell_angle_beta	59.999658
_cell_angle_gamma	60.000252
loop_
_atom_site_label
_atom_site_type_symbol
_atom_site_fract_x
_atom_site_fract_y
_atom_site_fract_z
O1	O	-0.412480	-0.491202	0.017139
O2	O	-0.294471	-0.407395	-0.017066
O3	O	-0.412477	-0.407394	0.100940
O4	O	-0.294474	-0.491202	-0.100867
O5	O	-0.508322	-0.311547	0.100932
O6	O	-0.390316	-0.311548	-0.017074
O7	O	-0.508325	-0.395354	0.017130
Cu8	Cu	-0.458072	-0.344699	0.000027
Cu9	Cu	-0.344724	-0.458050	0.000037
O10	O	-0.390319	-0.395355	-0.100875
C11	C	-0.285813	-0.206296	-0.024834
C12	C	-0.326273	-0.130276	-0.019933
C13	C	-0.320165	-0.241299	-0.025326
C14	C	-0.181449	-0.310658	-0.024841
C15	C	-0.110323	-0.346222	-0.019948
C16	C	-0.215961	-0.345503	-0.025334
C17	C	-0.285806	-0.310659	-0.024845
C18	C	-0.326259	-0.346224	-0.019956
C19	C	-0.215967	-0.241299	-0.025322
C20	C	-0.590036	-0.658548	0.035863
C21	C	-0.549583	-0.734565	0.030975
C22	C	-0.659879	-0.623548	0.036347
C23	C	-0.590031	-0.554191	0.035854
C24	C	-0.549574	-0.518629	0.030957
C25	C	-0.659874	-0.519350	0.036338
C26	C	-0.694390	-0.554193	0.035854
C27	C	-0.765512	-0.518632	0.030956
C28	C	-0.555679	-0.623547	0.036347
C29	C	-0.822971	-0.489904	0.026998
C30	C	-0.516901	-0.795979	0.027025
C31	C	-0.516887	-0.489899	0.026999
C32	C	-0.895056	-0.453862	0.022034
C33	C	-0.475900	-0.873026	0.022070
C34	C	-0.475880	-0.453855	0.022035
C35	C	-0.212779	-0.554187	-0.445760
C36	C	-0.253235	-0.518625	-0.481325
C37	C	-0.142938	-0.623543	-0.480599
C38	C	-0.212778	-0.554188	-0.341402
C39	C	-0.253233	-0.518627	-0.265386
C40	C	-0.142937	-0.623544	-0.376399
C41	C	-0.108425	-0.658544	-0.445754
C42	C	-0.037304	-0.734561	-0.481312
C43	C	-0.247133	-0.519345	-0.376406
C44	C	0.020154	-0.795975	-0.510038
C45	C	-0.285919	-0.489895	-0.510057
C46	C	-0.285917	-0.489898	-0.203972
C47	C	0.092238	-0.873022	-0.546077
C48	C	-0.326923	-0.453852	-0.546102
C49	C	-0.326919	-0.453855	-0.126925
O50	O	0.083787	-0.395358	0.017138
O51	O	-0.083832	-0.311543	-0.017055
O52	O	-0.083824	-0.311562	0.100946
O53	O	0.083780	-0.395339	-0.100863
O54	O	-0.083819	-0.407416	0.100936
O55	O	-0.083827	-0.407396	-0.017065
O56	O	0.083793	-0.491212	0.017128
Cu57	Cu	-0.000016	-0.458057	0.000030
Cu58	Cu	-0.000023	-0.344698	0.000043
O59	O	0.083785	-0.491193	-0.100873
O60	O	-0.508348	0.100920	0.017171
O61	O	-0.390334	-0.100894	-0.017043
O62	O	-0.508336	0.017095	0.100966
O63	O	-0.390345	-0.017070	-0.100839
O64	O	-0.412488	0.017097	0.100970
O65	O	-0.294485	-0.100893	-0.017040
O66	O	-0.412499	0.100921	0.017174
Cu67	Cu	-0.344741	0.000014	0.000068
Cu68	Cu	-0.458093	0.000013	0.000063
O69	O	-0.294497	-0.017068	-0.100835
O70	O	0.280999	-1.100885	-0.592525
O71	O	0.113393	-0.899077	-0.508728
O72	O	0.113387	-1.017080	-0.508721
O73	O	0.281004	-0.982882	-0.592532
O74	O	0.113385	-1.017077	-0.604570
O75	O	0.113390	-0.899075	-0.604578
O76	O	0.280996	-1.100883	-0.688375
Cu77	Cu	0.197193	-0.999978	-0.655228
Cu78	Cu	0.197196	-0.999981	-0.541875
O79	O	0.281002	-0.982880	-0.688382
O80	O	-0.412477	-0.407395	-0.688417
O81	O	-0.294477	-0.491199	-0.604602
O82	O	-0.412481	-0.491200	-0.604602
O83	O	-0.294472	-0.407394	-0.688417
O84	O	-0.508328	-0.395351	-0.508758
O85	O	-0.390324	-0.395350	-0.508758
O86	O	-0.508324	-0.311546	-0.592573
Cu87	Cu	-0.458075	-0.344696	-0.541914
Cu88	Cu	-0.344725	-0.458049	-0.655261
O89	O	-0.390319	-0.311545	-0.592573
C90	C	-0.621344	-0.206306	0.310685
C91	C	-0.692465	-0.130289	0.346242
C92	C	-0.586831	-0.241307	0.345531
C93	C	-0.516990	-0.310663	0.206334
C94	C	-0.476535	-0.346224	0.130317
C95	C	-0.482636	-0.345505	0.241338
C96	C	-0.516990	-0.310663	0.310693
C97	C	-0.476535	-0.346224	0.346258
C98	C	-0.586831	-0.241307	0.241330
C99	C	-0.285801	-0.310705	0.310685
C100	C	-0.326254	-0.346273	0.346239
C101	C	-0.320160	-0.241350	0.345532
C102	C	-0.181443	-0.310691	0.206337
C103	C	-0.110316	-0.346245	0.130322
C104	C	-0.215961	-0.241336	0.241343
C105	C	-0.285807	-0.206342	0.310696
C106	C	-0.326267	-0.130326	0.346262
C107	C	-0.215954	-0.345540	0.241331
C108	C	-0.516987	0.024845	0.310719
C109	C	-0.476528	0.019946	0.346281
C110	C	-0.586828	0.025326	0.345560
C111	C	-0.516995	0.024862	0.206365
C112	C	-0.476545	0.019980	0.130349
C113	C	-0.586836	0.025343	0.241363
C114	C	-0.621344	0.024844	0.310717
C115	C	-0.692465	0.019943	0.346276
C116	C	-0.482637	0.025344	0.241366
C117	C	0.409980	-0.658502	-0.445755
C118	C	0.450440	-0.734518	-0.481321
C119	C	0.444334	-0.623495	-0.480590
C120	C	0.305616	-0.554153	-0.341395
C121	C	0.234489	-0.518599	-0.265380
C122	C	0.340128	-0.519304	-0.376389
C123	C	0.409974	-0.554140	-0.445743
C124	C	0.450428	-0.518571	-0.481297
C125	C	0.340134	-0.623508	-0.376401
C126	C	0.483111	-0.489836	-0.510020
C127	C	0.483129	-0.795932	-0.510054
C128	C	0.177027	-0.489876	-0.203967
C129	C	0.524114	-0.453787	-0.546055
C130	C	0.524137	-0.872979	-0.546102
C131	C	0.104938	-0.453840	-0.126922
O132	O	-0.412518	0.100876	0.395394
O133	O	-0.294489	-0.100934	0.311584
O134	O	-0.412514	0.017060	0.311594
O135	O	-0.294493	-0.017118	0.395384
O136	O	-0.508344	0.017040	0.407447
O137	O	-0.390319	-0.100954	0.407437
O138	O	-0.508349	0.100856	0.491247
Cu139	Cu	-0.458084	-0.000051	0.458094
Cu140	Cu	-0.344753	-0.000027	0.344737
O141	O	-0.390324	-0.017138	0.491237
C142	C	-0.108470	-0.035723	-0.445718
C143	C	-0.037350	-0.030822	-0.481277
C144	C	-0.142987	-0.036205	-0.480560
C145	C	-0.212819	-0.035740	-0.341365
C146	C	-0.253268	-0.030859	-0.265349
C147	C	-0.247177	-0.036223	-0.376365
C148	C	-0.212828	-0.035724	-0.445719
C149	C	-0.253288	-0.030824	-0.481280
C150	C	-0.142978	-0.036222	-0.376364
C151	C	-0.285976	-0.026864	-0.510009
C152	C	0.020107	-0.026861	-0.510005
C153	C	-0.285948	-0.026913	-0.203936
C154	C	-0.326984	-0.021898	-0.546051
C155	C	0.092191	-0.021893	-0.546046
C156	C	-0.326946	-0.021965	-0.126891
H157	H	-0.187067	-0.402492	-0.026126
Cl158	Cl	-0.406935	-0.197915	-0.026539
H159	H	-0.615699	0.026091	0.402541
H160	H	-0.303376	-0.037012	-0.348263
Cl161	Cl	-0.406893	-0.197993	0.433528
H162	H	-0.114103	-0.036982	-0.537544
H163	H	-0.114124	-0.036954	-0.348248
H164	H	-0.688752	-0.462366	0.037114
H165	H	-0.187083	-0.213195	-0.026108
H166	H	0.311238	-0.462320	-0.348281
H167	H	0.500533	-0.651590	-0.537576
Cl168	Cl	-0.098355	-0.666934	-0.568572
Cl169	Cl	-0.098335	-0.666927	-0.333016
Cl170	Cl	-0.704486	-0.666928	0.037573
Cl171	Cl	0.295543	-0.666901	-0.333022
H172	H	-0.187078	-0.213231	0.213243
H173	H	-0.499475	-0.651651	0.037130
H174	H	-0.303331	-0.462359	-0.348311
Cl175	Cl	-0.631433	-0.197928	0.433514
Cl176	Cl	-0.395831	-0.433467	0.197941
Cl177	Cl	-0.631430	-0.197927	0.197943
Cl178	Cl	-0.171359	-0.433516	0.197936
H179	H	-0.615728	0.026142	0.213264
H180	H	-0.426437	0.026132	0.213269
