data_functionalizedCrystal
_audit_creation_method	'MofGen! by Chris Wilmer'
_symmetry_space_group_name_H-M	'P1'
_symmetry_Int_Tables_number	1
_symmetry_cell_setting	triclinic
loop_
_symmetry_equiv_pos_as_xyz
  x,y,z
_cell_length_a	11.169417
_cell_length_b	15.297327
_cell_length_c	15.296720
_cell_angle_alpha	107.319222
_cell_angle_beta	99.664426
_cell_angle_gamma	99.707226
loop_
_atom_site_label
_atom_site_type_symbol
_atom_site_fract_x
_atom_site_fract_y
_atom_site_fract_z
Zn1	Zn	1.592726	-0.461193	-0.589759
Zn2	Zn	1.592590	-0.589815	-0.461153
Zn3	Zn	1.434032	-0.434324	-0.434284
Zn4	Zn	1.349984	-0.616662	-0.616609
O5	O	1.492333	-0.525499	-0.525451
O6	O	1.760654	-0.478264	-0.572707
O7	O	1.606674	-0.546708	-0.327463
O8	O	1.490314	-0.307751	-0.432427
O9	O	1.760554	-0.572762	-0.478221
O10	O	1.606907	-0.327492	-0.546653
O11	O	1.490182	-0.432470	-0.307723
O12	O	1.254937	-0.458503	-0.458462
O13	O	1.347067	-0.618519	-0.743173
O14	O	1.193187	-0.592465	-0.592415
O15	O	1.525408	-0.504297	-0.723446
O16	O	1.525176	-0.723514	-0.504256
O17	O	1.346934	-0.743238	-0.618469
C18	C	1.180515	-0.525483	-0.525437
C19	C	1.047106	-0.525502	-0.525457
C20	C	1.426947	-0.767123	-0.567212
C21	C	1.399076	-0.870496	-0.585109
C22	C	1.691939	-1.120712	-0.397859
C23	C	1.718126	-1.023587	-0.381040
C24	C	1.638366	-0.985310	-0.432056
C25	C	1.532414	-1.044167	-0.499894
C26	C	1.506220	-1.141300	-0.516710
C27	C	1.452647	-1.005898	-0.550906
C28	C	1.346695	-1.064755	-0.618744
C29	C	1.320506	-1.161879	-0.635557
C30	C	1.400265	-1.200156	-0.584541
C31	C	1.478841	-0.908764	-0.534090
C32	C	1.293122	-0.929352	-0.652940
C33	C	1.266935	-1.026477	-0.669760
C34	C	1.805368	-0.525516	-0.525466
C35	C	1.938765	-0.525523	-0.525473
C36	C	1.426877	-0.567400	-0.767993
C37	C	1.398984	-0.585256	-0.871350
C38	C	1.558001	-0.282935	-0.483548
C39	C	1.585985	-0.179568	-0.465691
C40	C	1.691779	-0.397718	-1.121615
C41	C	1.717993	-0.380943	-1.024506
C42	C	1.638243	-0.432019	-0.986212
C43	C	1.532274	-0.499874	-1.045037
C44	C	1.506063	-0.516656	-1.142156
C45	C	1.452527	-0.550957	-1.006753
C46	C	1.346559	-0.618812	-1.065577
C47	C	1.320351	-0.635590	-1.162687
C48	C	1.400101	-0.584514	-1.200981
C49	C	1.478739	-0.534176	-0.909634
C50	C	1.293023	-0.653114	-0.930175
C51	C	1.266809	-0.669889	-1.027283
C52	C	1.557621	-0.483693	-0.283842
C53	C	1.585817	-0.465576	-0.180440
H54	H	1.659693	-0.906225	-0.418356
H55	H	1.234073	-0.690850	-1.210581
H56	H	1.565108	-0.860851	-0.478856
O57	O	1.215444	-0.702847	-0.893146
C58	C	1.116285	-0.766325	-0.965887
H59	H	1.145885	-0.781511	-1.035673
H60	H	1.091222	-0.834746	-0.950480
H61	H	1.031567	-0.734050	-0.970327
H62	H	1.756862	-1.151887	-0.356324
O63	O	1.217684	-1.219032	-0.701575
C64	C	1.225204	-1.211242	-0.790149
H65	H	1.327013	-1.185302	-0.790272
H66	H	1.185199	-1.283041	-0.847139
H67	H	1.169482	-1.159085	-0.804658
H68	H	1.804390	-0.975669	-0.325806
H69	H	1.378952	-1.279243	-0.598234
H70	H	1.180528	-0.725136	-1.075192
O71	O	1.164117	-1.083636	-0.735778
C72	C	1.171633	-1.075850	-0.824353
H73	H	1.273440	-1.049902	-0.824476
H74	H	1.131638	-1.147652	-0.881340
H75	H	1.115901	-1.023701	-0.838867
H76	H	1.565018	-0.478927	-0.861748
O77	O	1.215793	-0.892156	-0.702597
C78	C	1.283020	-0.846272	-0.752944
H79	H	1.368094	-0.876486	-0.763807
H80	H	1.220532	-0.857526	-0.824287
H81	H	1.314794	-0.767702	-0.711453
H82	H	1.804275	-0.325698	-0.976619
O83	O	1.663852	-0.415575	-0.891856
C84	C	1.774497	-0.344749	-0.848150
H85	H	1.790918	-0.300090	-0.894733
H86	H	1.765373	-0.298227	-0.777085
H87	H	1.856671	-0.378656	-0.837289
O88	O	1.769082	-0.348168	-1.158964
C89	C	1.723243	-0.377554	-1.257295
H90	H	1.618797	-0.410290	-1.275810
H91	H	1.740288	-0.314280	-1.282181
H92	H	1.773577	-0.431852	-1.293407
O93	O	1.374599	-0.600980	-1.295344
C94	C	1.372568	-0.695708	-1.343192
H95	H	1.352662	-0.739610	-1.296485
H96	H	1.296428	-0.723455	-1.411016
H97	H	1.466966	-0.700658	-1.360767
