data_functionalizedCrystal
_audit_creation_method	'MofGen! by Chris Wilmer'
_symmetry_space_group_name_H-M	'P1'
_symmetry_Int_Tables_number	1
_symmetry_cell_setting	triclinic
loop_
_symmetry_equiv_pos_as_xyz
  x,y,z
_cell_length_a	16.992694
_cell_length_b	12.837942
_cell_length_c	16.053802
_cell_angle_alpha	92.838962
_cell_angle_beta	87.249047
_cell_angle_gamma	92.748582
loop_
_atom_site_label
_atom_site_type_symbol
_atom_site_fract_x
_atom_site_fract_y
_atom_site_fract_z
O1	O	1.059913	0.217066	-0.069322
O2	O	1.559913	0.717066	0.430678
O3	O	0.831447	0.214638	-0.069347
O4	O	1.331447	0.714638	0.430653
O5	O	0.940614	0.064530	-0.069330
O6	O	1.440614	0.564530	0.430670
O7	O	0.950746	0.367174	-0.069339
O8	O	1.450746	0.867174	0.430661
O9	O	0.934602	0.072756	0.069528
O10	O	1.434602	0.572756	0.569528
O11	O	0.825435	0.222864	0.069511
O12	O	1.325435	0.722864	0.569511
O13	O	1.053901	0.225292	0.069536
O14	O	1.553901	0.725292	0.569536
Zn15	Zn	0.938714	0.225384	0.091570
Zn16	Zn	1.438714	0.725384	0.591570
Zn17	Zn	0.946634	0.214546	-0.091381
Zn18	Zn	1.446634	0.714546	0.408619
O19	O	0.944734	0.375400	0.069519
O20	O	1.444734	0.875400	0.569519
C21	C	0.798996	0.215629	0.000079
C22	C	1.298996	0.715629	0.500079
C23	C	0.711256	0.206315	0.000070
C24	C	1.211256	0.706315	0.500070
C25	C	0.667730	0.296178	0.000068
C26	C	1.167730	0.796178	0.500068
C27	C	0.585288	0.287422	0.000079
C28	C	1.085288	0.787422	0.500079
C29	C	0.546375	0.188801	0.000087
C30	C	1.046375	0.688801	0.500087
C31	C	0.589907	0.098931	0.000092
C32	C	1.089907	0.598931	0.500092
C33	C	0.672346	0.107689	0.000086
C34	C	1.172346	0.607689	0.500086
C35	C	0.300064	0.152502	0.000111
C36	C	0.800064	0.652502	0.500111
C37	C	0.217618	0.143751	0.000114
C38	C	0.717618	0.643751	0.500114
C39	C	0.213006	0.332243	0.000103
C40	C	0.713006	0.832243	0.500103
C41	C	0.295447	0.340992	0.000092
C42	C	0.795447	0.840992	0.500092
C43	C	0.338972	0.251122	0.000101
C44	C	0.838972	0.751122	0.500101
N45	N	0.462107	0.179847	0.000097
N46	N	0.962107	0.679847	0.500097
N47	N	0.423238	0.260077	0.000098
N48	N	0.923238	0.760077	0.500098
C49	C	0.934185	0.029738	0.000098
C50	C	1.434185	0.529738	0.500098
C51	C	0.923977	-0.086184	0.000096
C52	C	1.423977	0.413816	0.500096
C53	C	1.046699	-0.316977	0.000092
C54	C	1.546699	0.183023	0.500092
C55	C	1.037111	-0.425897	0.000089
C56	C	1.537111	0.074103	0.500089
C57	C	0.895215	-0.412948	0.000082
C58	C	1.395215	0.087052	0.500082
C59	C	0.904802	-0.304027	0.000085
C60	C	1.404802	0.195973	0.500085
C61	C	0.980547	-0.256046	0.000091
C62	C	1.480547	0.243954	0.500091
C63	C	0.990134	-0.147123	0.000099
C64	C	1.490134	0.352877	0.500099
C65	C	0.848238	-0.134176	0.000086
C66	C	1.348238	0.365824	0.500086
C67	C	0.838650	-0.243097	0.000084
C68	C	1.338650	0.256903	0.500084
C69	C	1.086353	0.224300	0.000108
C70	C	1.586353	0.724300	0.500108
C71	C	1.174092	0.233614	0.000112
C72	C	1.674092	0.733614	0.500112
C73	C	0.951163	0.410191	0.000089
C74	C	1.451163	0.910191	0.500089
C75	C	0.961371	0.526114	0.000086
C76	C	1.461371	1.026114	0.500086
N77	N	0.933314	0.232780	0.216430
N78	N	1.433314	0.732780	0.716430
N79	N	0.952040	0.207141	-0.216241
N80	N	1.452040	0.707141	0.283759
C81	C	0.979785	0.168935	0.260131
C82	C	1.479785	0.668935	0.760131
C83	C	0.976016	0.174120	0.347537
C84	C	1.476016	0.674120	0.847537
C85	C	0.925779	0.243156	0.391240
C86	C	1.425779	0.743156	0.891240
C87	C	0.879303	0.307004	0.347533
C88	C	1.379303	0.807004	0.847533
C89	C	0.883068	0.301813	0.260129
C90	C	1.383068	0.801813	0.760129
C91	C	0.909329	0.265799	0.652647
C92	C	1.409329	0.765799	1.152647
C93	C	0.905569	0.270987	0.740058
C94	C	1.405569	0.770987	1.240058
C95	C	1.002281	0.138101	0.740056
C96	C	1.502281	0.638101	1.240056
C97	C	1.006046	0.132921	0.652650
C98	C	1.506046	0.632921	1.152650
C99	C	0.959566	0.196765	0.608950
C100	C	1.459566	0.696765	1.108950
N101	N	0.921927	0.248459	0.480584
N102	N	1.421927	0.748459	0.980584
N103	N	0.963414	0.191455	0.519608
N104	N	1.463414	0.691455	1.019608
H105	H	0.558216	0.018632	0.000110
H106	H	1.058216	0.518632	0.500110
H107	H	0.549853	0.360598	0.000077
H108	H	1.049853	0.860598	0.500077
C109	C	0.811904	-0.465736	0.000060
C110	C	1.311904	0.034264	0.500060
H111	H	0.773876	-0.413850	0.000050
H112	H	1.273876	0.086150	0.500050
H113	H	0.803113	-0.505104	0.048474
H114	H	1.303113	-0.005104	0.548474
H115	H	0.807322	-0.510811	-0.048378
H116	H	1.307322	-0.010811	0.451622
H117	H	0.794372	-0.084554	0.000092
H118	H	1.294372	0.415446	0.500092
C119	C	0.831954	0.372043	0.212053
C120	C	1.331954	0.872043	0.712053
H121	H	0.841385	0.359058	0.153740
H122	H	1.341385	0.859058	0.653740
H123	H	0.845101	0.443226	0.226366
H124	H	1.345101	0.943226	0.726366
H125	H	0.777831	0.357154	0.226387
H126	H	1.277831	0.857154	0.726387
C127	C	0.824045	0.382943	0.395604
C128	C	1.324045	0.882943	0.895604
H129	H	0.828464	0.376900	0.453919
H130	H	1.328464	0.876900	0.953919
H131	H	0.771159	0.366365	0.381291
H132	H	1.271159	0.866365	0.881291
H133	H	0.838437	0.452427	0.381268
H134	H	1.338437	0.952427	0.881268
H135	H	0.864658	0.327208	0.775638
H136	H	1.364658	0.827208	1.275638
H137	H	0.327125	0.421299	0.000076
H138	H	0.827125	0.921299	0.500076
C139	C	0.165127	0.431090	0.000104
C140	C	0.665127	0.931090	0.500104
H141	H	0.110456	0.411754	0.000116
H142	H	0.610456	0.911754	0.500116
H143	H	0.179778	0.468384	-0.048319
H144	H	0.679778	0.968384	0.451681
H145	H	0.175602	0.474112	0.048533
H146	H	0.675602	0.974112	0.548533
H147	H	1.020697	0.112723	0.224553
H148	H	1.520697	0.612723	0.724553
H149	H	0.699407	0.376486	0.000061
H150	H	1.199407	0.876486	0.500061
C151	C	0.720229	0.008843	0.000087
C152	C	1.220229	0.508843	0.500087
H153	H	0.774899	0.028183	0.000091
H154	H	1.274899	0.528183	0.500091
H155	H	0.709758	-0.034190	-0.048331
H156	H	1.209758	0.465810	0.451669
H157	H	0.705576	-0.028440	0.048521
H158	H	1.205576	0.471560	0.548521
C159	C	1.130010	-0.264188	0.000105
C160	C	1.630010	0.235812	0.500105
H161	H	1.126244	-0.190592	0.000112
H162	H	1.626244	0.309408	0.500112
H163	H	1.159690	-0.287561	-0.048313
H164	H	1.659690	0.212439	0.451687
H165	H	1.155488	-0.281832	0.048539
H166	H	1.655488	0.218168	0.548539
H167	H	0.185938	0.063438	0.000120
H168	H	0.685938	0.563438	0.500120
C169	C	0.347931	0.053649	0.000115
C170	C	0.847931	0.553649	0.500115
H171	H	0.312946	-0.006337	0.000111
H172	H	0.812946	0.493663	0.500111
H173	H	0.378096	0.056013	0.048536
H174	H	0.878096	0.556013	0.548536
H175	H	0.382276	0.050275	-0.048315
H176	H	0.882276	0.550275	0.451685
H177	H	1.046952	0.076706	0.617068
H178	H	1.546952	0.576706	1.117068
C179	C	1.053397	0.067867	0.788123
C180	C	1.553397	0.567867	1.288123
H181	H	1.083857	0.026012	0.749576
H182	H	1.583857	0.526012	1.249576
H183	H	1.020302	0.024099	0.822228
H184	H	1.520302	0.524099	1.322228
H185	H	1.087579	0.110162	0.822210
H186	H	1.587579	0.610162	1.322210
C187	C	0.858211	0.336034	0.604589
C188	C	1.358211	0.836034	1.104589
H189	H	0.827761	0.377900	0.643138
H190	H	1.327761	0.877900	1.143138
H191	H	0.824031	0.293746	0.570501
H192	H	1.324031	0.793746	1.070501
H193	H	0.891309	0.379808	0.570484
H194	H	1.391309	0.879808	1.070484
C195	C	1.109878	-0.492917	0.000095
C196	C	1.609878	0.007083	0.500095
H197	H	1.156359	-0.448737	0.000104
H198	H	1.656359	0.051263	0.500104
H199	H	1.111183	-0.538544	-0.048327
H200	H	1.611183	-0.038544	0.451673
H201	H	1.106992	-0.532807	0.048524
H202	H	1.606992	-0.032807	0.548524
C203	C	1.073446	-0.094339	0.000105
C204	C	1.573446	0.405661	0.500105
H205	H	1.069684	-0.020742	0.000115
H206	H	1.569684	0.479258	0.500115
H207	H	1.103120	-0.117714	-0.048317
H208	H	1.603120	0.382286	0.451683
H209	H	1.098930	-0.111987	0.048535
H210	H	1.598930	0.388013	0.548535
C211	C	0.755337	-0.295878	0.000074
C212	C	1.255337	0.204122	0.500074
H213	H	0.717313	-0.243987	0.000068
H214	H	1.217313	0.256013	0.500068
H215	H	0.746551	-0.335239	0.048493
H216	H	1.246551	0.164761	0.548493
H217	H	0.750744	-0.340957	-0.048359
H218	H	1.250744	0.159043	0.451641
H219	H	1.013856	0.122131	0.383118
H220	H	1.513856	0.622131	0.883118
