data_functionalizedCrystal
_audit_creation_method	'MofGen! by Chris Wilmer'
_symmetry_space_group_name_H-M	'P1'
_symmetry_Int_Tables_number	1
_symmetry_cell_setting	triclinic
loop_
_symmetry_equiv_pos_as_xyz
  x,y,z
_cell_length_a	19.188905
_cell_length_b	19.188930
_cell_length_c	7.681481
_cell_angle_alpha	84.272277
_cell_angle_beta	95.696328
_cell_angle_gamma	83.139668
loop_
_atom_site_label
_atom_site_type_symbol
_atom_site_fract_x
_atom_site_fract_y
_atom_site_fract_z
O1	O	0.919520	0.093729	-0.146739
O2	O	1.419520	0.593729	0.353261
O3	O	0.716209	0.105479	-0.146681
O4	O	1.216209	0.605479	0.353319
O5	O	0.823733	-0.002053	-0.146677
O6	O	1.323733	0.497947	0.353323
O7	O	0.811996	0.201262	-0.146743
O8	O	1.311996	0.701262	0.353257
O9	O	0.836968	-0.015319	0.146181
O10	O	1.336968	0.484681	0.646181
O11	O	0.729443	0.092214	0.146177
O12	O	1.229443	0.592214	0.646177
O13	O	0.932755	0.080464	0.146119
O14	O	1.432755	0.580464	0.646119
Zn15	Zn	0.833200	0.084233	0.192646
Zn16	Zn	1.333200	0.584233	0.692646
Zn17	Zn	0.815763	0.101711	-0.193208
Zn18	Zn	1.315763	0.601711	0.306792
O19	O	0.825230	0.187997	0.146115
O20	O	1.325230	0.687997	0.646115
C21	C	0.696815	0.098469	-0.000244
C22	C	1.196815	0.598469	0.499756
C23	C	0.619311	0.097334	-0.000221
C24	C	1.119311	0.597334	0.499779
C25	C	0.575705	0.104020	-0.159862
C26	C	1.075705	0.604020	0.340138
C27	C	0.502880	0.102948	-0.159884
C28	C	1.002880	0.602948	0.340116
C29	C	0.473667	0.095175	-0.000255
C30	C	0.973667	0.595175	0.499745
C31	C	0.517282	0.088492	0.159408
C32	C	1.017282	0.588492	0.659408
C33	C	0.590104	0.089571	0.159425
C34	C	1.090104	0.589571	0.659425
N35	N	0.370016	0.048365	0.118555
N36	N	0.870016	0.548365	0.618555
N37	N	0.300837	0.047339	0.118528
N38	N	0.800837	0.547339	0.618528
C39	C	0.254258	0.091925	-0.000296
C40	C	0.754258	0.591925	0.499704
N41	N	0.279471	0.137568	-0.119119
N42	N	0.779471	0.637568	0.380881
N43	N	0.348655	0.138591	-0.119097
N44	N	0.848655	0.638591	0.380903
C45	C	0.394704	0.094005	-0.000255
C46	C	0.894704	0.594005	0.499745
C47	C	0.131687	0.097450	-0.159972
C48	C	0.631687	0.597450	0.340028
C49	C	0.058860	0.096382	-0.159987
C50	C	0.558860	0.596382	0.340013
C51	C	0.073265	0.081918	0.159309
C52	C	0.573265	0.581918	0.659309
C53	C	0.146089	0.082994	0.159319
C54	C	0.646089	0.582994	0.659319
C55	C	0.175295	0.090756	-0.000326
C56	C	0.675295	0.590756	0.499674
C57	C	0.829971	-0.034697	-0.000243
C58	C	1.329971	0.465303	0.499757
C59	C	0.828831	-0.112202	-0.000228
C60	C	1.328831	0.387798	0.499772
C61	C	0.891922	-0.157131	-0.000237
C62	C	1.391922	0.342869	0.499763
C63	C	0.890849	-0.229954	-0.000265
C64	C	1.390849	0.270046	0.499735
C65	C	0.826683	-0.257845	-0.000248
C66	C	1.326683	0.242155	0.499752
C67	C	0.763583	-0.212906	-0.000248
C68	C	1.263583	0.287094	0.499752
C69	C	0.764657	-0.140084	-0.000238
C70	C	1.264657	0.359916	0.499762
N71	N	0.782139	-0.370361	0.099431
N72	N	1.282139	0.129639	0.599431
N73	N	0.781124	-0.439539	0.099425
N74	N	1.281124	0.060461	0.599425
C75	C	0.823443	-0.477252	-0.000283
C76	C	1.323443	0.022748	0.499717
N77	N	0.866828	-0.443176	-0.099962
N78	N	1.366828	0.056824	0.400038
N79	N	0.867846	-0.373992	-0.099948
N80	N	1.367846	0.126008	0.400052
C81	C	0.825511	-0.336807	-0.000260
C82	C	1.325511	0.163193	0.499740
C83	C	0.885375	-0.601144	-0.000325
C84	C	1.385375	-0.101144	0.499675
C85	C	0.884299	-0.673967	-0.000364
C86	C	1.384299	-0.173967	0.499636
C87	C	0.757032	-0.656918	-0.000330
C88	C	1.257032	-0.156918	0.499670
C89	C	0.758109	-0.584096	-0.000308
C90	C	1.258109	-0.084096	0.499692
C91	C	0.822283	-0.556214	-0.000298
C92	C	1.322283	-0.056214	0.499702
C93	C	0.952148	0.087475	-0.000321
C94	C	1.452148	0.587475	0.499679
C95	C	1.029652	0.088610	-0.000356
C96	C	1.529652	0.588610	0.499644
C97	C	0.818993	0.220641	-0.000323
C98	C	1.318993	0.720641	0.499677
C99	C	0.820132	0.298146	-0.000350
C100	C	1.320132	0.798146	0.499650
N101	N	0.845106	0.072304	0.455980
N102	N	1.345106	0.572304	0.955980
N103	N	0.803863	0.113633	-0.456542
N104	N	1.303863	0.613633	0.043458
H105	H	0.944177	-0.134435	-0.000234
H106	H	1.444177	0.365565	0.499766
H107	H	0.181594	0.077544	0.289317
H108	H	0.681594	0.577544	0.789317
N109	N	0.748086	0.169507	0.443872
N110	N	1.248086	0.669507	0.943872
H111	H	0.757476	0.217587	0.475838
H112	H	1.257476	0.717587	0.975838
H113	H	0.749460	0.168087	0.313166
H114	H	1.249460	0.668087	0.813166
H115	H	0.887214	0.030122	0.531188
H116	H	1.387214	0.530122	1.031188
H117	H	0.625609	0.084127	0.289428
H118	H	1.125609	0.584127	0.789428
N119	N	0.696606	-0.091624	-0.000187
N120	N	1.196606	0.408376	0.499813
H121	H	0.707024	-0.041261	-0.000170
H122	H	1.207024	0.458739	0.499830
H123	H	0.663721	-0.095698	-0.108745
H124	H	1.163721	0.404302	0.391255
N125	N	0.607198	0.112394	-0.332055
N126	N	1.107198	0.612394	0.167945
H127	H	0.585573	0.158638	-0.401868
H128	H	1.085573	0.658638	0.098132
H129	H	0.659946	0.112029	-0.307694
H130	H	1.159946	0.612029	0.192306
H131	H	0.155467	0.103779	-0.289965
H132	H	0.655467	0.603779	0.210035
N133	N	0.952350	-0.722433	-0.000362
N134	N	1.452350	-0.222433	0.499638
H135	H	0.949842	-0.748099	-0.108933
H136	H	1.449842	-0.248099	0.391067
H137	H	0.993128	-0.693671	-0.000281
H138	H	1.493128	-0.193671	0.499719
N139	N	0.694379	-0.242992	-0.000217
N140	N	1.194379	0.257008	0.499783
H141	H	0.671653	-0.231516	0.108353
H142	H	1.171653	0.268484	0.608353
H143	H	0.661892	-0.221660	-0.108844
H144	H	1.161892	0.278340	0.391156
N145	N	0.011823	0.103596	-0.332180
N146	N	0.511823	0.603596	0.167820
H147	H	0.041380	0.108675	-0.433304
H148	H	0.541380	0.608675	0.066696
H149	H	-0.012904	0.060189	-0.339111
H150	H	0.487096	0.560189	0.160889
H151	H	0.706734	-0.547514	-0.000291
H152	H	1.206734	-0.047514	0.499709
H153	H	0.937629	-0.578441	-0.000324
H154	H	1.437629	-0.078441	0.499676
N155	N	0.455835	0.110162	-0.332074
N156	N	0.955835	0.610162	0.167926
H157	H	0.485388	0.115245	-0.433204
H158	H	0.985388	0.615245	0.066796
H159	H	0.431110	0.066753	-0.339005
H160	H	0.931110	0.566753	0.160995
N161	N	0.041768	0.073529	0.331485
N162	N	0.541768	0.573529	0.831485
H163	H	0.006072	0.116029	0.338590
H164	H	0.506072	0.616029	0.838590
H165	H	0.017717	0.029461	0.338488
H166	H	0.517717	0.529461	0.838488
N167	N	0.485840	0.079660	0.331578
N168	N	0.985840	0.579660	0.831578
H169	H	0.433110	0.079838	0.307343
H170	H	0.933110	0.579838	0.807343
H171	H	0.507682	0.033309	0.400509
H172	H	1.007682	0.533309	0.900509
H173	H	0.942227	-0.266542	-0.000280
H174	H	1.442227	0.233458	0.499720
H175	H	0.704786	-0.679627	-0.000325
H176	H	1.204786	-0.179627	0.499675
