data_functionalizedCrystal
_audit_creation_method	'MofGen! by Chris Wilmer'
_symmetry_space_group_name_H-M	'P1'
_symmetry_Int_Tables_number	1
_symmetry_cell_setting	triclinic
loop_
_symmetry_equiv_pos_as_xyz
  x,y,z
_cell_length_a	16.992694
_cell_length_b	11.026607
_cell_length_c	16.053802
_cell_angle_alpha	93.134017
_cell_angle_beta	87.249047
_cell_angle_gamma	99.627120
loop_
_atom_site_label
_atom_site_type_symbol
_atom_site_fract_x
_atom_site_fract_y
_atom_site_fract_z
O1	O	1.079834	0.256038	-0.069317
O2	O	1.579834	0.756038	0.430683
O3	O	0.851145	0.253175	-0.069342
O4	O	1.351145	0.753175	0.430658
O5	O	0.946536	0.076115	-0.069328
O6	O	1.446536	0.576115	0.430672
O7	O	0.984443	0.433098	-0.069330
O8	O	1.484443	0.933098	0.430670
O9	O	0.941279	0.085818	0.069530
O10	O	1.441279	0.585818	0.569530
O11	O	0.845889	0.262878	0.069516
O12	O	1.345889	0.762878	0.569516
O13	O	1.074577	0.265741	0.069541
O14	O	1.574577	0.765741	0.569541
Zn15	Zn	0.959398	0.265850	0.091575
Zn16	Zn	1.459398	0.765850	0.591575
Zn17	Zn	0.966324	0.253066	-0.091376
Zn18	Zn	1.466324	0.753066	0.408624
O19	O	0.979186	0.442801	0.069528
O20	O	1.479186	0.942801	0.569528
C21	C	0.818785	0.254344	0.000084
C22	C	1.318785	0.754344	0.500084
C23	C	0.730190	0.243357	0.000075
C24	C	1.230190	0.743357	0.500075
C25	C	0.694911	0.349355	0.000075
C26	C	1.194911	0.849355	0.500075
C27	C	0.611666	0.339026	0.000086
C28	C	1.111666	0.839026	0.500086
C29	C	0.563702	0.222698	0.000092
C30	C	1.063702	0.722698	0.500092
C31	C	0.598986	0.116693	0.000094
C32	C	1.098986	0.616693	0.500094
C33	C	0.682229	0.127024	0.000089
C34	C	1.182229	0.627024	0.500089
C35	C	0.314060	0.179883	0.000114
C36	C	0.814060	0.679883	0.500114
C37	C	0.230811	0.169561	0.000117
C38	C	0.730811	0.669561	0.500117
C39	C	0.243497	0.391895	0.000111
C40	C	0.743497	0.891895	0.500111
C41	C	0.326741	0.402215	0.000100
C42	C	0.826741	0.902215	0.500100
C43	C	0.362018	0.296210	0.000107
C44	C	0.862018	0.796210	0.500107
N45	N	0.478612	0.212138	0.000101
N46	N	0.978612	0.712138	0.500101
N47	N	0.447107	0.306772	0.000104
N48	N	0.947107	0.806772	0.500104
C49	C	0.936914	0.035078	0.000099
C50	C	1.436914	0.535078	0.500099
C51	C	0.916068	-0.101658	0.000094
C52	C	1.416068	0.398342	0.500094
C53	C	0.973629	-0.169881	0.000099
C54	C	1.473629	0.330119	0.500099
C55	C	0.952085	-0.311205	0.000093
C56	C	1.452085	0.188795	0.500093
C57	C	1.106937	0.264572	0.000113
C58	C	1.606937	0.764572	0.500113
C59	C	1.195532	0.275558	0.000117
C60	C	1.695532	0.775558	0.500117
C61	C	0.988808	0.483838	0.000099
C62	C	1.488808	0.983838	0.500099
C63	C	1.009655	0.620574	0.000098
C64	C	1.509655	1.120574	0.500098
N65	N	0.954677	0.274575	0.216435
N66	N	1.454677	0.774575	0.716435
N67	N	0.971050	0.244332	-0.216236
N68	N	1.471050	0.744332	0.283764
C69	C	0.995289	0.199266	0.260135
C70	C	1.495289	0.699266	0.760135
C71	C	0.991996	0.205382	0.347541
C72	C	1.491996	0.705382	0.847541
C73	C	0.948095	0.286813	0.391246
C74	C	1.448095	0.786813	0.891246
C75	C	0.907478	0.362124	0.347540
C76	C	1.407478	0.862124	0.847540
C77	C	0.910767	0.356002	0.260136
C78	C	1.410767	0.856002	0.760136
C79	C	0.933722	0.313521	0.652654
C80	C	1.433722	0.813521	1.152654
C81	C	0.930438	0.319641	0.740065
C82	C	1.430438	0.819641	1.240065
C83	C	1.014955	0.162896	0.740059
C84	C	1.514955	0.662896	1.240059
C85	C	1.018244	0.156786	0.652653
C86	C	1.518244	0.656786	1.152653
C87	C	0.977624	0.232093	0.608955
C88	C	1.477624	0.732093	1.108955
N89	N	0.944729	0.293068	0.480589
N90	N	1.444729	0.793068	0.980589
N91	N	0.980985	0.225830	0.519613
N92	N	1.480985	0.725830	1.019613
H93	H	0.582946	0.425341	0.000085
H94	H	1.082946	0.925341	0.500085
O95	O	0.209139	0.494764	0.000000
O96	O	0.709139	0.994764	0.500000
C97	C	0.164095	0.490435	-0.071922
C98	C	0.664095	0.990435	0.428078
H99	H	0.147021	0.390696	-0.095899
H100	H	0.647021	0.890696	0.404101
H101	H	0.107632	0.531352	-0.055743
H102	H	0.607632	1.031352	0.444257
H103	H	0.201204	0.545756	-0.122282
H104	H	0.701204	1.045756	0.377718
H105	H	0.191760	0.074828	0.000121
H106	H	0.691760	0.574828	0.500121
H107	H	0.850837	-0.147877	0.000081
H108	H	1.350837	0.352123	0.500081
H109	H	0.877695	0.417324	0.224556
H110	H	1.377695	0.917324	0.724556
O111	O	0.887910	0.398879	0.782555
O112	O	1.387910	0.898879	1.282555
C113	C	0.939290	0.482483	0.833113
C114	C	1.439290	0.982483	1.333113
H115	H	1.003274	0.488860	0.806763
H116	H	1.503274	0.988860	1.306763
H117	H	0.920609	0.577167	0.834100
H118	H	1.420609	1.077167	1.334100
H119	H	0.935535	0.449027	0.899359
H120	H	1.435535	0.949027	1.399359
O121	O	1.087506	-0.324440	0.000220
O122	O	1.587506	0.175560	0.500220
C123	C	1.122828	-0.355351	0.072151
C124	C	1.622828	0.144649	0.572151
H125	H	1.087764	-0.444835	0.096122
H126	H	1.587764	0.055165	0.596122
H127	H	1.187154	-0.367736	0.055984
H128	H	1.687154	0.132264	0.555984
H129	H	1.122130	-0.278482	0.122509
H130	H	1.622130	0.221518	0.622509
O131	O	0.348193	0.076786	0.000080
O132	O	0.848193	0.576786	0.500080
C133	C	0.288004	-0.028096	0.000105
C134	C	0.788004	0.471904	0.500105
H135	H	0.231519	-0.004702	-0.026185
H136	H	0.731519	0.495298	0.473815
H137	H	0.309140	-0.105683	-0.040206
H138	H	0.809140	0.394317	0.459794
H139	H	0.274685	-0.058715	0.066724
H140	H	0.774685	0.441285	0.566724
O141	O	0.741539	0.462320	-0.000081
O142	O	1.241539	0.962320	0.499919
C143	C	0.792793	0.469913	-0.071991
C144	C	1.292793	0.969913	0.428009
H145	H	0.766005	0.400201	-0.122253
H146	H	1.266005	0.900201	0.377747
H147	H	0.800251	0.566661	-0.096132
H148	H	1.300251	1.066661	0.403868
H149	H	0.853567	0.449018	-0.055737
H150	H	1.353567	0.949018	0.444263
O151	O	0.552280	0.003783	0.000064
O152	O	1.052280	0.503783	0.500064
C153	C	0.471241	0.017393	0.000088
C154	C	0.971241	0.517393	0.500088
H155	H	0.466312	0.109680	-0.026203
H156	H	0.966312	0.609680	0.473797
H157	H	0.437076	-0.060347	-0.040224
H158	H	0.937076	0.439653	0.459776
H159	H	0.444805	0.013850	0.066706
H160	H	0.944805	0.513850	0.566706
H161	H	0.710952	0.040709	0.000088
H162	H	1.210952	0.540709	0.500088
O163	O	1.054347	0.089558	0.782419
O164	O	1.554347	0.589558	1.282419
C165	C	1.025017	-0.034995	0.761085
C166	C	1.525017	0.465005	1.261085
H167	H	0.996785	-0.042280	0.697626
H168	H	1.496785	0.457720	1.197626
H169	H	1.076335	-0.089958	0.758094
H170	H	1.576335	0.410042	1.258094
H171	H	0.978217	-0.073465	0.810283
H172	H	1.478217	0.426535	1.310283
O173	O	0.894252	0.386803	0.610342
O174	O	1.394252	0.886803	1.110342
C175	C	0.854788	0.459967	0.667663
C176	C	1.354788	0.959967	1.167663
H177	H	0.885240	0.468908	0.729962
H178	H	1.385240	0.968908	1.229962
H179	H	0.857473	0.555270	0.642405
H180	H	1.357473	1.055270	1.142405
H181	H	0.789740	0.414888	0.676975
H182	H	1.289740	0.914888	1.176975
O183	O	1.051477	-0.114892	0.000216
O184	O	1.551477	0.385108	0.500216
C185	C	1.086803	-0.145803	0.072145
C186	C	1.586803	0.354197	0.572145
H187	H	1.051739	-0.235284	0.096120
H188	H	1.551739	0.264716	0.596120
H189	H	1.151127	-0.158191	0.055974
H190	H	1.651127	0.341809	0.555974
H191	H	1.086110	-0.068930	0.122502
H192	H	1.586110	0.431070	0.622502
H193	H	0.886850	-0.357419	0.000081
H194	H	1.386850	0.142581	0.500081
H195	H	0.871728	0.428423	0.383130
H196	H	1.371728	0.928423	0.883130
O197	O	1.037944	0.120057	0.217813
O198	O	1.537944	0.620057	0.717813
C199	C	1.073097	0.054920	0.275131
C200	C	1.573097	0.554920	0.775131
H201	H	1.037959	0.054707	0.337440
H202	H	1.537959	0.554707	0.837440
H203	H	1.072310	-0.043920	0.249885
H204	H	1.572310	0.456080	0.749885
H205	H	1.137446	0.101301	0.284416
H206	H	1.637446	0.601301	0.784416
O207	O	1.031324	0.132100	0.390023
O208	O	1.531324	0.632100	0.890023
C209	C	0.976142	0.055575	0.440608
C210	C	1.476142	0.555575	0.940608
H211	H	0.914138	0.045509	0.414281
H212	H	1.414138	0.545509	0.914281
H213	H	0.994750	-0.038970	0.441596
H214	H	1.494750	0.461030	0.941596
H215	H	0.974917	0.098304	0.506850
H216	H	1.474917	0.598304	1.006850
O217	O	1.060647	0.077561	0.609977
O218	O	1.560647	0.577561	1.109977
C219	C	1.120863	0.144240	0.559123
C220	C	1.620863	0.644240	1.059123
H221	H	1.135407	0.243188	0.585452
H222	H	1.635407	0.743188	1.085452
H223	H	1.176784	0.099559	0.557773
H224	H	1.676784	0.599559	1.057773
H225	H	1.099092	0.143890	0.493022
H226	H	1.599092	0.643890	0.993022
O227	O	0.373213	0.515314	0.000137
O228	O	0.873213	1.015314	0.500137
C229	C	0.324224	0.606657	0.000119
C230	C	0.824224	1.106657	0.500119
H231	H	0.262035	0.568544	0.026412
H232	H	0.762035	1.068544	0.526412
H233	H	0.351192	0.690206	0.040431
H234	H	0.851192	1.190206	0.540431
H235	H	0.319833	0.635083	-0.066498
H236	H	0.819833	1.135083	0.433502
