data_functionalizedCrystal
_audit_creation_method	'MofGen! by Chris Wilmer'
_symmetry_space_group_name_H-M	'P1'
_symmetry_Int_Tables_number	1
_symmetry_cell_setting	triclinic
loop_
_symmetry_equiv_pos_as_xyz
  x,y,z
_cell_length_a	12.759401
_cell_length_b	29.839131
_cell_length_c	12.759393
_cell_angle_alpha	90.045545
_cell_angle_beta	90.019377
_cell_angle_gamma	90.036935
loop_
_atom_site_label
_atom_site_type_symbol
_atom_site_fract_x
_atom_site_fract_y
_atom_site_fract_z
Zn1	Zn	1.606106	-0.178806	0.593904
Zn2	Zn	1.605937	-0.253945	0.418181
Zn3	Zn	1.430407	-0.178832	0.418241
Zn4	Zn	1.430333	-0.253912	0.593820
O5	O	1.518196	-0.216374	0.506036
O6	O	1.753104	-0.188777	0.570604
O7	O	1.582613	-0.244005	0.271168
O8	O	1.453816	-0.115961	0.441603
O9	O	1.752980	-0.243981	0.441501
O10	O	1.582900	-0.115943	0.570662
O11	O	1.453652	-0.188820	0.271212
O12	O	1.283377	-0.188789	0.441521
O13	O	1.453689	-0.243925	0.740852
O14	O	1.283322	-0.243950	0.570519
O15	O	1.582828	-0.188745	0.740914
O16	O	1.582541	-0.316808	0.441420
O17	O	1.453526	-0.316784	0.570461
C18	C	1.245228	-0.216369	0.506018
C19	C	1.128452	-0.216377	0.506035
C20	C	0.963935	-0.187683	0.573374
C21	C	1.073659	-0.187682	0.573363
C22	C	1.073515	-0.245079	0.438721
C23	C	0.963793	-0.245083	0.438739
C24	C	0.964020	-0.154543	0.651106
C25	C	1.073744	-0.154542	0.651094
C26	C	1.518036	-0.333097	0.505948
C27	C	1.518063	-0.383031	0.505945
C28	C	1.585395	-0.692630	0.573333
C29	C	1.585510	-0.880303	0.573396
O30	O	1.642601	-0.904529	0.630626
N31	N	1.518374	-0.903816	0.506153
C32	C	1.451201	-0.880408	0.438894
O33	O	1.394093	-0.904714	0.381708
C34	C	1.451082	-0.692736	0.438837
C35	C	1.518229	-0.669225	0.506077
C36	C	1.652536	-0.669119	0.640569
C37	C	1.652511	-0.622203	0.640548
C38	C	1.585345	-0.598799	0.573292
C39	C	1.518204	-0.622310	0.506057
C40	C	1.383904	-0.669329	0.371584
C41	C	1.383879	-0.622408	0.371578
C42	C	1.451026	-0.598897	0.438818
C43	C	1.451013	-0.551990	0.438780
N44	N	1.518148	-0.528476	0.506023
C45	C	1.585314	-0.551881	0.573280
C46	C	1.451269	-0.978939	0.438927
C47	C	1.451300	-1.025857	0.438940
C48	C	1.585608	-1.025748	0.573444
C49	C	1.585581	-0.978829	0.573425
C50	C	1.518404	-0.955425	0.506171
C51	C	1.585257	-0.453355	0.573231
C52	C	1.585229	-0.406435	0.573201
C53	C	1.450918	-0.406548	0.438702
C54	C	1.450950	-0.453464	0.438727
C55	C	1.518123	-0.476866	0.506000
O56	O	1.393943	-0.527734	0.381588
O57	O	1.642397	-0.527567	0.630473
C58	C	1.585421	-0.739545	0.573354
C59	C	1.518280	-0.763056	0.506118
C60	C	1.451114	-0.739651	0.438862
C61	C	1.518310	-0.809974	0.506131
C62	C	1.585477	-0.833378	0.573387
C63	C	1.652612	-0.809865	0.640630
C64	C	1.652587	-0.762950	0.640610
C65	C	1.383978	-0.763165	0.371619
C66	C	1.384010	-0.810080	0.371644
C67	C	1.451176	-0.833485	0.438900
C68	C	1.792229	-0.216379	0.506056
C69	C	1.909006	-0.216382	0.506064
C70	C	1.518269	-0.216329	0.780070
C71	C	1.518301	-0.216309	0.896847
C72	C	1.518385	-0.099195	0.506148
C73	C	1.518466	-0.049261	0.506196
C74	C	1.518183	-0.216387	0.233069
C75	C	1.518355	-0.216279	0.116293
C76	C	1.585553	-0.187574	0.951743
C77	C	1.585578	-0.187558	1.061467
C78	C	1.451096	-0.245016	1.061389
C79	C	1.451066	-0.245029	0.951667
C80	C	1.663198	-0.154403	0.951788
C81	C	1.663223	-0.154387	1.061512
H82	H	1.639912	-0.387294	0.627956
H83	H	1.744586	-0.163704	1.091287
H84	H	1.641459	-0.119611	0.922052
C85	C	1.377068	-0.276633	0.891286
N86	N	1.321327	-0.300437	0.845806
C87	C	1.726456	-0.737094	0.714579
N88	N	1.782098	-0.717622	0.770297
H89	H	1.639949	-0.472404	0.628018
C90	C	1.767585	-0.171239	0.905794
N91	N	1.846212	-0.183917	0.871150
H92	H	1.396564	-0.959886	0.384158
C93	C	1.309978	-0.596667	0.297589
N94	N	1.254319	-0.577279	0.241858
C95	C	1.659444	-0.952972	0.647398
N96	N	1.715078	-0.933498	0.703120
H97	H	1.634137	-0.121329	1.095579
H98	H	1.707305	-0.828929	0.695389
C99	C	1.377441	-1.051713	0.364962
N100	N	1.321803	-1.071187	0.309244
H101	H	0.930017	-0.121479	0.622117
H102	H	1.329332	-0.829219	0.316879
C103	C	1.114028	-0.107523	0.621851
N104	N	1.144370	-0.072110	0.599821
H105	H	1.107794	-0.167042	0.728330
H106	H	0.934271	-0.163901	0.732439
H107	H	1.329282	-0.744112	0.316852
H108	H	1.118135	-0.268447	0.383909
H109	H	1.640298	-1.044812	0.628205
C110	C	1.726383	-0.596347	0.714515
N111	N	1.782028	-0.576876	0.770230
H112	H	0.919073	-0.268456	0.383937
C113	C	1.377140	-0.276605	1.121702
N114	N	1.321435	-0.300399	1.167129
H115	H	1.707231	-0.688170	0.695343
C116	C	1.310028	-0.695180	0.297620
N117	N	1.254377	-0.714651	0.241909
C118	C	1.377035	-0.380794	0.364728
N119	N	1.321378	-0.361395	0.309017
C120	C	1.377091	-0.479326	0.364754
N121	N	1.321451	-0.498803	0.309043
