data_functionalizedCrystal
_audit_creation_method	'MofGen! by Chris Wilmer'
_symmetry_space_group_name_H-M	'P1'
_symmetry_Int_Tables_number	1
_symmetry_cell_setting	triclinic
loop_
_symmetry_equiv_pos_as_xyz
  x,y,z
_cell_length_a	15.995363
_cell_length_b	15.072220
_cell_length_c	15.995350
_cell_angle_alpha	90.001101
_cell_angle_beta	83.494885
_cell_angle_gamma	89.990650
loop_
_atom_site_label
_atom_site_type_symbol
_atom_site_fract_x
_atom_site_fract_y
_atom_site_fract_z
O1	O	-1.110989	0.073713	-0.107970
O2	O	-0.610989	0.573713	0.392030
O3	O	-0.867216	0.073729	-0.121287
O4	O	-0.367216	0.573729	0.378713
O5	O	-0.995766	0.073720	0.007259
O6	O	-0.495766	0.573720	0.507259
O7	O	-0.982439	0.073722	-0.236516
O8	O	-0.482439	0.573722	0.263484
O9	O	-0.995734	-0.073845	0.007252
O10	O	-0.495734	0.426155	0.507252
O11	O	-0.867184	-0.073836	-0.121294
O12	O	-0.367184	0.426164	0.378706
O13	O	-1.110958	-0.073852	-0.107977
O14	O	-0.610958	0.426148	0.392023
Zn15	Zn	-0.989066	-0.097273	-0.114637
Zn16	Zn	-0.489066	0.402727	0.385363
Zn17	Zn	-0.989108	0.097150	-0.114627
Zn18	Zn	-0.489108	0.597150	0.385373
O19	O	-0.982407	-0.073843	-0.236523
O20	O	-0.482407	0.426157	0.263477
C21	C	-0.836005	-0.000052	-0.120738
C22	C	-0.336005	0.499948	0.379262
C23	C	-0.743055	-0.000046	-0.119082
C24	C	-0.243055	0.499954	0.380918
N25	N	-0.989043	-0.229962	-0.114643
N26	N	-0.489043	0.270038	0.385357
C27	C	-0.405310	-0.000068	-0.113135
C28	C	0.094690	0.499932	0.386865
C29	C	-0.452743	-0.000397	-0.021585
C30	C	0.047257	0.499603	0.478415
C31	C	-0.549433	-0.000058	-0.023242
C32	C	-0.049433	0.499942	0.476758
C33	C	-0.572869	-0.000057	-0.116085
C34	C	-0.072869	0.499943	0.383915
C35	C	-0.531801	0.084206	-0.161235
C36	C	-0.031801	0.584206	0.338765
C37	C	-0.435165	0.084270	-0.158931
C38	C	0.064835	0.584270	0.341069
C39	C	-0.434790	-0.083539	-0.160831
C40	C	0.065210	0.416461	0.339169
C41	C	-0.531735	-0.084646	-0.160814
C42	C	-0.031735	0.415354	0.339186
C43	C	-0.667566	-0.000049	-0.117757
C44	C	-0.167566	0.499951	0.382243
C45	C	-0.310612	-0.000070	-0.111466
C46	C	0.189388	0.499930	0.388534
C47	C	-0.989106	-0.589164	-0.114624
C48	C	-0.489106	-0.089164	0.385376
C49	C	-0.920090	-0.551552	-0.183176
C50	C	-0.420090	-0.051552	0.316824
C51	C	-0.920248	-0.448726	-0.183426
C52	C	-0.420248	0.051274	0.316574
C53	C	-0.989074	-0.410960	-0.114633
C54	C	-0.489074	0.089040	0.385367
C55	C	-1.076438	-0.448256	-0.133719
C56	C	-0.576438	0.051744	0.366281
C57	C	-1.076052	-0.551114	-0.134206
C58	C	-0.576052	-0.051114	0.365794
C59	C	-0.971536	-0.551263	-0.026784
C60	C	-0.471536	-0.051263	0.473216
C61	C	-0.969532	-0.448400	-0.027370
C62	C	-0.469532	0.051600	0.472630
C63	C	-0.989062	-0.310246	-0.114637
C64	C	-0.489062	0.189754	0.385363
C65	C	-0.989124	-0.689877	-0.114622
C66	C	-0.489124	-0.189877	0.385378
C67	C	-0.142170	-0.000072	-0.108515
C68	C	0.357830	0.499928	0.391485
C69	C	-0.235124	-0.000079	-0.110138
C70	C	0.264876	0.499921	0.389862
C71	C	-0.995199	-0.000061	0.038450
C72	C	-0.495199	0.499939	0.538450
C73	C	-0.993548	-0.000056	0.131401
C74	C	-0.493548	0.499944	0.631401
N75	N	-0.989137	0.229839	-0.114615
N76	N	-0.489137	0.729839	0.385385
C77	C	-0.982974	-0.000060	-0.267714
C78	C	-0.482974	0.499940	0.232286
C79	C	-0.984626	-0.000059	-0.360665
C80	C	-0.484626	0.499941	0.139335
C81	C	-0.987615	-0.000059	0.469148
C82	C	-0.487615	0.499941	0.969148
C83	C	-0.896064	0.000278	0.421718
C84	C	-0.396064	0.500278	0.921718
C85	C	-0.897716	-0.000055	0.325028
C86	C	-0.397716	0.499945	0.825028
C87	C	-0.990558	-0.000057	0.301588
C88	C	-0.490558	0.499943	0.801588
C89	C	-1.035696	-0.084325	0.342659
C90	C	-0.535696	0.415675	0.842659
C91	C	-1.033396	-0.084395	0.439295
C92	C	-0.533396	0.415605	0.939295
C93	C	-1.035324	0.083414	0.439661
C94	C	-0.535324	0.583414	0.939661
C95	C	-1.035302	0.084527	0.342716
C96	C	-0.535302	0.584527	0.842716
C97	C	-0.992226	-0.000059	0.206890
C98	C	-0.492226	0.499941	0.706890
C99	C	-0.985950	-0.000063	0.563846
C100	C	-0.485950	0.499937	1.063846
H101	H	-0.434208	-0.060826	0.015008
H102	H	0.065792	0.439174	0.515008
O103	O	-0.392712	-0.084299	-0.250238
O104	O	0.107288	0.415701	0.249762
H105	H	-0.441436	-0.082126	-0.294391
H106	H	0.058564	0.417874	0.205609
H107	H	-0.402918	0.088094	-0.226146
H108	H	0.097082	0.588094	0.273854
O109	O	-0.569393	0.167277	-0.119684
O110	O	-0.069393	0.667277	0.380316
H111	H	-0.539852	0.226406	-0.152164
H112	H	-0.039852	0.726406	0.347836
O113	O	-1.096558	-0.582885	-0.219062
O114	O	-0.596558	-0.082885	0.280938
H115	H	-1.096491	-0.656516	-0.220250
H116	H	-0.596491	-0.156516	0.279750
O117	O	-1.122424	-0.089495	0.482016
O118	O	-0.622424	0.410505	0.982016
H119	H	-1.135885	-0.030106	0.522334
H120	H	-0.635885	0.469894	1.022334
H121	H	-1.002300	0.146866	0.315472
H122	H	-0.502300	0.646866	0.815472
O123	O	-0.550512	0.088374	-0.251586
O124	O	-0.050512	0.588374	0.248414
H125	H	-0.589378	0.030294	-0.265299
H126	H	-0.089378	0.530294	0.234701
H127	H	-1.016534	-0.422695	0.026034
H128	H	-0.516534	0.077305	0.526034
H129	H	-0.577849	-0.060461	0.012250
H130	H	-0.077849	0.439539	0.512250
H131	H	-0.905266	-0.424024	-0.012886
H132	H	-0.405266	0.075976	0.487114
H133	H	-0.854941	-0.576309	-0.171991
H134	H	-0.354941	-0.076309	0.328009
H135	H	-0.414241	-0.147410	-0.130903
H136	H	0.085759	0.352590	0.369097
O137	O	-1.038169	-0.583488	0.040820
O138	O	-0.538169	-0.083488	0.540820
H139	H	-1.100915	-0.560584	0.026404
H140	H	-0.600915	-0.060584	0.526404
H141	H	-0.862233	0.060352	0.296611
H142	H	-0.362233	0.560352	0.796611
H143	H	-1.005405	0.147284	0.460205
H144	H	-0.505405	0.647284	0.960205
H145	H	-0.559038	-0.146984	-0.127854
H146	H	-0.059038	0.353016	0.372146
H147	H	-0.931467	-0.424113	-0.248611
H148	H	-0.431467	0.075887	0.251389
H149	H	-0.433163	0.059698	0.014846
H150	H	0.066837	0.559698	0.514846
H151	H	-1.129012	-0.575993	-0.086245
H152	H	-0.629012	-0.075993	0.413755
O153	O	-0.934741	-0.585764	-0.269040
O154	O	-0.434741	-0.085764	0.230960
H155	H	-0.990965	-0.629439	-0.263105
H156	H	-0.490965	-0.129439	0.236895
O157	O	-0.994138	-0.167391	0.305063
O158	O	-0.494138	0.332609	0.805063
H159	H	-0.969685	-0.207049	0.355479
H160	H	-0.469685	0.292951	0.855479
O161	O	-1.146100	-0.415855	-0.069348
O162	O	-0.646100	0.084145	0.430652
H163	H	-1.119129	-0.372717	-0.022961
H164	H	-0.619129	0.127283	0.477039
O165	O	-0.552090	-0.091396	-0.250495
O166	O	-0.052090	0.408604	0.249505
H167	H	-0.527757	-0.031839	-0.286127
H168	H	-0.027757	0.468161	0.213873
O169	O	-1.124988	0.091269	0.322368
O170	O	-0.624988	0.591269	0.822368
H171	H	-1.168380	0.090441	0.381652
H172	H	-0.668380	0.590441	0.881652
O173	O	-1.124737	0.084176	0.481722
O174	O	-0.624737	0.584176	0.981722
H175	H	-1.124309	0.086715	0.551022
H176	H	-0.624309	0.586715	1.051022
O177	O	-0.847592	0.080310	0.446282
O178	O	-0.347592	0.580310	0.946282
H179	H	-0.888231	0.120703	0.492561
H180	H	-0.388231	0.620703	0.992561
O181	O	-0.586362	0.080093	0.024090
O182	O	-0.086362	0.580093	0.524090
H183	H	-0.558901	0.141302	-0.006292
H184	H	-0.058901	0.641302	0.493708
O185	O	-0.410923	0.167693	-0.115291
O186	O	0.089077	0.667693	0.384709
H187	H	-0.468195	0.207609	-0.096026
H188	H	0.031805	0.707609	0.403974
O189	O	-0.847786	-0.079322	0.447652
O190	O	-0.347786	0.420678	0.947652
H191	H	-0.888714	-0.119124	0.494174
H192	H	-0.388714	0.380876	0.994174
H193	H	-1.000455	-0.147386	0.457595
H194	H	-0.500455	0.352614	0.957595
O195	O	-0.850384	-0.080210	0.288106
O196	O	-0.350384	0.419790	0.788106
H197	H	-0.826230	-0.118891	0.339324
H198	H	-0.326230	0.381109	0.839324
H199	H	-0.855309	-0.423511	-0.172054
H200	H	-0.355309	0.076489	0.327946
H201	H	-1.092290	-0.422488	-0.197050
H202	H	-0.592290	0.077512	0.302950
H203	H	-0.909214	-0.577250	-0.008432
H204	H	-0.409214	-0.077250	0.491568
H205	H	-1.103904	-0.087461	0.328530
H206	H	-0.603904	0.412539	0.828530
