data_functionalizedCrystal
_audit_creation_method	'MofGen! by Chris Wilmer'
_symmetry_space_group_name_H-M	'P1'
_symmetry_Int_Tables_number	1
_symmetry_cell_setting	triclinic
loop_
_symmetry_equiv_pos_as_xyz
  x,y,z
_cell_length_a	8.597340
_cell_length_b	12.837942
_cell_length_c	7.681481
_cell_angle_alpha	83.650030
_cell_angle_beta	103.474906
_cell_angle_gamma	90.035652
loop_
_atom_site_label
_atom_site_type_symbol
_atom_site_fract_x
_atom_site_fract_y
_atom_site_fract_z
O1	O	2.121620	0.143357	0.175460
O2	O	1.660068	0.159873	0.105430
O3	O	1.880611	0.000712	0.138903
O4	O	1.901077	0.302518	0.141987
O5	O	1.907749	-0.018923	0.435880
O6	O	1.687206	0.140239	0.402407
O7	O	2.148759	0.123722	0.472436
Zn8	Zn	1.922291	0.128863	0.484573
Zn9	Zn	1.886535	0.154732	0.093294
O10	O	1.928216	0.282884	0.438963
C11	C	1.614150	0.149376	0.244893
C12	C	1.436896	0.147338	0.217999
C13	C	1.887265	-0.047726	0.286341
C14	C	1.866642	-0.162802	0.283209
C15	C	2.114563	-0.403767	0.320789
C16	C	2.095193	-0.511892	0.317847
C17	C	1.808533	-0.487178	0.274371
C18	C	1.827902	-0.379053	0.277313
C19	C	1.980923	-0.337352	0.300525
C20	C	2.000292	-0.229226	0.303480
C21	C	1.713632	-0.204513	0.259992
C22	C	1.694262	-0.312638	0.257050
C23	C	2.194676	0.134220	0.332970
C24	C	2.371929	0.136259	0.359852
C25	C	1.921561	0.331321	0.291521
C26	C	1.942183	0.446398	0.294642
N27	N	1.946705	0.111207	0.751613
N28	N	1.862132	0.172380	-0.173744
H29	H	1.451913	0.128326	0.501879
N30	N	2.165330	-0.184247	0.328526
H31	H	2.214554	-0.201180	0.227425
H32	H	2.157198	-0.105685	0.327370
H33	H	1.356904	0.155264	0.075963
N34	N	1.529223	-0.357613	0.232019
H35	H	1.504723	-0.394640	0.119739
H36	H	1.524977	-0.409160	0.340009
N37	N	2.061093	0.028506	0.868577
H38	H	2.000172	-0.022442	0.935847
H39	H	2.114914	-0.010365	0.790382
N40	N	2.279597	-0.358781	0.345850
H41	H	2.361322	-0.417264	0.358251
H42	H	2.283822	-0.307174	0.237928
N43	N	2.239331	-0.583527	0.339698
H44	H	2.339202	-0.540698	0.354848
H45	H	2.247604	-0.636209	0.449519
N46	N	1.747760	0.255088	0.709316
H47	H	1.808690	0.306033	0.642051
H48	H	1.664072	0.220524	0.620246
H49	H	1.683948	-0.521149	0.255454
H50	H	1.604814	-0.150427	0.243506
