data_functionalizedCrystal
_audit_creation_method	'MofGen! by Chris Wilmer'
_symmetry_space_group_name_H-M	'P1'
_symmetry_Int_Tables_number	1
_symmetry_cell_setting	triclinic
loop_
_symmetry_equiv_pos_as_xyz
  x,y,z
_cell_length_a	25.639242
_cell_length_b	25.639240
_cell_length_c	25.639233
_cell_angle_alpha	90.025929
_cell_angle_beta	90.014348
_cell_angle_gamma	90.025061
loop_
_atom_site_label
_atom_site_type_symbol
_atom_site_fract_x
_atom_site_fract_y
_atom_site_fract_z
Zn1	Zn	0.799247	-0.208322	0.295607
Zn2	Zn	0.799179	-0.295741	0.208160
Zn3	Zn	0.711823	-0.208309	0.208183
Zn4	Zn	0.711777	-0.295716	0.295562
O5	O	0.755506	-0.252022	0.251878
O6	O	0.872403	-0.219933	0.284016
O7	O	0.787582	-0.284148	0.134998
O8	O	0.723467	-0.135146	0.219808
O9	O	0.872353	-0.284160	0.219770
O10	O	0.787697	-0.135155	0.284038
O11	O	0.723402	-0.219912	0.135015
O12	O	0.638652	-0.219889	0.219765
O13	O	0.723389	-0.284118	0.368733
O14	O	0.638618	-0.284106	0.283962
O15	O	0.787653	-0.219910	0.368766
O16	O	0.787538	-0.368903	0.219726
O17	O	0.723324	-0.368885	0.283940
C18	C	0.619664	-0.251994	0.251861
C19	C	0.561550	-0.251994	0.251866
C20	C	0.310390	-0.218639	0.285392
C21	C	0.364994	-0.218634	0.285389
O22	O	0.393260	-0.190251	0.313891
N23	N	0.392276	-0.252016	0.251884
C24	C	0.364950	-0.285409	0.218383
O25	O	0.393169	-0.313803	0.189885
C26	C	0.310347	-0.285417	0.218389
C27	C	0.283068	-0.252028	0.251893
C28	C	0.283112	-0.185254	0.318894
C29	C	0.228511	-0.185258	0.318896
C30	C	0.201189	-0.218648	0.285397
C31	C	0.228468	-0.252033	0.251895
C32	C	0.283022	-0.318812	0.184892
C33	C	0.228415	-0.318817	0.184901
C34	C	0.201136	-0.285429	0.218405
C35	C	0.146545	-0.285427	0.218398
N36	N	0.119264	-0.252045	0.251904
C37	C	0.146586	-0.218655	0.285403
C38	C	0.479621	-0.285392	0.218374
C39	C	0.534223	-0.285382	0.218365
C40	C	0.534264	-0.218607	0.285372
C41	C	0.479660	-0.218614	0.285378
C42	C	0.452339	-0.252010	0.251879
C43	C	0.031921	-0.218667	0.285404
C44	C	-0.022685	-0.218673	0.285402
C45	C	-0.022721	-0.285450	0.218397
C46	C	0.031880	-0.285442	0.218398
C47	C	0.059199	-0.252049	0.251905
O48	O	0.118245	-0.313797	0.189913
O49	O	0.118360	-0.190271	0.313902
C50	C	0.755432	-0.387865	0.251837
C51	C	0.755449	-0.445979	0.251837
C52	C	0.788967	-0.806308	0.285383
C53	C	0.788983	-0.860912	0.285394
O54	O	0.817394	-0.889120	0.313874
N55	N	0.755579	-0.888261	0.251929
C56	C	0.722154	-0.861003	0.218455
O57	O	0.693742	-0.889279	0.189991
C58	C	0.722136	-0.806399	0.218447
C59	C	0.755546	-0.779053	0.251911
C60	C	0.822374	-0.778962	0.318844
C61	C	0.822359	-0.724361	0.318833
C62	C	0.788938	-0.697107	0.285360
C63	C	0.755531	-0.724453	0.251899
C64	C	0.688708	-0.779142	0.184976
C65	C	0.688693	-0.724535	0.184972
C66	C	0.722103	-0.697189	0.218435
C67	C	0.722094	-0.642598	0.218415
N68	N	0.755498	-0.615249	0.251880
C69	C	0.788920	-0.642504	0.285353
C70	C	0.722193	-0.975673	0.218474
C71	C	0.722213	-1.030276	0.218478
C72	C	0.789041	-1.030181	0.285418
C73	C	0.789024	-0.975578	0.285411
C74	C	0.755597	-0.948324	0.251939
C75	C	0.788887	-0.527838	0.285326
C76	C	0.788870	-0.473233	0.285310
C77	C	0.722040	-0.473332	0.218372
C78	C	0.722058	-0.527933	0.218386
C79	C	0.755483	-0.555185	0.251867
O80	O	0.693697	-0.614355	0.189951
O81	O	0.817322	-0.614221	0.313816
C82	C	0.891879	-0.252051	0.251895
C83	C	0.949993	-0.252063	0.251903
C84	C	0.755523	-0.252013	0.388251
C85	C	0.755530	-0.252009	0.446365
C86	C	0.755595	-0.115649	0.251931
C87	C	0.755632	-0.057535	0.251953
C88	C	0.755520	-0.251993	0.116036
C89	C	0.755614	-0.251850	0.057922
C90	C	0.789035	-0.218476	0.806751
C91	C	0.789041	-0.218462	0.861356
O92	O	0.817486	-0.190013	0.889612
N93	N	0.755588	-0.251886	0.888648
C94	C	0.722122	-0.285324	0.861333
O95	O	0.693668	-0.313752	0.889561
C96	C	0.722114	-0.285335	0.806730
C97	C	0.755573	-0.251912	0.779440
C98	C	0.822491	-0.185056	0.779462
C99	C	0.822485	-0.185071	0.724861
C100	C	0.789023	-0.218507	0.697550
C101	C	0.755567	-0.251927	0.724840
C102	C	0.688646	-0.318770	0.779416
C103	C	0.688640	-0.318778	0.724809
C104	C	0.722099	-0.285355	0.697519
C105	C	0.722099	-0.285379	0.642928
N106	N	0.755552	-0.251954	0.615636
C107	C	0.789014	-0.218518	0.642947
C108	C	0.722143	-0.285296	0.976004
C109	C	0.722154	-0.285288	1.030606
C110	C	0.789072	-0.218425	1.030625
C111	C	0.789063	-0.218437	0.976022
C112	C	0.755596	-0.251872	0.948712
C113	C	0.789000	-0.218553	0.528282
C114	C	0.788992	-0.218573	0.473676
C115	C	0.722072	-0.285434	0.473662
C116	C	0.722081	-0.285416	0.528263
C117	C	0.755547	-0.251971	0.555571
O118	O	0.693668	-0.313812	0.614637
O119	O	0.817459	-0.190090	0.614712
H120	H	0.054091	-0.312625	0.191112
H121	H	0.816249	-0.191318	0.550510
H122	H	0.816308	-0.191220	0.953806
H123	H	0.816228	-0.953316	0.312660
H124	H	0.849730	-0.157853	0.702647
H125	H	0.457454	-0.191426	0.312659
H126	H	0.305223	-0.346001	0.157609
H127	H	0.695012	-1.052536	0.191223
H128	H	0.556519	-0.191420	0.312649
H129	H	0.694974	-0.953486	0.191213
H130	H	0.849740	-0.157825	0.801693
O131	O	0.685992	-0.321462	0.557700
H132	H	0.709372	-0.348064	0.582579
O133	O	0.450155	-0.321408	0.182235
H134	H	0.425274	-0.297969	0.155685
H135	H	0.816078	-0.450970	0.312560
H136	H	0.661503	-0.801398	0.157726
H137	H	0.816317	-0.191199	1.052871
H138	H	0.206306	-0.158072	0.346181
H139	H	-0.044976	-0.312633	0.191121
H140	H	0.816254	-1.052382	0.312674
H141	H	0.661471	-0.702348	0.157715
H142	H	0.661380	-0.346000	0.702576
O143	O	0.824940	-0.557228	0.321433
H144	H	0.848168	-0.529032	0.344692
O145	O	0.652554	-0.354819	0.808838
H146	H	0.658177	-0.349203	0.851398
H147	H	0.694889	-0.312526	0.953771
O148	O	-0.052108	-0.182662	0.321541
H149	H	-0.023932	-0.159448	0.344837
O150	O	0.061383	-0.182646	0.321538
H151	H	0.033234	-0.159430	0.344826
O152	O	0.312576	-0.149232	0.355022
H153	H	0.284426	-0.126018	0.378311
O154	O	0.686067	-0.321338	1.060039
H155	H	0.662797	-0.344585	1.031868
H156	H	0.556429	-0.312565	0.191077
O157	O	0.686026	-0.557433	0.182294
H158	H	0.662782	-0.529305	0.159018
H159	H	0.694830	-0.312658	0.451416
H160	H	0.206173	-0.346013	0.157623
O161	O	0.858402	-0.694869	0.354918
H162	H	0.881642	-0.723002	0.378191
H163	H	0.694830	-0.451133	0.191117
H164	H	0.849590	-0.801147	0.346105
H165	H	0.816241	-0.191355	0.451460
