data_functionalizedCrystal
_audit_creation_method	'MofGen! by Chris Wilmer'
_symmetry_space_group_name_H-M	'P1'
_symmetry_Int_Tables_number	1
_symmetry_cell_setting	triclinic
loop_
_symmetry_equiv_pos_as_xyz
  x,y,z
_cell_length_a	17.699083
_cell_length_b	9.065218
_cell_length_c	8.140239
_cell_angle_alpha	90.001686
_cell_angle_beta	89.996260
_cell_angle_gamma	84.149450
loop_
_atom_site_label
_atom_site_type_symbol
_atom_site_fract_x
_atom_site_fract_y
_atom_site_fract_z
O1	O	-1.005529	-0.186555	-0.136360
O2	O	-0.505529	0.313445	0.363640
O3	O	-0.785340	-0.210827	-0.136416
O4	O	-0.285340	0.289173	0.363584
O5	O	-0.899986	0.016086	-0.136384
O6	O	-0.399986	0.516086	0.363616
O7	O	-0.890883	-0.413468	-0.136393
O8	O	-0.390883	0.086532	0.363607
O9	O	-0.899979	0.016089	0.136843
O10	O	-0.399979	0.516089	0.636843
O11	O	-0.785333	-0.210824	0.136811
O12	O	-0.285333	0.289176	0.636811
O13	O	-1.005522	-0.186553	0.136867
O14	O	-0.505522	0.313447	0.636867
Zn15	Zn	-0.895427	-0.198688	0.180220
Zn16	Zn	-0.395427	0.301312	0.680220
Zn17	Zn	-0.895435	-0.198691	-0.179769
Zn18	Zn	-0.395435	0.301309	0.320231
O19	O	-0.890877	-0.413466	0.136834
O20	O	-0.390877	0.086534	0.636834
C21	C	-0.757133	-0.209956	0.000190
C22	C	-0.257133	0.290044	0.500190
C23	C	-0.673094	-0.207347	0.000168
C24	C	-0.173094	0.292653	0.500168
C25	C	-0.625512	-0.340540	0.000165
C26	C	-0.125512	0.159460	0.500165
C27	C	-0.546550	-0.338080	0.000185
C28	C	-0.046550	0.161920	0.500185
C29	C	-0.515171	-0.202425	0.000196
C30	C	-0.015171	0.297575	0.500196
C31	C	-0.562759	-0.069221	0.000204
C32	C	-0.062759	0.430779	0.500204
C33	C	-0.641720	-0.071683	0.000196
C34	C	-0.141720	0.428317	0.500196
C35	C	-0.244319	-0.059289	0.000240
C36	C	0.255681	0.440711	0.500240
C37	C	-0.165352	-0.056838	0.000243
C38	C	0.334648	0.443162	0.500243
C39	C	-0.149148	-0.325686	0.000229
C40	C	0.350852	0.174314	0.500229
C41	C	-0.228109	-0.328148	0.000221
C42	C	0.271891	0.171852	0.500221
C43	C	-0.275691	-0.194946	0.000237
C44	C	0.224309	0.305054	0.500237
C45	C	-0.361311	-0.197615	0.000219
C46	C	0.138689	0.302385	0.500219
C47	C	-0.429552	-0.199754	0.000203
C48	C	0.070448	0.300246	0.500203
N49	N	-0.895427	-0.198685	0.425902
N50	N	-0.395427	0.301315	0.925902
C51	C	-0.899108	0.071048	0.000227
C52	C	-0.399108	0.571048	0.500227
C53	C	-0.896492	0.234814	0.000218
C54	C	-0.396492	0.734814	0.500218
C55	C	-0.033729	-0.187423	0.000253
C56	C	0.466271	0.312577	0.500253
C57	C	-0.117768	-0.190033	0.000252
C58	C	0.382232	0.309967	0.500252
C59	C	-0.891755	-0.468428	0.000220
C60	C	-0.391755	0.031572	0.500220
C61	C	-0.894370	-0.632193	0.000218
C62	C	-0.394370	-0.132193	0.500218
N63	N	-0.895441	-0.198683	-0.425451
N64	N	-0.395441	0.301317	0.074549
H65	H	-0.651054	-0.451006	0.000155
H66	H	-0.151054	0.048994	0.500155
C67	C	-0.494212	-0.484603	0.000211
C68	C	0.005788	0.015397	0.500211
N69	N	-0.454792	-0.594972	0.000243
N70	N	0.045208	-0.094972	0.500243
C71	C	-0.262621	-0.477379	0.000218
C72	C	0.237379	0.022621	0.500218
N73	N	-0.288614	-0.589783	0.000228
N74	N	0.211386	-0.089783	0.500228
C75	C	-0.694061	0.074840	0.000194
C76	C	-0.194061	0.574840	0.500194
N77	N	-0.733483	0.185206	0.000197
N78	N	-0.233483	0.685206	0.500197
C79	C	-0.528240	0.080002	0.000220
C80	C	-0.028240	0.580002	0.500220
N81	N	-0.502241	0.192399	0.000225
N82	N	-0.002241	0.692399	0.500225
H83	H	-0.110397	-0.434146	0.000224
H84	H	0.389603	0.065854	0.500224
H85	H	-0.139807	0.053635	0.000255
H86	H	0.360193	0.553635	0.500255
H87	H	-0.283051	0.049173	0.000255
H88	H	0.216949	0.549173	0.500255
