data_functionalizedCrystal
_audit_creation_method	'MofGen! by Chris Wilmer'
_symmetry_space_group_name_H-M	'P1'
_symmetry_Int_Tables_number	1
_symmetry_cell_setting	triclinic
loop_
_symmetry_equiv_pos_as_xyz
  x,y,z
_cell_length_a	12.645331
_cell_length_b	18.050589
_cell_length_c	12.645324
_cell_angle_alpha	89.967661
_cell_angle_beta	89.977038
_cell_angle_gamma	90.027200
loop_
_atom_site_label
_atom_site_type_symbol
_atom_site_fract_x
_atom_site_fract_y
_atom_site_fract_z
Zn1	Zn	1.620657	-0.295623	-0.599442
Zn2	Zn	2.120657	0.204377	-0.099442
Zn3	Zn	1.620505	-0.419837	-0.422180
Zn4	Zn	2.120505	0.080163	0.077820
Zn5	Zn	1.443370	-0.295663	-0.422186
Zn6	Zn	1.943370	0.204337	0.077814
Zn7	Zn	1.443320	-0.419774	-0.599396
Zn8	Zn	1.943320	0.080226	-0.099396
O9	O	1.531963	-0.357724	-0.510801
O10	O	2.031963	0.142276	-0.010801
O11	O	1.768984	-0.312110	-0.575945
O12	O	2.268984	0.187890	-0.075945
O13	O	1.596965	-0.403409	-0.273834
O14	O	2.096965	0.096591	0.226166
O15	O	1.466972	-0.191733	-0.445722
O16	O	1.966972	0.308267	0.054278
O17	O	1.768872	-0.403370	-0.445711
O18	O	2.268872	0.096630	0.054289
O19	O	1.597224	-0.191704	-0.575951
O20	O	2.097224	0.308296	-0.075951
O21	O	1.466825	-0.312179	-0.273838
O22	O	1.966825	0.187821	0.226162
O23	O	1.295017	-0.312117	-0.445677
O24	O	1.795017	0.187883	0.054323
O25	O	1.466887	-0.403262	-0.747749
O26	O	1.966887	0.096738	-0.247749
O27	O	1.294980	-0.403300	-0.575872
O28	O	1.794980	0.096700	-0.075872
O29	O	1.597175	-0.312049	-0.747783
O30	O	2.097175	0.187951	-0.247783
O31	O	1.596917	-0.523753	-0.445666
O32	O	2.096917	-0.023753	0.054334
O33	O	1.466740	-0.523707	-0.575866
O34	O	1.966740	-0.023707	-0.075866
C35	C	1.256533	-0.357707	-0.510770
C36	C	1.756533	0.142293	-0.010770
C37	C	1.138703	-0.357717	-0.510783
C38	C	1.638703	0.142283	-0.010783
C39	C	0.971127	-0.300090	-0.429329
C40	C	1.471127	0.199910	0.070671
C41	C	1.093687	-0.300239	-0.428970
C42	C	1.593687	0.199761	0.071030
C43	C	1.094162	-0.435953	-0.480267
C44	C	1.594162	0.064047	0.019733
C45	C	0.971564	-0.435638	-0.479711
C46	C	1.471564	0.064362	0.020289
C47	C	0.971560	-0.337853	-0.623067
C48	C	1.471560	0.162147	-0.123067
C49	C	1.094166	-0.336106	-0.622443
C50	C	1.594166	0.163894	-0.122443
C51	C	1.531835	-0.550677	-0.510784
C52	C	2.031835	-0.050677	-0.010784
C53	C	1.531877	-0.633222	-0.510811
C54	C	2.031877	-0.133222	-0.010811
C55	C	1.461157	-0.832675	-0.581589
C56	C	1.961157	-0.332675	-0.081589
C57	C	1.435310	-0.882125	-0.484854
C58	C	1.935310	-0.382125	0.015146
C59	C	1.531982	-0.784353	-0.510825
C60	C	2.031982	-0.284353	-0.010825
C61	C	1.557881	-0.881984	-0.607571
C62	C	2.057881	-0.381984	-0.107571
C63	C	1.532080	-0.930338	-0.510847
C64	C	2.032080	-0.430338	-0.010847
C65	C	1.506084	-0.832716	-0.414039
C66	C	2.006084	-0.332716	0.085961
C67	C	1.628699	-0.832570	-0.536821
C68	C	2.128699	-0.332570	-0.036821
C69	C	1.602889	-0.881999	-0.440020
C70	C	2.102889	-0.381999	0.059980
C71	C	1.531922	-0.700254	-0.510814
C72	C	2.031922	-0.200254	-0.010814
C73	C	1.532140	-1.014434	-0.510847
C74	C	2.032140	-0.514434	-0.010847
C75	C	1.808468	-0.357743	-0.510832
C76	C	2.308468	0.142257	-0.010832
C77	C	1.926298	-0.357750	-0.510846
C78	C	2.426298	0.142250	-0.010846
C79	C	1.532043	-0.357644	-0.787307
C80	C	2.032043	0.142356	-0.287307
C81	C	1.532076	-0.357609	-0.905137
C82	C	2.032076	0.142391	-0.405137
C83	C	1.532120	-0.164019	-0.510842
C84	C	2.032120	0.335981	-0.010842
C85	C	1.532188	-0.081473	-0.510859
C86	C	2.032188	0.418527	-0.010859
C87	C	1.614360	-0.300393	-1.072722
C88	C	2.114360	0.199607	-0.572722
C89	C	1.614096	-0.300187	-0.950162
C90	C	2.114096	0.199813	-0.450162
C91	C	1.420400	-0.336341	-0.949615
C92	C	1.920400	0.163659	-0.449615
C93	C	1.420900	-0.335906	-1.072214
C94	C	1.920900	0.164094	-0.572214
C95	C	1.560563	-0.436177	-1.072333
C96	C	2.060563	0.063823	-0.572333
C97	C	1.563007	-0.435782	-0.949728
C98	C	2.063007	0.064218	-0.449728
C99	C	1.531945	-0.357751	-0.235371
C100	C	2.031945	0.142249	0.264629
C101	C	1.532117	-0.357576	-0.117542
C102	C	2.032117	0.142424	0.382458
H103	H	0.940678	-0.281799	-0.650819
H104	H	1.440678	0.218201	-0.150819
H105	H	1.595263	-0.241961	-0.920850
H106	H	2.095263	0.258039	-0.420850
H107	H	1.401175	-0.811017	-0.641347
H108	H	1.901175	-0.311017	-0.141347
Br109	Br	1.379466	-0.241641	-0.898468
Br110	Br	1.879466	0.258359	-0.398468
Br111	Br	1.470414	-0.510619	-0.898650
Br112	Br	1.970414	-0.010619	-0.398650
Br113	Br	1.143888	-0.203544	-0.460849
Br114	Br	1.643888	0.296456	0.039151
H115	H	1.123285	-0.278533	-0.645454
H116	H	1.623285	0.221467	-0.145454
H117	H	1.396784	-0.278450	-1.100824
H118	H	1.896784	0.221550	-0.600824
Br119	Br	1.299056	-0.918401	-0.448206
Br120	Br	1.799056	-0.418401	0.051794
H121	H	1.484123	-0.811163	-0.332209
H122	H	1.984123	-0.311163	0.167791
Br123	Br	1.145239	-0.400999	-0.729094
Br124	Br	1.645239	0.099001	-0.229094
H125	H	1.122961	-0.313390	-0.345809
H126	H	1.622961	0.186610	0.154191
Br127	Br	0.923805	-0.463758	-0.342974
Br128	Br	1.423805	0.036242	0.157026
Br129	Br	1.693972	-0.468416	-1.123885
Br130	Br	2.193972	0.031584	-0.623885
Br131	Br	1.702793	-0.917869	-0.340186
Br132	Br	2.202793	-0.417869	0.159814
H133	H	1.710426	-0.810790	-0.558835
H134	H	2.210426	-0.310790	-0.058835
Br135	Br	1.142740	-0.509475	-0.576128
Br136	Br	1.642740	-0.009475	-0.076128
H137	H	0.941678	-0.241901	-0.448251
H138	H	1.441678	0.258099	0.051749
Br139	Br	0.922129	-0.509670	-0.574346
Br140	Br	1.422129	-0.009670	-0.074346
Br141	Br	1.145243	-0.464561	-0.344996
Br142	Br	1.645243	0.035439	0.155004
Br143	Br	1.594324	-0.918062	-0.743919
Br144	Br	2.094324	-0.418062	-0.243919
H145	H	1.696907	-0.313507	-0.920091
H146	H	2.196907	0.186493	-0.420091
Br147	Br	1.583382	-0.203881	-1.124098
Br148	Br	2.083382	0.296119	-0.624098
Br149	Br	0.919682	-0.321748	-0.291540
Br150	Br	1.419682	0.178252	0.208460
H151	H	1.697445	-0.313546	-1.102215
H152	H	2.197445	0.186454	-0.602215
H153	H	1.357537	-0.375744	-1.101860
H154	H	1.857537	0.124256	-0.601860
H155	H	1.645191	-0.451820	-0.920657
H156	H	2.145191	0.048180	-0.420657
H157	H	1.357455	-0.376710	-0.920448
H158	H	1.857455	0.123290	-0.420448
Br159	Br	0.923244	-0.407851	-0.724301
Br160	Br	1.423244	0.092149	-0.224301
Br161	Br	1.460719	-0.507190	-1.120633
Br162	Br	1.960719	-0.007190	-0.620633
