data_functionalizedCrystal
_audit_creation_method	'MofGen! by Chris Wilmer'
_symmetry_space_group_name_H-M	'P1'
_symmetry_Int_Tables_number	1
_symmetry_cell_setting	triclinic
loop_
_symmetry_equiv_pos_as_xyz
  x,y,z
_cell_length_a	10.723024
_cell_length_b	13.339070
_cell_length_c	9.798715
_cell_angle_alpha	89.999403
_cell_angle_beta	89.996609
_cell_angle_gamma	100.048582
loop_
_atom_site_label
_atom_site_type_symbol
_atom_site_fract_x
_atom_site_fract_y
_atom_site_fract_z
O1	O	1.704930	0.142225	-0.113477
O2	O	1.346348	0.155839	-0.113481
O3	O	1.484486	0.001483	-0.113475
O4	O	1.566793	0.296581	-0.113483
O5	O	1.484471	0.001483	0.113507
O6	O	1.346334	0.155839	0.113501
O7	O	1.704916	0.142225	0.113505
Zn8	Zn	1.525623	0.149032	0.149541
Zn9	Zn	1.525642	0.149032	-0.149517
O10	O	1.566779	0.296581	0.113500
C11	C	1.299509	0.154848	0.000009
C12	C	1.159959	0.151884	0.000008
C13	C	1.470575	-0.036303	0.000014
C14	C	1.429133	-0.148892	0.000008
C15	C	1.113970	0.238253	0.000005
C16	C	0.969739	0.235192	0.000003
C17	C	1.751368	-0.511449	0.000012
C18	C	1.790309	-0.405666	0.000025
C19	C	1.700018	-0.341468	0.000020
C20	C	1.570779	-0.383062	0.000003
C21	C	1.531834	-0.488855	0.000001
C22	C	1.480485	-0.318874	0.000009
C23	C	1.351246	-0.360469	-0.000008
C24	C	1.312308	-0.466252	-0.000012
C25	C	1.402598	-0.530450	-0.000007
C26	C	1.519430	-0.213081	0.000012
C27	C	1.299897	-0.190487	0.000000
C28	C	1.260956	-0.296270	-0.000013
C29	C	1.751755	0.143216	0.000012
C30	C	1.891305	0.146180	0.000004
C31	C	1.580689	0.334367	0.000008
C32	C	1.622132	0.446956	0.000005
N33	N	1.525619	0.149031	0.353641
N34	N	1.525653	0.149025	-0.353617
C35	C	1.583523	0.083935	0.421420
C36	C	1.583542	0.083932	0.578583
H37	H	1.181375	0.314464	0.000011
H38	H	1.476082	0.204763	0.588105
C39	C	1.703972	-0.051495	0.435423
C40	C	1.650429	0.008697	0.342702
H41	H	1.745270	-0.097949	0.386825
H42	H	1.763743	-0.009105	0.491139
H43	H	1.639205	-0.088266	0.491173
H44	H	1.715197	0.045474	0.286958
H45	H	1.590652	-0.033698	0.286962
H46	H	1.633122	0.028204	0.636870
C47	C	1.972266	-0.523171	0.000032
C48	C	1.850605	-0.582014	0.000022
H49	H	2.033535	-0.566738	0.000047
H50	H	1.982902	-0.481443	-0.079119
H51	H	1.982876	-0.481437	0.079190
H52	H	1.839992	-0.623743	-0.079142
H53	H	1.839966	-0.623760	0.079180
H54	H	1.476052	0.204755	0.411964
C55	C	1.718534	-0.199773	-0.116671
C56	C	1.661481	-0.167364	0.000014
H57	H	1.806234	-0.171544	-0.116674
H58	H	1.708261	-0.271954	-0.116659
H59	H	1.679811	-0.177785	-0.195815
H60	H	1.700199	-0.189359	0.079158
H61	H	1.671763	-0.095167	0.000014
H62	H	1.092554	0.075673	-0.000025
C63	C	0.783744	0.312660	0.000001
C64	C	0.916276	0.335014	0.000001
H65	H	0.750741	0.374289	0.000007
H66	H	0.755311	0.274276	-0.079148
H67	H	0.755302	0.274266	0.079160
H68	H	0.944719	0.373401	-0.079164
H69	H	0.944721	0.373414	0.079158
H70	H	0.930908	0.072237	-0.000002
C71	C	1.961466	-0.299806	-0.116642
C72	C	1.932360	-0.359948	0.000035
H73	H	2.049167	-0.271579	-0.116631
H74	H	1.941723	-0.340603	-0.195782
H75	H	1.913261	-0.246437	-0.116627
H76	H	1.980558	-0.413322	0.000015
H77	H	1.952116	-0.319149	0.079196
H78	H	1.731732	-0.255335	0.000032
H79	H	1.370899	-0.616589	-0.000023
H80	H	1.207074	-0.500114	-0.000016
C81	C	1.216331	-0.058420	-0.116701
C82	C	1.200633	-0.119933	-0.000014
H83	H	1.155050	-0.014865	-0.116709
H84	H	1.298861	-0.018512	-0.116687
H85	H	1.205707	-0.100170	-0.195843
H86	H	1.211267	-0.078183	0.079129
H87	H	1.118083	-0.159845	-0.000016
H88	H	1.155727	-0.330152	-0.000027
