data_functionalizedCrystal
_audit_creation_method	'MofGen! by Chris Wilmer'
_symmetry_space_group_name_H-M	'P1'
_symmetry_Int_Tables_number	1
_symmetry_cell_setting	triclinic
loop_
_symmetry_equiv_pos_as_xyz
  x,y,z
_cell_length_a	13.897448
_cell_length_b	19.805407
_cell_length_c	19.805399
_cell_angle_alpha	90.021064
_cell_angle_beta	89.974981
_cell_angle_gamma	89.983323
loop_
_atom_site_label
_atom_site_type_symbol
_atom_site_fract_x
_atom_site_fract_y
_atom_site_fract_z
Zn1	Zn	-0.384063	-1.034777	-0.382759
Zn2	Zn	0.115937	-0.534777	0.117241
Zn3	Zn	-0.545369	-1.034709	-0.269575
Zn4	Zn	-0.045369	-0.534709	0.230425
Zn5	Zn	-0.384087	-0.921591	-0.269580
Zn6	Zn	0.115913	-0.421591	0.230420
Zn7	Zn	-0.545315	-0.921572	-0.382719
Zn8	Zn	-0.045315	-0.421572	0.117281
O9	O	-0.464709	-0.978162	-0.326158
O10	O	0.035291	-0.478162	0.173842
O11	O	-0.405474	-1.129484	-0.367759
O12	O	0.094526	-0.629484	0.132241
O13	O	-0.524007	-1.019683	-0.174859
O14	O	-0.024007	-0.519683	0.325141
O15	O	-0.249102	-0.936642	-0.284612
O16	O	0.250898	-0.436642	0.215388
O17	O	-0.523984	-1.129434	-0.284604
O18	O	-0.023984	-0.629434	0.215396
O19	O	-0.249085	-1.019799	-0.367764
O20	O	0.250915	-0.519799	0.132236
O21	O	-0.405514	-0.936576	-0.174863
O22	O	0.094486	-0.436576	0.325137
O23	O	-0.405462	-0.826872	-0.284574
O24	O	0.094538	-0.326872	0.215426
O25	O	-0.523892	-0.936609	-0.477441
O26	O	-0.023892	-0.436609	0.022559
O27	O	-0.523915	-0.826858	-0.367697
O28	O	-0.023915	-0.326858	0.132303
O29	O	-0.405421	-1.019780	-0.477470
O30	O	0.094579	-0.519780	0.022530
O31	O	-0.680344	-1.019664	-0.284566
O32	O	-0.180344	-0.519664	0.215434
O33	O	-0.680304	-0.936543	-0.367692
O34	O	-0.180304	-0.436543	0.132308
C35	C	-0.464686	-0.802306	-0.326132
C36	C	0.035314	-0.302306	0.173868
C37	C	-0.464699	-0.727074	-0.326137
C38	C	0.035301	-0.227074	0.173863
C39	C	-0.715323	-0.978113	-0.326139
C40	C	-0.215323	-0.478113	0.173861
C41	C	-0.822537	-0.978154	-0.326153
C42	C	-0.322537	-0.478154	0.173847
C43	C	-0.526470	-0.691740	-0.369348
C44	C	-0.026470	-0.191740	0.130652
C45	C	-0.526470	-0.621052	-0.369355
C46	C	-0.026470	-0.121052	0.130645
C47	C	-0.464703	-0.585699	-0.326148
C48	C	0.035297	-0.085699	0.173852
C49	C	-0.402926	-0.621037	-0.282935
C50	C	0.097074	-0.121037	0.217065
C51	C	-0.402922	-0.691725	-0.282931
C52	C	0.097078	-0.191725	0.217069
C53	C	-0.402940	-0.335964	-0.282950
C54	C	0.097060	0.164036	0.217050
C55	C	-0.402951	-0.265272	-0.282956
C56	C	0.097049	0.234728	0.217044
C57	C	-0.526488	-0.265292	-0.369374
C58	C	-0.026488	0.234708	0.130626
C59	C	-0.526484	-0.335979	-0.369370
C60	C	-0.026484	0.164021	0.130630
C61	C	-0.464703	-0.371311	-0.326160
C62	C	0.035297	0.128689	0.173840
C63	C	-0.464703	-0.447960	-0.326153
C64	C	0.035297	0.052040	0.173847
C65	C	-0.464708	-0.509051	-0.326151
C66	C	0.035292	-0.009051	0.173849
C67	C	-1.018832	-0.978225	-0.326196
C68	C	-0.518832	-0.478225	0.173804
C69	C	-0.909600	-0.978183	-0.326174
C70	C	-0.409600	-0.478183	0.173826
C71	C	-0.213116	-0.978230	-0.326193
C72	C	0.286884	-0.478230	0.173807
C73	C	-0.105902	-0.978259	-0.326208
C74	C	0.394098	-0.478259	0.173792
C75	C	-0.464648	-0.978200	-0.502701
C76	C	0.035352	-0.478200	-0.002701
C77	C	-0.464622	-0.978216	-0.577933
C78	C	0.035378	-0.478216	-0.077933
C79	C	-0.464726	-0.154705	-0.326179
C80	C	0.035274	0.345295	0.173821
C81	C	-0.464717	-0.229937	-0.326171
C82	C	0.035283	0.270063	0.173829
C83	C	-0.402931	-1.021524	-0.613294
C84	C	0.097069	-0.521524	-0.113294
C85	C	-0.402903	-1.021531	-0.683982
C86	C	0.097097	-0.521531	-0.183982
C87	C	-0.464572	-0.978233	-0.719309
C88	C	0.035428	-0.478233	-0.219309
C89	C	-0.526265	-0.934920	-0.683944
C90	C	-0.026265	-0.434920	-0.183944
C91	C	-0.526288	-0.934910	-0.613256
C92	C	-0.026288	-0.434910	-0.113256
C93	C	-0.526175	-0.934958	-0.969017
C94	C	-0.026175	-0.434958	-0.469017
C95	C	-0.526150	-0.934973	-1.039709
C96	C	-0.026150	-0.434973	-0.539709
C97	C	-0.402791	-1.021579	-1.039743
C98	C	0.097209	-0.521579	-0.539743
C99	C	-0.402813	-1.021570	-0.969055
C100	C	0.097187	-0.521570	-0.469055
C101	C	-0.464503	-0.978255	-0.933696
C102	C	0.035497	-0.478255	-0.433696
C103	C	-0.464531	-0.978247	-0.857048
C104	C	0.035469	-0.478247	-0.357048
C105	C	-0.464549	-0.978244	-0.795956
C106	C	0.035451	-0.478244	-0.295956
C107	C	-0.464700	-0.978163	-0.150302
C108	C	0.035300	-0.478163	0.349698
C109	C	-0.464454	-0.978278	-0.075071
C110	C	0.035546	-0.478278	0.424929
H111	H	-0.576771	-0.720520	-0.404530
H112	H	-0.076771	-0.220520	0.095470
H113	H	-0.576421	-0.899699	-0.940236
H114	H	-0.076421	-0.399699	-0.440236
O115	O	-0.342999	-1.063531	-0.718435
O116	O	0.157001	-0.563531	-0.218435
C117	C	-0.356206	-1.054263	-0.788401
C118	C	0.143794	-0.554263	-0.288401
H119	H	-0.387797	-1.002023	-0.798036
H120	H	0.112203	-0.502023	-0.298036
H121	H	-0.283940	-1.058866	-0.815271
H122	H	0.216060	-0.558866	-0.315271
H123	H	-0.407560	-1.094403	-0.808471
H124	H	0.092440	-0.594403	-0.308471
H125	H	-0.352630	-0.592247	-0.247758
H126	H	0.147370	-0.092247	0.252242
H127	H	-0.576473	-0.899664	-0.712712
H128	H	-0.076473	-0.399664	-0.212712
H129	H	-0.576513	-0.899638	-0.584467
H130	H	-0.076513	-0.399638	-0.084467
H131	H	-0.352647	-0.236489	-0.247771
H132	H	0.147353	0.263511	0.252229
O133	O	-0.342935	-1.063607	-0.579085
O134	O	0.157065	-0.563607	-0.079085
C135	C	-0.288495	-1.101844	-0.625456
C136	C	0.211505	-0.601844	-0.125456
H137	H	-0.285137	-1.074127	-0.675838
H138	H	0.214863	-0.574127	-0.175838
H139	H	-0.212503	-1.109081	-0.605047
H140	H	0.287497	-0.609081	-0.105047
H141	H	-0.323822	-1.153241	-0.632981
H142	H	0.176178	-0.653241	-0.132981
H143	H	-0.576771	-0.592286	-0.404542
H144	H	-0.076771	-0.092286	0.095458
H145	H	-0.352600	-1.056830	-0.940296
H146	H	0.147400	-0.556830	-0.440296
H147	H	-0.352641	-0.364723	-0.247761
H148	H	0.147359	0.135277	0.252239
O149	O	-0.586160	-0.893005	-1.074056
O150	O	-0.086160	-0.393005	-0.574056
C151	C	-0.648441	-0.931529	-1.114952
C152	C	-0.148441	-0.431529	-0.614952
H153	H	-0.654418	-0.984831	-1.093657
H154	H	-0.154418	-0.484831	-0.593657
H155	H	-0.722668	-0.907026	-1.115739
H156	H	-0.222668	-0.407026	-0.615739
H157	H	-0.618602	-0.933882	-1.168530
H158	H	-0.118602	-0.433882	-0.668530
O159	O	-0.586381	-0.370289	-0.411440
O160	O	-0.086381	0.129711	0.088560
C161	C	-0.565439	-0.353034	-0.478925
C162	C	-0.065439	0.146966	0.021075
H163	H	-0.488388	-0.333616	-0.482435
H164	H	0.011612	0.166384	0.017565
H165	H	-0.573804	-0.399533	-0.512352
H166	H	-0.073804	0.100467	-0.012352
H167	H	-0.617190	-0.312002	-0.496557
H168	H	-0.117190	0.187998	0.003443
O169	O	-0.586406	-0.230864	-0.411334
O170	O	-0.086406	0.269136	0.088666
C171	C	-0.573184	-0.160892	-0.402066
C172	C	-0.073184	0.339108	0.097934
H173	H	-0.498702	-0.151239	-0.379993
H174	H	0.001298	0.348761	0.120007
H175	H	-0.579827	-0.134051	-0.452760
H176	H	-0.079827	0.365949	0.047240
H177	H	-0.630331	-0.140806	-0.365952
H178	H	-0.130331	0.359194	0.134048
O179	O	-0.342892	-0.725945	-0.240888
O180	O	0.157108	-0.225945	0.259112
C181	C	-0.288361	-0.679586	-0.202763
C182	C	0.211639	-0.179586	0.297237
H183	H	-0.327868	-0.629189	-0.200375
H184	H	0.172132	-0.129189	0.299625
H185	H	-0.277975	-0.699989	-0.149445
H186	H	0.222025	-0.199989	0.350555
H187	H	-0.215148	-0.672092	-0.227637
H188	H	0.284852	-0.172092	0.272363
H189	H	-0.352557	-1.056846	-1.068541
H190	H	0.147443	-0.556846	-0.568541
