data_functionalizedCrystal
_audit_creation_method	'MofGen! by Chris Wilmer'
_symmetry_space_group_name_H-M	'P1'
_symmetry_Int_Tables_number	1
_symmetry_cell_setting	triclinic
loop_
_symmetry_equiv_pos_as_xyz
  x,y,z
_cell_length_a	31.640172
_cell_length_b	23.096457
_cell_length_c	31.640172
_cell_angle_alpha	60.012858
_cell_angle_beta	90.011976
_cell_angle_gamma	59.998714
loop_
_atom_site_label
_atom_site_type_symbol
_atom_site_fract_x
_atom_site_fract_y
_atom_site_fract_z
Zr1	Zr	0.407192	0.633644	-0.055385
O2	O	0.339701	0.754423	-0.122869
O3	O	0.427879	0.512860	-0.034700
O4	O	0.427878	0.633622	-0.122861
O5	O	0.339705	0.633680	0.034838
O6	O	0.497435	0.633610	-0.122852
O7	O	0.339703	0.633661	-0.034708
O8	O	0.497437	0.417589	0.034852
O9	O	0.339703	0.849701	-0.122866
O10	O	0.488614	0.562533	-0.025868
O11	O	0.436706	0.562556	0.026026
O12	O	0.436705	0.704737	-0.077772
O13	O	0.384797	0.704761	-0.025878
Zr14	Zr	0.518131	0.633655	0.055547
Zr15	Zr	0.518127	0.633625	-0.055370
Zr16	Zr	0.407196	0.633674	0.055532
Zr17	Zr	0.407194	0.785601	-0.055380
Zr18	Zr	0.518129	0.481698	0.055543
O19	O	0.497444	0.754439	0.034862
O20	O	0.497437	0.754396	-0.122848
O21	O	0.339708	0.754466	0.034841
O22	O	0.585621	0.512876	0.123031
O23	O	0.585615	0.512833	-0.034679
O24	O	0.427885	0.512903	0.123010
O25	O	0.585617	0.633619	-0.034675
O26	O	0.497445	0.633677	0.123023
O27	O	0.427888	0.633689	0.123014
O28	O	0.585620	0.633638	0.034870
O29	O	0.427882	0.849686	-0.122854
O30	O	0.497441	0.417613	0.123017
O31	O	0.585620	0.417598	0.123028
O32	O	0.585616	0.417574	0.034864
O33	O	0.339707	0.849725	-0.034701
O34	O	0.427886	0.849710	-0.034690
O35	O	0.488618	0.562561	0.077934
O36	O	0.540526	0.562538	0.026040
O37	O	0.488617	0.704743	-0.025864
O38	O	0.436709	0.704766	0.026030
C39	C	0.462658	0.443574	0.000075
C40	C	0.462657	0.379064	0.000073
C41	C	0.489748	0.348751	-0.027017
C42	C	0.489753	0.288129	-0.027013
C43	C	0.462657	0.257833	0.000075
C44	C	0.435564	0.288150	0.027171
C45	C	0.435564	0.348766	0.027170
N46	N	0.418560	0.195444	-0.003688
N47	N	0.418561	0.137863	-0.003690
C48	C	0.462656	0.075201	0.000080
N49	N	0.506750	0.072303	0.003841
N50	N	0.506748	0.129891	0.003840
C51	C	0.462654	0.192106	0.000079
C52	C	0.489756	-0.020846	-0.027007
C53	C	0.489762	-0.081473	-0.026999
C54	C	0.435568	-0.081444	0.027181
C55	C	0.435566	-0.020824	0.027176
C56	C	0.462659	0.009474	0.000079
C57	C	0.323898	0.633673	0.000063
C58	C	0.276803	0.633681	0.000056
C59	C	0.011893	0.559412	0.027185
C60	C	-0.165092	0.559398	0.027195
O61	O	-0.164934	0.496268	0.050256
N62	N	-0.214318	0.633627	0.000101
C63	C	-0.219296	0.707864	-0.026994
O64	O	-0.265227	0.771000	-0.050035
C65	C	-0.042312	0.707878	-0.027001
C66	C	0.006913	0.633644	0.000090
C67	C	0.061116	0.485185	0.054274
C68	C	0.105359	0.485189	0.054269
C69	C	0.100380	0.559421	0.027175
C70	C	0.051157	0.633648	0.000085
C71	C	-0.047291	0.782114	-0.054094
C72	C	-0.003040	0.782111	-0.054092
C73	C	0.046186	0.707878	-0.027000
C74	C	0.090420	0.707885	-0.027015
N75	N	0.139646	0.633656	0.000079
C76	C	0.144626	0.559424	0.027174
C77	C	-0.312214	0.707852	-0.026990
C78	C	-0.356460	0.707849	-0.026989
C79	C	-0.302252	0.559382	0.027202
C80	C	-0.258006	0.559386	0.027197
C81	C	-0.262988	0.633623	0.000104
C82	C	0.237538	0.559439	0.027160
C83	C	0.281783	0.559450	0.027151
C84	C	0.227572	0.707916	-0.027037
C85	C	0.183330	0.707905	-0.027030
C86	C	0.188317	0.633660	0.000073
O87	O	0.090301	0.770981	-0.050059
O88	O	0.190560	0.496298	0.050220
C89	C	-0.032350	0.559408	0.027190
C90	C	-0.081573	0.633636	0.000100
C91	C	-0.086553	0.707867	-0.026994
C92	C	-0.125819	0.633632	0.000101
C93	C	-0.120840	0.559401	0.027196
C94	C	-0.071614	0.485172	0.054290
C95	C	-0.027371	0.485176	0.054285
C96	C	-0.135779	0.782096	-0.054088
C97	C	-0.180020	0.782086	-0.054081
C98	C	-0.175040	0.707854	-0.026987
C99	C	0.601425	0.633625	0.000100
C100	C	0.648520	0.633617	0.000106
C101	C	0.462656	0.633611	-0.138660
C102	C	0.462654	0.633599	-0.185747
C103	C	0.462665	0.823725	0.000087
C104	C	0.462666	0.888235	0.000089
C105	C	0.489769	0.559414	-0.494959
C106	C	0.489761	0.559389	-0.317960
O107	O	0.512820	0.496258	-0.272034
N108	N	0.462663	0.633616	-0.322919
C109	C	0.435569	0.707855	-0.372133
O110	O	0.412525	0.770990	-0.372290
C111	C	0.435580	0.707879	-0.549132
C112	C	0.462675	0.633647	-0.544168
C113	C	0.516862	0.485187	-0.489998
C114	C	0.516861	0.485194	-0.534245
C115	C	0.489767	0.559427	-0.583454
C116	C	0.462674	0.633654	-0.588415
C117	C	0.408488	0.782117	-0.598344
C118	C	0.408495	0.782116	-0.642594
C119	C	0.435590	0.707884	-0.637631
C120	C	0.435580	0.707894	-0.681872
N121	N	0.462677	0.633666	-0.676912
C122	C	0.489771	0.559433	-0.627703
C123	C	0.435564	0.707837	-0.279205
C124	C	0.435560	0.707832	-0.234956
C125	C	0.489753	0.559365	-0.180785
C126	C	0.489754	0.559372	-0.225036
C127	C	0.462661	0.633610	-0.274245
C128	C	0.489767	0.559453	-0.720628
C129	C	0.489763	0.559467	-0.764882
C130	C	0.435572	0.707933	-0.819048
C131	C	0.435574	0.707920	-0.774799
C132	C	0.462676	0.633674	-0.725587
O133	O	0.412537	0.770992	-0.727813
O134	O	0.512821	0.496308	-0.627557
C135	C	0.489769	0.559407	-0.450712
C136	C	0.462676	0.633633	-0.455673
C137	C	0.435582	0.707866	-0.504882
C138	C	0.462672	0.633627	-0.411424
C139	C	0.489766	0.559394	-0.362215
C140	C	0.516864	0.485167	-0.357256
C141	C	0.516863	0.485174	-0.401503
C142	C	0.408485	0.782094	-0.509841
C143	C	0.408487	0.782081	-0.465592
C144	C	0.435581	0.707847	-0.416383
C145	C	0.462667	0.633687	0.138822
C146	C	0.462669	0.633700	0.185909
C147	C	0.601421	0.443550	0.000094
C148	C	0.648515	0.379032	0.000098
C149	C	0.462663	0.443612	0.138816
C150	C	0.462664	0.379115	0.185901
C151	C	0.601427	0.443588	0.138835
C152	C	0.648522	0.379083	0.185926
C153	C	0.323896	0.823711	-0.138672
C154	C	0.276801	0.888216	-0.185764
C155	C	0.323902	0.823749	0.000069
C156	C	0.276808	0.888267	0.000064
C157	C	0.462660	0.823687	-0.138654
C158	C	0.462659	0.888184	-0.185739
C159	C	0.643533	0.348731	-0.027000
C160	C	0.687779	0.288118	-0.027006
C161	C	0.737005	0.257803	0.000089
C162	C	0.741986	0.288110	0.027188
C163	C	0.697741	0.348726	0.027191
C164	C	0.489762	0.348829	0.235113
C165	C	0.489760	0.288236	0.279359
C166	C	0.462664	0.257925	0.274392
C167	C	0.435563	0.288217	0.225175
C168	C	0.435562	0.348813	0.180930
C169	C	0.697739	0.348778	0.180953
C170	C	0.741994	0.288177	0.225196
C171	C	0.737032	0.257878	0.274412
C172	C	0.687811	0.288188	0.279385
C173	C	0.643556	0.348792	0.235142
C174	C	0.227584	0.918528	-0.180790
C175	C	0.183328	0.979148	-0.225034
C176	C	0.188290	1.009450	-0.274250
C177	C	0.237512	0.979136	-0.279223
C178	C	0.281767	0.918522	-0.234980
C179	C	0.281789	0.918574	0.027158
C180	C	0.237544	0.979204	0.027152
C181	C	0.188318	1.009521	0.000055
C182	C	0.183337	0.979211	-0.027042
C183	C	0.227582	0.918587	-0.027038
C184	C	0.489760	0.918475	-0.180755
C185	C	0.489770	0.979069	-0.224993
C186	C	0.462675	1.009374	-0.274213
C187	C	0.435572	0.979077	-0.279196
C188	C	0.435566	0.918480	-0.234959
H189	H	0.511810	0.373416	-0.049079
O190	O	0.462677	0.192559	0.322120
H191	H	0.422332	0.215821	0.322098
H192	H	0.603484	0.373458	0.239199
O193	O	0.518991	0.885796	-0.127672
H194	H	0.514435	0.838572	-0.097742
O195	O	0.379259	0.862154	-0.470952
H196	H	0.349304	0.865721	-0.452104
H197	H	0.511813	0.498921	-0.140711
O198	O	0.518986	0.381518	0.240477
H199	H	0.537821	0.350278	0.282134
H200	H	0.773028	0.208444	0.000083
H201	H	0.012707	0.424727	0.076346
O202	O	0.406363	1.011769	-0.332292
H203	H	0.422028	0.960888	-0.336797
O204	O	0.590443	0.381424	-0.056231
H205	H	0.568989	0.448284	-0.086171
H206	H	0.701789	0.373439	0.140882
H207	H	0.321864	0.498997	0.049214
O208	O	0.795080	0.255482	0.219827
H209	H	0.791091	0.286724	0.178171
H210	H	0.511839	1.003731	-0.220926
O211	O	0.518986	-0.114169	-0.056220
H212	H	0.514441	-0.161417	-0.051663
H213	H	0.511831	0.263579	0.319430
O214	O	0.140552	1.074832	-0.321964
H215	H	0.140569	1.051577	-0.345334
H216	H	0.321868	0.893894	0.049227
O217	O	0.334855	0.885819	-0.240337
H218	H	0.339352	0.858196	-0.261819
O219	O	0.222226	0.885855	-0.127709
H220	H	0.180564	0.917132	-0.131692
O221	O	0.406326	0.885821	-0.240337
H222	H	0.387483	0.917086	-0.281996
O223	O	0.682402	0.255429	-0.056231
H224	H	0.640737	0.286685	-0.075061
H225	H	0.413497	0.373464	0.140861
O226	O	0.406341	0.255521	0.219816
H227	H	0.422003	0.227898	0.198335
H228	H	0.773071	0.208530	0.310434
H229	H	0.782072	0.263418	0.049247
O230	O	0.462676	1.074744	-0.321923
H231	H	0.503027	1.051474	-0.321884
O232	O	0.518969	0.255430	-0.056238
H233	H	0.537805	0.286686	-0.075083
H234	H	0.511826	0.499015	-0.760835
H235	H	0.143254	1.003819	-0.220975
H236	H	0.538927	0.424747	-0.530197
O237	O	0.242921	1.011879	0.056386
H238	H	0.284586	0.980596	0.075236
O239	O	0.406334	0.255485	0.056384
H240	H	0.410880	0.208249	0.051829
H241	H	0.511819	0.003821	-0.049069
O242	O	0.682461	0.255494	0.332469
H243	H	0.721506	0.208252	0.362394
O244	O	0.140597	1.074887	0.000070
H245	H	0.152337	1.090850	0.023474
H246	H	0.241546	1.003817	-0.319300
H247	H	0.143251	1.003905	-0.049103
H248	H	0.223518	0.893912	-0.049100
O249	O	-0.100378	0.862182	-0.083313
H250	H	-0.104871	0.897773	-0.067649
O251	O	0.406337	0.381474	0.056385
H252	H	0.387493	0.350229	0.075220
H253	H	0.413503	0.003860	0.049234
O254	O	0.406339	-0.114108	0.056397
H255	H	0.410887	-0.161348	0.051844
O256	O	0.130234	0.787968	-0.056250
H257	H	0.134207	0.839586	-0.075089
O258	O	0.703118	0.381390	0.056430
H259	H	0.724611	0.408988	0.040785
O260	O	0.242918	0.479363	0.056385
H261	H	0.284583	0.427755	0.075214
H262	H	0.145437	0.424740	0.076328
H263	H	0.538922	0.424723	-0.317181
H264	H	0.065180	0.424733	0.076341
H265	H	-0.217927	0.498939	0.049262
H266	H	-0.298204	0.498940	0.049260
H267	H	-0.396538	0.768298	-0.049056
H268	H	-0.316279	0.768308	-0.049056
H269	H	-0.139841	0.842546	-0.076154
O270	O	-0.008390	0.862164	-0.083325
H271	H	-0.029870	0.897797	-0.067685
O272	O	0.222238	0.787952	-0.056299
H273	H	0.241113	0.791545	-0.028975
O274	O	-0.066245	0.405104	0.083513
H275	H	-0.085100	0.401561	0.113460
O276	O	-0.233114	0.862157	-0.083306
H277	H	-0.237609	0.897752	-0.067645
O278	O	0.518997	0.479387	-0.667548
H279	H	0.503337	0.443796	-0.663054
O280	O	0.546086	0.405122	-0.436920
H281	H	0.530422	0.369539	-0.432436
O282	O	0.518993	0.479302	-0.219674
H283	H	0.503340	0.443701	-0.198198
O284	O	0.406330	0.787896	-0.240310
H285	H	0.387496	0.839511	-0.281965
H286	H	0.386426	0.842565	-0.602396
O287	O	0.406337	0.787913	-0.332281
H288	H	0.387492	0.839520	-0.328289
O289	O	0.379270	0.862189	-0.695672
H290	H	0.360428	0.913800	-0.691684
H291	H	0.413503	0.768366	-0.778841
H292	H	0.413511	0.768372	-0.859121
H293	H	0.386422	0.842544	-0.549906
O294	O	0.546107	0.405109	-0.396148
H295	H	0.564954	0.353496	-0.354492
