data_functionalizedCrystal
_audit_creation_method	'MofGen! by Chris Wilmer'
_symmetry_space_group_name_H-M	'P1'
_symmetry_Int_Tables_number	1
_symmetry_cell_setting	triclinic
loop_
_symmetry_equiv_pos_as_xyz
  x,y,z
_cell_length_a	21.395364
_cell_length_b	21.395361
_cell_length_c	21.395355
_cell_angle_alpha	90.021511
_cell_angle_beta	89.975448
_cell_angle_gamma	89.954341
loop_
_atom_site_label
_atom_site_type_symbol
_atom_site_fract_x
_atom_site_fract_y
_atom_site_fract_z
Zn1	Zn	0.957859	0.249261	-0.354248
Zn2	Zn	1.207859	0.499261	-0.104248
Zn3	Zn	1.457859	0.749261	0.145752
Zn4	Zn	1.707859	0.999261	0.395752
Zn5	Zn	0.957762	0.354021	-0.249466
Zn6	Zn	1.207762	0.604021	0.000534
Zn7	Zn	1.457762	0.854021	0.250534
Zn8	Zn	1.707762	1.104021	0.500534
Zn9	Zn	0.853074	0.249289	-0.249485
Zn10	Zn	1.103074	0.499289	0.000515
Zn11	Zn	1.353074	0.749289	0.250515
Zn12	Zn	1.603074	0.999289	0.500515
Zn13	Zn	0.853043	0.354032	-0.354206
Zn14	Zn	1.103043	0.604032	-0.104206
Zn15	Zn	1.353043	0.854032	0.145794
Zn16	Zn	1.603043	1.104032	0.395794
O17	O	0.905435	0.301651	-0.301851
O18	O	1.155435	0.551651	-0.051851
O19	O	1.405435	0.801651	0.198149
O20	O	1.655435	1.051651	0.448149
O21	O	1.045524	0.263142	-0.340358
O22	O	1.295524	0.513142	-0.090358
O23	O	1.545524	0.763142	0.159642
O24	O	1.795524	1.013142	0.409642
O25	O	0.943847	0.340135	-0.161790
O26	O	1.193847	0.590135	0.088210
O27	O	1.443847	0.840135	0.338210
O28	O	1.693847	1.090135	0.588210
O29	O	0.867028	0.161607	-0.263408
O30	O	1.117028	0.411607	-0.013408
O31	O	1.367028	0.661607	0.236592
O32	O	1.617028	0.911607	0.486592
O33	O	1.045453	0.340108	-0.263375
O34	O	1.295453	0.590108	-0.013375
O35	O	1.545453	0.840108	0.236625
O36	O	1.795453	1.090108	0.486625
O37	O	0.944013	0.161587	-0.340378
O38	O	1.194013	0.411587	-0.090378
O39	O	1.444013	0.661587	0.159622
O40	O	1.694013	0.911587	0.409622
O41	O	0.866933	0.263188	-0.161805
O42	O	1.116933	0.513188	0.088195
O43	O	1.366933	0.763188	0.338195
O44	O	1.616933	1.013188	0.588195
O45	O	0.765392	0.263199	-0.263367
O46	O	1.015392	0.513199	-0.013367
O47	O	1.265392	0.763199	0.236633
O48	O	1.515392	1.013199	0.486633
O49	O	0.866975	0.340127	-0.441889
O50	O	1.116975	0.590127	-0.191889
O51	O	1.366975	0.840127	0.058111
O52	O	1.616975	1.090127	0.308111
O53	O	0.765370	0.340154	-0.340305
O54	O	1.015370	0.590154	-0.090305
O55	O	1.265370	0.840154	0.159695
O56	O	1.515370	1.090154	0.409695
O57	O	0.943983	0.263152	-0.441921
O58	O	1.193983	0.513152	-0.191921
O59	O	1.443983	0.763152	0.058079
O60	O	1.693983	1.013152	0.308079
O61	O	0.943817	0.441700	-0.263333
O62	O	1.193817	0.691700	-0.013333
O63	O	1.443817	0.941700	0.236667
O64	O	1.693817	1.191700	0.486667
O65	O	0.866881	0.441709	-0.340286
O66	O	1.116881	0.691709	-0.090286
O67	O	1.366881	0.941709	0.159714
O68	O	1.616881	1.191709	0.409714
C69	C	0.742647	0.301681	-0.301834
C70	C	0.992647	0.551681	-0.051834
C71	C	1.242647	0.801681	0.198166
C72	C	1.492647	1.051681	0.448166
C73	C	0.673006	0.301709	-0.301841
C74	C	0.923006	0.551709	-0.051841
C75	C	1.173006	0.801709	0.198159
C76	C	1.423006	1.051709	0.448159
C77	C	0.905352	0.464438	-0.301816
C78	C	1.155352	0.714438	-0.051816
C79	C	1.405352	0.964438	0.198184
C80	C	1.655352	1.214438	0.448184
C81	C	0.905374	0.534080	-0.301822
C82	C	1.155374	0.784080	-0.051822
C83	C	1.405374	1.034080	0.198178
C84	C	1.655374	1.284080	0.448178
C85	C	0.905487	0.301638	-0.465275
C86	C	1.155487	0.551638	-0.215275
C87	C	1.405487	0.801638	0.034725
C88	C	1.655487	1.051638	0.284725
C89	C	0.905509	0.301633	-0.534916
C90	C	1.155509	0.551633	-0.284916
C91	C	1.405509	0.801633	-0.034916
C92	C	1.655509	1.051633	0.215084
C93	C	0.640352	0.261698	-0.341988
C94	C	0.890352	0.511698	-0.091988
C95	C	1.140352	0.761698	0.158012
C96	C	1.390352	1.011698	0.408012
C97	C	0.574917	0.261682	-0.341991
C98	C	0.824917	0.511682	-0.091991
C99	C	1.074917	0.761682	0.158009
C100	C	1.324917	1.011682	0.408009
C101	C	0.542137	0.301687	-0.301852
C102	C	0.792137	0.551687	-0.051852
C103	C	1.042137	0.801687	0.198148
C104	C	1.292137	1.051687	0.448148
C105	C	0.574799	0.341701	-0.261697
C106	C	0.824799	0.591701	-0.011697
C107	C	1.074799	0.841701	0.238303
C108	C	1.324799	1.091701	0.488303
C109	C	0.640233	0.341712	-0.261692
C110	C	0.890233	0.591712	-0.011692
C111	C	1.140233	0.841712	0.238308
C112	C	1.390233	1.091712	0.488308
C113	C	0.438413	0.358112	-0.296812
C114	C	0.688413	0.608112	-0.046812
C115	C	0.938413	0.858112	0.203188
C116	C	1.188413	1.108112	0.453188
C117	C	0.372980	0.358102	-0.296822
C118	C	0.622980	0.608102	-0.046822
C119	C	0.872980	0.858102	0.203178
C120	C	1.122980	1.108102	0.453178
C121	C	0.340317	0.301653	-0.301866
C122	C	0.590317	0.551653	-0.051866
C123	C	0.840317	0.801653	0.198134
C124	C	1.090317	1.051653	0.448134
C125	C	0.373094	0.245212	-0.306914
C126	C	0.623094	0.495212	-0.056914
C127	C	0.873094	0.745212	0.193086
C128	C	1.123094	0.995212	0.443086
C129	C	0.438528	0.245223	-0.306908
C130	C	0.688528	0.495223	-0.056908
C131	C	0.938528	0.745223	0.193092
C132	C	1.188528	0.995223	0.443092
C133	C	0.471185	0.301679	-0.301854
C134	C	0.721185	0.551679	-0.051854
C135	C	0.971185	0.801679	0.198146
C136	C	1.221185	1.051679	0.448146
C137	C	0.236711	0.261620	-0.342018
C138	C	0.486711	0.511620	-0.092018
C139	C	0.736711	0.761620	0.157982
C140	C	0.986711	1.011620	0.407982
C141	C	0.171274	0.261603	-0.342016
C142	C	0.421274	0.511603	-0.092016
C143	C	0.671274	0.761603	0.157984
C144	C	0.921274	1.011603	0.407984
C145	C	0.171157	0.341627	-0.261726
C146	C	0.421157	0.591627	-0.011726
C147	C	0.671157	0.841627	0.238274
C148	C	0.921157	1.091627	0.488274
C149	C	0.236593	0.341640	-0.261725
C150	C	0.486593	0.591640	-0.011725
C151	C	0.736593	0.841640	0.238275
C152	C	0.986593	1.091640	0.488275
C153	C	0.269365	0.301637	-0.301874
C154	C	0.519365	0.551637	-0.051874
C155	C	0.769365	0.801637	0.198126
C156	C	1.019365	1.051637	0.448126
C157	C	1.068858	0.301621	-0.301869
C158	C	1.318858	0.551621	-0.051869
C159	C	1.568858	0.801621	0.198131
C160	C	1.818858	1.051621	0.448131
C161	C	1.138499	0.301608	-0.301877
C162	C	1.388499	0.551608	-0.051877
C163	C	1.638499	0.801608	0.198123
C164	C	1.888499	1.051608	0.448123
C165	C	0.905535	0.138227	-0.301900
C166	C	1.155535	0.388227	-0.051900
C167	C	1.405535	0.638227	0.198100
C168	C	1.655535	0.888227	0.448100
C169	C	0.905577	0.068586	-0.301921
C170	C	1.155577	0.318586	-0.051921
C171	C	1.405577	0.568586	0.198079
C172	C	1.655577	0.818586	0.448079
C173	C	0.945470	0.566768	-0.261794
C174	C	1.195470	0.816768	-0.011794
C175	C	1.445470	1.066768	0.238206
C176	C	1.695470	1.316768	0.488206
C177	C	0.945499	0.632203	-0.261808
C178	C	1.195499	0.882203	-0.011808
C179	C	1.445499	1.132203	0.238192
C180	C	1.695499	1.382203	0.488192
C181	C	0.905421	0.664948	-0.301844
C182	C	1.155421	0.914948	-0.051844
C183	C	1.405421	1.164948	0.198156
C184	C	1.655421	1.414948	0.448156
C185	C	0.865322	0.632252	-0.341880
C186	C	1.115322	0.882252	-0.091880
C187	C	1.365322	1.132252	0.158120
C188	C	1.615322	1.382252	0.408120
C189	C	0.865298	0.566818	-0.341869
C190	C	1.115298	0.816818	-0.091869
C191	C	1.365298	1.066818	0.158131
C192	C	1.615298	1.316818	0.408131
C193	C	0.849006	0.768678	-0.306754
C194	C	1.099006	1.018678	-0.056754
C195	C	1.349006	1.268678	0.193246
C196	C	1.599006	1.518678	0.443246
C197	C	0.849029	0.834111	-0.306760
C198	C	1.099029	1.084111	-0.056760
C199	C	1.349029	1.334111	0.193240
C200	C	1.599029	1.584111	0.443240
C201	C	0.905494	0.866769	-0.301881
C202	C	1.155494	1.116769	-0.051881
C203	C	1.405494	1.366769	0.198119
C204	C	1.655494	1.616769	0.448119
C205	C	0.961938	0.833986	-0.296982
C206	C	1.211938	1.083986	-0.046982
C207	C	1.461938	1.333986	0.203018
C208	C	1.711938	1.583986	0.453018
C209	C	0.961915	0.768551	-0.296971
C210	C	1.211915	1.018551	-0.046971
C211	C	1.461915	1.268551	0.203029
C212	C	1.711915	1.518551	0.453029
C213	C	0.905442	0.735900	-0.301860
C214	C	1.155442	0.985900	-0.051860
C215	C	1.405442	1.235900	0.198140
C216	C	1.655442	1.485900	0.448140
C217	C	0.945625	0.970409	-0.261866
C218	C	1.195625	1.220409	-0.011866
C219	C	1.445625	1.470409	0.238134
C220	C	1.695625	1.720409	0.488134
C221	C	0.945655	1.035846	-0.261884
C222	C	1.195655	1.285846	-0.011884
C223	C	1.445655	1.535846	0.238116
C224	C	1.695655	1.785846	0.488116
C225	C	0.865473	1.035893	-0.341952
C226	C	1.115473	1.285893	-0.091952
C227	C	1.365473	1.535893	0.158048
C228	C	1.615473	1.785893	0.408048
C229	C	0.865448	0.970458	-0.341937
C230	C	1.115448	1.220458	-0.091937
C231	C	1.365448	1.470458	0.158063
C232	C	1.615448	1.720458	0.408063
C233	C	0.905523	0.937720	-0.301890
C234	C	1.155523	1.187720	-0.051890
C235	C	1.405523	1.437720	0.198110
C236	C	1.655523	1.687720	0.448110
C237	C	0.945605	0.261550	-0.567646
C238	C	1.195605	0.511550	-0.317646
C239	C	1.445605	0.761550	-0.067646
C240	C	1.695605	1.011550	0.182354
C241	C	0.945604	0.261523	-0.633082
C242	C	1.195604	0.511523	-0.383082
C243	C	1.445604	0.761523	-0.133082
C244	C	1.695604	1.011523	0.116918
C245	C	0.905514	0.301590	-0.665784
C246	C	1.155514	0.551590	-0.415784
C247	C	1.405514	0.801590	-0.165784
C248	C	1.655514	1.051590	0.084216
C249	C	0.865410	0.341675	-0.633046
C250	C	1.115410	0.591675	-0.383046
C251	C	1.365410	0.841675	-0.133046
C252	C	1.615410	1.091675	0.116954
C253	C	0.865407	0.341697	-0.567612
C254	C	1.115407	0.591697	-0.317612
C255	C	1.365407	0.841697	-0.067612
C256	C	1.615407	1.091697	0.182388
C257	C	0.900538	0.358007	-0.769447
C258	C	1.150538	0.608007	-0.519447
C259	C	1.400538	0.858007	-0.269447
C260	C	1.650538	1.108007	-0.019447
C261	C	0.900545	0.357986	-0.834880
C262	C	1.150545	0.607986	-0.584880
C263	C	1.400545	0.857986	-0.334880
C264	C	1.650545	1.107986	-0.084880
C265	C	0.905518	0.301524	-0.867605
C266	C	1.155518	0.551524	-0.617605
C267	C	1.405518	0.801524	-0.367605
C268	C	1.655518	1.051524	-0.117605
C269	C	0.910497	0.245080	-0.834889
C270	C	1.160497	0.495080	-0.584889
C271	C	1.410497	0.745080	-0.334889
C272	C	1.660497	0.995080	-0.084889
C273	C	0.910494	0.245101	-0.769455
C274	C	1.160494	0.495101	-0.519455
C275	C	1.410494	0.745101	-0.269455
C276	C	1.660494	0.995101	-0.019455
C277	C	0.905512	0.301571	-0.736737
C278	C	1.155512	0.551571	-0.486737
C279	C	1.405512	0.801571	-0.236737
C280	C	1.655512	1.051571	0.013263
C281	C	0.945615	0.261409	-0.971288
C282	C	1.195615	0.511409	-0.721288
C283	C	1.445615	0.761409	-0.471288
C284	C	1.695615	1.011409	-0.221288
C285	C	0.945610	0.261381	-1.036725
C286	C	1.195610	0.511381	-0.786725
C287	C	1.445610	0.761381	-0.536725
C288	C	1.695610	1.011381	-0.286725
C289	C	0.865419	0.341538	-1.036688
C290	C	1.115419	0.591538	-0.786688
C291	C	1.365419	0.841538	-0.536688
C292	C	1.615419	1.091538	-0.286688
C293	C	0.865421	0.341561	-0.971252
C294	C	1.115421	0.591561	-0.721252
C295	C	1.365421	0.841561	-0.471252
C296	C	1.615421	1.091561	-0.221252
C297	C	0.905522	0.301497	-0.938556
C298	C	1.155522	0.551497	-0.688556
C299	C	1.405522	0.801497	-0.438556
C300	C	1.655522	1.051497	-0.188556
C301	C	0.905419	0.301618	-0.139064
C302	C	1.155419	0.551618	0.110936
C303	C	1.405419	0.801618	0.360936
C304	C	1.655419	1.051618	0.610936
C305	C	0.905518	0.301447	-0.069423
C306	C	1.155518	0.551447	0.180577
C307	C	1.405518	0.801447	0.430577
C308	C	1.655518	1.051447	0.680577
H309	H	0.667032	0.229125	-0.374681
H310	H	0.917032	0.479125	-0.124681
H311	H	1.167032	0.729125	0.125319
H312	H	1.417032	0.979125	0.375319
F313	F	0.822621	0.532028	-0.384474
F314	F	1.072621	0.782028	-0.134474
F315	F	1.322621	1.032028	0.115526
F316	F	1.572621	1.282028	0.365526
H317	H	0.144689	0.229017	-0.374708
H318	H	0.394689	0.479017	-0.124708
H319	H	0.644689	0.729017	0.125292
H320	H	0.894689	0.979017	0.375292
H321	H	0.832795	0.943842	-0.374529
H322	H	1.082795	1.193842	-0.124529
H323	H	1.332795	1.443842	0.125471
H324	H	1.582795	1.693842	0.375471
F325	F	0.988295	0.218724	-1.071559
F326	F	1.238295	0.468724	-0.821559
F327	F	1.488295	0.718724	-0.571559
F328	F	1.738295	0.968724	-0.321559
F329	F	0.136275	0.384201	-0.219004
F330	F	0.386275	0.634201	0.030996
F331	F	0.636275	0.884201	0.280996
F332	F	0.886275	1.134201	0.530996
F333	F	0.895251	0.418059	-0.869692
F334	F	1.145251	0.668059	-0.619692
F335	F	1.395251	0.918059	-0.369692
F336	F	1.645251	1.168059	-0.119692
F337	F	0.271346	0.384223	-0.218992
F338	F	0.521346	0.634223	0.031008
F339	F	0.771346	0.884223	0.281008
F340	F	1.021346	1.134223	0.531008
F341	F	0.674986	0.384297	-0.218958
F342	F	0.924986	0.634297	0.031042
F343	F	1.174986	0.884297	0.281042
F344	F	1.424986	1.134297	0.531042
F345	F	0.473410	0.185156	-0.312277
F346	F	0.723410	0.435156	-0.062277
F347	F	0.973410	0.685156	0.187723
F348	F	1.223410	0.935156	0.437723
F349	F	0.271592	0.219043	-0.384744
F350	F	0.521592	0.469043	-0.134744
F351	F	0.771592	0.719043	0.115256
F352	F	1.021592	0.969043	0.365256
H353	H	0.832774	0.374204	-0.944603
H354	H	1.082774	0.624204	-0.694603
H355	H	1.332774	0.874204	-0.444603
H356	H	1.582774	1.124204	-0.194603
H357	H	0.978258	0.228926	-0.541029
H358	H	1.228258	0.478926	-0.291029
H359	H	1.478258	0.728926	-0.041029
H360	H	1.728258	0.978926	0.208971
F361	F	1.022037	0.868737	-0.291783
F362	F	1.272037	1.118737	-0.041783
F363	F	1.522037	1.368737	0.208217
F364	F	1.772037	1.618737	0.458217
H365	H	0.978103	0.540114	-0.229188
H366	H	1.228103	0.790114	0.020812
H367	H	1.478103	1.040114	0.270812
H368	H	1.728103	1.290114	0.520812
F369	F	0.895259	0.418107	-0.734624
F370	F	1.145259	0.668107	-0.484624
F371	F	1.395259	0.918107	-0.234624
F372	F	1.645259	1.168107	0.015376
F373	F	0.473170	0.418196	-0.291435
F374	F	0.723170	0.668196	-0.041435
F375	F	0.973170	0.918196	0.208565
F376	F	1.223170	1.168196	0.458565
F377	F	0.540158	0.219094	-0.384722
F378	F	0.790158	0.469094	-0.134722
F379	F	1.040158	0.719094	0.115278
F380	F	1.290158	0.969094	0.365278
F381	F	0.822741	0.384315	-0.667851
F382	F	1.072741	0.634315	-0.417851
F383	F	1.322741	0.884315	-0.167851
F384	F	1.572741	1.134315	0.082149
F385	F	0.338102	0.418171	-0.291459
F386	F	0.588102	0.668171	-0.041459
F387	F	0.838102	0.918171	0.208541
F388	F	1.088102	1.168171	0.458541
H389	H	0.346501	0.199246	-0.311021
H390	H	0.596501	0.449246	-0.061021
H391	H	0.846501	0.699246	0.188979
H392	H	1.096501	0.949246	0.438979
H393	H	0.548106	0.374273	-0.229016
H394	H	0.798106	0.624273	0.020984
H395	H	1.048106	0.874273	0.270984
H396	H	1.298106	1.124273	0.520984
H397	H	0.978152	0.658823	-0.229213
H398	H	1.228152	0.908823	0.020787
H399	H	1.478152	1.158823	0.270787
H400	H	1.728152	1.408823	0.520787
H401	H	0.832753	0.374336	-0.540963
H402	H	1.082753	0.624336	-0.290963
H403	H	1.332753	0.874336	-0.040963
H404	H	1.582753	1.124336	0.209037
H405	H	1.007873	0.741861	-0.292984
H406	H	1.257873	0.991861	-0.042984
H407	H	1.507873	1.241861	0.207016
H408	H	1.757873	1.491861	0.457016
H409	H	0.978259	0.943753	-0.229259
H410	H	1.228259	1.193753	0.020741
H411	H	1.478259	1.443753	0.270741
H412	H	1.728259	1.693753	0.520741
F413	F	0.822746	0.384176	-1.071488
F414	F	1.072746	0.634176	-0.821488
F415	F	1.322746	0.884176	-0.571488
F416	F	1.572746	1.134176	-0.321488
H417	H	0.978310	1.062459	-0.229290
H418	H	1.228310	1.312459	0.020710
H419	H	1.478310	1.562459	0.270710
H420	H	1.728310	1.812459	0.520710
F421	F	0.822822	1.070739	-0.384565
F422	F	1.072822	1.320739	-0.134565
F423	F	1.322822	1.570739	0.115435
F424	F	1.572822	1.820739	0.365435
F425	F	0.788956	0.868995	-0.311972
F426	F	1.038956	1.118995	-0.061972
F427	F	1.288956	1.368995	0.188028
F428	F	1.538956	1.618995	0.438028
F429	F	0.915792	0.184983	-0.869712
F430	F	1.165792	0.434983	-0.619712
F431	F	1.415792	0.684983	-0.369712
F432	F	1.665792	0.934983	-0.119712
F433	F	0.788904	0.733927	-0.311948
F434	F	1.038904	0.983927	-0.061948
F435	F	1.288904	1.233927	0.188052
F436	F	1.538904	1.483927	0.438052
F437	F	0.822670	0.667102	-0.384490
F438	F	1.072670	0.917102	-0.134490
F439	F	1.322670	1.167102	0.115510
F440	F	1.572670	1.417102	0.365510
H441	H	0.978254	0.228880	-0.659736
H442	H	1.228254	0.478880	-0.409736
H443	H	1.478254	0.728880	-0.159736
H444	H	1.728254	0.978880	0.090264
F445	F	0.915790	0.185031	-0.734639
F446	F	1.165790	0.435031	-0.484639
F447	F	1.415790	0.685031	-0.234639
F448	F	1.665790	0.935031	0.015361
H449	H	0.978265	0.228783	-0.944666
H450	H	1.228265	0.478783	-0.694666
H451	H	1.478265	0.728783	-0.444666
H452	H	1.728265	0.978783	-0.194666
