data_functionalizedCrystal
_audit_creation_method	'MofGen! by Chris Wilmer'
_symmetry_space_group_name_H-M	'P1'
_symmetry_Int_Tables_number	1
_symmetry_cell_setting	triclinic
loop_
_symmetry_equiv_pos_as_xyz
  x,y,z
_cell_length_a	12.759401
_cell_length_b	21.295417
_cell_length_c	12.759393
_cell_angle_alpha	89.961905
_cell_angle_beta	89.980404
_cell_angle_gamma	90.030784
loop_
_atom_site_label
_atom_site_type_symbol
_atom_site_fract_x
_atom_site_fract_y
_atom_site_fract_z
Zn1	Zn	1.606151	-0.250574	-0.593927
Zn2	Zn	2.106151	0.249426	-0.093927
Zn3	Zn	1.605994	-0.355856	-0.418224
Zn4	Zn	2.105994	0.144144	0.081776
Zn5	Zn	1.430450	-0.250605	-0.418266
Zn6	Zn	1.930450	0.249395	0.081734
Zn7	Zn	1.430393	-0.355810	-0.593865
Zn8	Zn	1.930393	0.144190	-0.093865
O9	O	1.518247	-0.303211	-0.506071
O10	O	2.018247	0.196789	-0.006071
O11	O	1.753151	-0.264546	-0.570628
O12	O	2.253151	0.235454	-0.070628
O13	O	1.582665	-0.341927	-0.271208
O14	O	2.082665	0.158073	0.228792
O15	O	1.453846	-0.162512	-0.441612
O16	O	1.953846	0.337488	0.058388
O17	O	1.753035	-0.341897	-0.441539
O18	O	2.253035	0.158103	0.058461
O19	O	1.582933	-0.162489	-0.570669
O20	O	2.082933	0.337511	-0.070669
O21	O	1.453694	-0.264599	-0.271239
O22	O	1.953694	0.235401	0.228761
O23	O	1.283421	-0.264555	-0.441552
O24	O	1.783421	0.235445	0.058448
O25	O	1.453750	-0.341818	-0.740894
O26	O	1.953750	0.158182	-0.240894
O27	O	1.283380	-0.341848	-0.570563
O28	O	1.783380	0.158152	-0.070563
O29	O	1.582878	-0.264501	-0.740940
O30	O	2.082878	0.235499	-0.240940
O31	O	1.582610	-0.443939	-0.441479
O32	O	2.082610	0.056061	0.058521
O33	O	1.453597	-0.443905	-0.570522
O34	O	1.953597	0.056095	-0.070522
C35	C	1.245279	-0.303200	-0.506056
C36	C	1.745279	0.196800	-0.006056
C37	C	1.128503	-0.303210	-0.506075
C38	C	1.628503	0.196790	-0.006075
C39	C	0.963916	-0.343528	-0.573153
C40	C	1.463916	0.156472	-0.073153
C41	C	1.073640	-0.343521	-0.573142
C42	C	1.573640	0.156479	-0.073142
C43	C	1.073636	-0.262909	-0.439007
C44	C	1.573636	0.237091	0.060993
C45	C	0.963914	-0.262920	-0.439013
C46	C	1.463914	0.237080	0.060987
C47	C	1.518109	-0.466763	-0.506012
C48	C	2.018109	0.033237	-0.006012
C49	C	1.518146	-0.536731	-0.506023
C50	C	2.018146	-0.036731	-0.006023
C51	C	1.585383	-0.569595	-0.438899
C52	C	2.085383	-0.069595	0.061101
C53	C	1.585432	-0.635337	-0.438922
C54	C	2.085432	-0.135337	0.061078
C55	C	1.518226	-0.668214	-0.506059
C56	C	2.018226	-0.168214	-0.006059
C57	C	1.450985	-0.635342	-0.573196
C58	C	1.950985	-0.135342	-0.073196
C59	C	1.450945	-0.569601	-0.573178
C60	C	1.950945	-0.069601	-0.073178
N61	N	1.426319	-0.771479	-0.514063
N62	N	1.926319	-0.271479	-0.014063
N63	N	1.426360	-0.833931	-0.514074
N64	N	1.926360	-0.333931	-0.014074
C65	C	1.518344	-0.866288	-0.506119
C66	C	2.018344	-0.366288	-0.006119
N67	N	1.610287	-0.833835	-0.498132
N68	N	2.110287	-0.333835	0.001868
N69	N	1.610245	-0.771378	-0.498115
N70	N	2.110245	-0.271378	0.001885
C71	C	1.518262	-0.739499	-0.506086
C72	C	2.018262	-0.239499	-0.006086
C73	C	1.585639	-0.970437	-0.439017
C74	C	2.085639	-0.470437	0.060983
C75	C	1.585690	-1.036181	-0.439048
C76	C	2.085690	-0.536181	0.060952
C77	C	1.451233	-1.036185	-0.573316
C78	C	1.951233	-0.536185	-0.073316
C79	C	1.451192	-0.970442	-0.573291
C80	C	1.951192	-0.470442	-0.073291
C81	C	1.518393	-0.937573	-0.506136
C82	C	2.018393	-0.437573	-0.006136
C83	C	1.792280	-0.303223	-0.506086
C84	C	2.292280	0.196777	-0.006086
C85	C	1.909057	-0.303228	-0.506092
C86	C	2.409057	0.196772	-0.006092
C87	C	1.518325	-0.303151	-0.780104
C88	C	2.018325	0.196849	-0.280104
C89	C	1.518359	-0.303125	-0.896881
C90	C	2.018359	0.196875	-0.396881
C91	C	1.518414	-0.139021	-0.506152
C92	C	2.018414	0.360979	-0.006152
C93	C	1.518485	-0.069053	-0.506187
C94	C	2.018485	0.430947	-0.006187
C95	C	1.585601	-0.262860	-0.951768
C96	C	2.085601	0.237140	-0.451768
C97	C	1.585619	-0.262833	-1.061492
C98	C	2.085619	0.237167	-0.561492
C99	C	1.451149	-0.343341	-1.061432
C100	C	1.951149	0.156659	-0.561432
C101	C	1.451127	-0.343365	-0.951710
C102	C	1.951127	0.156635	-0.451710
C103	C	1.518229	-0.303226	-0.233103
C104	C	2.018229	0.196774	0.266897
C105	C	1.518399	-0.303075	-0.116327
C106	C	2.018399	0.196925	0.383673
H107	H	1.640105	-0.542834	-0.384220
H108	H	2.140105	-0.042834	0.115780
N109	N	1.378655	-0.386749	-1.120573
N110	N	1.878655	0.113251	-0.620573
H111	H	1.336053	-0.412260	-1.069150
H112	H	1.836053	0.087740	-0.569150
H113	H	1.330070	-0.361115	-1.166108
H114	H	1.830070	0.138885	-0.666108
H115	H	1.640373	-0.230044	-1.106177
H116	H	2.140373	0.269956	-0.606177
N117	N	1.658115	-0.219461	-0.892634
N118	N	2.158115	0.280539	-0.392634
H119	H	1.706769	-0.245060	-0.847114
H120	H	2.206769	0.254940	-0.347114
H121	H	1.700643	-0.193961	-0.944131
H122	H	2.200643	0.306039	-0.444131
N123	N	1.378577	-0.386783	-0.892500
N124	N	1.878577	0.113217	-0.392500
H125	H	1.335989	-0.412271	-0.943882
H126	H	1.835989	0.087729	-0.443882
H127	H	1.421285	-0.415929	-0.846955
H128	H	1.921285	0.084071	-0.346955
H129	H	1.118301	-0.376338	-0.627748
H130	H	1.618301	0.123662	-0.127748
N131	N	0.904745	-0.387004	-0.645493
N132	N	1.404745	0.112996	-0.145493
H133	H	0.956152	-0.412534	-0.687971
H134	H	1.456152	0.087466	-0.187971
H135	H	0.859186	-0.416108	-0.602636
H136	H	1.359186	0.083892	-0.102636
N137	N	1.132804	-0.219433	-0.366663
N138	N	1.632804	0.280567	0.133337
H139	H	1.210637	-0.225540	-0.376836
H140	H	1.710637	0.274460	0.123164
H141	H	1.113657	-0.174490	-0.383156
H142	H	1.613657	0.325510	0.116844
H143	H	0.919247	-0.230102	-0.384399
H144	H	1.419247	0.269898	0.115601
N145	N	1.657945	-0.670800	-0.366521
N146	N	2.157945	-0.170800	0.133479
H147	H	1.733001	-0.659316	-0.382886
H148	H	2.233001	-0.159316	0.117114
H149	H	1.641561	-0.659394	-0.291467
H150	H	2.141561	-0.159394	0.208533
N151	N	1.378500	-0.670797	-0.645611
N152	N	1.878500	-0.170797	-0.145611
H153	H	1.388724	-0.717431	-0.635435
H154	H	1.888724	-0.217431	-0.135435
H155	H	1.303467	-0.659353	-0.629192
H156	H	1.803467	-0.159353	-0.129192
H157	H	1.396517	-1.062952	-0.627984
H158	H	1.896517	-0.562952	-0.127984
N159	N	1.378421	-0.534151	-0.645576
N160	N	1.878421	-0.034151	-0.145576
H161	H	1.335853	-0.564951	-0.688115
H162	H	1.835853	-0.064951	-0.188115
H163	H	1.329805	-0.506924	-0.602756
H164	H	1.829805	-0.006924	-0.102756
H165	H	1.640363	-0.943674	-0.384339
H166	H	2.140363	-0.443674	0.115661
N167	N	1.658210	-1.071628	-0.366640
N168	N	2.158210	-0.571628	0.133360
H169	H	1.648043	-1.118263	-0.376843
H170	H	2.148043	-0.618263	0.123157
H171	H	1.733230	-1.060086	-0.383044
H172	H	2.233230	-0.560086	0.116956
H173	H	1.396437	-0.943683	-0.627945
H174	H	1.896437	-0.443683	-0.127945
