data_functionalizedCrystal
_audit_creation_method	'MofGen! by Chris Wilmer'
_symmetry_space_group_name_H-M	'P1'
_symmetry_Int_Tables_number	1
_symmetry_cell_setting	triclinic
loop_
_symmetry_equiv_pos_as_xyz
  x,y,z
_cell_length_a	10.686220
_cell_length_b	10.686285
_cell_length_c	10.686551
_cell_angle_alpha	99.084519
_cell_angle_beta	89.691918
_cell_angle_gamma	90.345431
loop_
_atom_site_label
_atom_site_type_symbol
_atom_site_fract_x
_atom_site_fract_y
_atom_site_fract_z
Zn1	Zn	1.994012	-0.307898	0.537149
Zn2	Zn	2.494012	0.192102	1.037149
Zn3	Zn	1.993911	-0.536485	0.308653
Zn4	Zn	2.493911	-0.036485	0.808653
Zn5	Zn	1.770410	-0.340205	0.340818
Zn6	Zn	2.270410	0.159795	0.840818
Zn7	Zn	1.800161	-0.533926	0.534641
Zn8	Zn	2.300161	-0.033926	1.034641
O9	O	1.889623	-0.429629	0.430315
O10	O	2.389623	0.070371	0.930315
O11	O	2.168662	-0.325771	0.494427
O12	O	2.668662	0.174229	0.994427
O13	O	1.951770	-0.525040	0.136178
O14	O	2.451770	-0.025040	0.636178
O15	O	1.787663	-0.159182	0.381372
O16	O	2.287663	0.340818	0.881372
O17	O	2.168588	-0.493713	0.326552
O18	O	2.668588	0.006287	0.826552
O19	O	1.951942	-0.135446	0.525615
O20	O	2.451942	0.364554	1.025615
O21	O	1.787565	-0.380834	0.159810
O22	O	2.287565	0.119166	0.659810
O23	O	1.599693	-0.378352	0.378940
O24	O	2.099693	0.121648	0.878940
O25	O	1.838368	-0.489351	0.711715
O26	O	2.338368	0.010649	1.211715
O27	O	1.621551	-0.520678	0.521341
O28	O	2.121551	-0.020678	1.021341
O29	O	1.980790	-0.323289	0.713557
O30	O	2.480790	0.176711	1.213557
O31	O	1.980618	-0.712883	0.324121
O32	O	2.480618	-0.212883	0.824121
O33	O	1.838270	-0.711003	0.490153
O34	O	2.338270	-0.211003	0.990153
C35	C	1.565334	-0.452744	0.453360
C36	C	2.065334	0.047256	0.953360
C37	C	1.426605	-0.462661	0.463246
C38	C	1.926605	0.037339	0.963246
C39	C	1.912697	-0.757764	0.403399
C40	C	2.412697	-0.257764	0.903399
C41	C	1.922686	-0.898130	0.391919
C42	C	2.422686	-0.398130	0.891919
C43	C	2.215179	-0.406424	0.407181
C44	C	2.715179	0.093576	0.907181
C45	C	2.353912	-0.396535	0.397323
C46	C	2.853912	0.103465	0.897323
C47	C	1.912909	-0.402431	0.759745
C48	C	2.412909	0.097569	1.259745
C49	C	1.922832	-0.390841	0.900128
C50	C	2.422832	0.109159	1.400128
C51	C	1.866495	-0.100207	0.457361
C52	C	2.366495	0.399793	0.957361
C53	C	1.856639	0.040173	0.468887
C54	C	2.356639	0.540173	0.968887
C55	C	1.866493	-0.456624	0.102170
C56	C	2.366493	0.043376	0.602170
C57	C	1.856787	-0.467841	-0.038201
C58	C	2.356787	0.032159	0.461799
H59	H	1.382704	-0.526872	0.527245
H60	H	1.882704	-0.026872	1.027245
N61	N	1.771610	-0.887565	0.567811
N62	N	2.271610	-0.387565	1.067811
H63	H	1.776290	-0.794172	0.562269
H64	H	2.276290	-0.294172	1.062269
H65	H	1.798950	-0.901677	0.654800
H66	H	2.298950	-0.401677	1.154800
N67	N	1.771835	-0.566919	0.889489
N68	N	2.271835	-0.066919	1.389489
H69	H	1.776550	-0.561435	0.796090
H70	H	2.276550	-0.061435	1.296090
H71	H	1.682919	-0.551740	0.920429
H72	H	2.182919	-0.051740	1.420429
N73	N	2.007696	-0.970413	0.292975
N74	N	2.507696	-0.470413	0.792975
H75	H	2.072969	-1.016714	0.335818
H76	H	2.572969	-0.516714	0.835818
H77	H	2.050264	-0.909231	0.243271
H78	H	2.550264	-0.409231	0.743271
N79	N	2.007800	-0.291761	0.972432
N80	N	2.507800	0.208239	1.472432
H81	H	2.073074	-0.334494	1.018838
H82	H	2.573074	0.165506	1.518838
H83	H	1.956703	-0.232408	1.035506
H84	H	2.456703	0.267592	1.535506
N85	N	1.412044	-0.311495	0.312537
N86	N	1.912044	0.188505	0.812537
H87	H	1.506230	-0.316225	0.317256
H88	H	2.006230	0.183775	0.817256
H89	H	1.384371	-0.221298	0.341339
H90	H	1.884371	0.278702	0.841339
