data_functionalizedCrystal
_audit_creation_method	'MofGen! by Chris Wilmer'
_symmetry_space_group_name_H-M	'P1'
_symmetry_Int_Tables_number	1
_symmetry_cell_setting	triclinic
loop_
_symmetry_equiv_pos_as_xyz
  x,y,z
_cell_length_a	8.559649
_cell_length_b	13.596369
_cell_length_c	8.559649
_cell_angle_alpha	89.995606
_cell_angle_beta	110.221336
_cell_angle_gamma	90.005741
loop_
_atom_site_label
_atom_site_type_symbol
_atom_site_fract_x
_atom_site_fract_y
_atom_site_fract_z
O1	O	2.126883	0.081788	0.055032
O2	O	2.626883	0.581788	0.555032
O3	O	1.651398	0.081789	-0.028749
O4	O	2.151398	0.581789	0.471251
O5	O	1.931031	0.081787	0.250884
O6	O	2.431031	0.581787	0.750884
O7	O	1.847250	0.081790	-0.224601
O8	O	2.347250	0.581790	0.275399
O9	O	1.931008	-0.081795	0.250894
O10	O	2.431008	0.418205	0.750894
O11	O	1.651375	-0.081794	-0.028739
O12	O	2.151375	0.418206	0.471261
O13	O	2.126860	-0.081795	0.055043
O14	O	2.626860	0.418205	0.555043
Zn15	Zn	1.889113	-0.107767	0.013154
Zn16	Zn	2.389113	0.392233	0.513154
Zn17	Zn	1.889144	0.107761	0.013140
Zn18	Zn	2.389144	0.607761	0.513140
O19	O	1.847227	-0.081793	-0.224590
O20	O	2.347227	0.418207	0.275410
C21	C	1.591077	-0.000002	-0.035093
C22	C	2.091077	0.499998	0.464907
C23	C	1.411378	-0.000002	-0.053992
C24	C	1.911378	0.499998	0.446008
N25	N	1.889105	-0.254859	0.013165
N26	N	2.389105	0.245141	0.513165
C27	C	1.889142	-0.656149	0.013138
C28	C	2.389142	-0.156149	0.513138
C29	C	1.889126	-0.544498	0.013140
C30	C	2.389126	-0.044498	0.513140
C31	C	1.889124	-0.455508	0.013151
C32	C	2.389124	0.044492	0.513151
C33	C	1.889107	-0.343849	0.013154
C34	C	2.389107	0.156151	0.513154
C35	C	2.187180	-0.000001	0.061387
C36	C	2.687180	0.499999	0.561387
C37	C	2.366879	0.000004	0.080286
C38	C	2.866879	0.500004	0.580286
C39	C	1.937369	-0.000002	0.311198
C40	C	2.437369	0.499998	0.811198
C41	C	1.956268	0.000003	0.490898
C42	C	2.456268	0.500003	0.990898
N43	N	1.889167	0.254853	0.013143
N44	N	2.389167	0.754853	0.513143
C45	C	1.840889	-0.000001	-0.284904
C46	C	2.340889	0.499999	0.215096
C47	C	1.821990	-0.000000	-0.464604
C48	C	2.321990	0.500000	0.035396
H49	H	1.466268	0.000004	0.209714
H50	H	1.966268	0.500004	0.709714
H51	H	1.312000	0.000009	-0.183411
H52	H	1.812000	0.500009	0.316589
C53	C	1.628027	0.084106	0.301911
C54	C	2.128027	0.584106	0.801911
C55	C	1.647268	0.000008	0.401251
C56	C	2.147268	0.500008	0.901251
H57	H	1.520155	0.084113	0.219096
H58	H	2.020155	0.584113	0.719096
H59	H	1.709724	0.084100	0.249923
H60	H	2.209724	0.584100	0.749923
H61	H	1.641128	0.141141	0.369345
H62	H	2.141128	0.641141	0.869345
H63	H	1.634179	-0.057027	0.333819
H64	H	2.134179	0.442973	0.833819
H65	H	1.565548	0.000006	0.453242
H66	H	2.065548	0.500006	0.953242
H67	H	2.085696	-0.000005	0.590286
H68	H	2.585696	0.499995	1.090286
