data_functionalizedCrystal
_audit_creation_method	'MofGen! by Chris Wilmer'
_symmetry_space_group_name_H-M	'P1'
_symmetry_Int_Tables_number	1
_symmetry_cell_setting	triclinic
loop_
_symmetry_equiv_pos_as_xyz
  x,y,z
_cell_length_a	19.288864
_cell_length_b	17.038272
_cell_length_c	18.366186
_cell_angle_alpha	89.993834
_cell_angle_beta	89.977106
_cell_angle_gamma	87.123901
loop_
_atom_site_label
_atom_site_type_symbol
_atom_site_fract_x
_atom_site_fract_y
_atom_site_fract_z
O1	O	0.927386	0.097514	-0.060785
O2	O	0.725939	0.110668	-0.060736
O3	O	0.825465	-0.009720	-0.060755
O4	O	0.827860	0.217903	-0.060767
O5	O	0.825447	-0.009726	0.060345
O6	O	0.725921	0.110662	0.060363
O7	O	0.927368	0.097508	0.060314
Zn8	Zn	0.826641	0.104084	0.079566
Zn9	Zn	0.826666	0.104092	-0.079988
O10	O	0.827841	0.217897	0.060333
C11	C	0.700027	0.110242	-0.000180
C12	C	0.622845	0.108972	-0.000161
C13	C	0.582519	0.179610	-0.000176
C14	C	0.509998	0.178417	-0.000184
C15	C	0.477806	0.106580	-0.000191
C16	C	0.518141	0.035932	-0.000172
C17	C	0.590661	0.037128	-0.000157
C18	C	0.366057	0.050111	-0.042639
C19	C	0.293539	0.048918	-0.042659
C20	C	0.254132	0.102889	-0.000235
C21	C	0.287253	0.158066	0.042199
C22	C	0.359772	0.159262	0.042214
C23	C	0.399172	0.105276	-0.000207
C24	C	0.135171	0.172238	-0.000258
C25	C	0.062649	0.171042	-0.000262
C26	C	0.070793	0.028556	-0.000257
C27	C	0.143314	0.029754	-0.000246
C28	C	0.175498	0.101598	-0.000250
C29	C	0.823278	-0.038845	-0.000205
C30	C	0.816781	-0.125616	-0.000203
C31	C	0.876437	-0.175923	-0.000217
C32	C	0.870327	-0.257454	-0.000222
C33	C	0.804561	-0.288677	-0.000209
C34	C	0.744901	-0.238363	-0.000197
C35	C	0.751011	-0.156834	-0.000197
C36	C	0.782976	-0.534365	-0.000213
C37	C	0.776870	-0.615900	-0.000211
C38	C	0.902297	-0.634985	-0.000238
C39	C	0.908402	-0.553454	-0.000234
C40	C	0.848741	-0.503148	-0.000226
C41	C	0.798315	-0.372014	-0.000212
C42	C	0.854988	-0.419812	-0.000228
C43	C	0.953279	0.097934	-0.000244
C44	C	1.030462	0.099205	-0.000268
C45	C	0.830029	0.247021	-0.000219
C46	C	0.836526	0.333793	-0.000225
N47	N	0.826630	0.104079	0.188457
N48	N	0.826682	0.104092	-0.188879
C49	C	0.870717	0.050797	0.226549
C50	C	0.870721	0.050793	0.302777
C51	C	0.826645	0.104085	0.340910
C52	C	0.782550	0.157371	0.302808
C53	C	0.782542	0.157368	0.226582
C54	C	0.821754	0.175309	0.461668
C55	C	0.821767	0.175313	0.537893
C56	C	0.826666	0.104095	0.576017
C57	C	0.831567	0.032869	0.537908
C58	C	0.831559	0.032866	0.461681
C59	C	0.826649	0.104094	0.423564
C60	C	0.870760	0.050805	0.696764
C61	C	0.870759	0.050800	0.772993
C62	C	0.782591	0.157385	0.773023
C63	C	0.782588	0.157383	0.696796
C64	C	0.826676	0.104093	0.658671
H65	H	0.491926	-0.022557	-0.000188
H66	H	0.906623	0.007403	0.333797
H67	H	0.029816	0.228567	-0.000270
H68	H	0.746701	0.200773	0.804071
Br69	Br	0.930590	-0.021524	0.824694
Br70	Br	0.722755	0.229700	0.645093
H71	H	0.398136	0.006159	-0.077190
Br72	Br	0.930590	-0.021518	0.645021
H73	H	0.255169	0.202015	0.076745
H74	H	0.744768	-0.397444	-0.000199
H75	H	0.723313	-0.641318	-0.000188
Br76	Br	0.983261	-0.703261	-0.000249
H77	H	0.817781	0.233309	0.568916
H78	H	0.929990	-0.150509	-0.000224
Br79	Br	0.178854	0.269738	-0.000258
H80	H	0.835556	-0.025124	0.568947
Br81	Br	0.930546	-0.021525	0.174807
Br82	Br	0.815175	0.271973	0.409935
Br83	Br	0.645393	-0.058746	-0.000134
H84	H	0.691353	-0.263791	-0.000190
Br85	Br	0.702007	-0.466103	-0.000207
Br86	Br	0.944239	-0.377437	-0.000253
H87	H	0.918906	-0.298411	-0.000232
H88	H	0.835547	-0.025128	0.430655
H89	H	0.044583	-0.029935	-0.000308
H90	H	0.961955	-0.528039	-0.000245
H91	H	0.702432	-0.115875	-0.000186
H92	H	0.746661	0.200761	0.333860
Br93	Br	0.722704	0.229684	0.174881
H94	H	0.608719	0.238111	-0.000181
H95	H	0.477159	0.235941	-0.000194
Br96	Br	0.198046	-0.066118	-0.000227
H97	H	0.386736	0.204187	0.076768
H98	H	0.266578	0.003993	-0.077214
