data_functionalizedCrystal
_audit_creation_method	'MofGen! by Chris Wilmer'
_symmetry_space_group_name_H-M	'P1'
_symmetry_Int_Tables_number	1
_symmetry_cell_setting	triclinic
loop_
_symmetry_equiv_pos_as_xyz
  x,y,z
_cell_length_a	15.538191
_cell_length_b	12.837942
_cell_length_c	11.295483
_cell_angle_alpha	85.469583
_cell_angle_beta	87.525696
_cell_angle_gamma	108.949483
loop_
_atom_site_label
_atom_site_type_symbol
_atom_site_fract_x
_atom_site_fract_y
_atom_site_fract_z
O1	O	1.226210	0.334745	-0.099039
O2	O	0.962344	0.218961	-0.099038
O3	O	1.088426	0.425554	-0.099031
O4	O	1.100128	0.128152	-0.099046
O5	O	1.077350	0.407429	0.099019
O6	O	0.951268	0.200836	0.099012
O7	O	1.215134	0.316620	0.099011
Cu8	Cu	1.082190	0.257073	0.117095
Cu9	Cu	1.095288	0.278508	-0.117122
O10	O	1.089053	0.110028	0.099004
C11	C	0.922798	0.197785	-0.000013
C12	C	0.821464	0.161701	-0.000012
C13	C	1.078935	0.453624	-0.000007
C14	C	1.067145	0.564266	-0.000009
N15	N	1.072984	0.242001	0.281831
C16	C	0.501494	0.520183	-0.000013
C17	C	0.406274	0.486252	-0.000016
C18	C	0.400964	0.295396	-0.000025
C19	C	0.496185	0.329311	-0.000017
C20	C	0.546443	0.441706	-0.000012
C21	C	0.541134	0.250834	-0.000015
C22	C	0.636347	0.284747	-0.000013
C23	C	0.686611	0.397137	-0.000012
C24	C	0.641656	0.475619	-0.000010
C25	C	0.490875	0.138440	-0.000028
C26	C	0.535823	0.059963	-0.000027
C27	C	0.631037	0.093875	-0.000017
C28	C	0.681302	0.206265	-0.000016
C29	C	0.675993	0.015393	-0.000019
C30	C	0.771206	0.049306	-0.000017
C31	C	0.776515	0.240178	-0.000014
C32	C	1.254680	0.337797	-0.000016
C33	C	1.356016	0.373881	-0.000025
C34	C	1.098544	0.081957	-0.000023
C35	C	1.110334	-0.028683	-0.000029
C36	C	1.208883	0.858557	-0.000034
C37	C	1.197810	0.962516	-0.000036
C38	C	1.033926	0.876147	-0.000023
C39	C	1.045000	0.772188	-0.000021
C40	C	1.132481	0.763398	-0.000025
C41	C	1.143553	0.659435	-0.000014
C42	C	0.979671	0.573069	-0.000010
C43	C	0.968597	0.677029	-0.000012
N44	N	1.104501	0.293591	-0.281858
C45	C	1.170768	0.402149	0.531126
C46	C	1.163817	0.390754	0.655789
C47	C	1.052129	0.207819	0.655823
C48	C	1.059079	0.219214	0.531160
C49	C	1.118401	0.316382	0.468816
C50	C	1.125356	0.327773	0.344150
C51	C	1.013663	0.144842	0.344186
C52	C	1.006713	0.133447	0.468850
H53	H	0.764141	0.424748	-0.000027
H54	H	1.214784	0.652282	-0.000013
H55	H	0.360031	0.203885	-0.000033
H56	H	1.173661	0.406890	0.293391
O57	O	1.234746	0.506943	0.463870
H58	H	1.269991	0.564672	0.528144
H59	H	0.635059	-0.076118	-0.000034
H60	H	0.971026	0.075002	0.293439
O61	O	0.939577	0.885636	-0.000034
H62	H	0.897893	0.837591	0.080685
O63	O	1.303230	0.849061	-0.000039
H64	H	1.354500	0.932700	-0.000051
O65	O	1.280212	1.065155	-0.000031
H66	H	1.342899	1.041571	-0.000022
H67	H	0.542417	0.611706	-0.000002
H68	H	0.369681	0.550166	-0.000019
H69	H	0.897373	0.684202	-0.000013
O70	O	0.481609	-0.061259	-0.000014
H71	H	0.442610	-0.073898	-0.080729
H72	H	0.413346	0.110833	-0.000034
O73	O	0.897255	0.470430	0.000015
H74	H	0.860339	0.477053	-0.080696
O75	O	1.220308	0.483251	0.723002
H76	H	1.262731	0.552723	0.658701
H77	H	0.807803	-0.014599	-0.000005
O78	O	0.988152	0.103029	0.723088
H79	H	0.936917	0.123428	0.779900
O80	O	0.830733	0.361403	0.000012
H81	H	0.878762	0.388808	-0.080701
O82	O	0.695876	0.596845	-0.000002
H83	H	0.648626	0.645725	-0.000007
H84	H	0.958412	0.054336	0.519625
