data_functionalizedCrystal
_audit_creation_method	'MofGen! by Chris Wilmer'
_symmetry_space_group_name_H-M	'P1'
_symmetry_Int_Tables_number	1
_symmetry_cell_setting	triclinic
loop_
_symmetry_equiv_pos_as_xyz
  x,y,z
_cell_length_a	12.759401
_cell_length_b	29.839131
_cell_length_c	12.759393
_cell_angle_alpha	89.954114
_cell_angle_beta	89.981665
_cell_angle_gamma	90.035390
loop_
_atom_site_label
_atom_site_type_symbol
_atom_site_fract_x
_atom_site_fract_y
_atom_site_fract_z
Zn1	Zn	1.606104	-0.178823	-0.593879
Zn2	Zn	1.605936	-0.253962	-0.418157
Zn3	Zn	1.430406	-0.178847	-0.418219
Zn4	Zn	1.430332	-0.253927	-0.593798
O5	O	1.518194	-0.216390	-0.506013
O6	O	1.753103	-0.188795	-0.570577
O7	O	1.582612	-0.244023	-0.271144
O8	O	1.453815	-0.115977	-0.441580
O9	O	1.752979	-0.244000	-0.441475
O10	O	1.582899	-0.115959	-0.570638
O11	O	1.453652	-0.188836	-0.271189
O12	O	1.283375	-0.188802	-0.441502
O13	O	1.453687	-0.243940	-0.740830
O14	O	1.283320	-0.243963	-0.570499
O15	O	1.582826	-0.188761	-0.740890
O16	O	1.582540	-0.316825	-0.441396
O17	O	1.453524	-0.316799	-0.570439
C18	C	1.245227	-0.216382	-0.505999
C19	C	1.128450	-0.216389	-0.506018
C20	C	1.073587	-0.245157	-0.573075
C21	C	0.963863	-0.245163	-0.573087
C22	C	0.963875	-0.187631	-0.438974
C23	C	1.073597	-0.187623	-0.438968
C24	C	1.073579	-0.278375	-0.650502
C25	C	0.963855	-0.278380	-0.650513
C26	C	1.518034	-0.333113	-0.505925
C27	C	1.518062	-0.383047	-0.505922
C28	C	1.585394	-0.692646	-0.573309
C29	C	1.585508	-0.880319	-0.573372
O30	O	1.642599	-0.904547	-0.630601
N31	N	1.518373	-0.903832	-0.506130
C32	C	1.451199	-0.880424	-0.438872
O33	O	1.394092	-0.904729	-0.381687
C34	C	1.451081	-0.692752	-0.438815
C35	C	1.518228	-0.669241	-0.506054
C36	C	1.652535	-0.669136	-0.640543
C37	C	1.652509	-0.622221	-0.640523
C38	C	1.585344	-0.598816	-0.573268
C39	C	1.518203	-0.622326	-0.506033
C40	C	1.383903	-0.669344	-0.371563
C41	C	1.383878	-0.622423	-0.371556
C42	C	1.451025	-0.598913	-0.438795
C43	C	1.451012	-0.552005	-0.438758
N44	N	1.518147	-0.528493	-0.506000
C45	C	1.585313	-0.551898	-0.573255
C46	C	1.451268	-0.978954	-0.438905
C47	C	1.451299	-1.025872	-0.438918
C48	C	1.585606	-1.025765	-0.573420
C49	C	1.585580	-0.978846	-0.573401
C50	C	1.518403	-0.955442	-0.506147
C51	C	1.585256	-0.453372	-0.573206
C52	C	1.585228	-0.406452	-0.573177
C53	C	1.450917	-0.406564	-0.438679
C54	C	1.450948	-0.453479	-0.438704
C55	C	1.518121	-0.476882	-0.505976
O56	O	1.393942	-0.527749	-0.381567
O57	O	1.642395	-0.527584	-0.630448
C58	C	1.585419	-0.739562	-0.573329
C59	C	1.518278	-0.763072	-0.506095
C60	C	1.451112	-0.739667	-0.438840
C61	C	1.518309	-0.809990	-0.506108
C62	C	1.585475	-0.833395	-0.573363
C63	C	1.652610	-0.809882	-0.640605
C64	C	1.652585	-0.762967	-0.640584
C65	C	1.383977	-0.763180	-0.371597
C66	C	1.384009	-0.810095	-0.371623
C67	C	1.451175	-0.833500	-0.438878
C68	C	1.792228	-0.216399	-0.506028
C69	C	1.909004	-0.216402	-0.506034
C70	C	1.518267	-0.216344	-0.780047
C71	C	1.518298	-0.216324	-0.896823
C72	C	1.518384	-0.099212	-0.506125
C73	C	1.518465	-0.049277	-0.506173
C74	C	1.451196	-0.187572	-1.061442
C75	C	1.451170	-0.187585	-0.951717
C76	C	1.585464	-0.245050	-0.951659
C77	C	1.585495	-0.245035	-1.061381
C78	C	1.373659	-0.154396	-1.061474
C79	C	1.373633	-0.154409	-0.951750
C80	C	1.518182	-0.216404	-0.233046
C81	C	1.518355	-0.216297	-0.116270
H82	H	1.639910	-0.387312	-0.627931
H83	H	1.292238	-0.163726	-0.921957
H84	H	1.402821	-0.121361	-0.917759
O85	O	1.281445	-0.169195	-1.102195
C86	C	1.131988	-0.152013	-1.210376
C87	C	1.236406	-0.135196	-1.164345
H88	H	1.095532	-0.124529	-1.260616
H89	H	1.146905	-0.182912	-1.260697
H90	H	1.076186	-0.161039	-1.143821
H91	H	1.292260	-0.126145	-1.230833
H92	H	1.221408	-0.104312	-1.113996
H93	H	1.640191	-0.268421	-1.106018
O94	O	1.385982	-0.956292	-0.373463
C95	C	1.252740	-0.961363	-0.240092
C96	C	1.326633	-0.987080	-0.314139
H97	H	1.204721	-0.986244	-0.192125
H98	H	1.300941	-0.939414	-0.185119
H99	H	1.197798	-0.939386	-0.288277
H100	H	1.381589	-1.009081	-0.266039
H101	H	1.278367	-1.009001	-0.369115
O102	O	0.910544	-0.159757	-0.373724
C103	C	0.786576	-0.153649	-0.231950
C104	C	0.846920	-0.185268	-0.305768
H105	H	0.735105	-0.174262	-0.177004
H106	H	0.844595	-0.133096	-0.183943
H107	H	0.735297	-0.130176	-0.280315
H108	H	0.898200	-0.208769	-0.257485
H109	H	0.788845	-0.205789	-0.353779
H110	H	0.934031	-0.313166	-0.628561
H111	H	1.118263	-0.164195	-0.384370
O112	O	1.318585	-0.599758	-0.306126
C113	C	1.185313	-0.604821	-0.172783
C114	C	1.259218	-0.630543	-0.246809
H115	H	1.137280	-0.629699	-0.124822
H116	H	1.233505	-0.582872	-0.117803
H117	H	1.130385	-0.582844	-0.220984
H118	H	1.314160	-0.652544	-0.198693
H119	H	1.210960	-0.652464	-0.301792
O120	O	1.108983	-0.267277	-0.747668
C121	C	1.063251	-0.247124	-0.924753
C122	C	1.023015	-0.259676	-0.814760
H123	H	0.993768	-0.240984	-0.979033
H124	H	1.112881	-0.215418	-0.919657
H125	H	1.112907	-0.275713	-0.957016
H126	H	0.973317	-0.231116	-0.782433
H127	H	0.973443	-0.291396	-0.819923
O128	O	1.650998	-1.048485	-0.638646
C129	C	1.829675	-1.062743	-0.689877
C130	C	1.755753	-1.036991	-0.615925
H131	H	1.914383	-1.053453	-0.671548
H132	H	1.818246	-1.100319	-0.678327
H133	H	1.811106	-1.053498	-0.774566
H134	H	1.774276	-1.046198	-0.531207
H135	H	1.767195	-0.999421	-0.627566
H136	H	1.639947	-0.472421	-0.627993
H137	H	1.395509	-0.119598	-1.091290
H138	H	1.707229	-0.688188	-0.695317
O139	O	1.717765	-0.599456	-0.705944
C140	C	1.851022	-0.604318	-0.839310
C141	C	1.777155	-0.630151	-0.765285
H142	H	1.899075	-0.629125	-0.887290
H143	H	1.802798	-0.582362	-0.894272
H144	H	1.905933	-0.582339	-0.791106
H145	H	1.722230	-0.652155	-0.813403
H146	H	1.825445	-0.652080	-0.710320
H147	H	1.107566	-0.311408	-0.621198
H148	H	0.929868	-0.265961	-0.727872
O149	O	1.318609	-0.692222	-0.306402
C150	C	1.176718	-0.745212	-0.292190
C151	C	1.250627	-0.719342	-0.366101
H152	H	1.121721	-0.767138	-0.340429
H153	H	1.224908	-0.767215	-0.237300
H154	H	1.128759	-0.720406	-0.244116
H155	H	1.298602	-0.744116	-0.414244
H156	H	1.202377	-0.697331	-0.420922
H157	H	1.329331	-0.829233	-0.316858
O158	O	1.650685	-0.956029	-0.638874
C159	C	1.701613	-0.941614	-0.817629
C160	C	1.627801	-0.967471	-0.743595
H161	H	1.683153	-0.950862	-0.902311
H162	H	1.690054	-0.904054	-0.806170
H163	H	1.786339	-0.950808	-0.799202
H164	H	1.543047	-0.958314	-0.761977
H165	H	1.639451	-1.005024	-0.755069
H166	H	1.396280	-0.472622	-0.383944
O167	O	1.385561	-0.383802	-0.373506
C168	C	1.243745	-0.330861	-0.359268
C169	C	1.317685	-0.356621	-0.433187
H170	H	1.188863	-0.308872	-0.407489
H171	H	1.195674	-0.355699	-0.311227
H172	H	1.292017	-0.308918	-0.304348
H173	H	1.269494	-0.378565	-0.488171
H174	H	1.365759	-0.331759	-0.481154
H175	H	1.396632	-1.045010	-0.384153
H176	H	1.707303	-0.828947	-0.695363
O177	O	1.717840	-0.740202	-0.706006
C178	C	1.851098	-0.745065	-0.839370
C179	C	1.777231	-0.770898	-0.765346
H180	H	1.899151	-0.769871	-0.887351
H181	H	1.802875	-0.723108	-0.894333
H182	H	1.906009	-0.723086	-0.791167
H183	H	1.722306	-0.792901	-0.813465
H184	H	1.825520	-0.792826	-0.710381
O185	O	1.650577	-0.272953	-0.898176
C186	C	1.710100	-0.298423	-0.729118
C187	C	1.636288	-0.266807	-0.789553
H188	H	1.698588	-0.293459	-0.641286
H189	H	1.691596	-0.334655	-0.750568
H190	H	1.794822	-0.290538	-0.750771
H191	H	1.551541	-0.274652	-0.767933
H192	H	1.654882	-0.230585	-0.768098
H193	H	1.329281	-0.744127	-0.316831
