data_functionalizedCrystal
_audit_creation_method	'MofGen! by Chris Wilmer'
_symmetry_space_group_name_H-M	'P1'
_symmetry_Int_Tables_number	1
_symmetry_cell_setting	triclinic
loop_
_symmetry_equiv_pos_as_xyz
  x,y,z
_cell_length_a	19.288840
_cell_length_b	17.699083
_cell_length_c	18.366186
_cell_angle_alpha	89.992946
_cell_angle_beta	89.983412
_cell_angle_gamma	83.204515
loop_
_atom_site_label
_atom_site_type_symbol
_atom_site_fract_x
_atom_site_fract_y
_atom_site_fract_z
O1	O	0.921476	0.094327	-0.060673
O2	O	0.719228	0.107083	-0.060648
O3	O	0.826066	-0.009493	-0.060654
O4	O	0.814638	0.210903	-0.060666
O5	O	0.826047	-0.009498	0.060445
O6	O	0.719209	0.107078	0.060452
O7	O	0.921457	0.094321	0.060427
Zn8	Zn	0.820330	0.100699	0.079666
Zn9	Zn	0.820355	0.100706	-0.079887
O10	O	0.814619	0.210897	0.060433
C11	C	0.693341	0.106673	-0.000095
C12	C	0.616235	0.105451	-0.000085
C13	C	0.580041	0.104866	-0.066098
C14	C	0.507593	0.103709	-0.066107
C15	C	0.471343	0.103121	-0.000099
C16	C	0.507546	0.103710	0.065923
C17	C	0.579991	0.104875	0.065930
C18	C	0.361953	0.056941	0.050465
C19	C	0.289509	0.055772	0.050455
C20	C	0.247895	0.099531	-0.000118
C21	C	0.278736	0.144451	-0.050693
C22	C	0.351182	0.145616	-0.050686
C23	C	0.392788	0.101858	-0.000099
C24	C	0.133145	0.097693	-0.066145
C25	C	0.060694	0.096541	-0.066151
C26	C	0.060649	0.096534	0.065881
C27	C	0.133097	0.097694	0.065885
C28	C	0.169341	0.098270	-0.000130
C29	C	0.825647	-0.037692	-0.000105
C30	C	0.824418	-0.121708	-0.000104
C31	C	0.887130	-0.170423	-0.000111
C32	C	0.885972	-0.249365	-0.000117
C33	C	0.822101	-0.279590	-0.000112
C34	C	0.759384	-0.230868	-0.000107
C35	C	0.760544	-0.151928	-0.000106
C36	C	0.754708	-0.549224	-0.000112
C37	C	0.753554	-0.628170	-0.000111
C38	C	0.880136	-0.646661	-0.000124
C39	C	0.881296	-0.567721	-0.000123
C40	C	0.818580	-0.519006	-0.000122
C41	C	0.819836	-0.433409	-0.000116
C42	C	0.820843	-0.365185	-0.000112
C43	C	0.947344	0.094731	-0.000128
C44	C	1.024450	0.095954	-0.000142
C45	C	0.815038	0.239096	-0.000118
C46	C	0.816266	0.323113	-0.000123
N47	N	0.820318	0.100693	0.188557
C48	C	0.867641	0.049099	0.226655
C49	C	0.867645	0.049096	0.302883
C50	C	0.820333	0.100700	0.341010
C51	C	0.773001	0.152298	0.302904
C52	C	0.772994	0.152295	0.226677
C53	C	0.811115	0.169663	0.461768
C54	C	0.811128	0.169667	0.537993
C55	C	0.820351	0.100710	0.576118
C56	C	0.829578	0.031745	0.538009
C57	C	0.829570	0.031742	0.461782
C58	C	0.820335	0.100709	0.423665
C59	C	0.867681	0.049108	0.696870
C60	C	0.867680	0.049103	0.773099
C61	C	0.773039	0.152313	0.773119
C62	C	0.773037	0.152310	0.696891
C63	C	0.820361	0.100709	0.658771
N64	N	0.820367	0.100707	0.811222
H65	H	0.478026	0.103233	0.119667
H66	H	0.244855	0.180087	-0.091872
O67	O	0.913649	-0.000922	0.339978
C68	C	1.008573	-0.017291	0.425966
C69	C	0.956502	0.039437	0.384020
H70	H	1.043243	0.015317	0.461573
H71	H	0.978697	-0.055008	0.461723
H72	H	1.042360	-0.054185	0.385609
H73	H	0.922702	0.076381	0.424325
H74	H	0.986420	0.077101	0.348253
O75	O	0.025487	0.096109	-0.130262
C76	C	-0.064293	0.160328	-0.206885
C77	C	-0.024464	0.160920	-0.134261
H78	H	-0.104698	0.212714	-0.210136
H79	H	-0.025977	0.160987	-0.254091
H80	H	-0.091724	0.106804	-0.210173
H81	H	0.002968	0.214435	-0.130902
H82	H	-0.062813	0.160221	-0.087090
O83	O	0.168244	0.098299	-0.130333
C84	C	0.160648	0.098155	-0.261289
C85	C	0.120813	0.097481	-0.188649
H86	H	0.122319	0.097478	-0.308456
H87	H	0.188090	0.151670	-0.264632
H88	H	0.201039	0.045757	-0.264550
H89	H	0.080389	0.149842	-0.185338
H90	H	0.093418	0.043932	-0.185337
O91	O	0.691524	-0.657568	0.000016
C92	C	0.616756	-0.736009	0.062731
C93	C	0.687017	-0.702752	0.062685
H94	H	0.613096	-0.772561	0.113385
H95	H	0.572101	-0.687663	0.062775
H96	H	0.613077	-0.772469	0.012028
H97	H	0.690764	-0.666301	0.113379
H98	H	0.731638	-0.751135	0.062603
H99	H	0.837088	-0.024407	0.569048
H100	H	0.031135	0.096060	0.119626
H101	H	0.906214	0.007085	0.804119
O102	O	0.802040	0.236674	0.574972
C103	C	0.726764	0.352759	0.598265
C104	C	0.736960	0.276888	0.556358
H105	H	0.674155	0.385301	0.583219
H106	H	0.728306	0.340967	0.659304
H107	H	0.770313	0.388202	0.583258
H108	H	0.693424	0.241408	0.571304
H109	H	0.735446	0.288735	0.495330
O110	O	0.943322	-0.538325	-0.000001
C111	C	1.018069	-0.459899	0.062700
C112	C	0.947806	-0.493152	0.062666
H113	H	1.021711	-0.423357	0.113353
H114	H	1.062722	-0.508248	0.062738
H115	H	1.021770	-0.423430	0.011995
H116	H	0.944038	-0.529612	0.113362
H117	H	0.903187	-0.444768	0.062589
O118	O	0.802282	0.236675	0.424766
C119	C	0.846027	0.356374	0.401432
C120	C	0.856119	0.280512	0.443370
H121	H	0.889538	0.391844	0.416469
H122	H	0.847646	0.344568	0.340398
H123	H	0.793386	0.388895	0.416421
H124	H	0.908756	0.247952	0.428442
H125	H	0.854457	0.292370	0.504394
O126	O	0.168158	0.098218	0.130076
C127	C	0.160460	0.098134	0.261030
C128	C	0.120671	0.097518	0.188383
H129	H	0.122082	0.097585	0.308190
H130	H	0.200813	0.045709	0.264386
H131	H	0.187942	0.151623	0.264292
H132	H	0.093147	0.044064	0.185073
H133	H	0.080357	0.149978	0.185058
H134	H	0.906174	0.007080	0.195620
O135	O	0.381211	0.189301	-0.099707
C136	C	0.450584	0.292331	-0.118063
C137	C	0.416627	0.242898	-0.062471
H138	H	0.479213	0.335686	-0.087979
H139	H	0.489233	0.254564	-0.153147
H140	H	0.408394	0.323372	-0.154226
H141	H	0.458767	0.211848	-0.026260
H142	H	0.377962	0.280703	-0.027438
H143	H	0.703641	-0.509570	-0.000112
H144	H	0.937038	-0.289026	-0.000121
H145	H	0.734505	0.194327	0.665870
O146	O	0.727012	0.202471	0.810034
C147	C	0.633170	0.304869	0.802008
C148	C	0.685251	0.248095	0.760108
H149	H	0.599403	0.341782	0.761661
H150	H	0.598484	0.272331	0.837694
H151	H	0.663108	0.342560	0.837698
H152	H	0.655370	0.210389	0.724378
H153	H	0.719937	0.280680	0.724468
O154	O	0.913754	-0.000895	0.659827
C155	C	1.008673	-0.017202	0.573777
C156	C	0.956520	0.039494	0.615676
H157	H	1.043254	0.015430	0.538059
H158	H	1.042541	-0.054041	0.614099
H159	H	0.978795	-0.054976	0.538114
H160	H	0.986342	0.077318	0.651340
H161	H	0.922653	0.076281	0.575315
H162	H	0.264405	0.019192	0.091633
O163	O	0.949132	-0.140976	-0.000214
C164	C	1.023933	-0.062616	-0.062985
C165	C	0.953684	-0.095897	-0.062947
H166	H	1.027642	-0.026175	-0.113706
H167	H	1.027645	-0.026077	-0.012339
H168	H	1.068544	-0.111009	-0.062957
H169	H	0.909033	-0.047552	-0.063000
H170	H	0.950032	-0.132455	-0.113587
H171	H	0.837081	-0.024411	0.430757
O172	O	0.472363	0.103035	-0.130190
C173	C	0.398625	0.036131	-0.206829
C174	C	0.438474	0.036809	-0.134222
H175	H	0.371228	-0.017415	-0.210120
H176	H	0.358210	0.088503	-0.210151
H177	H	0.436985	0.036781	-0.253995
H178	H	0.400168	0.036132	-0.087015
H179	H	0.478899	-0.015559	-0.130963
O180	O	0.699561	-0.104711	-0.000067
C181	C	0.573882	-0.094697	-0.000105
C182	C	0.642894	-0.148255	-0.000126
H183	H	0.528048	-0.129880	-0.000168
H184	H	0.571200	-0.057293	0.050586
H185	H	0.571310	-0.057258	-0.050774
H186	H	0.645512	-0.185741	0.050509
H187	H	0.645547	-0.185606	-0.050850
O188	O	0.727014	0.202324	0.340018
C189	C	0.632113	0.218707	0.426087
C190	C	0.684169	0.161973	0.384114
H191	H	0.597449	0.186106	0.461737
H192	H	0.662000	0.256425	0.461803
H193	H	0.598317	0.255600	0.385748
H194	H	0.717978	0.125030	0.424401
H195	H	0.654239	0.124308	0.348387
O196	O	0.726998	0.202493	0.189779
C197	C	0.633100	0.304829	0.197842
C198	C	0.685161	0.248032	0.239722
H199	H	0.599252	0.341651	0.238203
H200	H	0.662984	0.342606	0.162159
H201	H	0.598490	0.272235	0.162151
H202	H	0.719785	0.280564	0.275452
H203	H	0.655234	0.210255	0.275359
O204	O	0.941125	-0.693876	-0.000102
C205	C	1.066805	-0.703882	-0.000157
C206	C	0.997790	-0.650329	-0.000167
H207	H	1.112636	-0.668696	-0.000226
H208	H	1.069468	-0.741298	0.050532
H209	H	1.069399	-0.741309	-0.050828
H210	H	0.995149	-0.612854	0.050469
H211	H	0.995155	-0.612965	-0.050890
O212	O	0.615135	0.105462	-0.130288
C213	C	0.607538	0.105290	-0.261243
C214	C	0.567704	0.104631	-0.188602
H215	H	0.569209	0.104603	-0.308409
H216	H	0.634980	0.158804	-0.264598
H217	H	0.647929	0.052892	-0.264496
H218	H	0.527280	0.156993	-0.185300
H219	H	0.540310	0.051083	-0.185278
H220	H	0.395830	0.021305	0.091651
H221	H	0.707380	-0.255483	-0.000107
H222	H	0.609460	0.105351	0.119687
