data_functionalizedCrystal
_audit_creation_method	'MofGen! by Chris Wilmer'
_symmetry_space_group_name_H-M	'P1'
_symmetry_Int_Tables_number	1
_symmetry_cell_setting	triclinic
loop_
_symmetry_equiv_pos_as_xyz
  x,y,z
_cell_length_a	12.759401
_cell_length_b	13.031981
_cell_length_c	13.033429
_cell_angle_alpha	74.789740
_cell_angle_beta	97.163356
_cell_angle_gamma	97.191023
loop_
_atom_site_label
_atom_site_type_symbol
_atom_site_fract_x
_atom_site_fract_y
_atom_site_fract_z
Zn1	Zn	1.492204	-0.346612	-0.546754
Zn2	Zn	1.992204	0.153388	-0.046754
Zn3	Zn	1.492096	-0.546865	-0.346552
Zn4	Zn	1.992096	-0.046865	0.153448
Zn5	Zn	1.336294	-0.369229	-0.369154
Zn6	Zn	1.836294	0.130771	0.130846
Zn7	Zn	1.296711	-0.524218	-0.524136
Zn8	Zn	1.796711	-0.024218	-0.024136
O9	O	1.404326	-0.446731	-0.446649
O10	O	1.904326	0.053269	0.053351
O11	O	1.639209	-0.373189	-0.520203
O12	O	2.139209	0.126811	-0.020203
O13	O	1.487949	-0.542245	-0.200903
O14	O	1.987949	-0.042245	0.299097
O15	O	1.373587	-0.217559	-0.411637
O16	O	1.873587	0.282441	0.088363
O17	O	1.639129	-0.520314	-0.373115
O18	O	2.139129	-0.020314	0.126885
O19	O	1.488133	-0.200942	-0.542120
O20	O	1.988133	0.299058	-0.042120
O21	O	1.373482	-0.411736	-0.217509
O22	O	1.873482	0.088264	0.282491
O23	O	1.184025	-0.389776	-0.389706
O24	O	1.684025	0.110224	0.110294
O25	O	1.306123	-0.481715	-0.675783
O26	O	1.806123	0.018285	-0.175783
O27	O	1.154943	-0.503645	-0.503571
O28	O	1.654943	-0.003645	-0.003571
O29	O	1.449751	-0.351229	-0.692400
O30	O	1.949751	0.148771	-0.192400
O31	O	1.449567	-0.692531	-0.351184
O32	O	1.949567	-0.192531	0.148816
O33	O	1.306018	-0.675892	-0.481655
O34	O	1.806018	-0.175892	0.018345
C35	C	1.131363	-0.446708	-0.446637
C36	C	1.631363	0.053292	0.053363
C37	C	1.014583	-0.446720	-0.446654
C38	C	1.514583	0.053280	0.053346
C39	C	0.959729	-0.370227	-0.523332
C40	C	1.459729	0.129773	-0.023332
C41	C	0.850002	-0.370247	-0.523336
C42	C	1.350002	0.129753	-0.023336
C43	C	0.849991	-0.523262	-0.369981
C44	C	1.349991	-0.023262	0.130019
C45	C	0.959718	-0.523237	-0.369973
C46	C	1.459718	-0.023237	0.130027
C47	C	0.959734	-0.281888	-0.611874
C48	C	1.459734	0.218112	-0.111874
C49	C	0.850007	-0.281907	-0.611878
C50	C	1.350007	0.218093	-0.111878
C51	C	1.373512	-0.722757	-0.411536
C52	C	1.873512	-0.222757	0.088464
C53	C	1.360421	-0.840837	-0.396549
C54	C	1.860421	-0.340837	0.103451
C55	C	1.411212	-0.885168	-0.454492
C56	C	1.911212	-0.385168	0.045508
C57	C	1.397683	-1.007211	-0.439004
C58	C	1.897683	-0.507211	0.060996
C59	C	1.678355	-0.446755	-0.446661
C60	C	2.178355	0.053245	0.053339
C61	C	1.795130	-0.446765	-0.446666
C62	C	2.295130	0.053235	0.053334
C63	C	1.373534	-0.411423	-0.723712
C64	C	1.873534	0.088577	-0.223712
C65	C	1.360412	-0.396376	-0.841779
C66	C	1.860412	0.103624	-0.341779
C67	C	1.435287	-0.169624	-0.481923
C68	C	1.935287	0.330376	0.018077
C69	C	1.448481	-0.051538	-0.496954
C70	C	1.948481	0.448462	0.003046
C71	C	1.397641	-0.438706	-1.008224
C72	C	1.897641	0.061294	-0.508224
C73	C	1.411204	-0.454251	-0.886196
C74	C	1.911204	0.045749	-0.386196
C75	C	1.435068	-0.481825	-0.170674
C76	C	1.935068	0.018175	0.329326
C77	C	1.448427	-0.496572	-0.052645
C78	C	1.948427	0.003428	0.447355
H79	H	1.004378	-0.585516	-0.307526
H80	H	1.504378	-0.085516	0.192474
H81	H	0.805307	-0.585559	-0.307550
H82	H	1.305307	-0.085559	0.192450
F83	F	1.013823	-0.177934	-0.596941
F84	F	1.513823	0.322066	-0.096941
F85	F	1.327744	-1.075689	-0.359177
F86	F	1.827744	-0.575689	0.140823
H87	H	1.501980	-0.999144	-0.558035
H88	H	2.001980	-0.499144	-0.058035
H89	H	1.464707	-0.832772	-0.515569
H90	H	1.964707	-0.332772	-0.015569
H91	H	0.981803	-0.301526	-0.686204
H92	H	1.481803	0.198474	-0.186204
H93	H	1.344125	-0.377651	-1.060536
H94	H	1.844125	0.122349	-0.560536
F95	F	1.290457	-0.316566	-0.910143
F96	F	1.790457	0.183434	-0.410143
H97	H	0.808630	-0.293599	-0.691294
H98	H	1.308630	0.206401	-0.191294
H99	H	1.501951	-0.557619	-1.000334
H100	H	2.001951	-0.057619	-0.500334
H101	H	1.306916	-0.893235	-0.335482
H102	H	1.806916	-0.393235	0.164518
F103	F	1.481171	-0.534050	-0.817831
F104	F	1.981171	-0.034050	-0.317831
H105	H	0.827945	-0.207439	-0.592500
H106	H	1.327945	0.292561	-0.092500
