data_functionalizedCrystal
_audit_creation_method	'MofGen! by Chris Wilmer'
_symmetry_space_group_name_H-M	'P1'
_symmetry_Int_Tables_number	1
_symmetry_cell_setting	triclinic
loop_
_symmetry_equiv_pos_as_xyz
  x,y,z
_cell_length_a	12.759401
_cell_length_b	12.759393
_cell_length_c	12.759400
_cell_angle_alpha	90.031769
_cell_angle_beta	89.985084
_cell_angle_gamma	89.981503
loop_
_atom_site_label
_atom_site_type_symbol
_atom_site_fract_x
_atom_site_fract_y
_atom_site_fract_z
Zn1	Zn	1.606244	-0.594013	0.418196
Zn2	Zn	1.606142	-0.418333	0.593915
Zn3	Zn	1.430549	-0.418349	0.418252
Zn4	Zn	1.430535	-0.593971	0.593834
O5	O	1.518367	-0.506166	0.506049
O6	O	1.753251	-0.570719	0.441516
O7	O	1.582812	-0.271314	0.570670
O8	O	1.453905	-0.441675	0.271223
O9	O	1.753176	-0.441648	0.570616
O10	O	1.582987	-0.570735	0.271182
O11	O	1.453805	-0.271325	0.441611
O12	O	1.283526	-0.441634	0.441532
O13	O	1.453879	-0.740998	0.570478
O14	O	1.283516	-0.570663	0.570532
O15	O	1.582972	-0.741028	0.441437
O16	O	1.582798	-0.441607	0.740925
O17	O	1.453780	-0.570648	0.740866
C18	C	1.245400	-0.506147	0.506030
C19	C	1.128623	-0.506163	0.506047
C20	C	1.073726	-0.438864	0.573162
C21	C	0.964002	-0.438882	0.573180
C22	C	0.964082	-0.573502	0.438960
C23	C	1.073805	-0.573488	0.438948
C24	C	1.073678	-0.361139	0.650650
C25	C	0.963954	-0.361158	0.650668
C26	C	1.518436	-0.780200	0.505942
C27	C	1.518465	-0.896976	0.505897
C28	C	1.451319	-0.951851	0.438683
C29	C	1.451351	-1.061575	0.438652
C30	C	1.585683	-1.061541	0.573051
C31	C	1.585645	-0.951819	0.573086
C32	C	1.384139	-0.897008	0.371493
C33	C	1.316989	-0.951882	0.304273
C34	C	1.317021	-1.061607	0.304242
C35	C	1.384203	-1.116457	0.371431
C36	C	1.792401	-0.506187	0.506069
C37	C	1.909177	-0.506195	0.506077
C38	C	1.518305	-0.506144	0.779017
C39	C	1.518375	-0.506170	0.895793
C40	C	1.518360	-0.233199	0.506080
C41	C	1.518534	-0.116423	0.505829
C42	C	1.518459	-0.506211	0.232016
C43	C	1.518497	-0.506230	0.115239
C44	C	1.585629	-0.439053	0.950651
C45	C	1.585693	-0.439085	1.060375
C46	C	1.451240	-0.573355	1.060373
C47	C	1.451182	-0.573327	0.950651
C48	C	1.663251	-0.361530	0.950653
C49	C	1.663315	-0.361563	1.060377
H50	H	1.103452	-0.382785	0.732043
Cl51	Cl	0.911409	-0.405952	0.770066
Cl52	Cl	1.788833	-0.395270	0.904546
H53	H	1.107681	-0.283893	0.621408
H54	H	1.740619	-0.390776	1.094322
Cl55	Cl	1.384236	-1.254397	0.371393
H56	H	1.396535	-0.628033	1.105052
Cl57	Cl	1.618263	-0.242156	0.898233
H58	H	1.396428	-0.627988	0.905987
H59	H	0.934142	-0.279829	0.628780
Cl60	Cl	1.142815	-0.658114	0.354589
Cl61	Cl	1.629759	-0.235922	1.106491
H62	H	1.262286	-0.907217	0.249577
Cl63	Cl	0.895160	-0.658135	0.354612
H64	H	1.384108	-0.807665	0.371509
H65	H	1.262337	-1.106282	0.249515
Cl66	Cl	1.670137	-1.130496	0.657507
H67	H	1.640335	-0.907139	0.627803
