data_functionalizedCrystal
_audit_creation_method	'MofGen! by Chris Wilmer'
_symmetry_space_group_name_H-M	'P1'
_symmetry_Int_Tables_number	1
_symmetry_cell_setting	triclinic
loop_
_symmetry_equiv_pos_as_xyz
  x,y,z
_cell_length_a	6.394989
_cell_length_b	11.026607
_cell_length_c	10.065875
_cell_angle_alpha	79.302338
_cell_angle_beta	99.048558
_cell_angle_gamma	97.541864
loop_
_atom_site_label
_atom_site_type_symbol
_atom_site_fract_x
_atom_site_fract_y
_atom_site_fract_z
O1	O	0.855566	1.641000	-0.113473
O2	O	0.755391	1.286163	-0.113477
O3	O	0.503308	1.468618	-0.113477
O4	O	1.107649	1.458545	-0.113474
O5	O	0.551624	1.433830	0.113512
O6	O	0.803707	1.251375	0.113511
O7	O	0.903882	1.606212	0.113515
Zn8	Zn	0.861466	1.423270	0.149553
Zn9	Zn	0.797808	1.469105	-0.149515
O10	O	1.155965	1.423757	0.113515
C11	C	0.761068	1.223275	0.000016
C12	C	0.705977	1.087719	0.000014
C13	C	0.858092	1.016240	0.000014
C14	C	0.801156	0.876135	0.000012
C15	C	1.210376	1.443143	0.000014
C16	C	1.448899	1.449231	0.000010
C17	C	0.898204	1.669100	0.000019
C18	C	0.953293	1.804658	0.000012
N19	N	0.904912	1.391998	0.353658
N20	N	0.754348	1.500386	-0.353620
C21	C	0.812908	1.458216	0.421437
C22	C	0.846366	1.434158	0.578604
H23	H	0.628756	0.833618	-0.000024
H24	H	0.650793	1.574890	0.588059
H25	H	1.125689	0.847177	0.000021
O26	O	1.063666	1.067059	-0.000222
C27	C	1.079547	1.158099	-0.117759
H28	H	0.941014	1.138819	-0.199932
H29	H	1.074254	1.253649	-0.091175
C30	C	1.461333	1.178198	-0.070133
C31	C	1.291193	1.154512	-0.171063
H32	H	1.591888	1.175991	-0.103012
H33	H	1.450634	1.116866	0.009057
H34	H	1.456893	1.257822	-0.047989
H35	H	1.295619	1.074883	-0.193193
H36	H	1.301897	1.215831	-0.250259
O37	O	1.028423	1.303028	0.423017
C38	C	1.107517	1.246151	0.329481
H39	H	0.999277	1.258833	0.227584
H40	H	1.275176	1.290730	0.314332
C41	C	1.246592	1.091093	0.510572
C42	C	1.113640	1.106661	0.385422
H43	H	1.250379	1.005051	0.545080
H44	H	1.193312	1.129415	0.573590
H45	H	1.386294	1.128251	0.497930
H46	H	0.973936	1.069517	0.398069
H47	H	1.166896	1.068330	0.322407
H48	H	0.949901	1.359646	0.636925
H49	H	0.533588	1.045197	-0.000021
H50	H	0.709360	1.532715	0.363113
