data_functionalizedCrystal
_audit_creation_method	'MofGen! by Chris Wilmer'
_symmetry_space_group_name_H-M	'P1'
_symmetry_Int_Tables_number	1
_symmetry_cell_setting	triclinic
loop_
_symmetry_equiv_pos_as_xyz
  x,y,z
_cell_length_a	12.811439
_cell_length_b	14.044190
_cell_length_c	11.295500
_cell_angle_alpha	94.239051
_cell_angle_beta	89.164235
_cell_angle_gamma	88.596662
loop_
_atom_site_label
_atom_site_type_symbol
_atom_site_fract_x
_atom_site_fract_y
_atom_site_fract_z
O1	O	-1.401009	-0.124671	0.052242
O2	O	-1.098983	-0.140450	0.019625
O3	O	-1.245457	0.005415	0.035467
O4	O	-1.254535	-0.270536	0.036400
O5	O	-1.231858	0.016777	0.232051
O6	O	-1.085384	-0.129088	0.216209
O7	O	-1.387410	-0.113309	0.248826
Cu8	Cu	-1.235155	-0.120161	0.250467
Cu9	Cu	-1.251238	-0.133598	0.017984
O10	O	-1.240935	-0.259174	0.232984
C11	C	-1.053297	-0.134234	0.113718
C12	C	-0.937427	-0.132629	0.101206
C13	C	-0.704866	-0.117207	0.292033
C14	C	-0.595995	-0.115698	0.280283
C15	C	-0.610813	-0.128096	0.065955
C16	C	-0.719684	-0.129605	0.077706
C17	C	-0.766706	-0.124161	0.190749
C18	C	-0.875579	-0.125677	0.202498
C19	C	-0.890395	-0.138068	-0.011829
C20	C	-0.781524	-0.136559	-0.023579
C21	C	-1.234688	0.046402	0.133334
C22	C	-1.222845	0.151601	0.132065
C23	C	-1.251706	-0.300161	0.135115
C24	C	-1.263548	-0.405361	0.136376
C25	C	-0.433096	-0.119528	0.154734
C26	C	-0.548965	-0.121144	0.167248
C27	C	-1.285182	0.402028	0.138750
C28	C	-1.201216	0.344207	0.129691
C29	C	-1.213254	0.237032	0.131012
C30	C	-1.273146	0.509213	0.137429
N31	N	-1.223850	-0.110710	0.413984
C32	C	-1.343905	-0.211139	0.676222
C33	C	-1.335369	-0.203989	0.799965
C34	C	-1.198249	-0.089255	0.785216
C35	C	-1.206785	-0.096405	0.661473
C36	C	-1.279614	-0.157350	0.606981
C37	C	-1.288144	-0.164505	0.483235
C38	C	-1.151029	-0.049766	0.468489
C39	C	-1.142494	-0.042616	0.592232
N40	N	-1.262543	-0.143050	0.854467
H41	H	-0.743151	-0.112787	0.384077
H42	H	-1.083201	0.007007	0.636617
H43	H	-0.572509	-0.132511	-0.026078
H44	H	-1.366101	0.371040	0.147501
H45	H	-1.387722	-0.247789	0.856338
H46	H	-1.120291	0.375197	0.120945
H47	H	-0.913862	-0.121250	0.294543
H48	H	-0.545648	-0.110040	0.362760
H49	H	-0.940757	-0.143736	-0.094302
C50	C	-0.729793	-0.142551	-0.147915
H51	H	-0.656097	-0.140663	-0.140409
H52	H	-0.753490	-0.090103	-0.189720
H53	H	-0.747869	-0.200603	-0.190320
C54	C	-1.118119	-0.022246	0.845164
H55	H	-1.081045	0.008763	0.786205
H56	H	-1.070454	-0.058402	0.888642
H57	H	-1.153425	0.024247	0.897617
H58	H	-1.347441	-0.214134	0.438868
H59	H	-1.098674	-0.005972	0.412098
H60	H	-1.403196	-0.260772	0.631852
