data_functionalizedCrystal
_audit_creation_method	'MofGen! by Chris Wilmer'
_symmetry_space_group_name_H-M	'P1'
_symmetry_Int_Tables_number	1
_symmetry_cell_setting	triclinic
loop_
_symmetry_equiv_pos_as_xyz
  x,y,z
_cell_length_a	19.188930
_cell_length_b	27.732048
_cell_length_c	18.266242
_cell_angle_alpha	89.988683
_cell_angle_beta	89.977082
_cell_angle_gamma	82.893716
loop_
_atom_site_label
_atom_site_type_symbol
_atom_site_fract_x
_atom_site_fract_y
_atom_site_fract_z
O1	O	0.925764	0.060348	-0.061124
O2	O	0.722401	0.068472	-0.061075
O3	O	0.830399	-0.005968	-0.061087
O4	O	0.817767	0.134787	-0.061112
O5	O	0.830381	-0.005971	0.060675
O6	O	0.722383	0.068468	0.060687
O7	O	0.925746	0.060344	0.060638
Zn8	Zn	0.824062	0.064405	0.079995
Zn9	Zn	0.824086	0.064410	-0.080432
O10	O	0.817749	0.134783	0.060650
C11	C	0.696383	0.068207	-0.000187
C12	C	0.618883	0.067417	-0.000168
C13	C	0.573681	0.111096	-0.000187
C14	C	0.500862	0.110354	-0.000195
C15	C	0.473249	0.065931	-0.000199
C16	C	0.518461	0.022246	-0.000175
C17	C	0.591278	0.022990	-0.000160
N18	N	0.365491	0.031976	-0.041663
N19	N	0.296317	0.031273	-0.041679
C20	C	0.253854	0.063689	-0.000243
N21	N	0.283177	0.096842	0.041201
N22	N	0.352358	0.097546	0.041213
C23	C	0.394291	0.065120	-0.000215
C24	C	0.129692	0.106566	-0.000270
C25	C	0.056872	0.105822	-0.000273
C26	C	0.074473	0.017714	-0.000261
C27	C	0.147292	0.018459	-0.000250
C28	C	0.174897	0.062886	-0.000258
C29	C	0.830125	-0.023977	-0.000204
C30	C	0.829326	-0.077635	-0.000198
C31	C	0.888119	-0.416270	-0.000250
C32	C	0.885157	-0.617939	-0.000259
O33	O	0.938918	-0.649030	-0.000304
N34	N	0.821118	-0.637258	-0.000243
C35	C	0.757816	-0.606157	-0.000229
O36	O	0.703280	-0.627217	-0.000223
C37	C	0.760780	-0.404489	-0.000225
C38	C	0.824822	-0.385173	-0.000234
C39	C	0.952156	-0.396953	-0.000259
C40	C	0.952896	-0.346539	-0.000253
C41	C	0.889599	-0.315441	-0.000237
C42	C	0.825562	-0.334759	-0.000227
C43	C	0.697478	-0.373389	-0.000216
C44	C	0.698225	-0.322969	-0.000217
C45	C	0.762267	-0.303653	-0.000226
C46	C	0.763005	-0.253247	-0.000205
N47	N	0.827043	-0.233928	-0.000221
C48	C	0.890340	-0.265025	-0.000237
C49	C	0.756265	-0.712036	-0.000230
C50	C	0.755524	-0.762452	-0.000230
C51	C	0.882865	-0.774231	-0.000261
C52	C	0.883605	-0.723813	-0.000256
C53	C	0.820303	-0.692716	-0.000246
C54	C	0.891889	-0.159151	-0.000223
C55	C	0.892623	-0.108732	-0.000214
C56	C	0.765283	-0.096958	-0.000186
C57	C	0.764549	-0.147373	-0.000192
C58	C	0.827857	-0.178468	-0.000213
O59	O	0.709272	-0.222127	-0.000168
O60	O	0.944868	-0.243956	-0.000259
C61	C	0.887379	-0.466684	-0.000256
C62	C	0.823342	-0.486001	-0.000246
C63	C	0.760045	-0.454904	-0.000230
C64	C	0.822601	-0.536418	-0.000246
C65	C	0.885898	-0.567515	-0.000262
C66	C	0.949936	-0.548195	-0.000278
C67	C	0.950676	-0.497781	-0.000272
C68	C	0.696007	-0.474223	-0.000214
C69	C	0.695272	-0.524638	-0.000220
C70	C	0.758569	-0.555735	-0.000236
C71	C	0.951765	0.060609	-0.000251
C72	C	1.029264	0.061399	-0.000275
C73	C	0.818023	0.152793	-0.000235
C74	C	0.818821	0.206450	-0.000246
N75	N	0.824051	0.064402	0.189482
N76	N	0.824103	0.064410	-0.189919
C77	C	0.871887	0.031456	0.227785
C78	C	0.871892	0.031454	0.304430
C79	C	0.824066	0.064406	0.342769
C80	C	0.776220	0.097354	0.304456
C81	C	0.776213	0.097352	0.227813
N82	N	0.814718	0.107196	0.463095
N83	N	0.814729	0.107196	0.535903
C84	C	0.824086	0.064413	0.573691
N85	N	0.833444	0.021627	0.535921
N86	N	0.833436	0.021628	0.463106
C87	C	0.824069	0.064411	0.425876
C88	C	0.871930	0.031462	0.695102
C89	C	0.871929	0.031459	0.771748
C90	C	0.776261	0.097363	0.771772
C91	C	0.776258	0.097362	0.695127
C92	C	0.824096	0.064412	0.656797
H93	H	0.184097	-0.017109	-0.000238
H94	H	0.910838	0.004625	0.196579
H95	H	0.152169	0.142741	-0.000266
O96	O	0.013059	0.148299	-0.000322
C97	C	0.003289	0.235767	-0.000302
C98	C	0.052988	0.187698	-0.000263
H99	H	0.035552	0.267634	-0.000238
H100	H	-0.031203	0.237654	-0.051276
H101	H	-0.031282	0.237596	0.050639
H102	H	0.087604	0.185837	-0.051168
H103	H	0.087433	0.185831	0.050745
H104	H	0.737279	0.124183	0.335675
O105	O	0.729718	0.129406	0.190714
C106	C	0.634802	0.194752	0.198826
C107	C	0.687428	0.158484	0.240933
H108	H	0.600586	0.218264	0.239410
H109	H	0.664644	0.218882	0.162942
H110	H	0.600181	0.173932	0.162947
H111	H	0.722062	0.179265	0.276852
H112	H	0.657542	0.134354	0.276771
O113	O	0.918501	-0.000467	0.657854
C114	C	1.013996	-0.010870	0.571322
C115	C	0.961279	0.025333	0.613453
H116	H	1.048587	0.009974	0.535403
H117	H	1.048231	-0.034394	0.611863
H118	H	0.984159	-0.034998	0.535470
H119	H	0.991059	0.049492	0.649306
H120	H	0.927045	0.048822	0.572873
H121	H	0.628083	-0.012580	-0.000145
H122	H	0.910882	0.004628	0.802935
H123	H	0.737318	0.124191	0.802987
H124	H	0.944776	-0.093007	-0.000219
O125	O	0.047775	-0.025482	-0.000231
C126	C	0.072917	-0.112793	-0.000258
C127	C	0.103250	-0.063907	-0.000280
H128	H	0.117754	-0.143873	-0.000314
H129	H	0.039265	-0.115379	0.050705
H130	H	0.039269	-0.115316	-0.051209
H131	H	0.136930	-0.061351	0.050637
H132	H	0.136863	-0.061343	-0.051277
O133	O	0.953431	-0.189304	-0.000338
C134	C	1.062041	-0.214797	-0.063459
C135	C	0.992379	-0.180615	-0.063418
H136	H	1.093543	-0.207792	-0.114462
H137	H	1.093618	-0.207788	-0.012541
H138	H	1.050506	-0.254148	-0.063425
H139	H	1.003850	-0.141252	-0.063478
H140	H	0.960822	-0.187667	-0.114332
O141	O	1.015169	-0.327859	-0.000300
C142	C	1.141393	-0.344881	-0.000291
C143	C	1.070915	-0.366095	-0.000252
H144	H	1.186482	-0.375785	-0.000237
H145	H	1.144983	-0.321584	-0.051261
H146	H	1.144885	-0.321562	0.050654
H147	H	1.067375	-0.389436	-0.051163
H148	H	1.067355	-0.389365	0.050751
H149	H	0.703375	-0.778175	-0.000210
H150	H	1.003703	-0.422268	-0.000275
H151	H	0.935754	-0.708089	-0.000264
H152	H	1.002826	-0.482059	-0.000279
O153	O	0.600405	0.154284	-0.000289
C154	C	0.607691	0.229805	-0.063408
C155	C	0.577369	0.180915	-0.063375
H156	H	0.589090	0.251346	-0.114416
H157	H	0.588979	0.251415	-0.012494
H158	H	0.667500	0.222830	-0.063359
H159	H	0.517560	0.187845	-0.063450
H160	H	0.596136	0.159321	-0.114285
O161	O	0.918427	-0.000571	0.341535
C162	C	1.013284	-0.065959	0.333428
C163	C	0.960636	-0.029708	0.291319
H164	H	1.047414	-0.089533	0.292847
H165	H	1.047986	-0.045174	0.369267
H166	H	0.983390	-0.090032	0.369354
H167	H	0.990474	-0.005626	0.255354
H168	H	0.925935	-0.050524	0.255527
O169	O	0.729863	0.129437	0.657950
C170	C	0.688012	0.213558	0.634530
C171	C	0.740608	0.177286	0.676664
H172	H	0.696671	0.252252	0.649656
H173	H	0.696218	0.207941	0.573157
H174	H	0.632168	0.207331	0.649623
H175	H	0.796472	0.183491	0.661632
H176	H	0.732340	0.182912	0.738027
O177	O	0.456914	0.152772	-0.000089
C178	C	0.364416	0.203055	0.062929
C179	C	0.414154	0.155004	0.062910
H180	H	0.329821	0.204871	0.113850
H181	H	0.396621	0.234954	0.062974
H182	H	0.329949	0.204899	0.011939
H183	H	0.448631	0.153112	0.113892
H184	H	0.381907	0.123128	0.062827
O185	O	0.491607	-0.020894	-0.000311
C186	C	0.419611	-0.072851	-0.063382
C187	C	0.449987	-0.023982	-0.063333
H188	H	0.385943	-0.075360	-0.114322
H189	H	0.464403	-0.103963	-0.063413
H190	H	0.385958	-0.075396	-0.012410
H191	H	0.483632	-0.021390	-0.114296
H192	H	0.405163	0.007107	-0.063263
O193	O	0.694706	-0.681900	-0.000181
C194	C	0.568325	-0.675552	-0.000185
C195	C	0.637989	-0.709732	-0.000228
H196	H	0.522451	-0.698041	-0.000238
H197	H	0.565430	-0.651670	0.050786
H198	H	0.565524	-0.651637	-0.051128
H199	H	0.640836	-0.733678	0.050681
H200	H	0.640855	-0.733582	-0.051233
O201	O	0.635205	-0.392065	-0.000244
C202	C	0.508981	-0.375039	-0.000186
C203	C	0.579461	-0.353827	-0.000171
H204	H	0.463893	-0.344134	-0.000112
H205	H	0.505409	-0.398322	-0.051157
H206	H	0.505469	-0.398372	0.050757
H207	H	0.583021	-0.330472	-0.051079
H208	H	0.583003	-0.330572	0.050834
O209	O	0.636750	-0.292743	-0.000335
C210	C	0.563710	-0.228956	-0.063375
C211	C	0.633345	-0.263166	-0.063343
H212	H	0.560941	-0.205028	-0.114303
H213	H	0.517787	-0.251402	-0.063416
H214	H	0.560870	-0.205088	-0.012391
H215	H	0.636254	-0.287041	-0.114318
H216	H	0.679235	-0.240692	-0.063264
O217	O	0.702278	-0.166059	-0.000213
C218	C	0.576053	-0.149050	-0.000150
C219	C	0.646524	-0.127828	-0.000131
H220	H	0.530957	-0.118150	-0.000068
H221	H	0.572485	-0.172329	-0.051126
H222	H	0.572548	-0.172389	0.050788
H223	H	0.650077	-0.104467	-0.051034
H224	H	0.650062	-0.104577	0.050879
O225	O	1.011406	-0.578428	-0.000425
C226	C	1.084444	-0.642203	-0.063515
C227	C	1.014818	-0.607982	-0.063442
H228	H	1.087219	-0.666113	-0.114451
H229	H	1.130375	-0.619765	-0.063572
H230	H	1.087262	-0.666088	-0.012539
H231	H	1.011932	-0.584090	-0.114410
H232	H	0.968919	-0.630449	-0.063347
O233	O	0.633038	-0.543375	-0.000341
C234	C	0.523970	-0.548684	-0.063391
C235	C	0.594429	-0.527444	-0.063345
H236	H	0.492728	-0.535805	-0.114317
H237	H	0.534263	-0.590063	-0.063448
H238	H	0.492737	-0.535883	-0.012405
H239	H	0.625698	-0.540209	-0.114323
H240	H	0.584086	-0.486068	-0.063250
H241	H	0.934404	-0.799559	-0.000274
H242	H	0.713749	-0.071630	-0.000171
H243	H	0.644461	-0.448908	-0.000203
