data_functionalizedCrystal
_audit_creation_method	'MofGen! by Chris Wilmer'
_symmetry_space_group_name_H-M	'P1'
_symmetry_Int_Tables_number	1
_symmetry_cell_setting	triclinic
loop_
_symmetry_equiv_pos_as_xyz
  x,y,z
_cell_length_a	12.759400
_cell_length_b	12.759401
_cell_length_c	11.169409
_cell_angle_alpha	90.021496
_cell_angle_beta	89.966206
_cell_angle_gamma	89.989237
loop_
_atom_site_label
_atom_site_type_symbol
_atom_site_fract_x
_atom_site_fract_y
_atom_site_fract_z
Zn1	Zn	-0.418291	-1.606271	-0.678584
Zn2	Zn	-0.594017	-1.606161	-0.477896
Zn3	Zn	-0.418340	-1.430568	-0.477913
Zn4	Zn	-0.593917	-1.430562	-0.678535
O5	O	-0.506141	-1.518390	-0.578232
O6	O	-0.441623	-1.753277	-0.651976
O7	O	-0.570776	-1.582825	-0.309948
O8	O	-0.271313	-1.453925	-0.504560
O9	O	-0.570728	-1.753196	-0.504531
O10	O	-0.271277	-1.583013	-0.651992
O11	O	-0.441707	-1.453818	-0.309961
O12	O	-0.441610	-1.283546	-0.504512
O13	O	-0.570557	-1.453913	-0.846491
O14	O	-0.570605	-1.283541	-0.651908
O15	O	-0.441526	-1.583006	-0.846527
O16	O	-0.741025	-1.582818	-0.504483
O17	O	-0.740951	-1.453806	-0.651892
C18	C	-0.506102	-1.245423	-0.578207
C19	C	-0.506111	-1.128646	-0.578225
C20	C	-0.439010	-1.073820	-0.655117
C21	C	-0.439025	-0.964095	-0.655122
C22	C	-0.573250	-0.964035	-0.501339
C23	C	-0.573229	-1.073757	-0.501329
C24	C	-0.371892	-1.128709	-0.732013
C25	C	-0.304786	-1.073882	-0.808912
C26	C	-0.304801	-0.964158	-0.808917
C27	C	-0.371921	-0.909261	-0.732022
C28	C	-0.779109	-1.518328	-0.578207
C29	C	-0.895885	-1.518397	-0.578236
C30	C	-0.950751	-1.585649	-0.501565
C31	C	-1.060475	-1.585713	-0.501602
C32	C	-1.060458	-1.451266	-0.654984
C33	C	-0.950736	-1.451208	-0.654953
C34	C	-0.895900	-1.652838	-0.424849
C35	C	-0.950765	-1.720094	-0.348171
C36	C	-1.060489	-1.720158	-0.348208
C37	C	-1.115348	-1.652967	-0.424923
C38	C	-0.232108	-1.518482	-0.578283
C39	C	-0.115331	-1.518520	-0.578305
C40	C	-0.506025	-1.518471	-0.891274
C41	C	-0.505975	-1.518505	-1.024675
C42	C	-0.506168	-0.792424	-0.578250
C43	C	-0.506146	-0.909200	-0.578239
C44	C	-0.506182	-1.518370	-0.266407
C45	C	-0.505935	-1.518540	-0.133008
H46	H	-0.371905	-0.819916	-0.732006
H47	H	-0.906094	-1.774805	-0.285719
H48	H	-0.627898	-0.919329	-0.438737
H49	H	-1.204693	-1.653033	-0.424957
H50	H	-0.627869	-1.118398	-0.438717
Cl51	Cl	-1.129424	-1.366801	-0.751415
Cl52	Cl	-0.757962	-1.653055	-0.425133
H53	H	-1.105158	-1.774928	-0.285782
H54	H	-0.906064	-1.396447	-0.717386
H55	H	-0.250153	-0.919521	-0.871523
H56	H	-0.250133	-1.118587	-0.871509
Cl57	Cl	-0.371874	-1.266647	-0.732018
