data_functionalizedCrystal
_audit_creation_method	'MofGen! by Chris Wilmer'
_symmetry_space_group_name_H-M	'P1'
_symmetry_Int_Tables_number	1
_symmetry_cell_setting	triclinic
loop_
_symmetry_equiv_pos_as_xyz
  x,y,z
_cell_length_a	13.897448
_cell_length_b	12.759401
_cell_length_c	12.759393
_cell_angle_alpha	89.980404
_cell_angle_beta	89.967728
_cell_angle_gamma	90.017969
loop_
_atom_site_label
_atom_site_type_symbol
_atom_site_fract_x
_atom_site_fract_y
_atom_site_fract_z
Zn1	Zn	-0.383961	1.606244	-0.593970
Zn2	Zn	-0.050628	1.939578	-0.260636
Zn3	Zn	0.282706	2.272911	0.072697
Zn4	Zn	-0.545288	1.606126	-0.418284
Zn5	Zn	-0.211954	1.939460	-0.084951
Zn6	Zn	0.121379	2.272793	0.248382
Zn7	Zn	-0.384009	1.430543	-0.418309
Zn8	Zn	-0.050676	1.763877	-0.084975
Zn9	Zn	0.282658	2.097210	0.248358
Zn10	Zn	-0.545217	1.430526	-0.593926
Zn11	Zn	-0.211883	1.763859	-0.260592
Zn12	Zn	0.121450	2.097193	0.072741
O13	O	-0.464619	1.518360	-0.506122
O14	O	-0.131285	1.851693	-0.172789
O15	O	0.202048	2.185027	0.160545
O16	O	-0.405371	1.753250	-0.570673
O17	O	-0.072038	2.086583	-0.237339
O18	O	0.261296	2.419917	0.095994
O19	O	-0.523943	1.582793	-0.271266
O20	O	-0.190610	1.916126	0.062067
O21	O	0.142723	2.249459	0.395400
O22	O	-0.249021	1.453907	-0.441639
O23	O	0.084312	1.787240	-0.108306
O24	O	0.417646	2.120574	0.225027
O25	O	-0.523897	1.753163	-0.441597
O26	O	-0.190564	2.086496	-0.108264
O27	O	0.142770	2.419830	0.225069
O28	O	-0.248986	1.582994	-0.570696
O29	O	0.084348	1.916327	-0.237363
O30	O	0.417681	2.249661	0.095970
O31	O	-0.405453	1.453793	-0.271284
O32	O	-0.072119	1.787126	0.062049
O33	O	0.261214	2.120459	0.395382
O34	O	-0.405384	1.283520	-0.441597
O35	O	-0.072050	1.616853	-0.108263
O36	O	0.261283	1.950187	0.225070
O37	O	-0.523776	1.453878	-0.740952
O38	O	-0.190443	1.787211	-0.407619
O39	O	0.142891	2.120544	-0.074286
O40	O	-0.523822	1.283507	-0.570621
O41	O	-0.190489	1.616841	-0.237288
O42	O	0.142844	1.950174	0.096045
O43	O	-0.405302	1.582977	-0.740985
O44	O	-0.071969	1.916311	-0.407651
O45	O	0.261364	2.249644	-0.074318
O46	O	-0.680260	1.582776	-0.441555
O47	O	-0.346926	1.916109	-0.108221
O48	O	-0.013593	2.249443	0.225112
O49	O	-0.680208	1.453763	-0.570598
O50	O	-0.346874	1.787096	-0.237264
O51	O	-0.013541	2.120430	0.096069
C52	C	-0.464601	1.245393	-0.506108
C53	C	-0.131268	1.578726	-0.172774
C54	C	0.202065	1.912059	0.160559
C55	C	-0.464617	1.128616	-0.506126
C56	C	-0.131284	1.461949	-0.172793
C57	C	0.202050	1.795283	0.160540
C58	C	-0.526397	0.964044	-0.573211
C59	C	-0.193063	1.297377	-0.239878
C60	C	0.140270	1.630710	0.093456
C61	C	-0.526386	1.073768	-0.573200
C62	C	-0.193052	1.407101	-0.239867
C63	C	0.140281	1.740435	0.093467
C64	C	-0.402862	1.073734	-0.439051
C65	C	-0.069529	1.407068	-0.105718
C66	C	0.263805	1.740401	0.227615
C67	C	-0.402878	0.964012	-0.439058
C68	C	-0.069545	1.297346	-0.105725
C69	C	0.263788	1.630679	0.227609
C70	C	-0.715233	1.518283	-0.506092
C71	C	-0.381900	1.851617	-0.172758
C72	C	-0.048566	2.184950	0.160575
C73	C	-0.822447	1.518347	-0.506114
C74	C	-0.489113	1.851680	-0.172780
C75	C	-0.155780	2.185013	0.160553
C76	C	-1.018742	1.518457	-0.506180
C77	C	-0.685409	1.851790	-0.172846
C78	C	-0.352075	2.185124	0.160487
C79	C	-0.909509	1.518393	-0.506146
C80	C	-0.576176	1.851726	-0.172813
C81	C	-0.242843	2.185059	0.160521
C82	C	-0.213026	1.518466	-0.506176
C83	C	0.120308	1.851799	-0.172842
C84	C	0.453641	2.185132	0.160491
C85	C	-0.105812	1.518511	-0.506198
C86	C	0.227522	1.851844	-0.172865
C87	C	0.560855	2.185177	0.160468
C88	C	-0.464526	1.518439	-0.780155
C89	C	-0.131193	1.851772	-0.446822
C90	C	0.202141	2.185105	-0.113489
C91	C	-0.464486	1.518472	-0.896932
C92	C	-0.131153	1.851805	-0.563599
C93	C	0.202180	2.185139	-0.230266
C94	C	-0.464637	1.792393	-0.506137
C95	C	-0.131303	2.125727	-0.172804
C96	C	0.202030	2.459060	0.160530
C97	C	-0.464644	1.909170	-0.506144
C98	C	-0.131311	2.242503	-0.172810
C99	C	0.202022	2.575837	0.160523
C100	C	-0.402787	1.585699	-0.951813
C101	C	-0.069454	1.919033	-0.618479
C102	C	0.263879	2.252366	-0.285146
C103	C	-0.402746	1.585717	-1.061537
C104	C	-0.069412	1.919050	-0.728204
C105	C	0.263921	2.252384	-0.394870
C106	C	-0.526111	1.451278	-1.061490
C107	C	-0.192777	1.784611	-0.728157
C108	C	0.140556	2.117944	-0.394824
C109	C	-0.526147	1.451255	-0.951768
C110	C	-0.192813	1.784589	-0.618435
C111	C	0.140520	2.117922	-0.285102
C112	C	-0.464641	1.518342	-0.233155
C113	C	-0.131308	1.851675	0.100179
C114	C	0.202025	2.185009	0.433512
C115	C	-0.464409	1.518512	-0.116379
C116	C	-0.131076	1.851846	0.216955
C117	C	0.202258	2.185179	0.550288
H118	H	-0.352573	1.118401	-0.384434
H119	H	-0.019240	1.451734	-0.051101
H120	H	0.314093	1.785067	0.282233
F121	F	-0.592136	0.905680	-0.644607
F122	F	-0.258802	1.239013	-0.311273
F123	F	0.074531	1.572347	0.022060
F124	F	-0.592113	1.132164	-0.644580
F125	F	-0.258780	1.465497	-0.311247
F126	F	0.074553	1.798831	0.022087
F127	F	-0.337083	1.657277	-1.119940
F128	F	-0.003750	1.990610	-0.786607
F129	F	0.329583	2.323943	-0.453273
F130	F	-0.337152	0.905608	-0.367668
F131	F	-0.003819	1.238941	-0.034335
F132	F	0.329514	1.572275	0.298998
F133	F	-0.337161	1.657235	-0.893456
F134	F	-0.003827	1.990568	-0.560122
F135	F	0.329506	2.323901	-0.226789
H136	H	-0.576314	1.396554	-1.106151
H137	H	-0.242981	1.729888	-0.772818
H138	H	0.090352	2.063221	-0.439484
F139	F	-0.591814	1.379694	-0.893357
F140	F	-0.258481	1.713027	-0.560024
F141	F	0.074852	2.046361	-0.226690
