data_functionalizedCrystal
_audit_creation_method	'MofGen! by Chris Wilmer'
_symmetry_space_group_name_H-M	'P1'
_symmetry_Int_Tables_number	1
_symmetry_cell_setting	triclinic
loop_
_symmetry_equiv_pos_as_xyz
  x,y,z
_cell_length_a	12.811457
_cell_length_b	10.540539
_cell_length_c	11.892095
_cell_angle_alpha	93.930600
_cell_angle_beta	91.498327
_cell_angle_gamma	84.283253
loop_
_atom_site_label
_atom_site_type_symbol
_atom_site_fract_x
_atom_site_fract_y
_atom_site_fract_z
O1	O	1.390505	0.175139	0.048552
O2	O	1.087263	0.191061	0.017463
O3	O	1.245802	-0.001585	0.033718
O4	O	1.231966	0.367785	0.032297
O5	O	1.232583	0.014452	0.220370
O6	O	1.074044	0.207099	0.204115
O7	O	1.377286	0.191176	0.235204
Zn8	Zn	1.223566	0.201684	0.249294
Zn9	Zn	1.240983	0.180554	0.003372
O10	O	1.218747	0.383823	0.218949
C11	C	1.041824	0.197696	0.106808
C12	C	0.926123	0.193558	0.094946
C13	C	0.694297	0.203244	0.276167
C14	C	0.585586	0.199356	0.265027
C15	C	0.599988	0.181885	0.061528
C16	C	0.708699	0.185773	0.072667
C17	C	0.755850	0.196455	0.179991
C18	C	0.864562	0.200352	0.191129
C19	C	0.878963	0.182872	-0.012369
C20	C	0.770252	0.178983	-0.023509
C21	C	1.238155	-0.040873	0.126936
C22	C	1.235051	-0.181831	0.126611
C23	C	1.116122	-0.365660	0.113996
C24	C	1.119239	-0.218996	0.114739
C25	C	1.283236	-0.234159	0.238913
C26	C	1.279278	-0.380708	0.238597
C27	C	1.296665	-0.399456	0.026580
C28	C	1.297832	-0.252592	0.025281
C29	C	1.422726	0.184541	0.145856
C30	C	1.538427	0.188678	0.157711
C31	C	1.226394	0.423110	0.125729
C32	C	1.229499	0.564067	0.126046
N33	N	1.211688	0.216104	0.417131
N34	N	1.252870	0.166124	-0.164463
C35	C	1.335526	0.065710	0.666476
C36	C	1.327231	0.075799	0.783967
C37	C	1.186797	0.246363	0.769606
C38	C	1.195092	0.236274	0.652115
C39	C	1.269461	0.145946	0.600554
C40	C	1.277760	0.135864	0.483061
C41	C	1.137322	0.306422	0.468702
C42	C	1.129027	0.316511	0.586193
H43	H	0.902949	0.209057	0.278517
C44	C	0.746164	0.215002	0.394221
N45	N	0.785229	0.223856	0.483143
C46	C	1.052260	-0.153880	0.212020
N47	N	1.001809	-0.104835	0.285297
C48	C	1.409739	-0.463000	0.037192
N49	N	1.494902	-0.510868	0.045192
C50	C	0.718373	0.167234	-0.141558
N51	N	0.679299	0.158389	-0.230476
H52	H	0.929090	0.177351	-0.090683
C53	C	1.412521	-0.220277	0.028283
N54	N	1.498910	-0.195941	0.030556
H55	H	1.065177	-0.389477	0.185333
H56	H	1.396087	-0.007831	0.624495
C57	C	1.067295	-0.170487	0.005448
N58	N	1.028163	-0.133956	-0.076871
C59	C	1.399905	-0.012472	0.856477
N60	N	1.454645	-0.078964	0.911091
C61	C	1.061621	-0.413372	0.004406
N62	N	1.020569	-0.449322	-0.078139
H63	H	1.368005	-0.211202	0.251595
C64	C	1.104973	0.345686	0.826342
N65	N	1.043336	0.420489	0.869075
H66	H	0.561581	0.173167	-0.025849
C67	C	1.047219	0.415858	0.642923
N68	N	0.985599	0.490688	0.685651
C69	C	1.223339	-0.167574	0.340709
N70	N	1.178218	-0.117425	0.417378
C71	C	1.359563	0.036499	0.426346
N72	N	1.421176	-0.038351	0.383631
H73	H	1.083530	0.371759	0.415015
H74	H	0.535473	0.204892	0.343344
H75	H	1.232445	-0.402188	0.314051
C76	C	1.391332	-0.444605	0.256683
N77	N	1.475730	-0.492726	0.270312
H78	H	1.264904	-0.438066	-0.058049
H79	H	1.262636	-0.218634	-0.057751
