data_functionalizedCrystal
_audit_creation_method	'MofGen! by Chris Wilmer'
_symmetry_space_group_name_H-M	'P1'
_symmetry_Int_Tables_number	1
_symmetry_cell_setting	triclinic
loop_
_symmetry_equiv_pos_as_xyz
  x,y,z
_cell_length_a	19.805407
_cell_length_b	16.120484
_cell_length_c	19.805399
_cell_angle_alpha	87.128957
_cell_angle_beta	90.019573
_cell_angle_gamma	92.925608
loop_
_atom_site_label
_atom_site_type_symbol
_atom_site_fract_x
_atom_site_fract_y
_atom_site_fract_z
Zn1	Zn	1.021075	-0.331927	0.396377
Zn2	Zn	1.521075	0.168073	0.896377
Zn3	Zn	1.015252	-0.471346	0.288925
Zn4	Zn	1.515252	0.028654	0.788925
Zn5	Zn	0.907889	-0.331950	0.283203
Zn6	Zn	1.407889	0.168050	0.783203
Zn7	Zn	0.902117	-0.471302	0.402070
Zn8	Zn	1.402117	0.028698	0.902070
O9	O	0.961584	-0.401631	0.342644
O10	O	1.461584	0.098369	0.842644
O11	O	1.115019	-0.350431	0.382136
O12	O	1.615019	0.149569	0.882136
O13	O	1.000989	-0.452883	0.193451
O14	O	1.500989	0.047117	0.693451
O15	O	0.927756	-0.215281	0.293438
O16	O	1.427756	0.284719	0.793438
O17	O	1.110741	-0.452861	0.303191
O18	O	1.610741	0.047139	0.803191
O19	O	1.010913	-0.215264	0.376587
O20	O	1.510913	0.284736	0.876587
O21	O	0.922109	-0.350470	0.189246
O22	O	1.422109	0.149530	0.689246
O23	O	0.812407	-0.350427	0.298958
O24	O	1.312407	0.149573	0.798958
O25	O	0.917919	-0.452785	0.496030
O26	O	1.417919	0.047215	0.996030
O27	O	0.808167	-0.452807	0.386290
O28	O	1.308167	0.047193	0.886290
O29	O	1.005317	-0.350388	0.491848
O30	O	1.505317	0.149612	0.991848
O31	O	0.995392	-0.588006	0.308712
O32	O	1.495392	-0.088006	0.808712
O33	O	0.912273	-0.587974	0.391839
O34	O	1.412273	-0.087974	0.891839
C35	C	0.785728	-0.401615	0.342621
C36	C	1.285728	0.098385	0.842621
C37	C	0.710496	-0.401629	0.342628
C38	C	1.210496	0.098371	0.842628
C39	C	0.672958	-0.455019	0.388035
C40	C	1.172958	0.044981	0.888035
C41	C	0.602269	-0.455020	0.388045
C42	C	1.102269	0.044980	0.888045
C43	C	0.569120	-0.401635	0.342644
C44	C	1.069120	0.098365	0.842644
C45	C	0.606663	-0.348239	0.297235
C46	C	1.106663	0.151761	0.797235
C47	C	0.677350	-0.348234	0.297229
C48	C	1.177350	0.151766	0.797229
C49	C	0.321589	-0.348258	0.297258
C50	C	0.821589	0.151742	0.797258
C51	C	0.250896	-0.348269	0.297266
C52	C	0.750896	0.151731	0.797266
C53	C	0.246508	-0.455043	0.388074
C54	C	0.746508	0.044957	0.888074
C55	C	0.317195	-0.455038	0.388068
C56	C	0.817195	0.044962	0.888068
C57	C	0.354732	-0.401640	0.342662
C58	C	0.854732	0.098360	0.842662
C59	C	0.431381	-0.401638	0.342653
C60	C	0.931381	0.098362	0.842653
C61	C	0.492472	-0.401641	0.342649
C62	C	0.992472	0.098359	0.842649
C63	C	0.952593	-0.618240	0.351529
C64	C	1.452593	-0.118240	0.851529
C65	C	0.948809	-0.710906	0.355353
C66	C	1.448809	-0.210906	0.855353
C67	C	0.941903	-0.880568	0.362347
C68	C	1.441903	-0.380568	0.862347
C69	C	0.981385	-0.921854	0.322951
C70	C	1.481385	-0.421854	0.822951
C71	C	0.977543	-1.016260	0.326843
C72	C	1.477543	-0.516260	0.826843
C73	C	0.945745	-0.786154	0.358456
C74	C	1.445745	-0.286154	0.858456
C75	C	1.138126	-0.401648	0.342667
C76	C	1.638126	0.098352	0.842667
C77	C	1.213357	-0.401655	0.342677
C78	C	1.713357	0.098345	0.842677
C79	C	0.961624	-0.401579	0.519184
C80	C	1.461624	0.098421	1.019184
C81	C	0.961641	-0.401556	0.594416
C82	C	1.461641	0.098444	1.094416
C83	C	0.970628	-0.184177	0.333739
C84	C	1.470628	0.315823	0.833739
C85	C	0.974482	-0.091511	0.329944
C86	C	1.474482	0.408489	0.829944
C87	C	0.961585	-0.401623	0.166787
C88	C	1.461585	0.098377	0.666787
C89	C	0.961709	-0.401411	0.091547
C90	C	1.461709	0.098589	0.591547
C91	C	1.007150	-0.348235	0.627583
C92	C	1.507150	0.151765	1.127583
C93	C	1.007158	-0.348211	0.698270
C94	C	1.507158	0.151789	1.198270
C95	C	0.961659	-0.401513	0.735789
C96	C	1.461659	0.098487	1.235789
C97	C	0.916145	-0.454836	0.702617
C98	C	1.416145	0.045164	1.202617
C99	C	0.916135	-0.454856	0.631931
C100	C	1.416135	0.045144	1.131931
C101	C	0.916187	-0.454759	0.987688
C102	C	1.416187	0.045241	1.487688
C103	C	0.916202	-0.454737	1.058379
C104	C	1.416202	0.045263	1.558379
C105	C	1.007210	-0.348114	1.054027
C106	C	1.507210	0.151886	1.554027
C107	C	1.007199	-0.348133	0.983340
C108	C	1.507199	0.151867	1.483340
C109	C	0.961683	-0.401453	0.950174
C110	C	1.461683	0.098547	1.450174
C111	C	0.961674	-0.401478	0.873527
C112	C	1.461674	0.098522	1.373527
C113	C	0.961671	-0.401493	0.812436
C114	C	1.461671	0.098507	1.312436
H115	H	0.699943	-0.498494	0.425004
H116	H	1.199943	0.001506	0.925004
H117	H	0.905219	-0.916121	0.398995
H118	H	1.405219	-0.416121	0.898995
F119	F	0.206553	-0.511875	0.436400
F120	F	0.706553	-0.011875	0.936400
H121	H	0.707913	-0.304754	0.260258
H122	H	1.207913	0.195246	0.760258
F123	F	1.055580	-0.291508	0.587658
F124	F	1.555580	0.208492	1.087658
H125	H	0.879149	-0.498143	1.088925
H126	H	1.379149	0.001857	1.588925
F127	F	1.029336	-0.875384	0.275043
F128	F	1.529336	-0.375384	0.775043
F129	F	1.055617	-0.291488	0.733567
F130	F	1.555617	0.208512	1.233567
F131	F	0.562322	-0.511845	0.436373
F132	F	1.062322	-0.011845	0.936373
H133	H	0.344182	-0.498513	0.425036
H134	H	0.844182	0.001487	0.925036
H135	H	1.044251	-0.304733	0.952796
H136	H	1.544251	0.195267	1.452796
H137	H	1.044269	-0.304695	1.081039
H138	H	1.544269	0.195305	1.581039
H139	H	0.879134	-0.498187	0.960693
H140	H	1.379134	0.001813	1.460693
F141	F	0.867720	-0.511561	0.742550
F142	F	1.367720	-0.011561	1.242550
H143	H	0.223908	-0.304791	0.260295
H144	H	0.723908	0.195209	0.760295
F145	F	0.361529	-0.291424	0.248934
F146	F	0.861529	0.208576	0.748934
H147	H	0.579667	-0.304769	0.260272
H148	H	1.079667	0.195231	0.760272
F149	F	0.867696	-0.511605	0.596632
F150	F	1.367696	-0.011605	1.096632
