data_functionalizedCrystal
_audit_creation_method	'MofGen! by Chris Wilmer'
_symmetry_space_group_name_H-M	'P1'
_symmetry_Int_Tables_number	1
_symmetry_cell_setting	triclinic
loop_
_symmetry_equiv_pos_as_xyz
  x,y,z
_cell_length_a	6.817900
_cell_length_b	19.551823
_cell_length_c	17.110486
_cell_angle_alpha	96.698619
_cell_angle_beta	99.060439
_cell_angle_gamma	101.663376
loop_
_atom_site_label
_atom_site_type_symbol
_atom_site_fract_x
_atom_site_fract_y
_atom_site_fract_z
V1	V	-3.967875	-0.096467	-0.247089
O2	O	-3.965827	0.004850	-0.242005
O3	O	-3.910834	-0.191483	-0.245766
O4	O	-3.897881	-0.094889	-0.354686
O5	O	-3.978870	-0.092413	-0.132330
V6	V	-4.455421	-0.084359	-0.233319
O7	O	-4.220309	-0.123025	-0.277296
O8	O	-4.653184	-0.057800	-0.203112
O9	O	-4.289256	0.010657	-0.234642
O10	O	-4.574866	-0.185675	-0.238403
O11	O	-4.561823	-0.088412	-0.348078
O12	O	-4.302209	-0.085937	-0.125722
C13	C	-3.754431	-0.214649	-0.241962
C14	C	-3.788936	-0.292325	-0.241597
C15	C	-3.986117	-0.332368	-0.245382
C16	C	-4.018541	-0.405354	-0.245047
C17	C	-3.853767	-0.438293	-0.240911
C18	C	-3.656559	-0.398242	-0.237129
C19	C	-3.624143	-0.325258	-0.237472
C20	C	-3.750609	-0.544823	-0.190733
C21	C	-3.783029	-0.617805	-0.190386
C22	C	-3.953741	-0.663400	-0.239856
C23	C	-4.092057	-0.636003	-0.289665
C24	C	-4.059642	-0.563019	-0.290008
C25	C	-3.888896	-0.517431	-0.240539
C26	C	-4.186093	-0.782583	-0.243280
C27	C	-4.218512	-0.855571	-0.242949
C28	C	-3.856520	-0.848456	-0.235023
C29	C	-3.824110	-0.775470	-0.235361
C30	C	-3.988903	-0.742538	-0.239486
C31	C	-3.737907	-0.091432	-0.380901
C32	C	-3.761905	-0.090771	-0.468864
C33	C	-3.954149	-0.093948	-0.514234
C34	C	-3.976686	-0.093326	-0.596885
C35	C	-3.806979	-0.089532	-0.634165
C36	C	-3.614718	-0.086353	-0.588789
C37	C	-3.592181	-0.086970	-0.506139
C38	C	-3.865969	-0.087491	-0.883512
C39	C	-3.888522	-0.086877	-0.966169
C40	C	-4.250489	-0.093848	-0.974259
C41	C	-4.227937	-0.094468	-0.891608
C42	C	-4.035678	-0.091286	-0.846238
C43	C	-3.830012	-0.088899	-0.718648
C44	C	-4.012645	-0.091914	-0.761756
C45	C	-4.109001	0.033819	-0.238444
C46	C	-4.053733	0.111495	-0.238814
C47	C	-4.125525	-0.089395	-0.099503
C48	C	-4.080766	-0.090053	-0.011539
H49	H	-3.722358	-0.875275	-0.231660
H50	H	-4.366134	-0.097557	-0.861260
H51	H	-3.435629	-0.084366	-0.469196
H52	H	-4.172263	-0.540715	-0.330565
Cl53	Cl	-3.449414	-0.439650	-0.231933
Cl54	Cl	-4.218379	-0.097329	-0.653920
Cl55	Cl	-3.576207	-0.725127	-0.230595
Cl56	Cl	-3.609167	-0.652238	-0.127758
H57	H	-4.179116	-0.437963	-0.248130
Cl58	Cl	-4.306679	-0.693314	-0.351859
H59	H	-4.320277	-0.755767	-0.246637
H60	H	-4.092350	-0.097041	-0.483888
Cl61	Cl	-4.466422	-0.905912	-0.247715
H62	H	-3.463572	-0.292655	-0.234391
Cl63	Cl	-3.401370	-0.081585	-0.635656
Cl64	Cl	-4.492172	-0.097845	-1.031299
Cl65	Cl	-3.535976	-0.487511	-0.128540
Cl66	Cl	-3.675157	-0.082107	-1.013034
H67	H	-3.709435	-0.084924	-0.846586
H68	H	-3.691841	-0.085813	-0.749011
H69	H	-4.120310	-0.305559	-0.248746
Cl70	Cl	-4.225982	-0.096682	-0.714888
