data_functionalizedCrystal
_audit_creation_method	'MofGen! by Chris Wilmer'
_symmetry_space_group_name_H-M	'P1'
_symmetry_Int_Tables_number	1
_symmetry_cell_setting	triclinic
loop_
_symmetry_equiv_pos_as_xyz
  x,y,z
_cell_length_a	13.101039
_cell_length_b	14.044220
_cell_length_c	14.044220
_cell_angle_alpha	93.188878
_cell_angle_beta	93.667477
_cell_angle_gamma	86.340132
loop_
_atom_site_label
_atom_site_type_symbol
_atom_site_fract_x
_atom_site_fract_y
_atom_site_fract_z
O1	O	0.085109	-1.281968	-0.225348
O2	O	0.085135	-1.005298	-0.217041
O3	O	0.085112	-1.139480	-0.082860
O4	O	0.085132	-1.147787	-0.359530
O5	O	-0.085316	-1.129854	-0.092504
O6	O	-0.085293	-0.995673	-0.226686
O7	O	-0.085319	-1.272343	-0.234993
Zn8	Zn	-0.112365	-1.132479	-0.232371
Zn9	Zn	0.112181	-1.145162	-0.219663
O10	O	-0.085296	-1.138161	-0.369175
C11	C	-0.000076	-0.964864	-0.218228
C12	C	-0.000066	-0.858722	-0.207383
C13	C	-0.000102	-1.131031	-0.052060
C14	C	-0.000102	-1.120187	0.054083
N15	N	-0.265612	-1.123831	-0.241043
C16	C	-0.474653	-1.112065	-0.252851
C17	C	-0.525538	-1.165580	-0.199179
C18	C	-0.641855	-1.159034	-0.205749
C19	C	-0.358325	-1.118610	-0.246282
N20	N	0.265428	-1.153817	-0.210984
C21	C	-0.000106	-1.312777	-0.233806
C22	C	-0.000109	-1.418920	-0.244651
C23	C	-0.000088	-0.664383	-0.187558
C24	C	-0.000087	-0.613253	-0.264472
C25	C	-0.000099	-0.505116	-0.253441
C26	C	-0.000076	-0.772529	-0.198587
C27	C	-0.000080	-1.146610	-0.399974
C28	C	-0.000073	-1.157455	-0.506116
C29	C	-0.000086	-1.100362	0.248421
C30	C	-0.000090	-1.177276	0.299551
C31	C	-0.000080	-1.166245	0.407688
C32	C	-0.000095	-1.111391	0.140275
H33	H	-0.481744	-1.216314	-0.148295
C34	C	-0.000057	-0.663825	-0.364618
H35	H	-0.000038	-0.730926	-0.358993
H36	H	-0.059481	-0.642539	-0.401697
H37	H	0.059391	-0.649224	-0.394941
H38	H	-0.000099	-0.626945	-0.113431
C39	C	-0.533802	-1.043511	-0.321568
H40	H	-0.486582	-1.010781	-0.354372
H41	H	-0.575668	-1.078945	-0.366503
H42	H	-0.575645	-0.998493	-0.286208
H43	H	-0.000028	-1.251413	0.262115
C44	C	-0.000075	-1.000219	0.298988
H45	H	-0.000067	-0.953407	0.252690
H46	H	-0.059502	-0.989376	0.334380
H47	H	0.059370	-0.996089	0.341088
