data_functionalizedCrystal
_audit_creation_method	'MofGen! by Chris Wilmer'
_symmetry_space_group_name_H-M	'P1'
_symmetry_Int_Tables_number	1
_symmetry_cell_setting	triclinic
loop_
_symmetry_equiv_pos_as_xyz
  x,y,z
_cell_length_a	11.792241
_cell_length_b	16.109301
_cell_length_c	14.586319
_cell_angle_alpha	89.994230
_cell_angle_beta	90.000068
_cell_angle_gamma	83.827448
loop_
_atom_site_label
_atom_site_type_symbol
_atom_site_fract_x
_atom_site_fract_y
_atom_site_fract_z
O1	O	-1.505909	-0.113954	0.076154
O2	O	-1.005909	0.386046	0.576154
O3	O	-1.175465	-0.125698	0.076176
O4	O	-0.675465	0.374302	0.576176
O5	O	-1.349764	0.001162	0.076155
O6	O	-0.849764	0.501162	0.576155
O7	O	-1.331609	-0.240814	0.076175
O8	O	-0.831609	0.259186	0.576175
O9	O	-1.349750	0.001166	-0.076325
O10	O	-0.849750	0.501166	0.423675
O11	O	-1.175451	-0.125695	-0.076305
O12	O	-0.675451	0.374305	0.423695
O13	O	-1.505895	-0.113951	-0.076326
O14	O	-1.005895	0.386049	0.423674
Cu15	Cu	-1.340671	-0.119822	-0.090238
Cu16	Cu	-0.840671	0.380178	0.409762
Cu17	Cu	-1.340688	-0.119826	0.090088
Cu18	Cu	-0.840688	0.380174	0.590088
O19	O	-1.331595	-0.240811	-0.076306
O20	O	-0.831595	0.259189	0.423694
C21	C	-1.133173	-0.124959	-0.000062
C22	C	-0.633173	0.375041	0.499938
C23	C	-1.007179	-0.122751	-0.000054
C24	C	-0.507179	0.377249	0.499946
C25	C	-1.548186	-0.114690	-0.000087
C26	C	-1.048186	0.385310	0.499913
C27	C	-1.674181	-0.116898	-0.000088
C28	C	-1.174181	0.383102	0.499912
C29	C	-1.349022	0.032142	-0.000085
C30	C	-0.849022	0.532142	0.499915
C31	C	-1.346817	0.124448	-0.000087
C32	C	-0.846817	0.624448	0.499913
C33	C	-0.776502	-0.118690	-0.000080
C34	C	-0.276502	0.381310	0.499920
C35	C	-0.904868	-0.120946	-0.000066
C36	C	-0.404868	0.379054	0.499934
C37	C	-1.332338	-0.271791	-0.000063
C38	C	-0.832338	0.228209	0.499937
C39	C	-1.334542	-0.364097	-0.000055
C40	C	-0.834542	0.135903	0.499945
N41	N	-1.340668	-0.119819	-0.217070
N42	N	-0.840668	0.380181	0.282930
C43	C	-1.445116	0.346258	-0.000078
C44	C	-0.945116	0.846258	0.499922
C45	C	-1.443036	0.432988	-0.000071
C46	C	-0.943036	0.932988	0.499929
C47	C	-1.236235	0.414087	-0.000061
C48	C	-0.736235	0.914087	0.499939
C49	C	-1.238317	0.327358	-0.000062
C50	C	-0.738317	0.827358	0.499938
C51	C	-1.342761	0.293446	-0.000075
C52	C	-0.842761	0.793446	0.499925
C53	C	-1.338599	0.466905	-0.000067
C54	C	-0.838599	0.966905	0.499933
C55	C	-1.336342	0.560942	-0.000058
C56	C	-0.836342	1.060942	0.499942
C57	C	-1.345018	0.199404	-0.000082
C58	C	-0.845018	0.699404	0.499918
C59	C	-1.417878	-0.063664	-0.548073
C60	C	-0.917878	0.436336	-0.048073
C61	C	-1.417875	-0.063665	-0.452092
C62	C	-0.917875	0.436335	0.047908
C63	C	-1.263487	-0.175984	-0.452084
C64	C	-0.763487	0.324016	0.047916
C65	C	-1.263496	-0.175987	-0.548063
C66	C	-0.763496	0.324013	-0.048063
C67	C	-1.340690	-0.119822	-0.596055
C68	C	-0.840690	0.380178	-0.096055
C69	C	-1.340678	-0.119820	-0.404095
C70	C	-0.840678	0.380180	0.095905
C71	C	-1.340675	-0.119821	-0.300028
C72	C	-0.840675	0.380179	0.199972
C73	C	-1.340696	-0.119822	-0.700129
C74	C	-0.840696	0.380178	-0.200129
N75	N	-1.340700	-0.119823	0.216920
N76	N	-0.840700	0.380177	0.716920
H77	H	-1.530161	0.318650	-0.000088
H78	H	-1.030161	0.818650	0.499912
F79	F	-1.551977	0.489191	-0.000072
F80	F	-1.051977	0.989191	0.499928
H81	H	-1.151201	0.441709	-0.000052
H82	H	-0.651201	0.941709	0.499948
H83	H	-1.200640	-0.221721	-0.587133
H84	H	-0.700640	0.278279	-0.087133
H85	H	-1.154962	0.284357	-0.000057
H86	H	-0.654962	0.784357	0.499943
F87	F	-1.500038	-0.003891	-0.599146
F88	F	-1.000038	0.496109	-0.099146
H89	H	-1.200635	-0.221711	-0.412999
H90	H	-0.700635	0.278289	0.087001
H91	H	-1.480730	-0.017937	-0.413027
H92	H	-0.980730	0.482063	0.086973
