data_functionalizedCrystal
_audit_creation_method	'MofGen! by Chris Wilmer'
_symmetry_space_group_name_H-M	'P1'
_symmetry_Int_Tables_number	1
_symmetry_cell_setting	triclinic
loop_
_symmetry_equiv_pos_as_xyz
  x,y,z
_cell_length_a	17.038278
_cell_length_b	17.038272
_cell_length_c	9.730223
_cell_angle_alpha	89.998176
_cell_angle_beta	89.999541
_cell_angle_gamma	91.111028
loop_
_atom_site_label
_atom_site_type_symbol
_atom_site_fract_x
_atom_site_fract_y
_atom_site_fract_z
O1	O	1.048749	0.170523	-0.114303
O2	O	0.820938	0.167818	-0.114304
O3	O	0.933490	0.055265	-0.114293
O4	O	0.936197	0.283076	-0.114314
O5	O	0.933488	0.055268	0.114287
O6	O	0.820937	0.167821	0.114276
O7	O	1.048748	0.170526	0.114277
Zn8	Zn	0.934842	0.169174	0.150568
Zn9	Zn	0.934844	0.169170	-0.150595
O10	O	0.936196	0.283079	0.114266
C11	C	0.791645	0.165356	-0.000014
C12	C	0.704361	0.158009	-0.000014
C13	C	0.931026	0.025974	-0.000003
C14	C	0.923678	-0.061310	-0.000003
C15	C	0.210935	0.112872	-0.000014
C16	C	0.292947	0.119781	-0.000007
C17	C	0.329347	0.194155	-0.000020
C18	C	0.283730	0.261623	-0.000027
C19	C	0.201720	0.254713	-0.000025
C20	C	0.576734	0.218567	-0.000018
C21	C	0.658751	0.225473	-0.000025
C22	C	0.667962	0.083630	-0.000002
C23	C	0.585949	0.076726	-0.000008
C24	C	0.540340	0.144194	-0.000008
C25	C	0.413176	0.201219	-0.000017
C26	C	0.456513	0.137129	-0.000001
C27	C	0.991142	-0.106920	-0.000002
C28	C	0.984233	-0.188932	-0.000015
C29	C	0.909859	-0.225332	-0.000019
C30	C	0.842391	-0.179716	-0.000025
C31	C	0.849300	-0.097706	-0.000022
C32	C	0.885449	-0.472720	-0.000038
C33	C	0.878544	-0.554736	-0.000037
C34	C	1.020387	-0.563946	-0.000030
C35	C	1.027290	-0.481934	-0.000018
C36	C	0.959821	-0.436325	-0.000031
C37	C	0.902796	-0.309161	-0.000028
C38	C	0.966886	-0.352497	-0.000032
C39	C	1.078041	0.172988	-0.000016
C40	C	1.165325	0.180335	-0.000026
C41	C	0.938660	0.312370	-0.000027
C42	C	0.946008	0.399654	-0.000036
N43	N	0.934847	0.169176	0.356105
N44	N	0.934845	0.169162	-0.356132
C45	C	0.984699	0.119357	0.428036
C46	C	0.984697	0.119347	0.571919
C47	C	0.884987	0.218983	0.571927
C48	C	0.884986	0.218989	0.428047
C49	C	1.034560	0.069545	0.356094
C50	C	1.084418	0.019722	0.428025
C51	C	1.084415	0.019712	0.571908
C52	C	1.034555	0.069526	0.643860
H53	H	0.181305	0.052309	-0.000012
H54	H	0.830511	-0.435595	-0.000048
O55	O	0.337289	0.054272	0.000237
C56	C	0.385017	0.054034	0.118603
H57	H	0.357686	0.092194	0.201347
H58	H	0.390025	-0.008613	0.158339
H59	H	0.445932	0.078327	0.091837
O60	O	1.039087	-0.317051	-0.000210
C61	C	1.047335	-0.269901	-0.118610
H62	H	0.986795	-0.253623	-0.158087
H63	H	1.082200	-0.214177	-0.091979
H64	H	1.079680	-0.303775	-0.201501
O65	O	1.085898	-0.608285	-0.000274
C66	C	1.086135	-0.656008	-0.118643
H67	H	1.047971	-0.628676	-0.201383
H68	H	1.148781	-0.661010	-0.158384
H69	H	1.061848	-0.716926	-0.091881
O70	O	0.836476	0.267271	0.358105
C71	C	0.785248	0.221962	0.274854
H72	H	0.779809	0.159937	0.318215
H73	H	0.724956	0.249812	0.273222
H74	H	0.809552	0.219498	0.165810
O75	O	1.034669	0.069438	0.783628
C76	C	1.089342	0.014763	0.831694
H77	H	1.135218	0.004212	0.748783
H78	H	1.119419	0.038797	0.927962
H79	H	1.057602	-0.042929	0.857203
O80	O	0.319049	0.333888	0.000204
C81	C	0.296191	0.375356	0.118563
H82	H	0.276346	0.331965	0.201317
H83	H	0.348034	0.412074	0.158288
H84	H	0.245713	0.415563	0.091793
O85	O	0.550719	0.004419	0.000078
C86	C	0.608563	-0.053646	0.000058
H87	H	0.665673	-0.027928	0.043323
H88	H	0.588090	-0.105238	0.066437
H89	H	0.618700	-0.074726	-0.109598
O90	O	0.157378	0.320223	0.000202
C91	C	0.109651	0.320466	0.118570
H92	H	0.136982	0.282307	0.201319
H93	H	0.104646	0.383114	0.158295
H94	H	0.048735	0.296175	0.091812
O95	O	1.099597	-0.446703	-0.000070
C96	C	1.157662	-0.504546	-0.000031
H97	H	1.131951	-0.561653	-0.043320
H98	H	1.209264	-0.484068	-0.066379
H99	H	1.178725	-0.514692	0.109634
H100	H	0.688384	0.286039	-0.000016
O101	O	0.532400	0.284078	0.000204
C102	C	0.484670	0.284329	0.118568
H103	H	0.511997	0.246176	0.201328
H104	H	0.479663	0.346980	0.158279
H105	H	0.423754	0.260036	0.091809
O106	O	0.421121	0.064902	-0.000234
C107	C	0.373942	0.056675	-0.118598
H108	H	0.396046	0.099001	-0.201344
H109	H	0.377079	-0.006128	-0.158334
H110	H	0.310552	0.070499	-0.091832
H111	H	0.705105	0.028701	-0.000000
H112	H	1.051704	-0.077289	0.000011
O113	O	0.448450	0.273505	-0.000223
C114	C	0.425633	0.314950	-0.118636
H115	H	0.367395	0.289775	-0.158101
H116	H	0.418623	0.379596	-0.092030
H117	H	0.472429	0.308992	-0.201528
O118	O	1.049847	-0.233120	0.000057
C119	C	1.116972	-0.183406	0.000040
H120	H	1.101102	-0.123598	0.043315
H121	H	1.164572	-0.210325	0.066411
H122	H	1.139521	-0.176096	-0.109616
H123	H	0.817978	-0.584370	-0.000019
H124	H	0.781834	-0.209360	-0.000038
O125	O	0.783790	-0.053364	-0.000263
C126	C	0.783557	-0.005634	-0.118630
H127	H	0.821721	-0.032963	-0.201371
H128	H	0.720912	-0.000627	-0.158372
H129	H	0.807847	0.055281	-0.091865
H130	H	0.842240	-0.338808	-0.000029
O131	O	1.034636	0.069429	0.216328
C132	C	1.089348	0.014798	0.168250
H133	H	1.099940	-0.031071	0.251157
H134	H	1.065328	-0.015294	0.071987
H135	H	1.147015	0.046582	0.142729
H136	H	1.125008	-0.020839	0.369434
H137	H	1.125005	-0.020861	0.630473
H138	H	0.844393	0.259540	0.630520
