data_functionalizedCrystal
_audit_creation_method	'MofGen! by Chris Wilmer'
_symmetry_space_group_name_H-M	'P1'
_symmetry_Int_Tables_number	1
_symmetry_cell_setting	triclinic
loop_
_symmetry_equiv_pos_as_xyz
  x,y,z
_cell_length_a	16.120530
_cell_length_b	13.897448
_cell_length_c	13.897441
_cell_angle_alpha	89.969401
_cell_angle_beta	92.919063
_cell_angle_gamma	92.886725
loop_
_atom_site_label
_atom_site_type_symbol
_atom_site_fract_x
_atom_site_fract_y
_atom_site_fract_z
Zn1	Zn	1.274607	0.458859	0.620100
Zn2	Zn	1.524607	0.708859	0.870100
Zn3	Zn	1.774607	0.958859	1.120100
Zn4	Zn	2.024607	1.208859	1.370100
Zn5	Zn	1.274515	0.620175	0.458796
Zn6	Zn	1.524515	0.870175	0.708796
Zn7	Zn	1.774515	1.120175	0.958796
Zn8	Zn	2.024515	1.370175	1.208796
Zn9	Zn	1.135184	0.450711	0.450646
Zn10	Zn	1.385184	0.700711	0.700646
Zn11	Zn	1.635184	0.950711	0.950646
Zn12	Zn	1.885184	1.200711	1.200646
Zn13	Zn	1.135168	0.611923	0.611880
Zn14	Zn	1.385168	0.861923	0.861880
Zn15	Zn	1.635168	1.111923	1.111880
Zn16	Zn	1.885168	1.361923	1.361880
O17	O	1.204869	0.535417	0.535356
O18	O	1.454869	0.785417	0.785356
O19	O	1.704869	1.035417	1.035356
O20	O	1.954869	1.285417	1.285356
O21	O	1.391262	0.487122	0.605554
O22	O	1.641262	0.737122	0.855554
O23	O	1.891262	0.987122	1.105554
O24	O	2.141262	1.237122	1.355554
O25	O	1.256001	0.597739	0.322732
O26	O	1.506001	0.847739	0.572732
O27	O	1.756001	1.097739	0.822732
O28	O	2.006001	1.347739	1.072732
O29	O	1.153724	0.316813	0.473153
O30	O	1.403724	0.566813	0.723153
O31	O	1.653724	0.816813	0.973153
O32	O	1.903724	1.066813	1.223153
O33	O	1.391194	0.605640	0.487045
O34	O	1.641194	0.855640	0.737045
O35	O	1.891194	1.105640	0.987045
O36	O	2.141194	1.355640	1.237045
O37	O	1.256157	0.322799	0.597651
O38	O	1.506157	0.572799	0.847651
O39	O	1.756157	0.822799	1.097651
O40	O	2.006157	1.072799	1.347651
O41	O	1.153635	0.473235	0.316743
O42	O	1.403635	0.723235	0.566743
O43	O	1.653635	0.973235	0.816743
O44	O	1.903635	1.223235	1.066743
O45	O	1.018515	0.465232	0.465182
O46	O	1.268515	0.715232	0.715182
O47	O	1.518515	0.965232	0.965182
O48	O	1.768515	1.215232	1.215182
O49	O	1.153697	0.591574	0.747954
O50	O	1.403697	0.841574	0.997954
O51	O	1.653697	1.091574	1.247954
O52	O	1.903697	1.341574	1.497954
O53	O	1.018503	0.583674	0.583641
O54	O	1.268503	0.833674	0.833641
O55	O	1.518503	1.083674	1.083641
O56	O	1.768503	1.333674	1.333641
O57	O	1.256142	0.479119	0.753994
O58	O	1.506142	0.729119	1.003994
O59	O	1.756142	0.979119	1.253994
O60	O	2.006142	1.229119	1.503994
O61	O	1.255986	0.754060	0.479074
O62	O	1.505986	1.004060	0.729074
O63	O	1.755986	1.254060	0.979074
O64	O	2.005986	1.504060	1.229074
O65	O	1.153608	0.747996	0.591544
O66	O	1.403608	0.997996	0.841544
O67	O	1.653608	1.247996	1.091544
O68	O	1.903608	1.497996	1.341544
C69	C	0.988259	0.522674	0.522636
C70	C	1.238259	0.772674	0.772636
C71	C	1.488259	1.022674	1.022636
C72	C	1.738259	1.272674	1.272636
C73	C	0.895592	0.517246	0.517217
C74	C	1.145592	0.767246	0.767217
C75	C	1.395592	1.017246	1.017217
C76	C	1.645592	1.267246	1.267217
C77	C	1.204808	0.786028	0.535324
C78	C	1.454808	1.036028	0.785324
C79	C	1.704808	1.286028	1.035324
C80	C	1.954808	1.536028	1.285324
C81	C	1.204858	0.893245	0.535347
C82	C	1.454858	1.143245	0.785347
C83	C	1.704858	1.393245	1.035347
C84	C	1.954858	1.643245	1.285347
C85	C	0.725929	0.507313	0.507332
C86	C	0.975929	0.757313	0.757332
C87	C	1.225929	1.007313	1.007332
C88	C	1.475929	1.257313	1.257332
C89	C	0.684648	0.563592	0.563450
C90	C	0.934648	0.813592	0.813450
C91	C	1.184648	1.063592	1.063450
C92	C	1.434648	1.313592	1.313450
C93	C	0.590242	0.558065	0.557950
C94	C	0.840242	0.808065	0.807950
C95	C	1.090242	1.058065	1.057950
C96	C	1.340242	1.308065	1.307950
C97	C	0.820344	0.512838	0.512831
C98	C	1.070344	0.762838	0.762831
C99	C	1.320344	1.012838	1.012831
C100	C	1.570344	1.262838	1.262831
C101	C	1.204928	0.535335	0.786952
C102	C	1.454928	0.785335	1.036952
C103	C	1.704928	1.035335	1.286952
C104	C	1.954928	1.285335	1.536952
C105	C	1.204953	0.535300	0.894168
C106	C	1.454953	0.785300	1.144168
C107	C	1.704953	1.035300	1.394168
C108	C	1.954953	1.285300	1.644168
C109	C	1.422324	0.548210	0.548126
C110	C	1.672324	0.798210	0.798126
C111	C	1.922324	1.048210	1.048126
C112	C	2.172324	1.298210	1.298126
C113	C	1.514991	0.553662	0.553568
C114	C	1.764991	0.803662	0.803568
C115	C	2.014991	1.053662	1.053568
C116	C	2.264991	1.303662	1.303568
C117	C	1.204952	0.283829	0.535410
C118	C	1.454952	0.533829	0.785410
C119	C	1.704952	0.783829	1.035410
C120	C	1.954952	1.033829	1.285410
C121	C	1.204988	0.176617	0.535433
C122	C	1.454988	0.426617	0.785433
C123	C	1.704988	0.676617	1.035433
C124	C	1.954988	0.926617	1.285433
C125	C	1.204945	1.089545	0.535413
C126	C	1.454945	1.339545	0.785413
C127	C	1.704945	1.589545	1.035413
C128	C	1.954945	1.839545	1.285413
C129	C	1.204894	0.980309	0.535379
C130	C	1.454894	1.230309	0.785379
C131	C	1.704894	1.480309	1.035379
C132	C	1.954894	1.730309	1.285379
C133	C	1.204858	0.535432	0.284741
C134	C	1.454858	0.785432	0.534741
C135	C	1.704858	1.035432	0.784741
C136	C	1.954858	1.285432	1.034741
C137	C	1.204994	0.535204	0.177535
C138	C	1.454994	0.785204	0.427535
C139	C	1.704994	1.035204	0.677535
C140	C	1.954994	1.285204	0.927535
C141	C	1.204976	0.535236	1.090464
C142	C	1.454976	0.785236	1.340464
C143	C	1.704976	1.035236	1.590464
C144	C	1.954976	1.285236	1.840464
C145	C	1.204960	0.535275	0.981231
C146	C	1.454960	0.785275	1.231231
C147	C	1.704960	1.035275	1.481231
C148	C	1.954960	1.285275	1.731231
H149	H	0.720207	0.615924	0.615626
H150	H	0.970207	0.865924	0.865626
H151	H	1.220207	1.115924	1.115626
H152	H	1.470207	1.365924	1.365626
H153	H	0.690372	0.454985	0.455161
H154	H	0.940372	0.704985	0.705161
H155	H	1.190372	0.954985	0.955161
H156	H	1.440372	1.204985	1.205161
