data_functionalizedCrystal
_audit_creation_method	'MofGen! by Chris Wilmer'
_symmetry_space_group_name_H-M	'P1'
_symmetry_Int_Tables_number	1
_symmetry_cell_setting	triclinic
loop_
_symmetry_equiv_pos_as_xyz
  x,y,z
_cell_length_a	14.044220
_cell_length_b	14.519709
_cell_length_c	12.996460
_cell_angle_alpha	89.999966
_cell_angle_beta	89.993022
_cell_angle_gamma	91.565489
loop_
_atom_site_label
_atom_site_type_symbol
_atom_site_fract_x
_atom_site_fract_y
_atom_site_fract_z
O1	O	0.124273	-1.233893	-0.085435
O2	O	0.624273	-0.733893	0.414565
O3	O	0.138907	-0.966596	-0.085466
O4	O	0.638907	-0.466596	0.414534
O5	O	-0.006401	-1.096232	-0.085441
O6	O	0.493599	-0.596232	0.414559
O7	O	0.269581	-1.104256	-0.085460
O8	O	0.769581	-0.604256	0.414540
O9	O	-0.006409	-1.096217	0.085693
O10	O	0.493591	-0.596217	0.585693
O11	O	0.138899	-0.966581	0.085667
O12	O	0.638899	-0.466581	0.585667
O13	O	0.124265	-1.233877	0.085699
O14	O	0.624265	-0.733877	0.585699
Cu15	Cu	0.131581	-1.100228	0.101309
Cu16	Cu	0.631581	-0.600228	0.601309
Cu17	Cu	0.131591	-1.100246	-0.101076
Cu18	Cu	0.631591	-0.600246	0.398924
O19	O	0.269573	-1.104241	0.085674
O20	O	0.769573	-0.604241	0.585674
C21	C	0.138221	-0.932174	0.000097
C22	C	0.638221	-0.432174	0.500097
C23	C	0.136177	-0.829628	0.000085
C24	C	0.636177	-0.329628	0.500085
C25	C	-0.041726	-1.092712	0.000126
C26	C	0.458274	-0.592712	0.500126
C27	C	-0.146969	-1.082235	0.000126
C28	C	0.353031	-0.582235	0.500126
C29	C	0.124951	-1.268300	0.000134
C30	C	0.624951	-0.768300	0.500134
C31	C	0.126995	-1.370846	0.000139
C32	C	0.626995	-0.870846	0.500139
C33	C	-0.339663	-1.063081	0.000109
C34	C	0.160337	-0.563081	0.500109
C35	C	-0.397170	-1.137389	0.000115
C36	C	0.102830	-0.637389	0.500115
C37	C	-0.504392	-1.126731	0.000105
C38	C	-0.004392	-0.626731	0.500105
C39	C	-0.232432	-1.073737	0.000118
C40	C	0.267568	-0.573737	0.500118
C41	C	0.304898	-1.107761	0.000104
C42	C	0.804898	-0.607761	0.500104
C43	C	0.410141	-1.118238	0.000098
C44	C	0.910141	-0.618238	0.500098
N45	N	0.131574	-1.100221	0.243656
N46	N	0.631574	-0.600221	0.743656
C47	C	0.128653	-0.454125	0.000132
C48	C	0.628653	0.045875	0.500132
C49	C	0.130743	-0.558601	0.000119
C50	C	0.630743	-0.058601	0.500119
C51	C	0.132415	-0.641873	0.000107
C52	C	0.632415	-0.141873	0.500107
C53	C	0.134505	-0.746356	0.000096
C54	C	0.634505	-0.246356	0.500096
N55	N	0.131591	-1.100259	-0.243424
N56	N	0.631591	-0.600259	0.256576
C57	C	0.131592	-1.100245	0.663470
C58	C	0.631592	-0.600245	1.163470
C59	C	0.131590	-1.100236	0.546665
C60	C	0.631590	-0.600236	1.046665
C61	C	0.131584	-1.100233	0.453567
C62	C	0.631584	-0.600233	0.953567
C63	C	0.131580	-1.100224	0.336754
C64	C	0.631580	-0.600224	0.836754
H65	H	-0.370954	-0.991465	0.000098
H66	H	0.129046	-0.491465	0.500098
H67	H	-0.365878	-1.209010	0.000054
H68	H	0.134122	-0.709010	0.500054
