data_functionalizedCrystal
_audit_creation_method	'MofGen! by Chris Wilmer'
_symmetry_space_group_name_H-M	'P1'
_symmetry_Int_Tables_number	1
_symmetry_cell_setting	triclinic
loop_
_symmetry_equiv_pos_as_xyz
  x,y,z
_cell_length_a	18.215405
_cell_length_b	12.759401
_cell_length_c	18.215399
_cell_angle_alpha	90.014501
_cell_angle_beta	89.967040
_cell_angle_gamma	89.976906
loop_
_atom_site_label
_atom_site_type_symbol
_atom_site_fract_x
_atom_site_fract_y
_atom_site_fract_z
Zn1	Zn	-0.293010	-1.606129	-0.416057
Zn2	Zn	0.206990	-1.106129	0.083943
Zn3	Zn	-0.416086	-1.606008	-0.292985
Zn4	Zn	0.083914	-1.106008	0.207015
Zn5	Zn	-0.293034	-1.430446	-0.293009
Zn6	Zn	0.206966	-0.930446	0.206991
Zn7	Zn	-0.416035	-1.430388	-0.416015
Zn8	Zn	0.083965	-0.930388	0.083985
O9	O	-0.354541	-1.518243	-0.354517
O10	O	0.145459	-1.018243	0.145483
O11	O	-0.309347	-1.753134	-0.399739
O12	O	0.190653	-1.253134	0.100261
O13	O	-0.399794	-1.582692	-0.190004
O14	O	0.100206	-1.082692	0.309996
O15	O	-0.190046	-1.453826	-0.309360
O16	O	0.309954	-0.953826	0.190640
O17	O	-0.399771	-1.753045	-0.309318
O18	O	0.100229	-1.253045	0.190682
O19	O	-0.190029	-1.582900	-0.399762
O20	O	0.309971	-1.082900	0.100238
O21	O	-0.309389	-1.453708	-0.190022
O22	O	0.190611	-0.953708	0.309978
O23	O	-0.309339	-1.283418	-0.309319
O24	O	0.190661	-0.783418	0.190681
O25	O	-0.399684	-1.453727	-0.519005
O26	O	0.100316	-0.953727	-0.019005
O27	O	-0.399708	-1.283375	-0.399691
O28	O	0.100292	-0.783375	0.100309
O29	O	-0.309298	-1.582843	-0.519036
O30	O	0.190702	-1.082843	-0.019036
O31	O	-0.519063	-1.582636	-0.309278
O32	O	-0.019063	-1.082636	0.190722
O33	O	-0.519026	-1.453610	-0.399667
O34	O	-0.019026	-0.953610	0.100333
C35	C	-0.354521	-1.245276	-0.354503
C36	C	0.145479	-0.745276	0.145497
C37	C	-0.354530	-1.128499	-0.354515
C38	C	0.145470	-0.628499	0.145485
C39	C	-0.307530	-1.073684	-0.401669
C40	C	0.192470	-0.573684	0.098331
C41	C	-0.307535	-0.963960	-0.401672
C42	C	0.192465	-0.463960	0.098328
C43	C	-0.401546	-0.963875	-0.307366
C44	C	0.098454	-0.463875	0.192634
C45	C	-0.401537	-1.073597	-0.307360
C46	C	0.098463	-0.573597	0.192640
C47	C	-0.545747	-1.518132	-0.354481
C48	C	-0.045747	-1.018132	0.145519
C49	C	-0.627546	-1.518181	-0.354491
C50	C	-0.127546	-1.018181	0.145509
C51	C	-0.815735	-1.585522	-0.307511
C52	C	-0.315735	-1.085522	0.192489
C53	C	-0.892594	-1.585569	-0.307529
C54	C	-0.392594	-1.085569	0.192471
C55	C	-0.892595	-1.451098	-0.401575
C56	C	-0.392595	-0.951098	0.098425
C57	C	-0.815738	-1.451057	-0.401560
C58	C	-0.315738	-0.951057	0.098440
C59	C	-0.777310	-1.518268	-0.354524
C60	C	-0.277310	-1.018268	0.145476
C61	C	-0.931026	-1.518356	-0.354557
C62	C	-0.431026	-1.018356	0.145443
C63	C	-1.014359	-1.518406	-0.354576
C64	C	-0.514359	-1.018406	0.145424
C65	C	-0.693971	-1.518219	-0.354505
C66	C	-0.193971	-1.018219	0.145495
C67	C	-0.162588	-1.518383	-0.354568
C68	C	0.337412	-1.018383	0.145432
C69	C	-0.080789	-1.518443	-0.354590
C70	C	0.419211	-1.018443	0.145410
C71	C	-0.354482	-1.518292	-0.546470
C72	C	0.145518	-1.018292	-0.046470
C73	C	-0.354457	-1.518314	-0.628268
C74	C	0.145543	-1.018314	-0.128268
C75	C	-0.354555	-0.792276	-0.354528
C76	C	0.145445	-0.292276	0.145472
C77	C	-0.354544	-0.909053	-0.354525
C78	C	0.145456	-0.409053	0.145475
C79	C	-0.307351	-1.451208	-0.816473
C80	C	0.192649	-0.951208	-0.316473
C81	C	-0.307336	-1.451227	-0.893331
C82	C	0.192664	-0.951227	-0.393331
C83	C	-0.401476	-1.585544	-0.893302
C84	C	0.098524	-1.085544	-0.393302
C85	C	-0.401494	-1.585520	-0.816445
C86	C	0.098506	-1.085520	-0.316445
C87	C	-0.354427	-1.518354	-0.778032
C88	C	0.145573	-1.018354	-0.278032
C89	C	-0.354394	-1.518396	-0.931748
C90	C	0.145606	-1.018396	-0.431748
C91	C	-0.354379	-1.518417	-1.015082
C92	C	0.145621	-1.018417	-0.515082
C93	C	-0.354444	-1.518332	-0.694693
C94	C	0.145556	-1.018332	-0.194693
C95	C	-0.354547	-1.518254	-0.163310
C96	C	0.145453	-1.018254	0.336690
C97	C	-0.354364	-1.518436	-0.081512
C98	C	0.145636	-1.018436	0.418488
H99	H	-0.439817	-0.919161	-0.268975
H100	H	0.060183	-0.419161	0.231025
O101	O	-0.261798	-1.126854	-0.447494
O102	O	0.238202	-0.626854	0.052506
C103	C	-0.168583	-1.115352	-0.541064
C104	C	0.331417	-0.615352	-0.041064
C105	C	-0.220328	-1.055011	-0.489192
C106	C	0.279672	-0.555011	0.010808
H107	H	-0.135053	-1.057293	-0.574801
H108	H	0.364947	-0.557293	-0.074801
H109	H	-0.130006	-1.166694	-0.507381
H110	H	0.369994	-0.666694	-0.007381
H111	H	-0.202428	-1.166752	-0.579449
H112	H	0.297572	-0.666752	-0.079449
H113	H	-0.186543	-1.003554	-0.450797
H114	H	0.313457	-0.503554	0.049203
H115	H	-0.258907	-1.003736	-0.522920
H116	H	0.241093	-0.503736	-0.022920
O117	O	-0.930024	-1.650784	-0.261864
O118	O	-0.430024	-1.150784	0.238136
C119	C	-1.016905	-1.665167	-0.162571
C120	C	-0.516905	-1.165167	0.337429
C121	C	-0.974561	-1.591168	-0.214227
C122	C	-0.474561	-1.091168	0.285773
H123	H	-1.052912	-1.616997	-0.124034
H124	H	-0.552912	-1.116997	0.375966
H125	H	-1.052857	-1.720035	-0.196418
H126	H	-0.552857	-1.220035	0.303582
H127	H	-0.976247	-1.713261	-0.128987
H128	H	-0.476247	-1.213261	0.371013
H129	H	-1.015166	-1.543007	-0.247823
H130	H	-0.515166	-1.043007	0.252177
H131	H	-0.938598	-1.536370	-0.180339
H132	H	-0.438598	-1.036370	0.319661
O133	O	-0.930039	-1.385839	-0.447188
O134	O	-0.430039	-0.885839	0.052812
C135	C	-1.048442	-1.326343	-0.488918
C136	C	-0.548442	-0.826343	0.011082
C137	C	-1.006131	-1.400288	-0.437213
C138	C	-0.506131	-0.900288	0.062787
H139	H	-1.109969	-1.338015	-0.480882
H140	H	-0.609969	-0.838015	0.019118
H141	H	-1.033439	-1.241609	-0.475934
H142	H	-0.533439	-0.741609	0.024066
H143	H	-1.033233	-1.344714	-0.548261
H144	H	-0.533233	-0.844714	-0.048261
H145	H	-1.021317	-1.382012	-0.377852
H146	H	-0.521317	-0.882012	0.122148
H147	H	-1.021137	-1.485000	-0.450260
H148	H	-0.521137	-0.985000	0.049740
H149	H	-0.269003	-1.396549	-0.924626
H150	H	0.230997	-0.896549	-0.424626
H151	H	-0.269261	-0.919335	-0.440069
H152	H	0.230739	-0.419335	0.059931
H153	H	-0.784449	-1.396290	-0.439847
H154	H	-0.284449	-0.896290	0.060153
H155	H	-0.269027	-1.396517	-0.785199
H156	H	0.230973	-0.896517	-0.285199
H157	H	-0.439811	-1.118229	-0.268957
H158	H	0.060189	-0.618229	0.231043
H159	H	-0.439795	-1.640230	-0.924587
H160	H	0.060205	-1.140230	-0.424587
O161	O	-0.447249	-1.650849	-0.779213
O162	O	0.052751	-1.150849	-0.279213
C163	C	-0.540654	-1.784029	-0.787288
C164	C	-0.040654	-1.284029	-0.287288
C165	C	-0.488862	-1.710126	-0.829544
C166	C	0.011138	-1.210126	-0.329544
H167	H	-0.574322	-1.831958	-0.827962
H168	H	-0.074322	-1.331958	-0.327962
H169	H	-0.506913	-1.839045	-0.751336
H170	H	-0.006913	-1.339045	-0.251336
H171	H	-0.579107	-1.735734	-0.751272
H172	H	-0.079107	-1.235734	-0.251272
H173	H	-0.450398	-1.758336	-0.865600
H174	H	0.049602	-1.258336	-0.365600
H175	H	-0.522648	-1.655107	-0.865450
H176	H	-0.022648	-1.155107	-0.365450
H177	H	-0.784449	-1.640251	-0.269213
H178	H	-0.284449	-1.140251	0.230787
