data_functionalizedCrystal
_audit_creation_method	'MofGen! by Chris Wilmer'
_symmetry_space_group_name_H-M	'P1'
_symmetry_Int_Tables_number	1
_symmetry_cell_setting	triclinic
loop_
_symmetry_equiv_pos_as_xyz
  x,y,z
_cell_length_a	12.759401
_cell_length_b	13.897448
_cell_length_c	12.759393
_cell_angle_alpha	89.966449
_cell_angle_beta	89.982620
_cell_angle_gamma	90.017853
loop_
_atom_site_label
_atom_site_type_symbol
_atom_site_fract_x
_atom_site_fract_y
_atom_site_fract_z
Zn1	Zn	1.606222	-0.383952	-0.593968
Zn2	Zn	1.606111	-0.545282	-0.418283
Zn3	Zn	1.430527	-0.384003	-0.418308
Zn4	Zn	1.430503	-0.545207	-0.593924
O5	O	1.518341	-0.464611	-0.506121
O6	O	1.753228	-0.405363	-0.570671
O7	O	1.582782	-0.523941	-0.271265
O8	O	1.453890	-0.249015	-0.441638
O9	O	1.753146	-0.523891	-0.441596
O10	O	1.582972	-0.248977	-0.570695
O11	O	1.453782	-0.405450	-0.271283
O12	O	1.283503	-0.405377	-0.441596
O13	O	1.453849	-0.523764	-0.740951
O14	O	1.283486	-0.523813	-0.570621
O15	O	1.582949	-0.405290	-0.740984
O16	O	1.582759	-0.680254	-0.441554
O17	O	1.453741	-0.680199	-0.570597
C18	C	1.245373	-0.464593	-0.506107
C19	C	1.128597	-0.464609	-0.506125
C20	C	1.073753	-0.526377	-0.573198
C21	C	0.964029	-0.526389	-0.573209
C22	C	0.964002	-0.402862	-0.439067
C23	C	1.073724	-0.402846	-0.439062
C24	C	1.128626	-0.588140	-0.640261
C25	C	1.073782	-0.649914	-0.707338
C26	C	0.964058	-0.649927	-0.707349
C27	C	0.909178	-0.588165	-0.640284
C28	C	1.518264	-0.715225	-0.506090
C29	C	1.518327	-0.822439	-0.506113
C30	C	1.518438	-1.018734	-0.506178
C31	C	1.518373	-0.909502	-0.506145
C32	C	1.792374	-0.464630	-0.506136
C33	C	1.909151	-0.464637	-0.506142
C34	C	1.518409	-0.464513	-0.780154
C35	C	1.518438	-0.464471	-0.896931
C36	C	1.518446	-0.213018	-0.506174
C37	C	1.518491	-0.105804	-0.506197
C38	C	1.451296	-0.402761	-0.951809
C39	C	1.451328	-0.402733	-1.061533
C40	C	1.585653	-0.526126	-1.061492
C41	C	1.585615	-0.526159	-0.951770
C42	C	1.384119	-0.341074	-0.896970
C43	C	1.316973	-0.279358	-0.951847
C44	C	1.317005	-0.279329	-1.061571
C45	C	1.384183	-0.341016	-1.116418
C46	C	1.518333	-0.464639	-0.233154
C47	C	1.518508	-0.464409	-0.116377
H48	H	1.217969	-0.588139	-0.640258
H49	H	1.262324	-0.229084	-1.106250
C50	C	1.257283	-0.224607	-0.783668
C51	C	1.243132	-0.211556	-0.891564
H52	H	1.211699	-0.182744	-0.746456
H53	H	1.241870	-0.289413	-0.765670
H54	H	1.327878	-0.210501	-0.765703
H55	H	1.172538	-0.225670	-0.909531
H56	H	1.258538	-0.146736	-0.909569
H57	H	1.118379	-0.352542	-0.384454
C58	C	1.311096	-0.273795	-1.273619
C59	C	1.384218	-0.340985	-1.237029
H60	H	1.311126	-0.273771	-1.348078
H61	H	1.243293	-0.290482	-1.248797
H62	H	1.329291	-0.211561	-1.248810
H63	H	1.366018	-0.403221	-1.261833
H64	H	1.452036	-0.324304	-1.261862
C65	C	1.645363	-0.580851	-1.229673
C66	C	1.659503	-0.593917	-1.121778
H67	H	1.690964	-0.622697	-1.266888
H68	H	1.574782	-0.594963	-1.247650
H69	H	1.660770	-0.516032	-1.247657
H70	H	1.644089	-0.658735	-1.103793
H71	H	1.730100	-0.579812	-1.103794
C72	C	1.718392	-0.648126	-0.962742
C73	C	1.659414	-0.593993	-0.891440
H74	H	1.763952	-0.690004	-0.925495
H75	H	1.672615	-0.684999	-1.005531
H76	H	1.758620	-0.606084	-1.005546
H77	H	1.619180	-0.636036	-0.848641
H78	H	1.705197	-0.557118	-0.848633
H79	H	0.919407	-0.700219	-0.761974
C80	C	1.241991	-0.704749	-0.766881
C81	C	1.134102	-0.717799	-0.781055
H82	H	1.279226	-0.746664	-0.812389
H83	H	1.259987	-0.639962	-0.782383
H84	H	1.259931	-0.718789	-0.696258
H85	H	1.116161	-0.703752	-0.851677
H86	H	1.116099	-0.782601	-0.765560
H87	H	0.819833	-0.588171	-0.640308
C88	C	0.974992	-0.280759	-0.306474
C89	C	0.903681	-0.334982	-0.365346
H90	H	0.937750	-0.238850	-0.260964
H91	H	1.017765	-0.322734	-0.266205
H92	H	1.017810	-0.243905	-0.352328
H93	H	0.860867	-0.371841	-0.319492
H94	H	0.860890	-0.293001	-0.405617
H95	H	1.384088	-0.341088	-0.807627
