data_functionalizedCrystal
_audit_creation_method	'MofGen! by Chris Wilmer'
_symmetry_space_group_name_H-M	'P1'
_symmetry_Int_Tables_number	1
_symmetry_cell_setting	triclinic
loop_
_symmetry_equiv_pos_as_xyz
  x,y,z
_cell_length_a	12.759401
_cell_length_b	25.639239
_cell_length_c	12.759393
_cell_angle_alpha	89.965122
_cell_angle_beta	89.980186
_cell_angle_gamma	90.040211
loop_
_atom_site_label
_atom_site_type_symbol
_atom_site_fract_x
_atom_site_fract_y
_atom_site_fract_z
Zn1	Zn	1.606080	-0.208110	-0.593980
Zn2	Zn	1.605901	-0.295553	-0.418283
Zn3	Zn	1.430382	-0.208136	-0.418315
Zn4	Zn	1.430297	-0.295518	-0.593921
O5	O	1.518165	-0.251829	-0.506125
O6	O	1.753077	-0.219713	-0.570685
O7	O	1.582578	-0.283983	-0.271266
O8	O	1.453799	-0.134967	-0.441656
O9	O	1.752945	-0.283957	-0.441601
O10	O	1.582883	-0.134948	-0.570716
O11	O	1.453625	-0.219758	-0.271290
O12	O	1.283349	-0.219724	-0.441598
O13	O	1.453654	-0.283898	-0.740950
O14	O	1.283287	-0.283923	-0.570615
O15	O	1.582801	-0.219679	-0.740993
O16	O	1.582496	-0.368714	-0.441544
O17	O	1.453480	-0.368688	-0.570584
C18	C	1.245197	-0.251823	-0.506104
C19	C	1.128421	-0.251833	-0.506120
C20	C	1.073554	-0.285312	-0.573193
C21	C	0.963830	-0.285314	-0.573214
C22	C	0.963849	-0.218356	-0.439079
C23	C	1.073571	-0.218352	-0.439065
C24	C	0.813915	-0.304076	-0.697071
C25	C	0.759045	-0.337564	-0.764135
C26	C	0.794599	-0.388589	-0.780073
C27	C	0.885023	-0.406136	-0.728931
C28	C	0.939888	-0.372651	-0.661860
C29	C	0.904335	-0.321619	-0.645942
C30	C	1.223487	-0.199595	-0.315206
C31	C	1.278355	-0.166112	-0.248129
C32	C	1.242802	-0.115087	-0.232180
C33	C	1.152375	-0.097541	-0.283303
C34	C	1.097508	-0.131024	-0.350380
C35	C	1.133068	-0.182049	-0.366331
C36	C	1.517988	-0.387672	-0.506077
C37	C	1.518009	-0.445786	-0.506091
C38	C	1.585518	-0.806150	-0.439048
C39	C	1.585559	-0.860754	-0.439062
O40	O	1.642775	-0.888991	-0.382007
N41	N	1.518349	-0.888068	-0.506194
C42	C	1.451102	-0.860776	-0.573324
O43	O	1.393939	-0.889023	-0.630428
C44	C	1.451067	-0.806172	-0.573315
C45	C	1.518274	-0.778861	-0.506171
C46	C	1.652720	-0.778838	-0.371910
C47	C	1.652678	-0.724238	-0.371895
C48	C	1.585434	-0.696949	-0.439018
C49	C	1.518232	-0.724260	-0.506156
C50	C	1.383826	-0.778881	-0.640449
C51	C	1.383798	-0.724274	-0.640435
C52	C	1.451005	-0.696962	-0.573291
C53	C	1.450945	-0.642371	-0.573263
N54	N	1.518155	-0.615056	-0.506131
C55	C	1.585399	-0.642345	-0.439008
C56	C	1.451181	-0.975446	-0.573341
C57	C	1.451210	-1.030049	-0.573346
C58	C	1.585668	-1.030023	-0.439085
C59	C	1.585634	-0.975420	-0.439075
C60	C	1.518391	-0.948132	-0.506208
C61	C	1.585304	-0.527680	-0.438981
C62	C	1.585253	-0.473075	-0.438969
C63	C	1.450799	-0.473105	-0.573233
C64	C	1.450846	-0.527706	-0.573242
C65	C	1.518107	-0.554992	-0.506112
O66	O	1.393761	-0.614099	-0.630292
O67	O	1.642562	-0.614092	-0.381925
C68	C	1.792198	-0.251836	-0.506146
C69	C	1.908975	-0.251839	-0.506156
C70	C	1.518238	-0.251782	-0.780158
C71	C	1.518269	-0.251762	-0.896935
C72	C	1.518371	-0.115456	-0.506196
C73	C	1.518458	-0.057342	-0.506226
C74	C	1.585418	-0.285189	-0.951789
C75	C	1.585449	-0.285163	-1.061513
C76	C	1.451172	-0.218281	-1.061520
C77	C	1.451148	-0.218305	-0.951798
C78	C	1.709359	-0.303816	-1.211472
C79	C	1.776499	-0.337251	-1.266329
C80	C	1.792543	-0.388276	-1.230702
C81	C	1.741431	-0.405875	-1.140219
C82	C	1.674283	-0.372443	-1.085368
C83	C	1.658260	-0.321411	-1.120993
C84	C	1.327236	-0.199657	-0.801837
C85	C	1.260082	-0.166227	-0.746983
C86	C	1.244028	-0.115202	-0.782608
C87	C	1.295122	-0.097604	-0.873094
C88	C	1.362275	-0.131034	-0.927948
C89	C	1.378331	-0.182059	-0.892316
C90	C	1.518152	-0.251839	-0.233157
C91	C	1.518325	-0.251712	-0.116381
H92	H	1.123415	-0.055995	-0.270300
H93	H	1.189337	-0.087985	-0.737941
H94	H	1.396523	-0.191043	-1.106203
H95	H	1.282049	-0.056055	-0.902102
H96	H	0.685422	-0.323272	-0.805775
C97	C	1.726725	-0.588993	-0.424525
C98	C	1.659254	-0.557662	-0.365198
H99	H	1.772383	-0.607497	-0.378973
H100	H	1.686714	-0.613081	-0.464486
H101	H	1.766847	-0.567645	-0.470340
H102	H	1.619127	-0.579011	-0.319389
H103	H	1.699269	-0.533571	-0.325220
C104	C	1.140619	-0.228436	-0.672470
C105	C	1.203906	-0.185570	-0.647524
H106	H	1.105942	-0.240377	-0.611067
H107	H	1.090077	-0.218361	-0.723215
H108	H	1.182923	-0.255645	-0.700030
H109	H	1.161600	-0.158359	-0.619971
H110	H	1.254454	-0.195643	-0.596761
H111	H	0.919178	-0.191097	-0.384484
C112	C	1.250945	-0.773397	-0.773177
C113	C	1.309956	-0.808892	-0.714265
H114	H	1.205344	-0.791926	-0.818756
H115	H	1.210767	-0.752141	-0.727360
H116	H	1.296705	-0.752060	-0.813383
H117	H	1.264196	-0.830227	-0.674053
H118	H	1.350137	-0.830157	-0.760088
H119	H	0.749916	-0.415855	-0.834679
H120	H	1.396124	-0.549944	-0.627919
H121	H	1.118209	-0.312574	-0.627796
C122	C	1.869631	-0.473535	-1.240624
C123	C	1.866344	-0.425029	-1.290998
H124	H	1.915190	-0.496222	-1.277856
H125	H	1.894718	-0.469142	-1.171108
H126	H	1.801211	-0.488139	-1.238763
H127	H	1.934763	-0.410423	-1.292852
H128	H	1.841262	-0.429420	-1.360533
C129	C	1.058885	-0.443798	-0.633774
C130	C	1.039268	-0.391936	-0.605635
H131	H	1.120242	-0.455702	-0.599066
H132	H	1.000988	-0.464909	-0.613899
H133	H	1.068747	-0.445952	-0.707442
H134	H	1.029398	-0.389782	-0.531967
H135	H	1.097179	-0.370819	-0.625504
H136	H	1.396474	-1.052281	-0.628011
H137	H	0.913957	-0.447688	-0.741905
H138	H	1.287480	-0.087827	-0.177550
C139	C	0.978491	-0.059878	-0.378429
C140	C	0.998114	-0.111737	-0.406587
H141	H	0.917134	-0.047972	-0.413135
H142	H	0.968634	-0.057729	-0.304770
H143	H	1.036393	-0.038761	-0.398304
H144	H	0.940215	-0.132854	-0.386705
H145	H	1.007964	-0.113889	-0.480262
C146	C	1.509510	-0.388655	-1.000391
C147	C	1.618102	-0.391782	-0.985913
H148	H	1.474833	-0.400597	-0.938990
H149	H	1.490361	-0.353482	-1.013752
H150	H	1.489691	-0.409773	-1.058242
H151	H	1.637923	-0.370661	-0.928067
H152	H	1.637259	-0.426960	-0.972540
H153	H	1.640360	-0.953186	-0.384401
C154	C	1.785600	-0.729714	-0.239206
C155	C	1.726570	-0.694222	-0.298103
H156	H	1.831227	-0.711185	-0.193656
H157	H	1.739860	-0.751045	-0.198979
H158	H	1.825759	-0.750978	-0.285042
H159	H	1.686404	-0.672961	-0.252267
H160	H	1.772315	-0.672882	-0.338333
H161	H	1.640426	-1.052252	-0.384433
C162	C	1.794183	-0.840124	-0.357519
C163	C	1.726717	-0.808807	-0.298159
H164	H	1.839890	-0.858613	-0.311991
H165	H	1.754174	-0.864226	-0.397448
H166	H	1.834254	-0.818768	-0.403365
H167	H	1.686640	-0.830163	-0.252318
H168	H	1.766731	-0.784702	-0.258212
H169	H	1.396415	-0.953231	-0.628006
C170	C	1.369083	-0.662828	-0.781742
C171	C	1.309881	-0.694279	-0.714231
H172	H	1.323448	-0.644314	-0.827302
H173	H	1.409087	-0.638748	-0.741755
H174	H	1.414852	-0.684097	-0.821967
H175	H	1.264117	-0.673010	-0.674000
H176	H	1.269859	-0.718362	-0.754223
C177	C	1.363908	-0.254375	-0.374815
C178	C	1.262569	-0.255686	-0.332740
H179	H	1.388034	-0.289004	-0.385630
H180	H	1.362904	-0.236293	-0.439799
H181	H	1.409514	-0.236946	-0.327538
H182	H	1.216961	-0.273112	-0.380020
H183	H	1.263566	-0.273776	-0.267746
H184	H	0.784965	-0.262526	-0.684111
H185	H	1.351985	-0.180403	-0.206501
C186	C	1.390183	-0.059842	-1.047097
C187	C	1.418450	-0.111690	-1.027407
H188	H	1.424869	-0.047900	-1.108494
H189	H	1.316520	-0.057733	-1.056913
H190	H	1.410008	-0.038729	-0.989241
H191	H	1.398618	-0.132804	-1.085261
H192	H	1.492129	-0.113802	-1.017598
H193	H	1.639980	-0.450840	-0.384288
H194	H	1.340308	-0.241206	-0.772818
C195	C	1.391062	-0.389408	-0.632824
C196	C	1.376891	-0.443102	-0.647017
H197	H	1.345442	-0.370886	-0.678385
H198	H	1.375709	-0.380498	-0.562227
H199	H	1.461646	-0.380427	-0.648252
H200	H	1.306309	-0.452084	-0.631582
H201	H	1.392237	-0.452016	-0.717631
H202	H	1.640083	-0.312427	-0.907122
C203	C	1.663299	-0.488667	-1.099511
C204	C	1.759057	-0.461967	-1.101068
H205	H	1.674186	-0.523297	-1.075344
H206	H	1.616006	-0.471276	-1.053894
H207	H	1.634771	-0.489542	-1.168246
H208	H	1.787582	-0.461089	-1.032331
H209	H	1.806366	-0.479363	-1.146686
C210	C	1.803463	-0.349031	-1.451046
C211	C	1.832697	-0.317906	-1.365775
H212	H	1.838155	-0.337089	-1.512439
H213	H	1.822616	-0.384203	-1.437678
H214	H	1.729792	-0.346904	-1.460861
H215	H	1.906368	-0.320037	-1.355956
H216	H	1.813552	-0.282726	-1.379146
C217	C	1.649657	-0.249034	-1.351937
C218	C	1.691733	-0.247725	-1.250631
H219	H	1.638770	-0.214406	-1.376112
H220	H	1.696957	-0.266426	-1.397545
H221	H	1.584698	-0.267153	-1.350853
H222	H	1.756696	-0.229610	-1.251717
H223	H	1.644431	-0.230326	-1.205012
