data_functionalizedCrystal
_audit_creation_method	'MofGen! by Chris Wilmer'
_symmetry_space_group_name_H-M	'P1'
_symmetry_Int_Tables_number	1
_symmetry_cell_setting	triclinic
loop_
_symmetry_equiv_pos_as_xyz
  x,y,z
_cell_length_a	15.944499
_cell_length_b	15.944551
_cell_length_c	13.448316
_cell_angle_alpha	90.008226
_cell_angle_beta	90.003999
_cell_angle_gamma	83.488174
loop_
_atom_site_label
_atom_site_type_symbol
_atom_site_fract_x
_atom_site_fract_y
_atom_site_fract_z
O1	O	1.114547	0.108129	0.082754
O2	O	0.869991	0.121530	0.082743
O3	O	0.998948	-0.007446	0.082740
O4	O	0.985591	0.237106	0.082757
O5	O	0.998945	-0.007458	-0.082644
O6	O	0.869989	0.121519	-0.082641
O7	O	1.114544	0.108118	-0.082630
Cu8	Cu	0.992266	0.114817	-0.097736
Cu9	Cu	0.992270	0.114831	0.097849
O10	O	0.985588	0.237095	-0.082627
C11	C	0.838695	0.120976	0.000049
C12	C	0.745447	0.119331	0.000045
C13	C	0.453911	0.194263	0.000065
C14	C	0.514942	0.155317	0.081607
C15	C	0.409810	0.113355	0.000068
C16	C	0.514925	0.155285	-0.081448
C17	C	0.574719	0.116296	0.000055
C18	C	0.469613	0.074386	0.081677
C19	C	0.469590	0.074365	-0.081452
C20	C	0.530603	0.035360	0.000110
C21	C	0.314810	0.111663	0.000076
C22	C	0.669718	0.117981	0.000054
C23	C	0.998392	-0.038746	0.000047
C24	C	0.996729	-0.131992	0.000047
C25	C	0.912823	-0.346833	0.000057
C26	C	0.951785	-0.407863	-0.081486
C27	C	0.993722	-0.302717	0.000054
C28	C	0.951807	-0.407835	0.081570
C29	C	0.990811	-0.467629	0.000066
C30	C	1.032706	-0.362519	-0.081556
C31	C	1.032717	-0.362485	0.081573
C32	C	1.071737	-0.423497	0.000011
C33	C	0.995397	-0.207715	0.000047
C34	C	0.989143	-0.562630	0.000066
C35	C	1.145840	0.108672	0.000065
C36	C	1.239089	0.110317	0.000076
C37	C	0.986144	0.268394	0.000067
C38	C	0.987806	0.361640	0.000074
N39	N	0.992272	0.114834	0.235413
N40	N	0.992270	0.114808	-0.235301
C41	C	1.049481	0.057835	0.287452
C42	C	1.049484	0.057833	0.391556
C43	C	0.992275	0.114826	0.443618
C44	C	0.935064	0.171830	0.391572
C45	C	0.935065	0.171836	0.287470
C46	C	0.935064	0.171813	0.608552
C47	C	0.935062	0.171806	0.712660
C48	C	1.049483	0.057810	0.712637
C49	C	1.049484	0.057815	0.608536
C50	C	0.992272	0.114819	0.556497
H51	H	0.563780	-0.031846	0.000148
H52	H	1.096067	0.011396	0.755013
Cl53	Cl	0.402448	0.297928	0.000190
Cl54	Cl	0.438524	0.021566	-0.187897
Cl55	Cl	0.545921	0.208132	-0.187876
Cl56	Cl	0.438776	0.021599	0.188226
Cl57	Cl	1.121400	-0.013838	0.543084
Cl58	Cl	0.898957	-0.438907	-0.187925
Cl59	Cl	0.863140	0.243460	0.778102
Cl60	Cl	0.863146	0.243498	0.222051
Cl61	Cl	1.085491	-0.331678	-0.188107
H62	H	0.535041	0.189546	0.150545
H63	H	0.888479	0.218234	0.566185
H64	H	1.066906	-0.342356	0.150517
H65	H	0.845673	-0.313513	-0.000028
H66	H	1.138946	-0.456668	-0.000032
Cl67	Cl	0.898958	-0.438837	0.187996
Cl68	Cl	1.121401	-0.013822	0.222013
H69	H	1.096068	0.011421	0.433925
H70	H	0.888486	0.218239	0.433967
