data_functionalizedCrystal
_audit_creation_method	'MofGen! by Chris Wilmer'
_symmetry_space_group_name_H-M	'P1'
_symmetry_Int_Tables_number	1
_symmetry_cell_setting	triclinic
loop_
_symmetry_equiv_pos_as_xyz
  x,y,z
_cell_length_a	16.992694
_cell_length_b	16.053967
_cell_length_c	16.992695
_cell_angle_alpha	92.711940
_cell_angle_beta	90.668223
_cell_angle_gamma	92.710207
loop_
_atom_site_label
_atom_site_type_symbol
_atom_site_fract_x
_atom_site_fract_y
_atom_site_fract_z
O1	O	-1.047718	0.069324	-0.163776
O2	O	-0.547718	0.569324	0.336224
O3	O	-0.819317	0.069349	-0.161943
O4	O	-0.319317	0.569349	0.338057
O5	O	-0.932603	0.069330	-0.048660
O6	O	-0.432603	0.569330	0.451340
O7	O	-0.934433	0.069343	-0.277059
O8	O	-0.434433	0.569343	0.222941
O9	O	-0.938866	-0.069526	-0.054947
O10	O	-0.438866	0.430474	0.445053
O11	O	-0.825580	-0.069507	-0.168230
O12	O	-0.325580	0.430493	0.331770
O13	O	-1.053981	-0.069532	-0.170063
O14	O	-0.553981	0.430468	0.329937
Zn15	Zn	-0.940775	-0.091566	-0.170145
Zn16	Zn	-0.440775	0.408434	0.329855
Zn17	Zn	-0.932523	0.091383	-0.161861
Zn18	Zn	-0.432523	0.591383	0.338139
O19	O	-0.940696	-0.069513	-0.283346
O20	O	-0.440696	0.430487	0.216654
C21	C	-0.793088	-0.000076	-0.162731
C22	C	-0.293088	0.499924	0.337269
C23	C	-0.705603	-0.000067	-0.155702
C24	C	-0.205603	0.499933	0.344298
C25	C	-0.933378	-0.000098	-0.022443
C26	C	-0.433378	0.499902	0.477557
C27	C	-0.926349	-0.000097	0.065042
C28	C	-0.426349	0.499903	0.565042
C29	C	-1.080210	-0.000105	-0.169275
C30	C	-0.580210	0.499895	0.330725
C31	C	-1.167695	-0.000109	-0.176304
C32	C	-0.667695	0.499891	0.323696
N33	N	-0.946413	-0.216423	-0.175798
N34	N	-0.446413	0.283577	0.324202
C35	C	-0.659612	-0.000064	-0.223520
C36	C	-0.159612	0.499936	0.276480
C37	C	-0.577412	-0.000076	-0.216911
C38	C	-0.077412	0.499924	0.283089
C39	C	-0.541204	-0.000085	-0.142484
C40	C	-0.041204	0.499915	0.357516
C41	C	-0.587202	-0.000091	-0.074661
C42	C	-0.087202	0.499909	0.425339
C43	C	-0.669401	-0.000085	-0.081271
C44	C	-0.169401	0.499915	0.418729
C45	C	-0.295891	-0.000109	-0.115090
C46	C	0.204109	0.499891	0.384910
C47	C	-0.213686	-0.000112	-0.108486
C48	C	0.286314	0.499888	0.391514
C49	C	-0.203902	-0.000099	-0.250737
C50	C	0.296098	0.499901	0.249263
C51	C	-0.286103	-0.000088	-0.257339
C52	C	0.213897	0.499912	0.242661
C53	C	-0.332093	-0.000098	-0.189517
C54	C	0.167907	0.499902	0.310483
N55	N	-0.457183	-0.000094	-0.135727
N56	N	0.042817	0.499906	0.364273
N57	N	-0.416114	-0.000094	-0.196275
N58	N	0.083886	0.499906	0.303725
N59	N	-0.926892	0.216240	-0.156202
N60	N	-0.426892	0.716240	0.343798
C61	C	-0.975550	0.259959	-0.205069
C62	C	-0.475550	0.759959	0.294931
C63	C	-0.971590	0.347363	-0.201096
C64	C	-0.471590	0.847363	0.298904
C65	C	-0.918974	0.391048	-0.148252
C66	C	-0.418974	0.891048	0.351748
C67	C	-0.870311	0.347323	-0.099383
C68	C	-0.370311	0.847323	0.400617
C69	C	-0.874268	0.259920	-0.103360
C70	C	-0.374268	0.759920	0.396640
C71	C	-0.901706	0.652449	-0.130906
C72	C	-0.401706	1.152449	0.369094
C73	C	-0.897754	0.739858	-0.126931
C74	C	-0.397754	1.239858	0.373069
C75	C	-0.999033	0.739892	-0.228646
C76	C	-0.499033	1.239892	0.271354
C77	C	-1.002989	0.652487	-0.232615
C78	C	-0.502989	1.152487	0.267385
C79	C	-0.954322	0.608770	-0.183749
C80	C	-0.454322	1.108770	0.316251
N81	N	-0.914926	0.480390	-0.144188
N82	N	-0.414926	0.980390	0.355812
N83	N	-0.958366	0.519430	-0.187818
N84	N	-0.458366	1.019430	0.312182
C85	C	-0.939920	-0.000084	-0.309563
C86	C	-0.439920	0.499916	0.190437
C87	C	-0.946949	-0.000079	-0.397047
C88	C	-0.446949	0.499921	0.102953
C89	C	-0.994168	-0.000105	0.111032
C90	C	-0.494168	0.499895	0.611032
C91	C	-0.987559	-0.000096	0.193233
C92	C	-0.487559	0.499904	0.693233
C93	C	-0.913130	-0.000086	0.229442
C94	C	-0.413130	0.499914	0.729442
C95	C	-0.845307	-0.000075	0.183446
C96	C	-0.345307	0.499925	0.683446
C97	C	-0.851917	-0.000078	0.101246
C98	C	-0.351917	0.499922	0.601246
C99	C	-0.885735	-0.000071	0.474757
C100	C	-0.385735	0.499929	0.974757
C101	C	-0.879131	-0.000071	0.556962
C102	C	-0.379131	0.499929	1.056962
C103	C	-1.021383	-0.000091	0.566744
C104	C	-0.521383	0.499909	1.066744
C105	C	-1.027986	-0.000099	0.484543
C106	C	-0.527986	0.499901	0.984543
C107	C	-0.960163	-0.000083	0.438554
C108	C	-0.460163	0.499917	0.938554
N109	N	-0.906373	-0.000079	0.313465
N110	N	-0.406373	0.499921	0.813465
N111	N	-0.966921	-0.000084	0.354533
N112	N	-0.466921	0.499916	0.854533
H113	H	-0.539969	-0.000072	-0.272136
H114	H	-0.039969	0.499928	0.227864
H115	H	-0.315577	-0.000071	-0.317945
H116	H	0.184423	0.499929	0.182055
H117	H	-0.830508	-0.000059	0.437322
H118	H	-0.330508	0.499941	0.937322
H119	H	-0.784705	-0.000061	0.212933
H120	H	-0.284705	0.499939	0.712933
O121	O	-1.094533	-0.000106	0.616345
O122	O	-0.594533	0.499894	1.116345
H123	H	-1.092379	0.056493	0.656585
H124	H	-0.592379	0.556493	1.156585
O125	O	-0.174629	-0.000134	-0.028208
O126	O	0.325371	0.499866	0.471792
H127	H	-0.190195	0.056451	0.007203
H128	H	0.309805	0.556451	0.507203
O129	O	-1.024071	0.394513	-0.253808
O130	O	-0.524071	0.894513	0.246192
H131	H	-1.062274	0.434335	-0.217012
H132	H	-0.562274	0.934335	0.282988
H133	H	-1.018399	0.224397	-0.248098
H134	H	-0.518399	0.724397	0.251902
H135	H	-0.333327	-0.000118	-0.059864
H136	H	0.166673	0.499882	0.440136
H137	H	-0.796692	-0.000071	0.063801
H138	H	-0.296692	0.499929	0.563801
O139	O	-0.841060	0.786974	-0.069870
O140	O	-0.341060	1.286974	0.430130
H141	H	-0.846517	0.855095	-0.075286
H142	H	-0.346517	1.355095	0.424714
H143	H	-1.088594	-0.000108	0.455068
H144	H	-0.588594	0.499892	0.955068
H145	H	-0.834643	0.224326	-0.063569
H146	H	-0.334643	0.724326	0.436431
O147	O	-0.548155	-0.000104	0.005617
O148	O	-0.048155	0.499896	0.505617
H149	H	-0.483270	-0.000099	-0.001179
H150	H	0.016730	0.499901	0.498821
H151	H	-0.689086	-0.000056	-0.284126
H152	H	-0.189086	0.499944	0.215874
H153	H	-1.054775	-0.000119	0.081557
H154	H	-0.554775	0.499881	0.581557
H155	H	-0.166449	-0.000092	-0.305954
H156	H	0.333551	0.499908	0.194046
H157	H	-0.706846	-0.000087	-0.026046
H158	H	-0.206846	0.499913	0.473954
O159	O	-1.059736	0.605369	-0.289614
O160	O	-0.559736	1.105369	0.210386
H161	H	-1.092903	0.650455	-0.322932
H162	H	-0.592903	1.150455	0.177068
O163	O	-1.060705	-0.000119	0.242840
O164	O	-0.560705	0.499881	0.742840
H165	H	-1.113570	-0.000142	0.203851
H166	H	-0.613570	0.499858	0.703851
O167	O	-1.051511	0.787041	-0.281361
O168	O	-0.551511	1.287041	0.218639
H169	H	-1.039917	0.855158	-0.269726
H170	H	-0.539917	1.355158	0.230274
H171	H	-0.818520	-0.000076	0.586440
H172	H	-0.318520	0.499924	1.086440
H173	H	-0.862080	0.616865	-0.091114
H174	H	-0.362080	1.116865	0.408886
H175	H	-0.827467	0.382898	-0.056359
H176	H	-0.327467	0.882898	0.443641
