data_functionalizedCrystal
_audit_creation_method	'MofGen! by Chris Wilmer'
_symmetry_space_group_name_H-M	'P1'
_symmetry_Int_Tables_number	1
_symmetry_cell_setting	triclinic
loop_
_symmetry_equiv_pos_as_xyz
  x,y,z
_cell_length_a	13.897448
_cell_length_b	13.897449
_cell_length_c	17.640968
_cell_angle_alpha	101.225735
_cell_angle_beta	78.768361
_cell_angle_gamma	89.982475
loop_
_atom_site_label
_atom_site_type_symbol
_atom_site_fract_x
_atom_site_fract_y
_atom_site_fract_z
Zn1	Zn	-0.273734	-1.584973	-0.446979
Zn2	Zn	0.226266	-1.084973	0.053021
Zn3	Zn	-0.467661	-1.552258	-0.314796
Zn4	Zn	0.032339	-1.052258	0.185204
Zn5	Zn	-0.306378	-1.391055	-0.314805
Zn6	Zn	0.193622	-0.891055	0.185195
Zn7	Zn	-0.434999	-1.423634	-0.446936
Zn8	Zn	0.065001	-0.923634	0.053064
O9	O	-0.370693	-1.487980	-0.380879
O10	O	0.129307	-0.987980	0.119121
O11	O	-0.299466	-1.715619	-0.429459
O12	O	0.200534	-1.215619	0.070541
O13	O	-0.473597	-1.503548	-0.204181
O14	O	0.026403	-1.003548	0.295819
O15	O	-0.167061	-1.416836	-0.332360
O16	O	0.332939	-0.916836	0.167640
O17	O	-0.441943	-1.691583	-0.332345
O18	O	0.058057	-1.191583	0.167655
O19	O	-0.143077	-1.559307	-0.429467
O20	O	0.356923	-1.059307	0.070533
O21	O	-0.355104	-1.385113	-0.204188
O22	O	0.144896	-0.885113	0.295812
O23	O	-0.323433	-1.260392	-0.332319
O24	O	0.176567	-0.760392	0.167681
O25	O	-0.386276	-1.472362	-0.557558
O26	O	0.113724	-0.972362	-0.057558
O27	O	-0.417930	-1.284327	-0.429395
O28	O	0.082070	-0.784327	0.070605
O29	O	-0.267795	-1.590897	-0.557589
O30	O	0.232205	-1.090897	-0.057589
O31	O	-0.598315	-1.535138	-0.332303
O32	O	-0.098315	-1.035138	0.167697
O33	O	-0.574318	-1.440639	-0.429386
O34	O	-0.074318	-0.940639	0.070614
C35	C	-0.370680	-1.237359	-0.380854
C36	C	0.129320	-0.737359	0.119146
C37	C	-0.370693	-1.130147	-0.380861
C38	C	0.129307	-0.630147	0.119139
C39	C	-0.621313	-1.487904	-0.380856
C40	C	-0.121313	-0.987904	0.119144
C41	C	-0.728523	-1.487966	-0.380873
C42	C	-0.228523	-0.987966	0.119127
C43	C	-0.370688	-0.933856	-0.380876
C44	C	0.129312	-0.433856	0.119124
C45	C	-0.370688	-1.043086	-0.380866
C46	C	0.129312	-0.543086	0.119134
C47	C	-0.924805	-1.488080	-0.380923
C48	C	-0.424805	-0.988080	0.119077
C49	C	-0.815579	-1.488014	-0.380897
C50	C	-0.315579	-0.988014	0.119103
C51	C	-0.119090	-1.488087	-0.380919
C52	C	0.380910	-0.988087	0.119081
C53	C	-0.011872	-1.488132	-0.380937
C54	C	0.488128	-0.988132	0.119063
C55	C	-0.319751	-1.538913	-0.587057
C56	C	0.180249	-1.038913	-0.087057
C57	C	-0.298042	-1.560618	-0.674918
C58	C	0.201958	-1.060618	-0.174918
C59	C	-0.370702	-0.739578	-0.380898
C60	C	0.129298	-0.239578	0.119102
C61	C	-0.370694	-0.846789	-0.380886
C62	C	0.129306	-0.346789	0.119114
C63	C	-0.535086	-1.323463	-0.963799
C64	C	-0.035086	-0.823463	-0.463799
C65	C	-0.514675	-1.343878	-1.046358
C66	C	-0.014675	-0.843878	-0.546358
C67	C	-0.391312	-1.467298	-1.046380
C68	C	0.108688	-0.967298	-0.546380
C69	C	-0.411709	-1.446890	-0.963820
C70	C	0.088291	-0.946890	-0.463820
C71	C	-0.483598	-1.374972	-0.922536
C72	C	0.016402	-0.874972	-0.422536
C73	C	-0.360221	-1.498400	-0.922556
C74	C	0.139779	-0.998400	-0.422556
C75	C	-0.380620	-1.477996	-0.840003
C76	C	0.119380	-0.977996	-0.340003
C77	C	-0.452508	-1.406084	-0.798714
C78	C	0.047492	-0.906084	-0.298714
C79	C	-0.503997	-1.354569	-0.839983
C80	C	-0.003997	-0.854569	-0.339983
C81	C	-0.288337	-1.570322	-0.963842
C82	C	0.211663	-1.070322	-0.463842
C83	C	-0.236849	-1.621832	-0.922578
C84	C	0.263151	-1.121832	-0.422578
C85	C	-0.257243	-1.601424	-0.840024
C86	C	0.242757	-1.101424	-0.340024
C87	C	-0.329131	-1.529511	-0.798734
C88	C	0.170869	-1.029511	-0.298734
C89	C	-0.205754	-1.652939	-0.798755
C90	C	0.294246	-1.152939	-0.298755
C91	C	-0.226153	-1.632536	-0.716202
C92	C	0.273847	-1.132536	-0.216202
C93	C	-0.349530	-1.509108	-0.716181
C94	C	0.150470	-1.009108	-0.216181
C95	C	-0.421367	-1.437301	-0.175503
C96	C	0.078633	-0.937301	0.324497
C97	C	-0.442804	-1.415783	-0.087643
C98	C	0.057196	-0.915783	0.412357
H99	H	-0.408046	-1.450522	-0.682565
H100	H	0.091954	-0.950522	-0.182565
H101	H	-0.469119	-1.389477	-0.731494
H102	H	0.030881	-0.889477	-0.231494
N103	N	-0.170638	-1.688093	-0.671682
N104	N	0.329362	-1.188093	-0.171682
H105	H	-0.098162	-1.676697	-0.686043
H106	H	0.401838	-1.176697	-0.186043
H107	H	-0.194565	-1.664221	-0.613137
H108	H	0.305435	-1.164221	-0.113137
N109	N	-0.159313	-1.699397	-0.967103
N110	N	0.340687	-1.199397	-0.467103
H111	H	-0.190049	-1.752551	-1.001350
H112	H	0.309951	-1.252551	-0.501350
H113	H	-0.106170	-1.668599	-1.001314
H114	H	0.393830	-1.168599	-0.501314
H115	H	-0.147229	-1.711501	-0.832380
H116	H	0.352771	-1.211501	-0.332380
N117	N	-0.612625	-1.245894	-0.919265
N118	N	-0.112625	-0.745894	-0.419265
H119	H	-0.617732	-1.240789	-0.860707
H120	H	-0.117732	-0.740789	-0.360707
H121	H	-0.594039	-1.180575	-0.933692
H122	H	-0.094039	-0.680575	-0.433692
N123	N	-0.581530	-1.276994	-0.795449
N124	N	-0.081530	-0.776994	-0.295449
H125	H	-0.646904	-1.295495	-0.809805
H126	H	-0.146904	-0.795495	-0.309805
H127	H	-0.586552	-1.271924	-0.736906
H128	H	-0.086552	-0.771924	-0.236906
N129	N	-0.570216	-1.288321	-1.090865
N130	N	-0.070216	-0.788321	-0.590865
H131	H	-0.618852	-1.239668	-1.052182
H132	H	-0.118852	-0.739668	-0.552182
H133	H	-0.522487	-1.252161	-1.125122
H134	H	-0.022487	-0.752161	-0.625122
H135	H	-0.271733	-1.586934	-1.031062
H136	H	0.228267	-1.086934	-0.531062
N137	N	-0.313781	-1.544867	-1.090909
N138	N	0.186219	-1.044867	-0.590909
H139	H	-0.308670	-1.549978	-1.149468
H140	H	0.191330	-1.049978	-0.649468
H141	H	-0.248454	-1.526310	-1.076489
H142	H	0.251546	-1.026310	-0.576489
