data_functionalizedCrystal
_audit_creation_method	'MofGen! by Chris Wilmer'
_symmetry_space_group_name_H-M	'P1'
_symmetry_Int_Tables_number	1
_symmetry_cell_setting	triclinic
loop_
_symmetry_equiv_pos_as_xyz
  x,y,z
_cell_length_a	10.723024
_cell_length_b	22.610064
_cell_length_c	10.723022
_cell_angle_alpha	89.994714
_cell_angle_beta	95.532452
_cell_angle_gamma	89.991371
loop_
_atom_site_label
_atom_site_type_symbol
_atom_site_fract_x
_atom_site_fract_y
_atom_site_fract_z
O1	O	-1.657196	0.049188	0.175011
O2	O	-1.294044	0.049188	0.191764
O3	O	-1.483997	0.049186	0.001811
O4	O	-1.467242	0.049190	0.364963
O5	O	-1.483964	-0.049184	0.001839
O6	O	-1.294010	-0.049182	0.191791
O7	O	-1.657162	-0.049181	0.175038
Zn8	Zn	-1.475581	-0.064800	0.183419
Zn9	Zn	-1.475625	0.064806	0.183383
O10	O	-1.467208	-0.049179	0.364991
C11	C	-1.247527	0.000003	0.190558
C12	C	-1.108973	0.000003	0.186911
N13	N	-1.475560	-0.153252	0.183443
C14	C	-1.033990	0.000004	0.293199
C15	C	-0.890786	0.000004	0.289431
C16	C	-1.559741	-0.561895	0.099285
C17	C	-1.559747	-0.623814	0.099276
O18	O	-1.631268	-0.655834	0.027739
N19	N	-1.475624	-0.654789	0.183357
C20	C	-1.391481	-0.623841	0.267444
O21	O	-1.319927	-0.655873	0.338960
C22	C	-1.391469	-0.561922	0.267446
C23	C	-1.475606	-0.530951	0.183368
C24	C	-1.643870	-0.530923	0.015212
C25	C	-1.643865	-0.469007	0.015223
C26	C	-1.559731	-0.438063	0.099306
C27	C	-1.475601	-0.469035	0.183379
C28	C	-1.307321	-0.530975	0.351526
C29	C	-1.307316	-0.469052	0.351520
C30	C	-1.391453	-0.438081	0.267442
C31	C	-1.391462	-0.376175	0.267473
N32	N	-1.475585	-0.345201	0.183392
C33	C	-1.559719	-0.376144	0.099308
C34	C	-1.391509	-0.753875	0.267432
C35	C	-1.391526	-0.815792	0.267437
C36	C	-1.559791	-0.815761	0.099267
C37	C	-1.559779	-0.753843	0.099269
C38	C	-1.475632	-0.722900	0.183351
C39	C	-1.559703	-0.246117	0.099338
C40	C	-1.559694	-0.184196	0.099360
C41	C	-1.391425	-0.184232	0.267525
C42	C	-1.391438	-0.246148	0.267509
C43	C	-1.475582	-0.277089	0.183405
O44	O	-1.319974	-0.344117	0.338970
O45	O	-1.631250	-0.344105	0.027793
C46	C	-0.703679	0.000003	0.176243
C47	C	-0.842233	0.000003	0.179891
C48	C	-1.482762	0.000002	-0.044675
C49	C	-1.479115	0.000004	-0.183229
N50	N	-1.475656	0.153258	0.183349
C51	C	-1.369575	0.000005	-0.231790
C52	C	-1.365803	0.000007	-0.374993
C53	C	-1.468444	0.000006	0.411477
C54	C	-1.472091	0.000008	0.550031
H55	H	-1.075811	0.000002	0.386984
Br56	Br	-0.783401	0.000013	0.441098
H57	H	-1.278586	0.000001	-0.167348
H58	H	-1.628290	-0.728629	0.030805
Br59	Br	-0.949611	0.000008	0.028219
H60	H	-1.067151	0.000017	0.093125
H61	H	-1.272016	0.000011	-0.416805
Br62	Br	-1.673892	-0.142166	-0.014748
H63	H	-1.570103	0.000002	-0.247672
H64	H	-1.628219	-0.271302	0.030852
H65	H	-1.712373	-0.443794	-0.053244
H66	H	-1.565883	0.000029	-0.408165
H67	H	-1.322938	-0.271366	0.335985
Br68	Br	-1.758065	-0.572908	-0.098917
Br69	Br	-1.277250	-0.142227	0.381638
Br70	Br	-1.673973	-0.857770	-0.014846
H71	H	-1.323027	-0.841005	0.335914
H72	H	-1.322990	-0.728684	0.335912
H73	H	-1.238789	-0.443861	0.419989
Br74	Br	-1.193129	-0.572996	0.465637
