data_functionalizedCrystal
_audit_creation_method	'MofGen! by Chris Wilmer'
_symmetry_space_group_name_H-M	'P1'
_symmetry_Int_Tables_number	1
_symmetry_cell_setting	triclinic
loop_
_symmetry_equiv_pos_as_xyz
  x,y,z
_cell_length_a	14.971482
_cell_length_b	17.699083
_cell_length_c	13.448316
_cell_angle_alpha	89.992503
_cell_angle_beta	89.993798
_cell_angle_gamma	83.447811
loop_
_atom_site_label
_atom_site_type_symbol
_atom_site_fract_x
_atom_site_fract_y
_atom_site_fract_z
O1	O	1.186610	0.098620	-0.082681
O2	O	1.686610	0.598620	0.417319
O3	O	0.926169	0.110434	-0.082686
O4	O	1.426169	0.610434	0.417314
O5	O	1.063748	-0.005644	-0.082675
O6	O	1.563748	0.494356	0.417325
O7	O	1.049032	0.214698	-0.082692
O8	O	1.549032	0.714698	0.417308
O9	O	1.063731	-0.005651	0.082709
O10	O	1.563731	0.494349	0.582709
O11	O	0.926152	0.110427	0.082698
O12	O	1.426152	0.610427	0.582698
O13	O	1.186593	0.098613	0.082703
O14	O	1.686593	0.598613	0.582703
Cu15	Cu	1.056371	0.104519	0.097801
Cu16	Cu	1.556371	0.604519	0.597801
Cu17	Cu	1.056391	0.104528	-0.097784
Cu18	Cu	1.556391	0.604528	0.402216
O19	O	1.049015	0.214691	0.082691
O20	O	1.549015	0.714691	0.582691
C21	C	0.892838	0.109903	0.000005
C22	C	1.392838	0.609903	0.500005
C23	C	0.793546	0.108321	0.000004
C24	C	1.293546	0.608321	0.500004
C25	C	0.746894	0.107572	0.090155
C26	C	1.246894	0.607572	0.590155
C27	C	0.653601	0.106074	0.090157
C28	C	1.153601	0.606074	0.590157
C29	C	0.606960	0.105330	0.000005
C30	C	1.106960	0.605330	0.500005
C31	C	0.653618	0.106076	-0.090154
C32	C	1.153618	0.606076	0.409846
C33	C	0.746911	0.107569	-0.090154
C34	C	1.246911	0.607569	0.409846
C35	C	0.459167	0.102967	-0.090147
C36	C	0.959167	0.602967	0.409853
C37	C	0.365868	0.101475	-0.090147
C38	C	0.865868	0.601475	0.409853
C39	C	0.365857	0.101471	0.090163
C40	C	0.865857	0.601471	0.590163
C41	C	0.459150	0.102964	0.090163
C42	C	0.959150	0.602964	0.590163
C43	C	0.505802	0.103712	0.000004
C44	C	1.005802	0.603712	0.500004
C45	C	1.063212	-0.033846	0.000017
C46	C	1.563212	0.466154	0.500017
C47	C	1.061630	-0.117868	0.000018
C48	C	1.561630	0.382132	0.500018
C49	C	1.142386	-0.166291	0.000021
C50	C	1.642386	0.333709	0.500021
C51	C	1.140894	-0.245238	0.000012
C52	C	1.640894	0.254762	0.500012
C53	C	1.058646	-0.275760	0.000007
C54	C	1.558646	0.224240	0.500007
C55	C	0.977884	-0.227331	0.000001
C56	C	1.477884	0.272669	0.500001
C57	C	0.979376	-0.148385	0.000003
C58	C	1.479376	0.351615	0.500003
C59	C	0.971862	-0.545709	-0.000007
C60	C	1.471862	-0.045709	0.499993
C61	C	0.970376	-0.624660	-0.000006
C62	C	1.470376	-0.124660	0.499994
C63	C	1.133380	-0.642561	0.000002
C64	C	1.633380	-0.142561	0.500002
C65	C	1.134873	-0.563616	0.000004
C66	C	1.634873	-0.063616	0.500004
C67	C	1.054111	-0.515193	-0.000007
C68	C	1.554111	-0.015193	0.499993
C69	C	1.055730	-0.429590	0.000000
C70	C	1.555730	0.070410	0.500000
C71	C	1.057026	-0.361362	0.000007
C72	C	1.557026	0.138638	0.500007
C73	C	1.219925	0.099144	0.000009
C74	C	1.719925	0.599144	0.500009
C75	C	1.319217	0.100726	0.000004
C76	C	1.819217	0.600726	0.500004
C77	C	1.049550	0.242893	-0.000003
C78	C	1.549550	0.742893	0.499997
C79	C	1.051132	0.326915	-0.000010
C80	C	1.551132	0.826915	0.499990
N81	N	1.056363	0.104513	0.235365
N82	N	1.556363	0.604513	0.735365
N83	N	1.056406	0.104528	-0.235349
N84	N	1.556406	0.604528	0.264651
C85	C	1.117302	0.053135	0.287411
C86	C	1.617302	0.553135	0.787411
C87	C	1.117307	0.053134	0.391514
C88	C	1.617307	0.553134	0.891514
C89	C	1.056378	0.104516	0.443570
C90	C	1.556378	0.604516	0.943570
C91	C	0.995433	0.155897	0.391517
C92	C	1.495433	0.655897	0.891517
C93	C	0.995424	0.155893	0.287416
C94	C	1.495424	0.655893	0.787416
C95	C	0.995458	0.155902	0.608497
C96	C	1.495458	0.655902	1.108497
C97	C	0.995468	0.155907	0.712606
C98	C	1.495468	0.655907	1.212606
C99	C	1.117341	0.053143	0.712596
C100	C	1.617341	0.553143	1.212596
C101	C	1.117332	0.053139	0.608494
C102	C	1.617332	0.553139	1.108494
C103	C	1.056388	0.104521	0.556449
C104	C	1.556388	0.604521	1.056449
H105	H	0.327869	0.100862	0.163574
H106	H	0.827869	0.600862	0.663574
Br107	Br	0.858745	-0.666083	-0.000011
Br108	Br	1.358745	-0.166083	0.499989
H109	H	0.327895	0.100870	-0.163557
H110	H	0.827895	0.600870	0.336443
Br111	Br	1.200029	-0.016587	0.537843
Br112	Br	1.700029	0.483413	1.037843
H113	H	1.209362	-0.141446	0.000031
H114	H	1.709362	0.358554	0.500031
H115	H	0.497148	0.103576	-0.163564
H116	H	0.997148	0.603576	0.336436
Br117	Br	0.869775	-0.082667	-0.000009
Br118	Br	1.369775	0.417333	0.499991
Br119	Br	1.200054	-0.016585	0.783231
Br120	Br	1.700054	0.483415	1.283231
Br121	Br	0.912712	0.225619	0.216783
Br122	Br	1.412712	0.725619	0.716783
Br123	Br	1.250496	-0.310953	0.000016
Br124	Br	1.750496	0.189047	0.500016
H125	H	0.615637	0.105465	-0.163557
H126	H	1.115637	0.605465	0.336443
H127	H	1.166921	0.011297	0.245034
H128	H	1.666921	0.511297	0.745034
H129	H	0.615624	0.105451	0.163567
H130	H	1.115624	0.605451	0.663567
Br131	Br	0.810183	0.108590	0.212511
Br132	Br	1.310183	0.608590	0.712511
H133	H	0.497122	0.103574	0.163573
H134	H	0.997122	0.603574	0.663573
H135	H	0.906101	-0.506292	-0.000016
H136	H	1.406101	-0.006292	0.499984
Br137	Br	0.810226	0.108579	-0.212508
Br138	Br	1.310226	0.608579	0.287492
H139	H	1.166928	0.011297	0.433889
H140	H	1.666928	0.511297	0.933889
H141	H	0.945852	0.197746	0.754985
H142	H	1.445852	0.697746	1.254985
H143	H	0.910915	-0.252188	-0.000009
H144	H	1.410915	0.247812	0.499991
Br145	Br	0.912742	0.225632	0.537867
Br146	Br	1.412742	0.725632	1.037867
H147	H	0.945818	0.197730	0.433907
H148	H	1.445818	0.697730	0.933907
Br149	Br	1.246499	-0.522197	0.000009
Br150	Br	1.746499	-0.022197	0.500009
H151	H	1.199140	-0.681997	0.000006
H152	H	1.699140	-0.181997	0.500006
