data_functionalizedCrystal
_audit_creation_method	'MofGen! by Chris Wilmer'
_symmetry_space_group_name_H-M	'P1'
_symmetry_Int_Tables_number	1
_symmetry_cell_setting	triclinic
loop_
_symmetry_equiv_pos_as_xyz
  x,y,z
_cell_length_a	23.532361
_cell_length_b	23.532407
_cell_length_c	18.266242
_cell_angle_alpha	89.988983
_cell_angle_beta	89.995239
_cell_angle_gamma	82.839173
loop_
_atom_site_label
_atom_site_type_symbol
_atom_site_fract_x
_atom_site_fract_y
_atom_site_fract_z
O1	O	0.755280	0.069009	-0.060815
O2	O	1.255280	0.569009	0.439185
O3	O	0.589413	0.079040	-0.060834
O4	O	1.089413	0.579040	0.439166
O5	O	0.677349	-0.008908	-0.060810
O6	O	1.177349	0.491092	0.439190
O7	O	0.667345	0.156957	-0.060838
O8	O	1.167345	0.656957	0.439162
O9	O	0.677334	-0.008912	0.060952
O10	O	1.177334	0.491088	0.560952
O11	O	0.589398	0.079036	0.060928
O12	O	1.089398	0.579036	0.560928
O13	O	0.755266	0.069005	0.060947
O14	O	1.255266	0.569005	0.560947
Zn15	Zn	0.672330	0.074020	0.080270
Zn16	Zn	1.172330	0.574020	0.580270
Zn17	Zn	0.672349	0.074026	-0.080157
Zn18	Zn	1.172349	0.574026	0.419843
O19	O	0.667330	0.156953	0.060924
O20	O	1.167330	0.656953	0.560924
C21	C	0.568189	0.078787	0.000045
C22	C	1.068189	0.578787	0.500045
C23	C	0.504971	0.078032	0.000039
C24	C	1.004971	0.578032	0.500039
C25	C	0.231735	0.074731	-0.066329
C26	C	0.731735	0.574731	0.433671
C27	C	0.291135	0.075446	-0.066331
C28	C	0.791135	0.575446	0.433669
O29	O	0.321868	0.075798	-0.122777
O30	O	0.821868	0.575798	0.377223
N31	N	0.320832	0.075804	0.000042
N32	N	0.820832	0.575804	0.500042
C33	C	0.291128	0.075442	0.066421
C34	C	0.791128	0.575442	0.566421
O35	O	0.321843	0.075813	0.122876
O36	O	0.821843	0.575813	0.622876
C37	C	0.231730	0.074723	0.066422
C38	C	0.731730	0.574723	0.566422
C39	C	0.202035	0.074370	0.000045
C40	C	0.702035	0.574370	0.500045
C41	C	0.202040	0.074377	-0.132700
C42	C	0.702040	0.574377	0.367300
C43	C	0.142644	0.073663	-0.132698
C44	C	0.642644	0.573663	0.367302
C45	C	0.112944	0.073303	-0.066324
C46	C	0.612944	0.573303	0.433676
C47	C	0.142639	0.073657	0.000047
C48	C	0.642639	0.573657	0.500047
C49	C	0.202027	0.074357	0.132800
C50	C	0.702027	0.574357	0.632800
C51	C	0.142625	0.073638	0.132796
C52	C	0.642625	0.573638	0.632796
C53	C	0.112930	0.073285	0.066419
C54	C	0.612930	0.573285	0.566419
C55	C	0.053542	0.072582	0.066423
C56	C	0.553542	0.572582	0.566423
N57	N	0.023845	0.072224	0.000051
N58	N	0.523845	0.572224	0.500051
C59	C	0.053545	0.072584	-0.066323
C60	C	0.553545	0.572584	0.433677
C61	C	0.415868	0.076951	0.066413
C62	C	0.915868	0.576951	0.566413
C63	C	0.475265	0.077674	0.066413
C64	C	0.975265	0.577674	0.566413
C65	C	0.475268	0.077677	-0.066339
C66	C	0.975268	0.577677	0.433661
C67	C	0.415869	0.076958	-0.066338
C68	C	0.915869	0.576958	0.433662
C69	C	0.386171	0.076593	0.000041
C70	C	0.886171	0.576593	0.500041
C71	C	-0.071190	0.071085	-0.066314
C72	C	0.428810	0.571085	0.433686
C73	C	-0.130592	0.070374	-0.066305
C74	C	0.369408	0.570374	0.433695
C75	C	-0.130589	0.070369	0.066446
C76	C	0.369411	0.570369	0.566446
C77	C	-0.071193	0.071083	0.066438
C78	C	0.428807	0.571083	0.566438
C79	C	-0.041495	0.071440	0.000053
C80	C	0.458505	0.571440	0.500053
O81	O	0.022772	0.072228	0.122840
O82	O	0.522772	0.572228	0.622840
O83	O	0.022825	0.072206	-0.122769
O84	O	0.522825	0.572206	0.377231
C85	C	0.677086	-0.030126	0.000073
C86	C	1.177086	0.469874	0.500073
C87	C	0.676320	-0.093343	0.000078
C88	C	1.176320	0.406657	0.500078
C89	C	0.723555	-0.492454	0.000043
C90	C	1.223555	0.007546	0.500043
C91	C	0.722844	-0.551854	0.000038
C92	C	1.222844	-0.051854	0.500038
O93	O	0.766630	-0.588606	0.000016
O94	O	1.266630	-0.088606	0.500016
N95	N	0.670566	-0.574471	0.000032
N96	N	1.170566	-0.074471	0.500032
C97	C	0.618997	-0.537685	0.000025
C98	C	1.118997	-0.037685	0.500025
O99	O	0.574465	-0.562377	0.000019
O100	O	1.074465	-0.062377	0.500019
C101	C	0.619709	-0.478286	0.000026
C102	C	1.119709	0.021714	0.500026
C103	C	0.671990	-0.455672	0.000038
C104	C	1.171990	0.044328	0.500038
C105	C	0.775832	-0.469839	0.000055
C106	C	1.275832	0.030161	0.500055
C107	C	0.776543	-0.410443	0.000062
C108	C	1.276543	0.089557	0.500062
C109	C	0.724977	-0.373662	0.000057
C110	C	1.224977	0.126338	0.500057
C111	C	0.672701	-0.396276	0.000045
C112	C	1.172701	0.103724	0.500045
C113	C	0.568140	-0.441501	0.000013
C114	C	1.068140	0.058499	0.500013
C115	C	0.568857	-0.382099	0.000013
C116	C	1.068857	0.117901	0.500013
C117	C	0.621137	-0.359485	0.000026
C118	C	1.121137	0.140515	0.500026
C119	C	0.621847	-0.300099	0.000047
C120	C	1.121847	0.199901	0.500047
N121	N	0.674124	-0.277481	0.000053
N122	N	1.174124	0.222519	0.500053
C123	C	0.725690	-0.314263	0.000058
C124	C	1.225690	0.185737	0.500058
C125	C	0.617505	-0.662427	0.000023
C126	C	1.117505	-0.162427	0.500023
C127	C	0.616793	-0.721825	0.000028
C128	C	1.116793	-0.221825	0.500028
C129	C	0.720640	-0.735990	0.000039
C130	C	1.220640	-0.235990	0.500039
C131	C	0.721352	-0.676591	0.000039
C132	C	1.221352	-0.176591	0.500039
C133	C	0.669783	-0.639810	0.000028
C134	C	1.169783	-0.139810	0.500028
C135	C	0.727179	-0.189526	0.000073
C136	C	1.227179	0.310474	0.500073
C137	C	0.727886	-0.130124	0.000083
C138	C	1.227886	0.369876	0.500083
C139	C	0.624039	-0.115965	0.000068
C140	C	1.124039	0.384035	0.500068
C141	C	0.623332	-0.175361	0.000062
C142	C	1.123332	0.324639	0.500062
C143	C	0.674907	-0.212141	0.000062
C144	C	1.174907	0.287859	0.500062
O145	O	0.578083	-0.263312	0.000067
O146	O	1.078083	0.236688	0.500067
O147	O	0.770214	-0.289562	0.000054
O148	O	1.270214	0.210438	0.500054
C149	C	0.776489	0.069258	0.000067
C150	C	1.276489	0.569258	0.500067
C151	C	0.839708	0.070014	0.000068
C152	C	1.339708	0.570014	0.500068
C153	C	0.667592	0.178171	0.000039
C154	C	1.167592	0.678171	0.500039
C155	C	0.668358	0.241388	0.000029
C156	C	1.168358	0.741388	0.500029
N157	N	0.672320	0.074015	0.189757
N158	N	1.172320	0.574015	0.689757
N159	N	0.672363	0.074025	-0.189643
N160	N	1.172363	0.574025	0.310357
C161	C	0.711271	0.035091	0.228076
C162	C	1.211271	0.535091	0.728076
C163	C	0.711274	0.035088	0.304721
C164	C	1.211274	0.535088	0.804721
C165	C	0.672333	0.074020	0.343044
C166	C	1.172333	0.574020	0.843044
C167	C	0.633375	0.112947	0.304716
C168	C	1.133375	0.612947	0.804716
C169	C	0.633369	0.112945	0.228072
C170	C	1.133369	0.612945	0.728072
N171	N	0.664799	0.124456	0.463367
N172	N	1.164799	0.624456	0.963367
N173	N	0.664808	0.124456	0.536175
N174	N	1.164808	0.624456	1.036175
C175	C	0.672349	0.074028	0.573966
C176	C	1.172349	0.574028	1.073966
N177	N	0.679891	0.023598	0.536199
N178	N	1.179891	0.523598	1.036199
N179	N	0.679885	0.023598	0.463384
N180	N	1.179885	0.523598	0.963384
C181	C	0.672335	0.074026	0.426151
C182	C	1.172335	0.574026	0.926151
C183	C	0.711306	0.035097	0.695393
C184	C	1.211306	0.535097	1.195393
C185	C	0.711305	0.035094	0.772039
C186	C	1.211305	0.535094	1.272039
C187	C	0.633409	0.112958	0.772032
C188	C	1.133409	0.612958	1.272032
C189	C	0.633407	0.112956	0.695387
C190	C	1.133407	0.612956	1.195387
C191	C	0.672358	0.074027	0.657072
C192	C	1.172358	0.574027	1.157072
H193	H	0.499461	0.077970	-0.120384
H194	H	0.999461	0.577970	0.379616
H195	H	-0.047017	0.071376	-0.120371
H196	H	0.452983	0.571376	0.379629
C197	C	0.832563	-0.510291	0.000069
C198	C	1.332563	-0.010291	0.500069
N199	N	0.875297	-0.540756	0.000087
N200	N	1.375297	-0.040756	0.500087
C201	C	0.777363	-0.776461	0.000037
C202	C	1.277363	-0.276461	0.500037
N203	N	0.820084	-0.806946	0.000034
N204	N	1.320084	-0.306946	0.500034
C205	C	-0.163252	0.069981	-0.139328
C206	C	0.336748	0.569981	0.360672
N207	N	-0.187850	0.069683	-0.194328
N208	N	0.312150	0.569683	0.305672
C209	C	0.834056	-0.385576	0.000069
C210	C	1.334056	0.114424	0.500069
N211	N	0.877379	-0.366851	0.000070
N212	N	1.377379	0.133149	0.500070
H213	H	0.601700	0.144655	0.803234
H214	H	1.101700	0.644655	1.303234
C215	C	-0.038528	0.071476	0.139456
C216	C	0.461472	0.571476	0.639456
N217	N	-0.013928	0.071766	0.194454
N218	N	0.486072	0.571766	0.694454
H219	H	0.574220	-0.740232	0.000030
H220	H	1.074220	-0.240232	0.500030
C221	C	0.560771	-0.621972	0.000021
C222	C	1.060771	-0.121972	0.500021
N223	N	0.518039	-0.591505	0.000018
N224	N	1.018039	-0.091505	0.500018
C225	C	0.754113	-0.007738	0.185934
C226	C	1.254113	0.492262	0.685934
N227	N	0.786381	-0.040000	0.154191
N228	N	1.286381	0.460000	0.654191
H229	H	0.743020	0.003397	0.664195
H230	H	1.243020	0.503397	1.164195
H231	H	0.743022	0.003394	0.803239
H232	H	1.243022	0.503394	1.303239
C233	C	0.109989	0.073263	-0.205719
C234	C	0.609989	0.573263	0.294281
N235	N	0.085397	0.072957	-0.260722
N236	N	0.585397	0.572957	0.239278
C237	C	0.510626	-0.466362	-0.000006
C238	C	1.010626	0.033638	0.499994
N239	N	0.467303	-0.485086	-0.000023
N240	N	0.967303	0.014914	0.499977
C241	C	0.785401	-0.105253	0.000095
C242	C	1.285401	0.394747	0.500095
N243	N	0.828721	-0.086523	0.000102
N244	N	1.328721	0.413477	0.500102
H245	H	0.582056	-0.086007	0.000067
H246	H	1.082056	0.413993	0.500067
H247	H	-0.154782	0.070078	0.120486
H248	H	0.345218	0.570078	0.620486
H249	H	0.742994	0.003390	0.335926
H250	H	1.242994	0.503390	0.835926
H251	H	0.769176	-0.219466	0.000070
H252	H	1.269176	0.280534	0.500070
H253	H	0.226216	0.074669	-0.186753
H254	H	0.726216	0.574669	0.313247
C255	C	0.590598	0.155818	0.653234
C256	C	1.090598	0.655818	1.153234
N257	N	0.558366	0.188116	0.621485
N258	N	1.058366	0.688116	1.121485
H259	H	0.526862	-0.352154	0.000003
H260	H	1.026862	0.147846	0.500003
C261	C	0.590537	0.155770	0.346872
C262	C	1.090537	0.655770	0.846872
N263	N	0.558268	0.188023	0.378624
N264	N	1.058268	0.688023	0.878624
H265	H	0.763923	-0.658183	0.000049
H266	H	1.263923	-0.158183	0.500049
H267	H	0.391695	0.076670	-0.120388
H268	H	0.891695	0.576670	0.379612
H269	H	0.499436	0.077971	0.120464
H270	H	0.999436	0.577971	0.620464
H271	H	0.580761	-0.193774	0.000072
H272	H	1.080761	0.306226	0.500072
C273	C	0.590543	0.155792	0.185920
C274	C	1.090543	0.655792	0.685920
N275	N	0.558296	0.188073	0.154169
N276	N	1.058296	0.688073	0.654169
H277	H	0.391690	0.076661	0.120470
H278	H	0.891690	0.576661	0.620470
H279	H	0.118447	0.073345	0.186850
H280	H	0.618447	0.573345	0.686850
C281	C	0.234679	0.074740	0.205822
C282	C	0.734679	0.574740	0.705822
N283	N	0.259273	0.075026	0.260826
N284	N	0.759273	0.575026	0.760826
