data_functionalizedCrystal
_audit_creation_method	'MofGen! by Chris Wilmer'
_symmetry_space_group_name_H-M	'P1'
_symmetry_Int_Tables_number	1
_symmetry_cell_setting	triclinic
loop_
_symmetry_equiv_pos_as_xyz
  x,y,z
_cell_length_a	12.759401
_cell_length_b	16.625546
_cell_length_c	12.759393
_cell_angle_alpha	89.964325
_cell_angle_beta	89.979527
_cell_angle_gamma	90.023993
loop_
_atom_site_label
_atom_site_type_symbol
_atom_site_fract_x
_atom_site_fract_y
_atom_site_fract_z
Zn1	Zn	1.606205	-0.320925	-0.593986
Zn2	Zn	2.106205	0.179075	-0.093986
Zn3	Zn	1.606074	-0.455781	-0.418292
Zn4	Zn	2.106074	0.044219	0.081708
Zn5	Zn	1.430505	-0.320970	-0.418322
Zn6	Zn	1.930505	0.179030	0.081678
Zn7	Zn	1.430472	-0.455723	-0.593930
Zn8	Zn	1.930472	0.044277	-0.093930
O9	O	1.518314	-0.388350	-0.506132
O10	O	2.018314	0.111650	-0.006132
O11	O	1.753208	-0.338820	-0.570692
O12	O	2.253208	0.161180	-0.070692
O13	O	1.582743	-0.437941	-0.271275
O14	O	2.082743	0.062059	0.228725
O15	O	1.453881	-0.208131	-0.441660
O16	O	1.953881	0.291869	0.058340
O17	O	1.753112	-0.437898	-0.441610
O18	O	2.253112	0.062102	0.058390
O19	O	1.582967	-0.208099	-0.570720
O20	O	2.082967	0.291901	-0.070720
O21	O	1.453754	-0.338895	-0.271297
O22	O	1.953754	0.161105	0.228703
O23	O	1.283480	-0.338839	-0.441605
O24	O	1.783480	0.161161	0.058395
O25	O	1.453824	-0.437799	-0.740958
O26	O	1.953824	0.062201	-0.240958
O27	O	1.283455	-0.437842	-0.570623
O28	O	1.783455	0.062158	-0.070623
O29	O	1.582934	-0.338764	-0.741000
O30	O	2.082934	0.161236	-0.241000
O31	O	1.582711	-0.568606	-0.441555
O32	O	2.082711	-0.068606	0.058445
O33	O	1.453697	-0.568563	-0.570595
O34	O	1.953697	-0.068563	-0.070595
C35	C	1.245346	-0.388340	-0.506112
C36	C	1.745346	0.111660	-0.006112
C37	C	1.128570	-0.388355	-0.506128
C38	C	1.628570	0.111645	-0.006128
C39	C	1.073723	-0.439984	-0.573202
C40	C	1.573723	0.060016	-0.073202
C41	C	0.963998	-0.439988	-0.573223
C42	C	1.463998	0.060012	-0.073223
C43	C	0.963979	-0.336730	-0.439086
C44	C	1.463979	0.163270	0.060914
C45	C	1.073701	-0.336723	-0.439071
C46	C	1.573701	0.163277	0.060929
C47	C	1.518214	-0.597841	-0.506088
C48	C	2.018214	-0.097841	-0.006088
C49	C	1.518268	-0.687462	-0.506105
C50	C	2.018268	-0.187462	-0.006105
C51	C	1.518451	-1.015637	-0.506214
C52	C	2.018451	-0.515637	-0.006214
C53	C	1.518397	-0.924329	-0.506187
C54	C	2.018397	-0.424329	-0.006187
C55	C	1.518359	-0.851552	-0.506159
C56	C	2.018359	-0.351552	-0.006159
C57	C	1.518306	-0.760238	-0.506132
C58	C	2.018306	-0.260238	-0.006132
C59	C	1.792347	-0.388360	-0.506154
C60	C	2.292347	0.111640	-0.006154
C61	C	1.909124	-0.388365	-0.506163
C62	C	2.409124	0.111635	-0.006163
C63	C	1.518390	-0.388270	-0.780166
C64	C	2.018390	0.111730	-0.280166
C65	C	1.518423	-0.388237	-0.896943
C66	C	2.018423	0.111763	-0.396943
C67	C	1.518442	-0.178041	-0.506200
C68	C	2.018442	0.321959	-0.006200
C69	C	1.518497	-0.088420	-0.506228
C70	C	2.018497	0.411580	-0.006228
C71	C	1.585677	-0.336630	-1.061559
C72	C	2.085677	0.163370	-0.561559
C73	C	1.585657	-0.336661	-0.951835
C74	C	2.085657	0.163339	-0.451835
C75	C	1.451212	-0.439790	-0.951780
C76	C	1.951212	0.060210	-0.451780
C77	C	1.451238	-0.439762	-1.061502
C78	C	1.951238	0.060238	-0.561502
C79	C	1.518298	-0.388371	-0.233165
C80	C	2.018298	0.111629	0.266835
C81	C	1.518469	-0.388177	-0.116389
C82	C	2.018469	0.111823	0.383611
H83	H	0.919347	-0.482028	-0.627843
H84	H	1.419347	0.017972	-0.127843
H85	H	1.396473	-0.481787	-0.907078
H86	H	1.896473	0.018213	-0.407078
H87	H	1.396508	-0.481742	-1.106146
H88	H	1.896508	0.018258	-0.606146
H89	H	1.118394	-0.482024	-0.627806
H90	H	1.618394	0.017976	-0.127806
C91	C	1.658616	-0.280501	-1.121017
C92	C	2.158616	0.219499	-0.621017
C93	C	1.635803	-0.200731	-1.094331
C94	C	2.135803	0.299269	-0.594331
C95	C	1.702986	-0.149003	-1.149069
C96	C	2.202986	0.350997	-0.649069
H97	H	1.649075	-0.287754	-1.194233
H98	H	2.149075	0.212246	-0.694233
H99	H	1.729212	-0.292263	-1.103015
H100	H	2.229212	0.207737	-0.603015
H101	H	1.565224	-0.188972	-1.112340
H102	H	2.065224	0.311028	-0.612340
H103	H	1.645351	-0.193452	-1.021125
H104	H	2.145351	0.306548	-0.521125
H105	H	1.773582	-0.160766	-1.131067
H106	H	2.273582	0.339234	-0.631067
H107	H	1.693439	-0.156263	-1.222282
H108	H	2.193439	0.343737	-0.722282
H109	H	1.687523	-0.094874	-1.130963
H110	H	2.187523	0.405126	-0.630963
C111	C	1.133068	-0.280635	-0.366127
C112	C	1.633068	0.219365	0.133873
C113	C	1.061534	-0.235439	-0.307379
C114	C	1.561534	0.264561	0.192621
C115	C	1.116185	-0.183771	-0.240169
C116	C	1.616185	0.316229	0.259831
H117	H	1.175909	-0.245468	-0.406280
H118	H	1.675909	0.254532	0.093720
H119	H	1.175813	-0.311418	-0.320217
H120	H	1.675813	0.188582	0.179783
H121	H	1.018808	-0.204659	-0.353283
H122	H	1.518808	0.295341	0.146717
H123	H	1.018691	-0.270586	-0.267205
H124	H	1.518691	0.229414	0.232795
H125	H	1.158930	-0.214554	-0.194259
H126	H	1.658930	0.285446	0.305741
H127	H	1.159025	-0.148609	-0.280330
H128	H	1.659025	0.351391	0.219670
H129	H	1.067658	-0.153105	-0.200294
H130	H	1.567658	0.346895	0.299706
C131	C	1.658568	-0.280768	-0.892116
C132	C	2.158568	0.219232	-0.392116
C133	C	1.644175	-0.291841	-0.784278
C134	C	2.144175	0.208159	-0.284278
C135	C	1.711329	-0.240367	-0.729233
C136	C	2.211329	0.259633	-0.229233
H137	H	1.643278	-0.226559	-0.909997
H138	H	2.143278	0.273441	-0.409997
H139	H	1.729184	-0.292561	-0.910037
H140	H	2.229184	0.207439	-0.410037
H141	H	1.573575	-0.280042	-0.766364
H142	H	2.073575	0.219958	-0.266364
H143	H	1.659472	-0.346039	-0.766366
H144	H	2.159472	0.153961	-0.266366
H145	H	1.781944	-0.252160	-0.747153
H146	H	2.281944	0.247840	-0.247153
H147	H	1.696033	-0.186161	-0.747122
H148	H	2.196033	0.313839	-0.247122
H149	H	1.701579	-0.247878	-0.656059
H150	H	2.201579	0.252122	-0.156059
C151	C	0.904214	-0.280764	-0.366323
C152	C	1.404214	0.219236	0.133677
C153	C	0.796384	-0.291833	-0.380671
C154	C	1.296384	0.208167	0.119329
C155	C	0.741300	-0.240298	-0.313648
C156	C	1.241300	0.259702	0.186352
H157	H	0.922102	-0.226570	-0.381762
H158	H	1.422102	0.273430	0.118238
H159	H	0.922095	-0.292504	-0.295678
H160	H	1.422095	0.207496	0.204322
H161	H	0.778511	-0.280088	-0.451300
H162	H	1.278511	0.219912	0.048700
H163	H	0.778465	-0.346017	-0.365224
H164	H	1.278465	0.153983	0.134776
H165	H	0.759180	-0.252038	-0.243003
H166	H	1.259180	0.247962	0.256997
H167	H	0.759196	-0.186107	-0.329093
H168	H	1.259196	0.313893	0.170907
H169	H	0.668132	-0.247807	-0.323367
H170	H	1.168132	0.252193	0.176633
