data_functionalizedCrystal
_audit_creation_method	'MofGen! by Chris Wilmer'
_symmetry_space_group_name_H-M	'P1'
_symmetry_Int_Tables_number	1
_symmetry_cell_setting	triclinic
loop_
_symmetry_equiv_pos_as_xyz
  x,y,z
_cell_length_a	10.723024
_cell_length_b	15.944493
_cell_length_c	9.798715
_cell_angle_alpha	90.002726
_cell_angle_beta	89.996609
_cell_angle_gamma	83.971457
loop_
_atom_site_label
_atom_site_type_symbol
_atom_site_fract_x
_atom_site_fract_y
_atom_site_fract_z
O1	O	1.655662	0.117811	-0.113463
O2	O	1.292364	0.129088	-0.113465
O3	O	1.483972	0.001228	-0.113475
O4	O	1.464055	0.245671	-0.113453
O5	O	1.483958	0.001228	0.113507
O6	O	1.292350	0.129088	0.113517
O7	O	1.655648	0.117811	0.113520
Zn8	Zn	1.473997	0.123449	0.149557
Zn9	Zn	1.474016	0.123450	-0.149502
O10	O	1.464041	0.245670	0.113529
C11	C	1.245868	0.128267	0.000025
C12	C	1.107346	0.125812	0.000023
C13	C	1.483151	-0.030071	0.000010
C14	C	1.480710	-0.123334	-0.000007
C15	C	0.916575	0.049543	0.000013
C16	C	1.059746	0.052079	0.000016
C17	C	1.593495	-0.358448	0.000019
C18	C	1.532681	-0.409364	-0.111894
C19	C	1.476188	-0.294081	0.000009
C20	C	1.532640	-0.409341	0.111892
C21	C	1.471829	-0.459015	0.000031
C22	C	1.415406	-0.343768	-0.111997
C23	C	1.415382	-0.343741	0.111890
C24	C	1.354482	-0.394625	-0.000051
C25	C	1.478703	-0.199066	-0.000005
C26	C	1.469305	-0.554027	0.000036
C27	C	1.702144	0.118632	0.000026
C28	C	1.840667	0.121087	0.000019
C29	C	1.464862	0.276970	0.000041
C30	C	1.467302	0.370233	0.000050
N31	N	1.473993	0.123448	0.353656
N32	N	1.474029	0.123444	-0.353602
C33	C	1.554447	0.069527	0.421429
C34	C	1.554467	0.069524	0.578592
H35	H	0.875570	-0.013585	0.000028
H36	H	1.623352	0.023363	0.636873
H37	H	1.405150	0.169614	0.588125
N38	N	1.727337	-0.336979	-0.000111
H39	H	1.771508	-0.360976	-0.084729
H40	H	1.727970	-0.273685	0.000806
N41	N	0.894970	0.204712	0.000010
H42	H	0.824643	0.252108	0.000010
H43	H	0.948335	0.208955	0.084154
H44	H	1.582228	-0.438026	-0.206510
H45	H	1.365900	-0.315232	-0.206712
H46	H	1.253359	-0.410670	-0.000113
N47	N	1.146131	-0.029055	-0.000000
H48	H	1.236162	-0.015743	0.000001
H49	H	1.129945	-0.062855	0.084142
N50	N	1.020964	0.206948	0.000087
H51	H	1.072407	0.256501	0.000109
H52	H	0.966300	0.209296	-0.084044
H53	H	1.365878	-0.315064	0.206509
N54	N	1.598273	-0.447287	0.237216
H55	H	1.688501	-0.434398	0.237110
H56	H	1.554797	-0.422469	0.321676
N57	N	1.382763	0.184592	0.430909
H58	H	1.430658	0.221942	0.490191
H59	H	1.329089	0.220519	0.364003
N60	N	1.645641	0.008355	0.344183
H61	H	1.632687	0.017019	0.242860
H62	H	1.734260	0.018401	0.369051
