data_functionalizedCrystal
_audit_creation_method	'MofGen! by Chris Wilmer'
_symmetry_space_group_name_H-M	'P1'
_symmetry_Int_Tables_number	1
_symmetry_cell_setting	triclinic
loop_
_symmetry_equiv_pos_as_xyz
  x,y,z
_cell_length_a	10.489741
_cell_length_b	8.965430
_cell_length_c	16.956984
_cell_angle_alpha	89.993714
_cell_angle_beta	80.296296
_cell_angle_gamma	89.999552
loop_
_atom_site_label
_atom_site_type_symbol
_atom_site_fract_x
_atom_site_fract_y
_atom_site_fract_z
O1	O	1.680542	-0.123941	0.112437
O2	O	1.308078	-0.123964	0.122991
O3	O	1.516687	-0.123948	0.001764
O4	O	1.471933	-0.123956	0.233664
O5	O	1.516678	0.124131	0.001752
O6	O	1.308069	0.124115	0.122979
O7	O	1.680533	0.124138	0.112425
Cu8	Cu	1.494300	0.146778	0.117701
Cu9	Cu	1.494311	-0.146604	0.117715
O10	O	1.471924	0.124123	0.233652
C11	C	1.260638	0.000073	0.122188
C12	C	1.119295	0.000064	0.119803
N13	N	1.494302	0.353127	0.117691
C14	C	1.518974	0.000089	-0.027937
C15	C	1.525788	0.000082	-0.116419
C16	C	1.060422	0.000081	0.042670
C17	C	0.963922	-0.122233	0.079113
C18	C	0.963945	0.122353	0.079119
C19	C	1.024657	-0.122351	0.156278
C20	C	1.024690	0.122345	0.156274
C21	C	0.928211	0.000002	0.192772
C22	C	1.727973	0.000098	0.113228
C23	C	1.869316	0.000097	0.115613
C24	C	1.590127	0.549805	0.061185
C25	C	1.608317	0.450327	0.133122
C26	C	1.476167	0.450397	0.045759
C27	C	1.512566	0.549758	0.189691
C28	C	1.380370	0.549838	0.102281
C29	C	1.398506	0.450405	0.174270
N30	N	1.494321	0.647047	0.117717
C31	C	1.469637	0.000082	0.263353
C32	C	1.462823	0.000080	0.351835
C33	C	1.576743	0.000083	0.384573
C34	C	1.570333	0.000091	0.467712
C35	C	1.450003	0.000085	0.518110
C36	C	1.336075	0.000086	0.485367
C37	C	1.342486	0.000089	0.402230
C38	C	1.418270	0.000086	0.767701
C39	C	1.411868	0.000079	0.850843
C40	C	1.646128	0.000086	0.833182
C41	C	1.652528	0.000080	0.750044
C42	C	1.538600	0.000089	0.717308
N43	N	1.443449	0.000088	0.603091
N44	N	1.545156	0.000096	0.632328
H45	H	0.936833	-0.225640	0.046481
O46	O	1.295005	-0.000182	0.899837
C47	C	1.284307	-0.128651	0.948472
H48	H	1.352696	-0.218454	0.918406
H49	H	1.180639	-0.171774	0.957234
H50	H	1.310932	-0.099613	1.009104
O51	O	1.769524	0.000164	0.701204
C52	C	1.868701	0.000134	0.747928
H53	H	1.829794	0.047093	0.809778
H54	H	1.952465	0.072168	0.717729
H55	H	1.904042	-0.118879	0.754059
O56	O	1.301680	0.398828	0.231303
C57	C	1.181908	0.451738	0.215552
H58	H	1.198112	0.557008	0.177467
H59	H	1.115932	0.478347	0.274424
H60	H	1.134831	0.362648	0.182030
O61	O	1.307645	0.000339	0.735866
C62	C	1.304343	0.128802	0.688283
H63	H	1.368868	0.218614	0.708323
H64	H	1.200818	0.171912	0.695145
H65	H	1.340671	0.099759	0.622904
H66	H	1.671200	0.593447	0.013442
H67	H	1.704674	0.406617	0.146173
H68	H	1.051570	-0.225874	0.188894
O69	O	1.231699	0.000012	0.370557
C70	C	1.124116	0.000040	0.432865
H71	H	1.153885	-0.046927	0.489542
H72	H	1.044053	-0.071987	0.415021
H73	H	1.087416	0.119054	0.444416
H74	H	1.738881	0.000066	0.859845
H75	H	1.528017	0.593222	0.250549
H76	H	1.051814	0.225758	0.188879
H77	H	0.871161	-0.000067	0.256248
O78	O	1.265395	0.602106	0.086830
C79	C	1.205112	0.688580	0.152035
H80	H	1.243868	0.654565	0.208309
H81	H	1.096161	0.669439	0.161431
H82	H	1.226561	0.811658	0.139091
H83	H	0.936885	0.225760	0.046463
O84	O	1.458008	0.398503	-0.026889
C85	C	1.559268	0.449119	-0.086288
H86	H	1.604021	0.553799	-0.064280
H87	H	1.519463	0.475951	-0.143208
H88	H	1.636198	0.358540	-0.099407
H89	H	1.674729	0.000075	0.343544
H90	H	1.238099	0.000090	0.526408
O91	O	1.128707	-0.000327	-0.032997
C92	C	1.098050	-0.129518	-0.073365
H93	H	1.059838	-0.219203	-0.027803
H94	H	1.188558	-0.172215	-0.113855
H95	H	1.020968	-0.101605	-0.111079
O96	O	1.681120	0.000030	0.499382
C97	C	1.788700	0.000067	0.437071
H98	H	1.758932	-0.046909	0.380401
H99	H	1.868770	-0.071948	0.454924
H100	H	1.825391	0.119084	0.425504
