data_functionalizedCrystal
_audit_creation_method	'MofGen! by Chris Wilmer'
_symmetry_space_group_name_H-M	'P1'
_symmetry_Int_Tables_number	1
_symmetry_cell_setting	triclinic
loop_
_symmetry_equiv_pos_as_xyz
  x,y,z
_cell_length_a	21.395364
_cell_length_b	16.120297
_cell_length_c	16.120531
_cell_angle_alpha	84.389419
_cell_angle_beta	87.052757
_cell_angle_gamma	92.877501
loop_
_atom_site_label
_atom_site_type_symbol
_atom_site_fract_x
_atom_site_fract_y
_atom_site_fract_z
Zn1	Zn	0.925587	-0.489418	0.356425
Zn2	Zn	1.425587	0.010582	0.856425
Zn3	Zn	0.925496	-0.356720	0.489114
Zn4	Zn	1.425496	0.143280	0.989114
Zn5	Zn	0.826405	-0.349666	0.349395
Zn6	Zn	1.326405	0.150334	0.849395
Zn7	Zn	0.815174	-0.496444	0.496194
Zn8	Zn	1.315174	0.003556	0.996194
O9	O	0.873165	-0.423062	0.422782
O10	O	1.373165	0.076938	0.922782
O11	O	1.013253	-0.471827	0.374005
O12	O	1.513253	0.028173	0.874005
O13	O	0.917014	-0.238823	0.464676
O14	O	1.417014	0.261177	0.964676
O15	O	0.844299	-0.362312	0.233361
O16	O	1.344299	0.137688	0.733361
O17	O	1.013186	-0.374335	0.471492
O18	O	1.513186	0.125665	0.971492
O19	O	0.917168	-0.464987	0.238526
O20	O	1.417168	0.035013	0.738526
O21	O	0.844212	-0.233640	0.362025
O22	O	1.344212	0.266360	0.862025
O23	O	0.737237	-0.369124	0.368889
O24	O	1.237237	0.130876	0.868889
O25	O	0.825158	-0.612474	0.483558
O26	O	1.325158	-0.112474	0.983558
O27	O	0.728985	-0.476962	0.476741
O28	O	1.228985	0.023038	0.976741
O29	O	0.906278	-0.607311	0.380870
O30	O	1.406278	-0.107311	0.880870
O31	O	0.906124	-0.381148	0.607020
O32	O	1.406124	0.118852	1.107020
O33	O	0.825070	-0.483802	0.612221
O34	O	1.325070	0.016198	1.112221
C35	C	0.710377	-0.423041	0.422822
C36	C	1.210377	0.076959	0.922822
C37	C	0.640734	-0.423052	0.422860
C38	C	1.140734	0.076948	0.922860
C39	C	0.608071	-0.473904	0.372190
C40	C	1.108071	0.026096	0.872190
C41	C	0.542636	-0.473906	0.372168
C42	C	1.042636	0.026094	0.872168
C43	C	0.509866	-0.423066	0.422831
C44	C	1.009866	0.076934	0.922831
C45	C	0.542537	-0.372204	0.473503
C46	C	1.042537	0.127796	0.973503
C47	C	0.607971	-0.372198	0.473518
C48	C	1.107971	0.127802	0.973518
C49	C	0.403396	-0.420157	0.497765
C50	C	0.903396	0.079843	0.997765
C51	C	0.337963	-0.420169	0.497752
C52	C	0.837963	0.079831	0.997752
C53	C	0.308046	-0.423082	0.422786
C54	C	0.808046	0.076918	0.922786
C55	C	0.343570	-0.426000	0.347830
C56	C	0.843570	0.074000	0.847830
C57	C	0.409004	-0.425993	0.347845
C58	C	0.909004	0.074007	0.847845
C59	C	0.438914	-0.423067	0.422820
C60	C	0.938914	0.076933	0.922820
C61	C	0.204432	-0.473939	0.372088
C62	C	0.704432	0.026061	0.872088
C63	C	0.138996	-0.473935	0.372064
C64	C	0.638996	0.026065	0.872064
C65	C	0.138898	-0.372238	0.473407
C66	C	0.638898	0.127762	0.973407
C67	C	0.204333	-0.372237	0.473423
C68	C	0.704333	0.127763	0.973423
C69	C	0.237096	-0.423092	0.422765
C70	C	0.737096	0.076908	0.922765
C71	C	0.864475	-0.641067	0.433788
C72	C	1.364475	-0.141067	0.933788
C73	C	0.860772	-0.733968	0.438478
C74	C	1.360772	-0.233968	0.938478
C75	C	0.853988	-0.904058	0.447022
C76	C	1.353988	-0.404058	0.947022
C77	C	0.892476	-0.942905	0.398292
C78	C	1.392476	-0.442905	0.898292
C79	C	0.888701	-1.037549	0.403046
C80	C	1.388701	-0.537549	0.903046
C81	C	0.857762	-0.809406	0.442269
C82	C	1.357762	-0.309406	0.942269
C83	C	1.036589	-0.423084	0.422743
C84	C	1.536589	0.076916	0.922743
C85	C	1.106231	-0.423093	0.422726
C86	C	1.606231	0.076907	0.922726
C87	C	0.864385	-0.434021	0.639949
C88	C	1.364385	0.065979	1.139949
C89	C	0.860684	-0.438737	0.732856
C90	C	1.360684	0.061263	1.232856
C91	C	0.881860	-0.205902	0.411759
C92	C	1.381860	0.294098	0.911759
C93	C	0.885694	-0.112989	0.406833
C94	C	1.385694	0.387011	0.906833
C95	C	0.853932	-0.447365	0.902958
C96	C	1.353932	0.052635	1.402958
C97	C	0.892424	-0.398712	0.941763
C98	C	1.392424	0.101288	1.441763
C99	C	0.888667	-0.403512	1.036414
C100	C	1.388667	0.096488	1.536414
C101	C	0.857688	-0.442566	0.808299
C102	C	1.357688	0.057434	1.308299
C103	C	0.881975	-0.412063	1.204767
C104	C	1.381975	0.087937	1.704767
C105	C	0.885673	-0.407337	1.111860
C106	C	1.385673	0.092663	1.611860
H107	H	0.634742	-0.515313	0.330940
H108	H	1.134742	-0.015313	0.830940
C109	C	0.805599	-0.508494	0.954100
C110	C	1.305599	-0.008494	1.454100
H111	H	0.809381	-0.503731	1.011927
H112	H	1.309381	-0.003731	1.511927
H113	H	0.813044	-0.563956	0.942646
H114	H	1.313044	-0.063956	1.442646
H115	H	0.764550	-0.495492	0.939294
H116	H	1.264550	0.004508	1.439294
C117	C	0.436301	-0.416947	0.580231
C118	C	0.936301	0.083053	1.080231
H119	H	0.480358	-0.417352	0.569504
H120	H	0.980358	0.082648	1.069504
H121	H	0.422339	-0.464134	0.617754
H122	H	0.922339	0.035866	1.117754
H123	H	0.426512	-0.367360	0.604301
H124	H	0.926512	0.132640	1.104301
C125	C	0.240263	-0.316309	0.529170
C126	C	0.740263	0.183691	1.029170
H127	H	0.211376	-0.286036	0.559346
H128	H	0.711376	0.213964	1.059346
H129	H	0.268541	-0.278326	0.495312
H130	H	0.768541	0.221674	0.995312
H131	H	0.263032	-0.350068	0.567258
H132	H	0.763032	0.149932	1.067258
C133	C	0.940738	-0.337546	0.890619
C134	C	1.440738	0.162454	1.390619
H135	H	0.936947	-0.342288	0.832790
H136	H	1.436947	0.157712	1.332790
H137	H	0.981794	-0.350510	0.905411
H138	H	1.481794	0.149490	1.405411
H139	H	0.933262	-0.282094	0.902092
H140	H	1.433262	0.217906	1.402092
H141	H	0.516037	-0.515313	0.330903
H142	H	1.016037	-0.015313	0.830903
H143	H	0.437925	-0.428366	0.286813
H144	H	0.937925	0.071634	0.786813
H145	H	0.319214	-0.428372	0.286785
H146	H	0.819214	0.071628	0.786785
C147	C	0.240474	-0.529868	0.316361
C148	C	0.740474	-0.029868	0.816361
H149	H	0.211647	-0.560146	0.286170
H150	H	0.711647	-0.060146	0.786170
H151	H	0.263248	-0.567848	0.350233
H152	H	0.763248	-0.067848	0.850233
H153	H	0.268756	-0.496107	0.278285
H154	H	0.768756	0.003893	0.778285
C155	C	0.805653	-0.955142	0.508208
C156	C	1.305653	-0.455142	1.008208
H157	H	0.781998	-0.918324	0.538158
H158	H	1.281998	-0.418324	1.038158
H159	H	0.826819	-0.991042	0.546292
H160	H	1.326819	-0.491042	1.046292
H161	H	0.778315	-0.987572	0.477914
H162	H	1.278315	-0.487572	0.977914
C163	C	0.103067	-0.529874	0.316325
C164	C	0.603067	-0.029874	0.816325
H165	H	0.131953	-0.560164	0.286165
H166	H	0.631953	-0.060164	0.786165
H167	H	0.080296	-0.496127	0.278235
H168	H	0.580296	0.003873	0.778235
H169	H	0.074790	-0.567857	0.350194
H170	H	0.574790	-0.067857	0.850194
H171	H	0.515852	-0.330810	0.514753
H172	H	1.015852	0.169190	1.014753
C173	C	0.102859	-0.316319	0.529139
C174	C	0.602859	0.183681	1.029139
H175	H	0.059210	-0.323610	0.521879
H176	H	0.559210	0.176390	1.021879
H177	H	0.116313	-0.259558	0.513994
H178	H	0.616313	0.240442	1.013994
H179	H	0.110810	-0.331304	0.585936
H180	H	0.610810	0.168696	1.085936
C181	C	0.298890	-0.416966	0.580197
C182	C	0.798890	0.083034	1.080197
H183	H	0.255635	-0.417400	0.569455
H184	H	0.755635	0.082600	1.069455
H185	H	0.310546	-0.367383	0.604276
H186	H	0.810546	0.132617	1.104276
H187	H	0.306376	-0.464157	0.617722
H188	H	0.806376	0.035843	1.117722
C189	C	0.940822	-0.891822	0.337113
C190	C	1.440822	-0.391822	0.837113
H191	H	0.964472	-0.928643	0.307161
H192	H	1.464472	-0.428643	0.807161
H193	H	0.968155	-0.859393	0.367408
H194	H	1.468155	-0.359393	0.867408
H195	H	0.919661	-0.855919	0.299016
H196	H	1.419661	-0.355919	0.799016
H197	H	0.634565	-0.330787	0.514780
H198	H	1.134565	0.169213	1.014780
