data_functionalizedCrystal
_audit_creation_method	'MofGen! by Chris Wilmer'
_symmetry_space_group_name_H-M	'P1'
_symmetry_Int_Tables_number	1
_symmetry_cell_setting	triclinic
loop_
_symmetry_equiv_pos_as_xyz
  x,y,z
_cell_length_a	16.959455
_cell_length_b	16.625545
_cell_length_c	16.959447
_cell_angle_alpha	89.970073
_cell_angle_beta	89.979626
_cell_angle_gamma	90.022578
loop_
_atom_site_label
_atom_site_type_symbol
_atom_site_fract_x
_atom_site_fract_y
_atom_site_fract_z
Zn1	Zn	1.208354	-0.321050	-0.447038
Zn2	Zn	1.708354	0.178950	0.052962
Zn3	Zn	1.208264	-0.455897	-0.314861
Zn4	Zn	1.708264	0.044103	0.185139
Zn5	Zn	1.076182	-0.321075	-0.314862
Zn6	Zn	1.576182	0.178925	0.185138
Zn7	Zn	1.076134	-0.455837	-0.446985
Zn8	Zn	1.576134	0.044163	0.053015
O9	O	1.142233	-0.388465	-0.380937
O10	O	1.642233	0.111535	0.119063
O11	O	1.318953	-0.338952	-0.429527
O12	O	1.818953	0.161048	0.070473
O13	O	1.190725	-0.438049	-0.204250
O14	O	1.690725	0.061951	0.295750
O15	O	1.093773	-0.208239	-0.332418
O16	O	1.593773	0.291761	0.167582
O17	O	1.318886	-0.438024	-0.332416
O18	O	1.818886	0.061976	0.167584
O19	O	1.190879	-0.208221	-0.429528
O20	O	1.690879	0.291779	0.070472
O21	O	1.093685	-0.338995	-0.204251
O22	O	1.593685	0.161005	0.295749
O23	O	0.965565	-0.338937	-0.332367
O24	O	1.465565	0.161063	0.167633
O25	O	1.093691	-0.437921	-0.557603
O26	O	1.593691	0.062079	-0.057603
O27	O	0.965530	-0.437946	-0.429437
O28	O	1.465530	0.062054	0.070563
O29	O	1.190832	-0.338894	-0.557642
O30	O	1.690832	0.161106	-0.057642
O31	O	1.190679	-0.568722	-0.332365
O32	O	1.690679	-0.068722	0.167635
O33	O	1.093604	-0.568677	-0.429436
O34	O	1.593604	-0.068677	0.070564
C35	C	0.936867	-0.388439	-0.380897
C36	C	1.436867	0.111561	0.119103
C37	C	0.849011	-0.388447	-0.380899
C38	C	1.349011	0.111553	0.119101
C39	C	0.477490	-0.440000	-0.330346
C40	C	0.977490	0.060000	0.169654
C41	C	0.477580	-0.336996	-0.431624
C42	C	0.977580	0.163004	0.068376
C43	C	0.560126	-0.336983	-0.431605
C44	C	1.060126	0.163017	0.068395
C45	C	0.601358	-0.388480	-0.380956
C46	C	1.101358	0.111520	0.119044
C47	C	0.560043	-0.439990	-0.330326
C48	C	1.060043	0.060010	0.169674
C49	C	0.601446	-0.285479	-0.482239
C50	C	1.101446	0.214521	0.017761
C51	C	0.683997	-0.285464	-0.482223
C52	C	1.183997	0.214536	0.017777
C53	C	0.725230	-0.336958	-0.431569
C54	C	1.225230	0.163042	0.068431
C55	C	0.683911	-0.388470	-0.380937
C56	C	1.183911	0.111530	0.119063
C57	C	0.725143	-0.439967	-0.330288
C58	C	1.225143	0.060033	0.169712
C59	C	0.683825	-0.491476	-0.279651
C60	C	1.183825	0.008524	0.220349
C61	C	0.601276	-0.491484	-0.279673
C62	C	1.101276	0.008516	0.220327
C63	C	0.807779	-0.336950	-0.431547
C64	C	1.307779	0.163050	0.068453
C65	C	0.807696	-0.439957	-0.330269
C66	C	1.307696	0.060043	0.169731
C67	C	1.142148	-0.597956	-0.380912
C68	C	1.642148	-0.097956	0.119088
C69	C	1.142183	-0.687577	-0.380928
C70	C	1.642183	-0.187577	0.119072
C71	C	1.142214	-0.760359	-0.380943
C72	C	1.642214	-0.260359	0.119057
C73	C	1.142260	-0.851668	-0.380961
C74	C	1.642260	-0.351668	0.119039
C75	C	1.142301	-0.924444	-0.380971
C76	C	1.642301	-0.424444	0.119029
C77	C	1.142346	-1.015758	-0.380987
C78	C	1.642346	-0.515758	0.119013
C79	C	1.348402	-0.388492	-0.380977
C80	C	1.848402	0.111508	0.119023
C81	C	1.436258	-0.388503	-0.380994
C82	C	1.936258	0.111497	0.119006
C83	C	1.142266	-0.388398	-0.587105
C84	C	1.642266	0.111602	-0.087105
C85	C	1.142280	-0.388370	-0.674962
C86	C	1.642280	0.111630	-0.174962
C87	C	1.142341	-0.178156	-0.380979
C88	C	1.642341	0.321844	0.119021
C89	C	1.142387	-0.088535	-0.380997
C90	C	1.642387	0.411465	0.119003
C91	C	1.091798	-0.439844	-1.046420
C92	C	1.591798	0.060156	-0.546420
C93	C	1.192952	-0.336726	-1.046455
C94	C	1.692952	0.163274	-0.546455
C95	C	1.192931	-0.336743	-0.963909
C96	C	1.692931	0.163257	-0.463909
C97	C	1.142343	-0.388312	-0.922615
C98	C	1.642343	0.111688	-0.422615
C99	C	1.091777	-0.439864	-0.963866
C100	C	1.591777	0.060136	-0.463866
C101	C	1.243502	-0.285197	-0.922652
C102	C	1.743502	0.214803	-0.422652
C103	C	1.243483	-0.285213	-0.840101
C104	C	1.743483	0.214787	-0.340101
C105	C	1.192891	-0.336779	-0.798805
C106	C	1.692891	0.163221	-0.298805
C107	C	1.142322	-0.388332	-0.840061
C108	C	1.642322	0.111668	-0.340061
C109	C	1.091735	-0.439902	-0.798767
C110	C	1.591735	0.060098	-0.298767
C111	C	1.041161	-0.491452	-0.840021
C112	C	1.541161	0.008548	-0.340021
C113	C	1.041185	-0.491430	-0.922570
C114	C	1.541185	0.008570	-0.422570
C115	C	1.192868	-0.336800	-0.716256
C116	C	1.692868	0.163200	-0.216256
C117	C	1.091714	-0.439922	-0.716213
C118	C	1.591714	0.060078	-0.216213
C119	C	1.142246	-0.388473	-0.175570
C120	C	1.642246	0.111527	0.324430
C121	C	1.142385	-0.388274	-0.087714
C122	C	1.642385	0.111726	0.412286
H123	H	0.841261	-0.481890	-0.289021
H124	H	1.341261	0.018110	0.210979
F125	F	1.037866	-0.494806	-0.672271
F126	F	1.537866	0.005194	-0.172271
H127	H	1.050620	-0.481812	-1.080013
H128	H	1.550620	0.018188	-0.580013
H129	H	1.234046	-0.294831	-0.682670
H130	H	1.734046	0.205169	-0.182670
H131	H	0.567628	-0.533419	-0.238447
H132	H	1.067628	-0.033419	0.261553
F133	F	0.727716	-0.546285	-0.225754
F134	F	1.227716	-0.046285	0.274246
H135	H	0.443845	-0.481935	-0.289116
H136	H	0.943845	0.018065	0.210884
F137	F	0.727963	-0.230645	-0.536113
F138	F	1.227963	0.269355	-0.036113
F139	F	0.433697	-0.282200	-0.485532
F140	F	0.933697	0.217800	0.014468
H141	H	1.234142	-0.294745	-1.080082
H142	H	1.734142	0.205255	-0.580082
F143	F	0.987328	-0.546338	-0.796063
F144	F	1.487328	-0.046338	-0.296063
F145	F	0.557561	-0.230686	-0.536148
F146	F	1.057561	0.269314	-0.036148
H147	H	0.841416	-0.295014	-0.472777
H148	H	1.341416	0.204986	0.027223
F149	F	0.987369	-0.546291	-0.966481
F150	F	1.487369	-0.046291	-0.466481
F151	F	1.297342	-0.230323	-0.966604
F152	F	1.797342	0.269677	-0.466604
F153	F	1.297306	-0.230347	-0.796202
F154	F	1.797306	0.269653	-0.296202
