data_functionalizedCrystal
_audit_creation_method	'MofGen! by Chris Wilmer'
_symmetry_space_group_name_H-M	'P1'
_symmetry_Int_Tables_number	1
_symmetry_cell_setting	triclinic
loop_
_symmetry_equiv_pos_as_xyz
  x,y,z
_cell_length_a	10.868271
_cell_length_b	19.188931
_cell_length_c	11.792241
_cell_angle_alpha	96.330721
_cell_angle_beta	89.994719
_cell_angle_gamma	90.002859
loop_
_atom_site_label
_atom_site_type_symbol
_atom_site_fract_x
_atom_site_fract_y
_atom_site_fract_z
O1	O	-0.102280	-0.926947	0.141699
O2	O	0.231053	-0.593613	0.475032
O3	O	0.564386	-0.260280	0.808366
O4	O	-0.102292	-0.723744	0.160772
O5	O	0.231041	-0.390410	0.494106
O6	O	0.564374	-0.057077	0.827439
O7	O	-0.102277	-0.830276	-0.014009
O8	O	0.231056	-0.496943	0.319325
O9	O	0.564389	-0.163610	0.652658
O10	O	-0.102295	-0.820414	0.316480
O11	O	0.231038	-0.487081	0.649813
O12	O	0.564371	-0.153747	0.983147
O13	O	0.102367	-0.830267	-0.014015
O14	O	0.435701	-0.496934	0.319318
O15	O	0.769034	-0.163601	0.652651
O16	O	0.102352	-0.723735	0.160766
O17	O	0.435686	-0.390401	0.494099
O18	O	0.769019	-0.057068	0.827432
O19	O	0.102364	-0.926938	0.141692
O20	O	0.435698	-0.593605	0.475026
O21	O	0.769031	-0.260271	0.808359
Zn22	Zn	0.134850	-0.825335	0.151228
Zn23	Zn	0.468183	-0.492002	0.484561
Zn24	Zn	0.801517	-0.158668	0.817895
Zn25	Zn	-0.134778	-0.825347	0.151237
Zn26	Zn	0.198555	-0.492013	0.484570
Zn27	Zn	0.531889	-0.158680	0.817903
O28	O	0.102349	-0.820405	0.316473
O29	O	0.435683	-0.487072	0.649807
O30	O	0.769016	-0.153738	0.983140
C31	C	0.000029	-0.697725	0.160151
C32	C	0.333362	-0.364391	0.493485
C33	C	0.666695	-0.031058	0.826818
C34	C	0.000024	-0.620210	0.158297
C35	C	0.333358	-0.286876	0.491630
C36	C	0.666691	0.046457	0.824963
N37	N	0.318864	-0.825332	0.151221
N38	N	0.652197	-0.491999	0.484555
N39	N	0.985531	-0.158665	0.817888
N40	N	-0.318792	-0.825355	0.151235
N41	N	0.014541	-0.492022	0.484568
N42	N	0.347874	-0.158688	0.817901
C43	C	-0.111514	-0.066884	0.145063
C44	C	0.221819	0.266450	0.478397
C45	C	0.555152	0.599783	0.811730
C46	C	-0.111519	-0.139718	0.146799
C47	C	0.221814	0.193615	0.480132
C48	C	0.555148	0.526949	0.813466
C49	C	0.000032	-0.176135	0.147669
C50	C	0.333366	0.157198	0.481002
C51	C	0.666699	0.490532	0.814335
C52	C	0.111597	-0.139714	0.146773
C53	C	0.444930	0.193619	0.480106
C54	C	0.778264	0.526952	0.813440
C55	C	0.111598	-0.066882	0.145026
C56	C	0.444932	0.266451	0.478359
C57	C	0.778265	0.599784	0.811693
N58	N	0.083062	-0.285533	0.214992
N59	N	0.416395	0.047800	0.548326
N60	N	0.749728	0.381134	0.881659
N61	N	0.083053	-0.354720	0.216655
N62	N	0.416386	-0.021387	0.549988
N63	N	0.749719	0.311947	0.883321
C64	C	0.000034	-0.395574	0.152931
C65	C	0.333368	-0.062240	0.486264
C66	C	0.666701	0.271093	0.819597
N67	N	-0.082993	-0.364626	0.087496
N68	N	0.250340	-0.031292	0.420829
N69	N	0.583674	0.302041	0.754163
N70	N	-0.082988	-0.295432	0.085839
N71	N	0.250346	0.037902	0.419172
N72	N	0.583679	0.371235	0.752505
C73	C	0.000043	-0.255109	0.149563
C74	C	0.333376	0.078224	0.482896
C75	C	0.666710	0.411558	0.816229
C76	C	-0.111528	-0.510961	0.155700
C77	C	0.221805	-0.177628	0.489033
C78	C	0.555139	0.155705	0.822367
C79	C	-0.111528	-0.583797	0.157429
C80	C	0.221805	-0.250464	0.490762
C81	C	0.555138	0.082869	0.824096
C82	C	0.111591	-0.583791	0.157414
C83	C	0.444924	-0.250458	0.490748
C84	C	0.778258	0.082875	0.824081
C85	C	0.111588	-0.510958	0.155674
C86	C	0.444921	-0.177624	0.489007
C87	C	0.778254	0.155709	0.822341
C88	C	0.000025	-0.474547	0.154823
C89	C	0.333358	-0.141213	0.488156
C90	C	0.666691	0.192120	0.821489
C91	C	0.569870	-0.825343	0.151234
C92	C	0.903203	-0.492010	0.484568
C93	C	1.236537	-0.158676	0.817901
C94	C	0.430193	-0.825335	0.151230
C95	C	0.763526	-0.492001	0.484564
C96	C	1.096859	-0.158668	0.817897
C97	C	0.000040	0.047043	0.142315
C98	C	0.333374	0.380377	0.475648
C99	C	0.666707	0.713710	0.808982
C100	C	0.000035	-0.030471	0.144174
C101	C	0.333369	0.302862	0.477508
C102	C	0.666702	0.636195	0.810841
C103	C	0.000044	-0.829652	-0.056294
C104	C	0.333378	-0.496319	0.277040
C105	C	0.666711	-0.162986	0.610373
C106	C	0.000043	-0.827798	-0.182280
C107	C	0.333376	-0.494465	0.151054
C108	C	0.666710	-0.161131	0.484387
C109	C	0.000022	-0.824389	-0.412941
C110	C	0.333356	-0.491055	-0.079607
C111	C	0.666689	-0.157722	0.253726
C112	C	0.000034	-0.826283	-0.284584
C113	C	0.333367	-0.492950	0.048749
C114	C	0.666700	-0.159616	0.382083
C115	C	0.000025	-0.821029	0.358758
C116	C	0.333358	-0.487696	0.692092
C117	C	0.666691	-0.154362	1.025425
C118	C	0.000018	-0.822883	0.484744
C119	C	0.333351	-0.489550	0.818078
C120	C	0.666685	-0.156217	1.151411
H121	H	-0.202359	-0.169370	0.147529
H122	H	0.130974	0.163963	0.480863
H123	H	0.464308	0.497296	0.814196
H124	H	0.202424	-0.481310	0.154954
H125	H	0.535757	-0.147977	0.488288
H126	H	0.869091	0.185357	0.821621
H127	H	0.202423	-0.169370	0.147479
H128	H	0.535756	0.163963	0.480812
H129	H	0.869089	0.497297	0.814146
H130	H	-0.202358	-0.037243	0.144365
H131	H	0.130976	0.296091	0.477699
H132	H	0.464309	0.629424	0.811032
O133	O	0.231917	-0.027601	0.144082
O134	O	0.565250	0.305733	0.477415
O135	O	0.898583	0.639066	0.810748
H136	H	0.309489	-0.065156	0.144984
H137	H	0.642822	0.268177	0.478317
H138	H	0.976155	0.601511	0.811651
O139	O	-0.231848	-0.471683	0.154753
O140	O	0.101486	-0.138350	0.488087
O141	O	0.434819	0.194984	0.821420
H142	H	-0.309419	-0.509244	0.155639
H143	H	0.023914	-0.175911	0.488973
H144	H	0.357247	0.157422	0.822306
H145	H	-0.202369	-0.613444	0.158144
H146	H	0.130964	-0.280111	0.491478
H147	H	0.464297	0.053223	0.824811
H148	H	0.202418	-0.613442	0.158118
H149	H	0.535752	-0.280109	0.491451
H150	H	0.869085	0.053225	0.824785
