data_functionalizedCrystal
_audit_creation_method	'MofGen! by Chris Wilmer'
_symmetry_space_group_name_H-M	'P1'
_symmetry_Int_Tables_number	1
_symmetry_cell_setting	triclinic
loop_
_symmetry_equiv_pos_as_xyz
  x,y,z
_cell_length_a	19.077105
_cell_length_b	19.121063
_cell_length_c	19.076919
_cell_angle_alpha	94.606347
_cell_angle_beta	90.076224
_cell_angle_gamma	90.263052
loop_
_atom_site_label
_atom_site_type_symbol
_atom_site_fract_x
_atom_site_fract_y
_atom_site_fract_z
Zn1	Zn	1.043169	-0.339734	-0.454309
Zn2	Zn	1.042790	-0.452646	-0.341419
Zn3	Zn	0.930805	-0.330327	-0.331718
Zn4	Zn	0.920631	-0.452222	-0.454155
O5	O	0.984349	-0.393732	-0.395400
O6	O	1.141268	-0.358826	-0.443459
O7	O	1.032035	-0.432660	-0.241647
O8	O	0.950127	-0.233307	-0.343985
O9	O	1.140989	-0.441782	-0.360519
O10	O	1.032681	-0.240219	-0.434052
O11	O	0.949760	-0.342793	-0.234520
O12	O	0.831307	-0.342382	-0.343835
O13	O	0.932786	-0.441060	-0.552660
O14	O	0.823831	-0.431938	-0.433788
O15	O	1.022815	-0.358416	-0.552774
O16	O	1.022169	-0.550857	-0.360369
O17	O	0.932419	-0.550546	-0.443195
C18	C	0.802120	-0.386094	-0.387742
C19	C	0.724160	-0.382844	-0.384484
C20	C	0.683661	-0.428009	-0.429719
C21	C	0.610410	-0.424946	-0.426660
C22	C	0.577659	-0.376721	-0.378362
C23	C	0.618164	-0.331551	-0.333125
C24	C	0.691414	-0.334611	-0.336188
C25	C	0.359002	-0.362559	-0.364190
C26	C	0.285746	-0.359503	-0.361130
C27	C	0.277998	-0.452898	-0.454666
C28	C	0.351249	-0.455957	-0.457722
C29	C	0.391747	-0.410784	-0.412487
N30	N	0.502785	-0.373590	-0.375233
N31	N	0.466620	-0.413912	-0.415620
C32	C	0.976167	-0.576182	-0.402834
C33	C	0.972730	-0.654239	-0.406041
C34	C	1.017877	-0.691052	-0.364463
C35	C	1.014648	-0.764395	-0.367483
C36	C	0.966269	-0.800923	-0.412078
C37	C	0.921120	-0.764105	-0.453660
C38	C	0.924353	-0.690764	-0.450644
C39	C	0.954173	-1.022359	-0.423346
C40	C	0.950942	-1.095705	-0.426358
C41	C	1.044471	-1.095990	-0.340181
C42	C	1.047697	-1.022647	-0.337165
C43	C	1.002551	-0.985836	-0.378750
C44	C	0.962966	-0.875891	-0.415164
C45	C	1.005857	-0.910869	-0.375667
C46	C	1.167289	-0.401401	-0.403088
C47	C	1.245247	-0.404669	-0.406365
C48	C	0.976708	-0.400740	-0.578967
C49	C	0.973452	-0.403726	-0.657192
C50	C	0.992581	-0.210571	-0.387953
C51	C	0.996089	-0.132518	-0.384780
C52	C	1.018793	-0.362103	-0.694003
C53	C	1.015725	-0.364906	-0.767503
C54	C	0.967319	-0.409336	-0.804192
C55	C	0.921973	-0.450962	-0.767376
C56	C	0.925038	-0.448154	-0.693877
C57	C	0.953123	-0.422342	-1.024005
C58	C	0.950063	-0.425148	-1.097510
C59	C	1.043814	-0.339090	-1.097632
C60	C	1.046877	-0.336290	-1.024131
C61	C	1.001529	-0.377913	-0.987321
N62	N	0.964183	-0.412204	-0.879321
N63	N	1.004662	-0.375041	-0.912193
C64	C	0.992003	-0.386702	-0.212547
C65	C	0.995403	-0.383524	-0.134320
H66	H	0.577438	-0.461725	-0.463495
C67	C	0.875166	-0.493943	-0.653379
C68	C	0.795269	-0.485257	-0.659894
C69	C	0.745394	-0.531044	-0.619396
C70	C	0.775417	-0.585516	-0.572384
C71	C	0.855318	-0.594204	-0.565867
C72	C	0.905193	-0.548417	-0.606365
H73	H	0.773040	-0.444931	-0.694697
H74	H	0.686245	-0.524613	-0.624220
H75	H	0.738496	-0.619411	-0.542405
H76	H	0.877547	-0.634530	-0.531064
H77	H	0.964342	-0.554849	-0.601541
H78	H	0.377909	-0.495228	-0.497049
H79	H	1.045250	-0.881126	-0.339361
H80	H	0.245016	-0.489674	-0.491494
C81	C	0.403536	-0.312882	-0.314414
C82	C	0.396792	-0.232862	-0.316592
C83	C	0.441326	-0.183188	-0.266805
C84	C	0.492603	-0.213533	-0.214839
C85	C	0.499349	-0.293557	-0.212659
C86	C	0.454815	-0.343232	-0.262446
H87	H	0.358831	-0.210395	-0.355062
H88	H	0.436332	-0.123948	-0.268420
H89	H	0.525570	-0.176761	-0.177984
H90	H	0.537310	-0.316024	-0.174188
H91	H	0.459809	-0.402471	-0.260831
C92	C	0.249719	-0.306438	-0.308013
C93	C	0.294263	-0.256739	-0.258266
C94	C	0.258236	-0.203672	-0.205157
C95	C	0.177664	-0.200304	-0.201796
C96	C	0.133115	-0.250005	-0.251544
C97	C	0.169142	-0.303071	-0.304653
H98	H	0.353912	-0.259231	-0.260753
H99	H	0.291214	-0.166881	-0.168330
H100	H	0.150994	-0.161021	-0.162481
H101	H	0.073466	-0.247513	-0.249057
H102	H	0.136164	-0.339863	-0.341480
H103	H	0.591493	-0.292282	-0.293803
C104	C	1.100124	-0.287411	-0.983780
C105	C	1.097567	-0.207728	-0.990401
C106	C	1.150817	-0.158850	-0.950052
C107	C	1.206625	-0.189656	-0.903081
C108	C	1.209184	-0.269344	-0.896457
C109	C	1.155934	-0.318221	-0.936806
H110	H	1.056252	-0.184920	-1.025174
H111	H	1.148922	-0.099860	-0.954956
H112	H	1.246044	-0.153474	-0.873211
H113	H	1.250499	-0.292152	-0.861684
H114	H	1.157829	-0.377212	-0.931903
H115	H	0.916207	-0.456245	-0.994044
C116	C	0.896833	-0.474047	-1.137871
C117	C	0.846968	-0.519849	-1.097385
C118	C	0.793754	-0.568759	-1.137748
C119	C	0.790407	-0.571867	-1.218596
C120	C	0.840274	-0.526065	-1.259086
C121	C	0.893488	-0.477154	-1.218724
H122	H	0.849444	-0.517549	-1.037532
H123	H	0.756839	-0.602665	-1.107774
H124	H	0.751015	-0.608074	-1.248475
H125	H	0.837798	-0.528364	-1.318939
H126	H	0.930403	-0.443248	-1.248698
H127	H	0.923575	-0.905641	-0.451472
H128	H	0.911554	-1.125446	-0.462685
H129	H	0.724388	-0.297829	-0.299356
H130	H	1.081228	-1.125969	-0.306326
C131	C	0.868731	-0.499847	-0.807726
C132	C	0.789675	-0.490400	-0.794034
C133	C	0.736436	-0.539293	-0.834380
C134	C	0.762253	-0.597634	-0.888418
C135	C	0.841313	-0.607084	-0.902113
C136	C	0.894552	-0.558190	-0.861767
H137	H	0.770560	-0.447210	-0.754030
H138	H	0.677910	-0.532298	-0.824243
H139	H	0.722842	-0.633828	-0.918285
H140	H	0.860428	-0.650274	-0.942117
H141	H	0.953078	-0.565186	-0.871904
C142	C	1.071095	-0.650873	-0.315408
C143	C	1.068324	-0.657708	-0.235575
C144	C	1.121546	-0.617532	-0.186521
C145	C	1.177539	-0.570521	-0.217298
C146	C	1.180312	-0.563685	-0.297135
C147	C	1.127090	-0.603861	-0.346190
H148	H	1.026873	-0.692510	-0.212788
H149	H	1.119492	-0.622593	-0.127420
H150	H	1.216937	-0.540780	-0.180985
H151	H	1.221763	-0.528883	-0.319922
H152	H	1.129144	-0.598800	-0.405290
H153	H	0.881732	-0.793853	-0.489974
C154	C	1.064315	-0.804884	-0.321747
C155	C	1.062429	-0.791550	-0.241085
C156	C	1.112102	-0.832038	-0.195348
C157	C	1.163660	-0.885860	-0.230274
C158	C	1.165547	-0.899197	-0.310941
C159	C	1.115875	-0.858709	-0.356677
H160	H	1.024261	-0.751705	-0.215226
H161	H	1.110704	-0.822165	-0.135633
H162	H	1.200430	-0.915831	-0.196417
H163	H	1.203716	-0.939041	-0.336799
H164	H	1.117272	-0.868582	-0.416392
H165	H	1.087091	-0.992907	-0.300852
H166	H	1.080733	-0.305203	-1.127610
H167	H	0.917412	-0.992393	-0.457205
C168	C	1.072041	-0.313228	-0.653648
C169	C	1.046235	-0.254893	-0.599598
C170	C	1.099483	-0.206015	-0.559245
C171	C	1.178537	-0.215472	-0.572943
C172	C	1.204347	-0.273809	-0.626996
C173	C	1.151099	-0.322687	-0.667349
H174	H	0.987710	-0.247890	-0.589456
H175	H	1.080376	-0.162830	-0.519232
H176	H	1.217954	-0.179289	-0.543072
H177	H	1.262871	-0.280812	-0.637138
H178	H	1.170206	-0.365872	-0.707362
H179	H	0.710321	-0.467281	-0.469046
H180	H	0.887591	-0.660792	-0.484502
H181	H	1.052648	-0.331013	-0.797471
