data_functionalizedCrystal
_audit_creation_method	'MofGen! by Chris Wilmer'
_symmetry_space_group_name_H-M	'P1'
_symmetry_Int_Tables_number	1
_symmetry_cell_setting	triclinic
loop_
_symmetry_equiv_pos_as_xyz
  x,y,z
_cell_length_a	27.732048
_cell_length_b	27.732048
_cell_length_c	14.421503
_cell_angle_alpha	89.999321
_cell_angle_beta	89.997938
_cell_angle_gamma	82.642655
loop_
_atom_site_label
_atom_site_type_symbol
_atom_site_fract_x
_atom_site_fract_y
_atom_site_fract_z
O1	O	0.640930	0.057510	-0.077002
O2	O	0.974263	0.390844	0.256331
O3	O	1.307597	0.724177	0.589665
O4	O	0.500137	0.066256	-0.077032
O5	O	0.833470	0.399589	0.256302
O6	O	1.166803	0.732922	0.589635
O7	O	0.574906	-0.008514	-0.076998
O8	O	0.908239	0.324820	0.256335
O9	O	1.241573	0.658153	0.589668
O10	O	0.566161	0.132280	-0.077035
O11	O	0.899494	0.465613	0.256298
O12	O	1.232827	0.798946	0.589631
O13	O	0.574894	-0.008503	0.077225
O14	O	0.908227	0.324831	0.410559
O15	O	1.241560	0.658164	0.743892
O16	O	0.500124	0.066267	0.077192
O17	O	0.833458	0.399600	0.410525
O18	O	1.166791	0.732934	0.743859
O19	O	0.640918	0.057521	0.077221
O20	O	0.974251	0.390855	0.410555
O21	O	1.307584	0.724188	0.743888
Cu22	Cu	0.570520	0.061895	0.091288
Cu23	Cu	0.903853	0.395229	0.424622
Cu24	Cu	1.237187	0.728562	0.757955
Cu25	Cu	0.570535	0.061882	-0.091099
Cu26	Cu	0.903868	0.395215	0.242235
Cu27	Cu	1.237201	0.728549	0.575568
O28	O	0.566148	0.132291	0.077188
O29	O	0.899482	0.465624	0.410521
O30	O	1.232815	0.798958	0.743855
C31	C	0.482124	0.066078	0.000077
C32	C	0.815457	0.399411	0.333410
C33	C	1.148790	0.732744	0.666743
C34	C	0.428469	0.065525	0.000066
C35	C	0.761802	0.398858	0.333400
C36	C	1.095135	0.732192	0.666733
C37	C	0.089654	0.106229	0.000096
C38	C	0.422987	0.439562	0.333429
C39	C	0.756320	0.772895	0.666762
C40	C	-0.112006	0.104178	0.000104
C41	C	0.221327	0.437511	0.333438
C42	C	0.554661	0.770844	0.666771
O43	O	-0.143262	0.141398	0.000135
O44	O	0.190072	0.474732	0.333468
O45	O	0.523405	0.808065	0.666801
N46	N	-0.131130	0.059843	0.000115
N47	N	0.202204	0.393176	0.333448
N48	N	0.535537	0.726509	0.666781
C49	C	-0.099835	0.016017	0.000128
C50	C	0.233498	0.349350	0.333462
C51	C	0.566832	0.682684	0.666795
O52	O	-0.120728	-0.021740	0.000147
O53	O	0.212605	0.311593	0.333480
O54	O	0.545938	0.644927	0.666813
C55	C	0.101824	0.018068	0.000126
C56	C	0.435157	0.351402	0.333460
C57	C	0.768490	0.684735	0.666793
C58	C	0.120944	0.062407	0.000107
C59	C	0.454278	0.395740	0.333440
C60	C	0.787611	0.729073	0.666773
C61	C	0.108775	0.150563	0.000077
C62	C	0.442108	0.483897	0.333411
C63	C	0.775442	0.817230	0.666744
C64	C	0.159187	0.151076	0.000070
C65	C	0.492520	0.484409	0.333403
C66	C	0.825853	0.817742	0.666737
C67	C	0.190477	0.107253	0.000081
C68	C	0.523811	0.440587	0.333414
C69	C	0.857144	0.773920	0.666748
C70	C	0.171356	0.062919	0.000100
C71	C	0.504690	0.396252	0.333433
C72	C	0.838023	0.729585	0.666766
C73	C	0.133117	-0.025757	0.000147
C74	C	0.466451	0.307577	0.333480
C75	C	0.799784	0.640910	0.666813
C76	C	0.183535	-0.025240	0.000149
C77	C	0.516868	0.308094	0.333482
C78	C	0.850201	0.641427	0.666815
C79	C	0.202655	0.019098	0.000129
C80	C	0.535989	0.352432	0.333463
C81	C	0.869322	0.685765	0.666796
C82	C	0.253059	0.019609	0.000103
C83	C	0.586392	0.352942	0.333437
C84	C	0.919725	0.686276	0.666770
N85	N	0.272183	0.063944	0.000093
N86	N	0.605516	0.397277	0.333427
N87	N	0.938849	0.730611	0.666760
C88	C	0.240892	0.107766	0.000082
C89	C	0.574225	0.441100	0.333416
C90	C	0.907559	0.774433	0.666749
C91	C	-0.205709	0.014943	0.000128
C92	C	0.127624	0.348276	0.333461
C93	C	0.460957	0.681610	0.666794
C94	C	-0.256124	0.014430	0.000127
C95	C	0.077210	0.347763	0.333460
C96	C	0.410543	0.681097	0.666793
C97	C	-0.268291	0.102591	0.000104
C98	C	0.065042	0.435924	0.333438
C99	C	0.398376	0.769258	0.666771
C100	C	-0.217876	0.103104	0.000099
C101	C	0.115458	0.436437	0.333432
C102	C	0.448791	0.769770	0.666766
C103	C	-0.186585	0.059278	0.000118
C104	C	0.146748	0.392612	0.333451
C105	C	0.480081	0.725945	0.666784
C106	C	0.346761	0.108839	0.000066
C107	C	0.680094	0.442172	0.333400
C108	C	1.013428	0.775505	0.666733
C109	C	0.397178	0.109347	0.000055
C110	C	0.730511	0.442681	0.333388
C111	C	1.063845	0.776014	0.666722
C112	C	0.409341	0.021186	0.000082
C113	C	0.742674	0.354520	0.333416
C114	C	1.076008	0.687853	0.666749
C115	C	0.358929	0.020678	0.000088
C116	C	0.692262	0.354011	0.333422
C117	C	1.025595	0.687344	0.666755
C118	C	0.327639	0.064508	0.000084
C119	C	0.660973	0.397841	0.333417
C120	C	0.994306	0.731175	0.666750
O121	O	0.284343	-0.017592	0.000084
O122	O	0.617676	0.315741	0.333417
O123	O	0.951009	0.649075	0.666750
O124	O	0.261794	0.145518	0.000085
O125	O	0.595128	0.478851	0.333418
O126	O	0.928461	0.812184	0.666751
C127	C	0.039242	0.105716	0.000103
C128	C	0.372575	0.439050	0.333436
C129	C	0.705908	0.772383	0.666770
C130	C	0.020120	0.061382	0.000121
C131	C	0.353454	0.394715	0.333455
C132	C	0.686787	0.728049	0.666788
C133	C	0.051411	0.017560	0.000132
C134	C	0.384744	0.350893	0.333466
C135	C	0.718078	0.684226	0.666799
C136	C	-0.030294	0.060869	0.000120
C137	C	0.303039	0.394202	0.333454
C138	C	0.636373	0.727536	0.666787
C139	C	-0.061585	0.104691	0.000109
C140	C	0.271749	0.438025	0.333442
C141	C	0.605082	0.771358	0.666776
C142	C	-0.042461	0.149026	0.000099
C143	C	0.290872	0.482360	0.333432
C144	C	0.624206	0.815693	0.666766
C145	C	0.007951	0.149539	0.000092
C146	C	0.341284	0.482872	0.333425
C147	C	0.674618	0.816205	0.666758
C148	C	0.032287	-0.026775	0.000143
C149	C	0.365621	0.306558	0.333476
C150	C	0.698954	0.639891	0.666809
C151	C	-0.018125	-0.027284	0.000149
C152	C	0.315208	0.306049	0.333482
C153	C	0.648541	0.639383	0.666815
C154	C	-0.049416	0.016538	0.000138
C155	C	0.283917	0.349871	0.333471
C156	C	0.617251	0.683205	0.666804
C157	C	0.574716	-0.026515	0.000116
C158	C	0.908050	0.306818	0.333449
C159	C	1.241383	0.640152	0.666783
C160	C	0.574164	-0.080170	0.000124
C161	C	0.907497	0.253163	0.333457
C162	C	1.240830	0.586497	0.666790
C163	C	0.614867	-0.418985	0.000084
C164	C	0.948201	-0.085652	0.333418
C165	C	1.281534	0.247682	0.666751
C166	C	0.612816	-0.620645	0.000071
C167	C	0.946150	-0.287311	0.333404
C168	C	1.279483	0.046022	0.666738
O169	O	0.650037	-0.651900	0.000038
O170	O	0.983370	-0.318567	0.333372
O171	O	1.316704	0.014766	0.666705
N172	N	0.568481	-0.639768	0.000063
N173	N	0.901814	-0.306435	0.333396
N174	N	1.235148	0.026898	0.666729
C175	C	0.524656	-0.608474	0.000052
C176	C	0.857989	-0.275140	0.333385
C177	C	1.191322	0.058193	0.666718
O178	O	0.486899	-0.629367	0.000035
O179	O	0.820232	-0.296033	0.333368
O180	O	1.153565	0.037300	0.666701
C181	C	0.526707	-0.406815	0.000058
C182	C	0.860040	-0.073482	0.333392
C183	C	1.193374	0.259852	0.666725
C184	C	0.571045	-0.387694	0.000076
C185	C	0.904378	-0.054361	0.333409
C186	C	1.237712	0.278972	0.666743
C187	C	0.659202	-0.399864	0.000101
C188	C	0.992535	-0.066530	0.333435
C189	C	1.325868	0.266803	0.666768
C190	C	0.659714	-0.349452	0.000110
C191	C	0.993047	-0.016118	0.333443
C192	C	1.326381	0.317215	0.666776
C193	C	0.615892	-0.318161	0.000101
C194	C	0.949225	0.015172	0.333435
C195	C	1.282559	0.348506	0.666768
C196	C	0.571557	-0.337282	0.000084
C197	C	0.904891	-0.003949	0.333418
C198	C	1.238224	0.329384	0.666751
C199	C	0.482882	-0.375521	0.000040
C200	C	0.816215	-0.042188	0.333374
C201	C	1.149549	0.291145	0.666707
C202	C	0.483399	-0.325104	0.000040
C203	C	0.816732	0.008229	0.333373
C204	C	1.150066	0.341563	0.666706
C205	C	0.527737	-0.305983	0.000058
C206	C	0.861070	0.027350	0.333391
C207	C	1.194404	0.360683	0.666724
C208	C	0.528247	-0.255580	0.000084
C209	C	0.861581	0.077754	0.333418
C210	C	1.194914	0.411087	0.666751
N211	N	0.572583	-0.236456	0.000093
N212	N	0.905916	0.096877	0.333426
N213	N	1.239249	0.430211	0.666760
C214	C	0.616405	-0.267747	0.000101
C215	C	0.949738	0.065587	0.333435
C216	C	1.283072	0.398920	0.666768
C217	C	0.523582	-0.714348	0.000050
C218	C	0.856915	-0.381014	0.333383
C219	C	1.190248	-0.047681	0.666717
C220	C	0.523069	-0.764762	0.000050
C221	C	0.856402	-0.431429	0.333383
C222	C	1.189735	-0.098096	0.666716
C223	C	0.611230	-0.776930	0.000068
C224	C	0.944563	-0.443596	0.333401
C225	C	1.277896	-0.110263	0.666734
C226	C	0.611742	-0.726514	0.000074
C227	C	0.945075	-0.393181	0.333408
C228	C	1.278409	-0.059848	0.666741
C229	C	0.567917	-0.695224	0.000058
C230	C	0.901250	-0.361891	0.333392
C231	C	1.234583	-0.028557	0.666725
C232	C	0.617477	-0.161878	0.000120
C233	C	0.950811	0.171456	0.333453
C234	C	1.284144	0.504789	0.666786
C235	C	0.617986	-0.111461	0.000132
C236	C	0.951319	0.221873	0.333465
C237	C	1.284652	0.555206	0.666799
C238	C	0.529825	-0.099298	0.000109
C239	C	0.863158	0.234036	0.333443
C240	C	1.196492	0.567369	0.666776
C241	C	0.529316	-0.149710	0.000102
C242	C	0.862650	0.183623	0.333435
C243	C	1.195983	0.516957	0.666769
C244	C	0.573147	-0.180999	0.000104
C245	C	0.906480	0.152334	0.333437
C246	C	1.239813	0.485667	0.666771
O247	O	0.491047	-0.224296	0.000107
O248	O	0.824380	0.109038	0.333440
O249	O	1.157713	0.442371	0.666773
O250	O	0.654156	-0.246844	0.000098
O251	O	0.987490	0.086489	0.333431
O252	O	1.320823	0.419823	0.666764
C253	C	0.614355	-0.469397	0.000076
C254	C	0.947688	-0.136064	0.333409
C255	C	1.281022	0.197270	0.666743
C256	C	0.570021	-0.488518	0.000059
C257	C	0.903354	-0.155185	0.333393
C258	C	1.236687	0.178148	0.666726
C259	C	0.526198	-0.457228	0.000051
C260	C	0.859532	-0.123894	0.333384
C261	C	1.192865	0.209439	0.666718
C262	C	0.569508	-0.538933	0.000059
C263	C	0.902841	-0.205599	0.333393
C264	C	1.236174	0.127734	0.666726
C265	C	0.613330	-0.570223	0.000068
C266	C	0.946663	-0.236890	0.333401
C267	C	1.279996	0.096443	0.666734
C268	C	0.657665	-0.551100	0.000076
C269	C	0.990998	-0.217766	0.333409
C270	C	1.324332	0.115567	0.666743
C271	C	0.658177	-0.500688	0.000084
C272	C	0.991511	-0.167354	0.333418
C273	C	1.324844	0.165979	0.666751
C274	C	0.481863	-0.476351	0.000042
C275	C	0.815197	-0.143018	0.333376
C276	C	1.148530	0.190315	0.666709
C277	C	0.481355	-0.526764	0.000035
C278	C	0.814688	-0.193430	0.333368
C279	C	1.148021	0.139903	0.666702
C280	C	0.525177	-0.558054	0.000044
C281	C	0.858510	-0.224721	0.333377
C282	C	1.191843	0.108612	0.666710
C283	C	0.658931	0.057699	0.000111
C284	C	0.992264	0.391033	0.333444
C285	C	1.325598	0.724366	0.666778
C286	C	0.712586	0.058252	0.000116
C287	C	1.045919	0.391586	0.333449
C288	C	1.379252	0.724919	0.666782
C289	C	0.566338	0.150292	0.000072
C290	C	0.899671	0.483626	0.333405
C291	C	1.233005	0.816959	0.666738
C292	C	0.566891	0.203947	0.000058
C293	C	0.900224	0.537280	0.333392
C294	C	1.233557	0.870614	0.666725
N295	N	0.570513	0.061904	0.219570
N296	N	0.903846	0.395237	0.552903
N297	N	1.237180	0.728571	0.886236
N298	N	0.570545	0.061869	-0.219380
N299	N	0.903878	0.395203	0.113953
N300	N	1.237212	0.728536	0.447287
C301	C	0.535934	0.096462	0.469208
C302	C	0.869267	0.429795	0.802541
C303	C	1.202600	0.763129	1.135875
C304	C	0.579543	0.105518	0.531017
C305	C	0.912876	0.438851	0.864350
C306	C	1.246209	0.772185	1.197684
C307	C	0.570525	0.061892	0.408731
C308	C	0.903858	0.395226	0.742064
C309	C	1.237192	0.728559	1.075398
C310	C	0.526927	0.052848	0.531016
C311	C	0.860260	0.386181	0.864349
C312	C	1.193594	0.719514	1.197683
C313	C	0.570532	0.061882	0.591453
C314	C	0.903866	0.395216	0.924786
C315	C	1.237199	0.728549	1.258119
C316	C	0.614156	0.070970	0.469179
C317	C	0.947489	0.404303	0.802513
C318	C	1.280823	0.737637	1.135846
C319	C	0.561512	0.018281	0.469173
C320	C	0.894845	0.351614	0.802506
C321	C	1.228178	0.684948	1.135840
C322	C	0.605152	0.027318	0.530954
C323	C	0.938486	0.360651	0.864287
C324	C	1.271819	0.693985	1.197621
C325	C	0.570520	0.061900	0.303470
C326	C	0.903853	0.395233	0.636803
C327	C	1.237187	0.728566	0.970137
C328	C	0.570543	0.061875	0.696711
C329	C	0.903876	0.395208	1.030045
C330	C	1.237209	0.728542	1.363378
H331	H	0.321291	0.144530	0.000065
H332	H	0.654624	0.477863	0.333398
H333	H	0.987957	0.811196	0.666732
H334	H	0.634440	-0.001923	0.557895
H335	H	0.967773	0.331411	0.891228
H336	H	1.301107	0.664744	1.224562
H337	H	0.447710	-0.299629	0.000025
H338	H	0.781043	0.033704	0.333359
H339	H	1.114377	0.367037	0.666692
H340	H	0.694889	-0.425336	0.000105
H341	H	1.028223	-0.092003	0.333438
H342	H	1.361556	0.241330	0.666771
H343	H	0.653168	-0.187348	0.000118
H344	H	0.986501	0.145985	0.333451
H345	H	1.319835	0.479319	0.666784
Br346	Br	0.422705	-0.401458	0.000013
Br347	Br	0.756038	-0.068124	0.333346
Br348	Br	1.089372	0.265209	0.666679
H349	H	0.412743	0.145454	0.000039
H350	H	0.746076	0.478787	0.333372
H351	H	1.079410	0.812121	0.666705
H352	H	0.587173	0.142395	0.558181
H353	H	0.920507	0.475728	0.891515
H354	H	1.253840	0.809062	1.224848
Br355	Br	0.675628	0.083784	0.424105
Br356	Br	1.008962	0.417118	0.757438
Br357	Br	1.342295	0.750451	1.090771
H358	H	0.553867	-0.018584	0.441987
H359	H	0.887201	0.314749	0.775320
H360	H	1.220534	0.648083	1.108654
H361	H	0.490054	0.045202	0.558181
H362	H	0.823387	0.378536	0.891514
H363	H	1.156721	0.711869	1.224848
Br364	Br	0.185128	0.211252	0.000048
Br365	Br	0.518461	0.544585	0.333381
Br366	Br	0.851795	0.877918	0.666714
Br367	Br	0.107181	-0.085934	0.000153
Br368	Br	0.440514	0.247400	0.333486
Br369	Br	0.773848	0.580733	0.666819
H370	H	-0.293777	0.138273	0.000096
H371	H	0.039557	0.471606	0.333429
H372	H	0.372890	0.804939	0.666762
H373	H	0.646911	-0.802415	0.000075
H374	H	0.980245	-0.469082	0.333408
H375	H	1.313578	-0.135749	0.666742
H376	H	0.695819	-0.333889	0.000120
H377	H	1.029152	-0.000555	0.333454
H378	H	1.362485	0.332778	0.666787
Br379	Br	0.225997	-0.084721	0.000179
Br380	Br	0.559331	0.248613	0.333512
Br381	Br	0.892664	0.581946	0.666846
Br382	Br	-0.191932	0.163278	0.000073
Br383	Br	0.141402	0.496612	0.333406
Br384	Br	0.474735	0.829945	0.666740
Br385	Br	0.066317	0.210045	0.000062
Br386	Br	0.399651	0.543378	0.333395
Br387	Br	0.732984	0.876711	0.666729
Br388	Br	-0.282067	-0.045745	0.000125
Br389	Br	0.051267	0.287588	0.333458
Br390	Br	0.384600	0.620921	0.666792
Br391	Br	0.469143	-0.175661	0.000099
Br392	Br	0.802476	0.157673	0.333432
Br393	Br	1.135810	0.491006	0.666766
H394	H	0.343360	-0.015426	0.000091
H395	H	0.676693	0.317907	0.333424
H396	H	1.010027	0.651241	0.666757
Br397	Br	-0.163250	-0.044540	0.000153
Br398	Br	0.170083	0.288793	0.333487
Br399	Br	0.503416	0.622126	0.666820
Br400	Br	0.671917	-0.700570	0.000100
Br401	Br	1.005250	-0.367237	0.333434
Br402	Br	1.338584	-0.033904	0.666767
H403	H	0.494146	-0.073812	0.000106
H404	H	0.827480	0.259522	0.333439
H405	H	1.160813	0.592855	0.666772
Br406	Br	0.462893	-0.790705	0.000048
Br407	Br	0.796227	-0.457372	0.333381
Br408	Br	1.129560	-0.124039	0.666714
Br409	Br	0.451816	-0.038284	0.000099
Br410	Br	0.785150	0.295050	0.333433
Br411	Br	1.118483	0.628383	0.666766
Br412	Br	0.464098	-0.671889	0.000026
Br413	Br	0.797432	-0.338556	0.333360
Br414	Br	1.130765	-0.005222	0.666693
Br415	Br	0.487226	0.145224	0.424015
Br416	Br	0.820559	0.478557	0.757349
Br417	Br	1.153893	0.811890	1.090682
H418	H	0.023514	0.185643	0.000077
H419	H	0.356847	0.518977	0.333411
H420	H	0.690181	0.852310	0.666744
H421	H	-0.067947	0.184708	0.000086
H422	H	0.265386	0.518041	0.333420
H423	H	0.598720	0.851375	0.666753
H424	H	-0.033688	-0.063392	0.000157
H425	H	0.299645	0.269941	0.333491
H426	H	0.632979	0.603275	0.666824
H427	H	0.694282	-0.485125	0.000099
H428	H	1.027615	-0.151791	0.333432
H429	H	1.360949	0.181542	0.666765
H430	H	0.654093	-0.095896	0.000149
H431	H	0.987426	0.237438	0.333482
H432	H	1.320759	0.570771	0.666815
Br433	Br	0.717137	-0.593575	0.000095
Br434	Br	1.050471	-0.260242	0.333428
Br435	Br	1.383804	0.073091	0.666761
H436	H	0.057760	-0.062462	0.000154
H437	H	0.391093	0.270872	0.333487
H438	H	0.724427	0.604205	0.666821
Br439	Br	0.421176	-0.552706	0.000018
Br440	Br	0.754509	-0.219373	0.333352
Br441	Br	1.087842	0.113960	0.666685
H442	H	0.446177	-0.450879	0.000034
H443	H	0.779510	-0.117545	0.333367
H444	H	1.112844	0.215788	0.666700
