data_functionalizedCrystal
_audit_creation_method	'MofGen! by Chris Wilmer'
_symmetry_space_group_name_H-M	'P1'
_symmetry_Int_Tables_number	1
_symmetry_cell_setting	triclinic
loop_
_symmetry_equiv_pos_as_xyz
  x,y,z
_cell_length_a	10.967926
_cell_length_b	11.792254
_cell_length_c	9.482900
_cell_angle_alpha	99.398945
_cell_angle_beta	92.549900
_cell_angle_gamma	84.460570
loop_
_atom_site_label
_atom_site_type_symbol
_atom_site_fract_x
_atom_site_fract_y
_atom_site_fract_z
O1	O	1.611521	0.200404	0.282842
O2	O	1.262324	0.202894	0.195354
O3	O	1.445387	0.036809	0.241229
O4	O	1.428458	0.366489	0.236967
O5	O	1.408203	0.070687	0.473704
O6	O	1.225140	0.236771	0.427829
O7	O	1.574338	0.234282	0.515317
Cu8	Cu	1.396344	0.238620	0.492799
Cu9	Cu	1.440317	0.198556	0.217871
O10	O	1.391274	0.400366	0.469442
C11	C	1.199027	0.217091	0.300391
C12	C	1.065820	0.208911	0.267017
C13	C	0.987170	0.222813	0.372567
C14	C	0.849493	0.214358	0.338076
C15	C	1.425729	0.011416	0.357199
C16	C	1.422536	-0.114721	0.356398
C17	C	1.419943	-0.217159	0.355743
C18	C	1.416702	-0.345673	0.354917
C19	C	1.637635	0.220083	0.410277
C20	C	1.770843	0.228263	0.443641
C21	C	1.410933	0.425759	0.353469
C22	C	1.414127	0.551895	0.354261
N23	N	1.365424	0.266798	0.686171
N24	N	1.471247	0.170368	0.024502
C25	C	1.431189	0.206861	0.774851
C26	C	1.405472	0.230315	0.935824
H27	H	0.805427	0.246422	0.559549
O28	O	1.024479	0.187447	0.128763
C29	C	0.893493	0.255009	-0.056783
C30	C	0.940227	0.279472	0.099810
H31	H	0.825348	0.329384	-0.080232
H32	H	0.974067	0.245920	-0.130963
H33	H	0.846403	0.171558	-0.075055
H34	H	0.987298	0.362930	0.118219
H35	H	0.859607	0.288489	0.173909
O36	O	1.520950	0.124790	0.723270
C37	C	1.596656	-0.076103	0.695341
C38	C	1.494899	0.016712	0.753810
H39	H	1.575643	-0.163501	0.720037
H40	H	1.601359	-0.080489	0.574693
H41	H	1.688356	-0.053004	0.748099
H42	H	1.403146	-0.006320	0.701161
H43	H	1.490304	0.021080	0.874464
H44	H	1.330120	0.298994	0.979065
O45	O	1.275380	0.348604	0.737651
C46	C	1.060177	0.412818	0.730571
C47	C	1.162030	0.320077	0.672181
H48	H	0.968513	0.389800	0.677641
H49	H	1.055343	0.417133	0.851195
H50	H	1.081295	0.500234	0.706033
H51	H	1.140984	0.232613	0.696615
H52	H	1.166840	0.315864	0.551571
O53	O	1.560982	0.088195	0.973104
C54	C	1.636420	-0.112749	0.945698
C55	C	1.534718	-0.019758	1.003852
H56	H	1.615235	-0.200046	0.970562
H57	H	1.641271	-0.117327	0.825035
H58	H	1.728106	-0.089693	0.998533
H59	H	1.442979	-0.042747	0.951125
H60	H	1.529976	-0.015199	1.124521
H61	H	0.814908	0.196193	0.222170
H62	H	1.021761	0.240968	0.488466
