data_functionalizedCrystal
_audit_creation_method	'MofGen! by Chris Wilmer'
_symmetry_space_group_name_H-M	'P1'
_symmetry_Int_Tables_number	1
_symmetry_cell_setting	triclinic
loop_
_symmetry_equiv_pos_as_xyz
  x,y,z
_cell_length_a	9.065218
_cell_length_b	10.654550
_cell_length_c	8.140239
_cell_angle_alpha	89.996625
_cell_angle_beta	89.997198
_cell_angle_gamma	84.750408
loop_
_atom_site_label
_atom_site_type_symbol
_atom_site_fract_x
_atom_site_fract_y
_atom_site_fract_z
O1	O	1.959391	0.184157	-0.136617
O2	O	1.530024	0.199263	-0.136620
O3	O	1.754580	0.009010	-0.136608
O4	O	1.734836	0.374410	-0.136629
O5	O	1.754567	0.009008	0.136619
O6	O	1.530011	0.199261	0.136607
O7	O	1.959379	0.184155	0.136610
Zn8	Zn	1.744693	0.191708	0.179989
Zn9	Zn	1.744710	0.191711	-0.179999
O10	O	1.734823	0.374408	0.136598
C11	C	1.475039	0.197810	-0.000006
C12	C	1.311220	0.193469	-0.000007
C13	C	1.753124	-0.037795	0.000005
C14	C	1.748786	-0.177255	0.000002
C15	C	1.881001	-0.256217	0.000002
C16	C	1.876917	-0.387254	-0.000018
C17	C	1.608391	-0.360354	-0.000031
C18	C	1.612477	-0.229320	-0.000023
C19	C	2.032639	-0.582482	-0.095750
C20	C	2.164861	-0.661449	-0.095722
C21	C	2.284719	-0.630803	0.000029
C22	C	2.272361	-0.521192	0.095790
C23	C	2.140137	-0.442232	0.095777
C24	C	2.020284	-0.472876	-0.000012
C25	C	1.456765	-0.034091	0.095723
C26	C	1.324539	0.044872	0.095721
C27	C	1.204668	0.014230	-0.000020
C28	C	1.217011	-0.095383	-0.095757
C29	C	1.349237	-0.174347	-0.095755
C30	C	1.469109	-0.143695	-0.000018
C31	C	2.014364	0.185608	-0.000007
C32	C	2.178183	0.189949	-0.000017
C33	C	1.736279	0.421213	-0.000018
C34	C	1.740616	0.560673	-0.000026
N35	N	1.744693	0.191705	0.425672
N36	N	1.744722	0.191704	-0.425682
H37	H	1.991993	-0.213831	0.000019
F38	F	1.584348	-0.001466	0.197618
F39	F	2.126978	-0.325586	0.197689
F40	F	1.089428	-0.128004	-0.197647
F41	F	1.905086	-0.615094	-0.197690
F42	F	1.463329	-0.415777	-0.000059
F43	F	1.362371	-0.291009	-0.197649
F44	F	1.311393	0.161517	0.197649
H45	H	2.369961	-0.496258	0.173771
F46	F	2.178008	-0.778099	-0.197641
H47	H	2.392377	-0.695107	0.000049
H48	H	1.096996	0.078524	0.000009
