data_functionalizedCrystal
_audit_creation_method	'MofGen! by Chris Wilmer'
_symmetry_space_group_name_H-M	'P1'
_symmetry_Int_Tables_number	1
_symmetry_cell_setting	triclinic
loop_
_symmetry_equiv_pos_as_xyz
  x,y,z
_cell_length_a	10.723024
_cell_length_b	17.038278
_cell_length_c	9.198806
_cell_angle_alpha	89.989653
_cell_angle_beta	89.996352
_cell_angle_gamma	87.789185
loop_
_atom_site_label
_atom_site_type_symbol
_atom_site_fract_x
_atom_site_fract_y
_atom_site_fract_z
O1	O	1.667335	0.109720	-0.120909
O2	O	2.167335	0.609720	0.379091
O3	O	1.305154	0.120222	-0.120917
O4	O	1.805154	0.620222	0.379083
O5	O	1.484094	0.001144	-0.120876
O6	O	1.984094	0.501144	0.379124
O7	O	1.488396	0.228799	-0.120950
O8	O	1.988396	0.728799	0.379050
O9	O	1.484079	0.001144	0.120909
O10	O	1.984079	0.501144	0.620909
O11	O	1.305139	0.120222	0.120868
O12	O	1.805139	0.620222	0.620868
O13	O	1.667320	0.109720	0.120876
O14	O	2.167320	0.609720	0.620876
Cu15	Cu	1.486228	0.114971	0.142949
Cu16	Cu	1.986228	0.614971	0.642949
Cu17	Cu	1.486246	0.114971	-0.142990
Cu18	Cu	1.986246	0.614971	0.357010
O19	O	1.488381	0.228798	0.120835
O20	O	1.988381	0.728798	0.620835
C21	C	1.258577	0.119458	-0.000025
C22	C	1.758577	0.619458	0.499975
C23	C	1.119811	0.117171	-0.000026
C24	C	1.619811	0.617171	0.499974
C25	C	1.050991	0.183801	-0.000048
C26	C	1.550991	0.683801	0.499952
C27	C	0.907569	0.181440	-0.000050
C28	C	1.407569	0.681440	0.499950
C29	C	1.480171	-0.028006	0.000023
C30	C	1.980171	0.471994	0.500023
C31	C	1.468490	-0.114864	0.000042
C32	C	1.968490	0.385136	0.500042
C33	C	1.396729	-0.605672	-0.000093
C34	C	1.896729	-0.105672	0.499907
C35	C	1.407714	-0.524061	-0.000078
C36	C	1.907714	-0.024061	0.499922
C37	C	1.525955	-0.491974	-0.000056
C38	C	2.025955	0.008026	0.499944
C39	C	1.633218	-0.541502	-0.000063
C40	C	2.133218	-0.041502	0.499937
C41	C	1.622232	-0.623112	-0.000088
C42	C	2.122232	-0.123112	0.499912
C43	C	1.564767	-0.246002	0.000010
C44	C	2.064767	0.253998	0.500010
C45	C	1.575745	-0.164386	0.000039
C46	C	2.075745	0.335614	0.500039
C47	C	1.350240	-0.146950	0.000021
C48	C	1.850240	0.353050	0.500021
C49	C	1.339264	-0.228562	0.000005
C50	C	1.839264	0.271438	0.500005
C51	C	1.446527	-0.278083	-0.000010
C52	C	1.946527	0.221917	0.499990
C53	C	1.537187	-0.408554	-0.000037
C54	C	2.037187	0.091446	0.499963
C55	C	1.435295	-0.361501	-0.000039
C56	C	1.935295	0.138499	0.499961
C57	C	1.713898	0.110484	-0.000020
C58	C	2.213898	0.610484	0.499980
C59	C	1.852664	0.112771	-0.000028
C60	C	2.352664	0.612771	0.499972
C61	C	1.492303	0.257948	-0.000067
C62	C	1.992303	0.757948	0.499933
C63	C	1.503984	0.344806	-0.000095
C64	C	2.003984	0.844806	0.499905
N65	N	1.486225	0.114970	0.344063
N66	N	1.986225	0.614970	0.844063
N67	N	1.486259	0.114966	-0.344104
N68	N	1.986259	0.614966	0.155896
C69	C	1.561336	0.064752	0.416277
C70	C	2.061336	0.564752	0.916277
C71	C	1.561355	0.064749	0.583689
C72	C	2.061355	0.564749	1.083689
H73	H	1.300445	-0.631790	-0.000094
H74	H	1.800445	-0.131790	0.499906
Br75	Br	1.178788	-0.272103	-0.000025
Br76	Br	1.678788	0.227897	0.499975
Br77	Br	1.710340	-0.313200	0.000002
Br78	Br	2.210340	0.186800	0.500002
H79	H	1.729493	-0.515371	-0.000042
H80	H	2.229493	-0.015371	0.499958
H81	H	1.709571	-0.663433	-0.000096
H82	H	2.209571	-0.163433	0.499904
Br83	Br	1.041055	0.019173	0.000022
Br84	Br	1.541055	0.519173	0.500022
Br85	Br	1.262147	-0.456854	-0.000095
Br86	Br	1.762147	0.043146	0.499905
H87	H	0.848412	0.238480	-0.000075
H88	H	1.348412	0.738480	0.499925
H89	H	1.625666	0.021758	0.645790
H90	H	2.125666	0.521758	1.145790
H91	H	1.262913	-0.106621	0.000031
H92	H	1.762913	0.393379	0.500031
H93	H	1.672036	-0.138264	0.000058
H94	H	2.172036	0.361736	0.500058
H95	H	1.339023	-0.387630	-0.000065
H96	H	1.839023	0.112370	0.499935
H97	H	1.633459	-0.382420	0.000030
H98	H	2.133459	0.117580	0.500030
H99	H	1.625624	0.021757	0.354165
H100	H	2.125624	0.521757	0.854165
H101	H	1.421928	0.157959	0.406176
H102	H	1.921928	0.657959	0.906176
Br103	Br	1.129746	0.281800	-0.000071
Br104	Br	1.629746	0.781800	0.499929
Br105	Br	1.379079	0.186638	0.552408
Br106	Br	1.879079	0.686638	1.052408
H107	H	0.911813	0.055727	-0.000018
H108	H	1.411813	0.555727	0.499982
