data_functionalizedCrystal
_audit_creation_method	'MofGen! by Chris Wilmer'
_symmetry_space_group_name_H-M	'P1'
_symmetry_Int_Tables_number	1
_symmetry_cell_setting	triclinic
loop_
_symmetry_equiv_pos_as_xyz
  x,y,z
_cell_length_a	8.497374
_cell_length_b	10.686285
_cell_length_c	10.686220
_cell_angle_alpha	90.345431
_cell_angle_beta	94.365928
_cell_angle_gamma	85.626860
loop_
_atom_site_label
_atom_site_type_symbol
_atom_site_fract_x
_atom_site_fract_y
_atom_site_fract_z
Zn1	Zn	0.670936	0.352260	-1.956019
Zn2	Zn	0.385530	0.561976	-1.972080
Zn3	Zn	0.425706	0.368352	-1.746303
Zn4	Zn	0.667804	0.578080	-1.762345
O5	O	0.537494	0.465167	-1.859187
O6	O	0.617574	0.366604	-2.133691
O7	O	0.170096	0.536286	-1.942138
O8	O	0.476361	0.190679	-1.760688
O9	O	0.407887	0.520682	-2.145490
O10	O	0.656531	0.178855	-1.914765
O11	O	0.199614	0.394032	-1.776261
O12	O	0.473323	0.409648	-1.572890
O13	O	0.888982	0.548130	-1.788028
O14	O	0.651192	0.563734	-1.584676
O15	O	0.891283	0.382220	-1.930319
O16	O	0.404849	0.739651	-1.957693
O17	O	0.612235	0.751483	-1.803601
C18	C	0.503874	0.791080	-1.884165
C19	C	0.489534	0.930498	-1.894965
C20	C	0.566278	0.490185	-1.533267
C21	C	0.578626	0.500919	-1.393839
C22	C	0.508598	0.440052	-2.186379
C23	C	0.496284	0.429349	-2.325809
C24	C	0.948975	0.465170	-1.859177
C25	C	1.127617	0.465183	-1.859181
C26	C	0.571276	0.137979	-1.834145
C27	C	0.585673	-0.001449	-1.823474
H28	H	0.678954	0.950157	-1.754006
H29	H	0.396237	0.978900	-1.964429
H30	H	0.416340	0.359865	-1.374232
C31	C	0.685201	0.593463	-1.329042
C32	C	0.676714	0.586047	-1.198991
C33	C	0.774883	0.671266	-1.139259
H34	H	0.651486	0.676149	-1.356776
H35	H	0.791284	0.573597	-1.348993
H36	H	0.570654	0.605921	-1.179049
H37	H	0.710443	0.503381	-1.171221
H38	H	0.880965	0.651400	-1.159210
H39	H	0.741158	0.753946	-1.167002
H40	H	0.769148	0.666238	-1.051013
