data_functionalizedCrystal
_audit_creation_method	'MofGen! by Chris Wilmer'
_symmetry_space_group_name_H-M	'P1'
_symmetry_Int_Tables_number	1
_symmetry_cell_setting	triclinic
loop_
_symmetry_equiv_pos_as_xyz
  x,y,z
_cell_length_a	14.971486
_cell_length_b	18.266242
_cell_length_c	14.971486
_cell_angle_alpha	90.005330
_cell_angle_beta	83.614129
_cell_angle_gamma	90.003985
loop_
_atom_site_label
_atom_site_type_symbol
_atom_site_fract_x
_atom_site_fract_y
_atom_site_fract_z
O1	O	1.186950	0.060797	0.116563
O2	O	1.686950	0.560797	0.616563
O3	O	0.926550	0.060817	0.130521
O4	O	1.426550	0.560817	0.630521
O5	O	1.063730	0.060801	-0.006658
O6	O	1.563730	0.560801	0.493342
O7	O	1.049771	0.060813	0.253742
O8	O	1.549771	0.560813	0.753742
O9	O	1.063706	-0.060961	-0.006662
O10	O	1.563706	0.439039	0.493338
O11	O	0.926527	-0.060945	0.130517
O12	O	1.426527	0.439055	0.630517
O13	O	1.186927	-0.060965	0.116559
O14	O	1.686927	0.439035	0.616559
Zn15	Zn	1.056723	-0.080287	0.123537
Zn16	Zn	1.556723	0.419713	0.623537
Zn17	Zn	1.056754	0.080139	0.123543
Zn18	Zn	1.556754	0.580139	0.623543
O19	O	1.049748	-0.060949	0.253738
O20	O	1.549748	0.439051	0.753738
C21	C	0.893214	-0.000061	0.129895
C22	C	1.393214	0.499939	0.629895
C23	C	0.793917	-0.000054	0.128024
C24	C	1.293917	0.499946	0.628024
C25	C	0.736691	-0.000051	0.208614
C26	C	1.236691	0.499949	0.708614
C27	C	0.643392	-0.000062	0.206850
C28	C	1.143392	0.499938	0.706850
C29	C	0.607320	-0.000071	0.124497
C30	C	1.107320	0.499929	0.624497
C31	C	0.664552	-0.000075	0.043902
C32	C	1.164552	0.499925	0.543902
C33	C	0.757850	-0.000070	0.045666
C34	C	1.257850	0.499930	0.545666
C35	C	0.470090	-0.000086	0.040231
C36	C	0.970090	0.499914	0.540231
C37	C	0.376786	-0.000090	0.038466
C38	C	0.876786	0.499910	0.538466
C39	C	0.355632	-0.000078	0.201415
C40	C	0.855632	0.499922	0.701415
C41	C	0.448930	-0.000073	0.203179
C42	C	0.948930	0.499927	0.703179
C43	C	0.506156	-0.000076	0.122584
C44	C	1.006156	0.499924	0.622584
N45	N	1.056709	-0.189774	0.123533
N46	N	1.556709	0.310226	0.623533
C47	C	1.111006	-0.228079	0.177877
C48	C	1.611006	0.271921	0.677877
C49	C	1.111021	-0.304724	0.177874
C50	C	1.611021	0.195276	0.677874
C51	C	1.056722	-0.343061	0.123539
C52	C	1.556722	0.156939	0.623539
C53	C	1.002421	-0.304747	0.069184
C54	C	1.502421	0.195253	0.569184
C55	C	1.002415	-0.228104	0.069181
C56	C	1.502415	0.271896	0.569181
N57	N	0.978376	-0.463408	0.121012
N58	N	1.478376	0.036592	0.621012
N59	N	0.978385	-0.536216	0.121020
N60	N	1.478385	-0.036216	0.621020
C61	C	1.056740	-0.573983	0.123542
C62	C	1.556740	-0.073983	0.623542
N63	N	1.135086	-0.536192	0.126074
N64	N	1.635086	-0.036192	0.626074
N65	N	1.135077	-0.463378	0.126071
N66	N	1.635077	0.036622	0.626071
C67	C	1.056723	-0.426168	0.123535
C68	C	1.556723	0.073832	0.623535
C69	C	1.111058	-0.695395	0.177886
C70	C	1.611058	-0.195395	0.677886
C71	C	1.111074	-0.772042	0.177877
C72	C	1.611074	-0.272042	0.677877
C73	C	1.002466	-0.772064	0.069192
C74	C	1.502466	-0.272064	0.569192
C75	C	1.002458	-0.695419	0.069195
C76	C	1.502458	-0.195419	0.569195
C77	C	1.056752	-0.657089	0.123547
C78	C	1.556752	-0.157089	0.623547
C79	C	1.220263	-0.000085	0.117185
C80	C	1.720263	0.499915	0.617185
C81	C	1.319561	-0.000087	0.119056
C82	C	1.819561	0.499913	0.619056
C83	C	1.063094	-0.000079	-0.039985
C84	C	1.563094	0.499921	0.460015
C85	C	1.061223	-0.000079	-0.139282
C86	C	1.561223	0.499921	0.360718
N87	N	1.056776	0.189626	0.123540
N88	N	1.556776	0.689626	0.623540
C89	C	1.141812	-0.000085	-0.196507
C90	C	1.641812	0.499915	0.303493
C91	C	1.140049	-0.000078	-0.289807
C92	C	1.640049	0.499922	0.210193
C93	C	1.057696	-0.000069	-0.325879
C94	C	1.557696	0.499931	0.174121
C95	C	0.977101	-0.000060	-0.268646
C96	C	1.477101	0.499940	0.231354
C97	C	0.978865	-0.000062	-0.175349
C98	C	1.478865	0.499938	0.324651
C99	C	0.973430	-0.000057	-0.463109
C100	C	1.473430	0.499943	0.036891
C101	C	0.971665	-0.000056	-0.556413
C102	C	1.471665	0.499944	-0.056413
C103	C	1.134614	-0.000073	-0.577567
C104	C	1.634614	0.499927	-0.077567
C105	C	1.136378	-0.000075	-0.484269
C106	C	1.636378	0.499925	0.015731
C107	C	1.055782	-0.000067	-0.427043
C108	C	1.555782	0.499933	0.072957
C109	C	1.050384	-0.000067	0.287065
C110	C	1.550384	0.499933	0.787065
C111	C	1.052254	-0.000063	0.386362
C112	C	1.552254	0.499937	0.886362
H113	H	0.596802	-0.000059	0.272474
H114	H	1.096802	0.499941	0.772474
H115	H	0.910047	-0.000048	-0.298024
H116	H	1.410047	0.499952	0.201976
Br117	Br	1.253584	-0.000108	-0.147562
Br118	Br	1.753584	0.499892	0.352438
H119	H	1.200238	-0.000076	-0.624165
H120	H	1.700238	0.499924	-0.124165
Br121	Br	0.547754	-0.000094	-0.069150
Br122	Br	1.047754	0.499906	0.430850
H123	H	0.478296	-0.000059	0.270239
H124	H	0.978296	0.499941	0.770239
H125	H	0.913240	-0.000057	-0.128756
H126	H	1.413240	0.499943	0.371244
Br127	Br	0.785637	-0.000033	0.320385
Br128	Br	1.285637	0.499967	0.820385
H129	H	0.958256	-0.803277	0.024949
H130	H	1.458256	-0.303277	0.524949
Br131	Br	0.277969	-0.000073	0.310796
Br132	Br	0.777969	0.499927	0.810796
Br133	Br	0.615598	-0.000094	-0.067865
Br134	Br	1.115598	0.499906	0.432135
H135	H	0.347419	-0.000098	-0.028593
H136	H	0.847419	0.499902	0.471407
H137	H	0.904606	-0.000061	-0.585780
H138	H	1.404606	0.499939	-0.085780
H139	H	1.155268	-0.664186	0.222142
H140	H	1.655268	-0.164186	0.722142
Br141	Br	1.184777	-0.824028	0.251629
Br142	Br	1.684777	-0.324028	0.751629
H143	H	0.804443	-0.000071	-0.019958
H144	H	1.304443	0.499929	0.480042
H145	H	1.155237	-0.335917	0.222130
H146	H	1.655237	0.164083	0.722130
Br147	Br	1.249425	-0.000087	-0.367467
Br148	Br	1.749425	0.499913	0.132533
Br149	Br	1.184669	-0.176063	0.251661
Br150	Br	1.684669	0.323937	0.751661
Br151	Br	0.928734	-0.356774	-0.004564
Br152	Br	1.428734	0.143226	0.495436
Br153	Br	0.928715	-0.176115	-0.004573
Br154	Br	1.428715	0.323885	0.495427
H155	H	0.958239	-0.664231	0.024947
H156	H	1.458239	-0.164231	0.524947
Br157	Br	1.248144	-0.000085	-0.435314
Br158	Br	1.748144	0.499915	0.064686
Br159	Br	0.864048	-0.000044	-0.385445
Br160	Br	1.364048	0.499956	0.114555
