data_functionalizedCrystal
_audit_creation_method	'MofGen! by Chris Wilmer'
_symmetry_space_group_name_H-M	'P1'
_symmetry_Int_Tables_number	1
_symmetry_cell_setting	triclinic
loop_
_symmetry_equiv_pos_as_xyz
  x,y,z
_cell_length_a	18.215407
_cell_length_b	18.215405
_cell_length_c	17.077396
_cell_angle_alpha	89.968409
_cell_angle_beta	89.980259
_cell_angle_gamma	90.025333
loop_
_atom_site_label
_atom_site_type_symbol
_atom_site_fract_x
_atom_site_fract_y
_atom_site_fract_z
Zn1	Zn	1.125071	-0.292975	-0.443831
Zn2	Zn	1.124980	-0.416049	-0.312558
Zn3	Zn	1.002004	-0.293002	-0.312578
Zn4	Zn	1.001970	-0.416006	-0.443781
O5	O	1.063506	-0.354508	-0.378187
O6	O	1.228043	-0.309309	-0.426430
O7	O	1.108643	-0.399756	-0.202713
O8	O	1.018382	-0.190014	-0.330019
O9	O	1.227976	-0.399730	-0.329984
O10	O	1.108799	-0.189995	-0.426449
O11	O	1.018293	-0.309353	-0.202728
O12	O	0.899015	-0.309311	-0.329970
O13	O	1.018323	-0.399656	-0.553634
O14	O	0.898990	-0.399682	-0.426364
O15	O	1.108765	-0.309267	-0.553671
O16	O	1.108610	-0.519028	-0.329935
O17	O	1.018235	-0.518996	-0.426344
C18	C	0.872300	-0.354495	-0.378164
C19	C	0.790501	-0.354508	-0.378173
C20	C	0.602313	-0.401638	-0.428303
C21	C	0.525455	-0.401640	-0.428312
C22	C	0.525451	-0.307392	-0.328088
C23	C	0.602309	-0.307386	-0.328083
C24	C	0.640738	-0.354513	-0.378189
C25	C	0.487022	-0.354521	-0.378204
C26	C	0.403688	-0.354523	-0.378214
C27	C	0.724077	-0.354510	-0.378180
C28	C	1.063429	-0.545714	-0.378149
C29	C	1.063463	-0.627513	-0.378159
C30	C	1.110631	-0.815699	-0.328051
C31	C	1.110664	-0.892558	-0.328070
C32	C	1.016475	-0.892565	-0.428379
C33	C	1.016447	-0.815707	-0.428363
C34	C	1.063524	-0.777277	-0.378195
C35	C	1.063585	-0.930993	-0.378230
C36	C	1.063620	-1.014326	-0.378251
C37	C	1.063489	-0.693938	-0.378175
C38	C	1.255459	-0.354521	-0.378210
C39	C	1.337258	-0.354527	-0.378220
C40	C	1.063551	-0.354454	-0.582931
C41	C	1.063570	-0.354431	-0.670181
C42	C	1.063604	-0.162555	-0.378242
C43	C	1.063646	-0.080756	-0.378265
C44	C	1.110665	-0.307361	-0.711192
C45	C	1.110674	-0.307336	-0.793172
C46	C	1.063591	-0.354386	-0.834141
C47	C	1.016490	-0.401458	-0.793124
C48	C	1.016478	-0.401478	-0.711145
C49	C	1.016520	-0.401414	-0.963994
C50	C	1.016533	-0.401395	-1.045979
C51	C	1.110715	-0.307272	-1.046021
C52	C	1.110703	-0.307292	-0.964042
C53	C	1.063604	-0.354365	-0.923032
C54	C	1.063504	-0.354509	-0.174239
C55	C	1.063628	-0.354325	-0.086990
H56	H	0.494153	-0.269024	-0.287292
Cl57	Cl	1.169890	-0.940857	-0.265032
H58	H	0.978155	-0.439734	-0.930606
Cl59	Cl	0.957224	-0.767401	-0.491410
Cl60	Cl	0.650617	-0.248135	-0.265083
Cl61	Cl	0.957294	-0.940883	-0.491441
Cl62	Cl	0.957297	-0.460604	-0.844628
H63	H	0.978121	-0.439800	-0.677755
H64	H	0.633600	-0.440010	-0.469104
H65	H	1.148965	-0.784411	-0.287203
H66	H	1.149007	-0.269050	-0.677841
Cl67	Cl	1.169914	-0.248192	-0.844725
H68	H	1.149064	-0.268942	-1.079416
H69	H	0.494173	-0.440012	-0.469121
H70	H	1.149046	-0.268984	-0.930688
H71	H	0.978192	-0.439705	-1.079333
