data_functionalizedCrystal
_audit_creation_method	'MofGen! by Chris Wilmer'
_symmetry_space_group_name_H-M	'P1'
_symmetry_Int_Tables_number	1
_symmetry_cell_setting	triclinic
loop_
_symmetry_equiv_pos_as_xyz
  x,y,z
_cell_length_a	14.853566
_cell_length_b	10.489716
_cell_length_c	13.330367
_cell_angle_alpha	89.999430
_cell_angle_beta	89.995295
_cell_angle_gamma	84.081775
loop_
_atom_site_label
_atom_site_type_symbol
_atom_site_fract_x
_atom_site_fract_y
_atom_site_fract_z
O1	O	1.197293	0.166522	-0.083348
O2	O	0.934943	0.186362	-0.083363
O3	O	1.072099	-0.009225	-0.083359
O4	O	1.060137	0.362109	-0.083352
O5	O	1.072079	-0.009230	0.083488
O6	O	0.934923	0.186357	0.083484
O7	O	1.197273	0.166518	0.083499
Cu8	Cu	1.066096	0.176437	0.098726
Cu9	Cu	1.066120	0.176442	-0.098590
O10	O	1.060117	0.362105	0.083495
C11	C	0.901339	0.185461	0.000058
C12	C	0.801241	0.182768	0.000052
C13	C	0.378004	0.171380	-0.090879
C14	C	0.378003	0.171376	0.091024
C15	C	0.472051	0.173905	0.091021
C16	C	0.519080	0.175173	0.000066
C17	C	0.472060	0.173913	-0.090885
C18	C	0.519077	0.175178	0.181971
C19	C	0.613131	0.177709	0.181971
C20	C	0.660161	0.178968	0.091016
C21	C	0.613136	0.177706	0.000061
C22	C	0.660165	0.178975	-0.090894
C23	C	0.613142	0.177703	-0.181850
C24	C	0.519091	0.175172	-0.181841
C25	C	0.754212	0.181499	0.091006
C26	C	0.754221	0.181507	-0.090900
C27	C	1.071190	-0.056749	0.000061
C28	C	1.068501	-0.198350	0.000052
C29	C	1.152610	-0.296969	0.000066
C30	C	1.108175	-0.373828	-0.082198
C31	C	1.108136	-0.373796	0.082300
C32	C	1.024102	-0.273344	-0.082280
C33	C	1.024075	-0.273307	0.082292
C34	C	0.979578	-0.350117	0.000008
C35	C	1.230877	0.167419	0.000075
C36	C	1.330975	0.170112	0.000075
C37	C	1.061026	0.409629	0.000072
C38	C	1.063715	0.551230	0.000075
N39	N	1.066086	0.176433	0.237507
N40	N	1.066137	0.176437	-0.237372
C41	C	1.005384	0.263014	0.710128
C42	C	1.126880	0.089861	0.710100
C43	C	1.126869	0.089857	0.605082
C44	C	1.066117	0.176434	0.552582
C45	C	1.005374	0.263015	0.605100
C46	C	1.187617	0.003286	0.552556
C47	C	1.187610	0.003279	0.447531
C48	C	1.126852	0.089851	0.395029
C49	C	1.066106	0.176435	0.447554
C50	C	1.005354	0.263013	0.395054
C51	C	0.944603	0.349591	0.447577
C52	C	0.944616	0.349588	0.552598
C53	C	1.126839	0.089855	0.290007
C54	C	1.005343	0.263014	0.290026
H55	H	0.651409	0.178741	0.256033
C56	C	1.193661	-0.005374	0.232237
N57	N	1.243993	-0.077109	0.188726
H58	H	0.988624	-0.229640	-0.151905
H59	H	0.955919	0.333502	0.752895
H60	H	0.895141	0.420089	0.404819
C61	C	0.326279	0.169981	-0.190926
N62	N	0.287318	0.168928	-0.266283
C63	C	1.193704	-0.005369	0.767854
N64	N	1.244037	-0.077102	0.811358
C65	C	1.254429	-0.091968	0.389766
N66	N	1.304755	-0.163714	0.346256
C67	C	0.664885	0.179099	-0.281897
N68	N	0.703863	0.180149	-0.357250
C69	C	0.805945	0.182898	-0.190959
N70	N	0.844903	0.183945	-0.266325
H71	H	1.143650	-0.417669	0.151846
C72	C	1.254440	-0.091943	0.610312
N73	N	1.304772	-0.163675	0.653818
H74	H	0.480797	0.174136	-0.255892
H75	H	0.906363	-0.373725	-0.000041
C76	C	1.251444	-0.264736	-0.000039
N77	N	1.325883	-0.240456	-0.000124
C78	C	0.326268	0.169985	0.191068
N79	N	0.287298	0.168935	0.266425
H80	H	0.480779	0.174154	0.256021
H81	H	0.792493	0.182547	0.165061
H82	H	0.988592	-0.229393	0.151840
C83	C	0.877792	0.444809	0.610381
N84	N	0.827459	0.516528	0.653907
C85	C	1.156154	-0.433137	-0.176146
N86	N	1.192297	-0.477808	-0.246903
H87	H	0.955868	0.333512	0.247286
