data_functionalizedCrystal
_audit_creation_method	'MofGen! by Chris Wilmer'
_symmetry_space_group_name_H-M	'P1'
_symmetry_Int_Tables_number	1
_symmetry_cell_setting	triclinic
loop_
_symmetry_equiv_pos_as_xyz
  x,y,z
_cell_length_a	15.297475
_cell_length_b	15.297327
_cell_length_c	12.759393
_cell_angle_alpha	99.641734
_cell_angle_beta	80.312341
_cell_angle_gamma	91.625546
loop_
_atom_site_label
_atom_site_type_symbol
_atom_site_fract_x
_atom_site_fract_y
_atom_site_fract_z
Zn1	Zn	1.278719	-0.580714	-0.968284
Zn2	Zn	1.253250	-0.727187	-0.816974
Zn3	Zn	1.132233	-0.555374	-0.758038
Zn4	Zn	1.106862	-0.701747	-0.958030
O5	O	1.192766	-0.641255	-0.875331
O6	O	1.397910	-0.621395	-0.977168
O7	O	1.237155	-0.704437	-0.662135
O8	O	1.172942	-0.436178	-0.765553
O9	O	1.379197	-0.729008	-0.866002
O10	O	1.280565	-0.454795	-0.920020
O11	O	1.148245	-0.578207	-0.618835
O12	O	1.006298	-0.553539	-0.755611
O13	O	1.129700	-0.685650	-1.106411
O14	O	0.987658	-0.661079	-0.902544
O15	O	1.255963	-0.596727	-1.113944
O16	O	1.212554	-0.846370	-0.856059
O17	O	1.105003	-0.827679	-0.959692
C18	C	0.965197	-0.601800	-0.821570
C19	C	0.867839	-0.584941	-0.798600
C20	C	0.554618	-0.761750	-1.039510
C21	C	0.646090	-0.777596	-1.061091
C22	C	0.701532	-0.729434	-0.995470
C23	C	0.665492	-0.665423	-0.908265
C24	C	0.574011	-0.649581	-0.886677
C25	C	0.720924	-0.617264	-0.842637
C26	C	0.684885	-0.553253	-0.755432
C27	C	0.593412	-0.537413	-0.733849
C28	C	0.537970	-0.585576	-0.799469
C29	C	0.812406	-0.633106	-0.864225
C30	C	0.831799	-0.520936	-0.711391
C31	C	0.740327	-0.505091	-0.689811
C32	C	1.153285	-0.868806	-0.913187
C33	C	1.136476	-0.966168	-0.929436
C34	C	1.313269	-1.279445	-0.759641
C35	C	1.329063	-1.187969	-0.744369
C36	C	1.280918	-1.132515	-0.790635
C37	C	1.216976	-1.168544	-0.852175
C38	C	1.201176	-1.260028	-0.867441
C39	C	1.168824	-1.113098	-0.898435
C40	C	1.104883	-1.149127	-0.959975
C41	C	1.089086	-1.240602	-0.975239
C42	C	1.137231	-1.296057	-0.928974
C43	C	1.184624	-1.021614	-0.883168
C44	C	1.072531	-1.002197	-0.990968
C45	C	1.056738	-1.093672	-1.006240
C46	C	1.421223	-0.680866	-0.929303
C47	C	1.518578	-0.697746	-0.952302
C48	C	1.192843	-0.641178	-1.149365
C49	C	1.192875	-0.641144	-1.266141
C50	C	1.232425	-0.412820	-0.837356
C51	C	1.249325	-0.315474	-0.821174
C52	C	1.258629	-0.594838	-1.324928
C53	C	1.258655	-0.594810	-1.434652
C54	C	1.127170	-0.687402	-1.426792
C55	C	1.127141	-0.687424	-1.317069
C56	C	1.324363	-0.548559	-1.274001
C57	C	1.390123	-0.502250	-1.332789
C58	C	1.390149	-0.502222	-1.442512
C59	C	1.324416	-0.548503	-1.493448
C60	C	1.192751	-0.641278	-0.602366
C61	C	1.192931	-0.641094	-0.485588
H62	H	0.509469	-0.800963	-1.092924
C63	C	0.437347	-0.568161	-0.775718
H64	H	0.409494	-0.606019	-0.827285
H65	H	0.426444	-0.508079	-0.779706
H66	H	0.414023	-0.579666	-0.705507
H67	H	1.236685	-0.992287	-0.833062
H68	H	1.033325	-0.957045	-1.028639
C69	C	1.462420	-0.451336	-1.276766
H70	H	1.501578	-0.423744	-1.327492
H71	H	1.494758	-0.491461	-1.248544
H72	H	1.435521	-0.407372	-1.219707
H73	H	1.073587	-0.725115	-1.269198
C74	C	1.399366	-1.148334	-0.676648
H75	H	1.401866	-1.085908	-0.674161
H76	H	1.455644	-1.173452	-0.708438
H77	H	1.383944	-1.161175	-0.605538
C78	C	0.986400	-1.133311	-1.073922
H79	H	0.983885	-1.195733	-1.076378
H80	H	1.001783	-1.120482	-1.145035
H81	H	0.930131	-1.108181	-1.042089
C82	C	0.685728	-0.848023	-1.156982
H83	H	0.748145	-0.850575	-1.160426
H84	H	0.672985	-0.832714	-1.221965
H85	H	0.660515	-0.904249	-1.147696
H86	H	0.564071	-0.485300	-0.662831
C87	C	1.018753	-1.280238	-1.042929
H88	H	1.016236	-1.342660	-1.045388
H89	H	1.034143	-1.267406	-1.114040
H90	H	0.962483	-1.255107	-1.011101
C91	C	1.462479	-0.451284	-1.507176
H92	H	1.501625	-0.423732	-1.461129
H93	H	1.435616	-0.407303	-1.535724
H94	H	1.494836	-0.491403	-1.564561
C95	C	1.324335	-0.548584	-1.153308
H96	H	1.372895	-0.514385	-1.131392
H97	H	1.329655	-0.607733	-1.141453
H98	H	1.270435	-0.523632	-1.112615
C99	C	1.054878	-0.738317	-1.482823
H100	H	1.064319	-0.731679	-1.556593
H101	H	0.998246	-0.715304	-1.448814
H102	H	1.057485	-0.799391	-1.477645
C103	C	1.366218	-1.340439	-0.708749
H104	H	1.406560	-1.305882	-0.669907
H105	H	1.398209	-1.382684	-0.763927
H106	H	1.326547	-1.370371	-0.660990
C107	C	0.700676	-0.434688	-0.593886
H108	H	0.638256	-0.432159	-0.590429
H109	H	0.725873	-0.378453	-0.603126
H110	H	0.713425	-0.450033	-0.528917
H111	H	0.876940	-0.481720	-0.657956
C112	C	1.298297	-1.031895	-0.773847
H113	H	1.343279	-1.018380	-0.730580
H114	H	1.245348	-1.001457	-0.738838
H115	H	1.317008	-1.013773	-0.841777
C116	C	1.119857	-1.396681	-0.945766
H117	H	1.157687	-1.424543	-0.909395
H118	H	1.131406	-1.419942	-1.020593
H119	H	1.059755	-1.407637	-0.917645
H120	H	1.324434	-0.548464	-1.582789
H121	H	0.841740	-0.685224	-0.935229
H122	H	0.776012	-0.742339	-1.013046
