data_functionalizedCrystal
_audit_creation_method	'MofGen! by Chris Wilmer'
_symmetry_space_group_name_H-M	'P1'
_symmetry_Int_Tables_number	1
_symmetry_cell_setting	triclinic
loop_
_symmetry_equiv_pos_as_xyz
  x,y,z
_cell_length_a	6.817900
_cell_length_b	10.992421
_cell_length_c	16.256277
_cell_angle_alpha	93.802353
_cell_angle_beta	103.500353
_cell_angle_gamma	108.764763
loop_
_atom_site_label
_atom_site_type_symbol
_atom_site_fract_x
_atom_site_fract_y
_atom_site_fract_z
V1	V	-4.053905	-0.178799	-0.263862
O2	O	-4.013178	0.007524	-0.258851
O3	O	-4.031899	-0.353501	-0.262046
O4	O	-4.005178	-0.176517	-0.378946
O5	O	-4.040085	-0.170685	-0.141141
V6	V	-4.534155	-0.156457	-0.249185
O7	O	-4.322342	-0.227807	-0.296057
O8	O	-4.715915	-0.107449	-0.216990
O9	O	-4.332954	0.018245	-0.251001
O10	O	-4.692278	-0.342780	-0.254196
O11	O	-4.665372	-0.164571	-0.371906
O12	O	-4.359675	-0.158739	-0.134100
C13	C	-3.883331	-0.396075	-0.257880
C14	C	-3.946623	-0.538898	-0.257162
C15	C	-3.849244	-0.170313	-0.406998
C16	C	-3.890863	-0.169604	-0.501080
C17	C	-3.815611	-0.734163	-0.251375
C18	C	-3.749435	-0.585520	-0.251786
C19	C	-4.035282	-0.577223	-0.178238
C20	C	-4.099709	-0.725763	-0.177403
C21	C	-4.194214	-0.764981	-0.339192
C22	C	-4.124768	-0.616475	-0.340904
C23	C	-4.182557	-0.174561	-0.732900
C24	C	-4.059334	-0.064298	-0.775998
C25	C	-3.966958	-0.168268	-0.673326
C26	C	-4.164278	-0.277189	-0.797858
C27	C	-4.040479	-0.166984	-0.839710
C28	C	-3.843143	-0.057926	-0.715176
C29	C	-3.948159	-0.270915	-0.737041
C30	C	-3.824773	-0.160620	-0.780108
C31	C	-3.924609	-0.169007	-0.577477
C32	C	-4.082807	-0.166236	-0.935555
C33	C	-4.144865	0.060812	-0.255164
C34	C	-4.060811	0.203634	-0.255888
C35	C	-4.178951	-0.164947	-0.106045
C36	C	-4.116570	-0.165650	-0.011962
H37	H	-3.679415	-0.559978	-0.308180
H38	H	-4.272534	-0.586302	-0.349718
C39	C	-4.337771	-0.781001	-0.177215
H40	H	-4.378722	-0.872072	-0.176703
H41	H	-4.356895	-0.740295	-0.127758
H42	H	-4.424564	-0.764725	-0.227073
C43	C	-4.123319	0.053726	-0.799504
H44	H	-4.022201	0.107306	-0.825202
H45	H	-4.262438	0.024488	-0.838613
H46	H	-4.124759	0.102210	-0.749187
C47	C	-4.231722	-0.536376	-0.179458
H48	H	-4.261476	-0.495482	-0.228225
H49	H	-4.352894	-0.611091	-0.181912
H50	H	-4.201960	-0.477326	-0.128989
H51	H	-3.614505	-0.532841	-0.191660
C52	C	-3.659381	0.067409	-0.666839
H53	H	-3.633983	0.066211	-0.606947
H54	H	-3.532404	0.072682	-0.683300
H55	H	-3.698443	0.140673	-0.680440
H56	H	-4.373117	-0.806115	-0.343328
H57	H	-4.333303	-0.180327	-0.712010
H58	H	-3.673743	-0.154687	-0.800821
H59	H	-3.776971	-0.780804	-0.307419
C60	C	-3.884247	-0.388943	-0.713506
H61	H	-3.998188	-0.466764	-0.742116
H62	H	-3.758340	-0.384809	-0.730488
H63	H	-3.856835	-0.388091	-0.653388
C64	C	-4.348234	-0.402356	-0.846331
H65	H	-4.296601	-0.449045	-0.882339
H66	H	-4.399484	-0.454825	-0.806386
H67	H	-4.462105	-0.380405	-0.880186
C68	C	-3.677731	-0.761575	-0.170205
H69	H	-3.768947	-0.810762	-0.139054
H70	H	-3.594654	-0.809259	-0.185983
H71	H	-3.584551	-0.681596	-0.135486
C72	C	-3.969403	-0.749106	-0.092753
H73	H	-4.007560	-0.839911	-0.091494
H74	H	-3.820151	-0.712538	-0.088536
H75	H	-4.000142	-0.709278	-0.046000
C76	C	-3.864513	-0.503656	-0.094482
H77	H	-3.919681	-0.527506	-0.047084
H78	H	-3.738901	-0.525388	-0.090468
H79	H	-3.829623	-0.412684	-0.094217
C80	C	-4.167218	-0.832187	-0.419871
H81	H	-4.249004	-0.811993	-0.469416
H82	H	-4.019700	-0.802409	-0.419317
H83	H	-4.216325	-0.923634	-0.420655
C84	C	-4.040717	-0.584289	-0.419799
H85	H	-3.897644	-0.523846	-0.401787
H86	H	-4.042635	-0.661571	-0.450350
H87	H	-4.130052	-0.547495	-0.455930
