data_functionalizedCrystal
_audit_creation_method	'MofGen! by Chris Wilmer'
_symmetry_space_group_name_H-M	'P1'
_symmetry_Int_Tables_number	1
_symmetry_cell_setting	triclinic
loop_
_symmetry_equiv_pos_as_xyz
  x,y,z
_cell_length_a	17.638686
_cell_length_b	12.827892
_cell_length_c	12.827885
_cell_angle_alpha	90.029976
_cell_angle_beta	101.215377
_cell_angle_gamma	78.782890
loop_
_atom_site_label
_atom_site_type_symbol
_atom_site_fract_x
_atom_site_fract_y
_atom_site_fract_z
Zn1	Zn	1.208519	-0.739492	0.913346
Zn2	Zn	1.208440	-0.914249	0.738585
Zn3	Zn	1.076327	-0.704157	0.703344
Zn4	Zn	1.076317	-0.878803	0.878027
O5	O	1.142401	-0.809175	0.808326
O6	O	1.319126	-0.792297	0.919694
O7	O	1.190886	-0.886426	0.587666
O8	O	1.093901	-0.562618	0.731234
O9	O	1.319067	-0.920689	0.791297
O10	O	1.191022	-0.588579	0.885522
O11	O	1.093824	-0.732072	0.561775
O12	O	0.965709	-0.697702	0.696986
O13	O	1.093883	-0.860277	1.028956
O14	O	0.965702	-0.826013	0.825325
O15	O	1.191011	-0.757926	1.054905
O16	O	1.190876	-1.055772	0.757049
O17	O	1.093805	-1.029731	0.859497
C18	C	0.937024	-0.754178	0.753500
C19	C	0.849163	-0.730674	0.730070
C20	C	1.142352	-1.080672	0.808293
C21	C	1.142404	-1.196839	0.808334
C22	C	1.190546	-1.381549	0.757768
C23	C	1.190494	-1.261485	0.757725
C24	C	0.560287	-0.987953	0.986583
C25	C	0.477728	-0.965859	0.964541
C26	C	0.477703	-0.832041	0.831108
C27	C	0.560264	-0.854127	0.853136
C28	C	0.601549	-0.932084	0.930875
C29	C	0.601526	-0.798258	0.797428
C30	C	0.684079	-0.820339	0.819458
C31	C	0.725371	-0.898289	0.897195
C32	C	0.684103	-0.954165	0.952905
C33	C	0.560239	-0.720296	0.719694
C34	C	0.601501	-0.664427	0.663986
C35	C	0.684056	-0.686513	0.686010
C36	C	0.725347	-0.764463	0.763748
C37	C	0.725323	-0.630637	0.630301
C38	C	0.807877	-0.652718	0.652331
C39	C	0.807901	-0.786544	0.785778
C40	C	1.348580	-0.864388	0.863366
C41	C	1.436441	-0.887917	0.886821
C42	C	1.142455	-0.809089	1.080910
C43	C	1.142478	-0.809053	1.197070
C44	C	1.142471	-0.536624	0.808387
C45	C	1.142501	-0.420479	0.808413
C46	C	1.142393	-0.809198	0.536814
C47	C	1.142523	-0.808981	0.420696
C48	C	1.190545	-0.758395	1.261696
C49	C	1.190570	-0.758356	1.381753
H50	H	1.231630	-1.227958	0.714371
H51	H	0.493018	-0.702315	0.701766
H52	H	0.841518	-0.850029	0.849076
O53	O	0.847932	-0.598562	0.598054
C54	C	0.827719	-0.615863	0.488471
H55	H	0.805010	-0.693264	0.477001
H56	H	0.779804	-0.546984	0.448453
C57	C	0.928934	-0.528189	0.452407
C58	C	0.901048	-0.623258	0.438320
H59	H	0.974164	-0.532745	0.421470
H60	H	0.942550	-0.516528	0.526235
H61	H	0.888998	-0.470799	0.419059
H62	H	0.940980	-0.680643	0.471680
H63	H	0.887440	-0.634928	0.364497
H64	H	1.231676	-0.715050	1.228143
O65	O	1.093438	-1.236965	0.860148
C66	C	1.138487	-1.312036	0.939694
H67	H	1.198425	-1.344287	0.918893
H68	H	1.147092	-1.272268	1.019470
C69	C	1.021486	-1.364584	0.972470
C70	C	1.095102	-1.404201	0.946916
H71	H	0.994724	-1.421434	0.976930
H72	H	0.991136	-1.314004	0.918881
H73	H	1.028668	-1.331444	1.038948
H74	H	1.087919	-1.437328	0.880434
H75	H	1.125450	-1.454789	1.000495
O76	O	1.093535	-0.860807	1.354378
C77	C	1.138557	-0.940341	1.303273
H78	H	1.198480	-0.919522	1.303034
H79	H	1.147201	-1.020121	1.347569
C80	C	1.021517	-0.973145	1.188224
C81	C	1.095113	-0.947570	1.187924
H82	H	0.994718	-0.977609	1.117073
H83	H	0.991185	-0.919565	1.222657
H84	H	1.028731	-1.039626	1.225143
H85	H	1.087898	-0.881084	1.151017
H86	H	1.125444	-1.001139	1.153482
O87	O	1.093291	-0.860620	1.237012
C88	C	1.014489	-0.816736	1.189367
H89	H	1.010489	-0.732221	1.158237
H90	H	0.993756	-0.867295	1.120554
C91	C	0.966731	-0.918470	1.310566
C92	C	0.961818	-0.814664	1.272339
H93	H	0.934239	-0.917196	1.361744
H94	H	1.019821	-0.948039	1.342663
H95	H	0.949455	-0.960591	1.253212
H96	H	0.979103	-0.772548	1.329690
H97	H	0.908729	-0.785087	1.240253
O98	O	0.724181	-1.029774	1.028558
C99	C	0.704026	-1.001692	1.127373
H100	H	0.681333	-0.912148	1.126741
H101	H	0.656116	-1.044944	1.141811
C102	C	0.805254	-1.143527	1.217439
C103	C	0.777388	-1.033547	1.216666
H104	H	0.850505	-1.163181	1.272521
H105	H	0.818831	-1.162450	1.150866
H106	H	0.765322	-1.179557	1.229467
H107	H	0.817316	-0.997519	1.204625
H108	H	0.763819	-1.014619	1.283240
O109	O	1.093270	-1.354227	0.859966
C110	C	1.014489	-1.359857	0.816066
H111	H	1.010522	-1.388934	0.731553
H112	H	0.993790	-1.417571	0.866618
C113	C	0.966625	-1.213055	0.917786
C114	C	0.961752	-1.248759	0.813983
H115	H	0.934093	-1.144526	0.916505
H116	H	1.019701	-1.209263	0.947367
H117	H	0.949377	-1.261159	0.959902
H118	H	0.979008	-1.200662	0.771873
H119	H	0.908677	-1.252540	0.784395
H120	H	0.792591	-0.916260	0.915136
O121	O	0.600277	-1.063684	1.062163
C122	C	0.546158	-1.108290	1.106591
H123	H	0.487313	-1.049759	1.094582
H124	H	0.537367	-1.185261	1.065840
C125	C	0.650683	-1.203997	1.241138
C126	C	0.578410	-1.132104	1.226397
H127	H	0.670578	-1.218692	1.315040
H128	H	0.687145	-1.173949	1.211205
H129	H	0.643348	-1.268131	1.207172
H130	H	0.585749	-1.067968	1.260352
H131	H	0.541950	-1.162143	1.256339
H132	H	1.231725	-0.714991	1.437282
O133	O	0.437606	-1.019973	1.018758
C134	C	0.389861	-0.947776	1.073588
H135	H	0.414753	-0.872140	1.086821
H136	H	0.327289	-0.927397	1.024580
C137	C	0.358036	-1.091513	1.165553
C138	C	0.388612	-0.998618	1.181814
H139	H	0.357261	-1.122874	1.232310
H140	H	0.390199	-1.140154	1.128611
H141	H	0.305895	-1.074517	1.124710
H142	H	0.440755	-1.015616	1.222644
H143	H	0.356457	-0.949980	1.218766
H144	H	0.444077	-0.768566	0.767816
H145	H	0.567875	-0.600952	0.600694
H146	H	1.231714	-1.437106	0.714436
H147	H	0.691696	-0.567158	0.567013
