data_functionalizedCrystal
_audit_creation_method	'MofGen! by Chris Wilmer'
_symmetry_space_group_name_H-M	'P1'
_symmetry_Int_Tables_number	1
_symmetry_cell_setting	triclinic
loop_
_symmetry_equiv_pos_as_xyz
  x,y,z
_cell_length_a	13.897449
_cell_length_b	12.759394
_cell_length_c	12.759387
_cell_angle_alpha	90.031660
_cell_angle_beta	90.021740
_cell_angle_gamma	90.016117
loop_
_atom_site_label
_atom_site_type_symbol
_atom_site_fract_x
_atom_site_fract_y
_atom_site_fract_z
Zn1	Zn	-1.474731	0.418175	-0.594033
Zn2	Zn	-1.474631	0.593892	-0.418351
Zn3	Zn	-1.313418	0.418232	-0.418366
Zn4	Zn	-1.313410	0.593817	-0.593986
O5	O	-1.394047	0.506029	-0.506184
O6	O	-1.609700	0.441492	-0.570742
O7	O	-1.453206	0.570646	-0.271332
O8	O	-1.334862	0.271203	-0.441695
O9	O	-1.609626	0.570591	-0.441669
O10	O	-1.453378	0.271162	-0.570757
O11	O	-1.334764	0.441589	-0.271343
O12	O	-1.178435	0.441515	-0.441650
O13	O	-1.334849	0.570462	-0.741014
O14	O	-1.178430	0.570517	-0.570677
O15	O	-1.453371	0.441419	-0.741048
O16	O	-1.453199	0.740903	-0.441624
O17	O	-1.334751	0.740848	-0.570662
C18	C	-1.393990	0.778996	-0.506159
C19	C	-1.394053	0.895773	-0.506183
C20	C	-1.143433	0.506015	-0.506160
C21	C	-1.036219	0.506034	-0.506175
C22	C	-1.645640	0.506044	-0.506209
C23	C	-1.752854	0.506050	-0.506220
C24	C	-0.839924	0.506038	-0.506203
C25	C	-0.949157	0.506033	-0.506184
C26	C	-1.394120	0.505926	-0.780218
C27	C	-1.394151	0.505882	-0.896995
C28	C	-1.394132	0.231996	-0.506233
C29	C	-1.394168	0.115219	-0.506253
C30	C	-1.517485	0.895778	-0.371916
C31	C	-1.579227	0.950641	-0.304795
C32	C	-1.579283	1.060362	-0.304823
C33	C	-1.517594	1.115223	-0.371983
C34	C	-1.455853	1.060360	-0.439104
C35	C	-1.455801	0.950636	-0.439066
C36	C	-1.332427	1.060356	-0.573375
C37	C	-1.332364	0.950634	-0.573342
C38	C	-1.270737	1.115217	-0.640534
C39	C	-1.208990	1.060354	-0.707651
C40	C	-1.208935	0.950626	-0.707619
C41	C	-1.270622	0.895771	-0.640464
C42	C	-1.517577	0.371518	-0.897050
C43	C	-1.579303	0.304321	-0.951939
C44	C	-1.579326	0.304283	-1.061661
C45	C	-1.517615	0.371447	-1.116496
C46	C	-1.455889	0.438644	-1.061608
C47	C	-1.455874	0.438678	-0.951883
C48	C	-1.332460	0.573001	-1.061552
C49	C	-1.332440	0.573046	-0.951830
C50	C	-1.270749	0.640165	-1.116388
C51	C	-1.209026	0.707370	-1.061499
C52	C	-1.209006	0.707406	-0.951771
C53	C	-1.270714	0.640244	-0.896942
C54	C	-1.394030	0.506056	-0.233217
C55	C	-1.394186	0.505804	-0.116441
H56	H	-1.629456	0.905963	-0.250116
C57	C	-1.425800	0.344773	-0.739861
C58	C	-1.517555	0.371560	-0.776443
H59	H	-1.425788	0.344803	-0.665402
H60	H	-1.409165	0.276969	-0.764693
H61	H	-1.380223	0.394395	-0.764667
H62	H	-1.563131	0.321934	-0.751643
H63	H	-1.534201	0.439374	-0.751600
C64	C	-1.634098	0.244731	-0.783764
C65	C	-1.647142	0.230505	-0.891662
H66	H	-1.675984	0.199164	-0.746557
H67	H	-1.569301	0.229339	-0.765775
H68	H	-1.648178	0.315336	-0.765784
H69	H	-1.633055	0.159902	-0.909643
H70	H	-1.711954	0.245889	-0.909659
H71	H	-1.270708	0.640272	-0.807600
H72	H	-1.158781	0.762044	-1.106155
C73	C	-1.203625	1.272388	-0.713700
C74	C	-1.270803	1.235825	-0.640577
H75	H	-1.203671	1.346847	-0.713732
H76	H	-1.141382	1.247645	-0.695466
H77	H	-1.220276	1.247482	-0.781499
H78	H	-1.254148	1.260725	-0.572776
H79	H	-1.333061	1.260578	-0.658805
H80	H	-1.270769	0.640126	-1.205729
H81	H	-1.270577	0.806430	-0.640424
C82	C	-1.701337	0.171476	-1.050707
C83	C	-1.647176	0.230421	-1.122001
H84	H	-1.743228	0.125882	-1.087961
H85	H	-1.659321	0.131293	-1.007916
H86	H	-1.738207	0.217279	-1.007904
H87	H	-1.610301	0.184617	-1.164799
H88	H	-1.689198	0.270606	-1.164809
C89	C	-1.154041	0.782430	-0.767202
C90	C	-1.141068	0.890323	-0.781405
H91	H	-1.112146	0.745207	-0.812760
H92	H	-1.139936	0.764526	-0.696603
H93	H	-1.218839	0.764384	-0.782627
H94	H	-1.076272	0.908369	-0.765971
H95	H	-1.155167	0.908234	-0.852019
H96	H	-1.517433	0.806436	-0.371872
H97	H	-1.158730	0.762116	-0.907087
C98	C	-1.609437	1.272282	-0.398892
C99	C	-1.517666	1.235831	-0.372019
H100	H	-1.609482	1.346741	-0.398908
H101	H	-1.626062	1.247388	-0.466693
H102	H	-1.655003	1.247450	-0.349288
H103	H	-1.472101	1.260656	-0.421628
H104	H	-1.501030	1.260736	-0.304208
C105	C	-1.742656	1.094042	-0.253797
C106	C	-1.647152	1.120668	-0.231043
H107	H	-1.784554	1.131268	-0.208243
H108	H	-1.756745	1.111958	-0.324397
H109	H	-1.751441	1.020843	-0.244165
H110	H	-1.638366	1.193867	-0.240683
H111	H	-1.633058	1.102760	-0.160427
H112	H	-1.158772	1.105030	-0.762332
H113	H	-1.517631	0.371401	-1.205837
