data_functionalizedCrystal
_audit_creation_method	'MofGen! by Chris Wilmer'
_symmetry_space_group_name_H-M	'P1'
_symmetry_Int_Tables_number	1
_symmetry_cell_setting	triclinic
loop_
_symmetry_equiv_pos_as_xyz
  x,y,z
_cell_length_a	17.000383
_cell_length_b	17.019294
_cell_length_c	15.186229
_cell_angle_alpha	86.117288
_cell_angle_beta	89.993486
_cell_angle_gamma	79.506204
loop_
_atom_site_label
_atom_site_type_symbol
_atom_site_fract_x
_atom_site_fract_y
_atom_site_fract_z
O1	O	1.056067	0.028436	-0.075445
O2	O	1.389400	0.361769	0.257889
O3	O	1.722733	0.695103	0.591222
O4	O	0.824302	0.057066	-0.077604
O5	O	1.157635	0.390399	0.255729
O6	O	1.490969	0.723733	0.589063
O7	O	0.946650	-0.072530	-0.067779
O8	O	1.279983	0.260803	0.265554
O9	O	1.613316	0.594137	0.598888
O10	O	0.933719	0.158032	-0.085270
O11	O	1.267052	0.491365	0.248064
O12	O	1.600385	0.824699	0.581397
O13	O	0.946642	-0.072531	0.078678
O14	O	1.279975	0.260802	0.412012
O15	O	1.613308	0.594135	0.745345
O16	O	0.824294	0.057065	0.068853
O17	O	1.157627	0.390398	0.402187
O18	O	1.490960	0.723731	0.735520
O19	O	1.056058	0.028435	0.071013
O20	O	1.389392	0.361768	0.404346
O21	O	1.722725	0.695102	0.737679
Zn22	Zn	0.940175	0.042750	0.093186
Zn23	Zn	1.273508	0.376083	0.426520
Zn24	Zn	1.606841	0.709416	0.759853
Zn25	Zn	0.940186	0.042751	-0.099778
Zn26	Zn	1.273519	0.376084	0.233556
Zn27	Zn	1.606852	0.709418	0.566889
O28	O	0.933711	0.158031	0.061188
O29	O	1.267044	0.491364	0.394521
O30	O	1.600377	0.824698	0.727854
C31	C	0.794642	0.058603	-0.004490
C32	C	1.127976	0.391936	0.328843
C33	C	1.461309	0.725270	0.662176
C34	C	0.706279	0.063175	-0.004832
C35	C	1.039612	0.396509	0.328501
C36	C	1.372945	0.729842	0.661834
C37	C	0.946155	-0.101886	0.007675
C38	C	1.279489	0.231447	0.341008
C39	C	1.612822	0.564781	0.674342
C40	C	0.944684	-0.189354	0.014305
C41	C	1.278018	0.143979	0.347639
C42	C	1.611351	0.477312	0.680972
C43	C	0.206028	0.092699	-0.007105
C44	C	0.539362	0.426032	0.326228
C45	C	0.872695	0.759365	0.659562
C46	C	0.289056	0.088397	-0.006778
C47	C	0.622389	0.421730	0.326555
C48	C	0.955723	0.755063	0.659889
C49	C	0.340136	0.013720	-0.001106
C50	C	0.673469	0.347054	0.332227
C51	C	1.006802	0.680387	0.665561
C52	C	0.308184	-0.056658	0.004230
C53	C	0.641517	0.276675	0.337563
C54	C	0.974850	0.610009	0.670897
C55	C	0.225157	-0.052355	0.003897
C56	C	0.558491	0.280978	0.337230
C57	C	0.891824	0.614312	0.670563
C58	C	0.591300	-0.002900	0.000170
C59	C	0.924634	0.330433	0.333504
C60	C	1.257967	0.663766	0.666837
C61	C	0.674332	-0.007198	0.000506
C62	C	1.007665	0.326135	0.333839
C63	C	1.340999	0.659469	0.667173
C64	C	0.655199	0.137857	-0.010504
C65	C	0.988532	0.471191	0.322830
C66	C	1.321865	0.804524	0.656163
C67	C	0.572171	0.142154	-0.010831
C68	C	0.905505	0.475487	0.322502
C69	C	1.238838	0.808820	0.655835
C70	C	0.540227	0.071775	-0.005500
C71	C	0.873560	0.405109	0.327834
C72	C	1.206893	0.738442	0.661167
C73	C	0.425004	0.009321	-0.000769
C74	C	0.758337	0.342654	0.332564
C75	C	1.091670	0.675988	0.665898
C76	C	0.455360	0.076175	-0.005843
C77	C	0.788693	0.409509	0.327490
C78	C	1.122027	0.742842	0.660823
C79	C	0.944000	-0.230442	-0.062413
C80	C	1.277333	0.102891	0.270920
C81	C	1.610666	0.436225	0.604254
C82	C	0.942613	-0.312627	-0.056181
C83	C	1.275946	0.020706	0.277153
C84	C	1.609279	0.354040	0.610486
C85	C	0.941916	-0.353723	0.026771
C86	C	1.275249	-0.020390	0.360105
C87	C	1.608583	0.312943	0.693438
C88	C	0.942598	-0.312629	0.103495
C89	C	1.275932	0.020704	0.436829
C90	C	1.609265	0.354037	0.770162
C91	C	0.943980	-0.230445	0.097262
C92	C	1.277313	0.102888	0.430595
C93	C	1.610646	0.436222	0.763929
C94	C	0.937740	-0.601866	0.049586
C95	C	1.271073	-0.268533	0.382920
C96	C	1.604406	0.064800	0.716253
C97	C	0.936361	-0.684057	0.055814
C98	C	1.269694	-0.350724	0.389147
C99	C	1.603027	-0.017390	0.722481
C100	C	0.936373	-0.684049	-0.103863
C101	C	1.269707	-0.350715	0.229471
C102	C	1.603040	-0.017382	0.562804
C103	C	0.937760	-0.601864	-0.110089
C104	C	1.271093	-0.268530	0.223245
C105	C	1.604426	0.064803	0.556578
C106	C	0.938438	-0.560776	-0.033365
C107	C	1.271771	-0.227443	0.299969
C108	C	1.605104	0.105891	0.633302
C109	C	0.940501	-0.437730	0.033144
C110	C	1.273834	-0.104397	0.366477
C111	C	1.607167	0.228937	0.699811
C112	C	0.939847	-0.476770	-0.039738
C113	C	1.273181	-0.143436	0.293595
C114	C	1.606514	0.189897	0.626928
C115	C	1.085718	0.026898	-0.002103
C116	C	1.419051	0.360231	0.331230
C117	C	1.752385	0.693564	0.664564
C118	C	1.174082	0.022326	-0.001767
C119	C	1.507415	0.355659	0.331567
C120	C	1.840748	0.688992	0.664900
C121	C	0.934205	0.187387	-0.014268
C122	C	1.267538	0.520720	0.319065
C123	C	1.600872	0.854053	0.652398
C124	C	0.935676	0.274855	-0.020904
C125	C	1.269009	0.608188	0.312429
C126	C	1.602343	0.941522	0.645762
N127	N	0.940173	0.042748	0.224879
N128	N	1.273507	0.376081	0.558212
N129	N	1.606840	0.709414	0.891546
N130	N	0.940193	0.042746	-0.231470
N131	N	1.273527	0.376080	0.101863
N132	N	1.606860	0.709413	0.435197
C133	C	0.994367	-0.014621	0.454951
C134	C	1.327701	0.318713	0.788285
C135	C	1.661034	0.652046	1.121618
C136	C	0.994370	-0.014623	0.547141
C137	C	1.327703	0.318711	0.880474
C138	C	1.661036	0.652044	1.213808
C139	C	0.885994	0.100118	0.538451
C140	C	1.219327	0.433451	0.871785
C141	C	1.552660	0.766784	1.205118
C142	C	0.885988	0.100116	0.446263
C143	C	1.219321	0.433449	0.779597
C144	C	1.552655	0.766782	1.112930
C145	C	0.940179	0.042747	0.404516
C146	C	1.273513	0.376080	0.737849
C147	C	1.606846	0.709414	1.071182
C148	C	0.940187	0.042747	0.588893
C149	C	1.273521	0.376080	0.922227
C150	C	1.606854	0.709414	1.255560
C151	C	0.940190	0.042745	0.688850
C152	C	1.273523	0.376079	1.022183
C153	C	1.606856	0.709412	1.355516
C154	C	0.940176	0.042748	0.304553
C155	C	1.273509	0.376081	0.637887
C156	C	1.606843	0.709414	0.971220
H157	H	0.164444	0.153508	-0.011717
H158	H	0.497777	0.486842	0.321616
H159	H	0.831111	0.820175	0.654950
O160	O	1.052804	-0.076501	0.409919
O161	O	1.386138	0.256832	0.743252
O162	O	1.719471	0.590165	1.076586
H163	H	1.090478	-0.116398	0.460482
H164	H	1.423812	0.216935	0.793816
H165	H	1.757145	0.550269	1.127149
O166	O	0.944727	-0.186124	0.180007
O167	O	1.278060	0.147209	0.513340
O168	O	1.611394	0.480543	0.846673
H169	H	0.944020	-0.228508	0.238737
H170	H	1.277353	0.104825	0.572070
H171	H	1.610687	0.438158	0.905403
H172	H	0.841858	0.146832	0.405196
H173	H	1.175191	0.480165	0.738529
H174	H	1.508524	0.813498	1.071863
H175	H	1.038494	-0.061337	0.588203
H176	H	1.371827	0.271996	0.921537
H177	H	1.705160	0.605329	1.254870
O178	O	0.941861	-0.356960	0.192964
O179	O	1.275194	-0.023627	0.526297
O180	O	1.608528	0.309707	0.859631
H181	H	0.887012	-0.383626	0.198810
H182	H	1.220346	-0.050293	0.532144
H183	H	1.553679	0.283041	0.865477
H184	H	0.315063	0.145702	-0.011133
H185	H	0.648396	0.479035	0.322200
H186	H	0.981729	0.812369	0.655533
H187	H	0.413768	0.136976	-0.010465
H188	H	0.747101	0.470310	0.322868
H189	H	1.080434	0.803643	0.656201
H190	H	0.841873	0.146827	0.572452
H191	H	1.175207	0.480160	0.905785
H192	H	1.508540	0.813494	1.239118
H193	H	0.939936	-0.471201	0.100684
H194	H	1.273269	-0.137867	0.434017
H195	H	1.606603	0.195466	0.767350
O196	O	0.517078	0.222697	-0.016947
O197	O	0.850411	0.556030	0.316386
O198	O	1.183744	0.889364	0.649720
H199	H	0.553242	0.270911	-0.020609
H200	H	0.886575	0.604244	0.312724
H201	H	1.219908	0.937577	0.646058
H202	H	0.942058	-0.346078	-0.118653
H203	H	1.275392	-0.012744	0.214680
H204	H	1.608725	0.320589	0.548014
O205	O	0.689650	0.213764	-0.016258
O206	O	1.022983	0.547098	0.317075
O207	O	1.356316	0.880431	0.650409
H208	H	0.727023	0.215277	-0.076067
H209	H	1.060357	0.548610	0.257266
H210	H	1.393690	0.881944	0.590600
O211	O	0.729431	-0.087745	0.006613
O212	O	1.062764	0.245589	0.339947
O213	O	1.396097	0.578922	0.673280
H214	H	0.693270	-0.135961	0.010255
H215	H	1.026603	0.197372	0.343588
H216	H	1.359937	0.530705	0.676921
O217	O	0.940592	-0.432446	-0.129206
O218	O	1.273925	-0.099113	0.204127
O219	O	1.607258	0.234220	0.537460
H220	H	0.994554	-0.459009	-0.165481
H221	H	1.327888	-0.125675	0.167852
H222	H	1.661221	0.207658	0.501186
O223	O	0.556849	-0.078804	0.005942
O224	O	0.890182	0.254529	0.339275
O225	O	1.223516	0.587863	0.672608
H226	H	0.606319	-0.131451	0.009957
H227	H	0.939652	0.201882	0.343290
H228	H	1.272985	0.535215	0.676623
H229	H	0.935820	-0.717511	-0.166327
H230	H	1.269153	-0.384178	0.167006
H231	H	1.602486	-0.050844	0.500340
H232	H	0.349780	-0.117461	0.008843
H233	H	0.683113	0.215872	0.342176
H234	H	1.016446	0.549206	0.675509
O235	O	0.938495	-0.557534	-0.199558
O236	O	1.271828	-0.224201	0.133775
O237	O	1.605161	0.109133	0.467108
H238	H	0.937774	-0.599911	-0.251860
H239	H	1.271108	-0.266577	0.081473
H240	H	1.604441	0.066756	0.414806
H241	H	0.199148	-0.109661	0.008242
H242	H	0.532482	0.223673	0.341575
H243	H	0.865815	0.557006	0.674909
H244	H	0.466602	-0.051481	0.003852
H245	H	0.799935	0.281853	0.337185
H246	H	1.133269	0.615186	0.670519
O247	O	0.944743	-0.186119	-0.151885
O248	O	1.278076	0.147214	0.181448
O249	O	1.611409	0.480548	0.514781
H250	H	0.998701	-0.212686	-0.188164
H251	H	1.332034	0.120647	0.145169
H252	H	1.665368	0.453980	0.478503
O253	O	0.935601	-0.728386	0.145287
O254	O	1.268934	-0.395053	0.478620
O255	O	1.602267	-0.061720	0.811954
H256	H	0.936295	-0.686007	0.197592
H257	H	1.269629	-0.352674	0.530925
H258	H	1.602962	-0.019341	0.864258
H259	H	0.938308	-0.568426	0.112061
H260	H	1.271641	-0.235093	0.445394
H261	H	1.604974	0.098241	0.778728
