data_functionalizedCrystal
_audit_creation_method	'MofGen! by Chris Wilmer'
_symmetry_space_group_name_H-M	'P1'
_symmetry_Int_Tables_number	1
_symmetry_cell_setting	triclinic
loop_
_symmetry_equiv_pos_as_xyz
  x,y,z
_cell_length_a	12.827892
_cell_length_b	12.759401
_cell_length_c	12.759393
_cell_angle_alpha	90.019465
_cell_angle_beta	89.969094
_cell_angle_gamma	89.986400
loop_
_atom_site_label
_atom_site_type_symbol
_atom_site_fract_x
_atom_site_fract_y
_atom_site_fract_z
Zn1	Zn	-0.416021	-1.606250	-0.594015
Zn2	Zn	-0.590802	-1.606142	-0.418337
Zn3	Zn	-0.416070	-1.430552	-0.418351
Zn4	Zn	-0.590715	-1.430538	-0.593976
O5	O	-0.503402	-1.518371	-0.506170
O6	O	-0.439222	-1.753257	-0.570721
O7	O	-0.567680	-1.582810	-0.271318
O8	O	-0.269827	-1.453909	-0.441676
O9	O	-0.567632	-1.753178	-0.441652
O10	O	-0.269791	-1.582994	-0.570735
O11	O	-0.439305	-1.453805	-0.271328
O12	O	-0.439221	-1.283529	-0.441638
O13	O	-0.567485	-1.453886	-0.741002
O14	O	-0.567532	-1.283519	-0.570668
O15	O	-0.439138	-1.582981	-0.741031
O16	O	-0.737026	-1.582797	-0.441614
O17	O	-0.736963	-1.453782	-0.570654
C18	C	-0.503373	-1.245403	-0.506151
C19	C	-0.503386	-1.128627	-0.506167
C20	C	-0.436642	-1.073806	-0.573477
C21	C	-0.436648	-0.964082	-0.573482
C22	C	-0.570153	-0.964008	-0.438866
C23	C	-0.570140	-1.073730	-0.438856
C24	C	-0.313465	-0.814164	-0.611246
C25	C	-0.246730	-0.759340	-0.678572
C26	C	-0.230802	-0.794997	-0.781111
C27	C	-0.281625	-0.885475	-0.816345
C28	C	-0.348368	-0.940294	-0.749025
C29	C	-0.364276	-0.904638	-0.646471
C30	C	-0.693325	-1.223651	-0.401102
C31	C	-0.760074	-1.278471	-0.333786
C32	C	-0.776012	-1.242817	-0.231246
C33	C	-0.725208	-1.152334	-0.196016
C34	C	-0.658458	-1.097514	-0.263331
C35	C	-0.642518	-1.133176	-0.365871
C36	C	-0.774912	-1.518305	-0.506151
C37	C	-0.891065	-1.518373	-0.506178
C38	C	-0.942846	-1.582290	-0.442396
C39	C	-1.062897	-1.582361	-0.442422
C40	C	-0.230832	-1.518465	-0.506211
C41	C	-0.114679	-1.518506	-0.506229
C42	C	-0.503296	-1.518444	-0.780203
C43	C	-0.503251	-1.518475	-0.896980
C44	C	-0.503422	-0.792404	-0.506186
C45	C	-0.503405	-0.909181	-0.506182
C46	C	-0.436394	-1.451326	-0.951847
C47	C	-0.436362	-1.451351	-1.061571
C48	C	-0.570047	-1.585682	-1.061552
C49	C	-0.570083	-1.585652	-0.951829
C50	C	-0.398959	-1.327501	-1.211521
C51	C	-0.332085	-1.260361	-1.266392
C52	C	-0.230128	-1.244258	-1.230801
C53	C	-0.195024	-1.295310	-1.140341
C54	C	-0.261891	-1.362458	-1.085476
C55	C	-0.363863	-1.378541	-1.121065
C56	C	-0.607476	-1.709503	-0.801877
C57	C	-0.674339	-1.776657	-0.747010
C58	C	-0.776298	-1.792770	-0.782599
C59	C	-0.811399	-1.741737	-0.873062
C60	C	-0.744536	-1.674583	-0.927929
C61	C	-0.642578	-1.658468	-0.892333
C62	C	-0.503432	-1.518358	-0.233202
C63	C	-0.503182	-1.518530	-0.116426
H64	H	-0.830395	-1.287441	-0.176450
H65	H	-0.898304	-1.636963	-0.387773
H66	H	-1.107428	-1.637080	-0.387813
H67	H	-1.070155	-1.463777	-0.560835
O68	O	-0.944311	-1.453297	-0.571404
C69	C	-1.067522	-1.439278	-0.713198
C70	C	-1.007309	-1.513095	-0.639377
H71	H	-1.118455	-1.487596	-0.768188
H72	H	-1.118778	-1.384463	-0.664937
H73	H	-1.009844	-1.391118	-0.761168
H74	H	-1.064912	-1.561323	-0.591391
H75	H	-0.956038	-1.567840	-0.687698
O76	O	-0.328824	-0.779675	-0.511567
C77	C	-0.314875	-0.818657	-0.327332
C78	C	-0.297402	-0.857841	-0.440163
H79	H	-0.289500	-0.881842	-0.269571
H80	H	-0.267066	-0.744604	-0.313641
H81	H	-0.401077	-0.800533	-0.315258
H82	H	-0.211227	-0.876025	-0.452317
H83	H	-0.345278	-0.931859	-0.453801
O84	O	-0.371597	-1.385915	-0.898611
C85	C	-0.320828	-1.207211	-0.865089
C86	C	-0.394289	-1.281174	-0.925422
H87	H	-0.339134	-1.122514	-0.886760
H88	H	-0.332340	-1.218631	-0.777230
H89	H	-0.236565	-1.225747	-0.886669
H90	H	-0.478581	-1.262684	-0.903930
H91	H	-0.382687	-1.269741	-1.013266
H92	H	-0.233308	-1.404028	-1.011829
O93	O	-0.096025	-1.279497	-1.105712
C94	C	0.030792	-1.154493	-1.044283
C95	C	-0.081359	-1.172261	-1.083466
H96	H	0.042693	-1.067793	-1.026307
H97	H	0.044431	-1.202440	-0.970167
H98	H	0.088309	-1.180094	-1.107446
H99	H	-0.138946	-1.146652	-1.020378
H100	H	-0.094910	-1.124331	-1.157608
H101	H	-0.175680	-1.189591	-1.275485
H102	H	-0.268660	-0.914494	-0.899847
H103	H	-0.624503	-0.919298	-0.384064
O104	O	-0.366080	-1.210884	-1.354365
C105	C	-0.341854	-1.184205	-1.539737
C106	C	-0.303272	-1.240319	-1.440191
H107	H	-0.291078	-1.207966	-1.609148
H108	H	-0.426200	-1.207250	-1.555834
H109	H	-0.336805	-1.095788	-1.527901
H110	H	-0.308251	-1.328746	-1.451952
H111	H	-0.218943	-1.217189	-1.424125
O112	O	-0.609148	-1.009665	-0.228928
C113	C	-0.581652	-0.890295	-0.085196
C114	C	-0.637541	-0.989811	-0.124012
H115	H	-0.604604	-0.874200	-0.000375
H116	H	-0.493697	-0.902059	-0.090346
H117	H	-0.605337	-0.820907	-0.136169
H118	H	-0.613941	-1.059247	-0.073071
H119	H	-0.725484	-0.977958	-0.118886
O120	O	-0.498073	-1.343027	-1.245945
C121	C	-0.681356	-1.329144	-1.206846
C122	C	-0.569163	-1.311481	-1.167735
H123	H	-0.738863	-1.303668	-1.143624
H124	H	-0.695031	-1.281101	-1.280892
H125	H	-0.693225	-1.415821	-1.224957
H126	H	-0.557215	-1.224832	-1.149564
H127	H	-0.555541	-1.359592	-1.093723
O128	O	-0.634861	-1.650905	-1.114997
C129	C	-0.694097	-1.710444	-1.284021
C130	C	-0.620625	-1.636540	-1.223629
H131	H	-0.682628	-1.698839	-1.371860
H132	H	-0.675764	-1.795184	-1.262534
H133	H	-0.778353	-1.691966	-1.262367
H134	H	-0.536343	-1.654923	-1.245250
H135	H	-0.639047	-1.551822	-1.245121
H136	H	-0.773123	-1.633031	-1.001591
H137	H	-0.894420	-1.754862	-0.902043
O138	O	-0.841128	-1.858007	-0.729153
C139	C	-0.861859	-1.973599	-0.581299
C140	C	-0.788337	-1.899734	-0.641706
H141	H	-0.819200	-2.007373	-0.510598
H142	H	-0.933200	-1.928011	-0.553635
H143	H	-0.887593	-2.040158	-0.634998
H144	H	-0.762524	-1.833160	-0.588070
H145	H	-0.717051	-1.945396	-0.669384
H146	H	-0.738191	-1.123299	-0.112521
H147	H	-0.524463	-1.696359	-0.772871
O148	O	-0.397628	-1.028179	-0.783395
C149	C	-0.425269	-1.147453	-0.927177
C150	C	-0.369400	-1.047921	-0.888377
H151	H	-0.402485	-1.163433	-1.012066
H152	H	-0.401547	-1.216929	-0.876338
H153	H	-0.513207	-1.135639	-0.921866
H154	H	-0.281453	-1.059633	-0.893688
H155	H	-0.393208	-0.978480	-0.939222
O156	O	-0.165904	-0.741646	-0.846361
C157	C	-0.051033	-0.593731	-0.867391
C158	C	-0.124487	-0.654065	-0.793388
H159	H	-0.017544	-0.522897	-0.824598
H160	H	0.015242	-0.647345	-0.893345
H161	H	-0.096484	-0.566248	-0.939052
H162	H	-0.079126	-0.681556	-0.721677
H163	H	-0.190762	-0.600412	-0.767518
H164	H	-0.645746	-1.818222	-0.673358
O165	O	-0.809546	-1.366360	-0.367854
C166	C	-0.927778	-1.506751	-0.325187
C167	C	-0.871840	-1.407221	-0.286481
H168	H	-0.978139	-1.539830	-0.259410
H169	H	-0.979139	-1.486515	-0.395208
H170	H	-0.867399	-1.567639	-0.349583
H171	H	-0.932145	-1.346289	-0.262028
H172	H	-0.820459	-1.427540	-0.216499
O173	O	-0.677867	-1.258120	-0.500777
C174	C	-0.691912	-1.219212	-0.685020
C175	C	-0.709441	-1.180030	-0.572197
H176	H	-0.717452	-1.156105	-0.742794
H177	H	-0.605709	-1.237263	-0.697204
H178	H	-0.739671	-1.293319	-0.698585
H179	H	-0.661746	-1.105900	-0.558554
H180	H	-0.795665	-1.162051	-0.560067
H181	H	-0.205350	-0.685672	-0.649875
H182	H	-0.382283	-1.118500	-0.628283
