data_functionalizedCrystal
_audit_creation_method	'MofGen! by Chris Wilmer'
_symmetry_space_group_name_H-M	'P1'
_symmetry_Int_Tables_number	1
_symmetry_cell_setting	triclinic
loop_
_symmetry_equiv_pos_as_xyz
  x,y,z
_cell_length_a	25.639243
_cell_length_b	25.639240
_cell_length_c	25.639233
_cell_angle_alpha	90.025929
_cell_angle_beta	90.015962
_cell_angle_gamma	90.035481
loop_
_atom_site_label
_atom_site_type_symbol
_atom_site_fract_x
_atom_site_fract_y
_atom_site_fract_z
Zn1	Zn	0.799247	-0.208176	0.295630
Zn2	Zn	0.799179	-0.295595	0.208183
Zn3	Zn	0.711823	-0.208180	0.208203
Zn4	Zn	0.711777	-0.295587	0.295582
O5	O	0.755506	-0.251885	0.251900
O6	O	0.872403	-0.219775	0.284041
O7	O	0.787582	-0.284004	0.135020
O8	O	0.723467	-0.135014	0.219829
O9	O	0.872353	-0.284001	0.219794
O10	O	0.787697	-0.135012	0.284061
O11	O	0.723402	-0.219781	0.135035
O12	O	0.638652	-0.219772	0.219783
O13	O	0.723389	-0.283987	0.368754
O14	O	0.638618	-0.283990	0.283980
O15	O	0.787653	-0.219767	0.368789
O16	O	0.787538	-0.368759	0.219749
O17	O	0.723324	-0.368753	0.283960
C18	C	0.619664	-0.251881	0.251879
C19	C	0.561550	-0.251892	0.251882
C20	C	0.201207	-0.218495	0.285409
C21	C	0.146603	-0.218494	0.285412
O22	O	0.118383	-0.190088	0.313891
N23	N	0.119267	-0.251883	0.251914
C24	C	0.146539	-0.285271	0.218407
O25	O	0.118274	-0.313670	0.189914
C26	C	0.201142	-0.285268	0.218401
C27	C	0.228475	-0.251881	0.251905
C28	C	0.228540	-0.185109	0.318909
C29	C	0.283140	-0.185111	0.318907
C30	C	0.310408	-0.218497	0.285403
C31	C	0.283076	-0.251882	0.251903
C32	C	0.228413	-0.318653	0.184892
C33	C	0.283020	-0.318647	0.184889
C34	C	0.310353	-0.285260	0.218393
C35	C	0.364944	-0.285270	0.218396
N36	N	0.392279	-0.251881	0.251894
C37	C	0.365011	-0.218494	0.285398
C38	C	0.031869	-0.285273	0.218420
C39	C	-0.022734	-0.285279	0.218428
C40	C	-0.022667	-0.218501	0.285432
C41	C	0.031937	-0.218498	0.285427
C42	C	0.059204	-0.251884	0.251918
C43	C	0.479676	-0.218500	0.285390
C44	C	0.534282	-0.218506	0.285386
C45	C	0.534210	-0.285281	0.218380
C46	C	0.479609	-0.285278	0.218385
C47	C	0.452344	-0.251883	0.251892
O48	O	0.393198	-0.313659	0.189930
O49	O	0.393283	-0.190095	0.313881
C50	C	0.755433	-0.387727	0.251859
C51	C	0.755449	-0.445841	0.251859
C52	C	0.788967	-0.806164	0.285405
C53	C	0.788983	-0.860769	0.285416
O54	O	0.817394	-0.888972	0.313897
N55	N	0.755579	-0.888124	0.251950
C56	C	0.722154	-0.860871	0.218475
O57	O	0.693742	-0.889153	0.190011
C58	C	0.722136	-0.806268	0.218467
C59	C	0.755546	-0.778916	0.251932
C60	C	0.822374	-0.778812	0.318867
C61	C	0.822359	-0.724212	0.318856
C62	C	0.788938	-0.696963	0.285383
C63	C	0.755531	-0.724315	0.251920
C64	C	0.688708	-0.779017	0.184996
C65	C	0.688693	-0.724410	0.184991
C66	C	0.722103	-0.697058	0.218455
C67	C	0.722095	-0.642466	0.218435
N68	N	0.755499	-0.615112	0.251901
C69	C	0.788920	-0.642360	0.285375
C70	C	0.722193	-0.975542	0.218494
C71	C	0.722213	-1.030144	0.218499
C72	C	0.789041	-1.030038	0.285441
C73	C	0.789024	-0.975435	0.285433
C74	C	0.755597	-0.948187	0.251960
C75	C	0.788887	-0.527695	0.285348
C76	C	0.788870	-0.473090	0.285332
C77	C	0.722040	-0.473201	0.218392
C78	C	0.722058	-0.527801	0.218406
C79	C	0.755483	-0.555047	0.251888
O80	O	0.693697	-0.614229	0.189971
O81	O	0.817322	-0.614072	0.313839
C82	C	0.891879	-0.251888	0.251921
C83	C	0.949993	-0.251890	0.251930
C84	C	0.755523	-0.251875	0.388273
C85	C	0.755530	-0.251871	0.446387
C86	C	0.755595	-0.115511	0.251952
C87	C	0.755633	-0.057397	0.251975
C88	C	0.755520	-0.251856	0.116057
C89	C	0.755614	-0.251713	0.057943
C90	C	0.789035	-0.218333	0.806774
C91	C	0.789041	-0.218318	0.861378
O92	O	0.817486	-0.189864	0.889635
N93	N	0.755588	-0.251749	0.888669
C94	C	0.722122	-0.285192	0.861354
O95	O	0.693668	-0.313626	0.889581
C96	C	0.722114	-0.285204	0.806750
C97	C	0.755573	-0.251775	0.779462
C98	C	0.822491	-0.184906	0.779485
C99	C	0.822485	-0.184921	0.724884
C100	C	0.789023	-0.218363	0.697572
C101	C	0.755567	-0.251790	0.724861
C102	C	0.688646	-0.318644	0.779436
C103	C	0.688640	-0.318653	0.724828
C104	C	0.722099	-0.285223	0.697540
C105	C	0.722099	-0.285247	0.642949
N106	N	0.755552	-0.251817	0.615657
C107	C	0.789014	-0.218375	0.642969
C108	C	0.722143	-0.285165	0.976024
C109	C	0.722154	-0.285157	1.030627
C110	C	0.789072	-0.218282	1.030647
C111	C	0.789063	-0.218293	0.976044
C112	C	0.755596	-0.251735	0.948733
C113	C	0.789000	-0.218410	0.528304
C114	C	0.788992	-0.218429	0.473699
C115	C	0.722072	-0.285302	0.473683
C116	C	0.722081	-0.285285	0.528283
C117	C	0.755547	-0.251834	0.555593
O118	O	0.693668	-0.313686	0.614657
O119	O	0.817459	-0.189941	0.614735
H120	H	0.206344	-0.157919	0.346192
O121	O	0.821484	-0.185846	0.554769
C122	C	0.810083	-0.133739	0.541440
H123	H	0.789974	-0.132668	0.501794
H124	H	0.783223	-0.116114	0.572173
C125	C	0.885774	-0.103390	0.587614
C126	C	0.861080	-0.102074	0.538918
H127	H	0.917231	-0.083857	0.586060
H128	H	0.893454	-0.138495	0.596596
H129	H	0.863386	-0.088703	0.613219
H130	H	0.883466	-0.116766	0.513315
H131	H	0.853405	-0.066971	0.529931
H132	H	0.849563	-0.701945	0.346107
O133	O	0.689732	-0.317693	1.057153
C134	C	0.719480	-0.351448	1.088744
H135	H	0.760657	-0.354677	1.072299
H136	H	0.721290	-0.335278	1.130133
C137	C	0.643331	-0.401836	1.109756
C138	C	0.693905	-0.405806	1.089555
H139	H	0.627555	-0.435366	1.110258
H140	H	0.623289	-0.379094	1.088474
H141	H	0.644847	-0.388359	1.144245
H142	H	0.692388	-0.419277	1.055065
H143	H	0.713946	-0.428552	1.110831
O144	O	0.821523	-0.185806	1.057264
C145	C	0.814358	-0.192974	1.111309
H146	H	0.774000	-0.210102	1.118750
H147	H	0.845357	-0.220808	1.126807
C148	C	0.868741	-0.119028	1.130218
C149	C	0.819171	-0.140062	1.139358
H150	H	0.871712	-0.086391	1.147521
H151	H	0.873570	-0.114200	1.093807
H152	H	0.894568	-0.142229	1.143133
H153	H	0.793345	-0.116864	1.126437
H154	H	0.814338	-0.144885	1.175767
O155	O	0.821430	-1.056536	0.318017
C156	C	0.791644	-1.088136	0.351750
H157	H	0.750460	-1.071712	0.354935
H158	H	0.789863	-1.129529	0.335587
C159	C	0.867730	-1.109095	0.402217
C160	C	0.817148	-1.088921	0.406133
H161	H	0.883462	-1.109582	0.435763
H162	H	0.887798	-1.087808	0.379490
H163	H	0.866239	-1.143588	0.388746
H164	H	0.818640	-1.054427	0.419598
H165	H	0.797080	-1.110203	0.428864
O166	O	0.821341	-0.446601	0.317892
C167	C	0.850850	-0.482365	0.347430
H168	H	0.829442	-0.521305	0.349225
H169	H	0.890574	-0.488150	0.328324
C170	C	0.884634	-0.413188	0.400876
C171	C	0.858338	-0.461014	0.403084
H172	H	0.889256	-0.400017	0.435206
H173	H	0.864755	-0.389092	0.380975
H174	H	0.917735	-0.418015	0.384952
H175	H	0.825236	-0.456185	0.419002
H176	H	0.878212	-0.485108	0.422990
H177	H	0.661471	-0.702227	0.157734
H178	H	-0.044983	-0.312472	0.191152
H179	H	0.849590	-0.800992	0.346129
H180	H	0.054187	-0.191310	0.312708
H181	H	-0.044878	-0.191315	0.312711
H182	H	0.305389	-0.157922	0.346188
H183	H	0.695013	-1.052410	0.191243
H184	H	0.816228	-0.953168	0.312683
O185	O	0.689797	-0.949018	0.185945
C186	C	0.719577	-0.917437	0.152189
H187	H	0.759183	-0.909202	0.170668
H188	H	0.725359	-0.938503	0.113455
C189	C	0.642151	-0.875720	0.119983
C190	C	0.690794	-0.865602	0.142681
H191	H	0.624396	-0.843747	0.114116
H192	H	0.622087	-0.896998	0.142724
H193	H	0.646976	-0.893276	0.087707
H194	H	0.685968	-0.848053	0.174959
H195	H	0.710856	-0.844320	0.119945
O196	O	0.689558	-0.554293	0.185880
C197	C	0.660068	-0.518531	0.156322
H198	H	0.658237	-0.479594	0.177726
H199	H	0.679239	-0.512737	0.116630
C200	C	0.606679	-0.587714	0.122452
C201	C	0.604427	-0.539892	0.148742
H202	H	0.572358	-0.600891	0.117773
H203	H	0.626548	-0.611808	0.142364
H204	H	0.622658	-0.582879	0.089377
H205	H	0.588455	-0.544729	0.181818
H206	H	0.584554	-0.515799	0.128835
H207	H	0.661503	-0.801277	0.157745
H208	H	0.457483	-0.191305	0.312673
H209	H	0.816241	-0.191207	0.451483
O210	O	0.058273	-0.317762	0.185857
C211	C	0.022432	-0.347220	0.156287
H212	H	-0.016483	-0.349057	0.177706
H213	H	0.016620	-0.328017	0.116615
C214	C	0.091495	-0.400601	0.122337
C215	C	0.043700	-0.402861	0.148646
H216	H	0.104615	-0.434923	0.117621
H217	H	0.115642	-0.380754	0.142257
H218	H	0.086646	-0.384597	0.089279
H219	H	0.048552	-0.418859	0.181705
H220	H	0.019554	-0.422713	0.128731
O221	O	0.855000	-0.152394	0.698461
C222	C	0.884540	-0.122887	0.734285
H223	H	0.863127	-0.121075	0.773204
H224	H	0.924238	-0.142030	0.740095
C225	C	0.918405	-0.069467	0.665197
C226	C	0.892103	-0.067238	0.712996
H227	H	0.923073	-0.035141	0.652064
H228	H	0.898505	-0.089348	0.641061
H229	H	0.951484	-0.085423	0.670044
H230	H	0.859022	-0.051289	0.708147
H231	H	0.911998	-0.047353	0.737131
H232	H	0.694889	-0.312400	0.953791
H233	H	0.206169	-0.345840	0.157609
O234	O	0.854924	-0.152361	0.806033
C235	C	0.825192	-0.118586	0.837632
H236	H	0.784009	-0.115360	0.821180
H237	H	0.823395	-0.134735	0.879014
C238	C	0.901354	-0.068196	0.858677
C239	C	0.850774	-0.064230	0.838468
H240	H	0.917135	-0.034667	0.859196
H241	H	0.921386	-0.090952	0.837390
H242	H	0.899850	-0.081655	0.893160
H243	H	0.852279	-0.050777	0.803984
H244	H	0.830743	-0.041471	0.859750
H245	H	0.305218	-0.345834	0.157601
O246	O	0.560890	-0.186045	0.317859
C247	C	0.592476	-0.152222	0.288157
H248	H	0.600635	-0.170603	0.248499
H249	H	0.571454	-0.113468	0.282488
C250	C	0.634337	-0.120221	0.365652
C251	C	0.644361	-0.142799	0.316945
H252	H	0.666341	-0.114405	0.383410
H253	H	0.613055	-0.143006	0.385664
H254	H	0.616817	-0.087928	0.360920
H255	H	0.661875	-0.175093	0.321677
H256	H	0.665647	-0.120018	0.296935
H257	H	0.816308	-0.191071	0.953829
O258	O	0.453136	-0.317731	0.185796
C259	C	0.488915	-0.347211	0.156238
H260	H	0.527852	-0.325794	0.154469
H261	H	0.494702	-0.386947	0.175309
C262	C	0.419763	-0.380970	0.102750
C263	C	0.467584	-0.354664	0.100574
H264	H	0.406605	-0.385570	0.068414
H265	H	0.395657	-0.361110	0.122665
H266	H	0.424591	-0.414081	0.118645
H267	H	0.462754	-0.321551	0.084685
H268	H	0.491689	-0.374518	0.080655
H269	H	0.661400	-0.345866	0.801645
O270	O	0.656118	-0.351194	0.698380
C271	C	0.626585	-0.380687	0.734180
H272	H	0.648003	-0.382479	0.773107
H273	H	0.586886	-0.361543	0.739980
C274	C	0.592714	-0.434142	0.665054
C275	C	0.619022	-0.436346	0.712864
H276	H	0.588047	-0.468474	0.651905
H277	H	0.612610	-0.414271	0.640935
H278	H	0.559635	-0.418186	0.669894
H279	H	0.652103	-0.452295	0.708022
H280	H	0.599132	-0.456221	0.736982
H281	H	0.694841	-0.312510	0.550503
O282	O	0.821383	-0.554212	0.317799
C283	C	0.855195	-0.585775	0.288074
H284	H	0.836784	-0.594007	0.248437
H285	H	0.893935	-0.564694	0.282358
C286	C	0.887279	-0.627497	0.365552
C287	C	0.864665	-0.637612	0.316871
H288	H	0.893123	-0.659472	0.383315
H289	H	0.864501	-0.606231	0.385578
H290	H	0.919560	-0.609928	0.360781
H291	H	0.832382	-0.655175	0.321642
H292	H	0.887438	-0.658882	0.296845
H293	H	0.694830	-0.451006	0.191137
O294	O	0.689633	-0.317865	0.447165
C295	C	0.701021	-0.369972	0.460504
H296	H	0.742786	-0.372606	0.475533
H297	H	0.672977	-0.383638	0.492182
C298	C	0.643630	-0.401636	0.393526
C299	C	0.694928	-0.404872	0.411980
H300	H	0.639869	-0.423165	0.363595
H301	H	0.635956	-0.366531	0.384540
H302	H	0.620266	-0.413024	0.419929
H303	H	0.718290	-0.393478	0.385580
H304	H	0.702606	-0.439976	0.420960
H305	H	0.556421	-0.312465	0.191103
