data_functionalizedCrystal
_audit_creation_method	'MofGen! by Chris Wilmer'
_symmetry_space_group_name_H-M	'P1'
_symmetry_Int_Tables_number	1
_symmetry_cell_setting	triclinic
loop_
_symmetry_equiv_pos_as_xyz
  x,y,z
_cell_length_a	17.917603
_cell_length_b	21.606444
_cell_length_c	21.606444
_cell_angle_alpha	60.001331
_cell_angle_beta	90.001745
_cell_angle_gamma	57.010312
loop_
_atom_site_label
_atom_site_type_symbol
_atom_site_fract_x
_atom_site_fract_y
_atom_site_fract_z
Zr1	Zr	0.754895	0.620471	-0.052710
O2	O	0.629762	0.759039	-0.156256
O3	O	0.793256	0.488456	-0.020971
O4	O	0.793246	0.617580	-0.150090
O5	O	0.629778	0.629909	0.074718
O6	O	0.922203	0.607847	-0.145223
O7	O	0.629772	0.629914	-0.027137
O8	O	0.922221	0.376866	0.085747
O9	O	0.629760	0.860890	-0.156252
O10	O	0.905854	0.533064	-0.003799
O11	O	0.809620	0.540325	0.068582
O12	O	0.809608	0.692353	-0.083439
O13	O	0.713373	0.699613	-0.011058
Zr14	Zr	0.960578	0.604939	0.117498
Zr15	Zr	0.960567	0.604947	-0.044948
Zr16	Zr	0.754905	0.620463	0.109736
Zr17	Zr	0.754892	0.782911	-0.052705
Zr18	Zr	0.960580	0.442498	0.117493
O19	O	0.922216	0.736954	0.085759
O20	O	0.922202	0.736965	-0.145219
O21	O	0.629777	0.759028	0.074722
O22	O	1.085710	0.466371	0.221043
O23	O	1.085696	0.466382	-0.009934
O24	O	0.793271	0.488445	0.210006
O25	O	1.085694	0.595501	-0.009930
O26	O	0.922226	0.607829	0.214877
O27	O	0.793269	0.617563	0.210010
O28	O	1.085700	0.595496	0.091925
O29	O	0.793243	0.848550	-0.150082
O30	O	0.922230	0.376860	0.214870
O31	O	1.085712	0.364520	0.221040
O32	O	1.085703	0.364526	0.091917
O33	O	0.629769	0.860883	-0.027129
O34	O	0.793251	0.848544	-0.020959
O35	O	0.905864	0.533057	0.148227
O36	O	1.002099	0.525797	0.075846
O37	O	0.905852	0.685085	-0.003794
O38	O	0.809618	0.692345	0.068587
C39	C	0.857739	0.409517	0.032387
C40	C	0.857740	0.340556	0.032385
C41	C	0.907971	0.304369	-0.005398
C42	C	0.907975	0.239569	-0.005393
C43	C	0.857740	0.210962	0.032391
C44	C	0.807507	0.247152	0.070179
C45	C	0.807510	0.311946	0.070178
C46	C	0.807496	-0.014156	0.070185
C47	C	0.807495	-0.078953	0.070181
C48	C	0.907960	-0.086534	-0.005386
C49	C	0.907963	-0.021740	-0.005387
C50	C	0.857735	0.014441	0.032404
C51	C	0.857733	0.084704	0.032399
C52	C	0.857736	0.140706	0.032392
C53	C	0.600471	0.632123	0.022684
C54	C	0.513158	0.638714	0.019389
C55	C	0.353313	0.650752	0.013371
C56	C	0.362152	0.574661	0.051415
C57	C	0.273209	0.581360	0.048066
C58	C	0.442262	0.644056	0.016719
C59	C	1.115001	0.593286	0.042103
C60	C	1.202314	0.586696	0.045399
C61	C	0.857723	0.612715	-0.170801
C62	C	0.857719	0.612718	-0.239764
C63	C	0.857733	0.815893	0.032400
C64	C	0.857732	0.884853	0.032403
C65	C	0.807478	0.695864	-0.313734
C66	C	0.807487	0.695861	-0.378528
C67	C	0.857730	0.612711	-0.369352
C68	C	0.907977	0.529558	-0.295374
C69	C	0.907973	0.529562	-0.230581
C70	C	0.907992	0.529542	-0.556676
C71	C	0.907989	0.529545	-0.621477
C72	C	0.807505	0.695841	-0.704624
C73	C	0.807502	0.695845	-0.639831
C74	C	0.857752	0.612692	-0.565859
C75	C	0.857744	0.612696	-0.495602
C76	C	0.857733	0.612707	-0.439607
C77	C	0.857749	0.612695	0.235589
C78	C	0.857754	0.612692	0.304552
C79	C	1.115004	0.390098	0.042097
C80	C	1.202318	0.314547	0.045390
C81	C	0.857752	0.409507	0.235582
C82	C	0.857757	0.340543	0.304543
C83	C	1.115017	0.390088	0.245292
C84	C	1.202336	0.314534	0.317548
C85	C	0.600455	0.835321	-0.180504
C86	C	0.513137	0.910875	-0.252760
C87	C	0.600468	0.835312	0.022691
C88	C	0.513154	0.910862	0.019398
C89	C	0.857720	0.815903	-0.170795
C90	C	0.857715	0.884866	-0.239755
C91	C	1.193083	0.282862	0.005356
C92	C	1.275116	0.211883	0.008434
C93	C	1.366384	0.172588	0.051552
C94	C	1.375617	0.204280	0.091588
C95	C	1.293584	0.275261	0.088504
C96	C	0.907998	0.304364	0.378508
C97	C	0.908000	0.239575	0.443310
C98	C	0.857765	0.210961	0.434145
C99	C	0.807518	0.247148	0.360172
C100	C	0.807511	0.311941	0.295371
C101	C	1.293584	0.275263	0.313698
C102	C	1.375637	0.204280	0.381584
C103	C	1.366440	0.172566	0.453319
C104	C	1.275182	0.211845	0.457166
C105	C	1.193131	0.282830	0.389281
C106	C	0.421889	0.950155	-0.248910
C107	C	0.339836	1.021158	-0.316796
C108	C	0.349033	1.052875	-0.388531
C109	C	0.440290	1.013592	-0.392379
C110	C	0.522341	0.942595	-0.324494
C111	C	0.522389	0.942555	0.059425
C112	C	0.440356	1.013551	0.056329
C113	C	0.349089	1.052849	0.013209
C114	C	0.339856	1.021154	-0.026824
C115	C	0.421888	0.950163	-0.023731
C116	C	0.907959	0.913458	-0.230565
C117	C	0.907973	0.978247	-0.295354
C118	C	0.857736	1.014447	-0.369332
C119	C	0.807490	0.985849	-0.378520
C120	C	0.807483	0.921057	-0.313732
H121	H	0.948865	0.001553	-0.036157
H122	H	0.948909	0.461834	-0.496453
H123	H	0.948873	0.327660	-0.036170
Br124	Br	1.069297	0.336116	0.394520
H125	H	0.447767	1.039426	-0.450793
Br126	Br	0.857783	0.123027	0.522097
H127	H	0.948891	0.461856	-0.287906
H128	H	1.449937	0.172275	0.126693
Br129	Br	0.976187	0.343176	0.390968
Br130	Br	0.976165	1.017048	-0.282867
H131	H	0.948920	0.210118	0.503535
H132	H	0.282213	1.110686	-0.443802
H133	H	1.118776	0.314856	-0.029765
Br134	Br	0.739306	1.034995	-0.478925
Br135	Br	0.229372	0.767708	-0.045104
H136	H	0.766558	0.763575	-0.321215
H137	H	0.766578	0.763567	-0.438756
Br138	Br	1.499473	0.150986	0.376344
Br139	Br	0.646175	0.889291	-0.329732
H140	H	0.766618	0.223841	0.352721
H141	H	0.766585	0.763554	-0.647310
Br142	Br	0.237767	1.149194	0.009020
Br143	Br	0.486097	0.457698	0.109879
H144	H	0.766563	0.897785	-0.321225
Br145	Br	0.739307	0.808694	-0.805019
H146	H	1.301117	0.301050	0.121109
H147	H	0.414382	0.924335	-0.190507
Br148	Br	0.739324	0.361031	0.194992
Br149	Br	0.976180	0.416691	-0.609019
Br150	Br	1.306092	0.318292	0.216353
H151	H	1.267708	0.186013	0.515582
Br152	Br	0.976127	0.190478	-0.056690
Br153	Br	0.215999	1.074454	-0.311556
Br154	Br	0.646241	0.889240	0.117949
H155	H	0.447892	1.039345	0.088931
H156	H	0.948884	0.461856	-0.170351
Br157	Br	1.477806	0.076227	0.545443
H158	H	0.948868	0.883993	-0.170335
H159	H	0.265535	1.053161	-0.061931
H160	H	0.414355	0.924362	-0.056325
H161	H	1.267580	0.186089	-0.024168
H162	H	0.948863	-0.116003	-0.036155
H163	H	0.857750	1.067205	-0.422080
Br164	Br	1.477705	0.076255	0.055729
H165	H	0.766586	-0.102243	0.100952
H166	H	0.766601	0.015291	0.100960
H167	H	0.766611	0.223851	0.100948
H168	H	0.766604	0.341412	0.100943
