data_functionalizedCrystal
_audit_creation_method	'MofGen! by Chris Wilmer'
_symmetry_space_group_name_H-M	'P1'
_symmetry_Int_Tables_number	1
_symmetry_cell_setting	triclinic
loop_
_symmetry_equiv_pos_as_xyz
  x,y,z
_cell_length_a	12.594517
_cell_length_b	12.594516
_cell_length_c	12.645323
_cell_angle_alpha	89.976054
_cell_angle_beta	89.987052
_cell_angle_gamma	90.011939
loop_
_atom_site_label
_atom_site_type_symbol
_atom_site_fract_x
_atom_site_fract_y
_atom_site_fract_z
Zn1	Zn	1.627282	-0.423851	-0.599178
Zn2	Zn	1.627169	-0.601854	-0.421921
Zn3	Zn	1.449282	-0.423877	-0.421952
Zn4	Zn	1.449268	-0.601775	-0.599166
O5	O	1.538250	-0.512839	-0.510554
O6	O	1.776213	-0.447485	-0.575656
O7	O	1.603529	-0.578289	-0.273578
O8	O	1.472947	-0.274928	-0.445480
O9	O	1.776129	-0.578263	-0.445426
O10	O	1.603723	-0.274908	-0.575687
O11	O	1.472837	-0.447530	-0.273601
O12	O	1.300334	-0.447453	-0.445469
O13	O	1.472924	-0.578129	-0.747515
O14	O	1.300324	-0.578154	-0.575667
O15	O	1.603710	-0.447408	-0.747524
O16	O	1.603517	-0.750789	-0.445415
O17	O	1.472814	-0.750731	-0.575636
C18	C	1.261709	-0.512799	-0.510570
C19	C	1.143404	-0.512807	-0.510603
C20	C	1.074176	-0.584034	-0.581281
C21	C	1.003368	-0.486990	-0.607350
C22	C	1.003413	-0.609932	-0.484509
C23	C	1.074154	-0.415711	-0.536723
C24	C	1.074205	-0.538719	-0.413837
C25	C	1.003429	-0.441607	-0.439870
C26	C	1.538180	-0.789380	-0.510544
C27	C	1.538248	-0.907685	-0.510575
C28	C	1.467152	-0.976946	-0.581353
C29	C	1.441216	-1.047805	-0.484624
C30	C	1.564281	-1.047625	-0.607320
C31	C	1.512261	-0.976987	-0.413795
C32	C	1.635371	-0.976800	-0.536556
C33	C	1.609472	-1.047628	-0.439761
C34	C	1.815871	-0.512880	-0.510539
C35	C	1.934176	-0.512898	-0.510532
C36	C	1.538329	-0.512757	-0.787060
C37	C	1.538362	-0.512722	-0.904890
C38	C	1.538349	-0.235218	-0.510588
C39	C	1.538391	-0.116913	-0.510602
C40	C	1.455831	-0.594570	-1.072449
C41	C	1.456047	-0.594975	-0.949889
C42	C	1.650513	-0.543171	-0.949391
C43	C	1.650060	-0.543684	-1.071990
C44	C	1.509803	-0.399967	-1.072091
C45	C	1.507301	-0.400642	-0.949485
C46	C	1.538233	-0.512844	-0.235125
C47	C	1.538406	-0.512579	-0.117295
H48	H	1.406921	-0.945909	-0.641120
H49	H	1.569947	-0.338880	-1.101093
N50	N	1.332505	-1.089109	-0.455506
H51	H	1.278794	-1.063403	-0.508998
H52	H	1.333630	-1.169290	-0.455037
N53	N	1.483044	-0.936061	-0.305406
H54	H	1.409978	-0.962520	-0.285633
H55	H	1.536504	-0.962383	-0.251966
N56	N	1.115130	-0.306925	-0.566039
H57	H	1.195321	-0.307569	-0.565914
H58	H	1.088660	-0.287288	-0.638850
N59	N	1.689200	-1.088484	-0.360412
H60	H	1.669455	-1.062649	-0.287409
H61	H	1.689228	-1.168668	-0.361379
H62	H	1.586242	-1.078653	-0.689125
N63	N	0.962261	-0.718681	-0.455301
H64	H	0.918142	-0.713549	-0.388793
H65	H	0.917052	-0.747108	-0.514864
N66	N	0.962135	-0.458001	-0.715698
H67	H	0.988974	-0.385200	-0.735936
H68	H	0.987870	-0.511878	-0.768991
N69	N	1.744051	-0.935444	-0.565690
H70	H	1.798019	-0.962276	-0.513009
H71	H	1.763504	-0.961099	-0.638830
H72	H	1.372420	-0.575698	-1.101936
H73	H	1.372883	-0.575920	-0.919800
N74	N	1.480614	-0.704475	-1.113229
H75	H	1.545095	-0.701383	-1.160631
H76	H	1.495315	-0.753326	-1.051592
N77	N	1.481069	-0.705564	-0.911073
H78	H	1.553187	-0.727803	-0.938078
H79	H	1.481246	-0.706237	-0.831207
H80	H	1.674305	-0.626006	-1.100598
N81	N	1.734332	-0.468037	-1.111298
H82	H	1.771612	-0.434507	-1.048982
H83	H	1.787585	-0.508240	-1.155583
N84	N	0.962539	-0.361790	-0.360650
H85	H	0.988414	-0.288525	-0.380467
H86	H	0.882354	-0.362783	-0.360645
N87	N	1.734201	-0.466566	-0.910805
H88	H	1.700138	-0.411257	-0.863990
H89	H	1.789754	-0.506602	-0.869249
H90	H	1.563050	-0.336324	-0.918853
N91	N	1.683190	-0.651070	-0.908742
H92	H	1.625517	-0.680382	-0.861512
H93	H	1.694671	-0.700657	-0.970439
N94	N	1.403359	-0.363193	-1.113027
H95	H	1.405597	-0.358912	-1.192755
H96	H	1.346644	-0.415266	-1.090643
N97	N	1.115326	-0.663678	-0.660542
H98	H	1.089555	-0.643996	-0.733593
H99	H	1.195508	-0.663530	-0.659444
N100	N	1.115444	-0.567730	-0.305505
H101	H	1.089754	-0.641113	-0.285881
H102	H	1.195625	-0.566731	-0.306238
H103	H	1.424767	-0.377680	-0.920399
