data_functionalizedCrystal
_audit_creation_method	'MofGen! by Chris Wilmer'
_symmetry_space_group_name_H-M	'P1'
_symmetry_Int_Tables_number	1
_symmetry_cell_setting	triclinic
loop_
_symmetry_equiv_pos_as_xyz
  x,y,z
_cell_length_a	14.971486
_cell_length_b	10.654556
_cell_length_c	9.130313
_cell_angle_alpha	89.998135
_cell_angle_beta	90.004728
_cell_angle_gamma	95.949167
loop_
_atom_site_label
_atom_site_type_symbol
_atom_site_fract_x
_atom_site_fract_y
_atom_site_fract_z
O1	O	0.125658	-1.666487	0.121745
O2	O	0.137622	-1.300881	0.121760
O3	O	0.001493	-1.493483	0.121742
O4	O	0.261786	-1.473885	0.121763
O5	O	0.001489	-1.493470	-0.121857
O6	O	0.137618	-1.300868	-0.121839
O7	O	0.125654	-1.666474	-0.121854
Cu8	Cu	0.131635	-1.483670	-0.144089
Cu9	Cu	0.131640	-1.483685	0.143995
O10	O	0.261782	-1.473872	-0.121836
C11	C	-0.031838	-1.492600	-0.000057
C12	C	-0.131150	-1.489973	-0.000056
C13	C	0.136740	-1.254086	-0.000038
C14	C	0.134108	-1.114671	-0.000032
C15	C	0.126536	-1.713269	-0.000053
C16	C	0.129167	-1.852683	-0.000049
C17	C	-0.187757	-1.603122	-0.000062
C18	C	-0.281070	-1.600647	-0.000047
C19	C	-0.317774	-1.485021	-0.000037
C20	C	-0.261159	-1.371864	-0.000027
C21	C	-0.167848	-1.374341	-0.000031
C22	C	-0.455649	-1.366710	-0.000021
C23	C	-0.548967	-1.364233	-0.000019
C24	C	-0.568872	-1.593016	-0.000037
C25	C	-0.475561	-1.595492	-0.000041
C26	C	-0.418952	-1.482335	-0.000034
C27	C	0.295114	-1.474755	-0.000033
C28	C	0.394425	-1.477381	-0.000025
C29	C	0.130405	-0.918173	0.132742
C30	C	0.132872	-1.049169	0.132751
C31	C	0.132868	-1.049173	-0.132833
C32	C	0.130394	-0.918181	-0.132841
N33	N	0.131632	-1.483668	-0.346712
C34	C	0.071380	-1.568981	-0.423372
C35	C	0.071380	-1.568993	-0.576708
C36	C	0.191892	-1.398375	-0.576712
C37	C	0.191887	-1.398358	-0.423378
N38	N	0.131637	-1.483697	0.346618
H39	H	-0.327157	-1.692784	-0.000055
H40	H	0.022316	-1.638460	-0.639121
C41	C	0.058900	-1.210466	0.286839
C42	C	0.134236	-1.121154	0.278721
H43	H	0.059740	-1.254899	0.376963
H44	H	0.059992	-1.268218	0.207771
H45	H	0.005874	-1.168845	0.281312
H46	H	0.187262	-1.162776	0.284237
H47	H	0.133151	-1.063394	0.357810
H48	H	0.133868	-1.102517	-0.240948
H49	H	-0.291050	-1.277720	-0.000009
H50	H	0.240952	-1.328919	-0.639149
C51	C	-0.053560	-1.708508	-0.000086
C52	C	-0.147417	-1.730222	-0.000076
H53	H	-0.028659	-1.786978	-0.000100
H54	H	-0.034176	-1.661927	0.084858
H55	H	-0.034191	-1.661908	-0.085039
H56	H	-0.166785	-1.776814	0.084884
H57	H	-0.166808	-1.776823	-0.085028
H58	H	0.240951	-1.328880	-0.360957
H59	H	0.129386	-0.864858	-0.240982
H60	H	-0.614968	-1.685153	-0.000038
H61	H	-0.445680	-1.689644	-0.000060
H62	H	0.022315	-1.638443	-0.360954
H63	H	-0.578847	-1.270081	-0.000035
H64	H	-0.409560	-1.274565	-0.000011
H65	H	-0.121758	-1.282204	-0.000026
C66	C	0.130652	-0.931332	0.395260
C67	C	0.129048	-0.846178	0.278705
H68	H	0.129807	-0.886887	0.485372
H69	H	0.183680	-0.972924	0.389745
H70	H	0.079544	-0.991924	0.389720
H71	H	0.180159	-0.785591	0.284239
H72	H	0.076013	-0.804566	0.284222
