data_functionalizedCrystal
_audit_creation_method	'MofGen! by Chris Wilmer'
_symmetry_space_group_name_H-M	'P1'
_symmetry_Int_Tables_number	1
_symmetry_cell_setting	triclinic
loop_
_symmetry_equiv_pos_as_xyz
  x,y,z
_cell_length_a	8.497374
_cell_length_b	8.497374
_cell_length_c	29.839134
_cell_angle_alpha	90.004043
_cell_angle_beta	90.013285
_cell_angle_gamma	90.005237
loop_
_atom_site_label
_atom_site_type_symbol
_atom_site_fract_x
_atom_site_fract_y
_atom_site_fract_z
Zn1	Zn	0.892593	0.628546	0.686807
Zn2	Zn	0.628859	0.892291	0.686803
Zn3	Zn	0.628767	0.628496	0.611701
Zn4	Zn	0.892537	0.892254	0.611690
O5	O	0.760689	0.760397	0.649251
O6	O	0.857670	0.663569	0.749674
O7	O	0.408084	0.857293	0.676844
O8	O	0.663749	0.407740	0.621670
O9	O	0.663905	0.857342	0.749671
O10	O	0.857581	0.407777	0.676850
O11	O	0.408017	0.663483	0.621667
O12	O	0.663695	0.663447	0.548833
O13	O	1.113307	0.857278	0.621652
O14	O	0.857485	0.857229	0.548825
O15	O	1.113348	0.663533	0.676840
O16	O	0.663851	1.113049	0.676834
O17	O	0.857574	1.113021	0.621648
C18	C	0.760575	0.760330	0.532528
C19	C	0.760564	0.760339	0.482594
C20	C	1.172169	0.760399	0.649247
C21	C	1.350813	0.760416	0.649248
C22	C	0.760712	1.170276	0.649245
C23	C	0.760686	1.348921	0.649257
C24	C	0.861472	0.861448	0.172956
C25	C	0.861542	0.861493	-0.014718
O26	O	0.947271	0.947385	-0.038978
N27	N	0.760808	0.760455	-0.038192
C28	C	0.660056	0.659391	-0.014744
O29	O	0.574388	0.573441	-0.039017
C30	C	0.659995	0.659340	0.172928
C31	C	0.760724	0.760396	0.196399
C32	C	0.962195	0.962495	0.196427
C33	C	0.962170	0.962489	0.243343
C34	C	0.861423	0.861436	0.266786
C35	C	0.760700	0.760390	0.243315
C36	C	0.559252	0.558269	0.196374
C37	C	0.559248	0.558262	0.243295
C38	C	0.659978	0.659318	0.266767
C39	C	0.659928	0.659331	0.313674
N40	N	0.760662	0.760369	0.337148
C41	C	0.861410	0.861422	0.313704
C42	C	0.660093	0.659427	-0.113275
C43	C	0.660106	0.659442	-0.160193
C44	C	0.861595	0.861542	-0.160163
C45	C	0.861572	0.861534	-0.113244
C46	C	0.760827	0.760465	-0.089801
C47	C	0.861349	0.861402	0.412230
C48	C	0.861311	0.861392	0.459150
C49	C	0.659829	0.659286	0.459115
C50	C	0.659860	0.659302	0.412200
C51	C	0.760634	0.760365	0.388758
O52	O	0.574257	0.573471	0.337963
O53	O	0.947089	0.947334	0.337985
C54	C	0.861497	0.861454	0.126040
C55	C	0.760774	0.760408	0.102568
C56	C	0.660026	0.659355	0.126012
C57	C	0.760787	0.760422	0.055651
C58	C	0.861534	0.861475	0.032207
C59	C	0.962269	0.962513	0.055681
C60	C	0.962244	0.962507	0.102596
C61	C	0.559292	0.558317	0.102538
C62	C	0.559323	0.558333	0.055623
C63	C	0.660071	0.659385	0.032179
C64	C	0.760804	0.760465	0.766429
C65	C	0.760853	0.760494	0.816363
H66	H	0.943339	0.943690	0.478258
Br67	Br	0.998332	0.998675	-0.191988
H68	H	0.943598	0.943821	-0.094137
H69	H	1.044198	1.044776	0.262449
H70	H	0.477283	0.476042	0.036516
H71	H	0.477249	0.476026	0.121621
Br72	Br	0.523370	0.522314	-0.192041
Br73	Br	0.998114	0.998559	0.380424
H74	H	1.044244	1.044785	0.177344
Br75	Br	1.098986	1.099665	0.023855
Br76	Br	0.523356	0.522245	-0.081466
H77	H	0.477222	0.475982	0.177271
Br78	Br	1.098955	1.099663	0.134443
H79	H	0.477217	0.475948	0.262380
H80	H	0.577798	0.577017	0.478212
H81	H	0.577835	0.577017	0.393088
