data_functionalizedCrystal
_audit_creation_method	'MofGen! by Chris Wilmer'
_symmetry_space_group_name_H-M	'P1'
_symmetry_Int_Tables_number	1
_symmetry_cell_setting	triclinic
loop_
_symmetry_equiv_pos_as_xyz
  x,y,z
_cell_length_a	21.395364
_cell_length_b	21.395361
_cell_length_c	21.395356
_cell_angle_alpha	90.030681
_cell_angle_beta	90.024640
_cell_angle_gamma	90.028209
loop_
_atom_site_label
_atom_site_type_symbol
_atom_site_fract_x
_atom_site_fract_y
_atom_site_fract_z
Zn1	Zn	-0.957853	0.249496	-0.354266
Zn2	Zn	-0.957757	0.354273	-0.249483
Zn3	Zn	-0.853070	0.249508	-0.249501
Zn4	Zn	-0.853037	0.354235	-0.354221
O5	O	-0.905429	0.301878	-0.301868
O6	O	-1.045518	0.263406	-0.340377
O7	O	-0.943844	0.340396	-0.161807
O8	O	-0.867023	0.161829	-0.263424
O9	O	-1.045448	0.340384	-0.263394
O10	O	-0.944007	0.161820	-0.340395
O11	O	-0.866930	0.263427	-0.161820
O12	O	-0.765388	0.263390	-0.263381
O13	O	-0.866968	0.340321	-0.441905
O14	O	-0.765364	0.340333	-0.340319
O15	O	-0.943975	0.263369	-0.441938
O16	O	-0.943812	0.441946	-0.263351
O17	O	-0.866875	0.441918	-0.340301
C18	C	-0.742642	0.301859	-0.301847
C19	C	-0.673001	0.301866	-0.301853
C20	C	-0.171208	0.342005	-0.341879
C21	C	-0.236644	0.342006	-0.341874
C22	C	-0.269362	0.301883	-0.301878
C23	C	-0.236640	0.261767	-0.261873
C24	C	-0.171206	0.261771	-0.261876
C25	C	-0.373051	0.245420	-0.297031
C26	C	-0.438484	0.245414	-0.297033
C27	C	-0.471183	0.301869	-0.301867
C28	C	-0.438441	0.358331	-0.306712
C29	C	-0.373007	0.358336	-0.306714
C30	C	-0.340315	0.301874	-0.301871
C31	C	-0.574850	0.341987	-0.341860
C32	C	-0.640287	0.341989	-0.341850
C33	C	-0.640281	0.261744	-0.261853
C34	C	-0.574846	0.261748	-0.261860
C35	C	-0.542134	0.301868	-0.301867
C36	C	-0.905347	0.464666	-0.301833
C37	C	-0.905369	0.534307	-0.301839
C38	C	-0.068853	0.301894	-0.301885
C39	C	-0.138494	0.301892	-0.301882
C40	C	-0.905479	0.301839	-0.465291
C41	C	-0.905500	0.301823	-0.534932
C42	C	-0.905529	0.138455	-0.301916
C43	C	-0.905572	0.068814	-0.301937
C44	C	-0.945465	0.567014	-0.261812
C45	C	-0.945495	0.632449	-0.261826
C46	C	-0.905416	0.665175	-0.301860
C47	C	-0.865316	0.632461	-0.341895
C48	C	-0.865293	0.567027	-0.341885
C49	C	-0.849001	0.768887	-0.306769
C50	C	-0.849023	0.834320	-0.306776
C51	C	-0.905489	0.866996	-0.301897
C52	C	-0.961933	0.834231	-0.296999
C53	C	-0.961910	0.768797	-0.296988
C54	C	-0.905437	0.736128	-0.301877
C55	C	-0.945620	0.970655	-0.261883
C56	C	-0.945651	1.036092	-0.261901
C57	C	-0.865467	1.036102	-0.341968
C58	C	-0.865442	0.970667	-0.341953
C59	C	-0.905518	0.937947	-0.301907
C60	C	-0.865462	0.261740	-0.567642
C61	C	-0.865459	0.261728	-0.633078
C62	C	-0.905507	0.301793	-0.665801
C63	C	-0.945548	0.341884	-0.633083
C64	C	-0.945544	0.341898	-0.567649
C65	C	-0.961959	0.306721	-0.769488
C66	C	-0.961963	0.306702	-0.834921
C67	C	-0.905517	0.301751	-0.867622
C68	C	-0.849065	0.296805	-0.834881
C69	C	-0.849061	0.296820	-0.769447
C70	C	-0.905515	0.301782	-0.736753
C71	C	-0.865473	0.261653	-0.971284
C72	C	-0.865470	0.261646	-1.036721
C73	C	-0.945564	0.341798	-1.036725
C74	C	-0.945561	0.341808	-0.971289
C75	C	-0.905517	0.301733	-0.938573
C76	C	-0.905416	0.301872	-0.139080
C77	C	-0.905517	0.301712	-0.069439
H78	H	-0.263283	0.229099	-0.229307
N79	N	-1.022780	0.733451	-0.291714
H80	H	-1.044131	0.744844	-0.251188
H81	H	-1.050757	0.744800	-0.328003
N82	N	-0.988752	0.385031	-0.935999
H83	H	-0.963269	0.414068	-0.908832
H84	H	-1.014116	0.410370	-0.966692
N85	N	-0.135929	0.385286	-0.385019
H86	H	-0.089511	0.379204	-0.378952
H87	H	-0.147390	0.375590	-0.429784
H88	H	-0.978255	0.944014	-0.229277
H89	H	-0.978172	0.374418	-1.063367
H90	H	-0.832857	0.229085	-0.659716
H91	H	-1.007930	0.310726	-0.861573
H92	H	-0.978151	0.374538	-0.541016
H93	H	-1.007913	0.860834	-0.293027
H94	H	-0.263285	0.374671	-0.374446
N95	N	-0.675555	0.218458	-0.218717
H96	H	-0.664142	0.228130	-0.173933
H97	H	-0.721962	0.224557	-0.224835
H98	H	-0.465138	0.199439	-0.293095
H99	H	-0.978099	0.540375	-0.229206
N100	N	-0.788180	0.291480	-0.734133
H101	H	-0.752420	0.288337	-0.764773
H102	H	-0.782334	0.329657	-0.706967
H103	H	-0.144570	0.229105	-0.229305
N104	N	-0.539569	0.385267	-0.385003
H105	H	-0.512394	0.414269	-0.359488
H106	H	-0.512483	0.359801	-0.414081
H107	H	-0.548210	0.229081	-0.229292
N108	N	-0.822183	0.935388	-0.385116
H109	H	-0.828249	0.888970	-0.379034
H110	H	-0.831914	0.946784	-0.429875
H111	H	-0.978148	0.659084	-0.229231
N112	N	-0.988903	1.071372	-0.218730
H113	H	-1.014285	1.040712	-0.193361
H114	H	-0.963422	1.098565	-0.189719
N115	N	-0.788097	0.733642	-0.312024
H116	H	-0.788908	0.706464	-0.350628
H117	H	-0.752376	0.764362	-0.315094
H118	H	-1.007928	0.310748	-0.742868
H119	H	-0.832685	0.659111	-0.374493
N120	N	-0.675575	0.385261	-0.384986
H121	H	-0.644920	0.410676	-0.410329
H122	H	-0.702752	0.359793	-0.414024
N123	N	-0.822273	0.218510	-0.532365
H124	H	-0.777500	0.228228	-0.543734
H125	H	-0.828394	0.224613	-0.485959
N126	N	-0.788174	0.291498	-0.870140
H127	H	-0.796738	0.292254	-0.916560
H128	H	-0.760165	0.327744	-0.858663
H129	H	-0.346433	0.199445	-0.293084
N130	N	-0.988737	0.385102	-0.668372
H131	H	-0.982664	0.379010	-0.714788
H132	H	-1.033491	0.375363	-0.656955
H133	H	-0.832836	1.062747	-0.374568
N134	N	-0.788147	0.869657	-0.312049
H135	H	-0.752374	0.839030	-0.315144
H136	H	-0.789038	0.896782	-0.350657
N137	N	-0.473694	0.419231	-0.311919
H138	H	-0.462318	0.440604	-0.352430
H139	H	-0.520103	0.410619	-0.311151
H140	H	-0.832640	0.540396	-0.374480
H141	H	-0.832866	0.229022	-0.944645
N142	N	-0.822278	0.218413	-1.071999
H143	H	-0.832042	0.173650	-1.060631
H144	H	-0.828371	0.224537	-1.118405
N145	N	-0.337691	0.419229	-0.311934
H146	H	-0.368329	0.454995	-0.314995
H147	H	-0.310523	0.424995	-0.273747
