data_functionalizedCrystal
_audit_creation_method	'MofGen! by Chris Wilmer'
_symmetry_space_group_name_H-M	'P1'
_symmetry_Int_Tables_number	1
_symmetry_cell_setting	triclinic
loop_
_symmetry_equiv_pos_as_xyz
  x,y,z
_cell_length_a	16.992694
_cell_length_b	19.288865
_cell_length_c	17.766277
_cell_angle_alpha	90.011603
_cell_angle_beta	90.003596
_cell_angle_gamma	86.902236
loop_
_atom_site_label
_atom_site_type_symbol
_atom_site_fract_x
_atom_site_fract_y
_atom_site_fract_z
O1	O	-1.039877	-0.147253	-0.062515
O2	O	-0.811597	-0.145638	-0.062537
O3	O	-0.932333	-0.045700	-0.062510
O4	O	-0.919141	-0.247191	-0.062541
O5	O	-0.932312	-0.045693	0.062678
O6	O	-0.811576	-0.145631	0.062652
O7	O	-1.039855	-0.147247	0.062674
Cu8	Cu	-0.925714	-0.146438	0.074094
Cu9	Cu	-0.925739	-0.146446	-0.073956
O10	O	-0.919119	-0.247185	0.062647
C11	C	-0.931898	-0.019795	0.000086
C12	C	-0.930624	0.057383	0.000093
C13	C	-0.782381	-0.143556	0.000055
C14	C	-0.695359	-0.137355	0.000047
C15	C	-1.069071	-0.149328	0.000080
C16	C	-1.156093	-0.155529	0.000083
C17	C	-0.644907	-0.197184	0.000039
C18	C	-0.563141	-0.191353	0.000050
C19	C	-0.531829	-0.125694	0.000064
C20	C	-0.582287	-0.065862	0.000075
C21	C	-0.664051	-0.071693	0.000069
C22	C	-0.288316	-0.101527	0.000088
C23	C	-0.206545	-0.095701	0.000092
C24	C	-0.187405	-0.221193	0.000068
C25	C	-0.269172	-0.227018	0.000057
C26	C	-0.319623	-0.167186	0.000072
N27	N	-0.448251	-0.119733	0.000074
N28	N	-0.403199	-0.173147	0.000069
C29	C	-0.919555	-0.273089	0.000049
C30	C	-0.920829	-0.350267	0.000038
N31	N	-0.925702	-0.146433	0.178224
C32	C	-1.001466	0.097950	0.000103
C33	C	-1.000269	0.170467	0.000091
C34	C	-0.928225	0.202413	0.000084
C35	C	-0.857374	0.161837	0.000069
C36	C	-0.858573	0.089321	0.000074
C37	C	-0.871583	0.314004	0.043929
C38	C	-0.870387	0.386518	0.043929
C39	C	-0.924524	0.426075	0.000067
C40	C	-0.979870	0.393109	-0.043787
C41	C	-0.981069	0.320594	-0.043782
C42	C	-0.926917	0.281044	0.000079
C43	C	-0.994073	0.545274	0.000063
C44	C	-0.992873	0.617792	0.000046
C45	C	-0.849976	0.609160	0.000032
C46	C	-0.851178	0.536643	0.000041
C47	C	-0.923229	0.504705	0.000060
N48	N	-0.925757	-0.146447	-0.178087
C49	C	-0.979181	-0.102204	0.217622
C50	C	-0.979185	-0.102201	0.296424
C51	C	-0.925718	-0.146439	0.335824
C52	C	-0.872229	-0.190671	0.296416
C53	C	-0.872221	-0.190667	0.217616
C54	C	-0.915223	-0.209115	0.460652
C55	C	-0.915237	-0.209120	0.539451
C56	C	-0.925739	-0.146449	0.578871
C57	C	-0.936244	-0.083771	0.539482
C58	C	-0.936236	-0.083768	0.460682
C59	C	-0.925721	-0.146447	0.421270
C60	C	-0.979226	-0.102213	0.703715
C61	C	-0.979225	-0.102209	0.782519
C62	C	-0.872273	-0.190685	0.782509
C63	C	-0.872270	-0.190683	0.703707
C64	C	-0.925751	-0.146448	0.664315
H65	H	-0.670395	-0.250650	0.000026
H66	H	-1.026132	0.293756	-0.079490
H67	H	-0.146320	-0.269905	0.000057
H68	H	-1.022736	-0.066184	0.328509
H69	H	-0.828725	-0.226701	0.671627
H70	H	-0.522066	-0.240072	0.000042
H71	H	-1.057959	0.203504	0.000097
H72	H	-0.944788	-0.032734	0.428615
H73	H	-0.944796	-0.032739	0.571576
H74	H	-0.793490	0.503612	0.000037
O75	O	-0.820260	-0.233547	0.334770
C76	C	-0.713130	-0.242330	0.423721
C77	C	-0.771958	-0.193697	0.380347
H78	H	-0.674052	-0.210130	0.460569
H79	H	-0.746812	-0.278910	0.460648
H80	H	-0.674939	-0.273959	0.382009
H81	H	-0.810165	-0.162023	0.422005
H82	H	-0.738229	-0.157163	0.343410
O83	O	-0.819097	0.275515	0.086588
C84	C	-0.800545	0.192503	0.187225
C85	C	-0.860071	0.236037	0.138960
H86	H	-0.833649	0.160585	0.229590
H87	H	-0.763133	0.156204	0.149319
H88	H	-0.760777	0.228534	0.218533
H89	H	-0.899891	0.200059	0.107646
H90	H	-0.897428	0.272343	0.176905
H91	H	-1.023953	0.425315	-0.079504
O92	O	-0.779943	0.640105	0.000124
C93	C	-0.657453	0.654969	0.064985
C94	C	-0.736731	0.619862	0.064971
H95	H	-0.622501	0.638627	0.117416
H96	H	-0.622412	0.638553	0.012627
H97	H	-0.668785	0.713764	0.064945
H98	H	-0.725471	0.561062	0.065038
H99	H	-0.771747	0.636334	0.117325
H100	H	-0.705129	-0.022974	0.000076
H101	H	-0.294660	-0.280485	0.000037
O102	O	-0.904990	-0.270060	0.577593
C103	C	-0.884190	-0.394390	0.569244
C104	C	-0.895768	-0.325423	0.525957
H105	H	-0.876747	-0.439171	0.527516
H106	H	-0.829390	-0.393059	0.606127
H107	H	-0.937924	-0.402000	0.606144
H108	H	-0.842078	-0.317770	0.489017
H109	H	-0.950599	-0.326786	0.489122
O110	O	-0.816554	0.418426	0.086545
C111	C	-0.708113	0.404235	0.173576
C112	C	-0.769026	0.368013	0.125333
H113	H	-0.669681	0.363494	0.204961
H114	H	-0.669520	0.435863	0.135650
H115	H	-0.740086	0.440177	0.215873
H116	H	-0.737117	0.332038	0.083031
H117	H	-0.807616	0.336429	0.163306
H118	H	-0.556786	-0.012400	0.000098
O119	O	-0.176258	-0.031862	0.000139
C120	C	-0.203866	0.091995	0.000115
C121	C	-0.238272	0.019747	0.000084
H122	H	-0.253987	0.133740	0.000054
H123	H	-0.166087	0.097907	0.052518
H124	H	-0.166041	0.097820	-0.052265
H125	H	-0.276131	0.013872	0.052428
H126	H	-0.276006	0.013867	-0.052354
O127	O	-0.337394	-0.043456	-0.000007
C128	C	-0.440775	0.022818	-0.064886
C129	C	-0.385250	-0.042987	-0.064860
H130	H	-0.479469	0.023226	-0.117323
H131	H	-0.479588	0.023243	-0.012533
H132	H	-0.404326	0.070733	-0.064843
H133	H	-0.421636	-0.090937	-0.064930
H134	H	-0.346433	-0.043351	-0.117209
H135	H	-1.060135	0.071951	0.000116
H136	H	-0.906658	-0.260152	0.428563
H137	H	-0.828671	-0.226684	0.185537
H138	H	-1.050564	0.650821	0.000051
O139	O	-1.064128	0.514355	0.000035
C140	C	-1.205733	0.530568	0.000078
C141	C	-1.126453	0.565670	0.000096
H142	H	-1.256143	0.572041	0.000144
H143	H	-1.209923	0.496844	-0.052323
H144	H	-1.209822	0.496825	0.052460
H145	H	-1.122311	0.599448	-0.052249
H146	H	-1.122296	0.599353	0.052532
O147	O	-0.787440	0.192946	-0.000037
C148	C	-0.703150	0.269764	-0.064930
C149	C	-0.782388	0.234592	-0.064889
H150	H	-0.699032	0.303432	-0.117365
H151	H	-0.698993	0.303555	-0.012576
H152	H	-0.652733	0.228298	-0.064900
H153	H	-0.832850	0.276012	-0.064946
H154	H	-0.786475	0.200787	-0.117239
H155	H	-0.800883	0.056291	0.000065
O156	O	-1.031155	-0.059165	0.179475
C157	C	-1.137268	0.028557	0.187805
C158	C	-1.078441	-0.020138	0.231102
H159	H	-1.175526	0.060113	0.229526
H160	H	-1.103586	0.065196	0.150950
H161	H	-1.176281	-0.003628	0.150875
H162	H	-1.039413	0.011991	0.268073
H163	H	-1.112172	-0.056779	0.267908
H164	H	-1.022771	-0.066192	0.671641
H165	H	-1.022772	-0.066189	0.814598
H166	H	-0.828736	-0.226701	0.814588
