data_functionalizedCrystal
_audit_creation_method	'MofGen! by Chris Wilmer'
_symmetry_space_group_name_H-M	'P1'
_symmetry_Int_Tables_number	1
_symmetry_cell_setting	triclinic
loop_
_symmetry_equiv_pos_as_xyz
  x,y,z
_cell_length_a	16.109301
_cell_length_b	7.540329
_cell_length_c	16.109311
_cell_angle_alpha	89.995101
_cell_angle_beta	83.463594
_cell_angle_gamma	89.999760
loop_
_atom_site_label
_atom_site_type_symbol
_atom_site_fract_x
_atom_site_fract_y
_atom_site_fract_z
O1	O	1.103134	-0.147375	0.106865
O2	O	1.603134	0.352625	0.606865
O3	O	0.861073	-0.147404	0.120165
O4	O	1.361073	0.352596	0.620165
O5	O	0.988749	-0.147372	-0.007515
O6	O	1.488749	0.352628	0.492485
O7	O	0.975458	-0.147408	0.234545
O8	O	1.475458	0.352592	0.734545
O9	O	0.988741	0.147593	-0.007517
O10	O	1.488741	0.647593	0.492483
O11	O	0.861065	0.147561	0.120163
O12	O	1.361065	0.647561	0.620163
O13	O	1.103127	0.147590	0.106864
O14	O	1.603127	0.647590	0.606864
Cu15	Cu	0.982095	0.174508	0.113513
Cu16	Cu	1.482095	0.674508	0.613513
Cu17	Cu	0.982104	-0.174323	0.113515
Cu18	Cu	1.482104	0.325677	0.613515
O19	O	0.975451	0.147557	0.234544
O20	O	1.475451	0.647557	0.734544
C21	C	0.830094	0.000075	0.119625
C22	C	1.330094	0.500075	0.619625
C23	C	0.737799	0.000064	0.118010
C24	C	1.237799	0.500064	0.618010
N25	N	0.982095	0.419856	0.113512
N26	N	1.482095	0.919856	0.613512
C27	C	0.988205	0.000112	-0.038491
C28	C	1.488205	0.500112	0.461509
C29	C	0.986586	0.000114	-0.130786
C30	C	1.486586	0.500114	0.369214
C31	C	0.515529	0.000074	0.190017
C32	C	1.015529	0.500074	0.690017
C33	C	0.428808	0.000086	0.188493
C34	C	0.928808	0.500086	0.688493
C35	C	0.448677	0.000101	0.037005
C36	C	0.948677	0.500101	0.537005
C37	C	0.535396	0.000102	0.038530
C38	C	1.035396	0.500102	0.538530
C39	C	0.568819	0.000080	0.115039
C40	C	1.068819	0.500080	0.615039
C41	C	0.395380	0.000090	0.111990
C42	C	0.895380	0.500090	0.611990
C43	C	0.301354	0.000103	0.110337
C44	C	0.801354	0.500103	0.610337
C45	C	0.662851	0.000070	0.116692
C46	C	1.162851	0.500070	0.616692
C47	C	1.134105	0.000107	0.107403
C48	C	1.634105	0.500107	0.607403
C49	C	1.226401	0.000105	0.109018
C50	C	1.726401	0.500105	0.609018
N51	N	0.982111	-0.419671	0.113510
N52	N	1.482111	0.080329	0.613510
C53	C	0.975994	0.000070	0.265519
C54	C	1.475994	0.500070	0.765519
C55	C	0.977613	0.000056	0.357814
C56	C	1.477613	0.500056	0.857814
C57	C	0.982870	-0.160697	0.656887
C58	C	1.482870	0.339303	1.156887
C59	C	0.981347	-0.160708	0.570166
C60	C	1.481347	0.339292	1.070166
C61	C	0.981326	0.160879	0.570148
C62	C	1.481326	0.660879	1.070148
C63	C	0.982844	0.160888	0.656868
C64	C	1.482844	0.660888	1.156868
C65	C	0.983620	0.000095	0.700234
C66	C	1.483620	0.500095	1.200234
C67	C	0.980579	0.000075	0.526794
C68	C	1.480579	0.500075	1.026794
C69	C	0.978926	0.000064	0.432768
C70	C	1.478926	0.500064	0.932768
C71	C	0.985271	0.000105	0.794267
C72	C	1.485271	0.500105	1.294267
H73	H	0.542739	0.000069	0.252315
H74	H	1.042739	0.500069	0.752315
H75	H	0.421453	0.000130	-0.025285
H76	H	0.921453	0.500130	0.474715
H77	H	0.578788	0.000112	-0.022530
H78	H	1.078788	0.500112	0.477470
H79	H	0.983500	-0.291625	0.692193
H80	H	1.483500	0.208375	1.192193
H81	H	0.980734	-0.291641	0.534876
H82	H	1.480734	0.208359	1.034876
H83	H	0.980696	0.291791	0.534829
H84	H	1.480696	0.791791	1.034829
H85	H	0.385422	0.000085	0.249549
H86	H	0.885422	0.500085	0.749549
H87	H	0.983450	0.291833	0.692163
H88	H	1.483450	0.791833	1.192163
