data_functionalizedCrystal
_audit_creation_method	'MofGen! by Chris Wilmer'
_symmetry_space_group_name_H-M	'P1'
_symmetry_Int_Tables_number	1
_symmetry_cell_setting	triclinic
loop_
_symmetry_equiv_pos_as_xyz
  x,y,z
_cell_length_a	19.077105
_cell_length_b	12.645330
_cell_length_c	19.076919
_cell_angle_alpha	92.276250
_cell_angle_beta	90.076224
_cell_angle_gamma	87.714233
loop_
_atom_site_label
_atom_site_type_symbol
_atom_site_fract_x
_atom_site_fract_y
_atom_site_fract_z
Zn1	Zn	1.058309	-0.512860	-0.440444
Zn2	Zn	1.558309	-0.012860	0.059556
Zn3	Zn	1.062962	-0.683311	-0.322946
Zn4	Zn	1.562962	-0.183311	0.177054
Zn5	Zn	0.945526	-0.498659	-0.318237
Zn6	Zn	1.445526	0.001341	0.181763
Zn7	Zn	0.940784	-0.682672	-0.435699
Zn8	Zn	1.440784	-0.182672	0.064301
O9	O	1.001896	-0.594376	-0.379332
O10	O	1.501896	-0.094376	0.120668
O11	O	1.157259	-0.541682	-0.428815
O12	O	1.657259	-0.041682	0.071185
O13	O	1.051316	-0.653141	-0.223990
O14	O	1.551316	-0.153141	0.276010
O15	O	0.960524	-0.352199	-0.334463
O16	O	1.460524	0.147801	0.165537
O17	O	1.160677	-0.666911	-0.342490
O18	O	1.660677	-0.166911	0.157510
O19	O	1.043386	-0.362632	-0.424248
O20	O	1.543386	0.137368	0.075752
O21	O	0.965036	-0.517478	-0.220530
O22	O	1.465036	-0.017478	0.279470
O23	O	0.846565	-0.516858	-0.329862
O24	O	1.346565	-0.016858	0.170138
O25	O	0.952442	-0.665822	-0.534660
O26	O	1.452442	-0.165822	-0.034660
O27	O	0.843081	-0.652051	-0.416161
O28	O	1.343081	-0.152051	0.083839
O29	O	1.038788	-0.541062	-0.538146
O30	O	1.538788	-0.041062	-0.038146
O31	O	1.046718	-0.831570	-0.337888
O32	O	1.546718	-0.331570	0.162112
O33	O	0.956954	-0.831101	-0.420727
O34	O	1.456954	-0.331101	0.079273
C35	C	0.819326	-0.582845	-0.371986
C36	C	1.319326	-0.082845	0.128014
C37	C	0.741222	-0.577939	-0.368860
C38	C	1.241222	-0.077939	0.131140
C39	C	0.702735	-0.646120	-0.412251
C40	C	1.202735	-0.146120	0.087749
C41	C	0.629348	-0.641496	-0.409318
C42	C	1.129348	-0.141496	0.090682
C43	C	0.594448	-0.568695	-0.362988
C44	C	1.094448	-0.068695	0.137012
C45	C	0.632940	-0.500507	-0.319594
C46	C	1.132940	-0.000507	0.180406
C47	C	0.706326	-0.505126	-0.322532
C48	C	1.206326	-0.005126	0.177468
C49	C	0.375159	-0.547316	-0.349394
C50	C	0.875159	-0.047316	0.150606
C51	C	0.301768	-0.542704	-0.346458
C52	C	0.801768	-0.042704	0.153542
C53	C	0.298181	-0.683692	-0.436183
C54	C	0.798181	-0.183692	0.063817
C55	C	0.371569	-0.688309	-0.439113
C56	C	0.871569	-0.188309	0.060887
C57	C	0.410054	-0.620117	-0.395722
C58	C	0.910054	-0.120117	0.104278
N59	N	0.519434	-0.563970	-0.359986
N60	N	1.019434	-0.063970	0.140014
N61	N	0.485066	-0.624839	-0.398728
N62	N	0.985066	-0.124839	0.101272
C63	C	1.001845	-0.869801	-0.379320
C64	C	1.501845	-0.369801	0.120680
C65	C	1.001886	-0.987635	-0.379341
C66	C	1.501886	-0.487635	0.120659
C67	C	0.945633	-1.154972	-0.431631
C68	C	1.445633	-0.654972	0.068369
C69	C	0.945363	-1.032385	-0.431445
C70	C	1.445363	-0.532385	0.068555
C71	C	0.984820	-1.026659	-0.304483
C72	C	1.484820	-0.526659	0.195517
C73	C	0.984477	-1.149256	-0.304800
C74	C	1.484477	-0.649256	0.195200
C75	C	1.075561	-1.160522	-0.401321
C76	C	1.575561	-0.660522	0.098679
C77	C	1.075039	-1.037980	-0.402922
C78	C	1.575039	-0.537980	0.097078
C79	C	1.185178	-0.605952	-0.386707
C80	C	1.685178	-0.105952	0.113293
C81	C	1.263281	-0.610885	-0.389850
C82	C	1.763281	-0.110885	0.110150
C83	C	0.994567	-0.604955	-0.562612
C84	C	1.494567	-0.104955	-0.062612
C85	C	0.991444	-0.609463	-0.640716
C86	C	1.491444	-0.109463	-0.140716
C87	C	1.001965	-0.317876	-0.379360
C88	C	1.501965	0.182124	0.120640
C89	C	1.001995	-0.200049	-0.379372
C90	C	1.501995	0.299951	0.120628
C91	C	1.034930	-0.546628	-0.679225
C92	C	1.534930	-0.046628	-0.179225
C93	C	1.031987	-0.550859	-0.752611
C94	C	1.531987	-0.050859	-0.252611
C95	C	0.985561	-0.617932	-0.787487
C96	C	1.485561	-0.117932	-0.287487
C97	C	0.942070	-0.680769	-0.748972
C98	C	1.442070	-0.180769	-0.248972
C99	C	0.945010	-0.676531	-0.675587
C100	C	1.445010	-0.176531	-0.175587
C101	C	0.971944	-0.637565	-1.006769
C102	C	1.471944	-0.137565	-0.506769
C103	C	0.969009	-0.641800	-1.080159
C104	C	1.469009	-0.141800	-0.580159
C105	C	1.058925	-0.511889	-1.083793
C106	C	1.558925	-0.011889	-0.583793
C107	C	1.061864	-0.507662	-1.010407
C108	C	1.561864	-0.007662	-0.510407
C109	C	1.018371	-0.570495	-0.971898
C110	C	1.518371	-0.070495	-0.471898
N111	N	0.982553	-0.622261	-0.862499
N112	N	1.482553	-0.122261	-0.362499
N113	N	1.021376	-0.566159	-0.896887
N114	N	1.521376	-0.066159	-0.396887
C115	C	1.009236	-0.583764	-0.196766
C116	C	1.509236	-0.083764	0.303234
C117	C	1.012495	-0.578966	-0.118668
C118	C	1.512495	-0.078966	0.381332
H119	H	0.399979	-0.747594	-0.476839
H120	H	0.899979	-0.247594	0.023161
N121	N	0.894635	-0.749256	-0.784600
N122	N	1.394635	-0.249256	-0.284600
N123	N	0.848233	-0.711478	-0.823748
N124	N	1.348233	-0.211478	-0.323748
H125	H	0.814731	-0.759845	-0.848913
H126	H	1.314731	-0.259845	-0.348913
N127	N	0.917125	-1.179771	-0.281903
N128	N	1.417125	-0.679771	0.218097
N129	N	0.870700	-1.110551	-0.265802
N130	N	1.370700	-0.610551	0.234198
H131	H	0.823131	-1.132096	-0.249630
H132	H	1.323131	-0.632096	0.250370
N133	N	0.258858	-0.753338	-0.480497
N134	N	0.758858	-0.253338	0.019503
N135	N	0.193336	-0.749209	-0.477869
N136	N	0.693336	-0.249209	0.022131
H137	H	0.165563	-0.798398	-0.509169
H138	H	0.665563	-0.298398	-0.009169
N139	N	0.266128	-0.468330	-0.299126
N140	N	0.766128	0.031670	0.200874
N141	N	0.300497	-0.407450	-0.260389
N142	N	0.800497	0.092550	0.239611
H143	H	0.275327	-0.354925	-0.226962
H144	H	0.775327	0.145075	0.273038
H145	H	1.117515	-1.189748	-0.363295
H146	H	1.617515	-0.689748	0.136705
H147	H	0.406485	-0.491797	-0.314057
H148	H	0.906485	0.008203	0.185943
H149	H	1.094334	-0.460732	-1.115154
H150	H	1.594334	0.039268	-0.615154
H151	H	0.604518	-0.441227	-0.281874
H152	H	1.104518	0.058773	0.218126
N153	N	1.095817	-1.204544	-0.468831
N154	N	1.595817	-0.704544	0.031169
N155	N	1.056275	-1.265594	-0.501589
N156	N	1.556275	-0.765594	-0.001589
H157	H	1.070574	-1.296688	-0.549269
H158	H	1.570574	-0.796688	-0.049269
H159	H	0.737661	-0.449601	-0.287201
H160	H	1.237661	0.050399	0.212799
H161	H	1.067399	-0.499695	-0.783962
H162	H	1.567399	0.000305	-0.283962
N163	N	1.082344	-0.478110	-0.643593
N164	N	1.582344	0.021890	-0.143593
N165	N	1.084963	-0.474330	-0.578071
N166	N	1.584963	0.025670	-0.078071
H167	H	1.118448	-0.425935	-0.552906
H168	H	1.618448	0.074065	-0.052906
N169	N	1.034856	-0.990064	-0.254142
N170	N	1.534856	-0.490064	0.245858
N171	N	1.083767	-0.934679	-0.272920
N172	N	1.583767	-0.434679	0.227080
H173	H	1.119107	-0.908832	-0.237369
H174	H	1.619107	-0.408832	0.262631
N175	N	0.738371	-0.720500	-0.459575
N176	N	1.238371	-0.220500	0.040425
N177	N	0.703995	-0.781370	-0.498313
N178	N	1.203995	-0.281370	0.001687
H179	H	0.729160	-0.833903	-0.531738
H180	H	1.229160	-0.333903	-0.031738
N181	N	0.590046	-0.711143	-0.453651
N182	N	1.090046	-0.211143	0.046349
N183	N	0.621214	-0.776140	-0.495012
N184	N	1.121214	-0.276140	0.004988
H185	H	0.593458	-0.825330	-0.526326
H186	H	1.093458	-0.325330	-0.026326
N187	N	0.958326	-0.999563	-0.500963
N188	N	1.458326	-0.499563	-0.000963
N189	N	0.967635	-1.067247	-0.549957
N190	N	1.467635	-0.567247	-0.049957
H191	H	0.976788	-1.044073	-0.599058
H192	H	1.476788	-0.544073	-0.099058
N193	N	0.958485	-1.196859	-0.501363
N194	N	1.458485	-0.696859	-0.001363
N195	N	0.958184	-1.294569	-0.514098
N196	N	1.458184	-0.794569	-0.014098
H197	H	0.967280	-1.324149	-0.563347
H198	H	1.467280	-0.824149	-0.063347
H199	H	1.023908	-1.178854	-0.264375
H200	H	1.523908	-0.678854	0.235625
H201	H	0.891372	-1.181699	-0.417028
H202	H	1.391372	-0.681699	0.082972
N203	N	0.900602	-0.740719	-0.636238
N204	N	1.400602	-0.240719	-0.136238
N205	N	0.903233	-0.736928	-0.570717
N206	N	1.403233	-0.236928	-0.070717
H207	H	0.871867	-0.782259	-0.542925
H208	H	1.371867	-0.282259	-0.042925
N209	N	1.130196	-1.000204	-0.358952
N210	N	1.630196	-0.500204	0.141048
N211	N	1.141333	-0.903432	-0.354383
N212	N	1.641333	-0.403432	0.145617
H213	H	1.180286	-0.876753	-0.323322
H214	H	1.680286	-0.376753	0.176678
N215	N	0.876867	-0.990443	-0.412909
N216	N	1.376867	-0.490443	0.087091
N217	N	0.829114	-1.051725	-0.400065
N218	N	1.329114	-0.551725	0.099935
H219	H	0.780736	-1.022105	-0.386972
H220	H	1.280736	-0.522105	0.113028
H221	H	1.099671	-0.453047	-0.982016
H222	H	1.599671	0.046953	-0.482016
N223	N	0.918194	-0.982806	-0.281259
N224	N	1.418194	-0.482806	0.218741
N225	N	0.883169	-0.922812	-0.319707
N226	N	1.383169	-0.422812	0.180293
H227	H	0.836113	-0.891840	-0.303309
H228	H	1.336113	-0.391840	0.196691
H229	H	1.087964	-1.012952	-0.458029
H230	H	1.587964	-0.512952	0.041971
N231	N	0.921558	-0.710274	-1.115786
N232	N	1.421558	-0.210274	-0.615786
N233	N	0.857050	-0.698625	-1.104981
N234	N	1.357050	-0.198625	-0.604981
H235	H	0.823534	-0.746969	-1.130147
H236	H	1.323534	-0.246969	-0.630147
N237	N	0.927514	-0.701753	-0.967450
N238	N	1.427514	-0.201753	-0.467450
N239	N	0.886069	-0.761635	-0.998601
N240	N	1.386069	-0.261635	-0.498601
H241	H	0.854688	-0.806972	-0.970830
H242	H	1.354688	-0.306972	-0.470830
