data_functionalizedCrystal
_audit_creation_method	'MofGen! by Chris Wilmer'
_symmetry_space_group_name_H-M	'P1'
_symmetry_Int_Tables_number	1
_symmetry_cell_setting	triclinic
loop_
_symmetry_equiv_pos_as_xyz
  x,y,z
_cell_length_a	10.654550
_cell_length_b	23.532407
_cell_length_c	9.730223
_cell_angle_alpha	89.990960
_cell_angle_beta	89.999957
_cell_angle_gamma	83.666804
loop_
_atom_site_label
_atom_site_type_symbol
_atom_site_fract_x
_atom_site_fract_y
_atom_site_fract_z
O1	O	1.665305	0.079985	-0.114203
O2	O	1.299585	0.087605	-0.114230
O3	O	1.493473	0.000935	-0.114191
O4	O	1.471417	0.166655	-0.114242
O5	O	1.493461	0.000933	0.114389
O6	O	1.299573	0.087603	0.114350
O7	O	1.665293	0.079982	0.114377
Zn8	Zn	1.482431	0.083792	0.150655
Zn9	Zn	1.482447	0.083795	-0.150508
O10	O	1.471404	0.166652	0.114337
C11	C	1.252799	0.087044	0.000057
C12	C	1.113408	0.085370	0.000048
C13	C	1.492905	-0.020286	0.000103
C14	C	1.491217	-0.083514	0.000113
C15	C	1.032306	0.136400	0.000036
C16	C	0.901335	0.134824	0.000060
C17	C	0.932582	0.031183	0.000103
C18	C	1.063550	0.032760	0.000089
C19	C	1.595364	-0.481938	0.000046
C20	C	1.593795	-0.541349	0.000035
O21	O	1.690341	-0.577464	-0.000009
N22	N	1.478529	-0.564726	0.000028
C23	C	1.364824	-0.528689	0.000017
O24	O	1.266636	-0.554029	0.000008
C25	C	1.366394	-0.469280	0.000018
C26	C	1.481668	-0.445906	0.000039
C27	C	1.710629	-0.458564	0.000066
C28	C	1.712197	-0.399158	0.000079
C29	C	1.598500	-0.363126	0.000072
C30	C	1.483236	-0.386500	0.000052
C31	C	1.252690	-0.433244	-0.000003
C32	C	1.254270	-0.373831	-0.000003
C33	C	1.369544	-0.350458	0.000018
C34	C	1.371107	-0.291061	0.000058
N35	N	1.486374	-0.267684	0.000066
C36	C	1.600070	-0.303716	0.000073
C37	C	1.361535	-0.653453	0.000013
C38	C	1.359964	-0.712861	0.000022
C39	C	1.588936	-0.725517	0.000038
C40	C	1.590506	-0.666108	0.000038
C41	C	1.476802	-0.630076	0.000020
C42	C	1.603355	-0.178958	0.000101
C43	C	1.604913	-0.119546	0.000120
C44	C	1.375942	-0.106896	0.000097
C45	C	1.374383	-0.166303	0.000086
C46	C	1.488100	-0.202333	0.000083
O47	O	1.274613	-0.254911	0.000096
O48	O	1.698241	-0.278369	0.000063
C49	C	1.712079	0.080543	0.000087
C50	C	1.851469	0.082217	0.000087
C51	C	1.471972	0.187873	0.000041
C52	C	1.473661	0.251101	0.000022
N53	N	1.482429	0.083790	0.356192
N54	N	1.482459	0.083793	-0.356045
C55	C	1.568311	0.045429	0.428135
C56	C	1.568324	0.045429	0.572018
C57	C	1.396567	0.122156	0.572002
C58	C	1.396550	0.122153	0.428121
H59	H	0.835306	0.176378	0.000053
H60	H	1.638237	0.014190	0.369574
C61	C	1.219196	0.184839	-0.000024
C62	C	1.087113	0.194228	-0.000003
H63	H	1.253026	0.220541	-0.000055
H64	H	1.247081	0.163811	0.079688
H65	H	1.247057	0.163804	-0.079734
H66	H	1.059252	0.215259	0.079713
H67	H	1.059217	0.215265	-0.079724
H68	H	1.681514	-0.754865	0.000038
C69	C	1.228972	-0.025593	0.117601
C70	C	1.152709	-0.023336	0.000101
H71	H	1.284008	-0.060225	0.117613
H72	H	1.277403	0.005961	0.117573
H73	H	1.177223	-0.024055	0.197306
H74	H	1.204459	-0.024870	-0.079605
H75	H	1.104275	-0.054899	0.000116
C76	C	1.135046	-0.646920	0.000020
C77	C	1.236539	-0.613849	0.000020
H78	H	1.057882	-0.622472	0.000031
H79	H	1.139202	-0.670347	-0.079689
H80	H	1.139215	-0.670364	0.079734
H81	H	1.232375	-0.590408	-0.079700
H82	H	1.232381	-0.590413	0.079737
H83	H	1.158822	-0.452264	-0.000029
C84	C	1.368303	0.199538	0.266267
C85	C	1.302145	0.164325	0.349029
H86	H	1.310020	0.225568	0.217434
H87	H	1.420305	0.220244	0.322379
H88	H	1.419435	0.176681	0.202844
H89	H	1.251020	0.187181	0.412459
H90	H	1.250120	0.143617	0.292913
H91	H	1.326648	0.153392	0.630581
H92	H	0.891971	-0.011650	0.000144
H93	H	1.698787	-0.100519	0.000141
H94	H	1.806065	-0.380133	0.000090
C95	C	1.829843	-0.185484	0.000137
C96	C	1.728353	-0.218557	0.000111
H97	H	1.907009	-0.209931	0.000158
H98	H	1.825695	-0.162044	-0.079567
H99	H	1.825663	-0.162053	0.079856
H100	H	1.732528	-0.241985	-0.079613
H101	H	1.732504	-0.242006	0.079823
C102	C	1.739384	0.033797	0.733811
C103	C	1.662729	0.003263	0.651103
H104	H	1.797661	0.007763	0.782639
H105	H	1.784242	0.057688	0.677665
H106	H	1.688231	0.056642	0.797239
H107	H	1.713881	-0.019579	0.587668
H108	H	1.617867	-0.020638	0.707254
H109	H	1.161675	-0.344497	-0.000020
H110	H	1.684372	-0.647081	0.000055
C111	C	1.905333	-0.487621	-0.117409
C112	C	1.835622	-0.498163	0.000080
H113	H	1.982507	-0.512063	-0.117384
H114	H	1.858055	-0.494763	-0.197113
H115	H	1.922731	-0.448889	-0.117395
H116	H	1.818215	-0.536894	0.000061
H117	H	1.882910	-0.491026	0.079805
C118	C	1.148212	-0.147823	0.000057
C119	C	1.247674	-0.191998	0.000060
H120	H	1.069988	-0.163684	0.000020
H121	H	1.153574	-0.124928	0.079777
H122	H	1.153610	-0.124901	-0.079646
H123	H	1.242281	-0.214917	0.079768
H124	H	1.242309	-0.214903	-0.079668
H125	H	1.283373	-0.077548	0.000097
H126	H	1.266096	-0.731886	0.000028
