data_functionalizedCrystal
_audit_creation_method	'MofGen! by Chris Wilmer'
_symmetry_space_group_name_H-M	'P1'
_symmetry_Int_Tables_number	1
_symmetry_cell_setting	triclinic
loop_
_symmetry_equiv_pos_as_xyz
  x,y,z
_cell_length_a	19.805407
_cell_length_b	12.759400
_cell_length_c	19.805399
_cell_angle_alpha	90.022119
_cell_angle_beta	90.019573
_cell_angle_gamma	90.013166
loop_
_atom_site_label
_atom_site_type_symbol
_atom_site_fract_x
_atom_site_fract_y
_atom_site_fract_z
Zn1	Zn	1.034798	-0.418291	0.382745
Zn2	Zn	1.534798	0.081709	0.882745
Zn3	Zn	1.034739	-0.593984	0.269568
Zn4	Zn	1.534739	-0.093984	0.769568
Zn5	Zn	0.921613	-0.418320	0.269570
Zn6	Zn	1.421613	0.081680	0.769570
Zn7	Zn	0.921602	-0.593928	0.382715
Zn8	Zn	1.421602	-0.093928	0.882715
O9	O	0.978188	-0.506131	0.326149
O10	O	1.478188	-0.006131	0.826149
O11	O	1.129507	-0.441608	0.367744
O12	O	1.629507	0.058392	0.867744
O13	O	1.019712	-0.570717	0.174852
O14	O	1.519712	-0.070717	0.674852
O15	O	0.936656	-0.271295	0.284597
O16	O	1.436656	0.228705	0.784597
O17	O	1.129463	-0.570689	0.284593
O18	O	1.629463	-0.070689	0.784593
O19	O	1.019813	-0.271273	0.367746
O20	O	1.519813	0.228727	0.867746
O21	O	0.936599	-0.441657	0.174853
O22	O	1.436599	0.058343	0.674853
O23	O	0.826895	-0.441603	0.284567
O24	O	1.326895	0.058397	0.784567
O25	O	0.936638	-0.570594	0.477435
O26	O	1.436638	-0.070594	0.977435
O27	O	0.826887	-0.570622	0.367694
O28	O	1.326887	-0.070622	0.867694
O29	O	1.019803	-0.441554	0.477458
O30	O	1.519803	0.058446	0.977458
O31	O	1.019702	-0.740998	0.284563
O32	O	1.519702	-0.240998	0.784563
O33	O	0.936581	-0.740957	0.367692
O34	O	1.436581	-0.240957	0.867692
C35	C	0.802332	-0.506110	0.326128
C36	C	1.302332	-0.006110	0.826128
C37	C	0.727100	-0.506127	0.326134
C38	C	1.227100	-0.006127	0.826134
C39	C	0.691770	-0.573408	0.369348
C40	C	1.191770	-0.073408	0.869348
C41	C	0.621081	-0.573410	0.369358
C42	C	1.121081	-0.073410	0.869358
C43	C	0.585724	-0.506135	0.326149
C44	C	1.085724	-0.006135	0.826149
C45	C	0.621060	-0.438847	0.282933
C46	C	1.121060	0.061153	0.782933
C47	C	0.691747	-0.438840	0.282928
C48	C	1.191747	0.061160	0.782928
C49	C	0.335986	-0.438870	0.282956
C50	C	0.835986	0.061130	0.782956
C51	C	0.265294	-0.438884	0.282963
C52	C	0.765294	0.061116	0.782963
C53	C	0.265321	-0.573440	0.369386
C54	C	0.765321	-0.073440	0.869386
C55	C	0.336008	-0.573433	0.369380
C56	C	0.836008	-0.073433	0.869380
C57	C	0.371337	-0.506141	0.326167
C58	C	0.871337	-0.006141	0.826167
C59	C	0.447985	-0.506139	0.326158
C60	C	0.947985	-0.006139	0.826158
C61	C	0.509077	-0.506142	0.326154
C62	C	1.009077	-0.006142	0.826154
C63	C	0.978152	-0.779098	0.326139
C64	C	1.478152	-0.279098	0.826139
C65	C	0.978199	-0.895875	0.326157
C66	C	1.478199	-0.395875	0.826157
C67	C	1.021477	-0.950646	0.369488
C68	C	1.521477	-0.450646	0.869488
C69	C	1.021509	-1.060370	0.369505
C70	C	1.521509	-0.560370	0.869505
C71	C	0.934982	-1.060542	0.282853
C72	C	1.434982	-0.560542	0.782853
C73	C	0.934948	-0.950820	0.282840
C74	C	1.434948	-0.450820	0.782840
C75	C	1.064729	-0.895701	0.412805
C76	C	1.564729	-0.395701	0.912805
C77	C	1.108011	-0.950472	0.456139
C78	C	1.608011	-0.450472	0.956139
C79	C	1.108042	-1.060196	0.456156
C80	C	1.608042	-0.560196	0.956156
C81	C	1.064792	-1.115149	0.412838
C82	C	1.564792	-0.615149	0.912838
C83	C	1.154731	-0.506152	0.326172
C84	C	1.654731	-0.006152	0.826172
C85	C	1.229963	-0.506160	0.326181
C86	C	1.729963	-0.006160	0.826181
C87	C	0.978226	-0.506064	0.502692
C88	C	1.478226	-0.006064	1.002692
C89	C	0.978242	-0.506036	0.577924
C90	C	1.478242	-0.006036	1.077924
C91	C	0.978242	-0.232097	0.326175
C92	C	1.478242	0.267903	0.826175
C93	C	0.978265	-0.115321	0.326186
C94	C	1.478265	0.384679	0.826186
C95	C	0.978189	-0.506121	0.150293
C96	C	1.478189	-0.006121	0.650293
C97	C	0.978304	-0.505853	0.075062
C98	C	1.478304	-0.005853	0.575062
C99	C	1.021547	-0.438842	0.613281
C100	C	1.521547	0.061158	1.113281
C101	C	1.021554	-0.438811	0.683970
C102	C	1.521554	0.061189	1.183970
C103	C	0.978259	-0.505981	0.719300
C104	C	1.478259	-0.005981	1.219300
C105	C	0.934949	-0.573179	0.683938
C106	C	1.434949	-0.073179	1.183938
C107	C	0.934940	-0.573203	0.613251
C108	C	1.434940	-0.073203	1.113251
C109	C	0.934988	-0.573081	0.969011
C110	C	1.434988	-0.073081	1.469011
C111	C	0.935002	-0.573054	1.039704
C112	C	1.435002	-0.073054	1.539704
C113	C	1.021602	-0.438689	1.039730
C114	C	1.521602	0.061311	1.539730
C115	C	1.021592	-0.438713	0.969043
C116	C	1.521592	0.061287	1.469043
C117	C	0.978280	-0.505906	0.933687
C118	C	1.478280	-0.005906	1.433687
C119	C	0.978272	-0.505937	0.857039
C120	C	1.478272	-0.005937	1.357039
C121	C	0.978270	-0.505957	0.795947
C122	C	1.478270	-0.005957	1.295947
H123	H	0.236547	-0.628228	0.404575
H124	H	0.736547	-0.128228	0.904575
O125	O	1.149998	-0.896934	0.498154
O126	O	1.649998	-0.396934	0.998154
C127	C	1.140680	-0.788345	0.488862
C128	C	1.640680	-0.288345	0.988862
H129	H	1.118539	-0.773431	0.436604
H130	H	1.618539	-0.273431	0.936604
H131	H	1.191365	-0.746587	0.493494
H132	H	1.691365	-0.246587	0.993494
H133	H	1.104604	-0.757208	0.528972
H134	H	1.604604	-0.257208	1.028972
H135	H	0.364743	-0.384085	0.247764
H136	H	0.864743	0.115915	0.747764
H137	H	1.056866	-0.383973	1.068526
H138	H	1.556866	0.116027	1.568526
O139	O	1.064921	-1.221735	0.412925
O140	O	1.564921	-0.721735	0.912925
C141	C	1.112376	-1.258298	0.460478
C142	C	1.612376	-0.758298	0.960478
H143	H	1.151902	-1.195023	0.469980
H144	H	1.651902	-0.695023	0.969980
H145	H	1.138087	-1.331704	0.440094
H146	H	1.638087	-0.831704	0.940094
H147	H	1.085512	-1.277734	0.509811
H148	H	1.585512	-0.777734	1.009811
H149	H	0.899706	-0.906225	0.247556
H150	H	1.399706	-0.406225	0.747556
O151	O	0.726082	-0.638648	0.411419
O152	O	1.226082	-0.138648	0.911419
C153	C	0.708826	-0.615839	0.478903
C154	C	1.208826	-0.115839	0.978903
H155	H	0.689406	-0.531916	0.482412
H156	H	1.189406	-0.031916	0.982412
H157	H	0.755325	-0.624952	0.512330
H158	H	1.255325	-0.124952	1.012330
H159	H	0.667796	-0.672205	0.496538
H160	H	1.167796	-0.172205	0.996538
O161	O	0.892942	-1.114035	0.240867
O162	O	1.392942	-0.614035	0.740867
C163	C	0.849212	-1.177500	0.279369
C164	C	1.349212	-0.677500	0.779369
H165	H	0.873059	-1.193864	0.330687
H166	H	1.373059	-0.693864	0.830687
H167	H	0.840184	-1.254691	0.251800
H168	H	1.340184	-0.754691	0.751800
H169	H	0.799035	-1.135266	0.286754
H170	H	1.299035	-0.635266	0.786754
O171	O	0.892876	-0.638335	1.073920
O172	O	1.392876	-0.138335	1.573920
C173	C	0.854656	-0.697664	1.027557
C174	C	1.354656	-0.197664	1.527557
H175	H	0.852312	-0.654651	0.977172
H176	H	1.352312	-0.154651	1.477172
H177	H	0.801329	-0.708849	1.047974
H178	H	1.301329	-0.208849	1.547974
H179	H	0.879419	-0.777467	1.020036
H180	H	1.379419	-0.277467	1.520036
H181	H	1.056805	-0.384147	0.584520
H182	H	1.556805	0.115853	1.084520
H183	H	0.236509	-0.384094	0.247778
H184	H	0.736509	0.115906	0.747778
O185	O	1.150145	-1.113240	0.498272
O186	O	1.650145	-0.613240	0.998272
C187	C	1.188296	-1.041211	0.536512
C188	C	1.688296	-0.541211	1.036512
H189	H	1.190631	-0.963021	0.508779
H190	H	1.690631	-0.463021	1.008779
H191	H	1.241630	-1.072848	0.543785
H192	H	1.741630	-0.572848	1.043785
H193	H	1.163478	-1.029519	0.587894
H194	H	1.663478	-0.529519	1.087894
O195	O	1.063549	-0.373398	0.934655
O196	O	1.563549	0.126602	1.434655
C197	C	1.025009	-0.305536	0.893787
C198	C	1.525009	0.194464	1.393787
H199	H	0.973712	-0.342603	0.883180
H200	H	1.473712	0.157397	1.383180
H201	H	1.052572	-0.291454	0.844087
H202	H	1.552572	0.208546	1.344087
H203	H	1.017581	-0.227677	0.921044
H204	H	1.517581	0.272323	1.421044
H205	H	0.592318	-0.628198	0.404547
H206	H	1.092318	-0.128198	0.904547
H207	H	1.056818	-0.384097	0.712754
H208	H	1.556818	0.115903	1.212754
H209	H	0.899731	-0.627809	0.940233
H210	H	1.399731	-0.127809	1.440233
H211	H	0.899696	-0.627866	0.712709
H212	H	1.399696	-0.127866	1.212709
H213	H	0.899670	-0.627909	0.584464
H214	H	1.399670	-0.127909	1.084464
H215	H	0.720512	-0.384048	0.247742
H216	H	1.220512	0.115952	0.747742
O217	O	0.370248	-0.638817	0.411417
O218	O	0.870248	-0.138817	0.911417
C219	C	0.323906	-0.698221	0.449551
C220	C	0.823906	-0.198221	0.949551
H221	H	0.273522	-0.655200	0.451946
H222	H	0.773522	-0.155200	0.951946
H223	H	0.344351	-0.709531	0.502866
H224	H	0.844351	-0.209531	1.002866
H225	H	0.316370	-0.777966	0.424680
H226	H	0.816370	-0.277966	0.924680
H227	H	1.064709	-0.806358	0.412795
H228	H	1.564709	-0.306358	0.912795
O229	O	0.586612	-0.373588	0.240985
O230	O	1.086612	0.126412	0.740985
C231	C	0.516645	-0.388000	0.250268
C232	C	1.016645	0.112000	0.750268
H233	H	0.506990	-0.469129	0.272343
H234	H	1.006990	0.030871	0.772343
H235	H	0.489759	-0.380765	0.199580
H236	H	0.989759	0.119235	0.699580
H237	H	0.496609	-0.325763	0.286386
H238	H	0.996609	0.174237	0.786386
