data_functionalizedCrystal
_audit_creation_method	'MofGen! by Chris Wilmer'
_symmetry_space_group_name_H-M	'P1'
_symmetry_Int_Tables_number	1
_symmetry_cell_setting	triclinic
loop_
_symmetry_equiv_pos_as_xyz
  x,y,z
_cell_length_a	14.971486
_cell_length_b	14.971486
_cell_length_c	13.448316
_cell_angle_alpha	89.992514
_cell_angle_beta	90.003552
_cell_angle_gamma	83.614129
loop_
_atom_site_label
_atom_site_type_symbol
_atom_site_fract_x
_atom_site_fract_y
_atom_site_fract_z
O1	O	-1.186940	-0.116566	0.082578
O2	O	-0.926540	-0.130525	0.082605
O3	O	-1.063720	0.006654	0.082584
O4	O	-1.049761	-0.253746	0.082599
O5	O	-1.063717	0.006666	-0.082800
O6	O	-0.926537	-0.130513	-0.082779
O7	O	-1.186937	-0.116555	-0.082806
Cu8	Cu	-1.056737	-0.123533	-0.097893
Cu9	Cu	-1.056740	-0.123547	0.097692
O10	O	-1.049758	-0.253734	-0.082784
C11	C	-1.063094	0.039985	-0.000108
C12	C	-1.061223	0.139282	-0.000107
C13	C	-0.893214	-0.129895	-0.000083
C14	C	-0.793917	-0.128024	-0.000073
C15	C	-1.220263	-0.117185	-0.000115
C16	C	-1.319561	-0.119056	-0.000119
C17	C	-0.736692	-0.208614	-0.000070
C18	C	-0.643392	-0.206850	-0.000085
C19	C	-0.607320	-0.124497	-0.000096
C20	C	-0.664552	-0.043902	-0.000102
C21	C	-0.757850	-0.045666	-0.000095
C22	C	-0.470090	-0.040231	-0.000116
C23	C	-0.376786	-0.038466	-0.000122
C24	C	-0.355632	-0.201415	-0.000106
C25	C	-0.448930	-0.203179	-0.000099
C26	C	-0.506156	-0.122584	-0.000103
C27	C	-1.050384	-0.287065	-0.000091
C28	C	-1.052254	-0.386362	-0.000085
N29	N	-1.056741	-0.123523	-0.235457
C30	C	-1.141812	0.196507	-0.000116
C31	C	-1.140049	0.289807	-0.000106
C32	C	-1.057696	0.325879	-0.000093
C33	C	-0.977101	0.268646	-0.000081
C34	C	-0.978865	0.175349	-0.000084
C35	C	-0.973430	0.463109	-0.000077
C36	C	-0.971665	0.556413	-0.000076
C37	C	-1.134614	0.577567	-0.000099
C38	C	-1.136378	0.484269	-0.000102
C39	C	-1.055782	0.427043	-0.000091
N40	N	-1.056744	-0.123550	0.235257
C41	C	-1.117600	-0.062927	0.287288
C42	C	-1.117604	-0.062924	0.391391
C43	C	-1.056746	-0.123542	0.443461
C44	C	-0.995887	-0.184171	0.391423
C45	C	-0.995888	-0.184177	0.287322
C46	C	-0.995887	-0.184153	0.608403
C47	C	-0.995884	-0.184146	0.712512
C48	C	-1.117603	-0.062900	0.712472
C49	C	-1.117604	-0.062906	0.608371
C50	C	-1.056743	-0.123535	0.556340
H51	H	-0.766054	-0.275675	-0.000060
F52	F	-1.182369	0.001614	0.552953
F53	F	-1.182370	0.001596	0.231880
F54	F	-0.338397	0.049183	-0.000160
F55	F	-0.530993	0.045549	-0.000124
H56	H	-0.946338	-0.233531	0.433825
H57	H	-1.167158	-0.013561	0.433754
F58	F	-1.225824	0.350707	-0.000117
F59	F	-1.224028	0.445880	-0.000112
H60	H	-0.596802	-0.272474	-0.000081
H61	H	-0.904606	0.585780	-0.000082
H62	H	-0.946334	-0.233544	0.244959
H63	H	-0.309033	-0.267039	-0.000107
H64	H	-1.200238	0.624165	-0.000104
H65	H	-1.167158	-0.013534	0.754842
H66	H	-0.478296	-0.270239	-0.000080
H67	H	-0.907800	0.416517	-0.000066
F68	F	-0.931114	-0.248685	0.553032
H69	H	-0.635175	0.023152	-0.000126
H70	H	-0.946329	-0.233508	0.754902
H71	H	-0.804443	0.019958	-0.000097
F72	F	-1.229465	0.158125	-0.000138
F73	F	-0.889454	0.307040	-0.000057
F74	F	-0.893090	0.114445	-0.000072
