data_functionalizedCrystal
_audit_creation_method	'MofGen! by Chris Wilmer'
_symmetry_space_group_name_H-M	'P1'
_symmetry_Int_Tables_number	1
_symmetry_cell_setting	triclinic
loop_
_symmetry_equiv_pos_as_xyz
  x,y,z
_cell_length_a	16.956995
_cell_length_b	16.992695
_cell_length_c	16.176319
_cell_angle_alpha	90.003592
_cell_angle_beta	90.009091
_cell_angle_gamma	83.361347
loop_
_atom_site_label
_atom_site_type_symbol
_atom_site_fract_x
_atom_site_fract_y
_atom_site_fract_z
O1	O	1.060101	0.032362	0.068804
O2	O	1.560101	0.532362	0.568804
O3	O	0.829691	0.059775	0.068793
O4	O	1.329691	0.559775	0.568793
O5	O	0.943972	-0.068014	0.068792
O6	O	1.443972	0.431986	0.568792
O7	O	0.945820	0.160151	0.068805
O8	O	1.445820	0.660151	0.568805
O9	O	0.943958	-0.068014	-0.068701
O10	O	1.443958	0.431986	0.431299
O11	O	0.829677	0.059776	-0.068700
O12	O	1.329677	0.559776	0.431300
O13	O	1.060087	0.032362	-0.068689
O14	O	1.560087	0.532362	0.431311
Cu15	Cu	0.944880	0.046069	-0.081249
Cu16	Cu	1.444880	0.546069	0.418751
Cu17	Cu	0.944897	0.046068	0.081353
Cu18	Cu	1.444897	0.546068	0.581353
O19	O	0.945805	0.160152	-0.068688
O20	O	1.445805	0.660152	0.431312
C21	C	0.800065	0.061179	0.000045
C22	C	1.300065	0.561179	0.500045
C23	C	0.711811	0.065352	0.000041
C24	C	1.211811	0.565352	0.500041
C25	C	0.214500	0.096570	0.000074
C26	C	0.714500	0.596570	0.500074
C27	C	0.297425	0.092643	0.000073
C28	C	0.797425	0.592643	0.500073
C29	C	0.343815	0.018931	0.000062
C30	C	0.843815	0.518931	0.500062
C31	C	0.307278	-0.050860	0.000061
C32	C	0.807278	0.449140	0.500061
C33	C	0.224354	-0.046932	0.000068
C34	C	0.724354	0.453068	0.500068
C35	C	0.592349	-0.000510	0.000047
C36	C	1.092349	0.499490	0.500047
C37	C	0.675278	-0.004433	0.000037
C38	C	1.175278	0.495567	0.500037
C39	C	0.665419	0.139071	0.000051
C40	C	1.165419	0.639071	0.500051
C41	C	0.582495	0.142992	0.000053
C42	C	1.082495	0.642992	0.500053
C43	C	0.545964	0.073202	0.000056
C44	C	1.045964	0.573202	0.500056
N45	N	0.428578	0.014915	0.000059
N46	N	0.928578	0.514915	0.500059
N47	N	0.461203	0.077218	0.000065
N48	N	0.961203	0.577218	0.500065
C49	C	0.941589	-0.097073	0.000045
C50	C	1.441589	0.402927	0.500045
C51	C	0.934498	-0.183657	0.000045
C52	C	1.434498	0.316343	0.500045
C53	C	1.002913	-0.238332	0.000047
C54	C	1.502913	0.261668	0.500047
C55	C	0.996246	-0.319686	0.000055
C56	C	1.496246	0.180314	0.500055
C57	C	0.921163	-0.346365	0.000054
C58	C	1.421163	0.153635	0.500054
C59	C	0.852743	-0.291683	0.000055
C60	C	1.352743	0.208317	0.500055
C61	C	0.859411	-0.210331	0.000053
C62	C	1.359411	0.289669	0.500053
C63	C	0.893527	-0.588171	0.000065
C64	C	1.393527	-0.088171	0.500065
C65	C	0.886865	-0.669531	0.000064
C66	C	1.386865	-0.169531	0.500064
C67	C	1.030368	-0.697528	0.000066
C68	C	1.530368	-0.197528	0.500066
C69	C	1.037029	-0.616172	0.000059
C70	C	1.537029	-0.116172	0.500059
C71	C	0.968609	-0.561498	0.000064
C72	C	1.468609	-0.061498	0.500064
N73	N	0.914346	-0.429522	0.000059
N74	N	1.414346	0.070478	0.500059
N75	N	0.975427	-0.478343	0.000064
N76	N	1.475427	0.021657	0.500064
C77	C	1.089713	0.030958	0.000060
C78	C	1.589713	0.530958	0.500060
C79	C	1.177967	0.026785	0.000070
C80	C	1.677967	0.526785	0.500070
C81	C	0.948189	0.189210	0.000060
C82	C	1.448189	0.689210	0.500060
C83	C	0.955280	0.275795	0.000066
C84	C	1.455280	0.775795	0.500066
N85	N	0.944874	0.046069	-0.195614
N86	N	1.444874	0.546069	0.304386
C87	C	0.996053	0.090338	-0.238869
C88	C	1.496053	0.590338	0.261131
C89	C	0.996061	0.090334	-0.325417
C90	C	1.496061	0.590334	0.174583
C91	C	0.944886	0.046066	-0.368707
C92	C	1.444886	0.546066	0.131293
C93	C	0.893706	0.001791	-0.325445
C94	C	1.393706	0.501791	0.174555
C95	C	0.893702	0.001791	-0.238900
C96	C	1.393702	0.501791	0.261100
C97	C	0.893720	0.001791	-0.674474
C98	C	1.393720	0.501791	-0.174474
C99	C	0.893726	0.001797	-0.761025
C100	C	1.393726	0.501797	-0.261025
C101	C	0.996079	0.090335	-0.760990
C102	C	1.496079	0.590335	-0.260990
C103	C	0.996076	0.090334	-0.674445
C104	C	1.496076	0.590334	-0.174445
C105	C	0.944898	0.046057	-0.631191
C106	C	1.444898	0.546057	-0.131191
C107	C	0.944891	0.046060	-0.537347
C108	C	1.444891	0.546060	-0.037347
C109	C	0.944889	0.046066	-0.462549
C110	C	1.444889	0.546066	0.037451
N111	N	0.944909	0.046062	0.195718
N112	N	1.444909	0.546062	0.695718
H113	H	0.194611	-0.103758	0.000066
H114	H	0.694611	0.396242	0.500066
N115	N	1.083896	-0.209560	0.000040
N116	N	1.583896	0.290440	0.500040
H117	H	1.126224	-0.256544	0.000044
H118	H	1.626224	0.243456	0.500044
H119	H	1.089795	-0.176412	0.051009
H120	H	1.589795	0.323588	0.551009
N121	N	0.785614	-0.151367	0.000037
N122	N	1.285614	0.348633	0.500037
H123	H	0.785178	-0.116995	-0.050935
H124	H	1.285178	0.383005	0.449065
H125	H	0.785220	-0.117036	0.051036
H126	H	1.285220	0.382964	0.551036
N127	N	1.104158	-0.756499	0.000076
N128	N	1.604158	-0.256499	0.500076
H129	H	1.152734	-0.727253	0.000078
H130	H	1.652734	-0.227253	0.500078
H131	H	1.104516	-0.790868	-0.050893
H132	H	1.604516	-0.290868	0.449107
N133	N	0.552954	-0.075780	0.000038
N134	N	1.052954	0.424220	0.500038
H135	H	0.518783	-0.077359	0.051010
H136	H	1.018783	0.422641	0.551010
H137	H	0.594975	-0.123027	-0.000006
H138	H	1.094975	0.376973	0.499994
N139	N	1.070038	-0.378654	0.000050
N140	N	1.570038	0.121346	0.500050
H141	H	1.070459	-0.413036	-0.050916
H142	H	1.570459	0.086964	0.449084
H143	H	1.070439	-0.412973	0.051055
H144	H	1.570439	0.087027	0.551055
H145	H	0.852027	-0.034257	-0.203682
H146	H	1.352027	0.465743	0.296318
H147	H	1.037737	0.126381	-0.360631
H148	H	1.537737	0.626381	0.139369
H149	H	1.098170	-0.594458	0.000059
H150	H	1.598170	-0.094458	0.500059
H151	H	1.037721	0.126391	-0.203629
H152	H	1.537721	0.626391	0.296371
H153	H	0.713048	-0.064462	0.000033
H154	H	1.213048	0.435538	0.500033
N155	N	0.838515	-0.045959	-0.372139
N156	N	1.338515	0.454041	0.127861
H157	H	0.801812	-0.009463	-0.408050
H158	H	1.301812	0.490537	0.091950
H159	H	0.806147	-0.074002	-0.331552
H160	H	1.306147	0.425998	0.168448
H161	H	1.037745	0.126385	-0.639202
H162	H	1.537745	0.626385	-0.139202
N163	N	1.051282	0.138091	-0.807642
N164	N	1.551282	0.638091	-0.307642
H165	H	1.043525	0.131375	-0.869038
H166	H	1.543525	0.631375	-0.369038
H167	H	1.108054	0.118956	-0.792501
H168	H	1.608054	0.618956	-0.292501
N169	N	0.838513	-0.045943	-0.627819
N170	N	1.338513	0.454057	-0.127819
H171	H	0.870646	-0.086388	-0.591906
H172	H	1.370646	0.413612	-0.091906
H173	H	0.806099	-0.073931	-0.668424
H174	H	1.306099	0.426069	-0.168424
H175	H	0.176733	0.156595	0.000076
H176	H	0.676733	0.656595	0.500076
H177	H	0.852052	-0.034254	-0.796270
H178	H	1.352052	0.465746	-0.296270
N179	N	0.336829	0.167911	0.000091
N180	N	0.836829	0.667911	0.500091
H181	H	0.294857	0.215203	0.000097
H182	H	0.794857	0.715203	0.500097
H183	H	0.371014	0.169416	-0.050877
H184	H	0.871014	0.669416	0.449123
H185	H	0.791609	-0.313411	0.000059
H186	H	1.291609	0.186589	0.500059
N187	N	0.819734	-0.529210	0.000064
N188	N	1.319734	-0.029210	0.500064
H189	H	0.819305	-0.494834	0.051036
H190	H	1.319305	0.005166	0.551036
H191	H	0.771203	-0.558518	0.000031
H192	H	1.271203	-0.058518	0.500031
H193	H	0.695172	0.195890	0.000049
H194	H	1.195172	0.695890	0.500049
N195	N	0.805879	-0.698308	0.000064
N196	N	1.305879	-0.198308	0.500064
H197	H	0.763546	-0.651328	0.000069
H198	H	1.263546	-0.151328	0.500069
H199	H	0.800001	-0.731452	0.051034
H200	H	1.300001	-0.231452	0.551034
H201	H	0.544728	0.203017	0.000064
H202	H	1.044728	0.703017	0.500064
H203	H	0.345056	-0.110878	0.000057
H204	H	0.845056	0.389122	0.500057
