data_functionalizedCrystal
_audit_creation_method	'MofGen! by Chris Wilmer'
_symmetry_space_group_name_H-M	'P1'
_symmetry_Int_Tables_number	1
_symmetry_cell_setting	triclinic
loop_
_symmetry_equiv_pos_as_xyz
  x,y,z
_cell_length_a	12.645330
_cell_length_b	17.077404
_cell_length_c	17.077396
_cell_angle_alpha	90.023219
_cell_angle_beta	89.975931
_cell_angle_gamma	89.985894
loop_
_atom_site_label
_atom_site_type_symbol
_atom_site_fract_x
_atom_site_fract_y
_atom_site_fract_z
Zn1	Zn	-0.422141	-1.200083	-0.443945
Zn2	Zn	-0.599426	-1.200002	-0.312689
Zn3	Zn	-0.422166	-1.068815	-0.312684
Zn4	Zn	-0.599352	-1.068795	-0.443904
O5	O	-0.510771	-1.134424	-0.378305
O6	O	-0.445679	-1.309919	-0.426552
O7	O	-0.575954	-1.182574	-0.202841
O8	O	-0.273816	-1.086270	-0.330111
O9	O	-0.575930	-1.309860	-0.330119
O10	O	-0.273797	-1.182712	-0.426548
O11	O	-0.445722	-1.086192	-0.202838
O12	O	-0.445650	-0.958965	-0.330072
O13	O	-0.575802	-1.086236	-0.553756
O14	O	-0.575827	-0.958950	-0.426478
O15	O	-0.445606	-1.182693	-0.553786
O16	O	-0.747764	-1.182555	-0.330080
O17	O	-0.747709	-1.086157	-0.426483
C18	C	-0.510734	-0.930476	-0.378270
C19	C	-0.510743	-0.843226	-0.378274
C20	C	-0.786201	-1.134366	-0.378294
C21	C	-0.904031	-1.134414	-0.378316
C22	C	-0.443072	-0.467440	-0.428606
C23	C	-0.443068	-0.549420	-0.428600
C24	C	-0.510770	-0.590377	-0.378308
C25	C	-0.578488	-0.549349	-0.328025
C26	C	-0.578497	-0.467370	-0.328035
C27	C	-0.578464	-0.720219	-0.328005
C28	C	-0.578454	-0.802204	-0.327993
C29	C	-0.443034	-0.802269	-0.428569
C30	C	-0.443043	-0.720290	-0.428580
C31	C	-0.510760	-0.679268	-0.378295
C32	C	-1.071605	-1.074020	-0.439150
C33	C	-0.949045	-1.073711	-0.438955
C34	C	-0.948622	-1.112022	-0.295588
C35	C	-1.071220	-1.111653	-0.295957
C36	C	-1.071128	-1.217568	-0.399539
C37	C	-0.948521	-1.217059	-0.401348
C38	C	-0.234266	-1.134502	-0.378334
C39	C	-0.116436	-1.134536	-0.378346
C40	C	-0.510693	-1.134471	-0.583050
C41	C	-0.510660	-1.134491	-0.670300
C42	C	-0.510799	-0.339168	-0.378333
C43	C	-0.510783	-0.426418	-0.378325
C44	C	-0.442861	-1.184718	-0.711307
C45	C	-0.442826	-1.184728	-0.793287
C46	C	-0.510595	-1.134514	-0.834259
C47	C	-0.578397	-1.084281	-0.793246
C48	C	-0.578426	-1.084268	-0.711267
C49	C	-0.578333	-1.084313	-0.964116
C50	C	-0.578306	-1.084326	-1.046101
C51	C	-0.442733	-1.184772	-1.046136
C52	C	-0.442762	-1.184759	-0.964157
C53	C	-0.510565	-1.134528	-0.923150
C54	C	-0.510772	-1.134421	-0.174357
C55	C	-0.510507	-1.134553	-0.087108
H56	H	-0.387934	-0.434098	-0.469555
F57	F	-0.371005	-0.593075	-0.482120
H58	H	-0.387895	-0.835673	-0.469512
H59	H	-0.918893	-1.087720	-0.500297
H60	H	-0.633529	-1.043396	-0.930731
H61	H	-0.919805	-1.012155	-0.424913
F62	F	-1.111445	-1.244268	-0.477049
F63	F	-0.650519	-1.030836	-0.836854
H64	H	-1.101019	-1.087901	-0.500694
H65	H	-0.919466	-1.154702	-0.249045
F66	F	-0.370640	-1.238207	-0.920553
H67	H	-0.387909	-0.686945	-0.469529
F68	F	-0.908456	-1.279098	-0.347683
F69	F	-1.112005	-0.994066	-0.421045
F70	F	-1.108718	-1.032318	-0.272491
F71	F	-0.910424	-1.239133	-0.480928
F72	F	-0.650534	-0.845792	-0.274484
F73	F	-0.370736	-1.238168	-0.667708
F74	F	-1.109991	-1.166758	-0.234717
F75	F	-0.650548	-0.676563	-0.274494
H76	H	-0.633617	-0.582703	-0.287079
F77	F	-0.650571	-0.423712	-0.274524
H78	H	-0.918005	-1.051958	-0.277310
H79	H	-1.100119	-1.262654	-0.355253
H80	H	-0.387620	-1.225629	-0.826671
H81	H	-0.387523	-1.225671	-1.079528
H82	H	-0.633487	-1.043436	-1.079458
H83	H	-0.633624	-1.043360	-0.677880
