data_functionalizedCrystal
_audit_creation_method	'MofGen! by Chris Wilmer'
_symmetry_space_group_name_H-M	'P1'
_symmetry_Int_Tables_number	1
_symmetry_cell_setting	triclinic
loop_
_symmetry_equiv_pos_as_xyz
  x,y,z
_cell_length_a	14.853567
_cell_length_b	16.109301
_cell_length_c	14.586319
_cell_angle_alpha	90.005214
_cell_angle_beta	90.000535
_cell_angle_gamma	83.548206
loop_
_atom_site_label
_atom_site_type_symbol
_atom_site_fract_x
_atom_site_fract_y
_atom_site_fract_z
O1	O	-1.196184	-0.108546	-0.076180
O2	O	-0.933703	-0.121477	-0.076196
O3	O	-1.072154	0.006009	-0.076178
O4	O	-1.057733	-0.236033	-0.076198
O5	O	-1.072145	0.006011	0.076302
O6	O	-0.933694	-0.121475	0.076285
O7	O	-1.196175	-0.108545	0.076301
Cu8	Cu	-1.064933	-0.115010	0.090215
Cu9	Cu	-1.064945	-0.115012	-0.090111
O10	O	-1.057724	-0.236031	0.076283
C11	C	-0.900111	-0.120890	0.000042
C12	C	-0.800030	-0.119135	0.000036
C13	C	-1.071566	0.036986	0.000062
C14	C	-1.069814	0.129284	0.000064
C15	C	-1.229767	-0.109131	0.000060
C16	C	-1.329848	-0.110887	0.000060
C17	C	-0.387634	-0.035983	0.000064
C18	C	-0.366102	-0.187440	0.000051
C19	C	-0.460133	-0.189090	0.000047
C20	C	-0.517919	-0.114187	0.000051
C21	C	-0.481674	-0.037632	0.000058
C22	C	-0.496386	-0.265644	0.000031
C23	C	-0.590422	-0.267298	0.000027
C24	C	-0.648210	-0.192393	0.000038
C25	C	-0.611959	-0.115835	0.000045
C26	C	-0.669745	-0.040931	0.000049
C27	C	-0.633496	0.035628	0.000063
C28	C	-0.539461	0.037273	0.000068
C29	C	-0.742245	-0.194038	0.000033
C30	C	-0.763785	-0.042580	0.000043
C31	C	-1.058313	-0.267007	0.000040
C32	C	-1.060064	-0.359305	0.000033
N33	N	-1.064932	-0.115008	0.217047
C34	C	-1.147896	0.351446	0.000054
C35	C	-1.146243	0.438169	0.000046
C36	C	-0.981976	0.418525	0.000040
C37	C	-0.983629	0.331804	0.000041
C38	C	-1.066592	0.298267	0.000053
C39	C	-1.063286	0.471711	0.000044
C40	C	-1.061494	0.565740	0.000036
C41	C	-1.068385	0.204233	0.000059
N42	N	-1.064953	-0.115007	-0.216943
C43	C	-1.126258	-0.058576	0.452061
C44	C	-1.126261	-0.058574	0.548043
C45	C	-1.003620	-0.171442	0.548036
C46	C	-1.003614	-0.171439	0.452057
C47	C	-1.064938	-0.115007	0.404072
C48	C	-1.064947	-0.115008	0.596033
C49	C	-1.064949	-0.115006	0.700100
C50	C	-1.064935	-0.115008	0.299998
H51	H	-0.810829	0.018417	0.000050
C52	C	-0.891997	0.455100	0.000084
C53	C	-0.907949	0.542430	0.000111
C54	C	-0.825081	0.576148	0.000167
H55	H	-0.858452	0.436942	-0.053075
H56	H	-0.858514	0.436902	0.053279
H57	H	-0.941418	0.560620	-0.053079
H58	H	-0.941480	0.560611	0.053266
H59	H	-0.791597	0.557950	0.053362
H60	H	-0.791541	0.557984	-0.052993
H61	H	-0.835892	0.635404	0.000194
H62	H	-0.917418	0.288503	0.000037
C63	C	-1.192870	0.002791	0.400128
C64	C	-1.246554	0.052227	0.462704
C65	C	-1.307918	0.108777	0.414900
H66	H	-1.230473	-0.027079	0.362676
H67	H	-1.160471	0.037501	0.362714
H68	H	-1.278952	0.017521	0.500102
H69	H	-1.208976	0.082115	0.500158
H70	H	-1.275519	0.143487	0.377486
H71	H	-1.345515	0.078900	0.377449
H72	H	-1.344345	0.142331	0.457350
C73	C	-0.348406	0.047194	-0.000067
C74	C	-0.377790	0.092487	-0.078502
C75	C	-0.341681	0.169118	-0.078649
H76	H	-0.284130	0.037571	-0.000109
H77	H	-0.368274	0.078085	0.053080
H78	H	-0.357917	0.061603	-0.131635
H79	H	-0.442061	0.102133	-0.078477
H80	H	-0.361548	0.200009	-0.025502
H81	H	-0.277406	0.159486	-0.078688
H82	H	-0.361619	0.199862	-0.131861
H83	H	-1.212449	0.481464	0.000045
C84	C	-1.192696	0.002790	0.600194
C85	C	-1.144696	0.053783	0.655285
C86	C	-1.205866	0.110331	0.703330
H87	H	-1.230238	-0.027083	0.637706
H88	H	-1.229201	0.036445	0.557895
H89	H	-1.108206	0.020131	0.697579
H90	H	-1.107157	0.083674	0.617796
H91	H	-1.242371	0.143986	0.661031
H92	H	-1.243405	0.080451	0.740836
H93	H	-1.173307	0.144941	0.740708
H94	H	-0.619928	-0.329636	0.000016
C95	C	-0.937151	-0.232678	0.600302
C96	C	-0.950297	-0.220621	0.694629
C97	C	-0.889090	-0.277027	0.742803
H98	H	-0.876946	-0.223605	0.584692
H99	H	-0.946933	-0.288200	0.584615
H100	H	-0.940508	-0.165112	0.710311
H101	H	-1.010489	-0.229700	0.710267
H102	H	-0.898872	-0.332548	0.727115
H103	H	-0.828889	-0.267949	0.727185
H104	H	-0.898007	-0.268859	0.806808
H105	H	-0.953676	-0.217393	0.412981
H106	H	-0.509938	0.099603	0.000102
C107	C	-0.696390	0.116860	0.000111
C108	C	-0.786497	0.099023	0.000120
C109	C	-0.844462	0.173830	0.000176
H110	H	-0.685518	0.148309	-0.053042
H111	H	-0.685467	0.148253	0.053312
H112	H	-0.797415	0.067644	-0.053076
H113	H	-0.797397	0.067586	0.053269
H114	H	-0.833540	0.205223	0.053376
H115	H	-0.833583	0.205273	-0.052978
H116	H	-0.905606	0.161738	0.000190
C117	C	-0.303259	-0.268695	-0.000097
C118	C	-0.248628	-0.272164	-0.078532
C119	C	-0.190713	-0.347002	-0.078691
H120	H	-0.338200	-0.314594	-0.000148
H121	H	-0.266076	-0.271202	0.053050
H122	H	-0.285806	-0.269666	-0.131665
H123	H	-0.213668	-0.226283	-0.078499
H124	H	-0.153530	-0.349508	-0.025545
H125	H	-0.225661	-0.392895	-0.078739
H126	H	-0.153633	-0.349362	-0.131904
C127	C	-0.433540	-0.346897	-0.000115
C128	C	-0.378899	-0.350360	-0.078543
C129	C	-0.320979	-0.425195	-0.078700
H130	H	-0.468476	-0.392798	-0.000172
H131	H	-0.396363	-0.349404	0.053037
H132	H	-0.416072	-0.347862	-0.131681
H133	H	-0.343943	-0.304476	-0.078502
H134	H	-0.283803	-0.427701	-0.025549
H135	H	-0.355924	-0.471090	-0.078755
H136	H	-0.283893	-0.427550	-0.131908
H137	H	-1.215449	0.324144	0.000061
C138	C	-0.781776	-0.277065	-0.000028
C139	C	-0.876496	-0.262479	-0.000050
C140	C	-0.912942	-0.338947	-0.000115
H141	H	-0.762041	-0.307977	0.053127
H142	H	-0.761993	-0.307916	-0.053227
H143	H	-0.896271	-0.231641	0.053144
H144	H	-0.896257	-0.231580	-0.053200
H145	H	-0.893158	-0.369798	-0.053315
H146	H	-0.893200	-0.369853	0.053040
H147	H	-0.977212	-0.329061	-0.000139
