data_functionalizedCrystal
_audit_creation_method	'MofGen! by Chris Wilmer'
_symmetry_space_group_name_H-M	'P1'
_symmetry_Int_Tables_number	1
_symmetry_cell_setting	triclinic
loop_
_symmetry_equiv_pos_as_xyz
  x,y,z
_cell_length_a	14.044220
_cell_length_b	16.109295
_cell_length_c	14.586319
_cell_angle_alpha	90.005323
_cell_angle_beta	89.986995
_cell_angle_gamma	91.675968
loop_
_atom_site_label
_atom_site_type_symbol
_atom_site_fract_x
_atom_site_fract_y
_atom_site_fract_z
O1	O	0.121820	-1.112202	-0.076180
O2	O	0.136988	-0.871268	-0.076196
O3	O	-0.008579	-0.988118	-0.076179
O4	O	0.267387	-0.995351	-0.076197
O5	O	-0.008604	-0.988098	0.076302
O6	O	0.136963	-0.871248	0.076285
O7	O	0.121796	-1.112182	0.076301
Cu8	Cu	0.129377	-0.991713	0.090216
Cu9	Cu	0.129406	-0.991737	-0.090111
O10	O	0.267363	-0.995331	0.076284
C11	C	0.136362	-0.840237	0.000043
C12	C	0.134523	-0.747805	0.000037
C13	C	-0.043905	-0.984942	0.000061
C14	C	-0.149128	-0.975499	0.000062
C15	C	0.216621	-0.531640	0.000041
C16	C	0.214886	-0.444790	0.000047
C17	C	0.042178	-0.451815	0.000054
C18	C	0.043915	-0.538663	0.000055
C19	C	0.131139	-0.578573	0.000044
C20	C	0.127667	-0.404875	0.000049
C21	C	0.125785	-0.310709	0.000055
C22	C	0.133022	-0.672746	0.000040
C23	C	-0.341783	-0.958233	0.000048
C24	C	-0.399439	-1.025213	0.000049
C25	C	-0.506639	-1.015606	0.000041
C26	C	-0.234573	-0.967839	0.000056
C27	C	0.302689	-0.998507	0.000041
C28	C	0.407911	-1.007951	0.000035
C29	C	0.122427	-0.143212	0.000059
C30	C	0.124284	-0.235644	0.000056
N31	N	0.129356	-0.991703	0.217047
N32	N	0.129420	-0.991753	-0.216942
C33	C	0.071893	-0.937045	0.548077
C34	C	0.071880	-0.937037	0.452095
C35	C	0.186886	-1.046417	0.452035
C36	C	0.186893	-1.046428	0.548014
C37	C	0.129398	-0.991737	0.596033
C38	C	0.129378	-0.991719	0.404072
C39	C	0.129364	-0.991711	0.300005
C40	C	0.129410	-0.991746	0.700107
H41	H	0.284494	-0.406581	0.000047
H42	H	-0.368289	-1.089770	-0.000008
H43	H	0.287645	-0.564132	0.000039
H44	H	0.233697	-1.090943	0.412927
H45	H	-0.028837	-0.419310	0.000069
N46	N	-0.043417	-0.586598	0.000067
N47	N	-0.121288	-0.550956	0.000073
H48	H	-0.182965	-0.584810	0.000085
H49	H	-0.372931	-0.893681	0.000041
H50	H	0.233721	-1.090970	0.587061
H51	H	0.025076	-0.892512	0.587170
H52	H	0.025052	-0.892502	0.413054
