data_functionalizedCrystal
_audit_creation_method	'MofGen! by Chris Wilmer'
_symmetry_space_group_name_H-M	'P1'
_symmetry_Int_Tables_number	1
_symmetry_cell_setting	triclinic
loop_
_symmetry_equiv_pos_as_xyz
  x,y,z
_cell_length_a	10.489741
_cell_length_b	9.565339
_cell_length_c	19.288871
_cell_angle_alpha	89.999092
_cell_angle_beta	96.160939
_cell_angle_gamma	90.000900
loop_
_atom_site_label
_atom_site_type_symbol
_atom_site_fract_x
_atom_site_fract_y
_atom_site_fract_z
O1	O	1.691841	0.116178	-0.097988
O2	O	1.320438	0.116200	-0.107186
O3	O	1.516867	0.116175	-0.001529
O4	O	1.495412	0.116202	-0.203645
O5	O	1.516851	-0.116345	-0.001535
O6	O	1.320422	-0.116320	-0.107192
O7	O	1.691826	-0.116343	-0.097994
Zn8	Zn	1.506122	-0.153249	-0.102594
Zn9	Zn	1.506142	0.153106	-0.102586
O10	O	1.495397	-0.116318	-0.203651
C11	C	1.272914	-0.000058	-0.106494
C12	C	1.131332	-0.000050	-0.104416
C13	C	1.064709	-0.000072	-0.037189
C14	C	0.971873	0.114574	-0.068943
C15	C	0.971891	-0.114673	-0.068966
C16	C	1.040360	0.114691	-0.136197
C17	C	1.040388	-0.114659	-0.136211
C18	C	0.947579	0.000015	-0.168013
N19	N	1.506117	-0.362328	-0.102600
C20	C	1.415248	-0.453520	-0.151446
C21	C	1.530428	-0.546704	-0.165500
C22	C	1.390987	-0.546700	-0.088552
C23	C	1.621355	-0.453460	-0.116685
C24	C	1.481838	-0.453449	-0.039709
C25	C	1.597102	-0.546590	-0.053737
C26	C	1.739349	-0.000082	-0.098686
C27	C	1.880932	-0.000081	-0.100764
C28	C	1.516167	-0.000086	0.024349
C29	C	1.514091	-0.000087	0.101466
N30	N	1.506157	0.362186	-0.102575
C31	C	1.499173	-0.126811	0.657133
C32	C	1.501110	-0.126817	0.584672
C33	C	1.502093	-0.000071	0.548438
C34	C	1.501106	0.126691	0.584668
C35	C	1.499156	0.126693	0.657127
C36	C	1.579892	0.097027	0.438587
C37	C	1.581849	0.097020	0.366131
C38	C	1.508102	-0.000073	0.324951
C39	C	1.432413	-0.097182	0.356238
C40	C	1.430463	-0.097179	0.428697
C41	C	1.504207	-0.000059	0.469869
C42	C	1.511181	-0.126833	0.210158
C43	C	1.513110	-0.126834	0.137696
C44	C	1.513119	0.126677	0.137694
C45	C	1.511177	0.126674	0.210155
C46	C	1.510214	-0.000085	0.246383
C47	C	1.496101	-0.000060	0.770471
C48	C	1.498193	-0.000066	0.693355
H49	H	1.338472	-0.412655	-0.192793
C50	C	0.930838	0.245495	-0.030515
H51	H	0.971348	0.245353	0.015964
H52	H	0.955428	0.326913	-0.053948
H53	H	0.840416	0.244968	-0.029840
H54	H	1.718755	-0.412676	-0.128620
H55	H	1.639940	0.176107	0.472110
H56	H	1.674047	-0.587198	-0.012416
H57	H	1.510386	-0.230048	0.239656
C58	C	1.454012	-0.398053	0.032099
H59	H	1.372118	-0.429920	0.042002
H60	H	1.517737	-0.431303	0.066903
H61	H	1.454978	-0.298746	0.031686
C62	C	1.133511	0.000093	0.037468
H63	H	1.110242	0.081657	0.061240
H64	H	1.109115	-0.080521	0.061604
H65	H	1.223643	-0.000717	0.035613
C66	C	1.259438	-0.602014	-0.072505
H67	H	1.194966	-0.570127	-0.107263
H68	H	1.260620	-0.701314	-0.072186
H69	H	1.241561	-0.568692	-0.028170
H70	H	1.550990	-0.587665	-0.218674
H71	H	1.513904	-0.230049	0.108205
C72	C	1.510115	0.266095	0.250002
H73	H	1.510988	0.341582	0.218047
H74	H	1.434995	0.271368	0.273345
H75	H	1.583727	0.271361	0.283191
C76	C	1.081134	0.245759	-0.174605
H77	H	1.171467	0.244989	-0.175676
H78	H	1.039961	0.246061	-0.220936
H79	H	1.057147	0.327089	-0.150888
H80	H	0.896906	0.000085	-0.223336
H81	H	1.070787	-0.211582	-0.164635
C82	C	1.498096	-0.266239	0.696979
H83	H	1.498945	-0.341726	0.665023
H84	H	1.571692	-0.271514	0.730172
H85	H	1.422961	-0.271506	0.720317
C86	C	0.930904	-0.245613	-0.030531
H87	H	0.971439	-0.245466	0.015942
H88	H	0.840490	-0.245134	-0.029853
H89	H	0.955528	-0.327022	-0.053966
H90	H	1.501884	-0.230031	0.555173
H91	H	1.513904	0.229876	0.108192
C92	C	1.347199	-0.203974	0.463110
H93	H	1.303546	-0.261797	0.428211
H94	H	1.400289	-0.260130	0.494946
H95	H	1.286366	-0.155869	0.487394
H96	H	1.372365	-0.176248	0.322711
H97	H	1.643486	0.176085	0.340663
H98	H	1.501902	0.229888	0.555162
C99	C	1.498100	0.266118	0.696974
H100	H	1.498972	0.341606	0.665020
H101	H	1.422986	0.271397	0.720323
H102	H	1.571718	0.271376	0.730159
