data_functionalizedCrystal
_audit_creation_method	'MofGen! by Chris Wilmer'
_symmetry_space_group_name_H-M	'P1'
_symmetry_Int_Tables_number	1
_symmetry_cell_setting	triclinic
loop_
_symmetry_equiv_pos_as_xyz
  x,y,z
_cell_length_a	10.654544
_cell_length_b	10.654541
_cell_length_c	11.295483
_cell_angle_alpha	94.135029
_cell_angle_beta	85.853861
_cell_angle_gamma	84.484390
loop_
_atom_site_label
_atom_site_type_symbol
_atom_site_fract_x
_atom_site_fract_y
_atom_site_fract_z
O1	O	1.676229	0.168011	-0.099055
O2	O	1.310750	0.184818	-0.099050
O3	O	1.501894	-0.006324	-0.099045
O4	O	1.485086	0.359154	-0.099060
O5	O	1.485105	0.010438	0.099005
O6	O	1.293961	0.201581	0.099000
O7	O	1.659440	0.184774	0.098996
Cu8	Cu	1.475168	0.194708	0.117082
Cu9	Cu	1.495023	0.174884	-0.117136
O10	O	1.468297	0.375916	0.098991
C11	C	1.255558	0.191965	-0.000025
C12	C	1.116114	0.188274	-0.000023
C13	C	1.097786	0.206563	0.215898
C14	C	1.023112	0.213977	0.323854
C15	C	0.892094	0.210505	0.323849
C16	C	0.835748	0.199616	0.215876
C17	C	0.910422	0.192202	0.107919
C18	C	1.041441	0.195678	0.107936
C19	C	0.928751	0.173904	-0.107999
C20	C	1.059768	0.177384	-0.107996
C21	C	0.872405	0.163014	-0.215972
C22	C	0.947078	0.155610	-0.323931
C23	C	1.078103	0.159083	-0.323921
C24	C	1.134442	0.169971	-0.215953
C25	C	1.492266	-0.044741	-0.000021
C26	C	1.488575	-0.184185	-0.000023
C27	C	1.717139	-0.212155	-0.000010
C28	C	1.829681	-0.291648	-0.000002
C29	C	1.826206	-0.422667	-0.000005
C30	C	1.710176	-0.474193	-0.000021
C31	C	1.597634	-0.394700	-0.000030
C32	C	1.601121	-0.263679	-0.000023
C33	C	1.369074	-0.366731	-0.000051
C34	C	1.372545	-0.235711	-0.000039
C35	C	1.253044	-0.418257	-0.000067
C36	C	1.140498	-0.338762	-0.000067
C37	C	1.143978	-0.207737	-0.000062
C38	C	1.260003	-0.156218	-0.000047
C39	C	1.714633	0.177626	-0.000033
C40	C	1.854077	0.181317	-0.000042
C41	C	1.477925	0.414333	-0.000036
C42	C	1.481616	0.553776	-0.000042
N43	N	1.461212	0.208650	0.281817
N44	N	1.508988	0.160932	-0.281872
C45	C	1.609447	0.060500	0.531111
C46	C	1.598910	0.071045	0.655774
C47	C	1.429595	0.240278	0.655810
C48	C	1.440132	0.229733	0.531146
C49	C	1.530063	0.139842	0.468801
C50	C	1.540605	0.129304	0.344136
C51	C	1.371285	0.298531	0.344174
C52	C	1.360748	0.309076	0.468837
H53	H	0.765724	0.160179	-0.215968
Cl54	Cl	0.994650	-0.403547	-0.000101
H55	H	1.052332	-0.143019	-0.000074
H56	H	1.262847	-0.049537	-0.000036
Cl57	Cl	1.967689	-0.522606	-0.000005
Cl58	Cl	0.876241	0.141888	-0.459653
H59	H	1.287525	0.382260	0.519613
H60	H	1.707358	-0.580878	-0.000039
H61	H	1.613834	0.056114	0.293375
Cl62	Cl	1.248681	-0.582973	-0.000147
H63	H	1.682681	-0.012685	0.480349
Cl64	Cl	1.698710	-0.028707	0.734103
H65	H	1.138897	0.153042	-0.411833
Cl66	Cl	1.316533	0.353264	0.734199
Cl67	Cl	0.671039	0.195245	0.215873
H68	H	1.241122	0.172807	-0.215934
Cl69	Cl	1.271491	0.398287	0.265830
Cl70	Cl	1.975540	-0.226867	0.000011
Cl71	Cl	1.262492	0.210948	0.215913
H72	H	0.831293	0.216552	0.411757
Cl73	Cl	1.093952	0.227667	0.459585
Cl74	Cl	1.721514	-0.047444	0.000021
