data_functionalizedCrystal
_audit_creation_method	'MofGen! by Chris Wilmer'
_symmetry_space_group_name_H-M	'P1'
_symmetry_Int_Tables_number	1
_symmetry_cell_setting	triclinic
loop_
_symmetry_equiv_pos_as_xyz
  x,y,z
_cell_length_a	8.559649
_cell_length_b	14.044220
_cell_length_c	7.681481
_cell_angle_alpha	83.732834
_cell_angle_beta	94.913240
_cell_angle_gamma	81.483771
loop_
_atom_site_label
_atom_site_type_symbol
_atom_site_fract_x
_atom_site_fract_y
_atom_site_fract_z
O1	O	2.101908	-0.021858	-0.146399
O2	O	1.643608	0.026593	-0.146411
O3	O	1.865881	-0.135117	-0.146388
O4	O	1.879635	0.139853	-0.146422
O5	O	1.893233	-0.155061	0.146473
O6	O	1.670961	0.006649	0.146449
O7	O	2.129260	-0.041802	0.146461
Zn8	Zn	1.904453	-0.020743	0.192953
Zn9	Zn	1.868415	0.005534	-0.192903
O10	O	1.906988	0.119909	0.146438
C11	C	1.598278	0.020293	0.000018
C12	C	1.422455	0.031222	0.000014
C13	C	1.873534	-0.179966	0.000043
C14	C	1.855571	-0.283884	0.000045
C15	C	1.822727	-0.474153	0.000018
C16	C	1.950133	-0.541060	0.000016
C17	C	1.931858	-0.646933	0.000002
C18	C	1.840999	-0.368270	0.000033
C19	C	2.174590	-0.035501	0.000029
C20	C	2.350412	-0.046430	0.000021
C21	C	1.899334	0.164757	0.000003
C22	C	1.917296	0.268676	-0.000010
N23	N	1.929059	-0.038678	0.456290
N24	N	1.843820	0.023461	-0.456240
H25	H	2.072922	-0.518821	-0.000099
H26	H	1.349615	0.106070	-0.000005
C27	C	1.659137	-0.503989	0.000113
C28	C	1.673316	-0.604598	0.000151
C29	C	1.522658	-0.632132	0.000271
H30	H	1.593626	-0.472270	-0.101978
H31	H	1.612841	-0.486151	0.102289
H32	H	1.719590	-0.622426	-0.102014
H33	H	1.738799	-0.636340	0.102235
H34	H	1.476361	-0.614294	0.102446
H35	H	1.457158	-0.600407	-0.101822
H36	H	1.532259	-0.700398	0.000313
C37	C	1.727999	0.108162	0.443586
C38	C	1.771165	0.195424	0.488255
C39	C	1.664519	0.273473	0.395982
H40	H	1.623713	0.103813	0.473656
H41	H	1.730685	0.106271	0.320609
H42	H	1.768463	0.197314	0.611205
H43	H	1.875433	0.199805	0.458181
H44	H	1.667205	0.271581	0.273005
H45	H	1.560240	0.269114	0.426058
H46	H	1.693801	0.332688	0.426264
H47	H	2.016090	-0.102101	0.531505
C48	C	1.447397	-0.146228	-0.000329
C49	C	1.397303	-0.185886	-0.151017
C50	C	1.486634	-0.277814	-0.151412
H51	H	1.432746	-0.187317	0.101682
H52	H	1.556637	-0.140592	-0.000423
H53	H	1.288090	-0.191527	-0.150906
H54	H	1.411959	-0.144825	-0.253052
H55	H	1.595873	-0.272178	-0.151506
H56	H	1.471976	-0.318894	-0.049395
H57	H	1.452668	-0.304730	-0.253659
