data_functionalizedCrystal
_audit_creation_method	'MofGen! by Chris Wilmer'
_symmetry_space_group_name_H-M	'P1'
_symmetry_Int_Tables_number	1
_symmetry_cell_setting	triclinic
loop_
_symmetry_equiv_pos_as_xyz
  x,y,z
_cell_length_a	14.044190
_cell_length_b	10.868271
_cell_length_c	11.792241
_cell_angle_alpha	90.000107
_cell_angle_beta	91.307403
_cell_angle_gamma	89.990065
loop_
_atom_site_label
_atom_site_type_symbol
_atom_site_fract_x
_atom_site_fract_y
_atom_site_fract_z
O1	O	0.129987	-0.102217	-1.519115
O2	O	0.629987	0.397783	-1.019115
O3	O	0.143384	-0.102247	-1.190032
O4	O	0.643384	0.397753	-0.690032
O5	O	-0.001325	-0.102208	-1.349630
O6	O	0.498675	0.397792	-0.849630
O7	O	0.274696	-0.102256	-1.359517
O8	O	0.774696	0.397744	-0.859517
O9	O	-0.001331	0.102436	-1.349615
O10	O	0.498669	0.602436	-0.849615
O11	O	0.143378	0.102398	-1.190017
O12	O	0.643378	0.602398	-0.690017
O13	O	0.129981	0.102428	-1.519100
O14	O	0.629981	0.602428	-1.019100
Zn15	Zn	0.136679	0.134904	-1.354556
Zn16	Zn	0.636679	0.634904	-0.854556
Zn17	Zn	0.136686	-0.134724	-1.354576
Zn18	Zn	0.636686	0.365276	-0.854576
O19	O	0.274690	0.102389	-1.359502
O20	O	0.774690	0.602389	-0.859502
C21	C	0.142539	0.000072	-1.147655
C22	C	0.642539	0.500072	-0.647655
C23	C	0.140021	0.000061	-1.021404
C24	C	0.640021	0.500061	-0.521404
C25	C	-0.036664	0.000117	-1.345297
C26	C	0.463336	0.500117	-0.845297
C27	C	-0.141957	0.000127	-1.332395
C28	C	0.358043	0.500127	-0.832395
N29	N	0.136673	0.318919	-1.354551
N30	N	0.636673	0.818919	-0.854551
C31	C	-0.391894	0.000085	-1.400312
C32	C	0.108106	0.500085	-0.900312
C33	C	-0.334735	0.000085	-1.308825
C34	C	0.165265	0.500085	-0.808825
C35	C	-0.227463	0.000108	-1.321943
C36	C	0.272537	0.500108	-0.821943
C37	C	-0.499176	0.000062	-1.387197
C38	C	0.000824	0.500062	-0.887197
C39	C	0.310029	0.000061	-1.363835
C40	C	0.810029	0.500061	-0.863835
C41	C	0.415322	0.000043	-1.376737
C42	C	0.915322	0.500043	-0.876737
N43	N	0.136684	-0.318738	-1.354589
N44	N	0.636684	0.181262	-0.854589
C45	C	0.136684	0.569925	-1.354570
C46	C	0.636684	1.069925	-0.854570
C47	C	0.136681	0.430247	-1.354556
C48	C	0.636681	0.930247	-0.854556
C49	C	0.130826	0.000106	-1.561478
C50	C	0.630826	0.500106	-1.061478
C51	C	0.133344	0.000109	-1.687728
C52	C	0.633344	0.500109	-1.187728
C53	C	0.135389	0.000097	-0.790257
C54	C	0.635389	0.500097	-0.290257
C55	C	0.137962	0.000078	-0.918884
C56	C	0.637962	0.500078	-0.418884
H57	H	-0.360267	0.000106	-1.488481
H58	H	0.139733	0.500106	-0.988481
O59	O	-0.372570	-0.000091	-1.203687
O60	O	0.127430	0.499909	-0.703687
C61	C	-0.429126	-0.106104	-1.190651
C62	C	0.070874	0.393896	-0.690651
H63	H	-0.453176	-0.141443	-1.277702
H64	H	0.046824	0.358557	-0.777702
H65	H	-0.494213	-0.082278	-1.138953
H66	H	0.005787	0.417722	-0.638953
H67	H	-0.385725	-0.180313	-1.144756
H68	H	0.114275	0.319687	-0.644756
