data_functionalizedCrystal
_audit_creation_method	'MofGen! by Chris Wilmer'
_symmetry_space_group_name_H-M	'P1'
_symmetry_Int_Tables_number	1
_symmetry_cell_setting	triclinic
loop_
_symmetry_equiv_pos_as_xyz
  x,y,z
_cell_length_a	18.215405
_cell_length_b	11.169417
_cell_length_c	11.169409
_cell_angle_alpha	90.022423
_cell_angle_beta	89.960260
_cell_angle_gamma	89.976177
loop_
_atom_site_label
_atom_site_type_symbol
_atom_site_fract_x
_atom_site_fract_y
_atom_site_fract_z
Zn1	Zn	-0.292946	-1.834850	-0.678540
Zn2	Zn	-0.416037	-1.834686	-0.477831
Zn3	Zn	-0.292987	-1.634133	-0.477868
Zn4	Zn	-0.415973	-1.634092	-0.678469
O5	O	-0.354486	-1.734440	-0.578177
O6	O	-0.309284	-2.002778	-0.651930
O7	O	-0.399758	-1.808030	-0.309886
O8	O	-0.189997	-1.660844	-0.504533
O9	O	-0.399718	-2.002657	-0.504469
O10	O	-0.189967	-1.808310	-0.651966
O11	O	-0.309353	-1.660685	-0.309913
O12	O	-0.309291	-1.466178	-0.504464
O13	O	-0.399609	-1.660775	-0.846428
O14	O	-0.399649	-1.466148	-0.651845
O15	O	-0.309222	-1.808270	-0.846480
O16	O	-0.519013	-1.807991	-0.504401
O17	O	-0.518966	-1.660616	-0.651809
C18	C	-0.354468	-1.422615	-0.578151
C19	C	-0.354478	-1.289215	-0.578169
C20	C	-0.545692	-1.734313	-0.578119
C21	C	-0.627491	-1.734369	-0.578135
C22	C	-0.815685	-1.811287	-0.501520
C23	C	-0.892543	-1.811341	-0.501550
C24	C	-0.892534	-1.657746	-0.654920
C25	C	-0.815677	-1.657700	-0.654896
C26	C	-0.777254	-1.734468	-0.578189
C27	C	-0.930970	-1.734569	-0.578242
C28	C	-1.014304	-1.734626	-0.578274
C29	C	-0.693915	-1.734413	-0.578159
C30	C	-0.162533	-1.734600	-0.578261
C31	C	-0.080734	-1.734668	-0.578297
C32	C	-0.354404	-1.734536	-0.891220
C33	C	-0.354369	-1.734577	-1.024620
C34	C	-0.354498	-1.047482	-0.578194
C35	C	-0.354487	-1.180882	-0.578177
C36	C	-0.354514	-1.734413	-0.266352
C37	C	-0.354341	-1.734605	-0.132953
H38	H	-0.784403	-1.873799	-0.439063
O39	O	-0.929771	-1.886158	-0.427131
C40	C	-0.953176	-2.090394	-0.369155
C41	C	-0.910972	-2.005772	-0.453490
H42	H	-0.938004	-2.187121	-0.390452
H43	H	-0.938104	-2.069469	-0.272337
H44	H	-1.014711	-2.077232	-0.382295
H45	H	-0.849428	-2.018887	-0.440456
H46	H	-0.926105	-2.026719	-0.550277
O47	O	-0.929974	-1.583208	-0.729307
C48	C	-1.048372	-1.515250	-0.797360
C49	C	-1.006067	-1.599712	-0.713039
H50	H	-1.109900	-1.528582	-0.784255
H51	H	-1.033372	-1.418452	-0.776185
H52	H	-1.033156	-1.536249	-0.894139
H53	H	-1.021260	-1.578821	-0.616232
H54	H	-1.021070	-1.696485	-0.734317
O55	O	-0.778455	-1.582960	-0.729415
C56	C	-0.786550	-1.430673	-0.881594
C57	C	-0.828796	-1.515224	-0.797244
H58	H	-0.827232	-1.375905	-0.936474
H59	H	-0.750646	-1.367847	-0.826481
H60	H	-0.750488	-1.485745	-0.944335
H61	H	-0.864897	-1.460250	-0.734486
H62	H	-0.864653	-1.578053	-0.852432
