data_functionalizedCrystal
_audit_creation_method	'MofGen! by Chris Wilmer'
_symmetry_space_group_name_H-M	'P1'
_symmetry_Int_Tables_number	1
_symmetry_cell_setting	triclinic
loop_
_symmetry_equiv_pos_as_xyz
  x,y,z
_cell_length_a	8.497374
_cell_length_b	8.497374
_cell_length_c	18.215407
_cell_angle_alpha	90.001682
_cell_angle_beta	90.004394
_cell_angle_gamma	90.005237
loop_
_atom_site_label
_atom_site_type_symbol
_atom_site_fract_x
_atom_site_fract_y
_atom_site_fract_z
Zn1	Zn	0.628560	0.892104	1.125076
Zn2	Zn	0.892306	0.628370	1.125071
Zn3	Zn	0.628509	0.628332	1.002044
Zn4	Zn	0.892267	0.892102	1.002026
O5	O	0.760411	0.760227	1.063554
O6	O	0.663585	0.857137	1.228060
O7	O	0.857308	0.407603	1.108756
O8	O	0.407753	0.663307	1.018374
O9	O	0.857358	0.663372	1.228056
O10	O	0.407791	0.857100	1.108766
O11	O	0.663497	0.407575	1.018368
O12	O	0.663459	0.663305	0.899057
O13	O	0.857291	1.112864	1.018344
O14	O	0.857241	0.857095	0.899044
O15	O	0.663547	1.112866	1.108749
O16	O	1.113063	0.663370	1.108739
O17	O	1.113035	0.857132	1.018338
C18	C	0.760341	0.760196	0.872348
C19	C	0.760349	0.760221	0.790549
C20	C	0.659708	0.861281	0.525488
C21	C	0.659682	0.861276	0.602347
C22	C	0.861165	0.659207	0.602362
C23	C	0.861197	0.659222	0.525504
C24	C	0.760459	0.760256	0.487069
C25	C	0.760402	0.760237	0.640786
C26	C	0.760375	0.760231	0.724119
C27	C	0.760488	0.760265	0.403731
C28	C	1.170290	0.760250	1.063545
C29	C	1.348934	0.760224	1.063565
C30	C	0.760413	1.171707	1.063549
C31	C	0.760430	1.350351	1.063550
C32	C	0.760481	0.760259	1.255507
C33	C	0.760512	0.760273	1.337306
H34	H	0.577680	0.943550	0.494197
C35	C	0.970348	0.549565	0.644225
C36	C	0.948725	0.571139	0.719757
C37	C	1.049259	0.470143	0.758343
H38	H	1.076450	0.572401	0.631735
H39	H	0.947086	0.443570	0.631661
H40	H	0.971998	0.677109	0.732316
H41	H	0.842643	0.548291	0.732270
H42	H	1.025997	0.364148	0.745779
H43	H	1.155355	0.492987	0.745846
H44	H	1.034592	0.484756	0.809595
H45	H	0.577641	0.943542	0.633624
H46	H	0.943250	0.576954	0.494223
