data_functionalizedCrystal
_audit_creation_method	'MofGen! by Chris Wilmer'
_symmetry_space_group_name_H-M	'P1'
_symmetry_Int_Tables_number	1
_symmetry_cell_setting	triclinic
loop_
_symmetry_equiv_pos_as_xyz
  x,y,z
_cell_length_a	12.827893
_cell_length_b	12.594516
_cell_length_c	12.827885
_cell_angle_alpha	90.029730
_cell_angle_beta	90.019272
_cell_angle_gamma	90.011976
loop_
_atom_site_label
_atom_site_type_symbol
_atom_site_fract_x
_atom_site_fract_y
_atom_site_fract_z
Zn1	Zn	1.597696	-0.423686	0.590849
Zn2	Zn	1.597601	-0.601702	0.416110
Zn3	Zn	1.422937	-0.423738	0.416123
Zn4	Zn	1.422933	-0.601623	0.590810
O5	O	1.510292	-0.512687	0.503473
O6	O	1.743919	-0.447311	0.567681
O7	O	1.574393	-0.578150	0.269875
O8	O	1.446160	-0.274786	0.439323
O9	O	1.743849	-0.578099	0.439300
O10	O	1.574555	-0.274747	0.567693
O11	O	1.446068	-0.447400	0.269885
O12	O	1.276700	-0.447324	0.439284
O13	O	1.446154	-0.577965	0.737051
O14	O	1.276698	-0.578016	0.567626
O15	O	1.574551	-0.447235	0.737080
O16	O	1.574389	-0.750637	0.439262
O17	O	1.446062	-0.750580	0.567613
C18	C	1.238782	-0.512668	0.503453
C19	C	1.122629	-0.512685	0.503469
C20	C	1.070878	-0.448082	0.567095
C21	C	0.950828	-0.448098	0.567113
C22	C	1.510243	-0.789228	0.503455
C23	C	1.510318	-0.907534	0.503482
C24	C	1.580196	-0.976780	0.433746
C25	C	1.605734	-1.047473	0.529127
C26	C	1.484911	-1.047639	0.408161
C27	C	1.535905	-0.976669	0.598913
C28	C	1.415037	-0.976829	0.477883
C29	C	1.440539	-1.047490	0.573330
C30	C	1.782862	-0.512708	0.503493
C31	C	1.899015	-0.512717	0.503502
C32	C	1.510363	-0.512585	0.776043
C33	C	1.510393	-0.512542	0.892196
C34	C	1.510369	-0.235067	0.503514
C35	C	1.510401	-0.116761	0.503531
C36	C	1.510281	-0.512712	0.231963
C37	C	1.510453	-0.512456	0.115810
C38	C	1.573935	-0.447840	0.943995
C39	C	1.573968	-0.447793	1.064046
H40	H	1.639300	-0.945730	0.374826
C41	C	1.133276	-0.647102	0.371110
C42	C	1.062471	-0.587371	0.429945
H43	H	1.096137	-0.693206	0.325714
H44	H	1.175863	-0.687902	0.416528
H45	H	1.175835	-0.600702	0.331172
H46	H	1.019916	-0.633770	0.469889
H47	H	1.019866	-0.546568	0.384521
H48	H	1.456010	-0.567894	0.936726
C49	C	0.828025	-0.433613	0.707609
C50	C	0.890756	-0.373430	0.640654
H51	H	0.790934	-0.387512	0.753006
H52	H	0.870624	-0.479978	0.747534
H53	H	0.779962	-0.474152	0.667692
H54	H	0.938825	-0.332896	0.680571
H55	H	0.848153	-0.327046	0.600725
H56	H	1.557349	-0.945628	0.679614
H57	H	1.628372	-0.392403	1.108592
H58	H	1.628307	-0.392477	0.899466
C59	C	1.411974	-1.151667	0.727398
C60	C	1.360813	-1.089154	0.653055
H61	H	1.362755	-1.177394	0.776614
H62	H	1.463012	-1.110081	0.762240
H63	H	1.444837	-1.209935	0.693758
H64	H	1.327956	-1.030882	0.686695
H65	H	1.309756	-1.130742	0.618209
C66	C	1.238319	-0.387839	0.626370
C67	C	1.131037	-0.373397	0.640619
H68	H	1.275454	-0.341734	0.671768
H69	H	1.256115	-0.372187	0.556173
H70	H	1.256147	-0.459389	0.641526
H71	H	1.113208	-0.301848	0.625456
H72	H	1.113234	-0.389042	0.710833
H73	H	1.456053	-0.567857	1.071271
C74	C	1.787568	-1.053695	0.485243
C75	C	1.714553	-1.089379	0.558394
H76	H	1.854748	-1.079570	0.503305
H77	H	1.788484	-0.978287	0.484820
H78	H	1.768998	-1.079045	0.417994
H79	H	1.733119	-1.064023	0.625642
H80	H	1.713641	-1.164803	0.558828
C81	C	1.279749	-0.970654	0.348651
C82	C	1.306247	-0.934889	0.448579
H83	H	1.212589	-0.944754	0.330551
H84	H	1.279140	-1.046063	0.347832
H85	H	1.329540	-0.945384	0.299797
H86	H	1.256460	-0.960167	0.497435
H87	H	1.306848	-0.859465	0.449405
H88	H	1.463387	-1.078812	0.327530
H89	H	0.943512	-0.568034	0.449033
