data_functionalizedCrystal
_audit_creation_method	'MofGen! by Chris Wilmer'
_symmetry_space_group_name_H-M	'P1'
_symmetry_Int_Tables_number	1
_symmetry_cell_setting	triclinic
loop_
_symmetry_equiv_pos_as_xyz
  x,y,z
_cell_length_a	6.817900
_cell_length_b	11.102183
_cell_length_c	19.453030
_cell_angle_alpha	94.505831
_cell_angle_beta	101.707737
_cell_angle_gamma	108.603876
loop_
_atom_site_label
_atom_site_type_symbol
_atom_site_fract_x
_atom_site_fract_y
_atom_site_fract_z
V1	V	-4.033126	-0.177162	-0.218997
O2	O	-3.993662	0.007152	-0.214830
O3	O	-4.010429	-0.349972	-0.217498
O4	O	-3.975717	-0.175034	-0.314510
O5	O	-4.028614	-0.168998	-0.117146
V6	V	-4.514591	-0.155045	-0.206815
O7	O	-4.298899	-0.225676	-0.245720
O8	O	-4.699015	-0.106530	-0.180093
O9	O	-4.314082	0.017766	-0.208314
O10	O	-4.671452	-0.339358	-0.210983
O11	O	-4.636500	-0.163209	-0.308666
O12	O	-4.348793	-0.157173	-0.111302
C13	C	-3.861974	-0.392081	-0.214043
C14	C	-3.924643	-0.533360	-0.213454
C15	C	-3.850339	-0.496305	-0.084805
C16	C	-3.842626	-0.544150	-0.020206
C17	C	-3.901516	-0.676895	-0.019656
C18	C	-3.968131	-0.761800	-0.083713
C19	C	-3.975845	-0.713955	-0.148312
C20	C	-3.916943	-0.581205	-0.148854
C21	C	-4.050162	-0.751010	-0.276960
C22	C	-3.991259	-0.618265	-0.277511
C23	C	-4.116777	-0.835915	-0.341017
C24	C	-4.124477	-0.788069	-0.405617
C25	C	-4.065580	-0.655316	-0.406164
C26	C	-3.998972	-0.570420	-0.342110
C27	C	-3.817695	-0.168928	-0.337791
C28	C	-3.852210	-0.168332	-0.415873
C29	C	-3.924980	-0.284499	-0.462577
C30	C	-3.957437	-0.283952	-0.535946
C31	C	-3.917078	-0.167230	-0.562605
C32	C	-3.844308	-0.051048	-0.515891
C33	C	-3.811874	-0.051599	-0.442525
N34	N	-3.811791	-0.075716	-0.668100
N35	N	-3.842602	-0.075200	-0.737795
C36	C	-4.014802	-0.165564	-0.783652
N37	N	-4.155012	-0.256481	-0.757183
N38	N	-4.124191	-0.257000	-0.687481
C39	C	-3.952243	-0.166620	-0.642157
C40	C	-4.122772	-0.281147	-0.909912
C41	C	-4.155239	-0.280595	-0.983281
C42	C	-4.042088	-0.047687	-0.963224
C43	C	-4.009643	-0.048242	-0.889857
C44	C	-4.049979	-0.164975	-0.863205
C45	C	-4.125880	0.059868	-0.211768
C46	C	-4.042448	0.201145	-0.212361
C47	C	-4.170159	-0.163282	-0.088018
C48	C	-4.114881	-0.163872	-0.009935
H49	H	-4.071893	-0.616372	-0.458769
H50	H	-3.811455	0.043988	-0.537602
Cl51	Cl	-3.924920	-0.403537	-0.342792
Cl52	Cl	-3.975723	-0.431250	-0.429077
H53	H	-3.752616	0.043002	-0.404497
H54	H	-4.016690	-0.378553	-0.573980
H55	H	-3.802325	-0.388214	-0.085245
Cl56	Cl	-4.173482	-0.427893	-0.876403
Cl57	Cl	-4.246748	-0.426649	-1.041998
Cl58	Cl	-3.758957	-0.437411	0.060317
Cl59	Cl	-3.991377	0.099050	-0.996732
Cl60	Cl	-3.891831	-0.737047	0.061554
H61	H	-4.016104	-0.869887	-0.083260
Cl62	Cl	-4.190828	-1.002795	-0.340326
H63	H	-3.950375	0.046354	-0.851828
H64	H	-4.178729	-0.857208	-0.457767
