data_functionalizedCrystal
_audit_creation_method	'MofGen! by Chris Wilmer'
_symmetry_space_group_name_H-M	'P1'
_symmetry_Int_Tables_number	1
_symmetry_cell_setting	triclinic
loop_
_symmetry_equiv_pos_as_xyz
  x,y,z
_cell_length_a	19.805407
_cell_length_b	10.685194
_cell_length_c	19.805399
_cell_angle_alpha	94.395351
_cell_angle_beta	90.017803
_cell_angle_gamma	94.374384
loop_
_atom_site_label
_atom_site_type_symbol
_atom_site_fract_x
_atom_site_fract_y
_atom_site_fract_z
Zn1	Zn	1.014162	-0.502526	0.362033
Zn2	Zn	1.005437	-0.713562	0.240171
Zn3	Zn	0.900975	-0.502551	0.248860
Zn4	Zn	0.892303	-0.713485	0.353324
O5	O	0.953219	-0.608031	0.301097
O6	O	1.107720	-0.530542	0.345876
O7	O	0.991558	-0.685614	0.146605
O8	O	0.923271	-0.325951	0.271154
O9	O	1.101310	-0.685590	0.256344
O10	O	1.006428	-0.325933	0.354302
O11	O	0.914810	-0.530585	0.152989
O12	O	0.805109	-0.530510	0.262709
O13	O	0.908490	-0.685459	0.449198
O14	O	0.798738	-0.685483	0.339459
O15	O	0.998019	-0.530467	0.455596
O16	O	0.983148	-0.890148	0.247900
O17	O	0.900030	-0.890092	0.331033
C18	C	0.777365	-0.607992	0.301082
C19	C	0.702132	-0.608005	0.301091
C20	C	0.670121	-0.527415	0.347770
C21	C	0.599432	-0.527421	0.347772
C22	C	0.560756	-0.608026	0.301098
C23	C	0.592772	-0.688620	0.254414
C24	C	0.663460	-0.688606	0.254409
C25	C	0.307697	-0.688676	0.254432
C26	C	0.237004	-0.688687	0.254442
C27	C	0.243669	-0.527492	0.347796
C28	C	0.314357	-0.527478	0.347791
C29	C	0.346367	-0.608067	0.301105
C30	C	0.423016	-0.608057	0.301102
C31	C	0.484108	-0.608043	0.301104
C32	C	0.939720	-0.935910	0.287593
C33	C	0.934006	-1.076177	0.281839
C34	C	1.129760	-0.608072	0.301112
C35	C	1.204992	-0.608089	0.301119
C36	C	0.953261	-0.607952	0.477643
C37	C	0.953278	-0.607918	0.552877
C38	C	0.966790	-0.278872	0.314668
C39	C	0.972573	-0.138604	0.320452
C40	C	0.953221	-0.608019	0.125242
C41	C	0.953349	-0.607698	0.050023
C42	C	0.999897	-0.527210	0.591554
C43	C	0.999905	-0.527173	0.662244
C44	C	0.953298	-0.607852	0.694255
C45	C	0.906674	-0.688563	0.655573
C46	C	0.906663	-0.688593	0.584884
C47	C	0.906717	-0.688446	0.940651
C48	C	0.906733	-0.688413	1.011345
C49	C	0.999960	-0.527026	1.018010
C50	C	0.999948	-0.527056	0.947322
C51	C	0.953323	-0.607762	0.908646
C52	C	0.953313	-0.607799	0.831996
C53	C	0.953310	-0.607822	0.770903
H54	H	0.701606	-0.461780	0.385779
O55	O	1.017198	-1.074551	0.365201
C56	C	1.051920	-1.160751	0.399934
H57	H	1.020409	-1.254778	0.398438
H58	H	1.060648	-1.122502	0.454821
H59	H	1.102780	-1.174676	0.374631
H60	H	1.037903	-0.461363	0.921262
O61	O	1.045314	-0.448574	1.055479
C62	C	1.086438	-0.377356	1.012066
H63	H	1.086641	-0.429074	0.959547
H64	H	1.140324	-0.363898	1.033053
H65	H	1.065604	-0.281509	1.008493
O66	O	0.889336	-1.140236	0.237130
C67	C	0.854640	-1.054033	0.202373
H68	H	0.856069	-0.960015	0.233907
H69	H	0.799774	-1.092293	0.193552
H70	H	0.880020	-1.040087	0.151556
H71	H	0.205515	-0.754328	0.216432
O72	O	1.045200	-0.448719	0.560570
C73	C	1.086358	-0.377498	0.609869
H74	H	1.058822	-0.373103	0.660433
H75	H	1.097674	-0.278078	0.593548
H76	H	1.135859	-0.423718	0.615490
H77	H	0.868694	-0.754300	0.553395
H78	H	1.037869	-0.461456	0.693731
H79	H	0.868776	-0.754113	1.037406
H80	H	0.217598	-0.461868	0.385807
O81	O	0.568364	-0.449272	0.393210
C82	C	0.584536	-0.477003	0.459500
H83	H	0.599820	-0.577827	0.458671
H84	H	0.538508	-0.466218	0.493398
H85	H	0.628358	-0.409389	0.480034
H86	H	0.868760	-0.754180	0.909169
O87	O	0.861489	-0.767067	0.686692
C88	C	0.896670	-0.848548	0.724238
H89	H	0.949652	-0.856368	0.702622
H90	H	0.868184	-0.945660	0.721032
H91	H	0.900620	-0.809508	0.779421
O92	O	0.351848	-0.449240	0.393221
C93	C	0.333475	-0.477003	0.459516
H94	H	0.280157	-0.525529	0.458884
H95	H	0.334810	-0.385998	0.493692
H96	H	0.370599	-0.541930	0.479579
O97	O	0.338745	-0.767145	0.209150
C98	C	0.316290	-0.892958	0.218642
H99	H	0.296619	-0.899463	0.272445
H100	H	0.360209	-0.955287	0.210180
H101	H	0.273887	-0.925858	0.180979
O102	O	0.555101	-0.766878	0.209139
C103	C	0.485846	-0.749592	0.219142
H104	H	0.477906	-0.708392	0.273111
H105	H	0.455095	-0.844113	0.210577
H106	H	0.468536	-0.682294	0.181827
H107	H	0.689523	-0.754230	0.216398
