data_functionalizedCrystal
_audit_creation_method	'MofGen! by Chris Wilmer'
_symmetry_space_group_name_H-M	'P1'
_symmetry_Int_Tables_number	1
_symmetry_cell_setting	triclinic
loop_
_symmetry_equiv_pos_as_xyz
  x,y,z
_cell_length_a	12.759401
_cell_length_b	19.121063
_cell_length_c	12.759393
_cell_angle_alpha	92.402917
_cell_angle_beta	89.981504
_cell_angle_gamma	92.469017
loop_
_atom_site_label
_atom_site_type_symbol
_atom_site_fract_x
_atom_site_fract_y
_atom_site_fract_z
Zn1	Zn	1.588321	-0.279568	-0.611771
Zn2	Zn	1.580680	-0.397037	-0.443567
Zn3	Zn	1.412621	-0.279605	-0.436113
Zn4	Zn	1.405080	-0.396983	-0.619205
O5	O	1.496676	-0.338298	-0.527664
O6	O	1.734328	-0.295158	-0.589467
O7	O	1.558345	-0.381497	-0.295559
O8	O	1.442282	-0.181316	-0.453184
O9	O	1.728714	-0.381462	-0.465888
O10	O	1.571368	-0.181289	-0.582240
O11	O	1.434872	-0.295221	-0.290083
O12	O	1.264600	-0.295168	-0.460392
O13	O	1.429429	-0.381370	-0.765237
O14	O	1.259060	-0.381405	-0.594909
O15	O	1.564056	-0.295106	-0.759776
O16	O	1.551032	-0.495314	-0.473095
O17	O	1.422020	-0.495274	-0.602136
C18	C	1.223709	-0.338285	-0.527649
C19	C	1.106932	-0.338297	-0.527668
C20	C	1.049208	-0.383272	-0.597605
C21	C	0.939483	-0.383281	-0.597616
C22	C	0.945216	-0.293337	-0.457747
C23	C	1.054939	-0.293325	-0.457741
C24	C	1.101200	-0.428244	-0.667532
C25	C	1.043476	-0.473224	-0.737473
C26	C	0.933751	-0.473233	-0.737485
C27	C	0.881751	-0.428262	-0.667556
C28	C	1.484907	-0.520778	-0.539254
C29	C	1.479969	-0.598844	-0.544247
C30	C	1.544871	-0.635516	-0.479464
C31	C	1.540233	-0.708867	-0.484167
C32	C	1.470686	-0.745544	-0.553648
C33	C	1.405781	-0.708866	-0.618438
C34	C	1.410426	-0.635517	-0.613740
C35	C	1.453305	-0.967013	-0.571195
C36	C	1.448663	-1.040368	-0.575886
C37	C	1.583116	-1.040364	-0.441616
C38	C	1.587750	-0.967013	-0.436920
C39	C	1.522849	-0.930341	-0.501714
C40	C	1.465941	-0.820521	-0.558454
C41	C	1.527600	-0.855366	-0.496912
C42	C	1.770708	-0.338312	-0.527680
C43	C	1.887484	-0.338318	-0.527686
C44	C	1.496754	-0.338227	-0.801693
C45	C	1.496787	-0.338197	-0.918468
C46	C	1.508518	-0.155106	-0.516052
C47	C	1.513565	-0.077040	-0.511103
C48	C	1.566897	-0.293275	-0.970488
C49	C	1.566923	-0.293250	-1.080210
C50	C	1.426727	-0.383075	-1.085884
C51	C	1.426696	-0.383096	-0.976163
C52	C	1.636987	-0.248377	-0.912792
C53	C	1.707103	-0.203452	-0.964812
C54	C	1.707130	-0.203426	-1.074535
C55	C	1.637040	-0.248326	-1.132237
C56	C	1.496661	-0.338318	-0.254698
C57	C	1.496844	-0.338151	-0.137911
H58	H	1.085822	-0.509833	-0.794413
H59	H	1.369591	-0.419664	-0.933807
C60	C	0.870893	-0.521986	-0.813376
C61	C	0.763674	-0.512359	-0.798440
C62	C	0.705740	-0.557256	-0.868340
H63	H	0.885705	-0.569190	-0.800943
H64	H	0.889502	-0.511756	-0.883364
H65	H	0.745071	-0.522594	-0.728469
H66	H	0.748830	-0.465164	-0.810881
H67	H	0.724349	-0.547026	-0.938328
H68	H	0.720561	-0.604457	-0.855902
H69	H	0.632986	-0.550726	-0.858223
C70	C	1.373183	-1.080317	-0.651221
C71	C	1.382986	-1.152402	-0.641439
C72	C	1.313463	-1.189225	-0.710803
H73	H	1.389214	-1.068339	-0.721103
H74	H	1.303334	-1.068382	-0.635013
H75	H	1.452821	-1.164332	-0.657654
H76	H	1.366947	-1.164400	-0.571573
H77	H	1.243613	-1.177290	-0.694594
H78	H	1.329499	-1.177241	-0.780680
H79	H	1.320098	-1.238138	-0.704168
H80	H	1.635956	-1.070229	-0.388866
C81	C	0.888567	-0.244600	-0.381860
C82	C	0.780120	-0.254253	-0.396813
C83	C	0.727903	-0.209378	-0.326909
H84	H	0.909457	-0.197389	-0.394279
H85	H	0.905808	-0.254833	-0.311873
H86	H	0.762887	-0.244015	-0.466784
H87	H	0.759200	-0.301454	-0.384386
H88	H	0.745143	-0.219611	-0.256922
H89	H	0.748801	-0.162170	-0.339333
H90	H	0.654316	-0.215926	-0.337038
C91	C	1.117807	-0.244523	-0.381925
C92	C	1.225026	-0.254125	-0.396910
C93	C	1.282972	-0.209171	-0.327099
H94	H	1.099275	-0.254702	-0.311912
H95	H	1.102927	-0.197332	-0.394433
H96	H	1.239899	-0.301306	-0.384394
H97	H	1.243589	-0.243942	-0.466908
H98	H	1.268092	-0.161980	-0.339607
H99	H	1.264431	-0.219353	-0.257091
H100	H	1.355726	-0.215675	-0.337264
C101	C	1.783025	-0.154660	-0.902034
C102	C	1.726432	-0.109666	-0.836170
C103	C	1.796335	-0.064713	-0.778317
H104	H	1.824808	-0.127834	-0.948609
H105	H	1.827040	-0.181519	-0.860875
H106	H	1.682435	-0.082810	-0.877326
H107	H	1.684653	-0.136473	-0.789574
H108	H	1.840351	-0.091572	-0.737157
H109	H	1.838115	-0.037892	-0.824900
H110	H	1.757948	-0.034184	-0.733615
H111	H	1.764214	-0.166841	-1.116886
H112	H	1.637056	-0.248293	-1.221580
C113	C	1.620485	-0.595826	-0.403991
C114	C	1.676349	-0.643646	-0.348285
C115	C	1.746027	-0.607111	-0.278760
H116	H	1.582246	-0.567258	-0.356256
H117	H	1.668111	-0.567179	-0.442361
H118	H	1.628730	-0.672280	-0.309917
H119	H	1.714610	-0.672216	-0.395992
H120	H	1.793653	-0.578464	-0.317130
H121	H	1.707779	-0.578544	-0.231032
H122	H	1.783946	-0.639551	-0.240961
H123	H	1.593082	-0.738723	-0.431413
H124	H	1.644380	-0.937152	-0.380343
H125	H	1.369663	-0.419629	-1.132874
C126	C	1.330437	-0.748775	-0.693941
C127	C	1.387223	-0.790832	-0.764005
C128	C	1.317847	-0.827611	-0.833564
H129	H	1.292419	-0.716509	-0.731959
H130	H	1.282881	-0.777475	-0.655576
H131	H	1.434760	-0.762134	-0.802367
H132	H	1.425237	-0.823111	-0.726018
H133	H	1.270291	-0.856311	-0.795199
H134	H	1.279833	-0.795340	-0.871573
H135	H	1.356365	-0.856156	-0.881104
C136	C	1.382702	-0.927331	-0.641571
C137	C	1.320777	-0.975153	-0.703393
C138	C	1.255706	-0.938621	-0.768223
H139	H	1.424551	-0.898665	-0.685648
H140	H	1.338701	-0.898783	-0.599527
H141	H	1.364773	-1.003689	-0.745433
H142	H	1.278906	-1.003821	-0.659344
H143	H	1.211705	-0.910073	-0.726179
H144	H	1.297563	-0.909956	-0.812292
H145	H	1.213676	-0.971062	-0.810170
H146	H	1.357577	-0.605658	-0.666494
H147	H	0.792406	-0.428267	-0.667580
C148	C	1.603209	-0.815675	-0.421442
C149	C	1.659074	-0.863487	-0.365719
C150	C	1.728739	-0.826942	-0.296192
H151	H	1.564961	-0.787106	-0.373716
H152	H	1.650836	-0.787028	-0.459811
H153	H	1.611454	-0.892121	-0.327352
H154	H	1.697344	-0.892057	-0.413417
H155	H	1.776366	-0.798296	-0.334561
H156	H	1.690482	-0.798374	-0.248473
H157	H	1.766659	-0.859377	-0.258383
H158	H	1.636976	-0.248394	-0.823451
C159	C	1.220324	-0.428313	-0.667718
C160	C	1.253507	-0.477310	-0.743940
C161	C	1.363235	-0.477386	-0.744147
H162	H	1.244468	-0.440424	-0.600716
H163	H	1.248107	-0.383015	-0.683175
H164	H	1.225735	-0.522598	-0.728476
H165	H	1.229391	-0.465210	-0.810952
H166	H	1.391018	-0.432088	-0.759605
H167	H	1.387368	-0.489496	-0.677142
H168	H	1.385764	-0.510625	-0.795869
H169	H	1.409314	-0.850391	-0.615023
