data_functionalizedCrystal
_audit_creation_method	'MofGen! by Chris Wilmer'
_symmetry_space_group_name_H-M	'P1'
_symmetry_Int_Tables_number	1
_symmetry_cell_setting	triclinic
loop_
_symmetry_equiv_pos_as_xyz
  x,y,z
_cell_length_a	15.995350
_cell_length_b	10.489741
_cell_length_c	14.472310
_cell_angle_alpha	89.999301
_cell_angle_beta	89.990621
_cell_angle_gamma	84.015774
loop_
_atom_site_label
_atom_site_type_symbol
_atom_site_fract_x
_atom_site_fract_y
_atom_site_fract_z
O1	O	1.111988	0.164399	-0.076762
O2	O	0.868335	0.184702	-0.076781
O3	O	0.995706	-0.011125	-0.076766
O4	O	0.984617	0.360226	-0.076777
O5	O	0.995673	-0.011114	0.076916
O6	O	0.868302	0.184713	0.076901
O7	O	1.111955	0.164411	0.076920
Cu8	Cu	0.990125	0.174563	0.090943
Cu9	Cu	0.990164	0.174549	-0.090804
O10	O	0.984584	0.360237	0.076905
C11	C	0.837119	0.183868	0.000058
C12	C	0.744153	0.181352	0.000050
C13	C	0.994852	-0.058639	0.000075
C14	C	0.992346	-0.200234	0.000073
C15	C	0.406351	0.172315	0.000070
C16	C	0.452944	0.032851	0.000417
C17	C	0.549650	0.035368	0.000064
C18	C	0.573939	0.176797	0.000061
C19	C	0.533285	0.245579	-0.087698
C20	C	0.436628	0.242076	-0.087765
C21	C	0.436269	0.244970	0.087001
C22	C	0.533214	0.244937	0.088154
C23	C	0.668651	0.179338	0.000053
C24	C	0.311638	0.169778	0.000072
C25	C	0.911304	-0.267240	0.000060
C26	C	0.949571	-0.359892	0.075836
C27	C	0.949623	-0.359878	-0.075682
C28	C	1.030647	-0.291021	0.075912
C29	C	1.030687	-0.290998	-0.075675
C30	C	1.069013	-0.383624	0.000120
C31	C	1.143171	0.165244	0.000079
C32	C	1.236137	0.167761	0.000080
C33	C	0.985438	0.407752	0.000062
C34	C	0.987944	0.549346	0.000058
N35	N	0.990104	0.174572	0.218774
N36	N	0.990192	0.174531	-0.218635
C37	C	0.990163	0.174544	0.592865
C38	C	0.921777	0.278976	0.553691
C39	C	0.921938	0.279357	0.446603
C40	C	0.990133	0.174558	0.407274
C41	C	1.077673	0.203626	0.446117
C42	C	1.077290	0.204368	0.553238
C43	C	0.971787	0.040735	0.553397
C44	C	0.969789	0.041628	0.446269
C45	C	0.990122	0.174563	0.302386
C46	C	0.990181	0.174542	0.697753
H47	H	0.577739	-0.018699	0.062974
C48	C	0.799302	0.363074	0.638590
C49	C	0.833680	0.256003	0.588491
H50	H	0.744910	0.348891	0.660070
H51	H	0.834456	0.376390	0.689832
H52	H	0.795211	0.436552	0.599838
H53	H	0.837776	0.182525	0.627246
H54	H	0.798517	0.242671	0.537242
C55	C	0.944906	-0.364654	0.241619
C56	C	0.903266	-0.401116	0.162311
H57	H	0.916312	-0.390095	0.295001
H58	H	1.000921	-0.404901	0.241699
H59	H	0.945711	-0.274232	0.241948
H60	H	0.902466	-0.491539	0.161978
H61	H	0.847236	-0.360872	0.162231
H62	H	0.844671	-0.216656	0.000131
C63	C	0.830281	-0.002017	0.487925
C64	C	0.882853	0.011831	0.412004
H65	H	0.776610	-0.020403	0.466765
H66	H	0.854118	-0.070271	0.525836
H67	H	0.824452	0.075246	0.522655
H68	H	0.888688	-0.065434	0.377278
H69	H	0.859011	0.080092	0.374077
H70	H	0.933757	0.378654	0.420966
H71	H	1.064894	-0.260664	0.140046
H72	H	1.135706	-0.433981	0.000167
C73	C	1.204446	0.167709	0.641801
C74	C	1.148106	0.105594	0.588218
H75	H	1.248163	0.106729	0.663393
H76	H	1.227837	0.230379	0.605318
H77	H	1.175545	0.208125	0.693042
H78	H	1.177005	0.065186	0.536973
H79	H	1.124714	0.042901	0.624703
H80	H	1.064963	-0.260437	-0.139736
H81	H	0.933437	0.377714	0.580598
C82	C	0.820764	-0.341703	-0.162018
C83	C	0.903339	-0.401054	-0.162169
H84	H	0.792190	-0.367114	-0.215412
H85	H	0.792511	-0.366456	-0.108222
H86	H	0.821593	-0.251285	-0.162334
H87	H	0.902510	-0.491472	-0.161846
H88	H	0.931599	-0.376309	-0.215980
C89	C	1.112191	0.413622	0.510667
C90	C	1.098975	0.336107	0.586960
H91	H	1.125572	0.494957	0.531484
H92	H	1.157332	0.374130	0.474653
H93	H	1.062622	0.424366	0.474133
H94	H	1.148546	0.325356	0.623491
H95	H	1.053830	0.375609	0.622989
C96	C	1.091008	-0.018235	0.351896
C97	C	1.032583	-0.068204	0.410147
H98	H	1.129784	-0.086040	0.329604
H99	H	1.062460	0.024233	0.301238
H100	H	1.120415	0.040976	0.385348
H101	H	1.003172	-0.127408	0.376693
H102	H	1.061135	-0.110692	0.460813
H103	H	1.129811	0.129587	0.420640
C104	C	0.774767	0.353275	0.443608
C105	C	0.834121	0.256015	0.411160
H106	H	0.720548	0.338875	0.421729
H107	H	0.774809	0.353056	0.509238
H108	H	0.788683	0.433855	0.421847
H109	H	0.820208	0.175435	0.432926
H110	H	0.834076	0.256221	0.345516
C111	C	1.022227	-0.183021	0.552108
C112	C	1.039090	-0.064185	0.587598
H113	H	1.063781	-0.247783	0.573222
H114	H	0.968411	-0.201778	0.572516
H115	H	1.023065	-0.180100	0.486512
H116	H	1.038245	-0.067103	0.653193
H117	H	1.092920	-0.045424	0.567194
H118	H	0.434072	-0.022892	0.063353
H119	H	0.433029	-0.022644	-0.062167
H120	H	0.560214	0.194727	0.153077
H121	H	1.094107	0.300099	0.419278
H122	H	0.909296	0.012784	0.580461
H123	H	0.577193	-0.019074	-0.062951
C124	C	0.605306	0.411468	0.020323
C125	C	0.554779	0.384176	0.095305
H126	H	0.618612	0.497435	0.024730
H127	H	0.655671	0.354843	0.021067
H128	H	0.575894	0.400654	-0.035682
H129	H	0.584194	0.394981	0.151310
H130	H	0.504406	0.440818	0.094569
H131	H	0.418031	0.191907	-0.153364
H132	H	0.404998	0.344468	-0.091750
H133	H	0.548037	0.349484	-0.090963
H134	H	0.561385	0.197797	-0.153007
C135	C	0.435719	0.250160	0.252870
C136	C	0.408166	0.183427	0.176803
H137	H	0.418364	0.212158	0.308305
H138	H	0.495292	0.246534	0.251734
H139	H	0.412174	0.337041	0.250165
H140	H	0.431716	0.096547	0.179504
H141	H	0.348581	0.187039	0.177940
H142	H	0.405128	0.347796	0.087591
