data_functionalizedCrystal
_audit_creation_method	'MofGen! by Chris Wilmer'
_symmetry_space_group_name_H-M	'P1'
_symmetry_Int_Tables_number	1
_symmetry_cell_setting	triclinic
loop_
_symmetry_equiv_pos_as_xyz
  x,y,z
_cell_length_a	9.730223
_cell_length_b	11.026607
_cell_length_c	11.026607
_cell_angle_alpha	108.586017
_cell_angle_beta	89.999947
_cell_angle_gamma	89.999798
loop_
_atom_site_label
_atom_site_type_symbol
_atom_site_fract_x
_atom_site_fract_y
_atom_site_fract_z
O1	O	0.114287	-1.726725	-0.533617
O2	O	0.114289	-1.360145	-0.472853
O3	O	0.114283	-1.513053	-0.319945
O4	O	0.114292	-1.573817	-0.686525
O5	O	-0.114297	-1.513052	-0.319949
O6	O	-0.114291	-1.360144	-0.472857
O7	O	-0.114293	-1.726724	-0.533621
Zn8	Zn	-0.150584	-1.543433	-0.503240
Zn9	Zn	0.150580	-1.543435	-0.503234
O10	O	-0.114288	-1.573815	-0.686529
C11	C	-0.000001	-1.312485	-0.461645
C12	C	-0.000000	-1.170471	-0.428228
N13	N	-0.356121	-1.543442	-0.503245
C14	C	-0.000005	-1.501843	-0.272287
C15	C	-0.000000	-1.468426	-0.130273
C16	C	-0.428049	-1.611178	-0.435571
C17	C	-0.571932	-1.611171	-0.435555
C18	C	-0.571945	-1.475690	-0.570897
C19	C	-0.428065	-1.475690	-0.570905
C20	C	-0.356105	-1.678929	-0.367912
C21	C	-0.428034	-1.746672	-0.300233
C22	C	-0.571917	-1.746665	-0.300217
C23	C	-0.643871	-1.678916	-0.367879
N24	N	0.356116	-1.543435	-0.503221
C25	C	-0.000001	-1.774384	-0.544828
C26	C	0.000007	-1.916398	-0.578245
C27	C	0.000003	-1.116821	-0.520498
C28	C	0.000004	-0.970043	-0.485962
C29	C	0.000004	-1.585026	-0.734187
C30	C	0.000008	-1.618443	-0.876200
C31	C	0.000001	-1.560695	-0.076624
C32	C	0.000006	-1.526160	0.070155
H33	H	-0.369441	-1.801823	-0.245137
H34	H	0.000037	-0.907314	-0.381393
H35	H	-0.630480	-1.801813	-0.245101
H36	H	-0.761030	-1.678905	-0.367850
H37	H	-0.630540	-1.420533	-0.625986
H38	H	0.000110	-1.723013	0.061072
H39	H	-0.369500	-1.420532	-0.626010
H40	H	0.000032	-1.107738	-0.323666
H41	H	-0.000002	-1.179555	-0.625061
H42	H	0.000001	-0.979125	-0.682816
O43	O	0.000247	-1.685460	-0.151401
C44	C	0.118633	-1.887865	-0.209816
C45	C	0.118539	-1.746587	-0.125081
H46	H	0.214247	-1.937334	-0.188548
H47	H	0.118722	-1.893564	-0.314882
H48	H	0.022931	-1.937309	-0.188687
H49	H	0.214224	-1.697055	-0.146097
H50	H	0.118378	-1.740979	-0.020041
O51	O	0.000188	-1.343726	-0.055312
C52	C	0.118661	-1.177512	0.107239
C53	C	0.118603	-1.318770	0.022447
H54	H	0.214404	-1.157285	0.170109
H55	H	0.023070	-1.157210	0.170312
H56	H	0.118592	-1.113438	0.043992
H57	H	0.118720	-1.382937	0.085596
H58	H	0.214185	-1.338968	-0.040636
O59	O	-0.216339	-1.679022	-0.367745
C60	C	-0.009854	-1.753439	-0.293580
C61	C	-0.168135	-1.753415	-0.293632
H62	H	0.029168	-1.813601	-0.233688
H63	H	0.029291	-1.651150	-0.251173
H64	H	0.029160	-1.795656	-0.395933
H65	H	-0.207265	-1.711257	-0.191318
H66	H	-0.207186	-1.855726	-0.336112
H67	H	0.000016	-1.421590	0.132884
