data_functionalizedCrystal
_audit_creation_method	'MofGen! by Chris Wilmer'
_symmetry_space_group_name_H-M	'P1'
_symmetry_Int_Tables_number	1
_symmetry_cell_setting	triclinic
loop_
_symmetry_equiv_pos_as_xyz
  x,y,z
_cell_length_a	17.699077
_cell_length_b	15.625429
_cell_length_c	16.176319
_cell_angle_alpha	108.080593
_cell_angle_beta	90.005422
_cell_angle_gamma	83.780415
loop_
_atom_site_label
_atom_site_type_symbol
_atom_site_fract_x
_atom_site_fract_y
_atom_site_fract_z
O1	O	1.004376	0.113976	0.102898
O2	O	1.504376	0.613976	0.602898
O3	O	0.784036	0.128814	0.107349
O4	O	1.284036	0.628814	0.607349
O5	O	0.900092	-0.009854	0.065779
O6	O	1.400092	0.490146	0.565779
O7	O	0.888320	0.252644	0.144468
O8	O	1.388320	0.752644	0.644468
O9	O	0.900078	-0.009854	-0.071715
O10	O	1.400078	0.490146	0.428285
O11	O	0.784022	0.128814	-0.030144
O12	O	1.284022	0.628814	0.469856
O13	O	1.004363	0.113976	-0.034596
O14	O	1.504363	0.613976	0.465404
Cu15	Cu	0.894191	0.121395	-0.044924
Cu16	Cu	1.394191	0.621395	0.455076
Cu17	Cu	0.894207	0.121395	0.117678
Cu18	Cu	1.394207	0.621395	0.617678
O19	O	0.888307	0.252644	0.006975
O20	O	1.388307	0.752644	0.506975
C21	C	0.755830	0.128283	0.038444
C22	C	1.255830	0.628283	0.538444
C23	C	0.671808	0.126691	0.037968
C24	C	1.171808	0.626691	0.537968
C25	C	0.899551	-0.043440	-0.013034
C26	C	1.399551	0.456560	0.486966
C27	C	0.897953	-0.143516	-0.043029
C28	C	1.397953	0.356484	0.456971
C29	C	0.632331	0.125941	-0.037205
C30	C	1.132331	0.625941	0.462795
C31	C	0.553385	0.124430	-0.037659
C32	C	1.053385	0.624430	0.462341
C33	C	0.513916	0.123676	0.037063
C34	C	1.013916	0.623676	0.537063
C35	C	0.553398	0.124424	0.112242
C36	C	1.053398	0.624424	0.612242
C37	C	0.632344	0.125928	0.112693
C38	C	1.132344	0.625928	0.612693
C39	C	0.235019	0.118357	0.110425
C40	C	0.735019	0.618357	0.610425
C41	C	0.156068	0.116856	0.109969
C42	C	0.656068	0.616856	0.609969
C43	C	0.156060	0.116859	-0.039927
C44	C	0.656060	0.616859	0.460073
C45	C	0.235006	0.118363	-0.039476
C46	C	0.735006	0.618363	0.460524
C47	C	0.274482	0.119106	0.035700
C48	C	0.774482	0.619106	0.535700
C49	C	0.360085	0.120742	0.036191
C50	C	0.860085	0.620742	0.536191
C51	C	0.428314	0.122047	0.036576
C52	C	0.928314	0.622047	0.536576
C53	C	0.892712	-0.472653	0.233030
C54	C	1.392712	0.027347	0.733030
C55	C	0.891207	-0.566689	0.204820
C56	C	1.391207	-0.066689	0.704820
C57	C	0.891192	-0.566675	0.054934
C58	C	1.391192	-0.066675	0.554934
C59	C	0.892701	-0.472638	0.083132
C60	C	1.392701	0.027362	0.583132
C61	C	0.893460	-0.425634	0.172181
C62	C	1.393460	0.074366	0.672181
C63	C	0.893449	-0.425619	0.022282
C64	C	1.393449	0.074381	0.522282
C65	C	0.894954	-0.331590	0.050478
C66	C	1.394954	0.168410	0.550478
C67	C	0.895711	-0.284579	0.139523
C68	C	1.395711	0.215421	0.639523
C69	C	0.894965	-0.331604	0.200376
C70	C	1.394965	0.168396	0.700376
C71	C	0.892685	-0.472624	-0.066766
C72	C	1.392685	0.027376	0.433234
C73	C	0.893433	-0.425606	-0.127615
C74	C	1.393433	0.074394	0.372385
C75	C	0.894943	-0.331575	-0.099420
C76	C	1.394943	0.168425	0.400580
C77	C	0.895700	-0.284564	-0.010375
C78	C	1.395700	0.215436	0.489625
C79	C	0.895689	-0.284549	-0.160274
C80	C	1.395689	0.215451	0.339726
C81	C	0.897194	-0.190520	-0.132078
C82	C	1.397194	0.309480	0.367922
C83	C	0.897205	-0.190534	0.017820
C84	C	1.397205	0.309466	0.517820
C85	C	1.032568	0.114507	0.034311
C86	C	1.532568	0.614507	0.534311
C87	C	1.116590	0.116099	0.034793
C88	C	1.616590	0.616099	0.534793
C89	C	0.888847	0.286230	0.085790
C90	C	1.388847	0.786230	0.585790
C91	C	0.890445	0.386306	0.115790
C92	C	1.390445	0.886306	0.615790
N93	N	0.894185	0.121394	-0.159290
N94	N	1.394185	0.621394	0.340710
C95	C	0.940142	0.176004	-0.186180
C96	C	1.440142	0.676004	0.313820
C97	C	0.940150	0.176001	-0.272728
C98	C	1.440150	0.676001	0.227272
C99	C	0.894197	0.121391	-0.332383
C100	C	1.394197	0.621391	0.167617
C101	C	0.848238	0.066775	-0.305488
C102	C	1.348238	0.566775	0.194512
C103	C	0.848235	0.066774	-0.218943
C104	C	1.348235	0.566774	0.281057
C105	C	0.848252	0.066776	-0.654516
C106	C	1.348252	0.566776	-0.154516
C107	C	0.848258	0.066783	-0.741065
C108	C	1.348258	0.566783	-0.241065
C109	C	0.940168	0.176003	-0.708302
C110	C	1.440168	0.676003	-0.208302
C111	C	0.940164	0.176002	-0.621756
C112	C	1.440164	0.676002	-0.121756
C113	C	0.894209	0.121382	-0.594870
C114	C	1.394209	0.621382	-0.094870
C115	C	0.894202	0.121385	-0.501025
C116	C	1.394202	0.621385	-0.001025
C117	C	0.894200	0.121392	-0.426225
C118	C	1.394200	0.621392	0.073775
N119	N	0.894219	0.121389	0.232041
N120	N	1.394219	0.621389	0.732041
H121	H	0.664460	0.126562	-0.098051
H122	H	1.164460	0.626562	0.401949
H123	H	0.891452	-0.549188	-0.089720
H124	H	1.391452	-0.049188	0.410280
H125	H	0.664485	0.126541	0.173907
H126	H	1.164485	0.626541	0.673907
Cl127	Cl	0.997926	0.244668	-0.546762
Cl128	Cl	1.497926	0.744668	-0.046762
Cl129	Cl	0.890262	-0.625794	0.281327
Cl130	Cl	1.390262	-0.125794	0.781327
H131	H	0.977558	0.220479	-0.137612
H132	H	1.477558	0.720479	0.362388
H133	H	0.521248	0.123804	-0.098877
H134	H	1.021248	0.623804	0.401123
H135	H	0.977574	0.220468	-0.294618
H136	H	1.477574	0.720468	0.205382
H137	H	0.810812	0.022305	-0.197051
H138	H	1.310812	0.522305	0.302949
H139	H	0.897830	-0.152262	0.090332
H140	H	1.397830	0.347738	0.590332
H141	H	0.810826	0.022306	-0.354067
H142	H	1.310826	0.522306	0.145933
H143	H	0.267137	0.118981	-0.100322
H144	H	0.767137	0.618981	0.399678
Cl145	Cl	0.893678	-0.413556	0.344979
Cl146	Cl	1.393678	0.086444	0.844979
Cl147	Cl	0.997943	0.244666	-0.742107
Cl148	Cl	1.497943	0.744666	-0.242107
H149	H	0.896928	-0.208012	0.162479
H150	H	1.396928	0.291988	0.662479
Cl151	Cl	0.890232	-0.625773	-0.057008
Cl152	Cl	1.390232	-0.125773	0.442992
H153	H	0.123909	0.116250	-0.101141
H154	H	0.623909	0.616250	0.398859
Cl155	Cl	0.284636	0.119293	0.204933
Cl156	Cl	0.784636	0.619293	0.704933
H157	H	0.810835	0.022310	-0.789637
H158	H	1.310835	0.522310	-0.289637
H159	H	0.521257	0.123804	0.173080
H160	H	1.021257	0.623804	0.673080
H161	H	0.123935	0.116242	0.170820
H162	H	0.623935	0.616242	0.670820
Cl163	Cl	0.895931	-0.272508	0.312325
Cl164	Cl	1.395931	0.227492	0.812325
H165	H	0.892812	-0.463889	-0.200119
H166	H	1.392812	0.036111	0.299881
Cl167	Cl	0.894720	-0.343649	-0.272215
Cl168	Cl	1.394720	0.156351	0.227785
H169	H	0.810833	0.022301	-0.632637
H170	H	1.310833	0.522301	-0.132637
H171	H	0.897787	-0.152234	-0.181627
H172	H	1.397787	0.347766	0.318373
