data_functionalizedCrystal
_audit_creation_method	'MofGen! by Chris Wilmer'
_symmetry_space_group_name_H-M	'P1'
_symmetry_Int_Tables_number	1
_symmetry_cell_setting	triclinic
loop_
_symmetry_equiv_pos_as_xyz
  x,y,z
_cell_length_a	9.798715
_cell_length_b	14.971486
_cell_length_c	14.971506
_cell_angle_alpha	83.618258
_cell_angle_beta	89.998430
_cell_angle_gamma	90.001270
loop_
_atom_site_label
_atom_site_type_symbol
_atom_site_fract_x
_atom_site_fract_y
_atom_site_fract_z
O1	O	0.113329	-1.186952	-0.116560
O2	O	0.113366	-0.926553	-0.130518
O3	O	0.113343	-1.063723	0.006660
O4	O	0.113352	-1.049783	-0.253738
O5	O	-0.113639	-1.063712	0.006660
O6	O	-0.113616	-0.926543	-0.130518
O7	O	-0.113653	-1.186942	-0.116559
Zn8	Zn	-0.149673	-1.056741	-0.123539
Zn9	Zn	0.149386	-1.056754	-0.123539
O10	O	-0.113630	-1.049773	-0.253737
C11	C	-0.000121	-0.893223	-0.129894
C12	C	-0.000107	-0.793926	-0.128023
N13	N	-0.353773	-1.056738	-0.123538
C14	C	-0.000146	-1.063091	0.039984
C15	C	-0.000140	-1.061213	0.139281
C16	C	-0.421559	-1.114334	-0.065689
C17	C	-0.578722	-1.114348	-0.065685
N18	N	0.353485	-1.056764	-0.123533
C19	C	-0.000164	-1.220272	-0.117184
C20	C	-0.000169	-1.319569	-0.119054
C21	C	-0.000106	-0.736707	-0.208612
C22	C	-0.000126	-0.643407	-0.206849
C23	C	-0.000138	-0.607329	-0.124496
C24	C	-0.000143	-0.664556	-0.043901
C25	C	-0.000132	-0.757853	-0.045665
C26	C	-0.000161	-0.470093	-0.040230
C27	C	-0.000170	-0.376789	-0.038466
C28	C	-0.000156	-0.355647	-0.201414
C29	C	-0.000145	-0.448944	-0.203178
C30	C	-0.000147	-0.506165	-0.122582
C31	C	-0.000138	-1.050404	-0.287062
C32	C	-0.000135	-1.052282	-0.386358
C33	C	-0.000151	-1.134631	0.577563
C34	C	-0.000160	-1.136389	0.484263
C35	C	-0.000144	-1.055796	0.427043
C36	C	-0.000132	-0.973441	0.463127
C37	C	-0.000133	-0.971685	0.556426
C38	C	-0.000128	-0.977108	0.268664
C39	C	-0.000124	-0.978864	0.175359
C40	C	-0.000154	-1.141812	0.196501
C41	C	-0.000155	-1.140055	0.289800
C42	C	-0.000141	-1.057700	0.325878
H43	H	-0.363245	-1.163630	-0.016160
C44	C	-0.000092	-0.776385	-0.299201
H45	H	-0.000107	-0.728941	-0.346943
H46	H	0.079065	-0.812336	-0.303278
H47	H	-0.079252	-0.812344	-0.303275
H48	H	-0.637015	-1.163662	-0.016161
C49	C	-0.000190	-0.337103	0.052119
H50	H	-0.000209	-0.384542	0.099866
H51	H	0.078960	-0.301144	0.056197
H52	H	-0.079357	-0.301150	0.056185
C53	C	-0.000189	-1.232401	0.156820
H54	H	-0.000206	-1.221908	0.093060
H55	H	0.078956	-1.265598	0.176447
H56	H	-0.079361	-1.265578	0.176458
C57	C	-0.000121	-0.580469	-0.295496
H58	H	-0.000095	-0.615319	-0.344794
H59	H	-0.079280	-0.543640	-0.298200
H60	H	0.079038	-0.543629	-0.298191
H61	H	-0.000160	-0.309053	-0.267037
H62	H	-0.588230	-1.007455	-0.173066
H63	H	-0.000160	-1.205681	0.336387
C64	C	-0.000098	-0.886519	0.308349
H65	H	-0.000070	-0.838772	0.260910
H66	H	-0.079245	-0.882432	0.344309
H67	H	0.079072	-0.882461	0.344301
C68	C	-0.000148	-0.533033	0.048422
H69	H	-0.000138	-0.498186	0.097722
H70	H	-0.079291	-0.569880	0.051129
H71	H	0.079026	-0.569856	0.051112
H72	H	-0.000132	-0.804441	0.019958
H73	H	-0.412089	-1.007436	-0.173059
H74	H	-0.000123	-0.478316	-0.270236
H75	H	-0.000153	-1.200259	0.624146
H76	H	-0.000171	-0.635173	0.023152
H77	H	-0.000127	-0.907821	0.416531
C78	C	-0.000161	-1.226972	0.444580
H79	H	-0.000150	-1.274718	0.492020
H80	H	-0.079313	-1.231048	0.408624
H81	H	0.079004	-1.231043	0.408624
C82	C	-0.000113	-0.890215	0.112419
H83	H	-0.000124	-0.840916	0.147266
H84	H	0.079042	-0.887517	0.075585
H85	H	-0.079275	-0.887516	0.075584
C86	C	-0.000104	-0.881101	0.596113
H87	H	-0.000079	-0.833354	0.548674
H88	H	-0.079255	-0.877020	0.632071
H89	H	0.079063	-0.877039	0.632067
