data_functionalizedCrystal
_audit_creation_method	'MofGen! by Chris Wilmer'
_symmetry_space_group_name_H-M	'P1'
_symmetry_Int_Tables_number	1
_symmetry_cell_setting	triclinic
loop_
_symmetry_equiv_pos_as_xyz
  x,y,z
_cell_length_a	12.759401
_cell_length_b	13.031981
_cell_length_c	12.759393
_cell_angle_alpha	82.784016
_cell_angle_beta	89.979692
_cell_angle_gamma	97.192303
loop_
_atom_site_label
_atom_site_type_symbol
_atom_site_fract_x
_atom_site_fract_y
_atom_site_fract_z
Zn1	Zn	1.553150	-0.416059	-0.540837
Zn2	Zn	1.530727	-0.590869	-0.342814
Zn3	Zn	1.377444	-0.416109	-0.365167
Zn4	Zn	1.355135	-0.590795	-0.518461
O5	O	1.454114	-0.503458	-0.441820
O6	O	1.697195	-0.439258	-0.514579
O7	O	1.510346	-0.567739	-0.198751
O8	O	1.419472	-0.269837	-0.407189
O9	O	1.680722	-0.567690	-0.369092
O10	O	1.548562	-0.269800	-0.536253
O11	O	1.397730	-0.439344	-0.215174
O12	O	1.227465	-0.439272	-0.385492
O13	O	1.381450	-0.567564	-0.668457
O14	O	1.211074	-0.567613	-0.498117
O15	O	1.526930	-0.439186	-0.684897
O16	O	1.488714	-0.737125	-0.347395
O17	O	1.359707	-0.737070	-0.476442
C18	C	1.181149	-0.503440	-0.441802
C19	C	1.064370	-0.503458	-0.441816
C20	C	0.891213	-0.570242	-0.366002
C21	C	1.000939	-0.570226	-0.365984
C22	C	1.018071	-0.436693	-0.517664
C23	C	0.908348	-0.436704	-0.517677
C24	C	1.146077	-0.607407	-0.237243
C25	C	1.192371	-0.674181	-0.161406
C26	C	1.143718	-0.776152	-0.132069
C27	C	1.048771	-0.811371	-0.178582
C28	C	1.002482	-0.744603	-0.254426
C29	C	1.051135	-0.642617	-0.283745
C30	C	0.763206	-0.399534	-0.646418
C31	C	0.716915	-0.332771	-0.722268
C32	C	0.765565	-0.230797	-0.751615
C33	C	0.860515	-0.195582	-0.705120
C34	C	0.906807	-0.262346	-0.629270
C35	C	0.858149	-0.364318	-0.599921
C36	C	1.419385	-0.775022	-0.407088
C37	C	1.404625	-0.891199	-0.392265
C38	C	1.461874	-0.942892	-0.449577
C39	C	1.446619	-1.062966	-0.434258
C40	C	1.728145	-0.503477	-0.441838
C41	C	1.844921	-0.503485	-0.441846
C42	C	1.454203	-0.503361	-0.715866
C43	C	1.454241	-0.503319	-0.832648
C44	C	1.489007	-0.230833	-0.476710
C45	C	1.503876	-0.114657	-0.491579
C46	C	1.512918	-0.570097	-0.988704
C47	C	1.512886	-0.570147	-0.878974
C48	C	1.395615	-0.436446	-0.896058
C49	C	1.395641	-0.436402	-1.005785
C50	C	1.534608	-0.693477	-0.713251
C51	C	1.593245	-0.760339	-0.649846
C52	C	1.693713	-0.776381	-0.683421
C53	C	1.735567	-0.725546	-0.780401
C54	C	1.676937	-0.658677	-0.843801
C55	C	1.576452	-0.642655	-0.810225
C56	C	1.373930	-0.313070	-1.171511
C57	C	1.315305	-0.246195	-1.234913
C58	C	1.214837	-0.230143	-1.201341
C59	C	1.172989	-0.280959	-1.104361
C60	C	1.231614	-0.347834	-1.040958
C61	C	1.332080	-0.363888	-1.074537
C62	C	1.454096	-0.503480	-0.168850
C63	C	1.454299	-0.503227	-0.052106
H64	H	1.009171	-0.894411	-0.154698
O65	O	1.366740	-1.122083	-0.354223
H66	H	1.306990	-1.171842	-0.394890
O67	O	1.583773	-1.055551	-0.571602
H68	H	1.583226	-0.970515	-0.571073
O69	O	1.193645	-0.848161	-0.050259
H70	H	1.138117	-0.873092	0.017767
H71	H	0.723586	-0.482571	-0.622528
O72	O	1.064627	-0.263651	-1.068134
H73	H	1.005221	-0.288356	-1.126483
H74	H	1.344313	-0.935837	-0.331861
O75	O	1.186471	-0.402647	-0.936358
H76	H	1.239060	-0.379605	-0.871756
H77	H	1.560679	-0.624511	-1.026414
O78	O	1.722060	-0.603850	-0.948396
H79	H	1.801776	-0.626237	-0.961096
H80	H	0.900131	-0.112548	-0.729019
H81	H	1.167113	-0.175676	-1.252969
O82	O	1.198555	-0.497416	-0.268869
H83	H	1.144174	-0.441438	-0.251254
H84	H	1.069726	-0.382325	-0.579404
H85	H	1.522177	-0.898257	-0.509991
H86	H	1.817383	-0.738603	-0.807724
H87	H	1.741454	-0.830821	-0.631789
H88	H	1.559157	-0.801729	-0.570885
O89	O	1.426241	-0.676174	-0.677039
H90	H	1.407003	-0.722740	-0.598947
O91	O	1.332365	-0.364359	-0.846101
H92	H	1.342204	-0.375612	-0.759149
O93	O	1.482300	-0.330385	-1.207716
H94	H	1.501558	-0.283798	-1.285794
O95	O	0.614502	-0.370754	-0.772416
H96	H	0.590493	-0.307201	-0.830095
O97	O	1.294780	-0.636207	-0.111244
H98	H	1.320831	-0.554073	-0.144372
H99	H	1.349391	-0.204811	-1.313876
H100	H	0.839573	-0.624618	-0.304255
H101	H	0.727869	-0.176442	-0.813386
O102	O	0.900075	-0.782572	-0.304582
H103	H	0.911248	-0.850562	-0.345883
O104	O	1.009217	-0.224370	-0.579113
H105	H	1.035272	-0.142242	-0.612257
