data_functionalizedCrystal
_audit_creation_method	'MofGen! by Chris Wilmer'
_symmetry_space_group_name_H-M	'P1'
_symmetry_Int_Tables_number	1
_symmetry_cell_setting	triclinic
loop_
_symmetry_equiv_pos_as_xyz
  x,y,z
_cell_length_a	16.959454
_cell_length_b	16.959455
_cell_length_c	16.959447
_cell_angle_alpha	90.015228
_cell_angle_beta	89.973264
_cell_angle_gamma	89.985155
loop_
_atom_site_label
_atom_site_type_symbol
_atom_site_fract_x
_atom_site_fract_y
_atom_site_fract_z
Zn1	Zn	-0.314776	-1.208384	-0.446947
Zn2	Zn	0.185224	-0.708384	0.053053
Zn3	Zn	-0.446969	-1.208306	-0.314777
Zn4	Zn	0.053031	-0.708306	0.185223
Zn5	Zn	-0.314796	-1.076212	-0.314783
Zn6	Zn	0.185204	-0.576212	0.185217
Zn7	Zn	-0.446905	-1.076177	-0.446914
Zn8	Zn	0.053095	-0.576177	0.053086
O9	O	-0.380861	-1.142270	-0.380855
O10	O	0.119139	-0.642270	0.119145
O11	O	-0.332330	-1.318984	-0.429427
O12	O	0.167670	-0.818984	0.070573
O13	O	-0.429471	-1.190766	-0.204167
O14	O	0.070529	-0.690766	0.295833
O15	O	-0.204183	-1.093792	-0.332331
O16	O	0.295817	-0.593792	0.167669
O17	O	-0.429452	-1.318927	-0.332322
O18	O	0.070548	-0.818927	0.167678
O19	O	-0.204168	-1.190898	-0.429432
O20	O	0.295832	-0.690898	0.070568
O21	O	-0.332364	-1.093717	-0.204171
O22	O	0.167636	-0.593717	0.295829
O23	O	-0.332302	-0.965597	-0.332299
O24	O	0.167698	-0.465597	0.167701
O25	O	-0.429342	-1.093732	-0.557529
O26	O	0.070658	-0.593732	-0.057529
O27	O	-0.429362	-0.965571	-0.429374
O28	O	0.070638	-0.465571	0.070626
O29	O	-0.332268	-1.190864	-0.557554
O30	O	0.167732	-0.690864	-0.057554
O31	O	-0.557571	-1.190732	-0.332289
O32	O	-0.057571	-0.690732	0.167711
O33	O	-0.557524	-1.093657	-0.429369
O34	O	-0.057524	-0.593657	0.070631
C35	C	-0.380828	-0.936904	-0.380834
C36	C	0.119172	-0.436904	0.119166
C37	C	-0.380832	-0.849047	-0.380844
C38	C	0.119168	-0.349047	0.119156
C39	C	-0.330256	-0.477560	-0.330403
C40	C	0.169744	0.022440	0.169597
C41	C	-0.431482	-0.477582	-0.431332
C42	C	0.068518	0.022418	0.068668
C43	C	-0.431473	-0.560128	-0.431328
C44	C	0.068527	-0.060128	0.068672
C45	C	-0.380856	-0.601394	-0.380861
C46	C	0.119144	-0.101394	0.119139
C47	C	-0.330248	-0.560114	-0.330396
C48	C	0.169752	-0.060114	0.169604
C49	C	-0.482087	-0.601414	-0.481786
C50	C	0.017913	-0.101414	0.018214
C51	C	-0.482081	-0.683965	-0.481784
C52	C	0.017919	-0.183965	0.018216
C53	C	-0.431460	-0.725233	-0.431320
C54	C	0.068540	-0.225233	0.068680
C55	C	-0.380848	-0.683948	-0.380854
C56	C	0.119152	-0.183948	0.119146
C57	C	-0.330231	-0.725213	-0.330386
C58	C	0.169769	-0.225213	0.169614
C59	C	-0.279615	-0.683930	-0.279924
C60	C	0.220385	-0.183930	0.220076
C61	C	-0.279626	-0.601381	-0.279932
C62	C	0.220374	-0.101381	0.220068
C63	C	-0.431449	-0.807781	-0.431311
C64	C	0.068551	-0.307781	0.068689
C65	C	-0.330223	-0.807767	-0.330379
C66	C	0.169777	-0.307767	0.169621
C67	C	-0.586228	-1.142204	-0.380842
C68	C	-0.086228	-0.642204	0.119158
C69	C	-0.674084	-1.142248	-0.380863
C70	C	-0.174084	-0.642248	0.119137
C71	C	-1.045565	-1.091796	-0.431399
C72	C	-0.545565	-0.591796	0.068601
C73	C	-1.045554	-1.192963	-0.330392
C74	C	-0.545554	-0.692963	0.169608
C75	C	-0.963008	-1.192936	-0.330384
C76	C	-0.463008	-0.692936	0.169616
C77	C	-0.921737	-1.142337	-0.380885
C78	C	-0.421737	-0.642337	0.119115
C79	C	-0.963012	-1.091765	-0.431392
C80	C	-0.463012	-0.591765	0.068608
C81	C	-0.921728	-1.243501	-0.279872
C82	C	-0.421728	-0.743501	0.220128
C83	C	-0.839177	-1.243475	-0.279862
C84	C	-0.339177	-0.743475	0.220138
C85	C	-0.797904	-1.192879	-0.330367
C86	C	-0.297904	-0.692879	0.169633
C87	C	-0.839184	-1.142306	-0.380877
C88	C	-0.339184	-0.642306	0.119123
C89	C	-0.797912	-1.091707	-0.431377
C90	C	-0.297912	-0.591707	0.068623
C91	C	-0.839190	-1.041137	-0.481892
C92	C	-0.339190	-0.541137	0.018108
C93	C	-0.921739	-1.041170	-0.481897
C94	C	-0.421739	-0.541170	0.018103
C95	C	-0.715356	-1.192847	-0.330362
C96	C	-0.215356	-0.692847	0.169638
C97	C	-0.715359	-1.091676	-0.431370
C98	C	-0.215359	-0.591676	0.068630
C99	C	-0.174693	-1.142358	-0.380886
C100	C	0.325307	-0.642358	0.119114
C101	C	-0.086837	-1.142395	-0.380899
C102	C	0.413163	-0.642395	0.119101
C103	C	-0.380796	-1.142303	-0.587024
C104	C	0.119204	-0.642303	-0.087024
C105	C	-0.380768	-1.142317	-0.674880
C106	C	0.119232	-0.642317	-0.174880
C107	C	-0.380886	-0.348438	-0.380873
C108	C	0.119114	0.151562	0.119127
C109	C	-0.380873	-0.436295	-0.380871
C110	C	0.119127	0.063705	0.119129
C111	C	-0.431227	-1.091839	-1.046346
C112	C	0.068773	-0.591839	-0.546346
C113	C	-0.330143	-1.192983	-1.046367
C114	C	0.169857	-0.692983	-0.546367
C115	C	-0.330159	-1.192962	-0.963821
C116	C	0.169841	-0.692962	-0.463821
C117	C	-0.380711	-1.142380	-0.922533
C118	C	0.119289	-0.642380	-0.422533
C119	C	-0.431247	-1.091818	-0.963792
C120	C	0.068753	-0.591818	-0.463792
C121	C	-0.279631	-1.243529	-0.922556
C122	C	0.220369	-0.743529	-0.422556
C123	C	-0.279646	-1.243510	-0.840005
C124	C	0.220354	-0.743510	-0.340005
C125	C	-0.330195	-1.192923	-0.798716
C126	C	0.169805	-0.692923	-0.298716
C127	C	-0.380731	-1.142359	-0.839980
C128	C	0.119269	-0.642359	-0.339980
C129	C	-0.431283	-1.091776	-0.798693
C130	C	0.068717	-0.591776	-0.298693
C131	C	-0.481817	-1.041207	-0.839955
C132	C	0.018183	-0.541207	-0.339955
C133	C	-0.481795	-1.041231	-0.922503
C134	C	0.018205	-0.541231	-0.422503
C135	C	-0.330216	-1.192899	-0.716168
C136	C	0.169784	-0.692899	-0.216168
C137	C	-0.431303	-1.091755	-0.716139
C138	C	0.068697	-0.591755	-0.216139
C139	C	-0.380870	-1.142282	-0.175489
C140	C	0.119130	-0.642282	0.324511
C141	C	-0.380675	-1.142422	-0.087633
C142	C	0.119325	-0.642422	0.412367
H143	H	-0.472696	-0.443979	-0.472416
H144	H	0.027304	0.056021	0.027584
O145	O	-0.799181	-0.992028	-0.531058
O146	O	-0.299181	-0.492028	-0.031058
C147	C	-0.819272	-1.009277	-0.609858
C148	C	-0.319272	-0.509277	-0.109858
H149	H	-0.879190	-1.039678	-0.611537
H150	H	-0.379190	-0.539678	-0.111537
H151	H	-0.822102	-0.952211	-0.645254
H152	H	-0.322102	-0.452211	-0.145254
H153	H	-0.772771	-1.049886	-0.636503
H154	H	-0.272771	-0.549886	-0.136503
H155	H	-0.289075	-1.234074	-0.682575
H156	H	0.210925	-0.734074	-0.182575
H157	H	-0.238479	-1.284715	-0.956178
H158	H	0.261521	-0.784715	-0.456178
H159	H	-0.955355	-0.999998	-0.523022
H160	H	-0.455355	-0.499998	-0.023022
H161	H	-0.523302	-0.567810	-0.522869
H162	H	-0.023302	-0.067810	-0.022869
H163	H	-0.523295	-0.717571	-0.522874
H164	H	-0.023295	-0.217571	-0.022874
O165	O	-0.230504	-1.292508	-0.799847
O166	O	0.269496	-0.792508	-0.299847
C167	C	-0.179442	-1.247499	-0.752139
C168	C	0.320558	-0.747499	-0.252139
H169	H	-0.207326	-1.187590	-0.739759
H170	H	0.292674	-0.687590	-0.239759
H171	H	-0.168842	-1.279680	-0.694095
H172	H	0.331158	-0.779680	-0.194095
H173	H	-0.120868	-1.238831	-0.783983
H174	H	0.379132	-0.738831	-0.283983
H175	H	-0.522980	-1.000026	-0.806328
H176	H	-0.022980	-0.500026	-0.306328
H177	H	-0.238418	-0.567761	-0.238847
H178	H	0.261582	-0.067761	0.261153
O179	O	-0.530993	-0.992157	-0.962500
O180	O	-0.030993	-0.492157	-0.462500
C181	C	-0.609781	-1.009406	-0.942326
C182	C	-0.109781	-0.509406	-0.442326
H183	H	-0.611440	-1.039768	-0.882386
H184	H	-0.111440	-0.539768	-0.382386
H185	H	-0.645217	-0.952345	-0.939501
H186	H	-0.145217	-0.452345	-0.439501
H187	H	-0.636397	-1.050051	-0.988776
H188	H	-0.136397	-0.550051	-0.488776
O189	O	-0.480423	-1.042759	-1.086336
O190	O	0.019577	-0.542759	-0.586336
C191	C	-0.559212	-1.060009	-1.066163
C192	C	-0.059212	-0.560009	-0.566163
H193	H	-0.560871	-1.090382	-1.006229
H194	H	-0.060871	-0.590382	-0.506229
H195	H	-0.594646	-1.002946	-1.063327
H196	H	-0.094646	-0.502946	-0.563327
H197	H	-0.585830	-1.100644	-1.112621
H198	H	-0.085830	-0.600644	-0.612621
O199	O	-0.675185	-1.042484	-0.480319
O200	O	-0.175185	-0.542484	0.019681
C201	C	-0.627511	-0.991425	-0.435267
C202	C	-0.127511	-0.491425	0.064733
H203	H	-0.615158	-1.019333	-0.375389
H204	H	-0.115158	-0.519333	0.124611
H205	H	-0.569451	-0.980788	-0.467449
H206	H	-0.069451	-0.480788	0.032551
H207	H	-0.659370	-0.932868	-0.426535
H208	H	-0.159370	-0.432868	0.073465
H209	H	-0.472462	-1.050557	-0.682529
H210	H	0.027538	-0.550557	-0.182529
O211	O	-1.085745	-1.042785	-0.480505
O212	O	-0.585745	-0.542785	0.019495
C213	C	-1.133419	-1.087773	-0.531619
C214	C	-0.633419	-0.587773	-0.031619
H215	H	-1.145764	-1.147697	-0.503798
H216	H	-0.645764	-0.647697	-0.003798
H217	H	-1.191482	-1.055592	-0.542192
H218	H	-0.691482	-0.555592	-0.042192
H219	H	-1.101563	-1.096407	-0.590199
H220	H	-0.601563	-0.596407	-0.090199
O221	O	-0.281069	-1.242046	-1.086592
O222	O	0.218931	-0.742046	-0.586592
C223	C	-0.291906	-1.231240	-1.168299
C224	C	0.208094	-0.731240	-0.668299
H225	H	-0.317779	-1.170232	-1.179568
H226	H	0.182221	-0.670232	-0.679568
H227	H	-0.232696	-1.236639	-1.199691
H228	H	0.267304	-0.736639	-0.699691
H229	H	-0.334005	-1.278113	-1.191710
H230	H	0.165995	-0.778113	-0.691710
H231	H	-0.289043	-0.443944	-0.289320
H232	H	0.210957	0.056056	0.210680
O233	O	-1.085764	-1.242057	-0.281383
O234	O	-0.585764	-0.742057	0.218617
C235	C	-1.167475	-1.231207	-0.292187
C236	C	-0.667475	-0.731207	0.207813
H237	H	-1.178742	-1.205321	-0.353178
H238	H	-0.678742	-0.705321	0.146822
H239	H	-1.198833	-1.290414	-0.286834
H240	H	-0.698833	-0.790414	0.213166
H241	H	-1.190925	-1.189114	-0.245287
H242	H	-0.690925	-0.689114	0.254713
H243	H	-0.472662	-0.841390	-0.472395
H244	H	0.027338	-0.341390	0.027605
O245	O	-0.961888	-1.292666	-0.230895
O246	O	-0.461888	-0.792666	0.269105
C247	C	-1.009644	-1.343699	-0.275890
C248	C	-0.509644	-0.843699	0.224110
H249	H	-0.984725	-1.348638	-0.338137
H250	H	-0.484725	-0.848638	0.161863
H251	H	-1.010630	-1.404510	-0.247281
H252	H	-0.510630	-0.904510	0.252719
H253	H	-1.072193	-1.319216	-0.278638
H254	H	-0.572193	-0.819216	0.221362
H255	H	-0.289000	-0.841360	-0.289286
H256	H	0.211000	-0.341360	0.210714
O257	O	-0.230559	-0.724107	-0.230860
O258	O	0.269441	-0.224107	0.269140
C259	C	-0.275503	-0.771812	-0.179716
C260	C	0.224497	-0.271812	0.320284
H261	H	-0.335440	-0.784166	-0.207491
H262	H	0.164560	-0.284166	0.292509
H263	H	-0.243299	-0.829868	-0.169177
H264	H	0.256701	-0.329868	0.330823
H265	H	-0.284112	-0.739977	-0.121126
H266	H	0.215888	-0.239977	0.378874
H267	H	-0.681751	-1.234016	-0.289230
H268	H	-0.181751	-0.734016	0.210770
O269	O	-0.799205	-1.292675	-0.230775
O270	O	-0.299205	-0.792675	0.269225
C271	C	-0.853335	-1.337325	-0.186190
C272	C	-0.353335	-0.837325	0.313810
H273	H	-0.912161	-1.340057	-0.218571
H274	H	-0.412161	-0.840057	0.281429
H275	H	-0.829454	-1.399602	-0.177818
H276	H	-0.329454	-0.899602	0.322182
H277	H	-0.862161	-1.308425	-0.126131
H278	H	-0.362161	-0.808425	0.373869
