data_functionalizedCrystal
_audit_creation_method	'MofGen! by Chris Wilmer'
_symmetry_space_group_name_H-M	'P1'
_symmetry_Int_Tables_number	1
_symmetry_cell_setting	triclinic
loop_
_symmetry_equiv_pos_as_xyz
  x,y,z
_cell_length_a	18.215407
_cell_length_b	16.959454
_cell_length_c	18.215399
_cell_angle_alpha	89.976304
_cell_angle_beta	89.980167
_cell_angle_gamma	90.020523
loop_
_atom_site_label
_atom_site_type_symbol
_atom_site_fract_x
_atom_site_fract_y
_atom_site_fract_z
Zn1	Zn	1.125097	-0.314680	-0.416138
Zn2	Zn	1.625097	0.185320	0.083862
Zn3	Zn	1.125015	-0.446866	-0.293080
Zn4	Zn	1.625015	0.053134	0.206920
Zn5	Zn	1.002029	-0.314706	-0.293085
Zn6	Zn	1.502029	0.185294	0.206915
Zn7	Zn	1.002005	-0.446822	-0.416105
Zn8	Zn	1.502005	0.053178	0.083895
O9	O	1.063537	-0.380768	-0.354602
O10	O	1.563537	0.119232	0.145398
O11	O	1.228070	-0.332222	-0.399825
O12	O	1.728070	0.167778	0.100175
O13	O	1.108677	-0.429364	-0.190097
O14	O	1.608677	0.070636	0.309903
O15	O	1.018398	-0.204092	-0.309424
O16	O	1.518398	0.295908	0.190576
O17	O	1.228010	-0.429339	-0.309416
O18	O	1.728010	0.070661	0.190584
O19	O	1.108815	-0.204073	-0.399830
O20	O	1.608815	0.295927	0.100170
O21	O	1.018319	-0.332267	-0.190100
O22	O	1.518319	0.167733	0.309900
O23	O	0.899042	-0.332224	-0.309392
O24	O	1.399042	0.167776	0.190608
O25	O	1.018358	-0.429264	-0.519094
O26	O	1.518358	0.070736	-0.019094
O27	O	0.899024	-0.429289	-0.399775
O28	O	1.399024	0.070711	0.100225
O29	O	1.108792	-0.332180	-0.519118
O30	O	1.608792	0.167820	-0.019118
O31	O	1.108654	-0.557471	-0.309385
O32	O	1.608654	-0.057471	0.190615
O33	O	1.018279	-0.557438	-0.399770
O34	O	1.518279	-0.057438	0.100230
C35	C	0.872330	-0.380755	-0.354581
C36	C	1.372330	0.119245	0.145419
C37	C	0.790531	-0.380768	-0.354589
C38	C	1.290531	0.119232	0.145411
C39	C	1.063475	-0.586135	-0.354590
C40	C	1.563475	-0.086135	0.145410
C41	C	1.063516	-0.673991	-0.354609
C42	C	1.563516	-0.173991	0.145391
C43	C	0.602348	-0.431389	-0.401593
C44	C	1.102348	0.068611	0.098407
C45	C	0.525489	-0.431392	-0.401602
C46	C	1.025489	0.068608	0.098398
C47	C	0.525478	-0.330162	-0.307628
C48	C	1.025478	0.169838	0.192372
C49	C	0.602335	-0.330156	-0.307623
C50	C	1.102335	0.169844	0.192377
C51	C	0.640768	-0.380774	-0.354604
C52	C	1.140768	0.119226	0.145396
C53	C	0.487052	-0.380782	-0.354618
C54	C	0.987052	0.119218	0.145382
C55	C	0.403718	-0.380785	-0.354628
C56	C	0.903718	0.119215	0.145372
C57	C	0.724107	-0.380771	-0.354596
C58	C	1.224107	0.119229	0.145404
C59	C	1.016547	-1.045480	-0.401661
C60	C	1.516547	-0.545480	0.098339
C61	C	1.110731	-1.045454	-0.307618
C62	C	1.610731	-0.545454	0.192382
C63	C	1.110706	-0.962908	-0.307611
C64	C	1.610706	-0.462908	0.192389
C65	C	1.063599	-0.921644	-0.354629
C66	C	1.563599	-0.421644	0.145371
C67	C	1.016518	-0.962926	-0.401654
C68	C	1.516518	-0.462926	0.098346
C69	C	1.157781	-0.921619	-0.260582
C70	C	1.657781	-0.421619	0.239418
C71	C	1.157756	-0.839068	-0.260573
C72	C	1.657756	-0.339068	0.239427
C73	C	1.110653	-0.797803	-0.307595
C74	C	1.610653	-0.297803	0.192405
C75	C	1.063570	-0.839091	-0.354622
C76	C	1.563570	-0.339091	0.145378
C77	C	1.016464	-0.797827	-0.401640
C78	C	1.516464	-0.297827	0.098360
C79	C	0.969384	-0.839113	-0.448672
C80	C	1.469384	-0.339113	0.051328
C81	C	0.969414	-0.921661	-0.448676
C82	C	1.469414	-0.421661	0.051324
C83	C	1.110623	-0.715255	-0.307591
C84	C	1.610623	-0.215255	0.192409
C85	C	1.016435	-0.715273	-0.401634
C86	C	1.516435	-0.215273	0.098366
C87	C	1.255489	-0.380783	-0.354624
C88	C	1.755489	0.119217	0.145376
C89	C	1.337288	-0.380789	-0.354633
C90	C	1.837288	0.119211	0.145367
C91	C	1.063581	-0.380714	-0.546555
C92	C	1.563581	0.119286	-0.046555
C93	C	1.063601	-0.380691	-0.628354
C94	C	1.563601	0.119309	-0.128354
C95	C	1.063619	-0.174600	-0.354631
C96	C	1.563619	0.325400	0.145369
C97	C	1.063653	-0.086744	-0.354643
C98	C	1.563653	0.413256	0.145357
C99	C	1.110707	-0.330092	-0.816562
C100	C	1.610707	0.169908	-0.316562
C101	C	1.110716	-0.330069	-0.893420
C102	C	1.610716	0.169931	-0.393420
C103	C	1.016546	-0.431167	-0.893384
C104	C	1.516546	0.068833	-0.393384
C105	C	1.016534	-0.431186	-0.816527
C106	C	1.516534	0.068814	-0.316527
C107	C	1.063619	-0.380649	-0.778118
C108	C	1.563619	0.119351	-0.278118
C109	C	1.063639	-0.380608	-0.931834
C110	C	1.563639	0.119392	-0.431834
C111	C	1.063649	-0.380583	-1.015168
C112	C	1.563649	0.119417	-0.515168
C113	C	1.063609	-0.380672	-0.694779
C114	C	1.563609	0.119328	-0.194779
C115	C	1.063534	-0.380766	-0.163396
C116	C	1.563534	0.119234	0.336604
C117	C	1.063658	-0.380566	-0.081597
C118	C	1.563658	0.119434	0.418403
H119	H	0.494211	-0.472606	-0.439866
H120	H	0.994211	0.027394	0.060134
H121	H	0.978218	-1.079098	-0.439955
H122	H	1.478218	-0.579098	0.060045
H123	H	0.931026	-0.805506	-0.486951
H124	H	1.431026	-0.305506	0.013049
H125	H	0.494176	-0.288952	-0.269376
H126	H	0.994176	0.211048	0.230624
H127	H	0.978184	-0.472355	-0.785225
H128	H	1.478184	0.027645	-0.285225
C129	C	1.161813	-1.090394	-0.256620
C130	C	1.661813	-0.590394	0.243380
C131	C	1.151757	-1.171523	-0.266687
C132	C	1.651757	-0.671523	0.233313
C133	C	1.198796	-1.212949	-0.219711
C134	C	1.698796	-0.712949	0.280289
H135	H	1.151085	-1.076976	-0.207143
H136	H	1.651085	-0.576976	0.292857
H137	H	1.211276	-1.076888	-0.267413
H138	H	1.711276	-0.576888	0.232587
H139	H	1.102305	-1.185023	-0.255888
H140	H	1.602305	-0.685023	0.244112
H141	H	1.162490	-1.184964	-0.316154
H142	H	1.662490	-0.684964	0.183846
H143	H	1.248259	-1.199443	-0.230505
H144	H	1.748259	-0.699443	0.269495
H145	H	1.188064	-1.199525	-0.170237
H146	H	1.688064	-0.699525	0.329763
H147	H	1.191984	-1.267999	-0.226540
H148	H	1.691984	-0.767999	0.273460
C149	C	0.965369	-0.670333	-0.452656
C150	C	1.465369	-0.170333	0.047344
C151	C	0.975428	-0.589203	-0.442597
C152	C	1.475428	-0.089203	0.057403
C153	C	0.928406	-0.547781	-0.489593
C154	C	1.428406	-0.047781	0.010407
H155	H	0.915903	-0.683814	-0.441890
H156	H	1.415903	-0.183814	0.058110
H157	H	0.976125	-0.683779	-0.502130
H158	H	1.476125	-0.183779	-0.002130
H159	H	0.964666	-0.575763	-0.393135
H160	H	1.464666	-0.075763	0.106865
H161	H	1.024884	-0.575699	-0.453368
H162	H	1.524884	-0.075699	0.046632
H163	H	0.939163	-0.561226	-0.539067
H164	H	1.439163	-0.061226	-0.039067
H165	H	0.878944	-0.561268	-0.478823
H166	H	1.378944	-0.061268	0.021177
H167	H	0.935230	-0.492730	-0.482780
H168	H	1.435230	0.007270	0.017220
H169	H	0.633617	-0.288934	-0.269359
H170	H	1.133617	0.211066	0.230641
C171	C	0.918325	-0.966629	-0.499649
C172	C	1.418325	-0.466629	0.000351
C173	C	0.928417	-1.047752	-0.489572
C174	C	1.428417	-0.547752	0.010428
C175	C	0.881358	-1.089204	-0.536504
C176	C	1.381358	-0.589204	-0.036504
H177	H	0.929012	-0.953166	-0.549136
H178	H	1.429012	-0.453166	-0.049136
H179	H	0.868865	-0.953188	-0.488821
H180	H	1.368865	-0.453188	0.011179
H181	H	0.977866	-1.061188	-0.500405
H182	H	1.477866	-0.561188	-0.000405
H183	H	0.917725	-1.061238	-0.440094
H184	H	1.417725	-0.561238	0.059906
H185	H	0.831898	-1.075763	-0.525677
H186	H	1.331898	-0.575763	-0.025677
H187	H	0.892049	-1.075735	-0.585989
H188	H	1.392049	-0.575735	-0.085989
H189	H	0.888194	-1.144250	-0.529669
H190	H	1.388194	-0.644250	-0.029669
H191	H	1.196127	-0.955222	-0.222297
H192	H	1.696127	-0.455222	0.277703
H193	H	0.633638	-0.472604	-0.439850
H194	H	1.133638	0.027396	0.060150
H195	H	1.196091	-0.805459	-0.222279
H196	H	1.696091	-0.305459	0.277721
H197	H	1.149044	-0.288940	-0.785291
H198	H	1.649044	0.211060	-0.285291
C199	C	1.161607	-0.670387	-0.256443
C200	C	1.661607	-0.170387	0.243557
C201	C	1.119943	-0.623067	-0.209224
C202	C	1.619943	-0.123067	0.290776
C203	C	1.166886	-0.581732	-0.162088
C204	C	1.666886	-0.081732	0.337912
H205	H	1.193662	-0.638081	-0.284534
H206	H	1.693662	-0.138081	0.215466
H207	H	1.189650	-0.706759	-0.228395
H208	H	1.689650	-0.206759	0.271605
H209	H	1.091912	-0.586700	-0.237268
H210	H	1.591912	-0.086700	0.262732
H211	H	1.087890	-0.655354	-0.181116
H212	H	1.587890	-0.155354	0.318884
H213	H	1.194930	-0.618104	-0.134040
H214	H	1.694930	-0.118104	0.365960
H215	H	1.198939	-0.549430	-0.190185
H216	H	1.698939	-0.049430	0.309815
H217	H	1.138624	-0.549626	-0.130040
H218	H	1.638624	-0.049626	0.369960
H219	H	1.149058	-0.288899	-0.924718
H220	H	1.649058	0.211101	-0.424718
H221	H	0.978214	-0.472314	-0.924667
H222	H	1.478214	0.027686	-0.424667
