data_functionalizedCrystal
_audit_creation_method	'MofGen! by Chris Wilmer'
_symmetry_space_group_name_H-M	'P1'
_symmetry_Int_Tables_number	1
_symmetry_cell_setting	triclinic
loop_
_symmetry_equiv_pos_as_xyz
  x,y,z
_cell_length_a	8.597366
_cell_length_b	8.559648
_cell_length_c	8.965430
_cell_angle_alpha	89.996022
_cell_angle_beta	97.698818
_cell_angle_gamma	102.376729
loop_
_atom_site_label
_atom_site_type_symbol
_atom_site_fract_x
_atom_site_fract_y
_atom_site_fract_z
O1	O	2.053712	-0.238013	0.139946
O2	O	1.594584	-0.256282	0.080941
O3	O	1.864597	-0.015177	0.115605
O4	O	1.783698	-0.479118	0.105282
O5	O	1.864587	-0.015154	0.363683
O6	O	1.594573	-0.256259	0.329018
O7	O	2.053701	-0.237990	0.388024
Cu8	Cu	1.824136	-0.247122	0.381172
Cu9	Cu	1.824149	-0.247150	0.087792
O10	O	1.783688	-0.479095	0.353359
C11	C	1.536344	-0.254310	0.197495
C12	C	1.362826	-0.248451	0.175193
C13	C	1.870723	0.044269	0.240419
C14	C	1.888972	0.221364	0.242727
C15	C	2.111941	-0.239962	0.271466
C16	C	2.285458	-0.245821	0.293759
N17	N	1.824139	-0.247102	0.587522
C18	C	1.777562	0.461459	0.228500
C19	C	1.759313	0.284364	0.226058
N20	N	1.824160	-0.247157	-0.118556
C21	C	1.948262	-0.134709	0.800127
C22	C	1.962601	-0.278874	0.702515
C23	C	1.809867	-0.102951	0.682934
C24	C	1.838562	-0.391395	0.786030
C25	C	1.685777	-0.215377	0.766451
C26	C	1.700045	-0.359645	0.668875
H27	H	1.634346	0.202817	0.210016
N28	N	2.087352	-0.008936	0.875804
H29	H	2.085781	-0.009166	0.988247
H30	H	2.077569	0.099696	0.836729
N31	N	2.117588	-0.314479	0.664522
H32	H	2.188409	-0.329624	0.760406
H33	H	2.174943	-0.222269	0.608288
N34	N	1.561005	-0.485706	0.593560
H35	H	1.487894	-0.433213	0.522148
H36	H	1.498817	-0.543309	0.672632
N37	N	2.054515	0.329390	0.263992
H38	H	2.114972	0.307853	0.179801
H39	H	2.114830	0.307803	0.363769
H40	H	1.850770	-0.513357	0.831082
H41	H	1.296322	-0.246206	0.056613
H42	H	1.351974	-0.248054	0.412347
N43	N	1.530831	-0.179739	0.804492
H44	H	1.520149	-0.070744	0.767026
H45	H	1.531674	-0.181160	0.917238
N46	N	1.793851	0.058550	0.623024
H47	H	1.887666	0.143378	0.671221
H48	H	1.690200	0.083264	0.647468
