data_functionalizedCrystal
_audit_creation_method	'MofGen! by Chris Wilmer'
_symmetry_space_group_name_H-M	'P1'
_symmetry_Int_Tables_number	1
_symmetry_cell_setting	triclinic
loop_
_symmetry_equiv_pos_as_xyz
  x,y,z
_cell_length_a	14.519709
_cell_length_b	16.109301
_cell_length_c	15.186229
_cell_angle_alpha	90.005167
_cell_angle_beta	89.997743
_cell_angle_gamma	83.570813
loop_
_atom_site_label
_atom_site_type_symbol
_atom_site_fract_x
_atom_site_fract_y
_atom_site_fract_z
O1	O	-1.223634	-0.108984	-0.073117
O2	O	-0.973634	0.141016	0.176883
O3	O	-0.723634	0.391016	0.426883
O4	O	-0.473634	0.641016	0.676883
O5	O	-0.955130	-0.121819	-0.073144
O6	O	-0.705130	0.128181	0.176856
O7	O	-0.455130	0.378181	0.426856
O8	O	-0.205130	0.628181	0.676856
O9	O	-1.096758	0.005617	-0.073121
O10	O	-0.846758	0.255617	0.176879
O11	O	-0.596758	0.505617	0.426879
O12	O	-0.346758	0.755617	0.676879
O13	O	-1.082006	-0.236420	-0.073140
O14	O	-0.832006	0.013580	0.176860
O15	O	-0.582006	0.263580	0.426860
O16	O	-0.332006	0.513580	0.676860
O17	O	-1.096748	0.005618	0.073337
O18	O	-0.846748	0.255618	0.323337
O19	O	-0.596748	0.505618	0.573337
O20	O	-0.346748	0.755618	0.823337
O21	O	-0.955120	-0.121817	0.073313
O22	O	-0.705120	0.128183	0.323313
O23	O	-0.455120	0.378183	0.573313
O24	O	-0.205120	0.628183	0.823313
O25	O	-1.223625	-0.108983	0.073340
O26	O	-0.973625	0.141017	0.323340
O27	O	-0.723625	0.391017	0.573340
O28	O	-0.473625	0.641017	0.823340
Zn29	Zn	-1.089371	-0.115400	0.096580
Zn30	Zn	-0.839371	0.134600	0.346580
Zn31	Zn	-0.589371	0.384600	0.596580
Zn32	Zn	-0.339371	0.634600	0.846580
Zn33	Zn	-1.089383	-0.115402	-0.096384
Zn34	Zn	-0.839383	0.134598	0.153616
Zn35	Zn	-0.589383	0.384598	0.403616
Zn36	Zn	-0.339383	0.634598	0.653616
O37	O	-1.081996	-0.236418	0.073317
O38	O	-0.831996	0.013582	0.323317
O39	O	-0.581996	0.263582	0.573317
O40	O	-0.331996	0.513582	0.823317
C41	C	-0.920766	-0.121220	0.000081
C42	C	-0.670766	0.128780	0.250081
C43	C	-0.420766	0.378780	0.500081
C44	C	-0.170766	0.628780	0.750081
C45	C	-0.818389	-0.119427	0.000071
C46	C	-0.568389	0.130573	0.250071
C47	C	-0.318389	0.380573	0.500071
C48	C	-0.068389	0.630573	0.750071
C49	C	-1.096156	0.036593	0.000108
C50	C	-0.846156	0.286593	0.250108
C51	C	-0.596156	0.536593	0.500108
C52	C	-0.346156	0.786593	0.750108
C53	C	-1.094364	0.128892	0.000109
C54	C	-0.844364	0.378892	0.250109
C55	C	-0.594364	0.628892	0.500109
C56	C	-0.344364	0.878892	0.750109
C57	C	-1.257988	-0.109582	0.000113
C58	C	-1.007988	0.140418	0.250113
C59	C	-0.757988	0.390418	0.500113
C60	C	-0.507988	0.640418	0.750113
C61	C	-1.360365	-0.111374	0.000118
C62	C	-1.110365	0.138626	0.250118
C63	C	-0.860365	0.388626	0.500118
C64	C	-0.610365	0.638626	0.750118
C65	C	-0.443507	-0.112829	0.000112
C66	C	-0.193507	0.137171	0.250112
C67	C	0.056493	0.387171	0.500112
C68	C	0.306493	0.637171	0.750112
C69	C	-0.547811	-0.114661	0.000100
C70	C	-0.297811	0.135339	0.250100
C71	C	-0.047811	0.385339	0.500100
C72	C	0.202189	0.635339	0.750100
C73	C	-0.630945	-0.116128	0.000091
C74	C	-0.380945	0.133872	0.250091
C75	C	-0.130945	0.383872	0.500091
C76	C	0.119055	0.633872	0.750091
C77	C	-0.735256	-0.117961	0.000081
C78	C	-0.485256	0.132039	0.250081
C79	C	-0.235256	0.382039	0.500081
C80	C	0.014744	0.632039	0.750081
C81	C	-1.082599	-0.267395	0.000086
C82	C	-0.832599	-0.017395	0.250086
C83	C	-0.582599	0.232605	0.500086
C84	C	-0.332599	0.482605	0.750086
C85	C	-1.084390	-0.359693	0.000079
C86	C	-0.834390	-0.109693	0.250079
C87	C	-0.584390	0.140307	0.500079
C88	C	-0.334390	0.390307	0.750079
N89	N	-1.089369	-0.115397	0.228273
N90	N	-0.839369	0.134603	0.478273
N91	N	-0.589369	0.384603	0.728273
N92	N	-0.339369	0.634603	0.978273
C93	C	-1.174238	0.351026	0.000104
C94	C	-0.924238	0.601026	0.250104
C95	C	-0.674238	0.851026	0.500104
C96	C	-0.424238	1.101026	0.750104
C97	C	-1.172547	0.437749	0.000096
C98	C	-0.922547	0.687749	0.250096
C99	C	-0.672547	0.937749	0.500096
C100	C	-0.422547	1.187749	0.750096
C101	C	-1.004510	0.418166	0.000082
C102	C	-0.754510	0.668166	0.250082
C103	C	-0.504510	0.918166	0.500082
C104	C	-0.254510	1.168166	0.750082
C105	C	-1.006202	0.331444	0.000084
C106	C	-0.756202	0.581444	0.250084
C107	C	-0.506202	0.831444	0.500084
C108	C	-0.256202	1.081444	0.750084
C109	C	-1.091068	0.297877	0.000099
C110	C	-0.841068	0.547877	0.250099
C111	C	-0.591068	0.797877	0.500099
C112	C	-0.341068	1.047877	0.750099
C113	C	-1.087686	0.471322	0.000090
C114	C	-0.837686	0.721322	0.250090
C115	C	-0.587686	0.971322	0.500090
C116	C	-0.337686	1.221322	0.750090
C117	C	-1.085852	0.565351	0.000082
C118	C	-0.835852	0.815351	0.250082
C119	C	-0.585852	1.065351	0.500082
C120	C	-0.335852	1.315351	0.750082
C121	C	-1.092902	0.203842	0.000105
C122	C	-0.842902	0.453842	0.250105
C123	C	-0.592902	0.703842	0.500105
C124	C	-0.342902	0.953842	0.750105
N125	N	-1.089392	-0.115397	-0.228076
N126	N	-0.839392	0.134603	0.021924
N127	N	-0.589392	0.384603	0.271924
N128	N	-0.339392	0.634603	0.521924
C129	C	-1.152103	-0.058988	0.454006
C130	C	-0.902103	0.191012	0.704006
C131	C	-0.652103	0.441012	0.954006
C132	C	-0.402103	0.691012	1.204006
C133	C	-1.152106	-0.058986	0.546196
C134	C	-0.902106	0.191014	0.796196
C135	C	-0.652106	0.441014	1.046196
C136	C	-0.402106	0.691014	1.296196
C137	C	-1.026651	-0.171810	0.546184
C138	C	-0.776651	0.078190	0.796184
C139	C	-0.526651	0.328190	1.046184
C140	C	-0.276651	0.578190	1.296184
C141	C	-1.026645	-0.171807	0.453996
C142	C	-0.776645	0.078193	0.703996
C143	C	-0.526645	0.328193	0.953996
C144	C	-0.276645	0.578193	1.203996
C145	C	-1.089376	-0.115397	0.407909
C146	C	-0.839376	0.134603	0.657909
C147	C	-0.589376	0.384603	0.907909
C148	C	-0.339376	0.634603	1.157909
C149	C	-1.089386	-0.115398	0.592287
C150	C	-0.839386	0.134602	0.842287
C151	C	-0.589386	0.384602	1.092287
C152	C	-0.339386	0.634602	1.342287
C153	C	-1.089388	-0.115396	0.692243
C154	C	-0.839388	0.134604	0.942243
C155	C	-0.589388	0.384604	1.192243
C156	C	-0.339388	0.634604	1.442243
C157	C	-1.089372	-0.115397	0.307947
C158	C	-0.839372	0.134603	0.557947
C159	C	-0.589372	0.384603	0.807947
C160	C	-0.339372	0.634603	1.057947
H161	H	-1.243341	0.323699	0.000114
H162	H	-0.993341	0.573699	0.250114
H163	H	-0.743341	0.823699	0.500114
H164	H	-0.493341	1.073699	0.750114
H165	H	-0.938471	0.288168	0.000077
H166	H	-0.688471	0.538168	0.250077
H167	H	-0.438471	0.788168	0.500077
H168	H	-0.188471	1.038168	0.750077
H169	H	-1.203183	-0.013052	0.583725
H170	H	-0.953183	0.236948	0.833725
H171	H	-0.703183	0.486948	1.083725
H172	H	-0.453183	0.736948	1.333725
H173	H	-0.935415	0.445507	0.000072
H174	H	-0.685415	0.695507	0.250072
H175	H	-0.435415	0.945507	0.500072
H176	H	-0.185415	1.195507	0.750072
H177	H	-1.203182	-0.013055	0.416484
H178	H	-0.953182	0.236945	0.666484
H179	H	-0.703182	0.486945	0.916484
H180	H	-0.453182	0.736945	1.166484
O181	O	-0.959003	-0.232660	0.595890
O182	O	-0.709003	0.017340	0.845890
O183	O	-0.459003	0.267340	1.095890
O184	O	-0.209003	0.517340	1.345890
H185	H	-0.969552	-0.223193	0.667739
H186	H	-0.719552	0.026807	0.917739
H187	H	-0.469552	0.276807	1.167739
H188	H	-0.219552	0.526807	1.417739
H189	H	-0.975560	-0.217742	0.416462
H190	H	-0.725560	0.032258	0.666462
H191	H	-0.475560	0.282258	0.916462
H192	H	-0.225560	0.532258	1.166462
O193	O	-1.262256	0.495070	0.000111
O194	O	-1.012256	0.745070	0.250111
O195	O	-0.762256	0.995070	0.500111
O196	O	-0.512256	1.245070	0.750111
H197	H	-1.265518	0.535038	-0.059588
H198	H	-1.015518	0.785038	0.190412
H199	H	-0.765518	1.035038	0.440412
H200	H	-0.515518	1.285038	0.690412
