data_functionalizedCrystal
_audit_creation_method	'MofGen! by Chris Wilmer'
_symmetry_space_group_name_H-M	'P1'
_symmetry_Int_Tables_number	1
_symmetry_cell_setting	triclinic
loop_
_symmetry_equiv_pos_as_xyz
  x,y,z
_cell_length_a	12.477989
_cell_length_b	21.606444
_cell_length_c	21.606444
_cell_angle_alpha	90.002531
_cell_angle_beta	64.368850
_cell_angle_gamma	55.725999
loop_
_atom_site_label
_atom_site_type_symbol
_atom_site_fract_x
_atom_site_fract_y
_atom_site_fract_z
Zr1	Zr	1.178092	0.551809	-0.036791
O2	O	1.402638	0.444513	-0.127152
O3	O	0.953552	0.590572	-0.014961
O4	O	1.178100	0.582099	-0.135617
O5	O	1.178083	0.452991	0.095357
O6	O	1.178100	0.683951	-0.135615
O7	O	1.178090	0.452986	-0.006497
O8	O	0.776425	0.699108	0.080215
O9	O	1.579757	0.437834	-0.120473
O10	O	1.045907	0.676022	0.001443
O11	O	1.045901	0.600015	0.077454
O12	O	1.310277	0.590039	-0.064602
O13	O	1.310272	0.514032	0.011409
Zr14	Zr	1.178080	0.714260	0.125657
Zr15	Zr	1.178092	0.714251	-0.036788
Zr16	Zr	1.178080	0.551818	0.125654
Zr17	Zr	1.460578	0.541158	-0.026139
Zr18	Zr	0.895595	0.724911	0.115005
O19	O	1.402620	0.675497	0.103828
O20	O	1.402638	0.675485	-0.127148
O21	O	1.402621	0.444525	0.103824
O22	O	0.953534	0.821556	0.216018
O23	O	0.953552	0.821544	-0.014958
O24	O	0.953535	0.590585	0.216015
O25	O	1.178090	0.813078	-0.006491
O26	O	1.178073	0.683970	0.224483
O27	O	1.178073	0.582118	0.224481
O28	O	1.178082	0.813083	0.095363
O29	O	1.579757	0.566954	-0.120471
O30	O	0.776415	0.699115	0.209338
O31	O	0.776415	0.828235	0.209340
O32	O	0.776425	0.828228	0.080217
O33	O	1.579748	0.437841	0.008649
O34	O	1.579748	0.566961	0.008651
O35	O	1.045895	0.676030	0.153468
O36	O	1.045901	0.752037	0.077457
O37	O	1.310271	0.666054	0.011412
O38	O	1.310266	0.590047	0.087423
C39	C	0.824740	0.646358	0.031109
C40	C	0.704818	0.650880	0.026587
C41	C	1.178087	0.429844	0.044430
C42	C	1.178087	0.360883	0.044429
C43	C	1.178095	0.328482	-0.011685
C44	C	1.178088	0.263688	-0.011683
C45	C	1.178082	0.231294	0.044432
C46	C	1.178069	0.263701	0.100551
C47	C	1.178066	0.328497	0.100551
C48	C	1.178080	0.002387	0.100554
C49	C	1.178088	-0.062415	0.100549
C50	C	1.178102	-0.062422	-0.011679
C51	C	1.178099	0.002374	-0.011679
C52	C	1.178078	0.034778	0.044442
C53	C	1.178083	0.105036	0.044439
C54	C	1.178088	0.161034	0.044432
C55	C	1.531432	0.619711	0.057757
C56	C	1.651354	0.615190	0.062279
C57	C	1.178101	0.633024	-0.158761
C58	C	1.178107	0.633020	-0.227723
C59	C	1.178086	0.836225	0.044436
C60	C	1.178086	0.905186	0.044437
C61	C	1.316104	0.588137	-0.294597
C62	C	1.316100	0.588144	-0.359392
C63	C	1.178097	0.633029	-0.357312
C64	C	1.040088	0.677917	-0.290431
C65	C	1.040094	0.677915	-0.225637
C66	C	1.040062	0.677930	-0.551735
C67	C	1.040067	0.677928	-0.616536
C68	C	1.316068	0.588160	-0.685489
C69	C	1.316073	0.588157	-0.620696
C70	C	1.178066	0.633048	-0.553821
C71	C	1.178072	0.633041	-0.483563
C72	C	1.178089	0.633032	-0.427568
C73	C	1.178071	0.633045	0.247627
C74	C	1.178066	0.633049	0.316589
C75	C	0.824740	0.849548	0.031112
C76	C	0.704818	0.923031	0.026592
C77	C	0.824725	0.646369	0.234303
C78	C	0.704798	0.650894	0.298744
C79	C	0.824725	0.849559	0.234307
C80	C	0.704797	0.923045	0.298748
C81	C	1.531448	0.416510	-0.145440
C82	C	1.651375	0.343024	-0.209882
C83	C	1.531432	0.416521	0.057754
C84	C	1.651355	0.343038	0.062275
C85	C	1.531447	0.619700	-0.145437
C86	C	1.651375	0.615175	-0.209877
C87	C	0.648504	0.917860	-0.015217
C88	C	0.535839	0.986898	-0.019479
C89	C	0.479483	1.061106	0.018071
C90	C	0.535808	1.066275	0.059881
C91	C	0.648478	0.997238	0.064139
C92	C	0.648476	0.692698	0.368691
C93	C	0.535807	0.696947	0.429246
C94	C	0.479454	0.659396	0.419852
C95	C	0.535788	0.617586	0.349898
C96	C	0.648462	0.613333	0.289345
C97	C	0.648481	0.997237	0.289333
C98	C	0.535812	1.066291	0.349877
C99	C	0.479453	1.061152	0.419834
C100	C	0.535781	0.986952	0.429248
C101	C	0.648456	0.917900	0.368705
C102	C	1.707705	0.268832	-0.200466
C103	C	1.820409	0.199776	-0.261009
C104	C	1.876774	0.204915	-0.330966
C105	C	1.820439	0.279115	-0.340380
C106	C	1.707745	0.348168	-0.279838
C107	C	1.707680	0.348209	0.104077
C108	C	1.820376	0.279169	0.108322
C109	C	1.876736	0.204961	0.070770
C110	C	1.820406	0.199792	0.028963
C111	C	1.707720	0.268830	0.024714
C112	C	1.707691	0.652735	-0.200461
C113	C	1.820361	0.648499	-0.261004
C114	C	1.876720	0.606696	-0.330962
C115	C	1.820392	0.569135	-0.340377
C116	C	1.707717	0.573377	-0.279836
H117	H	0.658854	0.684891	-0.007433
C118	C	0.775231	0.702614	0.421144
C119	C	0.710430	0.733966	0.379024
H120	H	0.813490	0.728085	0.427522
H121	H	0.700060	0.711134	0.467210
H122	H	0.856109	0.647362	0.397257
H123	H	0.629543	0.789217	0.402914
H124	H	0.785607	0.725453	0.332950
C125	C	0.640274	0.537157	0.140307
C126	C	0.713414	0.569263	0.108203
H127	H	0.678597	0.508801	0.168653
H128	H	0.533901	0.578693	0.170565
H129	H	0.658746	0.502193	0.103471
H130	H	0.694932	0.604232	0.145039
H131	H	0.819812	0.527722	0.077943
H132	H	1.428450	0.551604	-0.622396
H133	H	0.489953	0.730995	0.486200
H134	H	1.661820	0.264632	-0.143509
H135	H	0.694294	0.857493	0.376381
H136	H	1.178109	0.354850	-0.057382
H137	H	0.694388	0.857442	-0.045804
C138	C	1.178098	-0.161744	0.150378
C139	C	1.178077	-0.098024	0.162236
H140	H	1.178103	-0.183730	0.188456
H141	H	1.089828	-0.143653	0.149375
H142	H	1.266395	-0.201071	0.105264
H143	H	1.089773	-0.058694	0.207347
H144	H	1.266356	-0.116114	0.163246
H145	H	1.866297	0.535100	-0.397345
C146	C	1.178020	-0.004109	0.211500
C147	C	1.178031	0.038009	0.162248
H148	H	1.177987	0.017887	0.249590
H149	H	1.089759	-0.000681	0.231204
H150	H	1.266326	-0.058094	0.187110
H151	H	1.089719	0.091994	0.186638
H152	H	1.266301	0.034590	0.142544
C153	C	0.547174	0.901489	-0.097475
C154	C	0.473927	0.981204	-0.065430
H155	H	0.508945	0.897975	-0.125839
H156	H	0.653544	0.873854	-0.127708
H157	H	0.528686	0.878580	-0.060608
H158	H	0.492426	1.004111	-0.102298
H159	H	0.367533	1.008850	-0.035195
H160	H	1.866345	0.283290	-0.397347
H161	H	1.178093	0.237308	-0.057374
H162	H	1.178112	-0.088810	-0.057374
C163	C	1.809002	0.128305	-0.176460
C164	C	1.882302	0.118223	-0.250650
H165	H	1.847204	0.077958	-0.170066
H166	H	1.827465	0.154534	-0.152140
H167	H	1.702624	0.159249	-0.156864
H168	H	1.988679	0.087284	-0.270245
H169	H	1.863851	0.091981	-0.274980
H170	H	0.489907	1.126705	0.090452
C171	C	0.318058	0.708712	0.549794
C172	C	0.355589	0.664082	0.486418
H173	H	0.241580	0.711611	0.590889
H174	H	0.405974	0.684148	0.553095
H175	H	0.281140	0.760650	0.548381
H176	H	0.392517	0.612141	0.487828
H177	H	0.267655	0.688644	0.483117
H178	H	1.178111	0.028745	-0.057375
H179	H	1.178055	0.237325	0.146244
H180	H	1.661881	0.408577	-0.287513
C181	C	1.947159	0.107384	-0.086811
C182	C	1.882353	0.118218	-0.012306
H183	H	1.985405	0.057021	-0.112284
H184	H	1.871996	0.147750	-0.095326
H185	H	2.028048	0.110021	-0.103353
H186	H	1.801456	0.115588	0.004237
H187	H	1.957524	0.077841	-0.003786
C188	C	0.593049	0.937142	0.519029
C189	C	0.473817	0.981317	0.506152
H190	H	0.554784	0.933672	0.566509
H191	H	0.668194	0.885400	0.484333
H192	H	0.637015	0.962406	0.514988
H193	H	0.429858	0.956051	0.510187
H194	H	0.398645	1.033069	0.540858
C195	C	1.580972	0.440582	0.219858
C196	C	1.645745	0.429774	0.145358
H197	H	1.542753	0.490933	0.245342
H198	H	1.500085	0.437952	0.236400
H199	H	1.656161	0.400194	0.228357
H200	H	1.570553	0.470158	0.136859
H201	H	1.726641	0.432411	0.128811
C202	C	0.410068	1.178142	-0.015870
C203	C	0.355622	1.136990	0.013393
H204	H	0.333599	1.224985	-0.018762
H205	H	0.435525	1.191847	0.014404
H206	H	0.497993	1.145504	-0.063106
H207	H	0.267703	1.169626	0.060631
H208	H	0.330144	1.123287	-0.016882
H209	H	1.866221	0.283393	0.142368
H210	H	1.428440	0.551610	-0.739948
H211	H	1.178056	0.354879	0.146245
C212	C	2.038158	0.062804	-0.374465
C213	C	2.000637	0.129006	-0.397511
H214	H	2.114616	0.015940	-0.415546
H215	H	2.075083	0.061427	-0.343765
H216	H	1.950220	0.066142	-0.348463
H217	H	2.088573	0.125671	-0.423509
H218	H	1.963716	0.130382	-0.428224
C219	C	1.581029	0.225889	0.005234
C220	C	1.645794	0.263139	-0.021228
H221	H	1.542796	0.222376	-0.023128
H222	H	1.656211	0.174163	0.002390
H223	H	1.500137	0.255875	0.054385
H224	H	1.726694	0.233150	-0.070378
H225	H	1.570605	0.314875	-0.018391
H226	H	1.661876	0.542787	-0.287513
C227	C	0.867166	0.962187	0.065549
C228	C	0.710352	1.002928	0.110109
H229	H	0.905353	0.965709	0.093933
H230	H	0.916851	0.908117	0.043801
H231	H	0.885638	0.985117	0.028699
H232	H	0.691880	0.979995	0.146957
H233	H	0.660652	1.057009	0.131868
C234	C	0.821149	0.571578	0.161283
C235	C	0.710351	0.567388	0.212458
H236	H	0.859356	0.543208	0.113818
H237	H	0.777192	0.625430	0.165311
H238	H	0.902055	0.548925	0.170007
H239	H	0.629439	0.590047	0.203737
H240	H	0.754306	0.513525	0.208427
H241	H	1.428471	0.551598	-0.413841
C242	C	1.534958	0.694490	-0.072404
C243	C	1.645751	0.698691	-0.123566
H244	H	1.496729	0.722862	-0.024935
H245	H	1.454080	0.717128	-0.081139
H246	H	1.578938	0.640629	-0.076435
H247	H	1.601768	0.752553	-0.119540
H248	H	1.726644	0.676056	-0.114829
C249	C	1.588927	0.499409	-0.369271
C250	C	1.467805	0.538798	-0.296888
H251	H	1.682581	0.468953	-0.370686
H252	H	1.583186	0.465381	-0.393110
H253	H	1.583168	0.537181	-0.393104
H254	H	1.473557	0.501025	-0.273056
H255	H	1.473549	0.572828	-0.273040
H256	H	0.927681	0.714482	-0.614834
H257	H	0.927688	0.714484	-0.497291
H258	H	0.927724	0.714468	-0.288742
H259	H	1.968492	0.148752	0.074236
C260	C	0.318061	1.203264	0.463333
C261	C	0.355586	1.137061	0.486380
H262	H	0.241581	1.250128	0.504414
H263	H	0.405979	1.199934	0.437341
H264	H	0.281147	1.204632	0.432623
H265	H	0.392511	1.135689	0.517086
H266	H	0.267651	1.140392	0.512383
C267	C	0.821213	0.926628	0.161276
C268	C	0.710420	1.002899	0.212439
H269	H	0.859442	0.930131	0.113807
H270	H	0.902092	0.896658	0.170010
H271	H	0.777232	0.901375	0.165305
H272	H	0.754404	1.028150	0.208414
H273	H	0.629528	1.032881	0.203702
H274	H	0.927722	0.714463	-0.171186
H275	H	1.968468	0.603248	-0.380253
H276	H	0.489889	0.587013	0.342260
C277	C	0.547148	1.137765	0.265326
C278	C	0.473898	1.147845	0.339517
H279	H	0.508917	1.188113	0.258930
H280	H	0.653517	1.106830	0.245713
H281	H	0.528663	1.111528	0.241020
H282	H	0.492392	1.174077	0.363822
H283	H	0.367504	1.178793	0.359138
H284	H	1.866211	0.679085	-0.253323
