data_functionalizedCrystal
_audit_creation_method	'MofGen! by Chris Wilmer'
_symmetry_space_group_name_H-M	'P1'
_symmetry_Int_Tables_number	1
_symmetry_cell_setting	triclinic
loop_
_symmetry_equiv_pos_as_xyz
  x,y,z
_cell_length_a	16.959455
_cell_length_b	16.959447
_cell_length_c	16.959454
_cell_angle_alpha	89.973264
_cell_angle_beta	89.981311
_cell_angle_gamma	90.015720
loop_
_atom_site_label
_atom_site_type_symbol
_atom_site_fract_x
_atom_site_fract_y
_atom_site_fract_z
Zn1	Zn	-1.208384	-0.446958	-0.314695
Zn2	Zn	-1.208306	-0.314788	-0.446888
Zn3	Zn	-1.076212	-0.314792	-0.314724
Zn4	Zn	-1.076177	-0.446923	-0.446832
O5	O	-1.142270	-0.380865	-0.380785
O6	O	-1.318984	-0.429438	-0.332242
O7	O	-1.190766	-0.204177	-0.429391
O8	O	-1.093792	-0.332341	-0.204109
O9	O	-1.318927	-0.332333	-0.429363
O10	O	-1.190898	-0.429442	-0.204088
O11	O	-1.093717	-0.204181	-0.332291
O12	O	-0.965597	-0.332307	-0.332237
O13	O	-1.093732	-0.557539	-0.429269
O14	O	-0.965571	-0.429383	-0.429297
O15	O	-1.190864	-0.557564	-0.332188
O16	O	-1.190732	-0.332299	-0.557491
O17	O	-1.093657	-0.429378	-0.557451
C18	C	-0.936904	-0.380842	-0.380765
C19	C	-0.849047	-0.380851	-0.380775
C20	C	-0.807741	-0.330220	-0.431269
C21	C	-0.807799	-0.431486	-0.330286
C22	C	-0.725253	-0.431494	-0.330291
C23	C	-0.683948	-0.380864	-0.380785
C24	C	-0.725188	-0.330225	-0.431274
C25	C	-0.684006	-0.482126	-0.279798
C26	C	-0.601455	-0.482136	-0.279800
C27	C	-0.560149	-0.431509	-0.330299
C28	C	-0.601394	-0.380868	-0.380790
C29	C	-0.560088	-0.330238	-0.431284
C30	C	-0.601332	-0.279601	-0.481780
C31	C	-0.683881	-0.279597	-0.481773
C32	C	-0.477600	-0.431512	-0.330306
C33	C	-0.477535	-0.330242	-0.431289
C34	C	-1.142204	-0.380852	-0.586151
C35	C	-1.142248	-0.380872	-0.674008
C36	C	-1.142303	-0.587033	-0.380719
C37	C	-1.142317	-0.674890	-0.380691
C38	C	-0.348438	-0.380884	-0.380802
C39	C	-0.436295	-0.380881	-0.380800
C40	C	-1.091839	-1.046355	-0.431153
C41	C	-1.192983	-1.046377	-0.330063
C42	C	-1.192962	-0.963831	-0.330079
C43	C	-1.142380	-0.922543	-0.380635
C44	C	-1.091818	-0.963801	-0.431173
C45	C	-1.243529	-0.922566	-0.279547
C46	C	-1.243510	-0.840015	-0.279563
C47	C	-1.192923	-0.798726	-0.330115
C48	C	-1.142359	-0.839990	-0.380655
C49	C	-1.091776	-0.798702	-0.431210
C50	C	-1.041207	-0.839964	-0.481747
C51	C	-1.041231	-0.922512	-0.481725
C52	C	-1.192899	-0.716178	-0.330136
C53	C	-1.091755	-0.716148	-0.431230
C54	C	-1.142283	-0.175499	-0.380793
C55	C	-1.142422	-0.087643	-0.380598
C56	C	-1.091796	-0.431409	-1.045492
C57	C	-1.192964	-0.330402	-1.045474
C58	C	-1.192936	-0.330395	-0.962928
C59	C	-1.142337	-0.380894	-0.921661
C60	C	-1.091765	-0.431402	-0.962938
C61	C	-1.243501	-0.279883	-0.921644
C62	C	-1.243475	-0.279873	-0.839093
C63	C	-1.192879	-0.330377	-0.797824
C64	C	-1.142306	-0.380887	-0.839107
C65	C	-1.091707	-0.431387	-0.797839
C66	C	-1.041137	-0.481901	-0.839121
C67	C	-1.041170	-0.481906	-0.921669
C68	C	-1.192847	-0.330373	-0.715276
C69	C	-1.091676	-0.431379	-0.715286
C70	C	-1.142358	-0.380896	-0.174617
C71	C	-1.142395	-0.380909	-0.086760
H72	H	-0.717469	-0.238370	-0.522882
N73	N	-1.298048	-0.795514	-0.225059
H74	H	-1.330095	-0.834197	-0.193031
H75	H	-1.265879	-0.761275	-0.188483
N76	N	-1.037093	-0.485843	-0.670780
H77	H	-1.044742	-0.478173	-0.612221
H78	H	-1.049364	-0.542309	-0.685165
H79	H	-1.050665	-1.079954	-0.472297
N80	N	-1.247543	-1.090904	-0.275543
H81	H	-1.239885	-1.149459	-0.283200
H82	H	-1.235259	-1.076490	-0.219092
H83	H	-1.234154	-0.289282	-1.079080
H84	H	-0.999936	-0.523015	-0.805511
N85	N	-0.986628	-0.536382	-0.966192
H86	H	-0.994323	-0.528718	-1.024748
H87	H	-0.930180	-0.524022	-0.951807
N88	N	-0.852353	-0.486105	-0.275846
H89	H	-0.886610	-0.454052	-0.239174
H90	H	-0.886553	-0.522656	-0.308088
N91	N	-0.433112	-0.486120	-0.275854
H92	H	-0.398860	-0.454057	-0.239192
H93	H	-0.471852	-0.518181	-0.243915
N94	N	-1.037249	-0.485886	-1.090007
H95	H	-1.049482	-0.542371	-1.075598
H96	H	-1.044968	-0.478166	-1.148550
H97	H	-1.234074	-0.682586	-0.288992
N98	N	-0.556986	-0.536758	-0.225341
H99	H	-0.522743	-0.573340	-0.257507
H100	H	-0.522778	-0.504647	-0.188682
H101	H	-1.050557	-0.682538	-0.472392
N102	N	-1.298056	-0.225402	-0.966152
H103	H	-1.290400	-0.233072	-1.024709
H104	H	-1.354499	-0.237741	-0.951682
N105	N	-1.298021	-0.225401	-0.794571
H106	H	-1.330081	-0.193413	-0.833241
H107	H	-1.334565	-0.257616	-0.760285
H108	H	-0.841326	-0.288995	-0.472384
H109	H	-1.284715	-0.956189	-0.238393
N110	N	-1.247376	-0.275892	-0.670750
H111	H	-1.279432	-0.243898	-0.709419
H112	H	-1.283926	-0.308095	-0.636457
N113	N	-0.432981	-0.275635	-0.485749
H114	H	-0.447333	-0.287819	-0.542239
H115	H	-0.447351	-0.219200	-0.473341
H116	H	-0.567691	-0.238374	-0.522889
H117	H	-1.000026	-0.806337	-0.522912
H118	H	-1.000063	-0.956115	-0.522872
H119	H	-0.717643	-0.523344	-0.238685
