data_functionalizedCrystal
_audit_creation_method	'MofGen! by Chris Wilmer'
_symmetry_space_group_name_H-M	'P1'
_symmetry_Int_Tables_number	1
_symmetry_cell_setting	triclinic
loop_
_symmetry_equiv_pos_as_xyz
  x,y,z
_cell_length_a	8.597340
_cell_length_b	8.597304
_cell_length_c	13.448316
_cell_angle_alpha	82.293562
_cell_angle_beta	97.695380
_cell_angle_gamma	86.359595
loop_
_atom_site_label
_atom_site_type_symbol
_atom_site_fract_x
_atom_site_fract_y
_atom_site_fract_z
O1	O	2.085992	0.234297	0.075964
O2	O	1.629345	0.252274	0.035297
O3	O	1.866653	0.014955	0.075965
O4	O	1.848684	0.471616	0.035297
O5	O	1.866622	0.014940	0.241347
O6	O	1.629314	0.252259	0.200680
O7	O	2.085961	0.234282	0.241347
Cu8	Cu	1.857635	0.243269	0.236114
Cu9	Cu	1.857671	0.243287	0.040530
O10	O	1.848653	0.471601	0.200679
C11	C	1.570830	0.250337	0.113142
C12	C	1.396518	0.244567	0.098700
C13	C	1.864707	-0.043554	0.163501
C14	C	1.858934	-0.217870	0.177936
C15	C	2.144477	0.236219	0.163500
C16	C	2.318788	0.241989	0.177935
C17	C	1.850599	0.530110	0.113141
C18	C	1.856372	0.704426	0.098699
N19	N	1.857621	0.243255	0.373678
N20	N	1.857697	0.243288	-0.097032
C21	C	1.962735	0.138215	0.443725
C22	C	1.962745	0.138214	0.547829
C23	C	1.857647	0.243262	0.581884
C24	C	1.752522	0.348308	0.511829
C25	C	1.752506	0.348300	0.407727
C26	C	1.752566	0.348319	0.728812
C27	C	1.752583	0.348329	0.832921
C28	C	1.962805	0.138233	0.868914
C29	C	1.962788	0.138225	0.764812
C30	C	1.857665	0.243273	0.694764
H31	H	1.329705	0.242360	0.019808
O32	O	1.858783	-0.215678	0.004603
C33	C	1.726286	-0.105283	-0.021523
H34	H	1.681914	-0.075657	0.050437
H35	H	1.760562	0.006435	-0.066249
H36	H	1.629242	-0.157357	-0.069884
H37	H	2.048335	0.052681	0.604862
H38	H	1.856694	-0.284708	0.256827
H39	H	1.385594	0.244185	0.256824
O40	O	2.064886	0.036019	0.410821
C41	C	2.157688	-0.056666	0.494975
H42	H	2.093313	-0.059457	0.563914
H43	H	2.179712	-0.181658	0.477501
H44	H	2.275078	-0.003837	0.511558
O45	O	2.064937	0.036035	0.731901
C46	C	2.157751	-0.056657	0.816047
H47	H	2.093387	-0.059458	0.884991
H48	H	2.179774	-0.181644	0.798567
H49	H	2.275140	-0.003825	0.832627
H50	H	2.048399	0.052699	0.925954
O51	O	1.650321	0.450405	0.865833
C52	C	1.557541	0.543130	0.781686
H53	H	1.554790	0.478745	0.712760
H54	H	1.432551	0.565042	0.799195
H55	H	1.610253	0.660581	0.765059
O56	O	1.650207	0.450187	0.544860
C57	C	1.494427	0.422208	0.508480
H58	H	1.491738	0.296508	0.490410
H59	H	1.415938	0.439008	0.568788
H60	H	1.449636	0.508483	0.436825
O61	O	1.650667	0.450431	0.660667
C62	C	1.736211	0.548636	0.599366
H63	H	1.858081	0.488063	0.599392
H64	H	1.671064	0.572422	0.518548
H65	H	1.748659	0.664832	0.630585
O66	O	1.650561	0.450559	0.339719
C67	C	1.678430	0.606371	0.354195
H68	H	1.804122	0.609146	0.393325
H69	H	1.661566	0.684861	0.277559
H70	H	1.592140	0.651098	0.403404
