data_functionalizedCrystal
_audit_creation_method	'MofGen! by Chris Wilmer'
_symmetry_space_group_name_H-M	'P1'
_symmetry_Int_Tables_number	1
_symmetry_cell_setting	triclinic
loop_
_symmetry_equiv_pos_as_xyz
  x,y,z
_cell_length_a	12.777687
_cell_length_b	15.624803
_cell_length_c	15.625186
_cell_angle_alpha	140.979503
_cell_angle_beta	97.077303
_cell_angle_gamma	97.078978
loop_
_atom_site_label
_atom_site_type_symbol
_atom_site_fract_x
_atom_site_fract_y
_atom_site_fract_z
O1	O	-0.351548	0.482396	-0.711761
O2	O	-0.328312	0.351039	-0.580383
O3	O	-0.188465	0.421465	-0.650830
O4	O	-0.491395	0.411970	-0.641314
O5	O	-0.119363	0.650754	-0.421552
O6	O	-0.259210	0.580328	-0.351105
O7	O	-0.282446	0.711685	-0.482483
Zn8	Zn	-0.259857	0.682411	-0.380391
Zn9	Zn	-0.350901	0.380313	-0.682474
O10	O	-0.422293	0.641259	-0.412036
C11	C	-0.287964	0.448896	-0.448954
C12	C	-0.270676	0.398874	-0.398925
C13	C	0.004021	0.536122	-0.536186
C14	C	-0.114780	0.536119	-0.536183
C15	C	-0.495980	0.526605	-0.526675
C16	C	-0.614782	0.526604	-0.526677
C17	C	-0.402140	-0.390613	-0.859420
C18	C	-0.385875	-0.437613	-0.812409
C19	C	-0.310539	-0.187663	-0.562449
C20	C	-0.326793	-0.140640	-0.609439
C21	C	-0.372595	-0.242124	-0.757927
C22	C	-0.297248	0.007849	-0.507946
C23	C	-0.313506	0.054866	-0.554932
C24	C	-0.359310	-0.046606	-0.703413
C25	C	-0.388853	-0.195107	-0.804913
C26	C	-0.251454	0.109330	-0.359458
C27	C	-0.221909	0.257819	-0.257965
C28	C	-0.238159	0.304839	-0.304951
C29	C	-0.283963	0.203368	-0.453432
C30	C	-0.208616	0.453341	-0.203451
C31	C	-0.224874	0.500358	-0.250438
C32	C	-0.300221	0.250385	-0.500419
O33	O	0.311542	0.411970	-0.641310
O34	O	0.008608	0.421471	-0.650828
O35	O	0.148449	0.351031	-0.580391
O36	O	0.171702	0.482410	-0.711746
O37	O	0.217542	0.580315	-0.351109
O38	O	0.077701	0.650755	-0.421546
O39	O	0.380636	0.641255	-0.412028
Zn40	Zn	0.240138	0.682409	-0.380384
Zn41	Zn	0.149105	0.380317	-0.682472
O42	O	0.240795	0.711695	-0.482465
C43	C	-0.322796	0.613825	-0.613915
C44	C	-0.340086	0.663838	-0.663953
C45	C	0.177199	0.448894	-0.448952
C46	C	0.159915	0.398897	-0.398898
C47	C	0.212048	0.613841	-0.613894
C48	C	0.229340	0.663867	-0.663919
C49	C	0.291377	0.859354	0.390547
C50	C	0.275120	0.812330	0.437536
C51	C	0.199795	0.562368	0.187588
C52	C	0.216042	0.609371	0.140576
C53	C	0.261834	0.757865	0.242065
C54	C	0.186498	0.507882	-0.007907
C55	C	0.202749	0.554881	-0.054913
C56	C	0.248543	0.703369	0.046563
C57	C	0.278085	0.804864	0.195058
C58	C	0.140713	0.359388	-0.109393
C59	C	0.111170	0.257899	-0.257875
C60	C	0.127413	0.304898	-0.304885
C61	C	0.173207	0.453386	-0.203409
C62	C	0.097871	0.203403	-0.453380
C63	C	0.114122	0.250403	-0.500387
C64	C	0.189458	0.500386	-0.250415
N65	N	-0.197722	0.888588	-0.174231
N66	N	-0.413029	0.174140	-0.888638
N67	N	0.302276	0.888579	-0.174216
N68	N	0.086977	0.174142	-0.888635
C69	C	-0.114081	0.991910	-0.133316
C70	C	-0.070565	1.136249	0.010996
C71	C	-0.110697	1.177266	0.114388
C72	C	-0.194343	1.073931	0.073466
C73	C	-0.237852	0.929593	-0.070842
C74	C	-0.372993	0.133260	-0.992015
C75	C	-0.416471	-0.011059	-1.136347
C76	C	-0.499979	-0.114498	-1.177298
C77	C	-0.540018	-0.073611	-1.073909
C78	C	-0.496547	0.070708	-0.929582
C79	C	0.396066	0.987491	-0.128886
C80	C	0.439609	1.131816	0.015441
C81	C	0.389355	1.177228	0.114432
C82	C	0.295559	1.078302	0.069095
C83	C	0.252023	0.933978	-0.075227
C84	C	-0.006519	0.075080	-0.933820
C85	C	-0.050013	-0.069268	-1.078123
C86	C	-0.000015	-0.114549	-1.177242
C87	C	0.093492	-0.015475	-1.132048
C88	C	0.136989	0.128867	-0.987745
H89	H	-0.337514	0.167745	-0.621332
Cl90	Cl	-0.231021	0.050221	-0.300389
Cl91	Cl	-0.366117	-0.062430	-1.266294
Cl92	Cl	0.348932	1.046037	0.518129
Cl93	Cl	-0.423027	-0.624300	-0.940019
Cl94	Cl	0.232445	1.135389	0.193585
Cl95	Cl	-0.546883	0.122077	-0.799632
Cl96	Cl	-0.151055	0.580901	-0.016788
Cl97	Cl	-0.063608	0.940384	-0.263265
H98	H	0.436998	0.950540	-0.209470
H99	H	0.175651	0.853451	-0.112120
H100	H	-0.002459	1.220371	0.044292
Cl101	Cl	-0.069394	0.131969	-0.809239
Cl102	Cl	-0.343012	0.799717	-0.122261
H103	H	0.515983	1.212344	0.052331
H104	H	-0.608015	-0.157849	-1.107270
Cl105	Cl	-0.167498	-0.193821	-1.134873
H106	H	-0.439433	-0.473254	-0.980334
H107	H	-0.200821	0.621269	-0.167791
H108	H	-0.035437	-0.232089	-1.294735
H109	H	-0.273250	-0.105046	-0.441550
Cl110	Cl	0.335640	0.991548	0.322640
Cl111	Cl	-0.268014	0.263271	-0.940573
Cl112	Cl	0.156337	-0.072424	-1.256673
Cl113	Cl	0.254536	0.253386	-0.930961
H114	H	-0.372553	-0.008316	-0.741667
H115	H	0.073890	0.136994	-0.340495
H116	H	-0.075260	1.294800	0.231888
H117	H	-0.426147	-0.277747	-0.925827
H118	H	-0.227012	1.107346	0.157666
Cl119	Cl	0.076983	0.122816	-0.687056
Cl120	Cl	0.142281	0.375692	0.060020
H121	H	-0.184620	0.340435	-0.137065
Cl122	Cl	0.120331	0.300300	-0.050294
H123	H	0.424809	1.294754	0.231941
Cl124	Cl	0.268983	0.762458	-0.012528
Cl125	Cl	0.247013	0.687069	-0.122834
H126	H	-0.535368	-0.232008	-1.294822
H127	H	0.299142	0.894989	0.558448
Cl128	Cl	0.040364	0.016728	-0.580943
