data_functionalizedCrystal
_audit_creation_method	'MofGen! by Chris Wilmer'
_symmetry_space_group_name_H-M	'P1'
_symmetry_Int_Tables_number	1
_symmetry_cell_setting	triclinic
loop_
_symmetry_equiv_pos_as_xyz
  x,y,z
_cell_length_a	10.686220
_cell_length_b	12.645330
_cell_length_c	10.686551
_cell_angle_alpha	94.406611
_cell_angle_beta	89.692081
_cell_angle_gamma	94.394518
loop_
_atom_site_label
_atom_site_type_symbol
_atom_site_fract_x
_atom_site_fract_y
_atom_site_fract_z
Zn1	Zn	1.972300	-0.258443	0.562387
Zn2	Zn	1.956080	-0.450318	0.352625
Zn3	Zn	1.746420	-0.285562	0.368703
Zn4	Zn	1.762510	-0.448170	0.578402
O5	O	1.859327	-0.360623	0.465529
O6	O	2.145690	-0.273445	0.521131
O7	O	1.914746	-0.440711	0.179212
O8	O	1.776438	-0.133612	0.394423
O9	O	2.133773	-0.414415	0.367019
O10	O	1.942391	-0.113688	0.536721
O11	O	1.760710	-0.319665	0.191025
O12	O	1.573013	-0.317583	0.409952
O13	O	1.803861	-0.410754	0.751823
O14	O	1.584834	-0.437050	0.564016
O15	O	1.957993	-0.271362	0.740057
O16	O	1.930348	-0.598385	0.382548
O17	O	1.788133	-0.596807	0.548425
C18	C	1.533407	-0.380027	0.490467
C19	C	1.393980	-0.388351	0.501165
C20	C	1.859262	-0.636059	0.465504
C21	C	1.859352	-0.753881	0.465527
C22	C	1.948649	-0.922417	0.360989
C23	C	1.948983	-0.799821	0.361202
C24	C	1.905355	-0.786936	0.595015
C25	C	1.906083	-0.909524	0.594441
C26	C	1.724115	-0.931463	0.441884
C27	C	1.724523	-0.809026	0.438869
C28	C	2.186520	-0.341144	0.440495
C29	C	2.325950	-0.332843	0.429827
C30	C	1.884531	-0.337793	0.792730
C31	C	1.895271	-0.328065	0.932164
C32	C	1.859429	-0.084108	0.465579
C33	C	1.859472	0.033726	0.465600
C34	C	1.834294	-0.383283	0.139596
C35	C	1.823797	-0.392698	0.000145
H36	H	1.345557	-0.442244	0.570424
H37	H	1.374379	-0.278955	0.360555
C38	C	1.908466	-0.770300	0.231076
N39	N	1.877936	-0.748071	0.133063
C40	C	1.908539	-0.973368	0.230430
N41	N	1.878324	-1.011751	0.132089
C42	C	1.989046	-0.243246	0.997647
N43	N	2.059673	-0.179359	1.046970
C44	C	2.083067	-0.953998	0.380787
N45	N	2.184307	-0.977795	0.395696
H46	H	1.684240	-0.971000	0.349635
C47	C	2.040157	-0.937539	0.623160
N48	N	2.141147	-0.958635	0.644786
C49	C	2.084146	-0.750068	0.381297
N50	N	2.185957	-0.712594	0.396432
H51	H	1.844530	-0.937995	0.674520
H52	H	1.842819	-0.756688	0.674611
C53	C	1.730023	-0.477510	0.934667
N54	N	1.659389	-0.541389	0.885341
H55	H	1.690021	-0.788405	0.343627
C56	C	2.038001	-0.734890	0.624507
N57	N	2.137914	-0.695691	0.646712
H58	H	1.653672	-0.778374	0.510293
C59	C	1.634181	-0.969805	0.544979
N60	N	1.566453	-0.998689	0.622633
