data_functionalizedCrystal
_audit_creation_method	'MofGen! by Chris Wilmer'
_symmetry_space_group_name_H-M	'P1'
_symmetry_Int_Tables_number	1
_symmetry_cell_setting	triclinic
loop_
_symmetry_equiv_pos_as_xyz
  x,y,z
_cell_length_a	19.805405
_cell_length_b	19.805407
_cell_length_c	19.805399
_cell_angle_alpha	89.978936
_cell_angle_beta	90.026615
_cell_angle_gamma	89.974289
loop_
_atom_site_label
_atom_site_type_symbol
_atom_site_fract_x
_atom_site_fract_y
_atom_site_fract_z
Zn1	Zn	-0.269497	-1.034734	0.382751
Zn2	Zn	0.230503	-0.534734	0.882751
Zn3	Zn	-0.382686	-1.034648	0.269565
Zn4	Zn	0.117314	-0.534648	0.769565
Zn5	Zn	-0.269514	-0.921549	0.269573
Zn6	Zn	0.230486	-0.421549	0.769573
Zn7	Zn	-0.382648	-0.921512	0.382709
Zn8	Zn	0.117352	-0.421512	0.882709
O9	O	-0.326086	-0.978111	0.326149
O10	O	0.173914	-0.478111	0.826149
O11	O	-0.284521	-1.129439	0.367751
O12	O	0.215479	-0.629439	0.867751
O13	O	-0.367696	-1.019625	0.174849
O14	O	0.132304	-0.519625	0.674849
O15	O	-0.174795	-0.936615	0.284607
O16	O	0.325205	-0.436615	0.784607
O17	O	-0.367680	-1.129376	0.284594
O18	O	0.132320	-0.629376	0.784594
O19	O	-0.174783	-1.019771	0.367759
O20	O	0.325217	-0.519771	0.867759
O21	O	-0.284549	-0.936531	0.174855
O22	O	0.215451	-0.436531	0.674855
O23	O	-0.284512	-0.826827	0.284566
O24	O	0.215488	-0.326827	0.784566
O25	O	-0.367615	-0.936551	0.477431
O26	O	0.132385	-0.436551	0.977431
O27	O	-0.367631	-0.826800	0.367686
O28	O	0.132369	-0.326800	0.867686
O29	O	-0.284484	-1.019735	0.477462
O30	O	0.215516	-0.519735	0.977462
O31	O	-0.477397	-1.019589	0.284552
O32	O	0.022603	-0.519589	0.784552
O33	O	-0.477369	-0.936468	0.367679
O34	O	0.022631	-0.436468	0.867679
C35	C	-0.326070	-0.802255	0.326123
C36	C	0.173930	-0.302255	0.826123
C37	C	-0.326079	-0.727023	0.326128
C38	C	0.173921	-0.227023	0.826128
C39	C	-0.369424	-0.691682	0.369337
C40	C	0.130576	-0.191682	0.869337
C41	C	-0.369424	-0.620994	0.369345
C42	C	0.130576	-0.120994	0.869345
C43	C	-0.326082	-0.585647	0.326139
C44	C	0.173918	-0.085647	0.826139
C45	C	-0.282733	-0.620993	0.282927
C46	C	0.217267	-0.120993	0.782927
C47	C	-0.282730	-0.691680	0.282924
C48	C	0.217270	-0.191680	0.782924
C49	C	-0.282743	-0.335920	0.282942
C50	C	0.217257	0.164080	0.782942
C51	C	-0.282750	-0.265227	0.282948
C52	C	0.217250	0.234773	0.782948
C53	C	-0.369437	-0.265233	0.369364
C54	C	0.130563	0.234767	0.869364
C55	C	-0.369434	-0.335920	0.369360
C56	C	0.130566	0.164080	0.869360
C57	C	-0.326082	-0.371260	0.326151
C58	C	0.173918	0.128740	0.826151
C59	C	-0.326082	-0.447908	0.326144
C60	C	0.173918	0.052092	0.826144
C61	C	-0.326085	-0.509000	0.326142
C62	C	0.173915	-0.009000	0.826142
C63	C	-0.501942	-0.978034	0.326125
C64	C	-0.001942	-0.478034	0.826125
C65	C	-0.577174	-0.978063	0.326137
C66	C	-0.077174	-0.478063	0.826137
C67	C	-0.612454	-1.021337	0.369468
C68	C	-0.112454	-0.521337	0.869468
C69	C	-0.683142	-1.021361	0.369481
C70	C	-0.183142	-0.521361	0.869481
C71	C	-0.718550	-0.978114	0.326158
C72	C	-0.218550	-0.478114	0.826158
C73	C	-0.683265	-0.934835	0.282825
C74	C	-0.183265	-0.434835	0.782825
C75	C	-0.612578	-0.934808	0.282817
C76	C	-0.112578	-0.434808	0.782817
C77	C	-0.968338	-0.934944	0.282860
C78	C	-0.468338	-0.434944	0.782860
C79	C	-1.039030	-0.934976	0.282871
C80	C	-0.539030	-0.434976	0.782871
C81	C	-1.038902	-1.021497	0.369524
C82	C	-0.538902	-0.521497	0.869524
C83	C	-0.968215	-1.021470	0.369515
C84	C	-0.468215	-0.521470	0.869515
C85	C	-0.932937	-0.978189	0.326185
C86	C	-0.432937	-0.478189	0.826185
C87	C	-0.856289	-0.978162	0.326173
C88	C	-0.356289	-0.478162	0.826173
C89	C	-0.795197	-0.978144	0.326167
C90	C	-0.295197	-0.478144	0.826167
C91	C	-0.149543	-0.978207	0.326189
C92	C	0.350457	-0.478207	0.826189
C93	C	-0.074311	-0.978248	0.326206
C94	C	0.425689	-0.478248	0.826206
C95	C	-0.326043	-0.978149	0.502692
C96	C	0.173957	-0.478149	1.002692
C97	C	-0.326025	-0.978165	0.577924
C98	C	0.173975	-0.478165	1.077924
C99	C	-0.326098	-0.154653	0.326170
C100	C	0.173902	0.345347	0.826170
C101	C	-0.326092	-0.229885	0.326162
C102	C	0.173908	0.270115	0.826162
C103	C	-0.326080	-0.978112	0.150293
C104	C	0.173920	-0.478112	0.650293
C105	C	-0.325907	-0.978227	0.075062
C106	C	0.174093	-0.478227	0.575062
C107	C	-0.282737	-1.021480	0.613286
C108	C	0.217263	-0.521480	1.113286
C109	C	-0.282717	-1.021487	0.683974
C110	C	0.217283	-0.521487	1.183974
C111	C	-0.325990	-0.978182	0.719300
C112	C	0.174010	-0.478182	1.219300
C113	C	-0.369280	-0.934862	0.683933
C114	C	0.130720	-0.434862	1.183933
C115	C	-0.369296	-0.934852	0.613246
C116	C	0.130704	-0.434852	1.113246
C117	C	-0.369217	-0.934900	0.969007
C118	C	0.130783	-0.434900	1.469007
C119	C	-0.369200	-0.934915	1.039699
C120	C	0.130800	-0.434915	1.539699
C121	C	-0.282638	-1.021535	1.039735
C122	C	0.217362	-0.521535	1.539735
C123	C	-0.282654	-1.021525	0.969048
C124	C	0.217346	-0.521525	1.469048
C125	C	-0.325942	-0.978203	0.933687
C126	C	0.174058	-0.478203	1.433687
C127	C	-0.325961	-0.978195	0.857039
C128	C	0.174039	-0.478195	1.357039
C129	C	-0.325974	-0.978193	0.795947
C130	C	0.174026	-0.478193	1.295947
H131	H	-0.247448	-0.364684	0.247754
H132	H	0.252552	0.135316	0.747754
H133	H	-0.247501	-1.056746	0.584529
H134	H	0.252499	-0.556746	1.084529
O135	O	-0.240690	-0.586555	0.240982
O136	O	0.259310	-0.086555	0.740982
C137	C	-0.202241	-0.477657	0.202721
C138	C	0.297759	0.022343	0.702721
C139	C	-0.249900	-0.516572	0.250247
C140	C	0.250100	-0.016572	0.750247
H141	H	-0.209660	-0.421069	0.210205
H142	H	0.290340	0.078931	0.710205
H143	H	-0.214050	-0.491476	0.148105
H144	H	0.285950	0.008524	0.648105
H145	H	-0.147687	-0.491625	0.214700
H146	H	0.352313	0.008375	0.714700
H147	H	-0.304470	-0.502625	0.238329
H148	H	0.195530	-0.002625	0.738329
H149	H	-0.238032	-0.502749	0.304849
H150	H	0.261968	-0.002749	0.804849
H151	H	-0.404729	-0.364696	0.404541
H152	H	0.095271	0.135304	0.904541
H153	H	-0.247452	-0.236450	0.247764
H154	H	0.252548	0.263550	0.747764
O155	O	-0.411598	-0.726045	0.411212
O156	O	0.088402	-0.226045	0.911212
C157	C	-0.502964	-0.805848	0.420159
C158	C	-0.002964	-0.305848	0.920159
C159	C	-0.455255	-0.766966	0.372655
C160	C	0.044745	-0.266966	0.872655
H161	H	-0.538262	-0.838953	0.389006
H162	H	-0.038262	-0.338953	0.889006
H163	H	-0.533991	-0.768474	0.451033
H164	H	-0.033991	-0.268474	0.951033
H165	H	-0.471918	-0.838939	0.455617
H166	H	0.028082	-0.338939	0.955617
H167	H	-0.486248	-0.733874	0.337157
H168	H	0.013752	-0.233874	0.837157
H169	H	-0.424226	-0.804377	0.341829
H170	H	0.075774	-0.304377	0.841829
H171	H	-0.711864	-1.056605	0.404760
H172	H	-0.211864	-0.556605	0.904760
H173	H	-0.247431	-0.720453	0.247741
H174	H	0.252569	-0.220453	0.747741
H175	H	-0.939389	-1.056688	0.404790
H176	H	-0.439389	-0.556688	0.904790
O177	O	-0.411481	-0.230799	0.411322
O178	O	0.088519	0.269201	0.911322
C179	C	-0.449937	-0.121905	0.449605
C180	C	0.050063	0.378095	0.949605
C181	C	-0.402277	-0.160815	0.402069
C182	C	0.097723	0.339185	0.902069
H183	H	-0.442523	-0.065316	0.442130
H184	H	0.057477	0.434684	0.942130
H185	H	-0.438124	-0.135784	0.504218
H186	H	0.061876	0.364216	1.004218
H187	H	-0.504490	-0.135817	0.437626
H188	H	-0.004490	0.364183	0.937626
H189	H	-0.347708	-0.146924	0.413988
H190	H	0.152292	0.353076	0.913988
H191	H	-0.414149	-0.146933	0.347471
H192	H	0.085851	0.353067	0.847471
O193	O	-0.578166	-1.063367	0.411618
O194	O	-0.078166	-0.563367	0.911618
C195	C	-0.585508	-1.149211	0.497549
C196	C	-0.085508	-0.649211	0.997549
C197	C	-0.624420	-1.101637	0.449856
C198	C	-0.124420	-0.601637	0.949856
H199	H	-0.622887	-1.180175	0.528467
H200	H	-0.122887	-0.680175	1.028467
H201	H	-0.552440	-1.118132	0.532951
H202	H	-0.052440	-0.618132	1.032951
H203	H	-0.552383	-1.184582	0.466497
H204	H	-0.052383	-0.684582	0.966497
H205	H	-0.657581	-1.066257	0.480853
H206	H	-0.157581	-0.566257	0.980853
H207	H	-0.657446	-1.132758	0.414452
H208	H	-0.157446	-0.632758	0.914452
H209	H	-0.404720	-0.592222	0.404530
H210	H	0.095280	-0.092222	0.904530
O211	O	-1.073322	-0.892896	0.240767
O212	O	-0.573322	-0.392896	0.740767
C213	C	-1.065994	-0.807093	0.154793
C214	C	-0.565994	-0.307093	0.654793
C215	C	-1.027075	-0.854698	0.202449
C216	C	-0.527075	-0.354698	0.702449
H217	H	-1.028620	-0.776208	0.123791
H218	H	-0.528620	-0.276208	0.623791
H219	H	-1.099082	-0.771657	0.185811
H220	H	-0.599082	-0.271657	0.685811
H221	H	-1.099100	-0.838212	0.119463
H222	H	-0.599100	-0.338212	0.619463
H223	H	-0.993932	-0.823634	0.237789
H224	H	-0.493932	-0.323634	0.737789
H225	H	-0.994029	-0.890137	0.171390
H226	H	-0.494029	-0.390137	0.671390
H227	H	-1.067635	-1.056737	0.404808
H228	H	-0.567635	-0.556737	0.904808
H229	H	-0.939620	-0.899705	0.247578
H230	H	-0.439620	-0.399705	0.747578
O231	O	-0.240648	-1.063630	0.718219
O232	O	0.259352	-0.563630	1.218219
C233	C	-0.154767	-1.149525	0.710795
C234	C	0.345233	-0.649525	1.210795
C235	C	-0.202390	-1.101842	0.671929
C236	C	0.297610	-0.601842	1.171929
H237	H	-0.123813	-1.180422	0.673387
H238	H	0.376187	-0.680422	1.173387
H239	H	-0.185808	-1.184946	0.743873
H240	H	0.314192	-0.684946	1.243873
H241	H	-0.119390	-1.118465	0.743908
H242	H	0.380610	-0.618465	1.243908
H243	H	-0.237776	-1.132846	0.638780
H244	H	0.262224	-0.632846	1.138780
H245	H	-0.171307	-1.066418	0.638895
H246	H	0.328693	-0.566418	1.138895
H247	H	-0.247419	-1.056791	0.940289
H248	H	0.252581	-0.556791	1.440289
O249	O	-0.717762	-0.892889	0.240763
O250	O	-0.217762	-0.392889	0.740763
C251	C	-0.826714	-0.854560	0.202394
C252	C	-0.326714	-0.354560	0.702394
C253	C	-0.787732	-0.902108	0.250056
C254	C	-0.287732	-0.402108	0.750056
H255	H	-0.883291	-0.861986	0.209902
H256	H	-0.383291	-0.361986	0.709902
H257	H	-0.812886	-0.866475	0.147812
H258	H	-0.312886	-0.366475	0.647812
H259	H	-0.812816	-0.799977	0.214218
H260	H	-0.312816	-0.299977	0.714218
H261	H	-0.801610	-0.956707	0.238294
H262	H	-0.301610	-0.456707	0.738294
H263	H	-0.801564	-0.890135	0.304624
H264	H	-0.301564	-0.390135	0.804624
O265	O	-0.578410	-0.892749	0.240662
O266	O	-0.078410	-0.392749	0.740662
C267	C	-0.585992	-0.806896	0.154747
C268	C	-0.085992	-0.306896	0.654747
C269	C	-0.624770	-0.854510	0.202438
C270	C	-0.124770	-0.354510	0.702438
H271	H	-0.623458	-0.775958	0.123840
H272	H	-0.123458	-0.275958	0.623840
H273	H	-0.552909	-0.837942	0.119335
H274	H	-0.052909	-0.337942	0.619335
H275	H	-0.552895	-0.771504	0.185800
H276	H	-0.052895	-0.271504	0.685800
H277	H	-0.657905	-0.889912	0.171439
H278	H	-0.157905	-0.389912	0.671439
H279	H	-0.657812	-0.823422	0.237852
H280	H	-0.157812	-0.323422	0.737852
H281	H	-0.247389	-1.056807	1.068534
H282	H	0.252611	-0.556807	1.568534
H283	H	-0.404439	-0.899648	1.068459
H284	H	0.095561	-0.399648	1.568459
H285	H	-0.404475	-0.899635	0.940225
H286	H	0.095525	-0.399635	1.440225
O287	O	-0.411293	-0.892857	0.718351
O288	O	0.088707	-0.392857	1.218351
C289	C	-0.449605	-0.854453	0.827230
C290	C	0.050395	-0.354453	1.327230
C291	C	-0.402001	-0.902068	0.788339
C292	C	0.097999	-0.402068	1.288339
H293	H	-0.442099	-0.861873	0.883822
H294	H	0.057901	-0.361873	1.383822
H295	H	-0.504202	-0.866306	0.813371
H296	H	-0.004202	-0.366306	1.313371
H297	H	-0.437722	-0.799888	0.813282
H298	H	0.062278	-0.299888	1.313282
H299	H	-0.413823	-0.956649	0.802266
H300	H	0.086177	-0.456649	1.302266
H301	H	-0.347418	-0.890157	0.802201
H302	H	0.152582	-0.390157	1.302201
H303	H	-0.404539	-0.899574	0.584456
H304	H	0.095461	-0.399574	1.084456
