data_functionalizedCrystal
_audit_creation_method	'MofGen! by Chris Wilmer'
_symmetry_space_group_name_H-M	'P1'
_symmetry_Int_Tables_number	1
_symmetry_cell_setting	triclinic
loop_
_symmetry_equiv_pos_as_xyz
  x,y,z
_cell_length_a	17.038272
_cell_length_b	10.723024
_cell_length_c	9.798715
_cell_angle_alpha	90.003391
_cell_angle_beta	89.996584
_cell_angle_gamma	92.210287
loop_
_atom_site_label
_atom_site_type_symbol
_atom_site_fract_x
_atom_site_fract_y
_atom_site_fract_z
O1	O	0.109720	-1.667337	-0.113484
O2	O	0.120222	-1.305156	-0.113489
O3	O	0.001144	-1.484094	-0.113475
O4	O	0.228799	-1.488399	-0.113497
O5	O	0.001144	-1.484079	0.113507
O6	O	0.120222	-1.305141	0.113494
O7	O	0.109720	-1.667322	0.113498
Zn8	Zn	0.114971	-1.486230	0.149534
Zn9	Zn	0.114971	-1.486248	-0.149525
O10	O	0.228798	-1.488384	0.113485
C11	C	0.119458	-1.258578	0.000002
C12	C	0.117171	-1.119813	0.000000
C13	C	-0.028006	-1.480171	0.000015
C14	C	-0.114864	-1.468489	0.000015
N15	N	0.114970	-1.486226	0.353634
C16	C	-0.164385	-1.575744	0.000018
C17	C	-0.245996	-1.564760	0.000005
C18	C	-0.278084	-1.446520	-0.000002
C19	C	-0.228557	-1.339256	-0.000009
C20	C	-0.146947	-1.350241	-0.000005
C21	C	-0.524057	-1.407711	-0.000021
C22	C	-0.605673	-1.396734	-0.000020
C23	C	-0.623107	-1.622239	-0.000009
C24	C	-0.541495	-1.633214	0.000002
C25	C	-0.491974	-1.525950	-0.000012
C26	C	-0.361504	-1.435289	-0.000011
C27	C	-0.408556	-1.537182	-0.000013
C28	C	0.257948	-1.492307	-0.000009
C29	C	0.344806	-1.503989	-0.000017
C30	C	0.110484	-1.713900	0.000005
C31	C	0.112771	-1.852666	-0.000003
C32	C	0.183801	-1.050993	-0.000007
C33	C	0.181440	-0.907571	-0.000008
N34	N	0.114966	-1.486261	-0.353624
C35	C	0.064752	-1.561337	0.421416
C36	C	0.064749	-1.561356	0.578579
H37	H	-0.286314	-1.652100	0.000010
H38	H	0.055727	-0.911814	-0.000005
H39	H	-0.663435	-1.709567	-0.000000
H40	H	-0.515375	-1.729498	0.000007
H41	H	0.058378	-1.072552	-0.000029
N42	N	0.171916	-1.401073	0.569173
H43	H	0.162568	-1.311438	0.593988
H44	H	0.227470	-1.421673	0.593987
H45	H	0.021758	-1.625667	0.636869
N46	N	0.007781	-1.646469	0.344182
H47	H	0.015850	-1.634373	0.242857
H48	H	0.017137	-1.736083	0.369048
N49	N	0.171917	-1.401060	0.430878
H50	H	0.227496	-1.421549	0.406078
H51	H	0.162501	-1.311452	0.406069
N52	N	-0.129778	-1.703276	0.000037
H53	H	-0.173536	-1.769554	0.000035
H54	H	-0.096293	-1.712754	-0.084105
N55	N	-0.640285	-1.269197	-0.000029
H56	H	-0.596531	-1.202912	-0.000041
H57	H	-0.673765	-1.259746	-0.084173
H58	H	-0.483747	-1.320369	-0.000032
H59	H	-0.254689	-1.242982	-0.000022
H60	H	-0.106627	-1.262902	-0.000008
H61	H	-0.382426	-1.633453	-0.000038
N62	N	0.257002	-0.829226	-0.000029
H63	H	0.244604	-0.737876	-0.000031
H64	H	0.288482	-0.848749	0.084113
H65	H	-0.387640	-1.339017	-0.000013
H66	H	0.242594	-1.098254	-0.000005
