data_functionalizedCrystal
_audit_creation_method	'MofGen! by Chris Wilmer'
_symmetry_space_group_name_H-M	'P1'
_symmetry_Int_Tables_number	1
_symmetry_cell_setting	triclinic
loop_
_symmetry_equiv_pos_as_xyz
  x,y,z
_cell_length_a	10.685194
_cell_length_b	16.959455
_cell_length_c	10.685314
_cell_angle_alpha	85.654418
_cell_angle_beta	89.632195
_cell_angle_gamma	85.625091
loop_
_atom_site_label
_atom_site_type_symbol
_atom_site_fract_x
_atom_site_fract_y
_atom_site_fract_z
Zn1	Zn	-0.553825	-1.149678	-0.671124
Zn2	Zn	-0.747588	-1.151157	-0.445268
Zn3	Zn	-0.537810	-1.028335	-0.461357
Zn4	Zn	-0.763553	-1.008205	-0.654966
O5	O	-0.650694	-1.084344	-0.558179
O6	O	-0.579550	-1.260483	-0.641192
O7	O	-0.706378	-1.143907	-0.271856
O8	O	-0.364370	-1.052237	-0.502679
O9	O	-0.721907	-1.261569	-0.475257
O10	O	-0.376137	-1.141387	-0.656793
O11	O	-0.552255	-1.053670	-0.283676
O12	O	-0.567734	-0.915056	-0.487011
O13	O	-0.749115	-1.017929	-0.832656
O14	O	-0.733586	-0.900267	-0.629254
O15	O	-0.595030	-1.121869	-0.844527
O16	O	-0.925271	-1.124388	-0.459590
O17	O	-0.936999	-1.019363	-0.613653
C18	C	-0.650656	-0.878982	-0.558126
C19	C	-0.650672	-0.791124	-0.558131
C20	C	-0.564214	-0.757525	-0.484206
C21	C	-0.737137	-0.742169	-0.632068
C22	C	-0.737151	-0.659622	-0.632080
C23	C	-0.650694	-0.626023	-0.558155
C24	C	-0.564223	-0.674971	-0.484219
C25	C	-0.823612	-0.610667	-0.706025
C26	C	-0.823628	-0.528115	-0.706041
C27	C	-0.737176	-0.494514	-0.632109
C28	C	-0.650702	-0.543468	-0.558168
C29	C	-0.564245	-0.509869	-0.484243
C30	C	-0.477777	-0.558822	-0.410295
C31	C	-0.477771	-0.641371	-0.410286
C32	C	-0.737182	-0.411965	-0.632118
C33	C	-0.564254	-0.427315	-0.484256
C34	C	-0.976659	-1.069872	-0.533149
C35	C	-1.116111	-1.063751	-0.522484
C36	C	-0.323459	-1.098893	-0.583333
C37	C	-0.184011	-1.105092	-0.594052
C38	C	-0.675640	-1.067489	-0.885382
C39	C	-0.686270	-1.060306	-1.024816
C40	C	-0.650727	-0.290509	-0.558217
C41	C	-0.650725	-0.378366	-0.558193
C42	C	-0.625755	-1.101183	-0.232256
C43	C	-0.614772	-1.108534	-0.092849
H44	H	-0.894038	-0.488264	-0.766253
H45	H	-0.545411	-1.155316	-1.044419
H46	H	-0.893997	-0.638030	-0.766215
C47	C	-0.469147	-0.390362	-0.402940
H48	H	-0.417648	-0.431340	-0.358909
H49	H	-0.512884	-0.358840	-0.344536
H50	H	-0.418214	-0.358118	-0.455221
C51	C	-0.382647	-0.695214	-0.328971
H52	H	-0.331160	-0.663384	-0.284939
H53	H	-0.331722	-0.727364	-0.381245
H54	H	-0.426377	-0.728107	-0.270547
C55	C	-0.469097	-0.811363	-0.402875
H56	H	-0.417613	-0.779527	-0.358849
H57	H	-0.418168	-0.843521	-0.455135
H58	H	-0.512833	-0.844249	-0.344446
H59	H	-1.135459	-1.145171	-0.663491
H60	H	-0.407378	-0.531455	-0.350112
H61	H	-0.807522	-0.769530	-0.692260
H62	H	-0.807576	-0.372112	-0.692334
H63	H	-0.755613	-1.013519	-1.073241
H64	H	-1.164671	-1.023663	-0.453052
