data_functionalizedCrystal
_audit_creation_method	'MofGen! by Chris Wilmer'
_symmetry_space_group_name_H-M	'P1'
_symmetry_Int_Tables_number	1
_symmetry_cell_setting	triclinic
loop_
_symmetry_equiv_pos_as_xyz
  x,y,z
_cell_length_a	10.654550
_cell_length_b	15.944551
_cell_length_c	9.130313
_cell_angle_alpha	89.994529
_cell_angle_beta	89.999724
_cell_angle_gamma	83.991834
loop_
_atom_site_label
_atom_site_type_symbol
_atom_site_fract_x
_atom_site_fract_y
_atom_site_fract_z
O1	O	1.666313	0.117977	-0.121694
O2	O	1.300689	0.129217	-0.121721
O3	O	1.493485	0.001379	-0.121693
O4	O	1.473517	0.245814	-0.121721
O5	O	1.493472	0.001376	0.121906
O6	O	1.300676	0.129213	0.121878
O7	O	1.666300	0.117973	0.121905
Cu8	Cu	1.483487	0.123592	0.144134
Cu9	Cu	1.483502	0.123597	-0.143950
O10	O	1.473503	0.245810	0.121878
C11	C	1.253895	0.128389	0.000075
C12	C	1.114484	0.125920	0.000065
C13	C	1.492650	-0.029921	0.000106
C14	C	1.490165	-0.123182	0.000107
C15	C	1.034024	0.201189	0.000061
C16	C	0.903034	0.198863	0.000087
C17	C	0.932975	0.045995	0.000115
C18	C	1.063963	0.048321	0.000100
C19	C	1.364720	-0.338764	0.000077
C20	C	1.422966	-0.399446	0.120191
C21	C	1.485668	-0.293933	0.000095
C22	C	1.423007	-0.399426	-0.119979
C23	C	1.481317	-0.458871	0.000078
C24	C	1.543947	-0.353387	0.120308
C25	C	1.543972	-0.353360	-0.119969
C26	C	1.602306	-0.414024	0.000173
C27	C	1.488172	-0.198917	0.000107
C28	C	1.478822	-0.553887	0.000077
C29	C	1.713094	0.118800	0.000106
C30	C	1.852505	0.121269	0.000106
C31	C	1.474339	0.277110	0.000075
C32	C	1.476824	0.370371	0.000065
N33	N	1.483485	0.123589	0.346757
N34	N	1.483514	0.123594	-0.346572
C35	C	1.568884	0.067007	0.423421
C36	C	1.568896	0.067007	0.576758
C37	C	1.398106	0.180179	0.576753
C38	C	1.398089	0.180174	0.423419
H39	H	0.837528	0.260155	0.000086
O40	O	1.605037	-0.329105	0.241437
C41	C	1.779638	-0.261053	0.336020
C42	C	1.710567	-0.288491	0.198721
H43	H	1.864988	-0.228227	0.301533
H44	H	1.712811	-0.215747	0.403402
H45	H	1.812296	-0.318935	0.404783
H46	H	1.677904	-0.230660	0.129845
H47	H	1.777440	-0.333825	0.131449
H48	H	1.264327	-0.306038	0.000190
H49	H	1.702787	-0.446601	0.000249
O50	O	1.315253	0.235260	0.349006
C51	C	1.241607	0.380855	0.302118
C52	C	1.335506	0.318570	0.386454
H53	H	1.257932	0.448224	0.332388
H54	H	1.256259	0.371202	0.179341
H55	H	1.141043	0.369239	0.332269
H56	H	1.436107	0.330148	0.356427
H57	H	1.320744	0.328236	0.509211
O58	O	1.362141	-0.423856	-0.241166
C59	C	1.376223	-0.506794	-0.462294
C60	C	1.445306	-0.479216	-0.325105
H61	H	1.443439	-0.551544	-0.530213
H62	H	1.291545	-0.540294	-0.427734
H63	H	1.342556	-0.448904	-0.530553
H64	H	1.479056	-0.537061	-0.256785
H65	H	1.529925	-0.445687	-0.359766
O66	O	1.082893	0.276637	0.000105
C67	C	1.039364	0.428016	0.000002
C68	C	0.983858	0.342627	-0.000019
H69	H	0.959322	0.481391	-0.000129
H70	H	1.099904	0.432983	0.101963
H71	H	1.099975	0.432883	-0.101928
H72	H	0.923191	0.337701	0.101842
H73	H	0.923391	0.337696	-0.102048
O74	O	1.604787	-0.328867	-0.241145
C75	C	1.591249	-0.244621	-0.460809
C76	C	1.522250	-0.272278	-0.323605
H77	H	1.524540	-0.198879	-0.527533
H78	H	1.676997	-0.212224	-0.426285
H79	H	1.623274	-0.302342	-0.530238
H80	H	1.490142	-0.214602	-0.254116
H81	H	1.436560	-0.304705	-0.358231
O82	O	0.883687	-0.029309	0.000072
C83	C	0.695163	-0.100643	0.000188
C84	C	0.750809	-0.015302	0.000208
H85	H	0.587724	-0.089348	0.000329
H86	H	0.728203	-0.137890	-0.101778
H87	H	0.728381	-0.137876	0.102114
H88	H	0.717616	0.021999	-0.101648
H89	H	0.717775	0.021881	0.102241
H90	H	1.129477	-0.012976	0.000108
H91	H	1.638416	0.020930	0.361006
O92	O	1.651976	0.012014	0.651001
C93	C	1.821326	-0.100270	0.634814
C94	C	1.727324	-0.038018	0.550553
H95	H	1.882252	-0.140748	0.553638
H96	H	1.884150	-0.063654	0.706545
H97	H	1.767097	-0.142534	0.706657
H98	H	1.781451	0.004261	0.478630
H99	H	1.664501	-0.074686	0.478914
O100	O	1.361734	-0.423741	0.241217
C101	C	1.167336	-0.412600	0.378101
C102	C	1.236528	-0.385040	0.240969
H103	H	1.066103	-0.381309	0.377962
H104	H	1.166743	-0.484057	0.377490
H105	H	1.217979	-0.392793	0.480437
H106	H	1.185940	-0.404789	0.138561
H107	H	1.237132	-0.313585	0.241709
O108	O	1.314990	0.235060	0.651164
C109	C	1.096642	0.282949	0.698044
C110	C	1.190632	0.220733	0.613711
H111	H	0.996079	0.271399	0.667771
H112	H	1.111217	0.273233	0.820822
H113	H	1.113061	0.350322	0.667893
H114	H	1.174270	0.153336	0.643739
H115	H	1.176035	0.230522	0.490954
