data_functionalizedCrystal
_audit_creation_method	'MofGen! by Chris Wilmer'
_symmetry_space_group_name_H-M	'P1'
_symmetry_Int_Tables_number	1
_symmetry_cell_setting	triclinic
loop_
_symmetry_equiv_pos_as_xyz
  x,y,z
_cell_length_a	12.759401
_cell_length_b	16.959454
_cell_length_c	12.759393
_cell_angle_alpha	90.029640
_cell_angle_beta	90.020938
_cell_angle_gamma	90.021600
loop_
_atom_site_label
_atom_site_type_symbol
_atom_site_fract_x
_atom_site_fract_y
_atom_site_fract_z
Zn1	Zn	1.606227	-0.314611	0.594026
Zn2	Zn	1.606102	-0.446810	0.418349
Zn3	Zn	1.430526	-0.314653	0.418362
Zn4	Zn	1.430501	-0.446755	0.593986
O5	O	1.518339	-0.380707	0.506181
O6	O	1.753232	-0.332153	0.570734
O7	O	1.582769	-0.429320	0.271330
O8	O	1.453896	-0.204037	0.441686
O9	O	1.753139	-0.429279	0.441665
O10	O	1.582983	-0.204006	0.570746
O11	O	1.453774	-0.332225	0.271339
O12	O	1.283502	-0.332171	0.441647
O13	O	1.453854	-0.429185	0.741013
O14	O	1.283484	-0.429226	0.570678
O15	O	1.582959	-0.332100	0.741042
O16	O	1.582745	-0.557414	0.441626
O17	O	1.453732	-0.557373	0.570666
C18	C	1.245372	-0.380698	0.506160
C19	C	1.128595	-0.380713	0.506176
C20	C	1.073751	-0.431326	0.573257
C21	C	0.964027	-0.431329	0.573277
C22	C	0.964000	-0.330103	0.439128
C23	C	1.073722	-0.330097	0.439113
C24	C	1.518251	-0.586074	0.506163
C25	C	1.518309	-0.673930	0.506190
C26	C	1.451259	-1.045415	0.573365
C27	C	1.585711	-1.045397	0.439104
C28	C	1.585675	-0.962851	0.439094
C29	C	1.518428	-0.921583	0.506220
C30	C	1.451218	-0.962861	0.573355
C31	C	1.652875	-0.921567	0.371953
C32	C	1.652841	-0.839016	0.371940
C33	C	1.585599	-0.797747	0.439071
C34	C	1.518387	-0.839030	0.506210
C35	C	1.451141	-0.797762	0.573335
C36	C	1.383934	-0.839043	0.640480
C37	C	1.383977	-0.921592	0.640486
C38	C	1.585556	-0.715198	0.439065
C39	C	1.451100	-0.715208	0.573326
C40	C	1.792372	-0.380718	0.506202
C41	C	1.909149	-0.380722	0.506212
C42	C	1.518418	-0.380632	0.780214
C43	C	1.518451	-0.380599	0.896991
C44	C	1.518456	-0.174539	0.506222
C45	C	1.518506	-0.086683	0.506239
C46	C	1.518321	-0.380726	0.233213
C47	C	1.518491	-0.380536	0.116437
C48	C	1.585681	-0.330039	0.951870
C49	C	1.585699	-0.330005	1.061594
C50	C	1.451254	-0.431098	1.061551
C51	C	1.451232	-0.431128	0.951829
H52	H	1.396343	-0.681613	0.627992
H53	H	1.707616	-0.955173	0.317295
C54	C	1.378396	-0.485930	1.121281
C55	C	1.392824	-0.475100	1.229118
C56	C	1.325736	-0.525607	1.284170
H57	H	1.307766	-0.474413	1.103418
H58	H	1.393747	-0.539062	1.103349
H59	H	1.377466	-0.421981	1.247042
H60	H	1.463440	-0.486623	1.247012
H61	H	1.341087	-0.578739	1.266239
H62	H	1.255110	-0.514086	1.266299
H63	H	1.335523	-0.518271	1.357343
H64	H	1.640270	-0.681591	0.384392
C65	C	1.378425	-1.090188	0.646437
C66	C	1.401258	-1.070057	0.750404
C67	C	1.334194	-1.111296	0.817748
H68	H	1.307797	-1.076743	0.631137
H69	H	1.388089	-1.145270	0.636906
H70	H	1.391585	-1.014988	0.759930
H71	H	1.471873	-1.083505	0.765737
H72	H	1.343858	-1.166377	0.808217
H73	H	1.263570	-1.097847	0.802438
H74	H	1.349683	-1.097648	0.888297
H75	H	0.919378	-0.472542	0.627903
C76	C	0.904232	-0.275239	0.366358
C77	C	0.796403	-0.286090	0.380707
C78	C	0.741315	-0.235570	0.313678
H79	H	0.922117	-0.222112	0.381790
H80	H	0.922113	-0.286747	0.295714
H81	H	0.778530	-0.274577	0.451335
H82	H	0.778487	-0.339207	0.365267
H83	H	0.759196	-0.247077	0.243035
H84	H	0.759209	-0.182446	0.329116
H85	H	0.668148	-0.242930	0.323398
C86	C	1.311038	-0.794091	0.713317
C87	C	1.325407	-0.712964	0.698944
C88	C	1.258286	-0.671526	0.766029
H89	H	1.240418	-0.807571	0.697952
H90	H	1.326396	-0.807525	0.783948
H91	H	1.310042	-0.699535	0.628328
H92	H	1.396013	-0.699461	0.714316
H93	H	1.273644	-0.684961	0.836661
H94	H	1.187671	-0.685013	0.750658
H95	H	1.268033	-0.616478	0.756293
C96	C	1.133465	-0.275173	0.366391
C97	C	1.241299	-0.285986	0.380756
C98	C	1.296366	-0.235398	0.313799
H99	H	1.115574	-0.286627	0.295732
H100	H	1.115574	-0.222062	0.381901
H101	H	1.259182	-0.339085	0.365238
H102	H	1.259221	-0.274527	0.451400
H103	H	1.278475	-0.182286	0.329309
H104	H	1.278467	-0.246855	0.243145
H105	H	1.369537	-0.242722	0.323543
C106	C	1.311140	-0.966372	0.713550
C107	C	1.333968	-0.946255	0.817522
C108	C	1.266902	-0.987503	0.884853
H109	H	1.240513	-0.952925	0.698249
H110	H	1.320805	-1.021452	0.704006
H111	H	1.324294	-0.891188	0.827061
H112	H	1.404583	-0.959705	0.832855
H113	H	1.276566	-1.042583	0.875309
H114	H	1.196278	-0.974052	0.869544
H115	H	1.282387	-0.973865	0.955406
H116	H	1.640454	-1.079002	0.384447
C117	C	1.658607	-0.275257	0.892142
C118	C	1.644220	-0.286115	0.784304
C119	C	1.711387	-0.235667	0.729253
H120	H	1.643326	-0.222112	0.910009
H121	H	1.729219	-0.286827	0.910071
H122	H	1.573624	-0.274540	0.766382
H123	H	1.659508	-0.339250	0.766406
H124	H	1.782000	-0.247237	0.747182
H125	H	1.696101	-0.182526	0.747129
H126	H	1.701642	-0.243033	0.656081
C127	C	1.725753	-0.794302	0.298880
C128	C	1.702962	-0.814454	0.194912
C129	C	1.770120	-0.773287	0.127585
H130	H	1.716172	-0.739216	0.308345
H131	H	1.796358	-0.807806	0.314262
H132	H	1.632375	-0.800945	0.179536
H133	H	1.712550	-0.869533	0.185414
H134	H	1.840724	-0.786791	0.142966
H135	H	1.760533	-0.718203	0.137058
H136	H	1.754672	-0.786959	0.057035
C137	C	1.133139	-0.486302	0.646189
C138	C	1.061618	-0.530610	0.704961
C139	C	1.116284	-0.581253	0.772172
H140	H	1.175912	-0.520775	0.606036
H141	H	1.175953	-0.456119	0.692085
H142	H	1.018822	-0.560790	0.659071
H143	H	1.018842	-0.496158	0.745135
H144	H	1.159098	-0.551071	0.818067
H145	H	1.159056	-0.615722	0.732011
H146	H	1.067766	-0.611318	0.812063
C147	C	1.658810	-0.275082	1.120988
C148	C	1.717687	-0.230854	1.049474
C149	C	1.785060	-0.180255	1.104148
H150	H	1.618769	-0.240555	1.163793
H151	H	1.704632	-0.305292	1.163771
H152	H	1.671871	-0.200646	1.006709
H153	H	1.757750	-0.265360	1.006667
H154	H	1.830882	-0.210466	1.146931
H155	H	1.745010	-0.145734	1.146951
H156	H	1.825022	-0.150246	1.055635
C157	C	1.378366	-0.486159	0.892292
C158	C	1.401219	-0.564362	0.918943
C159	C	1.334128	-0.615073	0.864107
H160	H	1.307748	-0.474688	0.910217
H161	H	1.387989	-0.478990	0.819082
H162	H	1.391587	-0.571527	0.992136
H163	H	1.471825	-0.575857	0.901014
H164	H	1.343751	-0.607904	0.790898
H165	H	1.263513	-0.603595	0.882037
H166	H	1.349630	-0.668140	0.882175
