data_functionalizedCrystal
_audit_creation_method	'MofGen! by Chris Wilmer'
_symmetry_space_group_name_H-M	'P1'
_symmetry_Int_Tables_number	1
_symmetry_cell_setting	triclinic
loop_
_symmetry_equiv_pos_as_xyz
  x,y,z
_cell_length_a	6.817900
_cell_length_b	9.582860
_cell_length_c	11.102228
_cell_angle_alpha	90.975045
_cell_angle_beta	108.604565
_cell_angle_gamma	111.206767
loop_
_atom_site_label
_atom_site_type_symbol
_atom_site_fract_x
_atom_site_fract_y
_atom_site_fract_z
V1	V	-4.125313	-0.207059	-0.396024
O2	O	-4.069887	0.009947	-0.388724
O3	O	-4.115650	-0.410560	-0.393084
O4	O	-4.101876	-0.203875	-0.568848
O5	O	-4.083756	-0.198168	-0.211744
V6	V	-4.600687	-0.181102	-0.374010
O7	O	-4.404447	-0.263997	-0.444311
O8	O	-4.771750	-0.124164	-0.325722
O9	O	-4.387144	0.022399	-0.376949
O10	O	-4.773511	-0.398108	-0.381309
O11	O	-4.759642	-0.189993	-0.558290
O12	O	-4.400918	-0.184286	-0.201186
C13	C	-3.969267	-0.460169	-0.386778
C14	C	-4.042819	-0.626533	-0.385527
C15	C	-3.951695	-0.196520	-0.610980
C16	C	-4.014073	-0.195264	-0.752264
C17	C	-4.112674	-0.331720	-0.836635
C18	C	-4.171296	-0.330537	-0.969385
C19	C	-4.032696	-0.056428	-0.933381
C20	C	-3.974090	-0.057614	-0.800633
C21	C	-4.453238	-0.498371	-1.176586
C22	C	-4.551810	-0.634834	-1.260961
C23	C	-4.475362	-0.751419	-1.229616
C24	C	-4.300297	-0.731546	-1.113896
C25	C	-4.201709	-0.595081	-1.029527
C26	C	-4.278206	-0.478503	-1.060873
C27	C	-3.692135	0.110212	-0.593431
C28	C	-3.593530	0.246680	-0.509059
C29	C	-3.669958	0.363279	-0.540399
C30	C	-3.844986	0.343422	-0.656120
C31	C	-3.943591	0.206954	-0.740492
C32	C	-3.867163	0.090355	-0.709143
C33	C	-4.196870	0.072000	-0.383253
C34	C	-4.102558	0.238363	-0.384512
C35	C	-4.214441	-0.191646	-0.159047
C36	C	-4.131300	-0.192894	-0.017762
H37	H	-4.145235	-0.443804	-0.797257
C38	C	-3.988691	0.094981	-0.986599
N39	N	-3.955531	0.209026	-1.026682
C40	C	-3.400991	0.268519	-0.381762
N41	N	-3.255978	0.284965	-0.285880
H42	H	-4.086113	0.190793	-0.834719
C43	C	-3.561474	0.513399	-0.447583
N44	N	-3.479776	0.626466	-0.377677
C45	C	-3.929066	0.471685	-0.690598
N46	N	-3.992388	0.568299	-0.716563
H47	H	-3.629890	0.015272	-0.567901
H48	H	-4.238041	-0.826480	-1.088393
C49	C	-4.009159	-0.573220	-0.902238
N50	N	-3.864139	-0.556763	-0.806358
H51	H	-4.694356	-0.651005	-1.355179
C52	C	-4.583804	-0.901530	-1.322432
N53	N	-4.665498	-1.014592	-1.392344
C54	C	-4.537355	-0.370129	-1.211075
N55	N	-4.600708	-0.273532	-1.237062
