data_functionalizedCrystal
_audit_creation_method	'MofGen! by Chris Wilmer'
_symmetry_space_group_name_H-M	'P1'
_symmetry_Int_Tables_number	1
_symmetry_cell_setting	triclinic
loop_
_symmetry_equiv_pos_as_xyz
  x,y,z
_cell_length_a	16.625546
_cell_length_b	17.640112
_cell_length_c	17.640968
_cell_angle_alpha	92.139080
_cell_angle_beta	101.233484
_cell_angle_gamma	78.752230
loop_
_atom_site_label
_atom_site_type_symbol
_atom_site_fract_x
_atom_site_fract_y
_atom_site_fract_z
Zn1	Zn	-0.023167	-1.247778	0.195079
Zn2	Zn	-0.189521	-1.222008	0.068091
Zn3	Zn	-0.075617	-1.095110	0.093723
Zn4	Zn	-0.178908	-1.120749	0.220673
O5	O	-0.116803	-1.171411	0.144392
O6	O	-0.027726	-1.350629	0.156795
O7	O	-0.200804	-1.183660	-0.034783
O8	O	0.044187	-1.115417	0.107184
O9	O	-0.149946	-1.331696	0.063498
O10	O	0.082722	-1.227581	0.181650
O11	O	-0.117119	-1.090428	-0.015951
O12	O	-0.106828	-0.992242	0.132002
O13	O	-0.131856	-1.159114	0.323552
O14	O	-0.182715	-1.011078	0.225272
O15	O	-0.017434	-1.252442	0.304748
O16	O	-0.300961	-1.208521	0.088315
O17	O	-0.293163	-1.134126	0.200417
C18	C	-0.149311	-0.974106	0.184196
C19	C	-0.163234	-0.889701	0.201243
C20	C	-0.326314	-1.171333	0.144374
C21	C	-0.415926	-1.171374	0.144378
C22	C	-0.067611	-1.211513	0.342476
C23	C	-0.046647	-1.228602	0.426888
C24	C	-0.744060	-1.171522	0.144431
C25	C	-0.652763	-1.171479	0.144419
C26	C	-0.579996	-1.171448	0.144404
C27	C	-0.488693	-1.171406	0.144393
C28	C	0.093533	-1.171514	0.144422
C29	C	0.183166	-1.171558	0.144434
C30	C	-0.084169	-1.369487	0.104432
C31	C	-0.070262	-1.453895	0.087404
C32	C	-0.011024	-0.563039	0.014898
C33	C	-0.024119	-0.483730	0.030926
C34	C	-0.103324	-0.503365	0.127880
C35	C	-0.090232	-0.582678	0.111863
C36	C	-0.044082	-0.612508	0.055370
C37	C	-0.123289	-0.632147	0.152335
C38	C	-0.110201	-0.711452	0.136316
C39	C	-0.064056	-0.741288	0.079824
C40	C	-0.030994	-0.691813	0.039351
C41	C	-0.169444	-0.602314	0.208823
C42	C	-0.202502	-0.651783	0.249296
C43	C	-0.189409	-0.731091	0.233281
C44	C	-0.143264	-0.760927	0.176789
C45	C	-0.222471	-0.780566	0.273754
C46	C	-0.209383	-0.859871	0.257735
C47	C	-0.130176	-0.840232	0.160770
C48	C	-0.165740	-1.131509	-0.052931
C49	C	-0.186451	-1.114568	-0.137372
C50	C	-0.275571	-1.041880	0.753453
C51	C	-0.255860	-1.057954	0.832768
C52	C	-0.136723	-1.155128	0.813179
C53	C	-0.156422	-1.139059	0.733861
C54	C	-0.225847	-1.082435	0.704005
C55	C	-0.106698	-1.179615	0.684413
C56	C	-0.126397	-1.163551	0.605102
C57	C	-0.195821	-1.106931	0.575239
C58	C	-0.245547	-1.066371	0.624694
C59	C	-0.037276	-1.236243	0.714270
C60	C	0.012448	-1.276798	0.664822
C61	C	-0.007248	-1.260730	0.585510
C62	C	-0.076672	-1.204111	0.555647
C63	C	0.042478	-1.301290	0.536055
C64	C	0.022778	-1.285226	0.456744
C65	C	-0.096371	-1.188046	0.476336
H66	H	-0.092581	-0.864523	0.114780
C67	C	0.000565	-0.561425	-0.118566
C68	C	0.039700	-0.595842	-0.047202
H69	H	0.031875	-0.581683	-0.156903
H70	H	-0.002483	-0.507122	-0.114819
H71	H	-0.054234	-0.572141	-0.132380
H72	H	0.094498	-0.585122	-0.033385
H73	H	0.042758	-0.650157	-0.050949
C74	C	0.011986	-1.197124	0.830149
C75	C	-0.060410	-1.217366	0.846000
H76	H	0.059098	-1.235550	0.850407
H77	H	0.018602	-1.148746	0.853450
H78	H	0.007360	-1.193361	0.775835
H79	H	-0.055787	-1.221123	0.900314
H80	H	-0.067027	-1.265757	0.822701
C81	C	-0.333989	-0.634801	0.291014
C82	C	-0.253221	-0.618994	0.311398
H83	H	-0.365298	-0.614557	0.329355
H84	H	-0.330919	-0.689107	0.287266
H85	H	-0.360531	-0.611448	0.242599
H86	H	-0.226676	-0.642352	0.359810
H87	H	-0.256288	-0.564678	0.315154
H88	H	-0.296357	-1.024924	0.873027
C89	C	0.095554	-1.344573	0.777701
C90	C	0.088761	-1.339036	0.697645
H91	H	0.142671	-1.382992	0.797963
H92	H	0.046438	-1.358299	0.788443
H93	H	0.102173	-1.296184	0.800993
H94	H	0.082135	-1.387424	0.674353
H95	H	0.137888	-1.325314	0.686897
H96	H	-0.140902	-0.479066	0.173874
H97	H	-0.211862	-1.093855	0.510658
H98	H	-0.021240	-1.249322	0.778850
H99	H	0.002811	-0.443455	-0.002031
C100	C	0.191188	-1.343300	0.553031
C101	C	0.118786	-1.363533	0.568878
H102	H	0.238295	-1.381730	0.573290
H103	H	0.197809	-1.294924	0.576335
H104	H	0.186565	-1.339536	0.498718
H105	H	0.123406	-1.367291	0.623191
H106	H	0.112164	-1.411922	0.545576
H107	H	-0.180099	-0.537739	0.221864
C108	C	-0.234059	-0.782186	0.407214
C109	C	-0.273196	-0.747769	0.335850
H110	H	-0.265377	-0.761941	0.445548
H111	H	-0.179271	-0.771463	0.421032
H112	H	-0.231000	-0.836497	0.403460
H113	H	-0.276249	-0.693458	0.339602
H114	H	-0.327998	-0.758486	0.322029
H115	H	0.063269	-1.318249	0.416482
H116	H	-0.053403	-0.805864	0.066781
H117	H	0.006601	-0.716104	-0.006640
C118	C	-0.180656	-0.969766	0.341842
C119	C	-0.245716	-0.914257	0.302220
H120	H	-0.203092	-1.003344	0.369300
H121	H	-0.143458	-0.944733	0.377198
H122	H	-0.151306	-0.998873	0.305896
H123	H	-0.275064	-0.885146	0.338168
H124	H	-0.282929	-0.939292	0.266861
C125	C	-0.245089	-1.146068	0.459341
C126	C	-0.172694	-1.125819	0.443495
H127	H	-0.292207	-1.107660	0.439056
H128	H	-0.240479	-1.149809	0.513647
H129	H	-0.251683	-1.194465	0.436055
H130	H	-0.166096	-1.077424	0.466786
H131	H	-0.177304	-1.122069	0.389178
H132	H	-0.302064	-1.020244	0.600388
H133	H	-0.332088	-0.995753	0.729147
