data_functionalizedCrystal
_audit_creation_method	'MofGen! by Chris Wilmer'
_symmetry_space_group_name_H-M	'P1'
_symmetry_Int_Tables_number	1
_symmetry_cell_setting	triclinic
loop_
_symmetry_equiv_pos_as_xyz
  x,y,z
_cell_length_a	18.101398
_cell_length_b	18.050589
_cell_length_c	18.101390
_cell_angle_alpha	89.971577
_cell_angle_beta	89.977223
_cell_angle_gamma	90.023488
loop_
_atom_site_label
_atom_site_type_symbol
_atom_site_fract_x
_atom_site_fract_y
_atom_site_fract_z
Zn1	Zn	1.132125	-0.295725	-0.418861
Zn2	Zn	1.382125	-0.045725	-0.168861
Zn3	Zn	1.632125	0.204275	0.081139
Zn4	Zn	1.882125	0.454275	0.331139
Zn5	Zn	1.132030	-0.419931	-0.295029
Zn6	Zn	1.382030	-0.169931	-0.045029
Zn7	Zn	1.632030	0.080069	0.204971
Zn8	Zn	1.882030	0.330069	0.454971
Zn9	Zn	1.008287	-0.295749	-0.295023
Zn10	Zn	1.258287	-0.045749	-0.045023
Zn11	Zn	1.508287	0.204251	0.204977
Zn12	Zn	1.758287	0.454251	0.454977
Zn13	Zn	1.008240	-0.419868	-0.418818
Zn14	Zn	1.258240	-0.169868	-0.168818
Zn15	Zn	1.508240	0.080132	0.081182
Zn16	Zn	1.758240	0.330132	0.331182
O17	O	1.070170	-0.357818	-0.356933
O18	O	1.320170	-0.107818	-0.106933
O19	O	1.570170	0.142182	0.143067
O20	O	1.820170	0.392182	0.393067
O21	O	1.235745	-0.312218	-0.402456
O22	O	1.485745	-0.062218	-0.152456
O23	O	1.735745	0.187782	0.097544
O24	O	1.985745	0.437782	0.347544
O25	O	1.115595	-0.403494	-0.191396
O26	O	1.365595	-0.153494	0.058604
O27	O	1.615595	0.096506	0.308604
O28	O	1.865595	0.346506	0.558604
O29	O	1.024773	-0.191821	-0.311465
O30	O	1.274773	0.058179	-0.061465
O31	O	1.524773	0.308179	0.188535
O32	O	1.774773	0.558179	0.438535
O33	O	1.235675	-0.403471	-0.311477
O34	O	1.485675	-0.153471	-0.061477
O35	O	1.735675	0.096529	0.188523
O36	O	1.985675	0.346529	0.438523
O37	O	1.115756	-0.191804	-0.402449
O38	O	1.365756	0.058196	-0.152449
O39	O	1.615756	0.308196	0.097551
O40	O	1.865756	0.558196	0.347551
O41	O	1.024681	-0.312258	-0.191391
O42	O	1.274681	-0.062258	0.058609
O43	O	1.524681	0.187742	0.308609
O44	O	1.774681	0.437742	0.558609
O45	O	0.904648	-0.312197	-0.311423
O46	O	1.154648	-0.062197	-0.061423
O47	O	1.404648	0.187803	0.188577
O48	O	1.654648	0.437803	0.438577
O49	O	1.024694	-0.403364	-0.522457
O50	O	1.274694	-0.153364	-0.272457
O51	O	1.524694	0.096636	-0.022457
O52	O	1.774694	0.346636	0.227543
O53	O	0.904614	-0.403387	-0.402375
O54	O	1.154614	-0.153387	-0.152375
O55	O	1.404614	0.096613	0.097625
O56	O	1.654614	0.346613	0.347625
O57	O	1.115711	-0.312157	-0.522489
O58	O	1.365711	-0.062157	-0.272489
O59	O	1.615711	0.187843	-0.022489
O60	O	1.865711	0.437843	0.227511
O61	O	1.115550	-0.523847	-0.311435
O62	O	1.365550	-0.273847	-0.061435
O63	O	1.615550	-0.023847	0.188565
O64	O	1.865550	0.226153	0.438565
O65	O	1.024602	-0.523801	-0.402382
O66	O	1.274602	-0.273801	-0.152382
O67	O	1.524602	-0.023801	0.097618
O68	O	1.774602	0.226199	0.347618
C69	C	0.877760	-0.357788	-0.356894
C70	C	1.127760	-0.107788	-0.106894
C71	C	1.377760	0.142212	0.143106
C72	C	1.627760	0.392212	0.393106
C73	C	0.795446	-0.357793	-0.356895
C74	C	1.045446	-0.107793	-0.106895
C75	C	1.295446	0.142207	0.143105
C76	C	1.545446	0.392207	0.393105
C77	C	0.496355	-0.357840	-0.356957
C78	C	0.746355	-0.107840	-0.106957
C79	C	0.996355	0.142160	0.143043
C80	C	1.246355	0.392160	0.393043
C81	C	0.527677	-0.300179	-0.300012
C82	C	0.777677	-0.050179	-0.050012
C83	C	1.027677	0.199821	0.199988
C84	C	1.277677	0.449821	0.449988
C85	C	0.613295	-0.300333	-0.299769
C86	C	0.863295	-0.050333	-0.049769
C87	C	1.113295	0.199667	0.200231
C88	C	1.363295	0.449667	0.450231
C89	C	0.644737	-0.357816	-0.356927
C90	C	0.894737	-0.107816	-0.106927
C91	C	1.144737	0.142184	0.143073
C92	C	1.394737	0.392184	0.393073
C93	C	0.613624	-0.436049	-0.335608
C94	C	0.863624	-0.186049	-0.085608
C95	C	1.113624	0.063951	0.164392
C96	C	1.363624	0.313951	0.414392
C97	C	0.527979	-0.435728	-0.335212
C98	C	0.777979	-0.185728	-0.085212
C99	C	1.027979	0.064272	0.164788
C100	C	1.277979	0.314272	0.414788
C101	C	0.527966	-0.337948	-0.435355
C102	C	0.777966	-0.087948	-0.185355
C103	C	1.027966	0.162052	0.064645
C104	C	1.277966	0.412052	0.314645
C105	C	0.613617	-0.336206	-0.434927
C106	C	0.863617	-0.086206	-0.184927
C107	C	1.113617	0.163794	0.065073
C108	C	1.363617	0.413794	0.315073
C109	C	0.728597	-0.357807	-0.356910
C110	C	0.978597	-0.107807	-0.106910
C111	C	1.228597	0.142193	0.143090
C112	C	1.478597	0.392193	0.393090
C113	C	0.412495	-0.357853	-0.356972
C114	C	0.662495	-0.107853	-0.106972
C115	C	0.912495	0.142147	0.143028
C116	C	1.162495	0.392147	0.393028
C117	C	1.070081	-0.550770	-0.356921
C118	C	1.320081	-0.300770	-0.106921
C119	C	1.570081	-0.050770	0.143079
C120	C	1.820081	0.199230	0.393079
C121	C	1.070111	-0.633316	-0.356940
C122	C	1.320111	-0.383316	-0.106940
C123	C	1.570111	-0.133316	0.143060
C124	C	1.820111	0.116684	0.393060
C125	C	1.020702	-0.832769	-0.406380
C126	C	1.270702	-0.582769	-0.156380
C127	C	1.520702	-0.332769	0.093620
C128	C	1.770702	-0.082769	0.343620
C129	C	1.002652	-0.882213	-0.338801
C130	C	1.252652	-0.632213	-0.088801
C131	C	1.502652	-0.382213	0.161199
C132	C	1.752652	-0.132213	0.411199
C133	C	1.070183	-0.784447	-0.356950
C134	C	1.320183	-0.534447	-0.106950
C135	C	1.570183	-0.284447	0.143050
C136	C	1.820183	-0.034447	0.393050
C137	C	1.088270	-0.882084	-0.424536
C138	C	1.338270	-0.632084	-0.174536
C139	C	1.588270	-0.382084	0.075464
C140	C	1.838270	-0.132084	0.325464
C141	C	1.070252	-0.930432	-0.356965
C142	C	1.320252	-0.680432	-0.106965
C143	C	1.570252	-0.430432	0.143035
C144	C	1.820252	-0.180432	0.393035
C145	C	1.052098	-0.832804	-0.289335
C146	C	1.302098	-0.582804	-0.039335
C147	C	1.552098	-0.332804	0.210665
C148	C	1.802098	-0.082804	0.460665
C149	C	1.137747	-0.832670	-0.375116
C150	C	1.387747	-0.582670	-0.125116
C151	C	1.637747	-0.332670	0.124884
C152	C	1.887747	-0.082670	0.374884
C153	C	1.119723	-0.882092	-0.307491
C154	C	1.369723	-0.632092	-0.057491
C155	C	1.619723	-0.382092	0.192509
C156	C	1.869723	-0.132092	0.442509
C157	C	1.070142	-0.700348	-0.356942
C158	C	1.320142	-0.450348	-0.106942
C159	C	1.570142	-0.200348	0.143058
C160	C	1.820142	0.049652	0.393058
C161	C	1.070294	-1.014528	-0.356965
C162	C	1.320294	-0.764528	-0.106965
C163	C	1.570294	-0.514528	0.143035
C164	C	1.820294	-0.264528	0.393035
C165	C	1.263332	-0.357849	-0.356972
C166	C	1.513332	-0.107849	-0.106972
C167	C	1.763332	0.142151	0.143028
C168	C	2.013332	0.392151	0.393028
C169	C	1.345646	-0.357862	-0.356989
C170	C	1.595646	-0.107862	-0.106989
C171	C	1.845646	0.142138	0.143011
C172	C	2.095646	0.392138	0.393011
C173	C	1.070208	-0.357751	-0.550095
C174	C	1.320208	-0.107751	-0.300095
C175	C	1.570208	0.142249	-0.050095
C176	C	1.820208	0.392249	0.199905
C177	C	1.070224	-0.357722	-0.632409
C178	C	1.320224	-0.107722	-0.382409
C179	C	1.570224	0.142278	-0.132409
C180	C	1.820224	0.392278	0.117591
C181	C	1.070280	-0.164113	-0.356961
C182	C	1.320280	0.085887	-0.106961
C183	C	1.570280	0.335887	0.143039
C184	C	1.820280	0.585887	0.393039
C185	C	1.070327	-0.081567	-0.356974
C186	C	1.320327	0.168433	-0.106974
C187	C	1.570327	0.418433	0.143026
C188	C	1.820327	0.668433	0.393026
C189	C	1.070251	-0.357699	-0.783117
C190	C	1.320251	-0.107699	-0.533117
C191	C	1.570251	0.142301	-0.283117
C192	C	1.820251	0.392301	-0.033117
C193	C	1.127518	-0.300309	-0.814491
C194	C	1.377518	-0.050309	-0.564491
C195	C	1.627518	0.199691	-0.314491
C196	C	1.877518	0.449691	-0.064491
C197	C	1.127757	-0.300464	-0.900110
C198	C	1.377757	-0.050464	-0.650110
C199	C	1.627757	0.199536	-0.400110
C200	C	1.877757	0.449536	-0.150110
C201	C	1.070277	-0.357675	-0.931500
C202	C	1.320277	-0.107675	-0.681500
C203	C	1.570277	0.142325	-0.431500
C204	C	1.820277	0.392325	-0.181500
C205	C	1.091156	-0.436008	-0.900397
C206	C	1.341156	-0.186008	-0.650397
C207	C	1.591156	0.063992	-0.400397
C208	C	1.841156	0.313992	-0.150397
C209	C	1.091557	-0.435690	-0.814753
C210	C	1.341557	-0.185690	-0.564753
C211	C	1.591557	0.064310	-0.314753
C212	C	1.841557	0.314310	-0.064753
C213	C	0.991964	-0.337435	-0.814666
C214	C	1.241964	-0.087435	-0.564666
C215	C	1.491964	0.162565	-0.314666
C216	C	1.741964	0.412565	-0.064666
C217	C	0.992399	-0.335695	-0.900317
C218	C	1.242399	-0.085695	-0.650317
C219	C	1.492399	0.164305	-0.400317
C220	C	1.742399	0.414305	-0.150317
C221	C	1.070290	-0.357666	-1.015360
C222	C	1.320290	-0.107666	-0.765360
C223	C	1.570290	0.142334	-0.515360
C224	C	1.820290	0.392334	-0.265360
C225	C	1.070239	-0.357713	-0.699258
C226	C	1.320239	-0.107713	-0.449258
C227	C	1.570239	0.142287	-0.199258
C228	C	1.820239	0.392287	0.050742
C229	C	1.070176	-0.357832	-0.164522
C230	C	1.320176	-0.107832	0.085478
C231	C	1.570176	0.142168	0.335478
C232	C	1.820176	0.392168	0.585478
C233	C	1.070303	-0.357652	-0.082209
C234	C	1.320303	-0.107652	0.167791
C235	C	1.570303	0.142348	0.417791
C236	C	1.820303	0.392348	0.667791
H237	H	0.634332	-0.242321	-0.313131
H238	H	0.884332	0.007679	-0.063131
H239	H	1.134332	0.257679	0.186869
H240	H	1.384332	0.507679	0.436869
H241	H	1.036762	-0.811247	-0.232168
H242	H	1.286762	-0.561247	0.017832
H243	H	1.536762	-0.311247	0.267832
H244	H	1.786762	-0.061247	0.517832
H245	H	1.114630	-0.242057	-0.793913
H246	H	1.364630	0.007943	-0.543913
H247	H	1.614630	0.257943	-0.293913
H248	H	1.864630	0.507943	-0.043913
Br249	Br	0.920851	-0.407088	-0.780830
Br250	Br	1.170851	-0.157088	-0.530830
Br251	Br	1.420851	0.092912	-0.280830
Br252	Br	1.670851	0.342912	-0.030830
H253	H	1.161597	-0.903613	-0.265648
H254	H	1.411597	-0.653613	-0.015648
H255	H	1.661597	-0.403613	0.234352
H256	H	1.911597	-0.153613	0.484352
Br257	Br	0.907470	-0.918481	-0.313190
Br258	Br	1.157470	-0.668481	-0.063190
Br259	Br	1.407470	-0.418481	0.186810
Br260	Br	1.657470	-0.168481	0.436810
Br261	Br	1.224452	-0.322863	-0.934289
Br262	Br	1.474452	-0.072863	-0.684289
Br263	Br	1.724452	0.177137	-0.434289
Br264	Br	1.974452	0.427137	-0.184289
Br265	Br	0.647396	-0.322246	-0.202943
Br266	Br	0.897396	-0.072246	0.047057
Br267	Br	1.147396	0.177754	0.297057
Br268	Br	1.397396	0.427754	0.547057
H269	H	0.978795	-0.811111	-0.448122
H270	H	1.228795	-0.561111	-0.198122
H271	H	1.478795	-0.311111	0.051878
H272	H	1.728795	-0.061111	0.301878
Br273	Br	0.649316	-0.464656	-0.241115
Br274	Br	0.899316	-0.214656	0.008885
Br275	Br	1.149316	0.035344	0.258885
Br276	Br	1.399316	0.285344	0.508885
H277	H	0.507103	-0.241989	-0.313227
H278	H	0.757103	0.008011	-0.063227
H279	H	1.007103	0.258011	0.186773
H280	H	1.257103	0.508011	0.436773
H281	H	1.051628	-0.479906	-0.793995
H282	H	1.301628	-0.229906	-0.543995
H283	H	1.551628	0.020094	-0.293995
H284	H	1.801628	0.270094	-0.043995
Br285	Br	0.917524	-0.400236	-0.935926
Br286	Br	1.167524	-0.150236	-0.685926
Br287	Br	1.417524	0.099764	-0.435926
Br288	Br	1.667524	0.349764	-0.185926
H289	H	1.147743	-0.453447	-0.921877
H290	H	1.397743	-0.203447	-0.671877
H291	H	1.647743	0.046553	-0.421877
H292	H	1.897743	0.296553	-0.171877
H293	H	1.148775	-0.452829	-0.794789
H294	H	1.398775	-0.202829	-0.544789
H295	H	1.648775	0.047171	-0.294789
H296	H	1.898775	0.297171	-0.044789
Br297	Br	0.492010	-0.244518	-0.467663
Br298	Br	0.742010	0.005482	-0.217663
Br299	Br	0.992010	0.255482	0.032337
Br300	Br	1.242010	0.505482	0.282337
H301	H	0.506130	-0.313181	-0.242258
H302	H	0.756130	-0.063181	0.007742
H303	H	1.006130	0.186819	0.257742
H304	H	1.256130	0.436819	0.507742
H305	H	1.194838	-0.810894	-0.390500
H306	H	1.444838	-0.560894	-0.140500
H307	H	1.694838	-0.310894	0.109500
H308	H	1.944838	-0.060894	0.359500
H309	H	1.050730	-0.479930	-0.920727
H310	H	1.300730	-0.229930	-0.670727
H311	H	1.550730	0.020070	-0.420727
H312	H	1.800730	0.270070	-0.170727
Br313	Br	0.960179	-0.243859	-0.778682
Br314	Br	1.210179	0.006141	-0.528682
Br315	Br	1.460179	0.256141	-0.278682
Br316	Br	1.710179	0.506141	-0.028682
H317	H	0.976648	-0.278048	-0.920648
H318	H	1.226648	-0.028048	-0.670648
H319	H	1.476648	0.221952	-0.420648
H320	H	1.726648	0.471952	-0.170648
H321	H	1.103540	-0.903731	-0.481687
H322	H	1.353540	-0.653731	-0.231687
H323	H	1.603540	-0.403731	0.018313
H324	H	1.853540	-0.153731	0.268313
H325	H	1.185198	-0.313579	-0.792984
H326	H	1.435198	-0.063579	-0.542984
H327	H	1.685198	0.186421	-0.292984
H328	H	1.935198	0.436421	-0.042984
Br329	Br	0.494624	-0.463843	-0.239688
Br330	Br	0.744624	-0.213843	0.010312
Br331	Br	0.994624	0.036157	0.260312
Br332	Br	1.244624	0.286157	0.510312
H333	H	0.507258	-0.480145	-0.374880
H334	H	0.757258	-0.230145	-0.124880
H335	H	1.007258	0.019855	0.125120
H336	H	1.257258	0.269855	0.375120
H337	H	1.114712	-0.242391	-0.921141
H338	H	1.364712	0.007609	-0.671141
H339	H	1.614712	0.257609	-0.421141
H340	H	1.864712	0.507609	-0.171141
H341	H	0.633989	-0.480162	-0.375787
H342	H	0.883989	-0.230162	-0.125787
H343	H	1.133989	0.019838	0.124213
H344	H	1.383989	0.269838	0.374213
Br345	Br	0.649289	-0.401104	-0.509437
Br346	Br	0.899289	-0.151104	-0.259437
Br347	Br	1.149289	0.098896	-0.009437
Br348	Br	1.399289	0.348896	0.240563
Br349	Br	0.494207	-0.407946	-0.506075
Br350	Br	0.744207	-0.157946	-0.256075
Br351	Br	0.994207	0.092054	-0.006075
Br352	Br	1.244207	0.342054	0.243925
Br353	Br	0.647532	-0.240257	-0.461732
Br354	Br	0.897532	0.009743	-0.211732
Br355	Br	1.147532	0.259743	0.038268
Br356	Br	1.397532	0.509743	0.288268
