data_functionalizedCrystal
_audit_creation_method	'MofGen! by Chris Wilmer'
_symmetry_space_group_name_H-M	'P1'
_symmetry_Int_Tables_number	1
_symmetry_cell_setting	triclinic
loop_
_symmetry_equiv_pos_as_xyz
  x,y,z
_cell_length_a	14.853567
_cell_length_b	15.995350
_cell_length_c	13.930277
_cell_angle_alpha	89.997676
_cell_angle_beta	89.995755
_cell_angle_gamma	83.563653
loop_
_atom_site_label
_atom_site_type_symbol
_atom_site_fract_x
_atom_site_fract_y
_atom_site_fract_z
O1	O	1.196221	0.109317	-0.079760
O2	O	1.696221	0.609317	0.420240
O3	O	0.933744	0.122339	-0.079776
O4	O	1.433744	0.622339	0.420224
O5	O	1.072157	-0.006051	-0.079766
O6	O	1.572157	0.493949	0.420234
O7	O	1.057808	0.237707	-0.079769
O8	O	1.557808	0.737707	0.420231
O9	O	1.072138	-0.006054	0.079895
O10	O	1.572138	0.493946	0.579895
O11	O	0.933725	0.122336	0.079886
O12	O	1.433725	0.622336	0.579886
O13	O	1.196202	0.109314	0.079902
O14	O	1.696202	0.609314	0.579902
Zn15	Zn	1.064960	0.115825	0.105244
Zn16	Zn	1.564960	0.615825	0.605244
Zn17	Zn	1.064986	0.115828	-0.105117
Zn18	Zn	1.564986	0.615828	0.394883
O19	O	1.057788	0.237705	0.079893
O20	O	1.557788	0.737705	0.579893
C21	C	0.900146	0.121748	0.000053
C22	C	1.400146	0.621748	0.500053
C23	C	0.800065	0.119980	0.000047
C24	C	1.300065	0.619980	0.500047
C25	C	0.387644	0.036238	0.000069
C26	C	0.887644	0.536238	0.500069
C27	C	0.366158	0.188769	0.000067
C28	C	0.866158	0.688769	0.500067
C29	C	0.460189	0.190432	0.000064
C30	C	0.960189	0.690432	0.500064
C31	C	0.517953	0.114996	0.000062
C32	C	1.017953	0.614996	0.500062
C33	C	0.481685	0.037899	0.000063
C34	C	0.981685	0.537899	0.500063
C35	C	0.496464	0.267528	0.000053
C36	C	0.996464	0.767528	0.500053
C37	C	0.590501	0.269194	0.000048
C38	C	1.090501	0.769194	0.500048
C39	C	0.648266	0.193758	0.000054
C40	C	1.148266	0.693758	0.500054
C41	C	0.611993	0.116657	0.000056
C42	C	1.111993	0.616657	0.500056
C43	C	0.669757	0.041221	0.000054
C44	C	1.169757	0.541221	0.500054
C45	C	0.633485	-0.035880	0.000064
C46	C	1.133485	0.464120	0.500064
C47	C	0.539450	-0.037538	0.000069
C48	C	1.039450	0.462462	0.500069
C49	C	0.742302	0.195415	0.000049
C50	C	1.242302	0.695415	0.500049
C51	C	0.763797	0.042882	0.000048
C52	C	1.263797	0.542882	0.500048
C53	C	1.071555	-0.037248	0.000063
C54	C	1.571555	0.462752	0.500063
C55	C	1.069776	-0.130201	0.000057
C56	C	1.569776	0.369799	0.500057
C57	C	1.063389	-0.467956	0.000060
C58	C	1.563389	0.032044	0.500060
C59	C	0.964813	-0.420636	-0.000304
C60	C	1.464813	0.079364	0.499696
C61	C	0.966592	-0.323944	0.000056
C62	C	1.466592	0.176056	0.500056
C63	C	1.066557	-0.300391	0.000058
C64	C	1.566557	0.199609	0.500058
C65	C	1.115167	-0.341414	0.091234
C66	C	1.615167	0.158586	0.591234
C67	C	1.112691	-0.438052	0.091310
C68	C	1.612691	0.061948	0.591310
C69	C	1.114749	-0.438405	-0.090255
C70	C	1.614749	0.061595	0.409745
C71	C	1.114726	-0.341460	-0.091460
C72	C	1.614726	0.158540	0.408540
C73	C	1.068353	-0.205692	0.000060
C74	C	1.568353	0.294308	0.500060
C75	C	1.061596	-0.562655	0.000064
C76	C	1.561596	-0.062655	0.500064
C77	C	1.229799	0.109906	0.000071
C78	C	1.729799	0.609906	0.500071
C79	C	1.329881	0.111674	0.000071
C80	C	1.829881	0.611674	0.500071
C81	C	1.058391	0.268901	0.000062
C82	C	1.558391	0.768901	0.500062
C83	C	1.060170	0.361854	0.000061
C84	C	1.560170	0.861854	0.500061
N85	N	1.064950	0.115822	0.248810
N86	N	1.564950	0.615822	0.748810
N87	N	1.065003	0.115825	-0.248684
N88	N	1.565003	0.615825	0.251316
C89	C	1.003694	0.172657	0.701075
C90	C	1.503694	0.672657	1.201075
C91	C	1.126302	0.058993	0.701053
C92	C	1.626302	0.558993	1.201053
C93	C	1.126292	0.058990	0.600557
C94	C	1.626292	0.558990	1.100557
C95	C	1.064982	0.115823	0.550316
C96	C	1.564982	0.615823	1.050316
C97	C	1.003683	0.172658	0.600570
C98	C	1.503683	0.672658	1.100570
C99	C	1.187595	0.002162	0.550295
C100	C	1.687595	0.502162	1.050295
C101	C	1.187588	0.002158	0.449793
C102	C	1.687588	0.502158	0.949793
C103	C	1.126273	0.058987	0.399550
C104	C	1.626273	0.558987	0.899550
C105	C	1.064971	0.115824	0.449811
C106	C	1.564971	0.615824	0.949811
C107	C	1.003661	0.172656	0.399569
C108	C	1.503661	0.672656	0.899569
C109	C	0.942354	0.229490	0.449828
C110	C	1.442354	0.729490	0.949828
C111	C	0.942368	0.229487	0.550327
C112	C	1.442368	0.729487	1.050327
C113	C	1.126259	0.058989	0.299051
C114	C	1.626259	0.558989	0.799051
C115	C	1.003651	0.172657	0.299064
C116	C	1.503651	0.672657	0.799064
H117	H	0.358108	-0.026536	0.000081
H118	H	0.858108	0.473464	0.500081
H119	H	0.319121	0.250185	0.000060
H120	H	0.819121	0.750185	0.500060
H121	H	0.771830	0.258190	0.000043
H122	H	1.271830	0.758190	0.500043
O123	O	1.192432	-0.002300	0.755233
O124	O	1.692432	0.497700	1.255233
H125	H	1.154493	-0.043063	0.801029
H126	H	1.654493	0.456937	1.301029
H127	H	1.176179	0.012720	0.258135
H128	H	1.676179	0.512720	0.758135
H129	H	0.953721	0.218934	0.258164
H130	H	1.453721	0.718934	0.758164
O131	O	0.915974	-0.286349	-0.086517
O132	O	1.415974	0.213651	0.413483
H133	H	0.917199	-0.217094	-0.086348
H134	H	1.417199	0.282906	0.413652
H135	H	1.082528	-0.458981	-0.159361
H136	H	1.582528	0.041019	0.340639
O137	O	0.876213	0.290775	0.395638
O138	O	1.376213	0.790775	0.895638
H139	H	0.886503	0.281216	0.317312
H140	H	1.386503	0.781216	0.817312
O141	O	1.212446	-0.322586	0.095747
O142	O	1.712446	0.177414	0.595747
H143	H	1.227214	-0.283695	0.032905
H144	H	1.727214	0.216305	0.532905
H145	H	1.237517	-0.044106	0.591205
H146	H	1.737517	0.455894	1.091205
O147	O	0.629610	0.352354	0.000053
O148	O	1.129610	0.852354	0.500053
H149	H	0.671937	0.356771	-0.065025
H150	H	1.171937	0.856771	0.434975
O151	O	1.067719	-0.305348	-0.180811
O152	O	1.567719	0.194652	0.319189
H153	H	1.041868	-0.356713	-0.222589
H154	H	1.541868	0.143287	0.277411
H155	H	0.925421	-0.439212	-0.065688
H156	H	1.425421	0.060788	0.434312
O157	O	0.912840	-0.446633	0.085821
O158	O	1.412840	0.053367	0.585821
H159	H	0.956911	-0.493109	0.128886
H160	H	1.456911	0.006891	0.628886
H161	H	0.892455	0.275760	0.591254
H162	H	1.392455	0.775760	1.091254
H163	H	0.928108	-0.296125	0.065521
H164	H	1.428108	0.203875	0.565521
H165	H	0.953776	0.218928	0.741998
H166	H	1.453776	0.718928	1.241998
O167	O	0.695797	-0.117238	0.000066
O168	O	1.195797	0.382762	0.500066
H169	H	0.682911	-0.154130	-0.065008
H170	H	1.182911	0.345870	0.434992
O171	O	1.253697	-0.059146	0.395586
O172	O	1.753697	0.440854	0.895586
H173	H	1.296325	-0.098669	0.447408
H174	H	1.796325	0.401331	0.947408
H175	H	0.810823	-0.018548	0.000051
H176	H	1.310823	0.481452	0.500051
O177	O	1.070433	-0.303875	0.181112
O178	O	1.570433	0.196125	0.681112
H179	H	0.998201	-0.315640	0.182013
H180	H	1.498201	0.184360	0.682013
H181	H	0.449427	0.328943	0.000044
H182	H	0.949427	0.828943	0.500044
O183	O	1.065708	-0.462361	0.181578
O184	O	1.565708	0.037639	0.681578
H185	H	1.044963	-0.405118	0.224763
H186	H	1.544963	0.094882	0.724763
O187	O	1.208549	-0.480668	0.096815
O188	O	1.708549	0.019332	0.596815
H189	H	1.256467	-0.432225	0.099419
H190	H	1.756467	0.067775	0.599419
H191	H	0.509909	-0.100310	0.000099
H192	H	1.009909	0.399690	0.500099
H193	H	1.187625	-0.326013	-0.096963
H194	H	1.687625	0.173987	0.403037
O195	O	1.211019	-0.480366	-0.091081
O196	O	1.711019	0.019634	0.408919
H197	H	1.222276	-0.522070	-0.027516
H198	H	1.722276	-0.022070	0.472484
