data_functionalizedCrystal
_audit_creation_method	'MofGen! by Chris Wilmer'
_symmetry_space_group_name_H-M	'P1'
_symmetry_Int_Tables_number	1
_symmetry_cell_setting	triclinic
loop_
_symmetry_equiv_pos_as_xyz
  x,y,z
_cell_length_a	8.559649
_cell_length_b	11.792241
_cell_length_c	7.681481
_cell_angle_alpha	84.218353
_cell_angle_beta	94.913240
_cell_angle_gamma	76.986040
loop_
_atom_site_label
_atom_site_type_symbol
_atom_site_fract_x
_atom_site_fract_y
_atom_site_fract_z
O1	O	2.104794	-0.026424	-0.146400
O2	O	1.640097	0.032148	-0.146410
O3	O	1.883724	-0.163342	-0.146392
O4	O	1.861167	0.169066	-0.146418
O5	O	1.913710	-0.187452	0.146467
O6	O	1.670083	0.008038	0.146450
O7	O	2.134780	-0.050534	0.146460
Zn8	Zn	1.907192	-0.025076	0.192953
Zn9	Zn	1.867684	0.006690	-0.192903
O10	O	1.891153	0.144956	0.146442
C11	C	1.595598	0.024531	0.000018
C12	C	1.418332	0.037744	0.000015
C13	C	1.897300	-0.217558	0.000037
C14	C	1.893059	-0.343183	0.000035
C15	C	1.885259	-0.573179	0.000005
C16	C	1.889593	-0.445192	0.000022
C17	C	2.179278	-0.042917	0.000027
C18	C	2.356543	-0.056128	0.000019
C19	C	1.877577	0.199172	0.000009
C20	C	1.881816	0.324799	-0.000001
N21	N	1.934167	-0.046757	0.456289
N22	N	1.840722	0.028361	-0.456239
H23	H	1.335608	0.128227	-0.000001
C24	C	1.711846	0.131942	0.442176
C25	C	1.576694	0.108716	0.314949
C26	C	1.447815	0.212299	0.213352
C27	C	1.454088	0.339107	0.238981
C28	C	1.589246	0.362338	0.366214
C29	C	1.718125	0.258756	0.467811
H30	H	1.572045	0.014840	0.295972
H31	H	1.347762	0.195101	0.119166
H32	H	1.358685	0.415785	0.163773
H33	H	1.593895	0.456214	0.385192
H34	H	1.818177	0.275954	0.561998
H35	H	1.439256	-0.146604	0.000018
C36	C	2.063050	-0.150343	0.557881
C37	C	2.012640	-0.241931	0.684689
C38	C	2.141521	-0.345515	0.786281
C39	C	2.320811	-0.357511	0.761064
C40	C	2.371230	-0.265920	0.634251
C41	C	2.242349	-0.162336	0.532659
H42	H	1.879911	-0.233054	0.703361
H43	H	2.104196	-0.413317	0.880157
H44	H	2.416216	-0.434190	0.836269
H45	H	2.503959	-0.274798	0.615579
H46	H	2.279674	-0.094535	0.438783
