data_functionalizedCrystal
_audit_creation_method	'MofGen! by Chris Wilmer'
_symmetry_space_group_name_H-M	'P1'
_symmetry_Int_Tables_number	1
_symmetry_cell_setting	triclinic
loop_
_symmetry_equiv_pos_as_xyz
  x,y,z
_cell_length_a	12.811457
_cell_length_b	14.519731
_cell_length_c	11.892095
_cell_angle_alpha	93.895723
_cell_angle_beta	91.498327
_cell_angle_gamma	83.867127
loop_
_atom_site_label
_atom_site_type_symbol
_atom_site_fract_x
_atom_site_fract_y
_atom_site_fract_z
O1	O	1.389450	0.127231	0.048435
O2	O	1.889450	0.627231	0.548435
O3	O	1.086113	0.138798	0.017336
O4	O	1.586113	0.638798	0.517336
O5	O	1.245812	-0.001152	0.033719
O6	O	1.745812	0.498848	0.533719
O7	O	1.229751	0.267180	0.032052
O8	O	1.729751	0.767180	0.532052
O9	O	1.232496	0.010499	0.220360
O10	O	1.732496	0.510499	0.720360
O11	O	1.072797	0.150448	0.203977
O12	O	1.572797	0.650448	0.703977
O13	O	1.376135	0.138881	0.235077
O14	O	1.876135	0.638881	0.735077
Zn15	Zn	1.222352	0.146515	0.249160
Zn16	Zn	1.722352	0.646515	0.749160
Zn17	Zn	1.239896	0.131165	0.003252
Zn18	Zn	1.739896	0.631165	0.503252
O19	O	1.216436	0.278831	0.218693
O20	O	1.716436	0.778831	0.718693
C21	C	1.040633	0.143618	0.106676
C22	C	1.540633	0.643618	0.606676
C23	C	0.924958	0.140612	0.094817
C24	C	1.424958	0.640612	0.594817
C25	C	0.693073	0.147648	0.276032
C26	C	1.193073	0.647648	0.776032
C27	C	0.584385	0.144824	0.264894
C28	C	1.084385	0.644824	0.764894
C29	C	0.598892	0.132131	0.061407
C30	C	1.098892	0.632131	0.561407
C31	C	0.707580	0.134956	0.072544
C32	C	1.207580	0.634956	0.572544
C33	C	0.754667	0.142716	0.179860
C34	C	1.254667	0.642716	0.679860
C35	C	0.863356	0.145547	0.190996
C36	C	1.363356	0.645547	0.690996
C37	C	0.877862	0.132848	-0.012491
C38	C	1.377862	0.632848	0.487509
C39	C	0.769174	0.130024	-0.023628
C40	C	1.269174	0.630024	0.476372
C41	C	1.238401	-0.029692	0.126963
C42	C	1.738401	0.470308	0.626963
C43	C	1.236146	-0.132092	0.126732
C44	C	1.736146	0.367908	0.626732
C45	C	1.234314	-0.215253	0.126542
C46	C	1.734314	0.284747	0.626542
C47	C	1.232025	-0.319582	0.126298
C48	C	1.732025	0.180418	0.626298
C49	C	1.230208	-0.402738	0.126105
C50	C	1.730208	0.097262	0.626105
C51	C	1.227919	-0.507074	0.125864
C52	C	1.727919	-0.007074	0.625864
C53	C	1.421614	0.134061	0.145733
C54	C	1.921614	0.634061	0.645733
C55	C	1.537291	0.137067	0.157585
C56	C	2.037291	0.637067	0.657585
C57	C	1.223846	0.307371	0.125447
C58	C	1.723846	0.807371	0.625447
C59	C	1.226102	0.409771	0.125670
C60	C	1.726102	0.909771	0.625670
N61	N	1.210386	0.156990	0.416987
N62	N	1.710386	0.656990	0.916987
N63	N	1.251869	0.120682	-0.164574
N64	N	1.751869	0.620682	0.335426
C65	C	1.335131	0.047735	0.666432
C66	C	1.835131	0.547735	1.166432
C67	C	1.326774	0.055064	0.783917
C68	C	1.826774	0.555064	1.283917
C69	C	1.185314	0.178972	0.769442
C70	C	1.685314	0.678972	1.269442
C71	C	1.193670	0.171643	0.651958
C72	C	1.693670	0.671643	1.151958
C73	C	1.268582	0.106024	0.600457
C74	C	1.768582	0.606024	1.100457
C75	C	1.276942	0.098700	0.482971
C76	C	1.776942	0.598700	0.982971
C77	C	1.135477	0.222602	0.468498
C78	C	1.635477	0.722602	0.968498
C79	C	1.127121	0.229931	0.585983
C80	C	1.627121	0.729931	1.085983
H81	H	0.901691	0.151871	0.278378
H82	H	1.401691	0.651871	0.778378
H83	H	0.534239	0.148845	0.343208
H84	H	1.034239	0.648845	0.843208
H85	H	0.560538	0.125798	-0.025965
H86	H	1.060538	0.625798	0.474035
H87	H	0.730822	0.123701	-0.111002
H88	H	1.230822	0.623701	0.388998
O89	O	1.063695	0.285480	0.397341
O90	O	1.563695	0.785480	0.897341
H91	H	0.980841	0.274272	0.411585
H92	H	1.480841	0.774272	0.911585
O93	O	0.743870	0.156029	0.391770
O94	O	1.243870	0.656029	0.891770
H95	H	0.682779	0.158985	0.456776
H96	H	1.182779	0.658985	0.956776
O97	O	0.944293	0.127521	-0.116231
O98	O	1.444293	0.627521	0.383769
H99	H	1.027783	0.130783	-0.090462
H100	H	1.527783	0.630783	0.409538
H101	H	1.124315	0.232392	0.811389
H102	H	1.624315	0.732392	1.311389
H103	H	1.066126	0.283356	0.627928
H104	H	1.566126	0.783356	1.127928
O105	O	1.357719	0.027919	0.427405
O106	O	1.857719	0.527919	0.927405
H107	H	1.437372	0.041926	0.458259
H108	H	1.937372	0.541926	0.958259
O109	O	1.415910	-0.023039	0.610858
O110	O	1.915910	0.476961	1.110858
H111	H	1.495562	-0.009024	0.641705
H112	H	1.995562	0.490976	1.141705
O113	O	1.398562	-0.007792	0.855082
O114	O	1.898562	0.492208	1.355082
H115	H	1.452061	-0.054643	0.799529
H116	H	1.952061	0.445357	1.299529
