data_functionalizedCrystal
_audit_creation_method	'MofGen! by Chris Wilmer'
_symmetry_space_group_name_H-M	'P1'
_symmetry_Int_Tables_number	1
_symmetry_cell_setting	triclinic
loop_
_symmetry_equiv_pos_as_xyz
  x,y,z
_cell_length_a	18.101398
_cell_length_b	12.594516
_cell_length_c	18.101390
_cell_angle_alpha	89.972985
_cell_angle_beta	89.975319
_cell_angle_gamma	90.011320
loop_
_atom_site_label
_atom_site_type_symbol
_atom_site_fract_x
_atom_site_fract_y
_atom_site_fract_z
Zn1	Zn	1.132201	-0.423836	-0.418869
Zn2	Zn	1.132129	-0.601849	-0.295040
Zn3	Zn	1.008359	-0.423870	-0.295030
Zn4	Zn	1.008343	-0.601758	-0.418829
O5	O	1.070258	-0.512828	-0.356942
O6	O	1.235824	-0.447473	-0.402464
O7	O	1.115687	-0.578291	-0.191406
O8	O	1.024824	-0.274919	-0.311470
O9	O	1.235771	-0.578258	-0.311488
O10	O	1.115810	-0.274895	-0.402454
O11	O	1.024754	-0.447531	-0.191399
O12	O	0.904724	-0.447443	-0.311431
O13	O	1.024797	-0.578104	-0.522467
O14	O	0.904713	-0.578137	-0.402386
O15	O	1.115795	-0.447385	-0.522497
O16	O	1.115671	-0.750782	-0.311449
O17	O	1.024727	-0.750716	-0.402396
C18	C	0.877848	-0.512785	-0.356904
C19	C	0.795533	-0.512792	-0.356905
C20	C	0.496443	-0.512858	-0.356967
C21	C	0.527750	-0.430218	-0.300020
C22	C	0.613368	-0.430440	-0.299777
C23	C	0.644825	-0.512825	-0.356936
C24	C	0.613727	-0.624949	-0.335619
C25	C	0.528082	-0.624490	-0.335224
C26	C	0.528052	-0.484349	-0.435364
C27	C	0.613703	-0.481852	-0.434936
C28	C	0.728685	-0.512812	-0.356920
C29	C	0.412583	-0.512878	-0.356981
C30	C	1.070210	-0.789369	-0.356935
C31	C	1.070257	-0.907674	-0.356957
C32	C	1.020787	-0.976930	-0.406388
C33	C	1.002745	-1.047795	-0.338810
C34	C	1.088366	-1.047609	-0.424546
C35	C	1.052179	-0.976981	-0.289343
C36	C	1.137831	-0.976789	-0.375124
C37	C	1.119815	-1.047621	-0.307500
C38	C	1.263420	-0.512872	-0.356981
C39	C	1.345734	-0.512891	-0.356998
C40	C	1.070302	-0.512731	-0.550104
C41	C	1.070321	-0.512689	-0.632418
C42	C	1.070327	-0.235207	-0.356966
C43	C	1.070356	-0.116902	-0.356976
C44	C	1.070361	-0.512623	-0.931509
C45	C	1.127803	-0.430668	-0.900203
C46	C	1.127624	-0.430364	-0.814585
C47	C	1.070342	-0.512656	-0.783127
C48	C	0.992319	-0.482173	-0.814191
C49	C	0.992663	-0.481558	-0.899836
C50	C	1.090254	-0.625273	-0.899931
C51	C	1.091966	-0.624698	-0.814282
C52	C	1.070326	-0.512676	-0.699267
C53	C	1.070371	-0.512600	-1.015369
C54	C	1.070257	-0.512848	-0.164532
C55	C	1.070382	-0.512590	-0.082218
H56	H	0.633825	-0.449288	-0.241685
C57	C	0.498896	-0.375821	-0.461553
H58	H	0.518633	-0.360131	-0.508959
H59	H	0.513553	-0.322412	-0.427541
H60	H	0.446510	-0.377972	-0.464324
H61	H	0.948408	-0.538653	-0.920544
C62	C	1.039556	-0.711625	-0.785361
H63	H	1.003636	-0.680584	-0.753771
H64	H	1.067131	-0.763004	-0.758612
H65	H	1.015549	-0.744901	-0.825864
C66	C	0.641165	-0.370391	-0.456656
H67	H	0.671475	-0.342839	-0.418355
H68	H	0.600011	-0.324787	-0.463936
H69	H	0.668970	-0.374789	-0.501072
H70	H	1.036836	-0.946085	-0.232176
C71	C	1.214963	-0.934659	-0.395890
H72	H	1.227727	-0.958809	-0.443942
H73	H	1.250244	-0.959941	-0.361263
H74	H	1.214502	-0.859237	-0.395291
C75	C	1.109828	-0.317633	-0.786909
H76	H	1.109664	-0.317059	-0.734426
H77	H	1.062633	-0.296752	-0.804650
H78	H	1.146219	-0.269538	-0.804567
H79	H	0.635118	-0.537656	-0.479639
H80	H	0.507165	-0.346820	-0.313233
C81	C	1.176388	-1.089302	-0.250982
H82	H	1.212600	-1.130757	-0.275701
H83	H	1.151834	-1.131836	-0.215242
H84	H	1.199640	-1.031021	-0.227142
C85	C	1.169529	-0.655765	-0.786854
H86	H	1.182295	-0.723612	-0.805888
H87	H	1.169686	-0.658169	-0.734402
H88	H	1.204459	-0.604682	-0.803362
C89	C	0.925609	-1.089936	-0.318053
H90	H	0.929016	-1.131461	-0.274358
H91	H	0.907048	-1.132490	-0.357186
H92	H	0.893175	-1.031844	-0.309800
H93	H	0.635146	-0.649544	-0.278926
H94	H	0.975151	-0.400741	-0.792746
C95	C	0.969890	-0.370317	-0.926837
H96	H	0.960519	-0.325925	-0.885463
H97	H	0.926470	-0.375690	-0.956053
H98	H	1.008643	-0.340697	-0.955641
C99	C	0.498649	-0.455388	-0.221998
H100	H	0.467503	-0.516043	-0.223978
H101	H	0.471390	-0.396443	-0.203882
H102	H	0.539107	-0.469232	-0.190002
H103	H	1.103643	-1.078633	-0.481697
C104	C	0.500701	-0.565654	-0.492686
H105	H	0.470166	-0.616728	-0.468997
H106	H	0.541891	-0.600273	-0.514528
H107	H	0.473156	-0.530118	-0.529889
C108	C	1.205781	-0.456131	-0.786209
H109	H	1.237929	-0.466875	-0.827025
H110	H	1.204206	-0.518716	-0.756942
H111	H	1.223435	-0.398678	-0.757166
H112	H	1.146151	-0.653028	-0.921583
H113	H	1.114800	-0.347681	-0.921733
H114	H	0.948358	-0.540026	-0.793812
C115	C	0.500096	-0.710491	-0.388802
H116	H	0.447613	-0.710789	-0.388926
H117	H	0.517726	-0.777972	-0.373348
H118	H	0.517679	-0.695756	-0.437190
H119	H	0.634104	-0.688172	-0.375799
H120	H	0.508074	-0.648666	-0.277911
C121	C	0.964179	-0.934989	-0.462779
H122	H	0.988854	-0.893424	-0.498992
H123	H	0.928532	-0.892514	-0.438090
H124	H	0.940235	-0.993164	-0.486054
C125	C	0.641776	-0.318117	-0.317809
H126	H	0.600973	-0.271938	-0.325346
H127	H	0.671058	-0.320416	-0.361340
H128	H	0.670812	-0.292687	-0.277848
C129	C	1.206215	-0.456121	-0.928052
H130	H	1.204626	-0.516952	-0.959026
H131	H	1.237597	-0.469750	-0.887085
H132	H	1.224792	-0.397360	-0.955247
H133	H	1.048420	-0.686338	-0.920182
