data_functionalizedCrystal
_audit_creation_method	'MofGen! by Chris Wilmer'
_symmetry_space_group_name_H-M	'P1'
_symmetry_Int_Tables_number	1
_symmetry_cell_setting	triclinic
loop_
_symmetry_equiv_pos_as_xyz
  x,y,z
_cell_length_a	18.215407
_cell_length_b	14.908326
_cell_length_c	18.215399
_cell_angle_alpha	86.672976
_cell_angle_beta	90.017368
_cell_angle_gamma	86.680216
loop_
_atom_site_label
_atom_site_type_symbol
_atom_site_fract_x
_atom_site_fract_y
_atom_site_fract_z
Zn1	Zn	1.108154	0.359257	0.399141
Zn2	Zn	1.100957	0.510136	0.268966
Zn3	Zn	0.985086	0.359278	0.276093
Zn4	Zn	0.977950	0.510078	0.391999
O5	O	1.043037	0.434687	0.334050
O6	O	1.210183	0.379286	0.381880
O7	O	1.085561	0.490158	0.166926
O8	O	1.007409	0.233021	0.298387
O9	O	1.204895	0.490137	0.286241
O10	O	1.097827	0.233005	0.388790
O11	O	1.000431	0.379323	0.172162
O12	O	0.881155	0.379267	0.291462
O13	O	0.995247	0.490038	0.495932
O14	O	0.875913	0.490059	0.376617
O15	O	1.090908	0.379230	0.501180
O16	O	1.078642	0.636383	0.279315
O17	O	0.988269	0.636340	0.369707
C18	C	0.851832	0.434660	0.334038
C19	C	0.770032	0.434670	0.334050
C20	C	0.584585	0.377068	0.383918
C21	C	0.507726	0.377076	0.383920
C22	C	0.502239	0.492332	0.284194
C23	C	0.579097	0.492319	0.284189
C24	C	0.620268	0.434688	0.334055
C25	C	0.466551	0.434709	0.334062
C26	C	0.383217	0.434718	0.334064
C27	C	0.703607	0.434678	0.334052
C28	C	1.031920	0.669098	0.322979
C29	C	1.027232	0.769380	0.318267
C30	C	1.112503	0.957653	0.403651
C31	C	1.108100	1.051877	0.399227
C32	C	1.014021	1.052052	0.304998
C33	C	1.018423	0.957829	0.309423
C34	C	1.067667	0.910632	0.358750
C35	C	1.072073	0.816407	0.363170
C36	C	0.977990	0.816584	0.268946
C37	C	0.973588	0.910808	0.264521
C38	C	1.234988	0.434716	0.334062
C39	C	1.316787	0.434728	0.334067
C40	C	1.043084	0.434625	0.526006
C41	C	1.043105	0.434599	0.607806
C42	C	1.054187	1.199362	0.345175
C43	C	1.058862	1.099080	0.349901
C44	C	1.043034	0.434684	0.142844
C45	C	1.043169	0.434457	0.061056
C46	C	1.092935	0.376847	0.798736
C47	C	1.092945	0.376821	0.875596
C48	C	0.993334	0.492211	0.870120
C49	C	0.993321	0.492232	0.793262
C50	C	1.043125	0.434551	0.757572
C51	C	1.043148	0.434504	0.911290
C52	C	1.043159	0.434476	0.994625
C53	C	1.043114	0.434578	0.674231
H54	H	0.608151	0.539241	0.243580
H55	H	0.468709	0.539253	0.243595
H56	H	0.952786	0.539174	0.899189
H57	H	1.133487	0.329877	0.769679
H58	H	0.952755	0.539221	0.759745
O59	O	1.125187	0.765496	0.416366
H60	H	1.155620	0.814027	0.446848
O61	O	0.469236	0.314931	0.437701
H62	H	0.510779	0.274862	0.472376
H63	H	1.133503	0.329830	0.909109
H64	H	1.152604	0.919225	0.443811
H65	H	1.144607	1.090158	0.435794
O66	O	0.628995	0.314901	0.437689
H67	H	0.591267	0.274828	0.472356
H68	H	0.933493	0.949248	0.224362
O69	O	0.960922	1.102963	0.251787
H70	H	0.965402	1.176381	0.256251
O71	O	0.929624	0.765872	0.220513
H72	H	0.940953	0.692422	0.231877
