data_functionalizedCrystal
_audit_creation_method	'MofGen! by Chris Wilmer'
_symmetry_space_group_name_H-M	'P1'
_symmetry_Int_Tables_number	1
_symmetry_cell_setting	triclinic
loop_
_symmetry_equiv_pos_as_xyz
  x,y,z
_cell_length_a	15.298183
_cell_length_b	18.215405
_cell_length_c	18.215399
_cell_angle_alpha	89.968171
_cell_angle_beta	80.327443
_cell_angle_gamma	99.638840
loop_
_atom_site_label
_atom_site_type_symbol
_atom_site_fract_x
_atom_site_fract_y
_atom_site_fract_z
Zn1	Zn	-1.378971	-0.487464	-0.221085
Zn2	Zn	-1.378869	-0.610526	-0.098030
Zn3	Zn	-1.228136	-0.466218	-0.119364
Zn4	Zn	-1.228089	-0.589213	-0.242379
O5	O	-1.303516	-0.538355	-0.170214
O6	O	-1.505184	-0.521599	-0.186921
O7	O	-1.358851	-0.591412	0.002121
O8	O	-1.248207	-0.366061	-0.132874
O9	O	-1.505110	-0.612012	-0.096513
O10	O	-1.359024	-0.381670	-0.207608
O11	O	-1.248108	-0.485389	-0.013553
O12	O	-1.101903	-0.464723	-0.153523
O13	O	-1.248127	-0.575687	-0.342535
O14	O	-1.101868	-0.555087	-0.243901
O15	O	-1.358979	-0.500933	-0.326890
O16	O	-1.358806	-0.710674	-0.117161
O17	O	-1.248028	-0.695016	-0.223214
C18	C	-1.069156	-0.505287	-0.203338
C19	C	-0.968896	-0.491158	-0.217526
C20	C	-0.921839	-0.437520	-0.271339
C21	C	-0.827640	-0.424238	-0.284671
C22	C	-0.780488	-0.464597	-0.244195
C23	C	-0.827545	-0.518240	-0.190385
C24	C	-0.921754	-0.531519	-0.177047
C25	C	-0.780403	-0.558597	-0.149904
C26	C	-0.827460	-0.612240	-0.096093
C27	C	-0.921659	-0.625517	-0.082759
C28	C	-0.968811	-0.585158	-0.123234
C29	C	-0.686194	-0.545318	-0.163241
C30	C	-0.686108	-0.639317	-0.068950
C31	C	-0.780308	-0.652599	-0.055618
C32	C	-1.303425	-0.729549	-0.170195
C33	C	-1.303469	-0.811354	-0.170200
C34	C	-0.538791	-0.571548	-0.136954
C35	C	-0.639052	-0.585679	-0.122763
C36	C	-1.361320	-1.084564	-0.115054
C37	C	-1.361283	-1.007700	-0.115043
C38	C	-1.245824	-0.991421	-0.225408
C39	C	-1.245858	-1.068283	-0.225416
C40	C	-1.303611	-1.114853	-0.170240
C41	C	-1.303540	-0.961127	-0.170220
C42	C	-1.303499	-0.877788	-0.170208
C43	C	-1.303650	-1.198198	-0.170251
C44	C	-1.303559	-0.538302	-0.362161
C45	C	-1.303577	-0.538280	-0.443958
C46	C	-1.303632	-0.346419	-0.170246
C47	C	-1.303682	-0.264627	-0.170259
C48	C	-1.245962	-0.483049	-0.640307
C49	C	-1.245978	-0.483037	-0.717164
C50	C	-1.361300	-0.593438	-0.700831
C51	C	-1.361279	-0.593453	-0.623976
C52	C	-1.303612	-0.538255	-0.593716
C53	C	-1.303648	-0.538227	-0.747427
C54	C	-1.303665	-0.538214	-0.830759
C55	C	-1.303593	-0.538269	-0.510380
C56	C	-1.303526	-0.538362	0.020993
C57	C	-1.303682	-0.538202	0.102814
H58	H	-0.960239	-0.404662	-0.304285
H59	H	-1.045516	-0.595978	-0.112392
H60	H	-1.198805	-0.953496	-0.270333
O61	O	-1.423616	-1.134785	-0.055541
H62	H	-1.469504	-1.176209	-0.082037
H63	H	-1.408227	-0.638411	-0.586040
O64	O	-1.423538	-0.975036	-0.055525
H65	H	-1.413811	-0.913764	-0.064783
O66	O	-1.423497	-0.652972	-0.733468
H67	H	-1.494295	-0.650347	-0.708706
O68	O	-1.183613	-1.100961	-0.284941
H69	H	-1.143458	-1.055667	-0.323315
O70	O	-1.183764	-0.423516	-0.607670
H71	H	-1.137848	-0.449981	-0.579128
O72	O	-0.635445	-0.487462	-0.221274
H73	H	-0.592528	-0.514394	-0.264730
O74	O	-1.183806	-0.423490	-0.767418
H75	H	-1.143711	-0.385109	-0.733460
H76	H	-0.703787	-0.453777	-0.255051
H77	H	-0.959970	-0.669191	-0.038937
O78	O	-0.776887	-0.366383	-0.342703
H79	H	-0.794987	-0.381630	-0.397878
O80	O	-0.831068	-0.710446	0.002428
H81	H	-0.873999	-0.753977	-0.024363
O82	O	-0.635266	-0.682855	-0.025289
H83	H	-0.561856	-0.664616	-0.043609
