data_functionalizedCrystal
_audit_creation_method	'MofGen! by Chris Wilmer'
_symmetry_space_group_name_H-M	'P1'
_symmetry_Int_Tables_number	1
_symmetry_cell_setting	triclinic
loop_
_symmetry_equiv_pos_as_xyz
  x,y,z
_cell_length_a	13.034296
_cell_length_b	12.827893
_cell_length_c	12.827892
_cell_angle_alpha	90.015362
_cell_angle_beta	97.208963
_cell_angle_gamma	97.201581
loop_
_atom_site_label
_atom_site_type_symbol
_atom_site_fract_x
_atom_site_fract_y
_atom_site_fract_z
Zn1	Zn	-0.590864	-1.672754	0.340931
Zn2	Zn	-0.416120	-1.650442	0.537904
Zn3	Zn	-0.416133	-1.475791	0.363176
Zn4	Zn	-0.590824	-1.497975	0.515635
O5	O	-0.503485	-1.574241	0.439412
O6	O	-0.567695	-1.816032	0.367070
O7	O	-0.269882	-1.608653	0.533356
O8	O	-0.439334	-1.501972	0.213986
O9	O	-0.439311	-1.799639	0.511785
O10	O	-0.567708	-1.646680	0.197643
O11	O	-0.269891	-1.480337	0.404984
O12	O	-0.439295	-1.332497	0.383390
O13	O	-0.737069	-1.539782	0.473831
O14	O	-0.567640	-1.348795	0.495401
O15	O	-0.737098	-1.668191	0.345476
O16	O	-0.439272	-1.630164	0.681189
O17	O	-0.567627	-1.518147	0.664828
C18	C	-0.503465	-1.302728	0.439394
C19	C	-0.503481	-1.186577	0.439409
C20	C	-0.503467	-1.574173	0.710924
C21	C	-0.503494	-1.574244	0.827074
C22	C	-0.776062	-1.608950	0.404688
C23	C	-0.892219	-1.623741	0.389891
C24	C	-0.943990	-1.566801	0.446801
C25	C	-1.064044	-1.582086	0.431509
C26	C	-0.231968	-1.539727	0.473925
C27	C	-0.115813	-1.525139	0.488427
C28	C	-0.503506	-1.846813	0.439430
C29	C	-0.503514	-1.962968	0.439438
C30	C	-0.566893	-1.142873	0.494947
C31	C	-0.566911	-1.022825	0.494963
C32	C	-0.503526	-1.574340	0.166836
C33	C	-0.503544	-1.574382	0.050681
C34	C	-0.440050	-1.629758	0.886911
C35	C	-0.440077	-1.629833	1.006958
H36	H	-0.899435	-1.506740	0.506849
H37	H	-1.108595	-1.642159	0.371464
H38	H	-0.621171	-1.194331	0.542479
H39	H	-0.621196	-0.985208	0.542515
Cl40	Cl	-1.047038	-1.432404	0.581149
Cl41	Cl	-0.961000	-1.716485	0.297190
H42	H	-0.557834	-1.526777	0.864719
Cl43	Cl	-0.419684	-1.021029	0.366027
H44	H	-0.449211	-1.135120	0.391867
H45	H	-0.385718	-1.677235	0.849267
Cl46	Cl	-0.587406	-1.500990	0.971293
Cl47	Cl	-0.356206	-1.703209	1.086353
