data_functionalizedCrystal
_audit_creation_method	'MofGen! by Chris Wilmer'
_symmetry_space_group_name_H-M	'P1'
_symmetry_Int_Tables_number	1
_symmetry_cell_setting	triclinic
loop_
_symmetry_equiv_pos_as_xyz
  x,y,z
_cell_length_a	14.908571
_cell_length_b	19.121063
_cell_length_c	14.908308
_cell_angle_alpha	95.554627
_cell_angle_beta	90.175053
_cell_angle_gamma	89.303906
loop_
_atom_site_label
_atom_site_type_symbol
_atom_site_fract_x
_atom_site_fract_y
_atom_site_fract_z
Zn1	Zn	1.324072	-0.366417	-0.606393
Zn2	Zn	1.326220	-0.477475	-0.461735
Zn3	Zn	1.183168	-0.352931	-0.446699
Zn4	Zn	1.167296	-0.476641	-0.603344
O5	O	1.250189	-0.418366	-0.529543
O6	O	1.449836	-0.387142	-0.594773
O7	O	1.314785	-0.455659	-0.333644
O8	O	1.207604	-0.256469	-0.462866
O9	O	1.451414	-0.468736	-0.488493
O10	O	1.311125	-0.266377	-0.580193
O11	O	1.209686	-0.364157	-0.322597
O12	O	1.055584	-0.363348	-0.459909
O13	O	1.180551	-0.467315	-0.729845
O14	O	1.043922	-0.454238	-0.574995
O15	O	1.295734	-0.386334	-0.732085
O16	O	1.299394	-0.575616	-0.485536
O17	O	1.182633	-0.575003	-0.589576
C18	C	1.017218	-0.407239	-0.515490
C19	C	0.917550	-0.402497	-0.509501
C20	C	1.239548	-0.600787	-0.538878
C21	C	1.235075	-0.678833	-0.542906
C22	C	0.718169	-0.488362	-0.617938
C23	C	0.624521	-0.483909	-0.612314
C24	C	0.636605	-0.389134	-0.492633
C25	C	0.730253	-0.393588	-0.498257
C26	C	0.771031	-0.443204	-0.560911
C27	C	0.864680	-0.447660	-0.566530
C28	C	0.876762	-0.352883	-0.446854
C29	C	0.783115	-0.348429	-0.441230
C30	C	1.293807	-0.715799	-0.490682
C31	C	1.289606	-0.789131	-0.494476
C32	C	1.226668	-0.825496	-0.550491
C33	C	1.167934	-0.788525	-0.602722
C34	C	1.172140	-0.715194	-0.598932
C35	C	1.210929	-1.046893	-0.564648
C36	C	1.206726	-1.120229	-0.568432
C37	C	1.328400	-1.120830	-0.460187
C38	C	1.332596	-1.047498	-0.456398
C39	C	1.273865	-1.010533	-0.508632
C40	C	1.222371	-0.900454	-0.554369
C41	C	1.278168	-0.935578	-0.504758
C42	C	1.484070	-0.429537	-0.543650
C43	C	1.583736	-0.434297	-0.549662
C44	C	1.236132	-0.428235	-0.764574
C45	C	1.230142	-0.432441	-0.864731
C46	C	1.260895	-0.235235	-0.520192
C47	C	1.265458	-0.157195	-0.516207
C48	C	1.338824	-0.356002	-1.055270
C49	C	1.333199	-0.359951	-1.149376
C50	C	1.213262	-0.444285	-1.147051
C51	C	1.218888	-0.440335	-1.052945
C52	C	1.281672	-0.396193	-1.007057
C53	C	1.287301	-0.392248	-0.912950
C54	C	1.167360	-0.476578	-0.910626
C55	C	1.161735	-0.480527	-1.004732
C56	C	1.264246	-0.408487	-0.295425
C57	C	1.270421	-0.404092	-0.195270
H58	H	0.751371	-0.528765	-0.668948
N59	N	1.391581	-0.318909	-1.198638
N60	N	1.386554	-0.322442	-1.282661
H61	H	1.427788	-0.293454	-1.317455
H62	H	1.337431	-0.819226	-0.451949
N63	N	0.741442	-0.297751	-0.377244
N64	N	0.657829	-0.293778	-0.372232
H65	H	0.628397	-0.257986	-0.327040
H66	H	1.383845	-1.017891	-0.410786
N67	N	1.108982	-0.517631	-0.861364
N68	N	1.114012	-0.514101	-0.777342
H69	H	1.072785	-0.543094	-0.742549
N70	N	1.142448	-1.157375	-0.625674
N71	N	1.168178	-1.202170	-0.687129
H72	H	1.122785	-1.228404	-0.727555
N73	N	1.388390	-1.158579	-0.406826
N74	N	1.387947	-1.146646	-0.322897
H75	H	1.430318	-1.173306	-0.285207
N76	N	1.150932	-1.009153	-0.618007
N77	N	1.094742	-1.041632	-0.668013
H78	H	1.052365	-1.014976	-0.705701
H79	H	1.171125	-0.930070	-0.599975
H80	H	1.329415	-0.905967	-0.459154
N81	N	0.930748	-0.306742	-0.388596
N82	N	0.894323	-0.262448	-0.332662
H83	H	0.932449	-0.229863	-0.291515
H84	H	1.162146	-0.480223	-1.184428
H85	H	1.345054	-0.686195	-0.445064
N86	N	0.570536	-0.530039	-0.670576
N87	N	0.606961	-0.574331	-0.726512
H88	H	0.568835	-0.606912	-0.767664
H89	H	0.603387	-0.348735	-0.441629
H90	H	1.116692	-0.818140	-0.648335
N91	N	1.112146	-0.677444	-0.652290
N92	N	1.055957	-0.709919	-0.702302
H93	H	1.013586	-0.683259	-0.739993
H94	H	1.338424	-0.356306	-0.875590
H95	H	0.897880	-0.488061	-0.617545
N96	N	1.402965	-0.310918	-1.008406
N97	N	1.453996	-0.275040	-1.051465
H98	H	1.499297	-0.243199	-1.018370
N99	N	1.097606	-0.525606	-1.051622
N100	N	1.092588	-0.529125	-1.135644
H101	H	1.047297	-0.560964	-1.168760
