data_functionalizedCrystal
_audit_creation_method	'MofGen! by Chris Wilmer'
_symmetry_space_group_name_H-M	'P1'
_symmetry_Int_Tables_number	1
_symmetry_cell_setting	triclinic
loop_
_symmetry_equiv_pos_as_xyz
  x,y,z
_cell_length_a	10.686220
_cell_length_b	29.839132
_cell_length_c	10.686551
_cell_angle_alpha	94.412012
_cell_angle_beta	90.308082
_cell_angle_gamma	85.572532
loop_
_atom_site_label
_atom_site_type_symbol
_atom_site_fract_x
_atom_site_fract_y
_atom_site_fract_z
Zn1	Zn	1.972122	0.109532	-0.562352
Zn2	Zn	1.955770	0.190849	-0.352568
Zn3	Zn	1.746223	0.121025	-0.368666
Zn4	Zn	1.762202	0.189939	-0.578346
O5	O	1.859079	0.152836	-0.465483
O6	O	2.145502	0.115890	-0.521093
O7	O	1.914443	0.186778	-0.179157
O8	O	1.776346	0.056628	-0.394402
O9	O	2.133488	0.175634	-0.366966
O10	O	1.942313	0.048184	-0.536703
O11	O	1.760490	0.135478	-0.190983
O12	O	1.572794	0.134595	-0.409911
O13	O	1.803579	0.174082	-0.751772
O14	O	1.584534	0.185226	-0.563962
O15	O	1.957806	0.115007	-0.740021
O16	O	1.929937	0.253601	-0.382475
O17	O	1.787723	0.252932	-0.548353
C18	C	1.533146	0.161059	-0.490420
C19	C	1.393713	0.164587	-0.501117
C20	C	1.858825	0.269567	-0.465427
C21	C	1.858835	0.319501	-0.465437
C22	C	1.933192	0.629469	-0.379172
C23	C	1.933314	0.817138	-0.379191
O24	O	1.996398	0.841683	-0.305834
N25	N	1.859212	0.840274	-0.465493
C26	C	1.785081	0.816490	-0.551802
O27	O	1.722066	0.840475	-0.625217
C28	C	1.784967	0.628821	-0.551788
C29	C	1.859064	0.605688	-0.465472
C30	C	2.007284	0.606335	-0.292864
C31	C	2.007247	0.559421	-0.292855
C32	C	1.933119	0.535640	-0.379155
C33	C	1.859027	0.558774	-0.465463
C34	C	1.710844	0.605038	-0.638102
C35	C	1.710824	0.558118	-0.638093
C36	C	1.784921	0.534984	-0.551776
C37	C	1.784863	0.488079	-0.551755
N38	N	1.858964	0.464943	-0.465453
C39	C	1.933092	0.488723	-0.379153
C40	C	1.785145	0.915019	-0.551802
C41	C	1.785171	0.961936	-0.551805
C42	C	1.933406	0.962581	-0.379195
C43	C	1.933372	0.915663	-0.379187
C44	C	1.859246	0.891883	-0.465500
C45	C	1.933010	0.390200	-0.379141
C46	C	1.932963	0.343282	-0.379137
C47	C	1.784734	0.342641	-0.551751
C48	C	1.784775	0.389556	-0.551751
C49	C	1.858923	0.413334	-0.465441
O50	O	1.721822	0.463505	-0.625083
O51	O	1.996119	0.464730	-0.305768
C52	C	1.933228	0.676383	-0.379180
C53	C	1.859137	0.699517	-0.465489
C54	C	1.785009	0.675736	-0.551788
C55	C	1.859163	0.746434	-0.465491
C56	C	1.933291	0.770214	-0.379191
C57	C	2.007393	0.747078	-0.292889
C58	C	2.007356	0.700164	-0.292880
C59	C	1.710907	0.698872	-0.638091
C60	C	1.710949	0.745786	-0.638091
C61	C	1.785077	0.769567	-0.551791
C62	C	2.186285	0.144581	-0.440450
C63	C	2.325721	0.141064	-0.429782
C64	C	1.859322	1.035650	-0.465540
C65	C	1.859299	0.985717	-0.465505
C66	C	1.884299	0.143161	-0.792686
C67	C	1.895046	0.139038	-0.932121
C68	C	1.834030	0.162440	-0.139547
C69	C	1.823527	0.166430	-0.000095
H70	H	1.345247	0.187430	-0.570373
Br71	Br	1.406485	0.102999	-0.314338
Br72	Br	2.010827	0.094693	-1.012915
H73	H	1.754078	0.193037	-0.951619
Br74	Br	2.033526	0.311890	-0.261983
H75	H	1.993764	0.981951	-0.308926
H76	H	2.067747	0.766449	-0.222617
Br77	Br	1.610375	0.777176	-0.755243
Br78	Br	2.033639	0.422463	-0.262005
Br79	Br	1.610297	0.666605	-0.755227
H80	H	1.724822	0.980768	-0.622081
H81	H	2.067587	0.540589	-0.222573
H82	H	2.067654	0.625693	-0.222587
H83	H	2.067693	0.681332	-0.222594
Br84	Br	2.033933	0.884273	-0.262039
H85	H	1.724780	0.895660	-0.622090
Br86	Br	1.610225	0.525847	-0.755243
H87	H	1.650500	0.623865	-0.708384
H88	H	1.724444	0.408391	-0.622040
H89	H	1.724375	0.323272	-0.622012
