data_functionalizedCrystal
_audit_creation_method	'MofGen! by Chris Wilmer'
_symmetry_space_group_name_H-M	'P1'
_symmetry_Int_Tables_number	1
_symmetry_cell_setting	triclinic
loop_
_symmetry_equiv_pos_as_xyz
  x,y,z
_cell_length_a	10.654562
_cell_length_b	10.654550
_cell_length_c	9.130313
_cell_angle_alpha	89.999890
_cell_angle_beta	89.996930
_cell_angle_gamma	84.487503
loop_
_atom_site_label
_atom_site_type_symbol
_atom_site_fract_x
_atom_site_fract_y
_atom_site_fract_z
O1	O	1.667825	0.176469	-0.121892
O2	O	1.302348	0.193259	-0.121873
O3	O	1.493490	0.002125	-0.121877
O4	O	1.476683	0.367603	-0.121887
O5	O	1.493487	0.002130	0.121721
O6	O	1.302346	0.193264	0.121726
O7	O	1.667822	0.176474	0.121707
Cu8	Cu	1.485084	0.184869	0.143959
Cu9	Cu	1.485087	0.184863	-0.144125
O10	O	1.476681	0.367608	0.121711
C11	C	1.255549	0.192025	-0.000071
C12	C	1.116107	0.188327	-0.000064
C13	C	1.050575	0.186605	0.132710
C14	C	0.919553	0.183140	0.132686
C15	C	0.919605	0.183125	-0.132899
C16	C	1.050626	0.186580	-0.132873
C17	C	1.050543	0.186619	0.286044
C18	C	0.919521	0.183154	0.286019
C19	C	1.492254	-0.044671	-0.000080
C20	C	1.488563	-0.184114	-0.000085
C21	C	1.601103	-0.263595	-0.000086
C22	C	1.597627	-0.394615	-0.000096
C23	C	1.369059	-0.366662	-0.000097
C24	C	1.372537	-0.235644	-0.000098
C25	C	1.733066	-0.279734	-0.000079
C26	C	1.729589	-0.410755	-0.000089
C27	C	1.714621	0.177708	-0.000098
C28	C	1.854064	0.181406	-0.000115
C29	C	1.477916	0.414403	-0.000090
C30	C	1.481608	0.553847	-0.000094
N31	N	1.485091	0.184873	0.346582
N32	N	1.485089	0.184850	-0.346748
C33	C	1.569750	0.100268	0.423232
C34	C	1.569747	0.100253	0.576568
C35	C	1.400421	0.269459	0.576592
C36	C	1.400419	0.269467	0.423258
C37	C	1.667513	0.002582	0.423219
C38	C	1.667510	0.002567	0.576556
H39	H	1.103980	0.187963	-0.240991
Br40	Br	1.631777	-0.158308	0.353842
Br41	Br	1.127656	0.041967	0.384192
Br42	Br	1.099848	0.339283	0.365331
Br43	Br	0.842362	0.327813	0.384127
H44	H	1.758697	0.033174	0.375655
H45	H	1.280895	-0.170935	-0.000117
H46	H	1.636997	-0.088657	0.624107
H47	H	0.866275	0.181703	-0.241027
Br48	Br	0.870173	0.030634	0.365668
H49	H	1.274594	-0.408635	-0.000109
H50	H	1.784682	-0.250376	-0.102020
H51	H	1.775086	-0.244103	0.105100
H52	H	1.769471	-0.456398	-0.105270
Br53	Br	1.812455	-0.480363	0.169812
H54	H	1.331472	0.338348	0.360850
Br55	Br	1.285511	0.384256	0.680659
Br56	Br	1.828365	0.038423	0.645925
