data_functionalizedCrystal
_audit_creation_method	'MofGen! by Chris Wilmer'
_symmetry_space_group_name_H-M	'P1'
_symmetry_Int_Tables_number	1
_symmetry_cell_setting	triclinic
loop_
_symmetry_equiv_pos_as_xyz
  x,y,z
_cell_length_a	18.050582
_cell_length_b	13.032831
_cell_length_c	13.032721
_cell_angle_alpha	89.097115
_cell_angle_beta	97.158902
_cell_angle_gamma	97.186361
loop_
_atom_site_label
_atom_site_type_symbol
_atom_site_fract_x
_atom_site_fract_y
_atom_site_fract_z
Zn1	Zn	-0.611866	-1.520186	-0.609483
Zn2	Zn	-0.111866	-1.020186	-0.109483
Zn3	Zn	-0.501217	-1.498238	-0.781442
Zn4	Zn	-0.001217	-0.998238	-0.281442
Zn5	Zn	-0.470225	-1.348217	-0.587626
Zn6	Zn	0.029775	-0.848217	-0.087626
Zn7	Zn	-0.607901	-1.326334	-0.759530
Zn8	Zn	-0.107901	-0.826334	-0.259530
O9	O	-0.547802	-1.423244	-0.684521
O10	O	-0.047802	-0.923244	-0.184521
O11	O	-0.611818	-1.661186	-0.650612
O12	O	-0.111818	-1.161186	-0.150612
O13	O	-0.393181	-1.478310	-0.755755
O14	O	0.106819	-0.978310	-0.255755
O15	O	-0.477703	-1.389372	-0.446618
O16	O	0.022297	-0.889372	0.053382
O17	O	-0.530524	-1.645061	-0.776949
O18	O	-0.030524	-1.145061	-0.276949
O19	O	-0.581766	-1.515717	-0.462677
O20	O	-0.081766	-1.015717	0.037323
O21	O	-0.370411	-1.368090	-0.613360
O22	O	0.129589	-0.868090	-0.113360
O23	O	-0.473859	-1.201402	-0.592112
O24	O	0.026141	-0.701402	-0.092112
O25	O	-0.712352	-1.352076	-0.739603
O26	O	-0.212352	-0.852076	-0.239603
O27	O	-0.575009	-1.185325	-0.718409
O28	O	-0.075009	-0.685325	-0.218409
O29	O	-0.715265	-1.494498	-0.629364
O30	O	-0.215265	-0.994498	-0.129364
O31	O	-0.526679	-1.457091	-0.922443
O32	O	-0.026679	-0.957091	-0.422443
O33	O	-0.605060	-1.330794	-0.906344
O34	O	-0.105060	-0.830794	-0.406344
C35	C	-0.520641	-1.156049	-0.650512
C36	C	-0.020641	-0.656049	-0.150512
C37	C	-0.509041	-1.041739	-0.635987
C38	C	-0.009041	-0.541739	-0.135987
C39	C	-0.568821	-1.389215	-0.951711
C40	C	-0.068821	-0.889215	-0.451711
C41	C	-0.577848	-1.374751	-1.066028
C42	C	-0.077848	-0.874751	-0.566028
C43	C	-0.741509	-1.423294	-0.684477
C44	C	-0.241509	-0.923294	-0.184477
C45	C	-0.824055	-1.423316	-0.684459
C46	C	-0.324055	-0.923316	-0.184459
C47	C	-1.071294	-1.345945	-0.744303
C48	C	-0.571294	-0.845945	-0.244303
C49	C	-1.011962	-1.332728	-0.647302
C50	C	-0.511962	-0.832728	-0.147302
C51	C	-1.121172	-1.423422	-0.684319
C52	C	-0.621172	-0.923422	-0.184319
C53	C	-1.033419	-1.436540	-0.781377
C54	C	-0.533419	-0.936540	-0.281377
C55	C	-0.975189	-1.423367	-0.684392
C56	C	-0.475189	-0.923367	-0.184392
C57	C	-1.062918	-1.410163	-0.587262
C58	C	-0.562918	-0.910163	-0.087262
C59	C	-1.084389	-1.514010	-0.721405
C60	C	-0.584389	-1.014010	-0.221405
C61	C	-1.025078	-1.500836	-0.624345
C62	C	-0.525078	-1.000836	-0.124345
C63	C	-1.205269	-1.423451	-0.684277
C64	C	-0.705269	-0.923451	-0.184277
C65	C	-0.891092	-1.423339	-0.684423
C66	C	-0.391092	-0.923339	-0.184423
C67	C	-0.354850	-1.423262	-0.684497
C68	C	0.145150	-0.923262	-0.184497
C69	C	-0.272301	-1.423476	-0.684251
C70	C	0.227699	-0.923476	-0.184251
C71	C	-0.575070	-1.691482	-0.718663
C72	C	-0.075070	-1.191482	-0.218663
C73	C	-0.586690	-1.805789	-0.733212
C74	C	-0.086690	-1.305789	-0.233212
C75	C	-0.553856	-0.982836	-0.692101
C76	C	-0.053856	-0.482836	-0.192101
C77	C	-0.541868	-0.864690	-0.677091
C78	C	-0.041868	-0.364690	-0.177091
C79	C	-0.543130	-1.430847	-1.124932
C80	C	-0.043130	-0.930847	-0.624932
C81	C	-0.552459	-1.415900	-1.243085
C82	C	-0.052459	-0.915900	-0.743085
C83	C	-0.526720	-1.457434	-0.416291
C84	C	-0.026720	-0.957434	0.083709
C85	C	-0.517736	-1.472003	-0.301987
C86	C	-0.017736	-0.972003	0.198013
H87	H	-1.091625	-1.280414	-0.794919
H88	H	-0.591625	-0.780414	-0.294919
O89	O	-0.616445	-1.031876	-0.770457
O90	O	-0.116445	-0.531876	-0.270457
H91	H	-0.671299	-1.013572	-0.750322
H92	H	-0.171299	-0.513572	-0.250322
O93	O	-0.626365	-1.296472	-1.115090
O94	O	-0.126365	-0.796472	-0.615090
H95	H	-0.684835	-1.316647	-1.096716
H96	H	-0.184835	-0.816647	-0.596716
H97	H	-0.980527	-1.256097	-0.615961
H98	H	-0.480527	-0.756097	-0.115961
O99	O	-0.479270	-0.815648	-0.598744
O100	O	0.020730	-0.315648	-0.098744
H101	H	-0.479668	-0.730546	-0.599263
H102	H	0.020332	-0.230546	-0.099263
H103	H	-1.076107	-1.398956	-0.505178
H104	H	-0.576107	-0.898956	-0.005178
H105	H	-0.481108	-1.531104	-1.264951
H106	H	0.018892	-1.031104	-0.764951
H107	H	-1.004869	-1.566341	-0.573583
H108	H	-0.504869	-1.066341	-0.073583
O109	O	-0.649280	-0.854827	-0.811573
O110	O	-0.149280	-0.354827	-0.311573
H111	H	-0.648874	-0.939927	-0.811071
H112	H	-0.148874	-0.439927	-0.311071
H113	H	-0.461800	-1.004701	-0.576829
H114	H	0.038200	-0.504701	-0.076829
O115	O	-1.126086	-1.615458	-0.762963
O116	O	-0.626086	-1.115458	-0.262963
H117	H	-1.114590	-1.626182	-0.843554
H118	H	-0.614590	-1.126182	-0.343554
H119	H	-0.506504	-1.489944	-1.087893
H120	H	-0.006504	-0.989944	-0.587893
O121	O	-0.600974	-1.337609	-1.292137
O122	O	-0.100974	-0.837609	-0.792137
H123	H	-0.647289	-1.377460	-1.346876
H124	H	-0.147289	-0.877460	-0.846876
O125	O	-1.015814	-1.451283	-0.890058
O126	O	-0.515814	-0.951283	-0.390058
H127	H	-1.034261	-1.386898	-0.939657
H128	H	-0.534261	-0.886898	-0.439657
