data_functionalizedCrystal
_audit_creation_method	'MofGen! by Chris Wilmer'
_symmetry_space_group_name_H-M	'P1'
_symmetry_Int_Tables_number	1
_symmetry_cell_setting	triclinic
loop_
_symmetry_equiv_pos_as_xyz
  x,y,z
_cell_length_a	21.295417
_cell_length_b	21.295419
_cell_length_c	21.295120
_cell_angle_alpha	89.933046
_cell_angle_beta	89.638316
_cell_angle_gamma	90.045308
loop_
_atom_site_label
_atom_site_type_symbol
_atom_site_fract_x
_atom_site_fract_y
_atom_site_fract_z
Zn1	Zn	-0.248320	0.962621	-0.355923
Zn2	Zn	0.085014	1.295954	-0.022590
Zn3	Zn	0.418347	1.629287	0.310743
Zn4	Zn	-0.354197	0.962445	-0.250645
Zn5	Zn	-0.020863	1.295778	0.082688
Zn6	Zn	0.312470	1.629111	0.416022
Zn7	Zn	-0.248972	0.857265	-0.250665
Zn8	Zn	0.084361	1.190599	0.082669
Zn9	Zn	0.417694	1.523932	0.416002
Zn10	Zn	-0.353583	0.857313	-0.355880
Zn11	Zn	-0.020249	1.190647	-0.022547
Zn12	Zn	0.313084	1.523980	0.310786
O13	O	-0.301268	0.909911	-0.303278
O14	O	0.032066	1.243244	0.030055
O15	O	0.365399	1.576578	0.363388
O16	O	-0.262349	1.050687	-0.341968
O17	O	0.070985	1.384020	-0.008634
O18	O	0.404318	1.717353	0.324699
O19	O	-0.340768	0.948399	-0.162555
O20	O	-0.007435	1.281732	0.170778
O21	O	0.325898	1.615065	0.504111
O22	O	-0.160796	0.871295	-0.264654
O23	O	0.172537	1.204628	0.068680
O24	O	0.505871	1.537961	0.402013
O25	O	-0.340136	1.050557	-0.264620
O26	O	-0.006802	1.383891	0.068713
O27	O	0.326531	1.717224	0.402047
O28	O	-0.160317	0.948699	-0.341987
O29	O	0.173017	1.282032	-0.008653
O30	O	0.506350	1.615365	0.324680
O31	O	-0.263460	0.871124	-0.162570
O32	O	0.069873	1.204457	0.170764
O33	O	0.403206	1.537791	0.504097
O34	O	-0.262865	0.769182	-0.264612
O35	O	0.070468	1.102516	0.068721
O36	O	0.403802	1.435849	0.402055
O37	O	-0.339089	0.871376	-0.443979
O38	O	-0.005756	1.204709	-0.110645
O39	O	0.327577	1.538043	0.222688
O40	O	-0.339722	0.769218	-0.341914
O41	O	-0.006389	1.102551	-0.008580
O42	O	0.326945	1.435884	0.324753
O43	O	-0.261753	0.948745	-0.444010
O44	O	0.071580	1.282078	-0.110677
O45	O	0.404914	1.615412	0.222657
O46	O	-0.442205	0.948445	-0.264579
O47	O	-0.108871	1.281778	0.068755
O48	O	0.224462	1.615112	0.402088
O49	O	-0.441754	0.871205	-0.341895
O50	O	-0.108420	1.204539	-0.008561
O51	O	0.224913	1.537872	0.324772
C52	C	-0.301298	0.746359	-0.303261
C53	C	0.032035	1.079693	0.030073
C54	C	0.365369	1.413026	0.363406
C55	C	-0.301326	0.676391	-0.303268
C56	C	0.032007	1.009725	0.030065
C57	C	0.365341	1.343058	0.363399
C58	C	-0.464820	0.909828	-0.303244
C59	C	-0.131486	1.243162	0.030090
C60	C	0.201847	1.576495	0.363423
C61	C	-0.534788	0.909851	-0.303250
C62	C	-0.201454	1.243184	0.030084
C63	C	0.131879	1.576517	0.363417
C64	C	-0.260888	0.643614	-0.343605
C65	C	0.072446	0.976948	-0.010272
C66	C	0.405779	1.310281	0.323062
C67	C	-0.260871	0.577872	-0.343608
C68	C	0.072462	0.911205	-0.010274
C69	C	0.405796	1.244539	0.323059
C70	C	-0.301303	0.544909	-0.303280
C71	C	0.032030	0.878242	0.030054
C72	C	0.365363	1.211575	0.363387
C73	C	-0.341745	0.577693	-0.262935
C74	C	-0.008411	0.911027	0.070399
C75	C	0.324922	1.244360	0.403732
C76	C	-0.341756	0.643435	-0.262929
C77	C	-0.008423	0.976768	0.070404
C78	C	0.324911	1.310101	0.403738
N79	N	-0.356410	0.441630	-0.298360
N80	N	-0.023077	0.774963	0.034974
N81	N	0.310257	1.108296	0.368307
N82	N	-0.356397	0.379178	-0.298369
N83	N	-0.023064	0.712512	0.034965
N84	N	0.310269	1.045845	0.368298
C85	C	-0.301271	0.346834	-0.303293
C86	C	0.032063	0.680167	0.030040
C87	C	0.365396	1.013501	0.363373
N88	N	-0.246156	0.379301	-0.308221
N89	N	0.087177	0.712634	0.025112
N90	N	0.420511	1.045967	0.358446
N91	N	-0.246169	0.441758	-0.308215
N92	N	0.087164	0.775091	0.025118
N93	N	0.420497	1.108424	0.358452
C94	C	-0.301295	0.473623	-0.303281
C95	C	0.032038	0.806957	0.030052
C96	C	0.365371	1.140290	0.363386
C97	C	-0.260811	0.242772	-0.343635
C98	C	0.072523	0.576105	-0.010302
C99	C	0.405856	0.909438	0.323031
C100	C	-0.260793	0.177028	-0.343633
C101	C	0.072541	0.510361	-0.010300
C102	C	0.405874	0.843695	0.323033
C103	C	-0.341672	0.176851	-0.262964
C104	C	-0.008339	0.510184	0.070370
C105	C	0.324995	0.843518	0.403703
C106	C	-0.341685	0.242593	-0.262962
C107	C	-0.008351	0.575927	0.070371
C108	C	0.324982	0.909260	0.403704
C109	C	-0.301255	0.275550	-0.303302
C110	C	0.032079	0.608883	0.030032
C111	C	0.365412	0.942216	0.363365
C112	C	-0.567868	0.950105	-0.263032
C113	C	-0.234535	1.283439	0.070301
C114	C	0.098799	1.616772	0.403634
C115	C	-0.633610	0.950135	-0.263047
C116	C	-0.300277	1.283468	0.070287
C117	C	0.033056	1.616801	0.403620
C118	C	-0.666270	0.909899	-0.303271
C119	C	-0.332937	1.243232	0.030062
C120	C	0.000397	1.576565	0.363395
C121	C	-0.633182	0.869641	-0.343496
C122	C	-0.299848	1.202975	-0.010163
C123	C	0.033485	1.536308	0.323170
C124	C	-0.567441	0.869617	-0.343485
C125	C	-0.234107	1.202951	-0.010152
C126	C	0.099226	1.536284	0.323181
N127	N	-0.769522	0.854835	-0.308064
N128	N	-0.436189	1.188168	0.025269
N129	N	-0.102856	1.521502	0.358602
N130	N	-0.831974	0.854860	-0.308071
N131	N	-0.498641	1.188193	0.025262
N132	N	-0.165307	1.521526	0.358596
C133	C	-0.864344	0.909969	-0.303307
C134	C	-0.531011	1.243302	0.030026
C135	C	-0.197678	1.576636	0.363359
N136	N	-0.831905	0.965054	-0.298525
N137	N	-0.498571	1.298388	0.034809
N138	N	-0.165238	1.631721	0.368142
N139	N	-0.769447	0.965029	-0.298515
N140	N	-0.436114	1.298363	0.034819
N141	N	-0.102781	1.631696	0.368152
C142	C	-0.737555	0.909920	-0.303288
C143	C	-0.404222	1.243254	0.030045
C144	C	-0.070889	1.576587	0.363379
C145	C	-0.968710	0.950259	-0.263103
C146	C	-0.635377	1.283592	0.070230
C147	C	-0.302044	1.616926	0.403563
C148	C	-1.034454	0.950290	-0.263122
C149	C	-0.701121	1.283623	0.070211
C150	C	-0.367787	1.616956	0.403545
C151	C	-1.034024	0.869790	-0.343568
C152	C	-0.700691	1.203124	-0.010235
C153	C	-0.367357	1.536457	0.323098
C154	C	-0.968282	0.869765	-0.343553
C155	C	-0.634948	1.203099	-0.010220
C156	C	-0.301615	1.536432	0.323113
C157	C	-0.935629	0.909999	-0.303317
C158	C	-0.602295	1.243332	0.030016
C159	C	-0.268962	1.576666	0.363349
C160	C	-0.137077	0.910011	-0.303327
C161	C	0.196256	1.243344	0.030006
C162	C	0.529589	1.576678	0.363340
C163	C	-0.067109	0.910054	-0.303348
C164	C	0.266224	1.243387	0.029985
C165	C	0.599558	1.576720	0.363319
C166	C	-0.300280	0.910086	-0.467474
C167	C	0.033053	1.243419	-0.134141
C168	C	0.366387	1.576752	0.199192
C169	C	-0.299859	0.910160	-0.537445
C170	C	0.033474	1.243493	-0.204111
C171	C	0.366808	1.576827	0.129222
C172	C	-0.301238	1.074101	-0.303296
C173	C	0.032096	1.407435	0.030037
C174	C	0.365429	1.740768	0.363370
C175	C	-0.301225	1.144069	-0.303304
C176	C	0.032108	1.477403	0.030029
C177	C	0.365442	1.810736	0.363362
C178	C	-0.302206	0.909773	-0.139721
C179	C	0.031127	1.243107	0.193612
C180	C	0.364460	1.576440	0.526945
C181	C	-0.302450	0.909821	-0.069751
C182	C	0.030883	1.243154	0.263582
C183	C	0.364217	1.576488	0.596916
C184	C	-0.261731	0.949824	-0.037411
C185	C	0.071602	1.283158	0.295922
C186	C	0.404936	1.616491	0.629255
C187	C	-0.261413	0.949871	0.028329
C188	C	0.071920	1.283204	0.361663
C189	C	0.405254	1.616537	0.694996
C190	C	-0.301807	0.909902	0.061728
C191	C	0.031526	1.243236	0.395061
C192	C	0.364859	1.576569	0.728394
C193	C	-0.342534	0.869896	0.029380
C194	C	-0.009201	1.203230	0.362713
C195	C	0.324132	1.536563	0.696046
C196	C	-0.342856	0.869856	-0.036359
C197	C	-0.009522	1.203189	0.296974
C198	C	0.323811	1.536522	0.630307
N199	N	-0.306541	0.854897	0.165101
N200	N	0.026792	1.188231	0.498435
N201	N	0.360125	1.521564	0.831768
N202	N	-0.306233	0.854938	0.227551
N203	N	0.027101	1.188271	0.560884
N204	N	0.360434	1.521605	0.894217
C205	C	-0.300843	0.910024	0.259796
C206	C	0.032490	1.243357	0.593130
C207	C	0.365824	1.576690	0.926463
N208	N	-0.295761	0.965068	0.227233
N209	N	0.037572	1.298402	0.560566
N210	N	0.370905	1.631735	0.893900
N211	N	-0.296067	0.965027	0.164778
N212	N	0.037266	1.298360	0.498111
N213	N	0.370600	1.631694	0.831444
C214	C	-0.301464	0.909942	0.133011
C215	C	0.031869	1.243276	0.466344
C216	C	0.365203	1.576609	0.799677
C217	C	-0.259777	0.950080	0.363420
C218	C	0.073556	1.283414	0.696753
C219	C	0.406890	1.616747	1.030086
C220	C	-0.259463	0.950128	0.429162
C221	C	0.073870	1.283461	0.762495
C222	C	0.407203	1.616794	1.095828
C223	C	-0.340581	0.870148	0.430211
C224	C	-0.007248	1.203481	0.763544
C225	C	0.326085	1.536815	1.096877
C226	C	-0.340898	0.870106	0.364470
C227	C	-0.007565	1.203440	0.697804
C228	C	0.325768	1.536773	1.031137
C229	C	-0.300493	0.910071	0.331079
C230	C	0.032841	1.243405	0.664412
C231	C	0.366174	1.576738	0.997745
H232	H	-0.227966	0.670444	-0.376452
H233	H	0.105367	1.003777	-0.043119
H234	H	0.438701	1.337110	0.290215
H235	H	-0.374665	0.550851	-0.230099
H236	H	-0.041331	0.884184	0.103234
H237	H	0.292002	1.217517	0.436568
F238	F	-0.384700	0.141773	-0.220039
F239	F	-0.051367	0.475107	0.113294
F240	F	0.281967	0.808440	0.446627
F241	F	-0.218073	0.992449	0.062755
F242	F	0.115261	1.325783	0.396088
F243	F	0.448594	1.659116	0.729422
F244	F	-0.383578	0.827616	0.465751
F245	F	-0.050245	1.160949	0.799085
F246	F	0.283088	1.494283	1.132418
H247	H	-0.228832	0.982370	-0.064595
H248	H	0.104501	1.315703	0.268739
H249	H	0.437834	1.649037	0.602072
H250	H	-0.374054	0.837529	0.338139
H251	H	-0.040720	1.170862	0.671472
H252	H	0.292613	1.504195	1.004805
F253	F	-0.533120	0.992932	-0.220217
F254	F	-0.199787	1.326266	0.113117
F255	F	0.133546	1.659599	0.446450
F256	F	-0.216126	0.992711	0.463580
F257	F	0.117208	1.326044	0.796913
F258	F	0.450541	1.659377	1.130246
F259	F	-0.668824	0.992980	-0.220240
F260	F	-0.335491	1.326314	0.113094
F261	F	-0.002158	1.659647	0.446427
H262	H	-0.659777	0.836882	-0.376249
H263	H	-0.326444	1.170215	-0.042915
H264	H	0.006889	1.503548	0.290418
F265	F	-0.217828	0.542981	-0.386541
F266	F	0.115505	0.876315	-0.053207
F267	F	0.448838	1.209648	0.280126
H268	H	-0.540506	0.836837	-0.376236
H269	H	-0.207173	1.170170	-0.042903
H270	H	0.126161	1.503503	0.290431
F271	F	-0.384796	0.678319	-0.219993
F272	F	-0.051463	1.011653	0.113340
F273	F	0.281870	1.344986	0.446673
F274	F	-0.386197	0.827277	-0.070779
F275	F	-0.052863	1.160611	0.262554
F276	F	0.280470	1.493944	0.595888
F277	F	-0.217779	0.277849	-0.386563
F278	F	0.115555	0.611182	-0.053230
F279	F	0.448888	0.944515	0.280103
F280	F	-0.933957	0.993078	-0.220281
F281	F	-0.600623	1.326411	0.113052
F282	F	-0.267290	1.659744	0.446385
H283	H	-0.375425	0.837355	0.056577
H284	H	-0.042091	1.170688	0.389910
H285	H	0.291242	1.504022	0.723244
H286	H	-1.061387	0.983073	-0.230374
H287	H	-0.728054	1.316407	0.102960
H288	H	-0.394720	1.649740	0.436293
F289	F	-0.216766	0.992605	0.327880
F290	F	0.116568	1.325939	0.661213
F291	F	0.449901	1.659272	0.994546
F292	F	-1.068778	0.826971	-0.386383
F293	F	-0.735445	1.160305	-0.053049
F294	F	-0.402112	1.493638	0.280284
F295	F	-0.384723	0.277478	-0.220028
F296	F	-0.051390	0.610812	0.113306
F297	F	0.281944	0.944145	0.446639
F298	F	-0.933074	0.826918	-0.386356
F299	F	-0.599740	1.160251	-0.053023
F300	F	-0.266407	1.493585	0.280311
H301	H	-0.227859	0.150342	-0.376480
H302	H	0.105474	0.483676	-0.043146
H303	H	0.438807	0.817009	0.290187
