data_functionalizedCrystal
_audit_creation_method	'MofGen! by Chris Wilmer'
_symmetry_space_group_name_H-M	'P1'
_symmetry_Int_Tables_number	1
_symmetry_cell_setting	triclinic
loop_
_symmetry_equiv_pos_as_xyz
  x,y,z
_cell_length_a	10.654550
_cell_length_b	19.288865
_cell_length_c	17.766277
_cell_angle_alpha	90.011603
_cell_angle_beta	89.987131
_cell_angle_gamma	96.189425
loop_
_atom_site_label
_atom_site_type_symbol
_atom_site_fract_x
_atom_site_fract_y
_atom_site_fract_z
O1	O	1.665762	-0.097556	-0.062666
O2	O	2.165762	0.402444	0.437334
O3	O	1.300084	-0.106850	-0.062655
O4	O	1.800084	0.393150	0.437345
O5	O	1.493489	-0.001142	-0.062646
O6	O	1.993489	0.498858	0.437354
O7	O	1.472357	-0.203264	-0.062675
O8	O	1.972357	0.296736	0.437325
O9	O	1.493455	-0.001136	0.062543
O10	O	1.993455	0.498864	0.562543
O11	O	1.300050	-0.106844	0.062534
O12	O	1.800050	0.393156	0.562534
O13	O	1.665728	-0.097550	0.062523
O14	O	2.165728	0.402450	0.562523
Cu15	Cu	1.482886	-0.102197	0.073959
Cu16	Cu	1.982886	0.397803	0.573959
Cu17	Cu	1.482926	-0.102203	-0.074091
Cu18	Cu	1.982926	0.397797	0.425909
O19	O	1.472323	-0.203258	0.062514
O20	O	1.972323	0.296742	0.562514
C21	C	1.253284	-0.106165	-0.000059
C22	C	1.753284	0.393835	0.499941
C23	C	1.113884	-0.104123	-0.000054
C24	C	1.613884	0.395877	0.499946
N25	N	1.482867	-0.102192	0.178089
N26	N	1.982867	0.397808	0.678089
C27	C	1.492792	0.024742	-0.000049
C28	C	1.992792	0.524742	0.499951
C29	C	1.490751	0.101859	-0.000042
C30	C	1.990751	0.601859	0.499958
C31	C	1.033066	-0.166362	-0.000074
C32	C	1.533066	0.333638	0.499926
C33	C	0.902087	-0.164440	-0.000086
C34	C	1.402087	0.335560	0.499914
C35	C	0.932756	-0.038033	-0.000062
C36	C	1.432756	0.461967	0.499938
C37	C	1.063733	-0.039956	-0.000044
C38	C	1.563733	0.460044	0.499956
C39	C	1.015359	-0.239343	-0.000091
C40	C	1.515359	0.260657	0.499909
C41	C	0.884379	-0.237420	-0.000104
C42	C	1.384379	0.262580	0.499896
C43	C	1.712528	-0.098235	-0.000075
C44	C	2.212528	0.401765	0.499925
C45	C	1.851928	-0.100277	-0.000085
C46	C	2.351928	0.399723	0.499915
C47	C	1.473020	-0.229142	-0.000084
C48	C	1.973020	0.270858	0.499916
C49	C	1.475061	-0.306259	-0.000096
C50	C	1.975061	0.193741	0.499904
C51	C	1.604232	0.145812	-0.000042
C52	C	2.104232	0.645812	0.499958
C53	C	1.602315	0.218272	-0.000054
C54	C	2.102315	0.718272	0.499946
C55	C	1.486909	0.246775	-0.000051
C56	C	1.986909	0.746775	0.499949
C57	C	1.373413	0.202812	-0.000055
C58	C	1.873413	0.702812	0.499945
C59	C	1.375334	0.130354	-0.000051
C60	C	1.875334	0.630354	0.499949
C61	C	1.396175	0.355658	0.043803
C62	C	1.896175	0.855658	0.543803
C63	C	1.394259	0.428115	0.043803
C64	C	1.894259	0.928115	0.543803
C65	C	1.480980	0.470259	-0.000068
C66	C	1.980980	0.970259	0.499932
C67	C	1.569638	0.439939	-0.043929
C68	C	2.069638	0.939939	0.456071
C69	C	1.571559	0.367481	-0.043925
C70	C	2.071559	0.867481	0.456075
C71	C	1.484814	0.325343	-0.000056
C72	C	1.984814	0.825343	0.499944
C73	C	1.592390	0.592782	-0.000081
C74	C	2.092390	1.092782	0.499919
C75	C	1.590467	0.665243	-0.000098
C76	C	2.090467	1.165243	0.499902
C77	C	1.361562	0.649781	-0.000092
C78	C	1.861562	1.149781	0.499908
C79	C	1.363488	0.577322	-0.000083
C80	C	1.863488	1.077322	0.499917
C81	C	1.478905	0.548827	-0.000074
C82	C	1.978905	1.048827	0.499926
N83	N	1.482955	-0.102203	-0.178221
N84	N	1.982955	0.397797	0.321779
C85	C	1.568534	-0.055407	0.217480
C86	C	2.068534	0.444593	0.717480
C87	C	1.568542	-0.055404	0.296282
C88	C	2.068542	0.444596	0.796282
C89	C	1.482893	-0.102197	0.335690
C90	C	1.982893	0.397803	0.835690
C91	C	1.397210	-0.148985	0.296290
C92	C	1.897210	0.351015	0.796290
C93	C	1.397197	-0.148982	0.217489
C94	C	1.897197	0.351018	0.717489
C95	C	1.466082	-0.165375	0.460519
C96	C	1.966082	0.334625	0.960519
C97	C	1.466104	-0.165379	0.539318
C98	C	1.966104	0.334621	1.039318
C99	C	1.482927	-0.102206	0.578736
C100	C	1.982927	0.397794	1.078736
C101	C	1.499755	-0.039027	0.539346
C102	C	1.999755	0.460973	1.039346
C103	C	1.499742	-0.039024	0.460546
C104	C	1.999742	0.460976	0.960546
C105	C	1.482898	-0.102205	0.421136
C106	C	1.982898	0.397795	0.921136
C107	C	1.568607	-0.055414	0.703573
C108	C	2.068607	0.444586	1.203573
C109	C	1.568605	-0.055410	0.782376
C110	C	2.068605	0.444590	1.282376
C111	C	1.397280	-0.148997	0.782382
C112	C	1.897280	0.351003	1.282382
C113	C	1.397275	-0.148995	0.703581
C114	C	1.897275	0.351005	1.203581
C115	C	1.482946	-0.102205	0.664181
C116	C	1.982946	0.397795	1.164181
H117	H	1.129532	0.010725	-0.000017
H118	H	1.629532	0.510725	0.499983
O119	O	1.304782	-0.199442	0.175002
O120	O	1.804782	0.300558	0.675002
H121	H	1.319156	-0.191574	0.113587
H122	H	1.819156	0.308426	0.613587
H123	H	0.891906	0.014210	-0.000066
H124	H	1.391906	0.514210	0.499934
H125	H	1.327472	-0.187084	0.328379
H126	H	1.827472	0.312916	0.828379
H127	H	1.279449	0.226024	-0.000055
H128	H	1.779449	0.726024	0.499945
H129	H	1.322063	0.452796	0.079513
H130	H	1.822063	0.952796	0.579513
O131	O	1.667158	0.334777	-0.091242
O132	O	2.167158	0.834777	0.408758
H133	H	1.763836	0.355242	-0.073203
H134	H	2.263836	0.855242	0.426797
H135	H	1.044065	-0.267883	0.052299
H136	H	1.544065	0.232117	0.552299
H137	H	0.838221	-0.259473	0.053940
H138	H	1.338221	0.240527	0.553940
H139	H	1.050531	-0.262583	-0.054143
H140	H	1.550531	0.237417	0.445857
O141	O	1.447904	-0.233518	0.418011
O142	O	1.947904	0.266482	0.918011
H143	H	1.450698	-0.222903	0.356599
H144	H	1.950698	0.277097	0.856599
O145	O	0.828327	-0.273850	-0.069506
O146	O	1.328327	0.226150	0.430494
H147	H	0.869622	-0.247056	-0.120485
H148	H	1.369622	0.252944	0.379515
O149	O	1.728712	0.115076	-0.000054
O150	O	2.228712	0.615076	0.499946
H151	H	1.807301	0.157818	-0.000067
H152	H	2.307301	0.657818	0.499933
O153	O	1.241085	0.529913	-0.000064
O154	O	1.741085	1.029913	0.499936
H155	H	1.185838	0.540104	-0.051082
H156	H	1.685838	1.040104	0.448918
O157	O	1.252932	0.082940	-0.000038
O158	O	1.752932	0.582940	0.499962
H159	H	1.172357	0.114930	-0.000033
H160	H	1.672357	0.614930	0.499967
H161	H	1.640254	0.474251	-0.079653
H162	H	2.140254	0.974251	0.420347
H163	H	1.694728	0.254065	-0.000057
H164	H	2.194728	0.754065	0.499943
O165	O	1.517616	0.029082	0.417990
O166	O	2.017616	0.529082	0.917990
H167	H	1.602997	0.030302	0.382004
H168	H	2.102997	0.530302	0.882004
O169	O	1.716866	0.562039	-0.000087
O170	O	2.216866	1.062039	0.499913
H171	H	1.795458	0.604780	-0.000103
H172	H	2.295458	1.104780	0.499897
O173	O	1.712870	0.712656	-0.000091
O174	O	2.212870	1.212656	0.499909
H175	H	1.793443	0.680665	-0.000075
H176	H	2.293443	1.180665	0.499925
O177	O	1.237083	0.680512	-0.000085
O178	O	1.737083	1.180512	0.499915
H179	H	1.254810	0.738281	-0.000083
H180	H	1.754810	1.238281	0.499917
H181	H	1.638289	-0.017306	0.185403
H182	H	2.138289	0.482694	0.685403
H183	H	1.325554	0.321350	0.079531
H184	H	1.825554	0.821350	0.579531
O185	O	1.660955	-0.004950	0.338783
O186	O	2.160955	0.495050	0.838783
H187	H	1.720531	0.027582	0.298147
H188	H	2.220531	0.527582	0.798147
H189	H	1.513454	0.012415	0.571439
H190	H	2.013454	0.512415	1.071439
O191	O	1.660986	-0.004942	0.661068
O192	O	2.160986	0.495058	1.161068
H193	H	1.720544	0.027601	0.701702
H194	H	2.220544	0.527601	1.201702
O195	O	1.661021	-0.004955	0.824869
O196	O	2.161021	0.495045	1.324869
H197	H	1.720598	0.027572	0.784229
H198	H	2.220598	0.527572	1.284229
O199	O	1.304900	-0.199471	0.824873
O200	O	1.804900	0.300529	1.324873
H201	H	1.319305	-0.191617	0.886287
H202	H	1.819305	0.308383	1.386287
H203	H	1.327522	-0.187094	0.671506
H204	H	1.827522	0.312906	1.171506
O205	O	1.447980	-0.233518	0.581802
O206	O	1.947980	0.266482	1.081802
H207	H	1.436262	-0.277445	0.541156
H208	H	1.936262	0.222555	1.041156
