data_functionalizedCrystal
_audit_creation_method	'MofGen! by Chris Wilmer'
_symmetry_space_group_name_H-M	'P1'
_symmetry_Int_Tables_number	1
_symmetry_cell_setting	triclinic
loop_
_symmetry_equiv_pos_as_xyz
  x,y,z
_cell_length_a	15.995350
_cell_length_b	9.565339
_cell_length_c	15.995350
_cell_angle_alpha	90.002462
_cell_angle_beta	96.507625
_cell_angle_gamma	89.999906
loop_
_atom_site_label
_atom_site_type_symbol
_atom_site_fract_x
_atom_site_fract_y
_atom_site_fract_z
O1	O	1.110985	0.116135	-0.107921
O2	O	0.867210	0.116162	-0.121248
O3	O	0.995761	0.116146	0.007303
O4	O	0.982434	0.116151	-0.236472
O5	O	0.995751	-0.116374	0.007295
O6	O	0.867200	-0.116358	-0.121256
O7	O	1.110975	-0.116386	-0.107929
Zn8	Zn	0.989086	-0.153289	-0.114594
Zn9	Zn	0.989099	0.153066	-0.114583
O10	O	0.982424	-0.116370	-0.236480
C11	C	0.836010	-0.000094	-0.120701
C12	C	0.743060	-0.000083	-0.119049
C13	C	0.405312	-0.000112	-0.113117
C14	C	0.452746	-0.000633	-0.021565
C15	C	0.549436	-0.000099	-0.023217
C16	C	0.572873	-0.000099	-0.116060
C17	C	0.531791	0.132677	-0.161212
C18	C	0.435156	0.132778	-0.158912
C19	C	0.434805	-0.131640	-0.160812
C20	C	0.531750	-0.133386	-0.160791
C21	C	0.667570	-0.000086	-0.117727
C22	C	0.310614	-0.000115	-0.111452
N23	N	0.989083	-0.362369	-0.114600
C24	C	0.929614	-0.453564	-0.174031
C25	C	1.005277	-0.546752	-0.190278
C26	C	0.913452	-0.546736	-0.098360
C27	C	1.064784	-0.453504	-0.130885
C28	C	0.972909	-0.453481	-0.038934
C29	C	1.048627	-0.546626	-0.055148
C30	C	1.142175	-0.000126	-0.108476
C31	C	1.235125	-0.000128	-0.110127
C32	C	0.995205	-0.000111	0.038494
C33	C	0.993553	-0.000103	0.131444
N34	N	0.989109	0.362145	-0.114570
C35	C	0.982980	-0.000109	-0.267671
C36	C	0.984631	-0.000108	-0.360621
C37	C	0.987621	-0.000107	0.469192
C38	C	0.896069	0.000425	0.421758
C39	C	0.897721	-0.000099	0.325068
C40	C	0.990564	-0.000104	0.301631
C41	C	1.035714	-0.132887	0.342704
C42	C	1.033415	-0.132998	0.439340
C43	C	1.035317	0.131421	0.439707
C44	C	1.035296	0.133175	0.342762
C45	C	0.992231	-0.000107	0.206934
C46	C	0.985956	-0.000113	0.563890
H47	H	0.560170	0.231491	-0.129844
C48	C	0.803497	-0.317833	-0.203941
C49	C	0.861786	-0.398384	-0.241935
H50	H	0.761625	-0.283774	-0.245863
H51	H	0.831535	-0.241254	-0.175208
H52	H	0.777791	-0.373854	-0.164993
H53	H	0.887496	-0.342361	-0.280878
H54	H	0.833745	-0.474974	-0.270681
C55	C	0.363326	-0.234804	-0.051949
C56	C	0.407232	-0.267511	-0.120308
H57	H	0.346352	-0.318682	-0.026905
H58	H	0.315059	-0.180787	-0.070939
H59	H	0.398800	-0.182780	-0.011637
H60	H	0.371757	-0.319526	-0.160623
H61	H	0.455506	-0.321551	-0.101319
C62	C	1.213466	-0.446452	-0.087658
C63	C	1.151146	-0.398417	-0.149531
H64	H	1.266774	-0.412419	-0.099174
H65	H	1.214030	-0.545745	-0.087744
H66	H	1.201863	-0.413745	-0.034094
H67	H	1.162746	-0.431133	-0.203095
H68	H	1.150584	-0.299103	-0.149454
H69	H	0.403044	-0.132538	-0.228313
C70	C	1.022439	-0.317558	0.082892
C71	C	0.954390	-0.398114	0.047403
H72	H	1.010999	-0.283383	0.136194
H73	H	1.030701	-0.241059	0.046873
H74	H	1.071766	-0.373613	0.089691
H75	H	0.905063	-0.342057	0.040599
H76	H	0.946118	-0.474625	0.083432
C77	C	0.960496	0.342630	0.370638
C78	C	0.990802	0.265796	0.305913
H79	H	0.933024	0.424498	0.347882
H80	H	1.006154	0.368304	0.410920
H81	H	0.921744	0.287197	0.396998
H82	H	1.029559	0.321225	0.279556
H83	H	0.945138	0.240123	0.265616
C84	C	0.809567	-0.552915	-0.001200
C85	C	0.827099	-0.602022	-0.079821
H86	H	0.756258	-0.587052	0.010241
H87	H	0.808782	-0.453627	-0.001596
H88	H	0.851767	-0.584785	0.041077
H89	H	0.784903	-0.570143	-0.122099
H90	H	0.827877	-0.701331	-0.079432
H91	H	1.103001	0.141189	0.327400
C92	C	0.819338	0.206527	0.350800
C93	C	0.849798	0.128382	0.286695
H94	H	0.789744	0.285840	0.327110
H95	H	0.865160	0.236404	0.389672
H96	H	0.782441	0.150336	0.379082
H97	H	0.886700	0.184571	0.258417
H98	H	0.803971	0.098507	0.247808
H99	H	1.102818	0.132309	0.471468
H100	H	0.859635	-0.094258	0.441349
H101	H	1.103923	-0.137829	0.328578
C102	C	0.964625	-0.346386	0.391832
C103	C	0.988947	-0.266974	0.464047
H104	H	0.937166	-0.429093	0.407084
H105	H	1.012982	-0.370644	0.365574
H106	H	0.927220	-0.293282	0.353870
H107	H	1.026357	-0.320075	0.502007
H108	H	0.940583	-0.242719	0.490318
H109	H	0.433157	0.094060	0.014865
C110	C	1.122978	-0.141356	0.570281
C111	C	1.124148	-0.141170	0.482881
H112	H	1.178992	-0.146402	0.597157
H113	H	1.091972	-0.219857	0.586086
H114	H	1.097187	-0.057919	0.586874
H115	H	1.149934	-0.224612	0.466287
H116	H	1.155166	-0.062661	0.467069
H117	H	0.577861	-0.095278	0.012275
H118	H	1.098984	-0.587231	-0.004873
H119	H	1.018974	-0.587720	-0.254255
H120	H	0.434220	-0.095851	0.015027
H121	H	0.859481	0.095647	0.440293
C122	C	0.818997	-0.205765	0.352011
C123	C	0.849492	-0.128817	0.287441
H124	H	0.789229	-0.285241	0.328781
H125	H	0.782261	-0.148900	0.380059
H126	H	0.864825	-0.235359	0.390977
H127	H	0.803663	-0.099214	0.248478
H128	H	0.886230	-0.185693	0.259379
H129	H	0.577298	0.095245	0.012521
H130	H	0.416851	0.232031	-0.125978
H131	H	1.005389	0.232062	0.460250
C132	C	0.452615	0.145730	-0.305835
C133	C	0.391615	0.140947	-0.249645
H134	H	0.425736	0.150792	-0.361847
H135	H	0.486341	0.063861	-0.299502
H136	H	0.487128	0.225798	-0.294269
H137	H	0.357106	0.060872	-0.261207
H138	H	0.357874	0.222824	-0.255982
C139	C	0.531571	-0.384303	-0.156604
C140	C	0.568604	-0.265997	-0.116290
H141	H	0.554324	-0.466167	-0.129126
H142	H	0.542776	-0.385143	-0.213660
H143	H	0.472498	-0.381842	-0.154353
H144	H	0.627677	-0.268453	-0.118547
H145	H	0.557406	-0.265158	-0.059220
H146	H	1.004347	-0.231696	0.314319
H147	H	0.547115	-0.141405	-0.228494
H148	H	0.545916	0.137614	-0.229420
