data_functionalizedCrystal
_audit_creation_method	'MofGen! by Chris Wilmer'
_symmetry_space_group_name_H-M	'P1'
_symmetry_Int_Tables_number	1
_symmetry_cell_setting	triclinic
loop_
_symmetry_equiv_pos_as_xyz
  x,y,z
_cell_length_a	14.044190
_cell_length_b	17.699083
_cell_length_c	16.176319
_cell_angle_alpha	90.001389
_cell_angle_beta	89.988653
_cell_angle_gamma	91.762604
loop_
_atom_site_label
_atom_site_type_symbol
_atom_site_fract_x
_atom_site_fract_y
_atom_site_fract_z
O1	O	0.119850	-1.012349	-0.068639
O2	O	0.135443	-0.793046	-0.068667
O3	O	-0.010330	-0.899403	-0.068637
O4	O	0.265624	-0.905992	-0.068669
O5	O	-0.010340	-0.899386	0.068856
O6	O	0.135434	-0.793030	0.068826
O7	O	0.119841	-1.012332	0.068854
Cu8	Cu	0.127637	-0.902679	0.081394
Cu9	Cu	0.127648	-0.902699	-0.081207
O10	O	0.265615	-0.905975	0.068824
C11	C	0.134880	-0.764802	0.000076
C12	C	0.133204	-0.680669	0.000066
C13	C	-0.045643	-0.896512	0.000111
C14	C	-0.150849	-0.887914	0.000117
C15	C	0.120405	-1.040576	0.000109
C16	C	0.122081	-1.124710	0.000114
C17	C	-0.401240	-0.933175	0.000091
C18	C	-0.343470	-0.872207	0.000089
C19	C	-0.236286	-0.880949	0.000105
C20	C	-0.508434	-0.924434	0.000075
C21	C	0.300927	-0.908866	0.000074
C22	C	0.406133	-0.917464	0.000062
N23	N	0.127628	-0.902671	0.195759
C24	C	0.218770	-0.637952	0.000056
C25	C	0.217189	-0.558900	0.000067
C26	C	0.130042	-0.522565	0.000082
C27	C	0.044469	-0.565288	0.000094
C28	C	0.046051	-0.644339	0.000089
C29	C	0.038089	-0.246485	0.000115
C30	C	0.036514	-0.167428	0.000117
C31	C	0.209227	-0.161045	0.000093
C32	C	0.210809	-0.240096	0.000088
C33	C	0.125237	-0.282812	0.000105
C34	C	0.126952	-0.368529	0.000095
C35	C	0.128326	-0.436849	0.000086
N36	N	0.127648	-0.902713	-0.195573
C37	C	0.063106	-0.949783	0.239037
C38	C	0.063105	-0.949787	0.325584
C39	C	0.127632	-0.902682	0.368852
C40	C	0.192157	-0.855565	0.325569
C41	C	0.192153	-0.855557	0.239023
C42	C	0.192175	-0.855592	0.674597
C43	C	0.192176	-0.855604	0.761148
C44	C	0.063127	-0.949821	0.761158
C45	C	0.063123	-0.949814	0.674612
C46	C	0.127644	-0.902694	0.631336
C47	C	0.127644	-0.902689	0.537492
C48	C	0.127638	-0.902690	0.462695
H49	H	-0.374510	-0.813446	0.000076
H50	H	-0.370201	-0.991931	0.000107
O51	O	0.312765	-0.677140	0.000049
H52	H	0.371998	-0.634152	0.000055
O53	O	-0.054202	-0.292553	0.000132
H54	H	-0.115063	-0.254004	0.000136
H55	H	0.281773	-0.269675	0.000073
H56	H	0.286866	-0.524123	0.000058
O57	O	0.261744	-0.804733	0.192353
H58	H	0.221893	-0.765253	0.152950
O59	O	-0.006486	-1.000613	0.627949
H60	H	0.004353	-0.992694	0.560498
O61	O	0.301529	-0.114975	0.000094
H62	H	0.285795	-0.053901	0.000112
O63	O	-0.006513	-1.000575	0.192377
H64	H	0.004319	-0.992656	0.124925
H65	H	-0.034456	-0.137847	0.000130
O66	O	-0.049530	-0.526105	0.000113
H67	H	-0.036257	-0.463959	0.000107
H68	H	0.244723	-0.817243	0.796376
O69	O	-0.006490	-1.000602	0.372258
H70	H	0.004342	-0.992688	0.439708
O71	O	-0.046237	-0.690418	0.000097
H72	H	-0.107103	-0.651873	0.000100
O73	O	-0.006477	-1.000639	0.807832
H74	H	0.004354	-0.992727	0.875282
O75	O	0.261771	-0.804780	0.627925
H76	H	0.306647	-0.772035	0.672554
O77	O	0.261761	-0.804760	0.372230
H78	H	0.250933	-0.812685	0.439682
