data_functionalizedCrystal
_audit_creation_method	'MofGen! by Chris Wilmer'
_symmetry_space_group_name_H-M	'P1'
_symmetry_Int_Tables_number	1
_symmetry_cell_setting	triclinic
loop_
_symmetry_equiv_pos_as_xyz
  x,y,z
_cell_length_a	25.639242
_cell_length_b	25.639239
_cell_length_c	12.759387
_cell_angle_alpha	89.963582
_cell_angle_beta	89.968335
_cell_angle_gamma	90.034213
loop_
_atom_site_label
_atom_site_type_symbol
_atom_site_fract_x
_atom_site_fract_y
_atom_site_fract_z
Zn1	Zn	0.799274	-0.208186	-0.594277
Zn2	Zn	1.132607	0.125148	-0.260943
Zn3	Zn	1.465941	0.458481	0.072390
Zn4	Zn	0.799183	-0.295631	-0.418580
Zn5	Zn	1.132516	0.037702	-0.085246
Zn6	Zn	1.465850	0.371035	0.248087
Zn7	Zn	0.711836	-0.208205	-0.418579
Zn8	Zn	1.045169	0.125128	-0.085246
Zn9	Zn	1.378503	0.458462	0.248087
Zn10	Zn	0.711796	-0.295585	-0.594185
Zn11	Zn	1.045129	0.037748	-0.260851
Zn12	Zn	1.378462	0.371082	0.072482
O13	O	0.755522	-0.251902	-0.506405
O14	O	1.088856	0.081432	-0.173072
O15	O	1.422189	0.414765	0.160262
O16	O	0.872427	-0.219797	-0.571009
O17	O	1.205761	0.113537	-0.237675
O18	O	1.539094	0.446870	0.095658
O19	O	0.787575	-0.284061	-0.271559
O20	O	1.120908	0.049272	0.061775
O21	O	1.454242	0.382605	0.395108
O22	O	0.723490	-0.135037	-0.441924
O23	O	1.056823	0.198296	-0.108591
O24	O	1.390156	0.531630	0.224742
O25	O	0.872360	-0.284043	-0.441925
O26	O	1.205694	0.049291	-0.108592
O27	O	1.539027	0.382624	0.224742
O28	O	0.787730	-0.135023	-0.571008
O29	O	1.121064	0.198310	-0.237675
O30	O	1.454397	0.531644	0.095658
O31	O	0.723402	-0.219830	-0.271558
O32	O	1.056735	0.113504	0.061775
O33	O	1.390068	0.446837	0.395109
O34	O	0.638665	-0.219785	-0.441835
O35	O	0.971999	0.113549	-0.108502
O36	O	1.305332	0.446882	0.224832
O37	O	0.723421	-0.283964	-0.741218
O38	O	1.056754	0.049370	-0.407885
O39	O	1.390088	0.382703	-0.074551
O40	O	0.638636	-0.283983	-0.570852
O41	O	0.971969	0.049351	-0.237518
O42	O	1.305302	0.382684	0.095815
O43	O	0.787691	-0.219752	-0.741286
O44	O	1.121024	0.113582	-0.407952
O45	O	1.454358	0.446915	-0.074619
O46	O	0.787536	-0.368790	-0.441836
O47	O	1.120869	-0.035457	-0.108503
O48	O	1.454203	0.297876	0.224831
O49	O	0.723333	-0.368756	-0.570852
O50	O	1.056666	-0.035423	-0.237519
O51	O	1.389999	0.297910	0.095815
C52	C	0.619680	-0.251881	-0.506334
C53	C	0.953013	0.081452	-0.173001
C54	C	1.286346	0.414786	0.160333
C55	C	0.561566	-0.251885	-0.506328
C56	C	0.894899	0.081448	-0.172995
C57	C	1.228232	0.414782	0.160338
C58	C	0.201196	-0.285385	-0.573520
C59	C	0.534529	0.047948	-0.240187
C60	C	0.867863	0.381281	0.093146
C61	C	0.146592	-0.285389	-0.573537
C62	C	0.479925	0.047945	-0.240204
C63	C	0.813258	0.381278	0.093130
O64	O	0.118349	-0.313846	-0.630606
O65	O	0.451683	0.019487	-0.297272
O66	O	0.785016	0.352820	0.036061
N67	N	0.119283	-0.251916	-0.506474
N68	N	0.452616	0.081417	-0.173140
N69	N	0.785950	0.414751	0.160193
C70	C	0.146582	-0.218434	-0.439397
C71	C	0.479915	0.114899	-0.106064
C72	C	0.813248	0.448232	0.227270
O73	O	0.118340	-0.189963	-0.382357
O74	O	0.451673	0.143370	-0.049023
O75	O	0.785006	0.476703	0.284310
C76	C	0.201185	-0.218429	-0.439386
C77	C	0.534518	0.114904	-0.106053
C78	C	0.867852	0.448238	0.227280
C79	C	0.228491	-0.251907	-0.506447
C80	C	0.561824	0.081426	-0.173113
C81	C	0.895157	0.414759	0.160220
C82	C	0.228502	-0.318861	-0.640576
C83	C	0.561835	0.014473	-0.307242
C84	C	0.895168	0.347806	0.026091
C85	C	0.283102	-0.318858	-0.640558
C86	C	0.616436	0.014475	-0.307224
C87	C	0.949769	0.347809	0.026109
C88	C	0.310397	-0.285380	-0.573484
C89	C	0.643730	0.047953	-0.240151
C90	C	0.977064	0.381287	0.093183
C91	C	0.283091	-0.251905	-0.506428
C92	C	0.616425	0.081429	-0.173095
C93	C	0.949758	0.414762	0.160238
C94	C	0.228483	-0.184945	-0.372316
C95	C	0.561816	0.148388	-0.038983
C96	C	0.895149	0.481721	0.294351
C97	C	0.283090	-0.184942	-0.372312
C98	C	0.616423	0.148391	-0.038978
C99	C	0.949756	0.481724	0.294355
C100	C	0.310395	-0.218421	-0.439372
C101	C	0.643729	0.114913	-0.106039
C102	C	0.977062	0.448246	0.227295
C103	C	0.364987	-0.218424	-0.439336
C104	C	0.698320	0.114909	-0.106003
C105	C	1.031653	0.448242	0.227330
N106	N	0.392295	-0.251897	-0.506400
N107	N	0.725628	0.081437	-0.173066
N108	N	1.058962	0.414770	0.160267
C109	C	0.365000	-0.285375	-0.573473
C110	C	0.698334	0.047959	-0.240140
C111	C	1.031667	0.381292	0.093193
C112	C	0.031911	-0.218448	-0.439425
C113	C	0.365244	0.114886	-0.106092
C114	C	0.698578	0.448219	0.227241
C115	C	-0.022691	-0.218455	-0.439430
C116	C	0.310642	0.114878	-0.106096
C117	C	0.643975	0.448211	0.227237
C118	C	-0.022678	-0.285409	-0.573571
C119	C	0.310656	0.047924	-0.240238
C120	C	0.643989	0.381258	0.093095
C121	C	0.031926	-0.285404	-0.573561
C122	C	0.365259	0.047930	-0.240228
C123	C	0.698592	0.381263	0.093106
C124	C	0.059220	-0.251920	-0.506489
C125	C	0.392553	0.081413	-0.173155
C126	C	0.725886	0.414746	0.160178
C127	C	0.479665	-0.285367	-0.573429
C128	C	0.812999	0.047966	-0.240096
C129	C	1.146332	0.381300	0.093237
C130	C	0.534271	-0.285363	-0.573402
C131	C	0.867604	0.047971	-0.240069
C132	C	1.200937	0.381304	0.093265
C133	C	0.534252	-0.218408	-0.439265
C134	C	0.867586	0.114926	-0.105932
C135	C	1.200919	0.448259	0.227402
C136	C	0.479652	-0.218413	-0.439288
C137	C	0.812985	0.114920	-0.105954
C138	C	1.146318	0.448253	0.227379
C139	C	0.452360	-0.251895	-0.506379
C140	C	0.785693	0.081439	-0.173045
C141	C	1.119026	0.414772	0.160288
O142	O	0.393264	-0.189980	-0.382300
O143	O	0.726597	0.143354	-0.048966
O144	O	1.059930	0.476687	0.284367
O145	O	0.393249	-0.313836	-0.630514
O146	O	0.726582	0.019497	-0.297181
O147	O	1.059916	0.352831	0.036153
C148	C	0.755434	-0.387744	-0.506357
C149	C	1.088768	-0.054411	-0.173024
C150	C	1.422101	0.278922	0.160310
C151	C	0.755444	-0.445858	-0.506372
C152	C	1.088778	-0.112525	-0.173038
C153	C	1.422111	0.220808	0.160295
C154	C	0.789040	-0.806226	-0.439341
C155	C	1.122373	-0.472893	-0.106008
C156	C	1.455707	-0.139560	0.227326
C157	C	0.789060	-0.860831	-0.439355
C158	C	1.122394	-0.527497	-0.106022
C159	C	1.455727	-0.194164	0.227312
O160	O	0.817533	-0.889072	-0.382310
O161	O	1.150867	-0.555739	-0.048977
O162	O	1.484200	-0.222405	0.284356
N163	N	0.755614	-0.888141	-0.506475
N164	N	1.088947	-0.554807	-0.173141
N165	N	1.422281	-0.221474	0.160192
C166	C	0.722149	-0.860843	-0.573592
C167	C	1.055482	-0.527510	-0.240259
C168	C	1.388816	-0.194177	0.093074
O169	O	0.693703	-0.889087	-0.630685
O170	O	1.027036	-0.555753	-0.297352
O171	O	1.360369	-0.222420	0.035982
C172	C	0.722132	-0.806240	-0.573583
C173	C	1.055465	-0.472907	-0.240250
C174	C	1.388799	-0.139574	0.093084
C175	C	0.755577	-0.778933	-0.506451
C176	C	1.088910	-0.445600	-0.173118
C177	C	1.422243	-0.112266	0.160216
C178	C	0.822482	-0.778919	-0.372216
C179	C	1.155816	-0.445586	-0.038882
C180	C	1.489149	-0.112253	0.294451
C181	C	0.822461	-0.724319	-0.372200
C182	C	1.155795	-0.390985	-0.038867
C183	C	1.489128	-0.057652	0.294466
C184	C	0.788998	-0.697025	-0.439311
C185	C	1.122331	-0.363692	-0.105977
C186	C	1.455665	-0.030359	0.227356
C187	C	0.755555	-0.724333	-0.506436
C188	C	1.088889	-0.390999	-0.173103
C189	C	1.422222	-0.057666	0.160231
C190	C	0.688670	-0.778944	-0.640705
C191	C	1.022003	-0.445611	-0.307372
C192	C	1.355337	-0.112277	0.025962
C193	C	0.688656	-0.724337	-0.640690
C194	C	1.021989	-0.391004	-0.307357
C195	C	1.355323	-0.057670	0.025976
C196	C	0.722101	-0.697030	-0.573559
C197	C	1.055434	-0.363697	-0.240225
C198	C	1.388767	-0.030363	0.093108
C199	C	0.722071	-0.642439	-0.573531
C200	C	1.055404	-0.309105	-0.240198
C201	C	1.388738	0.024228	0.093136
N202	N	0.755517	-0.615129	-0.506411
N203	N	1.088851	-0.281795	-0.173078
N204	N	1.422184	0.051538	0.160255
C205	C	0.788981	-0.642422	-0.439301
C206	C	1.122314	-0.309089	-0.105968
C207	C	1.455647	0.024245	0.227366
C208	C	0.722189	-0.975514	-0.573609
C209	C	1.055522	-0.642181	-0.240275
C210	C	1.388855	-0.308847	0.093058
C211	C	0.722203	-1.030116	-0.573614
C212	C	1.055536	-0.696783	-0.240280
C213	C	1.388869	-0.363450	0.093053
C214	C	0.789115	-1.030100	-0.439377
C215	C	1.122448	-0.696767	-0.106044
C216	C	1.455781	-0.363433	0.227289
C217	C	0.789098	-0.975497	-0.439368
C218	C	1.122431	-0.642163	-0.106034
C219	C	1.455764	-0.308830	0.227299
C220	C	0.755635	-0.948204	-0.506489
C221	C	1.088968	-0.614871	-0.173156
C222	C	1.422301	-0.281538	0.160178
C223	C	0.788934	-0.527757	-0.439274
C224	C	1.122267	-0.194424	-0.105940
C225	C	1.455600	0.138910	0.227393
C226	C	0.788908	-0.473152	-0.439261
C227	C	1.122241	-0.139818	-0.105928
C228	C	1.455575	0.193515	0.227405
C229	C	0.721998	-0.473173	-0.573501
C230	C	1.055331	-0.139840	-0.240168
C231	C	1.388665	0.193494	0.093166
C232	C	0.722021	-0.527774	-0.573510
C233	C	1.055355	-0.194440	-0.240177
C234	C	1.388688	0.138893	0.093157
C235	C	0.755493	-0.555064	-0.506393
C236	C	1.088827	-0.221731	-0.173059
C237	C	1.422160	0.111602	0.160274
O238	O	0.693614	-0.614163	-0.630550
O239	O	1.026947	-0.280830	-0.297216
O240	O	1.360281	0.052504	0.036117
O241	O	0.817427	-0.614172	-0.382228
O242	O	1.150760	-0.280839	-0.048894
O243	O	1.484094	0.052494	0.284439
C244	C	0.891895	-0.251923	-0.506477
C245	C	1.225228	0.081411	-0.173144
C246	C	1.558562	0.414744	0.160189
C247	C	0.950009	-0.251932	-0.506508
C248	C	1.283343	0.081402	-0.173175
C249	C	1.616676	0.414735	0.160159
C250	C	0.755562	-0.251850	-0.780439
C251	C	1.088895	0.081483	-0.447105
C252	C	1.422228	0.414816	-0.113772
C253	C	0.755579	-0.251829	-0.897216
C254	C	1.088912	0.081505	-0.563882
C255	C	1.422245	0.414838	-0.230549
C256	C	0.755625	-0.115529	-0.506476
C257	C	1.088958	0.217805	-0.173143
C258	C	1.422291	0.551138	0.160190
C259	C	0.755668	-0.057415	-0.506507
C260	C	1.089002	0.275919	-0.173173
C261	C	1.422335	0.609252	0.160160
C262	C	0.822508	-0.184969	-0.897306
C263	C	1.155841	0.148364	-0.563972
C264	C	1.489174	0.481698	-0.230639
C265	C	0.855979	-0.151531	-0.952212
C266	C	1.189313	0.181802	-0.618878
C267	C	1.522646	0.515135	-0.285545
C268	C	0.855992	-0.151512	-1.061933
C269	C	1.189325	0.181821	-0.728600
C270	C	1.522659	0.515154	-0.395267
C271	C	0.822528	-0.184933	-1.116752
C272	C	1.155862	0.148400	-0.783418
C273	C	1.489195	0.481733	-0.450085
C274	C	0.789056	-0.218371	-1.061846
C275	C	1.122390	0.114962	-0.728512
C276	C	1.455723	0.448296	-0.395179
C277	C	0.789048	-0.218388	-0.952121
C278	C	1.122382	0.114946	-0.618788
C279	C	1.455715	0.448279	-0.285455
C280	C	0.722126	-0.285227	-1.061756
C281	C	1.055459	0.048106	-0.728422
C282	C	1.388792	0.381440	-0.395089
C283	C	0.722115	-0.285250	-0.952034
C284	C	1.055448	0.048084	-0.618701
C285	C	1.388781	0.381417	-0.285367
C286	C	0.688662	-0.318648	-1.116574
C287	C	1.021995	0.014685	-0.783241
C288	C	1.355328	0.348019	-0.449907
C289	C	0.655192	-0.352089	-1.061668
C290	C	0.988525	-0.018756	-0.728335
C291	C	1.321859	0.314577	-0.395001
C292	C	0.655181	-0.352107	-0.951940
C293	C	0.988514	-0.018774	-0.618606
C294	C	1.321848	0.314559	-0.285273
C295	C	0.688643	-0.318687	-0.897128
C296	C	1.021976	0.014646	-0.563795
C297	C	1.355310	0.347979	-0.230461
C298	C	0.755513	-0.251915	-0.233438
C299	C	1.088846	0.081418	0.099896
C300	C	1.422180	0.414752	0.433229
C301	C	0.755597	-0.251790	-0.116661
C302	C	1.088931	0.081544	0.216672
C303	C	1.422264	0.414877	0.550005
H304	H	-0.044911	-0.312667	-0.628190
H305	H	0.288422	0.020666	-0.294857
H306	H	0.621756	0.354000	0.038477
Br307	Br	0.571325	-0.330803	-0.664414
Br308	Br	0.904659	0.002530	-0.331080
Br309	Br	1.237992	0.335864	0.002253
H310	H	0.816191	-0.549971	-0.384623
H311	H	1.149524	-0.216637	-0.051289
H312	H	1.482857	0.116696	0.282044
H313	H	0.457418	-0.191154	-0.384680
H314	H	0.790752	0.142180	-0.051347
H315	H	1.124085	0.475513	0.281987
Br316	Br	0.834299	-0.436095	-0.348146
Br317	Br	1.167633	-0.102762	-0.014812
Br318	Br	1.500966	0.230571	0.318521
Br319	Br	0.676588	-0.436121	-0.664579
Br320	Br	1.009921	-0.102788	-0.331246
Br321	Br	1.343254	0.230545	0.002088
Br322	Br	0.901408	-0.106123	-1.136453
Br323	Br	1.234741	0.227211	-0.803120
Br324	Br	1.568074	0.560544	-0.469786
H325	H	0.849696	-0.702088	-0.317539
H326	H	1.183030	-0.368755	0.015794
H327	H	1.516363	-0.035422	0.349127
Br328	Br	0.901377	-0.106161	-0.877812
Br329	Br	1.234710	0.227172	-0.544479
Br330	Br	1.568044	0.560505	-0.211146
H331	H	0.305330	-0.346118	-0.695167
H332	H	0.638663	-0.012785	-0.361834
H333	H	0.971996	0.320548	-0.028500
H334	H	0.627918	-0.379331	-0.907242
H335	H	0.961252	-0.045997	-0.573908
H336	H	1.294585	0.287336	-0.240575
Br337	Br	0.643241	-0.687300	-0.731793
Br338	Br	0.976575	-0.353967	-0.398459
Br339	Br	1.309908	-0.020634	-0.065126
Br340	Br	0.676619	-0.564835	-0.664592
Br341	Br	1.009953	-0.231501	-0.331259
Br342	Br	1.343286	0.101832	0.002075
Br343	Br	0.867905	-0.815950	-0.281127
Br344	Br	1.201238	-0.482617	0.052206
Br345	Br	1.534571	-0.149283	0.385540
Br346	Br	0.609777	-0.397437	-1.136068
Br347	Br	0.943111	-0.064104	-0.802734
Br348	Br	1.276444	0.269230	-0.469401
H349	H	0.661433	-0.801168	-0.695366
H350	H	0.994766	-0.467835	-0.362033
H351	H	1.328100	-0.134501	-0.028699
H352	H	0.694935	-0.953295	-0.628264
H353	H	1.028268	-0.619962	-0.294930
H354	H	1.361601	-0.286629	0.038403
H355	H	0.206260	-0.157685	-0.317705
H356	H	0.539593	0.175648	0.015628
H357	H	0.872926	0.508982	0.348961
H358	H	0.822537	-0.184910	-1.206093
H359	H	1.155871	0.148423	-0.872759
H360	H	1.489204	0.481756	-0.539426
Br361	Br	0.834488	-0.938443	-0.348257
Br362	Br	1.167821	-0.605109	-0.014923
Br363	Br	1.501154	-0.271776	0.318410
Br364	Br	0.688677	-0.318622	-1.265483
Br365	Br	1.022011	0.014711	-0.932150
Br366	Br	1.355344	0.348045	-0.598816
H367	H	0.457451	-0.312629	-0.628063
H368	H	0.790784	0.020704	-0.294730
H369	H	1.124117	0.354037	0.038603
Br370	Br	0.191469	-0.364301	-0.731618
Br371	Br	0.524802	-0.030967	-0.398285
Br372	Br	0.858136	0.302366	-0.064952
H373	H	0.816364	-1.052332	-0.384736
H374	H	1.149698	-0.718999	-0.051403
H375	H	1.483031	-0.385665	0.281931
Br376	Br	0.688634	-0.318713	-0.748219
Br377	Br	1.021968	0.014621	-0.414885
Br378	Br	1.355301	0.347954	-0.081552
H379	H	0.822505	-0.184986	-0.807964
H380	H	1.155839	0.148347	-0.474631
H381	H	1.489172	0.481681	-0.141298
H382	H	0.054154	-0.312664	-0.628169
H383	H	0.387488	0.020669	-0.294836
H384	H	0.720821	0.354003	0.038498
Br385	Br	-0.059742	-0.173027	-0.348399
Br386	Br	0.273591	0.160306	-0.015066
Br387	Br	0.606924	0.493640	0.318267
Br388	Br	0.068947	-0.173005	-0.348384
Br389	Br	0.402281	0.160329	-0.015050
Br390	Br	0.735614	0.493662	0.318283
H391	H	0.305310	-0.157672	-0.317698
H392	H	0.638643	0.175661	0.015635
H393	H	0.971976	0.508994	0.348968
Br394	Br	0.676804	-1.067169	-0.664709
Br395	Br	1.010137	-0.733836	-0.331376
Br396	Br	1.343471	-0.400503	0.001958
H397	H	0.556486	-0.191152	-0.384652
H398	H	0.889819	0.142181	-0.051318
H399	H	1.223152	0.475514	0.282015
