data_functionalizedCrystal
_audit_creation_method	'MofGen! by Chris Wilmer'
_symmetry_space_group_name_H-M	'P1'
_symmetry_Int_Tables_number	1
_symmetry_cell_setting	triclinic
loop_
_symmetry_equiv_pos_as_xyz
  x,y,z
_cell_length_a	12.759401
_cell_length_b	13.031981
_cell_length_c	13.032268
_cell_angle_alpha	89.068348
_cell_angle_beta	97.165299
_cell_angle_gamma	97.192388
loop_
_atom_site_label
_atom_site_type_symbol
_atom_site_fract_x
_atom_site_fract_y
_atom_site_fract_z
Zn1	Zn	1.476930	-0.483306	-0.529354
Zn2	Zn	1.976930	0.016694	-0.029354
Zn3	Zn	1.482416	-0.633494	-0.335525
Zn4	Zn	1.982416	-0.133494	0.164475
Zn5	Zn	1.325982	-0.461513	-0.357407
Zn6	Zn	1.825982	0.038487	0.142593
Zn7	Zn	1.282068	-0.655260	-0.507456
Zn8	Zn	1.782068	-0.155260	-0.007456
O9	O	1.391849	-0.558393	-0.432435
O10	O	1.891849	-0.058393	0.067565
O11	O	1.624676	-0.503240	-0.503649
O12	O	2.124676	-0.003240	-0.003649
O13	O	1.482339	-0.592450	-0.194513
O14	O	1.982339	-0.092450	0.305487
O15	O	1.362087	-0.320466	-0.398538
O16	O	1.862087	0.179534	0.101462
O17	O	1.628707	-0.613582	-0.361244
O18	O	2.128707	-0.113582	0.138756
O19	O	1.472988	-0.336478	-0.524867
O20	O	1.972988	0.163522	-0.024867
O21	O	1.367407	-0.466097	-0.210590
O22	O	1.867407	0.033903	0.289410
O23	O	1.173138	-0.487203	-0.377304
O24	O	1.673138	0.012797	0.122696
O25	O	1.287243	-0.650680	-0.654274
O26	O	1.787243	-0.150680	-0.154274
O27	O	1.140874	-0.629548	-0.487544
O28	O	1.640874	-0.129548	0.012456
O29	O	1.430407	-0.524346	-0.670363
O30	O	1.930407	-0.024346	-0.170363
O31	O	1.439757	-0.780319	-0.340010
O32	O	1.939757	-0.280319	0.159990
O33	O	1.292562	-0.796311	-0.466326
O34	O	1.792562	-0.296311	0.033674
C35	C	1.118886	-0.558374	-0.432423
C36	C	1.618886	-0.058374	0.067577
C37	C	1.002104	-0.558393	-0.432439
C38	C	1.502104	-0.058393	0.067561
C39	C	0.945116	-0.501070	-0.506676
C40	C	1.445116	-0.001070	-0.006676
C41	C	0.835390	-0.501081	-0.506681
C42	C	1.335390	-0.001081	-0.006681
C43	C	0.839649	-0.615748	-0.358209
C44	C	1.339649	-0.115748	0.141791
C45	C	0.949375	-0.615730	-0.358200
C46	C	1.449375	-0.115730	0.141800
C47	C	1.362015	-0.825639	-0.398440
C48	C	1.862015	-0.325639	0.101560
C49	C	1.349343	-0.939972	-0.383930
C50	C	1.849343	-0.439972	0.116070
C51	C	1.398515	-0.998792	-0.440028
C52	C	1.898515	-0.498792	0.059972
C53	C	1.385420	-1.116961	-0.425034
C54	C	1.885420	-0.616961	0.074966
C55	C	1.665878	-0.558414	-0.432448
C56	C	2.165878	-0.058414	0.067552
C57	C	1.782653	-0.558423	-0.432454
C58	C	2.282653	-0.058423	0.067546
C59	C	1.353314	-0.592372	-0.700677
C60	C	1.853314	-0.092372	-0.200677
C61	C	1.336893	-0.606851	-0.814986
C62	C	1.836893	-0.106851	-0.314986
C63	C	1.421824	-0.290107	-0.466586
C64	C	1.921824	0.209893	0.033414
C65	C	1.434598	-0.175779	-0.481139
C66	C	1.934598	0.324221	0.018861
C67	C	1.400407	-0.550799	-0.873909
C68	C	1.900407	-0.050799	-0.373909
C69	C	1.383437	-0.565763	-0.992054
C70	C	1.883437	-0.065763	-0.492054
C71	C	1.430302	-0.524473	-0.165246
C72	C	1.930302	-0.024473	0.334754
C73	C	1.446959	-0.509704	-0.050975
C74	C	1.946959	-0.009704	0.449025
H75	H	0.796703	-0.662430	-0.297767
H76	H	1.296703	-0.162430	0.202233
F77	F	1.534472	-0.432503	-1.002598
F78	F	2.034472	0.067497	-0.502598
H79	H	1.333617	-1.154084	-0.365906
H80	H	1.833617	-0.654084	0.134094
F81	F	1.281639	-0.988494	-0.306649
F82	F	1.781639	-0.488494	0.193351
H83	H	1.316486	-0.624827	-1.029070
H84	H	1.816486	-0.124827	-0.529070
F85	F	1.001233	-0.440044	-0.585685
F86	F	1.501233	0.059956	-0.085685
F87	F	1.249391	-0.684052	-0.863369
F88	F	1.749391	-0.184052	-0.363369
H89	H	0.995776	-0.662410	-0.297742
H90	H	1.495776	-0.162410	0.202258
F91	F	1.466203	-0.950272	-0.517325
F92	F	1.966203	-0.450272	-0.017325
F93	F	1.502300	-1.127265	-0.558432
F94	F	2.002300	-0.627265	-0.058432
H95	H	0.788996	-0.454401	-0.567131
H96	H	1.288996	0.045599	-0.067131
H97	H	1.467344	-0.491729	-0.836890
H98	H	1.967344	0.008271	-0.336890
