data_functionalizedCrystal
_audit_creation_method	'MofGen! by Chris Wilmer'
_symmetry_space_group_name_H-M	'P1'
_symmetry_Int_Tables_number	1
_symmetry_cell_setting	triclinic
loop_
_symmetry_equiv_pos_as_xyz
  x,y,z
_cell_length_a	8.559649
_cell_length_b	15.186229
_cell_length_c	16.109304
_cell_angle_alpha	89.999066
_cell_angle_beta	76.620651
_cell_angle_gamma	89.996971
loop_
_atom_site_label
_atom_site_type_symbol
_atom_site_fract_x
_atom_site_fract_y
_atom_site_fract_z
O1	O	2.120140	-0.073215	-0.028207
O2	O	1.654914	-0.073218	0.014732
O3	O	1.900305	-0.073217	-0.128582
O4	O	1.874749	-0.073216	0.115107
O5	O	1.900288	0.073240	-0.128583
O6	O	1.654898	0.073239	0.014731
O7	O	2.120123	0.073242	-0.028208
Zn8	Zn	1.887508	0.096494	-0.006738
Zn9	Zn	1.887530	-0.096470	-0.006737
O10	O	1.874733	0.073241	0.115107
C11	C	1.595375	0.000010	0.017985
C12	C	1.417990	0.000009	0.027671
N13	N	1.887505	0.228187	-0.006740
N14	N	1.887545	-0.228162	-0.006743
C15	C	2.179663	0.000012	-0.031461
C16	C	2.357048	0.000007	-0.041147
C17	C	1.899261	0.000010	-0.159492
C18	C	1.896155	0.000004	-0.251589
C19	C	1.996201	0.453910	-0.070183
C20	C	1.996206	0.546100	-0.070185
C21	C	1.778838	0.546108	0.056703
C22	C	1.778826	0.453920	0.056701
C23	C	1.887517	0.407823	-0.006741
C24	C	1.887533	0.592201	-0.006742
C25	C	1.887538	0.692157	-0.006744
C26	C	1.887511	0.307861	-0.006741
C27	C	1.888988	-0.079827	-0.463469
C28	C	1.886055	-0.079826	-0.550002
C29	C	1.886045	0.079850	-0.550000
C30	C	1.888967	0.079848	-0.463467
C31	C	1.890446	0.000007	-0.420205
C32	C	1.884592	0.000009	-0.593271
C33	C	1.881411	0.000011	-0.687094
C34	C	1.893623	0.000005	-0.326375
C35	C	1.875777	0.000013	0.146016
C36	C	1.878883	0.000013	0.238113
H37	H	1.440578	0.000003	-0.107476
Br38	Br	1.890919	0.188202	-0.404742
H39	H	1.884844	0.144853	-0.585236
H40	H	1.690347	0.583649	0.108358
Br41	Br	1.278765	-0.000003	0.138233
H42	H	1.884864	-0.144835	-0.585223
H43	H	2.084701	0.416380	-0.121843
H44	H	2.084704	0.583621	-0.121846
Br45	Br	1.631304	0.391366	0.142801
H46	H	1.890188	-0.144839	-0.428246
