data_functionalizedCrystal
_audit_creation_method	'MofGen! by Chris Wilmer'
_symmetry_space_group_name_H-M	'P1'
_symmetry_Int_Tables_number	1
_symmetry_cell_setting	triclinic
loop_
_symmetry_equiv_pos_as_xyz
  x,y,z
_cell_length_a	6.817900
_cell_length_b	15.301126
_cell_length_c	19.453114
_cell_angle_alpha	95.677656
_cell_angle_beta	101.709288
_cell_angle_gamma	104.177575
loop_
_atom_site_label
_atom_site_type_symbol
_atom_site_fract_x
_atom_site_fract_y
_atom_site_fract_z
V1	V	-4.010329	-0.125699	-0.219214
O2	O	-3.994600	0.005074	-0.214821
O3	O	-3.965377	-0.248310	-0.217926
O4	O	-3.953201	-0.124189	-0.314724
O5	O	-4.006860	-0.119906	-0.117353
V6	V	-4.494641	-0.110007	-0.207005
O7	O	-4.269856	-0.160120	-0.245996
O8	O	-4.685310	-0.075585	-0.180223
O9	O	-4.316386	0.012605	-0.208293
O10	O	-4.627766	-0.240779	-0.211398
O11	O	-4.615506	-0.115799	-0.308866
O12	O	-4.328561	-0.111516	-0.111495
C13	C	-3.811499	-0.278187	-0.214522
C14	C	-3.855974	-0.378426	-0.214106
C15	C	-4.058785	-0.430126	-0.217422
C16	C	-4.100564	-0.524312	-0.217035
C17	C	-3.939527	-0.566795	-0.213327
C18	C	-3.736701	-0.515088	-0.210013
C19	C	-3.694927	-0.420905	-0.210405
C20	C	-3.823783	-0.711395	-0.209194
C21	C	-3.865558	-0.805585	-0.208800
C22	C	-4.229420	-0.814802	-0.215823
C23	C	-4.187646	-0.720619	-0.216215
C24	C	-3.984821	-0.668919	-0.212900
C25	C	-3.795967	-0.119857	-0.337997
C26	C	-3.830565	-0.119434	-0.416079
C27	C	-4.028729	-0.123761	-0.456344
C28	C	-4.061238	-0.123364	-0.529710
C29	C	-3.895581	-0.118657	-0.562811
C30	C	-3.697387	-0.114324	-0.522536
C31	C	-3.664879	-0.114713	-0.449170
N32	N	-3.837177	-0.166278	-0.681681
N33	N	-3.868072	-0.165911	-0.751376
C34	C	-3.993515	-0.117485	-0.783857
N35	N	-4.086932	-0.069452	-0.744012
N36	N	-4.056042	-0.069823	-0.674311
C37	C	-3.930810	-0.118235	-0.642363
C38	C	-4.226941	-0.121381	-0.903673
C39	C	-4.259440	-0.120978	-0.977040
C40	C	-3.895588	-0.111947	-0.969866
C41	C	-3.863089	-0.112341	-0.896500
C42	C	-4.028776	-0.117062	-0.863408
C43	C	-4.133606	0.042477	-0.211695
C44	C	-4.068369	0.142715	-0.212116
C45	C	-4.149138	-0.115851	-0.088218
C46	C	-4.093778	-0.116269	-0.010136
H47	H	-4.189922	-0.395543	-0.220434
F48	F	-3.565316	-0.560305	-0.206071
F49	F	-4.316420	-0.579331	-0.220563
H50	H	-4.318778	-0.686032	-0.219231
H51	H	-3.760702	-0.108107	-0.996815
F52	F	-4.445286	-0.869828	-0.219356
H53	H	-4.222615	-0.126893	-0.562500
F54	F	-4.470362	-0.125582	-1.019893
F55	F	-3.479071	-0.365882	-0.206879
F56	F	-3.607916	-0.656374	-0.205669
F57	F	-3.694170	-0.850799	-0.204867
H58	H	-3.701729	-0.108827	-0.863717
F59	F	-3.521083	-0.109313	-0.557765
F60	F	-3.453959	-0.110109	-0.406317
F61	F	-4.403271	-0.126400	-0.868452
F62	F	-4.205068	-0.128782	-0.421129
