data_functionalizedCrystal
_audit_creation_method	'MofGen! by Chris Wilmer'
_symmetry_space_group_name_H-M	'P1'
_symmetry_Int_Tables_number	1
_symmetry_cell_setting	triclinic
loop_
_symmetry_equiv_pos_as_xyz
  x,y,z
_cell_length_a	18.215407
_cell_length_b	19.121063
_cell_length_c	18.215399
_cell_angle_alpha	87.590157
_cell_angle_beta	90.016899
_cell_angle_gamma	92.466335
loop_
_atom_site_label
_atom_site_type_symbol
_atom_site_fract_x
_atom_site_fract_y
_atom_site_fract_z
Zn1	Zn	1.112557	-0.279668	0.428541
Zn2	Zn	1.107209	-0.397123	0.310718
Zn3	Zn	0.989489	-0.279685	0.305496
Zn4	Zn	0.984201	-0.397078	0.433747
O5	O	1.048364	-0.338389	0.369626
O6	O	1.214831	-0.295261	0.412919
O7	O	1.091568	-0.381571	0.207042
O8	O	1.010265	-0.181399	0.317454
O9	O	1.210902	-0.381554	0.326354
O10	O	1.100682	-0.181386	0.407855
O11	O	1.005079	-0.295290	0.203205
O12	O	0.885803	-0.295246	0.322502
O13	O	1.001253	-0.381477	0.536040
O14	O	0.881919	-0.381494	0.416727
O15	O	1.095555	-0.295217	0.532215
O16	O	1.086441	-0.495402	0.331402
O17	O	0.996067	-0.495368	0.421791
C18	C	0.857159	-0.338367	0.369613
C19	C	0.775359	-0.338375	0.369626
C20	C	0.508294	-0.383372	0.418628
C21	C	0.585153	-0.383366	0.418624
C22	C	0.589174	-0.293421	0.320637
C23	C	0.512316	-0.293431	0.320638
C24	C	0.471878	-0.338406	0.369637
C25	C	0.625595	-0.338390	0.369633
C26	C	0.708929	-0.338383	0.369628
C27	C	0.388539	-0.338414	0.369641
C28	C	1.040120	-0.520869	0.377744
C29	C	1.036661	-0.598935	0.381242
C30	C	1.082125	-0.635604	0.335863
C31	C	1.078876	-0.708956	0.339157
C32	C	1.030158	-0.745636	0.387826
C33	C	0.984692	-0.708961	0.433210
C34	C	0.987946	-0.635611	0.429919
C35	C	1.017983	-0.967105	0.400118
C36	C	1.014731	-1.040460	0.403404
C37	C	1.108916	-1.040450	0.309352
C38	C	1.112162	-0.967098	0.306062
C39	C	1.066699	-0.930430	0.351448
C40	C	1.026834	-0.820613	0.391193
C41	C	1.070027	-0.855455	0.348085
C42	C	1.240316	-0.338411	0.369638
C43	C	1.322114	-0.338420	0.369644
C44	C	1.048411	-0.338340	0.561576
C45	C	1.048431	-0.338320	0.643374
C46	C	1.056660	-0.155196	0.361492
C47	C	1.060195	-0.077130	0.358025
C48	C	1.048362	-0.338386	0.178419
C49	C	1.048493	-0.338209	0.096613
C50	C	1.097553	-0.293362	0.829576
C51	C	1.097563	-0.293341	0.906434
C52	C	0.999366	-0.383169	0.910406
C53	C	0.999353	-0.383185	0.833549
C54	C	1.048451	-0.338283	0.793136
C55	C	1.048473	-0.338246	0.946851
C56	C	1.048483	-0.338224	1.030184
C57	C	1.048440	-0.338304	0.709798
H58	H	0.614800	-0.419982	0.458516
F59	F	1.149805	-0.245571	0.786569
F60	F	1.133972	-0.596573	0.284058
F61	F	0.465260	-0.431239	0.470775
F62	F	0.947118	-0.430957	0.953422
H63	H	0.980963	-0.937256	0.437072
H64	H	0.622108	-0.256804	0.280745
H65	H	0.482666	-0.256814	0.280741
F66	F	1.127267	-0.747979	0.290861
F67	F	0.939559	-0.596585	0.478219
H68	H	0.975068	-1.070323	0.443049
H69	H	0.959363	-0.419765	0.803879
H70	H	1.151831	-0.937235	0.266432
F71	F	1.121877	-0.816416	0.296293
H72	H	0.945029	-0.738832	0.472841
H73	H	1.137545	-0.256761	0.936100
F74	F	0.974986	-0.859657	0.442988
F75	F	1.157300	-1.079480	0.261055
