data_functionalizedCrystal
_audit_creation_method	'MofGen! by Chris Wilmer'
_symmetry_space_group_name_H-M	'P1'
_symmetry_Int_Tables_number	1
_symmetry_cell_setting	triclinic
loop_
_symmetry_equiv_pos_as_xyz
  x,y,z
_cell_length_a	15.944551
_cell_length_b	15.944551
_cell_length_c	17.766277
_cell_angle_alpha	89.992686
_cell_angle_beta	89.995130
_cell_angle_gamma	83.498738
loop_
_atom_site_label
_atom_site_type_symbol
_atom_site_fract_x
_atom_site_fract_y
_atom_site_fract_z
O1	O	1.114530	0.108333	-0.062517
O2	O	1.614530	0.608333	0.437483
O3	O	0.869980	0.121690	-0.062536
O4	O	1.369980	0.621690	0.437464
O5	O	0.998933	-0.007263	-0.062520
O6	O	1.498933	0.492737	0.437480
O7	O	0.985577	0.237286	-0.062534
O8	O	1.485577	0.737286	0.437466
O9	O	0.998911	-0.007270	0.062669
O10	O	1.498911	0.492730	0.562669
O11	O	0.869958	0.121683	0.062652
O12	O	1.369958	0.621683	0.562652
O13	O	1.114507	0.108327	0.062671
O14	O	1.614507	0.608327	0.562671
Cu15	Cu	0.992230	0.115004	0.074092
Cu16	Cu	1.492230	0.615004	0.574092
Cu17	Cu	0.992257	0.115012	-0.073958
Cu18	Cu	1.492257	0.615012	0.426042
O19	O	0.985554	0.237280	0.062654
O20	O	1.485554	0.737280	0.562654
C21	C	0.838675	0.121132	0.000056
C22	C	1.338675	0.621132	0.500056
C23	C	0.745429	0.119470	0.000049
C24	C	1.245429	0.619470	0.500049
C25	C	0.998367	-0.038561	0.000075
C26	C	1.498367	0.461439	0.500075
C27	C	0.996705	-0.131807	0.000075
C28	C	1.496705	0.368193	0.500075
C29	C	0.530572	0.035565	0.000068
C30	C	1.030572	0.535565	0.500068
C31	C	0.469563	0.074531	-0.061659
C32	C	0.969563	0.574531	0.438341
C33	C	0.574703	0.116462	0.000058
C34	C	1.074703	0.616462	0.500058
C35	C	0.469563	0.074543	0.061767
C36	C	0.969563	0.574543	0.561767
C37	C	0.409790	0.113551	0.000070
C38	C	0.909790	0.613551	0.500070
C39	C	0.514922	0.155450	-0.061720
C40	C	1.014922	0.655450	0.438280
C41	C	0.514929	0.155451	0.061761
C42	C	1.014929	0.655451	0.561761
C43	C	0.453937	0.194476	0.000019
C44	C	0.953937	0.694476	0.500019
C45	C	0.669705	0.118137	0.000050
C46	C	1.169705	0.618137	0.500050
C47	C	0.314789	0.111883	0.000072
C48	C	0.814789	0.611883	0.500072
C49	C	0.912801	-0.346663	0.000058
C50	C	1.412801	0.153337	0.500058
C51	C	0.951752	-0.407684	0.061787
C52	C	1.451752	0.092316	0.561787
C53	C	0.993698	-0.302533	0.000069
C54	C	1.493698	0.197467	0.500069
C55	C	0.951793	-0.407661	-0.061639
C56	C	1.451793	0.092339	0.438361
C57	C	0.990787	-0.467445	0.000060
C58	C	1.490787	0.032555	0.500060
C59	C	1.032671	-0.362325	0.061849
C60	C	1.532671	0.137675	0.561849
C61	C	1.032701	-0.362295	-0.061633
C62	C	1.532701	0.137705	0.438367
C63	C	1.071711	-0.423298	0.000111
C64	C	1.571711	0.076702	0.500111
C65	C	0.995372	-0.207530	0.000075
C66	C	1.495372	0.292470	0.500075
C67	C	0.989119	-0.562446	0.000060
C68	C	1.489119	-0.062446	0.500060
C69	C	1.145813	0.108885	0.000078
C70	C	1.645813	0.608885	0.500078
C71	C	1.239059	0.110547	0.000080
C72	C	1.739059	0.610547	0.500080
C73	C	0.986120	0.268577	0.000058
C74	C	1.486120	0.768577	0.500058
C75	C	0.987782	0.361823	0.000053
C76	C	1.487782	0.861823	0.500053
N77	N	0.992218	0.114998	0.178223
N78	N	1.492218	0.614998	0.678223
N79	N	0.992277	0.115011	-0.178088
N80	N	1.492277	0.615011	0.321912
C81	C	1.049336	0.057926	0.217617
C82	C	1.549336	0.557926	0.717617
C83	C	1.049341	0.057922	0.296419
C84	C	1.549341	0.557922	0.796419
C85	C	0.992235	0.115005	0.335823
C86	C	1.492235	0.615005	0.835823
C87	C	0.935106	0.172082	0.296419
C88	C	1.435106	0.672082	0.796419
C89	C	0.935097	0.172078	0.217619
C90	C	1.435097	0.672078	0.717619
C91	C	0.981234	0.191503	0.460656
C92	C	1.481234	0.691503	0.960656
C93	C	0.981249	0.191508	0.539455
C94	C	1.481249	0.691508	1.039455
C95	C	0.992258	0.115015	0.578870
C96	C	1.492258	0.615015	1.078870
C97	C	1.003270	0.038515	0.539476
C98	C	1.503270	0.538515	1.039476
C99	C	1.003261	0.038511	0.460675
C100	C	1.503261	0.538511	0.960675
C101	C	0.992238	0.115015	0.421269
C102	C	1.492238	0.615015	0.921269
C103	C	1.049385	0.057934	0.703710
C104	C	1.549385	0.557934	1.203710
C105	C	1.049384	0.057929	0.782513
C106	C	1.549384	0.557929	1.282513
C107	C	0.935152	0.172096	0.782512
C108	C	1.435152	0.672096	1.282512
C109	C	0.935149	0.172093	0.703711
C110	C	1.435149	0.672093	1.203711
C111	C	0.992270	0.115013	0.664314
C112	C	1.492270	0.615013	1.164314
H113	H	0.563905	-0.031573	-0.000004
H114	H	1.063905	0.468427	0.499996
F115	F	0.969577	0.272925	0.418716
F116	F	1.469577	0.772925	0.918716
F117	F	1.110176	-0.002822	0.824441
F118	F	1.610176	0.497178	1.324441
F119	F	0.874371	0.232842	0.824446
F120	F	1.374371	0.732842	1.324446
H121	H	0.449468	0.040310	0.113951
H122	H	0.949468	0.540310	0.613951
H123	H	1.095894	0.011453	0.671632
H124	H	1.595894	0.511453	1.171632
F125	F	0.825033	-0.303129	0.000128
F126	F	1.325033	0.196871	0.500128
F127	F	0.907019	-0.433971	0.129992
F128	F	1.407019	0.066029	0.629992
H129	H	0.534919	0.189643	-0.113962
H130	H	1.034919	0.689643	0.386038
H131	H	0.888608	0.218558	0.328506
H132	H	1.388608	0.718558	0.828506
H133	H	0.888641	0.218570	0.671633
H134	H	1.388641	0.718570	1.171633
H135	H	1.138919	-0.456457	0.000151
H136	H	1.638919	0.043543	0.500151
F137	F	0.874301	0.232825	0.175691
F138	F	1.374301	0.732825	0.675691
F139	F	1.110138	-0.002825	0.338352
F140	F	1.610138	0.497175	0.838352
F141	F	1.077400	-0.335978	-0.129841
F142	F	1.577400	0.164022	0.370159
F143	F	0.907064	-0.433917	-0.129846
F144	F	1.407064	0.066083	0.370154
F145	F	0.443291	0.029814	-0.129866
F146	F	0.943291	0.529814	0.370134
H147	H	0.972287	0.253799	0.571524
H148	H	1.472287	0.753799	1.071524
F149	F	0.541232	0.200134	0.129970
F150	F	1.041232	0.700134	0.629970
F151	F	0.410594	0.282319	-0.000029
F152	F	0.910594	0.782319	0.499971
H153	H	1.066849	-0.342337	0.114093
H154	H	1.566849	0.157663	0.614093
H155	H	1.012225	-0.023778	0.428604
H156	H	1.512225	0.476222	0.928604
F157	F	1.110125	-0.002826	0.175690
F158	F	1.610125	0.497174	0.675690
H159	H	1.012234	-0.023773	0.571565
H160	H	1.512234	0.476227	1.071565
