data_functionalizedCrystal
_audit_creation_method	'MofGen! by Chris Wilmer'
_symmetry_space_group_name_H-M	'P1'
_symmetry_Int_Tables_number	1
_symmetry_cell_setting	triclinic
loop_
_symmetry_equiv_pos_as_xyz
  x,y,z
_cell_length_a	8.597366
_cell_length_b	8.559649
_cell_length_c	18.366186
_cell_angle_alpha	89.994914
_cell_angle_beta	97.692944
_cell_angle_gamma	77.624636
loop_
_atom_site_label
_atom_site_type_symbol
_atom_site_fract_x
_atom_site_fract_y
_atom_site_fract_z
O1	O	2.053695	0.238019	0.068294
O2	O	1.594574	0.256285	0.039490
O3	O	1.864584	0.015182	0.056430
O4	O	1.783686	0.479123	0.051354
O5	O	1.864544	0.015169	0.177527
O6	O	1.594535	0.256273	0.160587
O7	O	2.053656	0.238006	0.189391
Zn8	Zn	1.824089	0.247137	0.194216
Zn9	Zn	1.824141	0.247154	0.034665
O10	O	1.783646	0.479110	0.172450
C11	C	1.536321	0.254319	0.096385
C12	C	1.362806	0.248458	0.085499
C13	C	1.870695	-0.044259	0.117362
C14	C	1.888943	-0.221354	0.118503
C15	C	2.111909	0.239973	0.132495
C16	C	2.285424	0.245833	0.143376
C17	C	1.777535	0.538550	0.111517
C18	C	1.759287	0.715646	0.110372
N19	N	1.824065	0.247125	0.303105
N20	N	1.824179	0.247154	-0.074224
C21	C	1.943654	0.140418	0.348709
C22	C	1.943665	0.140411	0.424937
C23	C	1.824098	0.247139	0.455560
C24	C	1.704489	0.353854	0.409946
C25	C	1.704472	0.353847	0.333719
C26	C	1.786069	0.392068	0.573934
C27	C	1.786096	0.392077	0.650161
C28	C	1.824140	0.247160	0.690670
C29	C	1.862191	0.102227	0.654946
C30	C	1.862175	0.102220	0.578718
C31	C	1.824102	0.247157	0.538215
C32	C	1.943748	0.140436	0.818930
C33	C	1.943748	0.140427	0.895159
C34	C	1.704578	0.353883	0.880167
C35	C	1.704572	0.353879	0.803939
C36	C	1.824165	0.247157	0.773325
H37	H	1.351926	0.248071	0.201264
F38	F	1.275902	0.245512	0.009839
H39	H	1.634321	-0.202808	0.102534
H40	H	2.013917	-0.302909	0.126349
F41	F	2.070928	0.026831	0.316129
F42	F	2.071029	0.026841	0.943696
H43	H	2.041051	0.053514	0.462074
F44	F	1.745688	0.546325	0.530835
H45	H	1.607197	0.440776	0.766806
F46	F	1.902658	-0.052023	0.540700
F47	F	2.071024	0.026847	0.786348
H48	H	1.893170	-0.015779	0.687927
H49	H	1.607219	0.440777	0.905099
H50	H	1.607133	0.440750	0.434883
H51	H	1.755123	0.510090	0.679242
H52	H	1.607086	0.440742	0.296587
