data_functionalizedCrystal
_audit_creation_method	'MofGen! by Chris Wilmer'
_symmetry_space_group_name_H-M	'P1'
_symmetry_Int_Tables_number	1
_symmetry_cell_setting	triclinic
loop_
_symmetry_equiv_pos_as_xyz
  x,y,z
_cell_length_a	10.685940
_cell_length_b	10.685741
_cell_length_c	10.686551
_cell_angle_alpha	89.636396
_cell_angle_beta	81.599029
_cell_angle_gamma	90.339759
loop_
_atom_site_label
_atom_site_type_symbol
_atom_site_fract_x
_atom_site_fract_y
_atom_site_fract_z
Zn1	Zn	2.019013	-0.279032	-0.889673
Zn2	Zn	2.021386	-0.504739	-0.696183
Zn3	Zn	1.793331	-0.313733	-0.664051
Zn4	Zn	1.825502	-0.504639	-0.892108
O5	O	1.914808	-0.400536	-0.785504
O6	O	2.195755	-0.294491	-0.876435
O7	O	1.978663	-0.493966	-0.515501
O8	O	1.808812	-0.134776	-0.679514
O9	O	2.197498	-0.460317	-0.734278
O10	O	1.974620	-0.109281	-0.845277
O11	O	1.811112	-0.353635	-0.491894
O12	O	1.621172	-0.353538	-0.681875
O13	O	1.863642	-0.460148	-1.068204
O14	O	1.644808	-0.493796	-0.849427
O15	O	2.005814	-0.294395	-1.066415
O16	O	2.009858	-0.679079	-0.736639
O17	O	1.865943	-0.679006	-0.880585
C18	C	1.587244	-0.427423	-0.762429
C19	C	1.447116	-0.438953	-0.752590
C20	C	1.941685	-0.724246	-0.812393
C21	C	1.953301	-0.862718	-0.823946
C22	C	1.938052	-0.373389	-1.114332
C23	C	1.947958	-0.361821	-1.254460
C24	C	2.243651	-0.373544	-0.808669
C25	C	2.383784	-0.362042	-0.818541
C26	C	1.887863	-0.075557	-0.758540
C27	C	1.876380	0.062930	-0.747049
C28	C	1.891719	-0.427481	-0.457952
C29	C	1.882029	-0.438678	-0.317813
H30	H	2.436765	-0.287372	-0.882527
C31	C	2.054141	0.080152	-0.924763
N32	N	2.130094	0.037113	-1.000701
C33	C	2.034455	-0.260962	-1.326012
N34	N	2.099600	-0.184994	-1.379905
C35	C	1.795532	-0.539528	-1.246266
N36	N	1.730379	-0.615488	-1.192368
C37	C	2.375536	-0.539830	-0.666132
N38	N	2.321621	-0.615810	-0.601013
C39	C	1.775535	0.120065	-0.646228
N40	N	1.699578	0.163101	-0.570292
