data_functionalizedCrystal
_audit_creation_method	'MofGen! by Chris Wilmer'
_symmetry_space_group_name_H-M	'P1'
_symmetry_Int_Tables_number	1
_symmetry_cell_setting	triclinic
loop_
_symmetry_equiv_pos_as_xyz
  x,y,z
_cell_length_a	16.109318
_cell_length_b	16.109301
_cell_length_c	15.186229
_cell_angle_alpha	89.994833
_cell_angle_beta	90.000224
_cell_angle_gamma	83.465022
loop_
_atom_site_label
_atom_site_type_symbol
_atom_site_fract_x
_atom_site_fract_y
_atom_site_fract_z
O1	O	1.103122	0.106935	-0.073158
O2	O	1.603122	0.606935	0.426842
O3	O	0.861062	0.120219	-0.073176
O4	O	1.361062	0.620219	0.426824
O5	O	0.988741	-0.007454	-0.073158
O6	O	1.488741	0.492546	0.426842
O7	O	0.975442	0.234607	-0.073177
O8	O	1.475442	0.734607	0.426823
O9	O	0.988733	-0.007456	0.073300
O10	O	1.488733	0.492544	0.573300
O11	O	0.861053	0.120217	0.073281
O12	O	1.361053	0.620217	0.573281
O13	O	1.103113	0.106933	0.073299
O14	O	1.603113	0.606933	0.573299
Zn15	Zn	0.982082	0.113575	0.096543
Zn16	Zn	1.482082	0.613575	0.596543
Zn17	Zn	0.982093	0.113577	-0.096420
Zn18	Zn	1.482093	0.613577	0.403580
O19	O	0.975433	0.234606	0.073281
O20	O	1.475433	0.734606	0.573281
C21	C	0.830083	0.119677	0.000050
C22	C	1.330083	0.619677	0.500050
C23	C	0.737788	0.118057	0.000043
C24	C	1.237788	0.618057	0.500043
C25	C	0.438719	0.112823	-0.079774
C26	C	0.938719	0.612823	0.420226
C27	C	0.525440	0.114340	-0.079780
C28	C	1.025440	0.614340	0.420220
C29	C	0.525450	0.114327	0.079896
C30	C	1.025450	0.614327	0.579896
C31	C	0.438731	0.112803	0.079900
C32	C	0.938731	0.612803	0.579900
C33	C	0.395367	0.112056	0.000063
C34	C	0.895367	0.612056	0.500063
C35	C	0.568807	0.115096	0.000052
C36	C	1.068807	0.615096	0.500052
C37	C	0.662835	0.116742	0.000047
C38	C	1.162835	0.616742	0.500047
C39	C	0.301334	0.110409	0.000068
C40	C	0.801334	0.610409	0.500068
C41	C	0.988198	-0.038430	0.000071
C42	C	1.488198	0.461570	0.500071
C43	C	0.986583	-0.130725	0.000072
C44	C	1.486583	0.369275	0.500072
C45	C	1.058590	-0.352993	0.000064
C46	C	1.558590	0.147007	0.500064
C47	C	1.057066	-0.439713	0.000057
C48	C	1.557066	0.060287	0.500057
C49	C	0.905579	-0.419848	0.000049
C50	C	1.405579	0.080152	0.500049
C51	C	0.907104	-0.333130	0.000050
C52	C	1.407104	0.166870	0.500050
C53	C	0.983612	-0.299704	0.000062
C54	C	1.483612	0.200296	0.500062
C55	C	0.980563	-0.473144	0.000053
C56	C	1.480563	0.026856	0.500053
C57	C	0.978910	-0.567170	0.000045
C58	C	1.478910	-0.067170	0.500045
C59	C	0.985265	-0.205672	0.000068
C60	C	1.485265	0.294328	0.500068
C61	C	1.134092	0.107474	0.000071
C62	C	1.634092	0.607474	0.500071
C63	C	1.226387	0.109095	0.000072
C64	C	1.726387	0.609095	0.500072
C65	C	0.975976	0.265581	0.000050
C66	C	1.475976	0.765581	0.500050
C67	C	0.977592	0.357877	0.000043
C68	C	1.477592	0.857877	0.500043
N69	N	0.982080	0.113573	0.228236
N70	N	1.482080	0.613573	0.728236
N71	N	0.982101	0.113573	-0.228113
N72	N	1.482101	0.613573	0.271887
C73	C	1.038636	0.057058	0.453967
C74	C	1.538636	0.557058	0.953967
C75	C	1.038639	0.057056	0.546157
C76	C	1.538639	0.557056	1.046157
C77	C	0.925539	0.170090	0.546149
C78	C	1.425539	0.670090	1.046149
C79	C	0.925533	0.170087	0.453961
C80	C	1.425533	0.670087	0.953961
C81	C	0.982086	0.113572	0.407873
C82	C	1.482086	0.613572	0.907873
C83	C	0.982095	0.113573	0.592250
C84	C	1.482095	0.613573	1.092250
C85	C	0.982097	0.113571	0.692206
C86	C	1.482097	0.613571	1.192206
C87	C	0.982083	0.113573	0.307910
C88	C	1.482083	0.613573	0.807910
H89	H	1.120888	-0.325781	0.000072
H90	H	1.620888	0.174219	0.500072
H91	H	0.403433	0.112178	0.144917
H92	H	0.903433	0.612178	0.644917
H93	H	1.118121	-0.483098	0.000056
H94	H	1.618121	0.016902	0.500056
O95	O	0.834188	-0.281478	0.000087
O96	O	1.334188	0.218522	0.500087
C97	C	0.766333	-0.329573	0.000062
C98	C	1.266333	0.170427	0.500062
H99	H	0.787445	-0.394304	0.027792
H100	H	1.287445	0.105696	0.527792
H101	H	0.742885	-0.335736	-0.070203
H102	H	1.242885	0.164264	0.429797
C103	C	0.669437	-0.206841	0.023433
C104	C	1.169437	0.293159	0.523433
C105	C	0.695366	-0.286342	0.057498
C106	C	1.195366	0.213658	0.557498
H107	H	0.625659	-0.180173	0.058859
H108	H	1.125659	0.319827	0.558859
H109	H	0.715151	-0.174437	0.023447
H110	H	1.215151	0.325563	0.523447
H111	H	0.649902	-0.211987	-0.035120
H112	H	1.149902	0.288013	0.464880
H113	H	0.714909	-0.281194	0.116046
H114	H	1.214909	0.218806	0.616046
H115	H	0.649653	-0.318744	0.057496
H116	H	1.149653	0.181256	0.557496
O117	O	1.093595	0.002077	0.409332
O118	O	1.593595	0.502077	0.909332
C119	C	1.143520	-0.047791	0.469790
C120	C	1.643520	0.452209	0.969790
H121	H	1.109438	-0.048737	0.535507
H122	H	1.609438	0.451263	1.035507
H123	H	1.205273	-0.020776	0.479587
H124	H	1.705273	0.479224	0.979587
C125	C	1.202536	-0.136315	0.353109
C126	C	1.702536	0.363685	0.853109
C127	C	1.160673	-0.137484	0.433822
C128	C	1.660673	0.362516	0.933822
H129	H	1.213121	-0.191642	0.330922
H130	H	1.713121	0.308358	0.830922
H131	H	1.168904	-0.102717	0.312377
H132	H	1.668904	0.397283	0.812377
H133	H	1.253992	-0.113799	0.361284
H134	H	1.753992	0.386201	0.861284
H135	H	1.109214	-0.159990	0.425643
H136	H	1.609214	0.340010	0.925643
H137	H	1.194298	-0.171088	0.474552
H138	H	1.694298	0.328912	0.974552
O139	O	1.093458	0.002078	0.590972
O140	O	1.593458	0.502078	1.090972
C141	C	1.048956	-0.049220	0.644320
C142	C	1.548956	0.450780	1.144320
H143	H	0.983392	-0.050648	0.616543
H144	H	1.483392	0.449352	1.116543
H145	H	1.044594	-0.023202	0.714186
H146	H	1.544594	0.476798	1.214186
C147	C	1.175330	-0.136716	0.679858
C148	C	1.675330	0.363284	1.179858
C149	C	1.094805	-0.138476	0.645737
C150	C	1.594805	0.361524	1.145737
H151	H	1.203613	-0.191773	0.680736
H152	H	1.703613	0.308227	1.180736
H153	H	1.205313	-0.102154	0.643919
H154	H	1.705313	0.397846	1.143919
H155	H	1.171684	-0.115031	0.738077
H156	H	1.671684	0.384969	1.238077
H157	H	1.098452	-0.160151	0.587516
H158	H	1.598452	0.339849	1.087516
H159	H	1.064824	-0.173043	0.681666
H160	H	1.564824	0.326957	1.181666
O161	O	0.870692	0.224959	0.591058
O162	O	1.370692	0.724959	1.091058
C163	C	0.882810	0.212833	0.682311
C164	C	1.382810	0.712833	1.182311
H165	H	0.948916	0.181780	0.694901
H166	H	1.448916	0.681780	1.194901
H167	H	0.835767	0.171119	0.708483
H168	H	1.335767	0.671119	1.208483
C169	C	0.789104	0.336021	0.714165
C170	C	1.289104	0.836021	1.214165
C171	C	0.870299	0.297888	0.729629
C172	C	1.370299	0.797888	1.229629
H173	H	0.781383	0.388486	0.743354
H174	H	1.281383	0.888486	1.243354
H175	H	0.780937	0.344190	0.652687
H176	H	1.280937	0.844190	1.152687
H177	H	0.749911	0.301251	0.735975
H178	H	1.249911	0.801251	1.235975
H179	H	0.909490	0.332653	0.707808
H180	H	1.409490	0.832653	1.207808
H181	H	0.878472	0.289727	0.791105
H182	H	1.378472	0.789727	1.291105
O183	O	0.567608	0.114942	-0.157311
O184	O	1.067608	0.614942	0.342689
C185	C	0.627217	0.043871	-0.162087
C186	C	1.127217	0.543871	0.337913
H187	H	0.607680	-0.006890	-0.116783
H188	H	1.107680	0.493110	0.383217
H189	H	0.690809	0.061291	-0.140642
H190	H	1.190809	0.561291	0.359358
C191	C	0.656813	0.073624	-0.313114
C192	C	1.156813	0.573624	0.186886
C193	C	0.632814	0.011275	-0.257477
C194	C	1.132814	0.511275	0.242523
H195	H	0.660270	0.053519	-0.371955
H196	H	1.160270	0.553519	0.128045
H197	H	0.616656	0.121508	-0.309896
H198	H	1.116656	0.621508	0.190104
H199	H	0.709804	0.088135	-0.295233
H200	H	1.209804	0.588135	0.204767
H201	H	0.579820	-0.003227	-0.275352
H202	H	1.079820	0.496773	0.224648
H203	H	0.672963	-0.036612	-0.260700
H204	H	1.172963	0.463388	0.239300
H205	H	0.843288	-0.447074	0.000040
H206	H	1.343288	0.052926	0.500040
H207	H	0.879480	0.216108	0.416429
H208	H	1.379480	0.716108	0.916429
H209	H	0.560767	0.114937	0.144897
H210	H	1.060767	0.614937	0.644897
O211	O	0.396729	0.112057	-0.157404
O212	O	0.896729	0.612057	0.342596
C213	C	0.453590	0.113080	-0.227871
C214	C	0.953590	0.613080	0.272129
H215	H	0.518856	0.087857	-0.204467
H216	H	1.018856	0.587857	0.295533
H217	H	0.454074	0.179904	-0.252419
H218	H	0.954074	0.679904	0.247581
C219	C	0.346725	0.088983	-0.332042
C220	C	0.846725	0.588983	0.167958
C221	C	0.426884	0.057996	-0.303299
C222	C	0.926884	0.557996	0.196701
H223	H	0.330251	0.055008	-0.378572
H224	H	0.830251	0.555008	0.121428
H225	H	0.308415	0.088297	-0.284568
H226	H	0.808415	0.588297	0.215432
H227	H	0.347139	0.144669	-0.352493
H228	H	0.847139	0.644669	0.147507
H229	H	0.426467	0.002316	-0.282839
H230	H	0.926467	0.502316	0.217161
H231	H	0.465194	0.058672	-0.350772
H232	H	0.965194	0.558672	0.149228
