data_functionalizedCrystal
_audit_creation_method	'MofGen! by Chris Wilmer'
_symmetry_space_group_name_H-M	'P1'
_symmetry_Int_Tables_number	1
_symmetry_cell_setting	triclinic
loop_
_symmetry_equiv_pos_as_xyz
  x,y,z
_cell_length_a	18.101398
_cell_length_b	11.169416
_cell_length_c	11.169409
_cell_angle_alpha	90.030874
_cell_angle_beta	90.028498
_cell_angle_gamma	90.005607
loop_
_atom_site_label
_atom_site_type_symbol
_atom_site_fract_x
_atom_site_fract_y
_atom_site_fract_z
Zn1	Zn	1.132258	-0.477861	0.678833
Zn2	Zn	1.132190	-0.678602	0.478155
Zn3	Zn	1.008408	-0.477915	0.478137
Zn4	Zn	1.008413	-0.678485	0.678769
O5	O	1.070317	-0.578216	0.578473
O6	O	1.235882	-0.504517	0.652246
O7	O	1.115740	-0.652052	0.310202
O8	O	1.024864	-0.309958	0.504778
O9	O	1.235832	-0.652000	0.504809
O10	O	1.115856	-0.309919	0.652229
O11	O	1.024798	-0.504608	0.310189
O12	O	0.904776	-0.504494	0.504717
O13	O	1.024872	-0.651800	0.846727
O14	O	0.904779	-0.651852	0.652121
O15	O	1.115861	-0.504403	0.846774
O16	O	1.115744	-0.846536	0.504748
O17	O	1.024806	-0.846450	0.652138
C18	C	1.070288	-0.890040	0.578464
C19	C	1.070343	-1.023440	0.578500
C20	C	0.877907	-0.578167	0.578411
C21	C	0.795593	-0.578175	0.578412
C22	C	0.496502	-0.578250	0.578513
C23	C	0.527800	-0.485073	0.486223
C24	C	0.613418	-0.485323	0.485829
C25	C	0.644884	-0.578212	0.578463
C26	C	0.613793	-0.704644	0.543918
C27	C	0.528148	-0.704127	0.543277
C28	C	0.528115	-0.546093	0.705565
C29	C	0.613765	-0.543278	0.704872
C30	C	0.728744	-0.578198	0.578437
C31	C	0.412642	-0.578272	0.578536
C32	C	1.263479	-0.578265	0.578537
C33	C	1.345793	-0.578287	0.578564
C34	C	1.070374	-0.578082	0.891516
C35	C	1.070399	-0.578026	1.024916
C36	C	1.070367	-0.265173	0.578509
C37	C	1.070388	-0.131773	0.578524
C38	C	1.070303	-0.578262	0.266649
C39	C	1.070423	-0.577981	0.133249
H40	H	0.634439	-0.391568	0.507481
H41	H	0.635188	-0.606196	0.777318
H42	H	0.635210	-0.732385	0.452040
H43	H	0.634090	-0.450238	0.730920
Cl44	Cl	0.496011	-0.339875	0.519278
H45	H	0.507877	-0.613960	0.774330
H46	H	0.506251	-0.506092	0.392626
H47	H	0.634176	-0.775929	0.609035
H48	H	0.633872	-0.506583	0.391684
Cl49	Cl	0.494785	-0.406224	0.754059
H50	H	0.508138	-0.731395	0.450396
Cl51	Cl	0.496180	-0.814947	0.642523
