data_functionalizedCrystal
_audit_creation_method	'MofGen! by Chris Wilmer'
_symmetry_space_group_name_H-M	'P1'
_symmetry_Int_Tables_number	1
_symmetry_cell_setting	triclinic
loop_
_symmetry_equiv_pos_as_xyz
  x,y,z
_cell_length_a	18.101398
_cell_length_b	21.295417
_cell_length_c	18.101389
_cell_angle_alpha	90.022566
_cell_angle_beta	90.024327
_cell_angle_gamma	90.025773
loop_
_atom_site_label
_atom_site_type_symbol
_atom_site_fract_x
_atom_site_fract_y
_atom_site_fract_z
Zn1	Zn	1.132124	-0.250755	0.418817
Zn2	Zn	1.132021	-0.356008	0.294967
Zn3	Zn	1.008283	-0.250748	0.294979
Zn4	Zn	1.008235	-0.355981	0.418755
O5	O	1.070166	-0.303373	0.356880
O6	O	1.235743	-0.264731	0.402409
O7	O	1.115584	-0.342054	0.191335
O8	O	1.024774	-0.162660	0.311437
O9	O	1.235668	-0.342060	0.311417
O10	O	1.115759	-0.162664	0.402421
O11	O	1.024674	-0.264720	0.191344
O12	O	0.904644	-0.264694	0.311377
O13	O	1.024692	-0.342014	0.522397
O14	O	0.904609	-0.342008	0.402315
O15	O	1.115713	-0.264705	0.522442
O16	O	1.115538	-0.444094	0.311357
O17	O	1.024592	-0.444074	0.402304
C18	C	0.877755	-0.303348	0.356841
C19	C	0.795441	-0.303352	0.356842
C20	C	0.496350	-0.303391	0.356904
C21	C	0.527673	-0.254504	0.299967
C22	C	0.613291	-0.254635	0.299724
C23	C	0.644733	-0.303371	0.356873
C24	C	0.613615	-0.369679	0.335543
C25	C	0.527970	-0.369407	0.335147
C26	C	0.527965	-0.286547	0.435305
C27	C	0.613615	-0.285070	0.434877
C28	C	0.728592	-0.303364	0.356857
C29	C	0.412491	-0.303403	0.356919
C30	C	1.070069	-0.466925	0.356839
C31	C	1.070095	-0.536893	0.356846
C32	C	1.117492	-0.569749	0.309538
C33	C	1.117527	-0.635491	0.309555
C34	C	1.070151	-0.668375	0.356871
C35	C	1.022751	-0.635511	0.404188
C36	C	1.022722	-0.569770	0.404175
N37	N	1.005367	-0.771637	0.362504
N38	N	1.005396	-0.834089	0.362512
C39	C	1.070234	-0.866450	0.356914
N40	N	1.135044	-0.834001	0.351293
N41	N	1.135014	-0.771543	0.351282
C42	C	1.070177	-0.739661	0.356891
C43	C	1.117673	-0.970592	0.309622
C44	C	1.117709	-1.036335	0.309644
C45	C	1.022926	-1.036354	0.404273
C46	C	1.022897	-0.970612	0.404255
C47	C	1.070269	-0.937734	0.356925
C48	C	1.263328	-0.303399	0.356919
C49	C	1.345642	-0.303410	0.356935
C50	C	1.070209	-0.303357	0.550042
C51	C	1.070227	-0.303350	0.632356
C52	C	1.070283	-0.139183	0.356937
C53	C	1.070334	-0.069215	0.356961
C54	C	1.070166	-0.303344	0.164469
C55	C	1.070291	-0.303173	0.082155
C56	C	1.070270	-0.303232	0.931447
C57	C	1.012805	-0.351719	0.900093
C58	C	1.012960	-0.351944	0.814475
C59	C	1.070248	-0.303291	0.783064
C60	C	1.148274	-0.321303	0.814168
C61	C	1.147953	-0.321621	0.899813
C62	C	1.050388	-0.236626	0.899877
C63	C	1.048652	-0.237011	0.814226
C64	C	1.070240	-0.303323	0.699205
C65	C	1.070283	-0.303202	1.015306
H66	H	0.633745	-0.265769	0.241630
H67	H	0.991232	-0.223428	0.793895
H68	H	1.025801	-0.400788	0.921614
F69	F	0.972446	-0.935642	0.454604
F70	F	1.099373	-0.187285	0.786288
H71	H	0.507249	-0.407065	0.374809
H72	H	1.156310	-1.063086	0.271122
F73	F	0.977312	-0.215178	0.928090
H74	H	0.635030	-0.384213	0.278847
F75	F	1.030152	-0.416468	0.787694
H76	H	1.092243	-0.200501	0.920156
H77	H	0.507959	-0.383693	0.277832
F78	F	1.169983	-0.385263	0.925930
F79	F	1.205782	-0.277438	0.926929
H80	H	1.156249	-0.943822	0.271085
H81	H	1.192239	-0.287098	0.793825
H82	H	0.635021	-0.318083	0.479573
H83	H	0.955101	-0.340671	0.793443
F84	F	0.640794	-0.190366	0.317200
H85	H	0.507102	-0.205183	0.313191
F86	F	0.499494	-0.268882	0.224478
F87	F	0.640225	-0.418564	0.388054
F88	F	0.972509	-1.071347	0.454635
H89	H	0.954772	-0.340562	0.920680
H90	H	0.506392	-0.239037	0.454697
H91	H	0.633959	-0.236275	0.450961
F92	F	1.167919	-0.534762	0.259174
F93	F	0.501489	-0.333088	0.490756
F94	F	1.167975	-0.670466	0.259201
H95	H	0.984178	-0.662290	0.442715
F96	F	0.972274	-0.534801	0.454529
F97	F	1.170687	-0.384268	0.786138
