data_functionalizedCrystal
_audit_creation_method	'MofGen! by Chris Wilmer'
_symmetry_space_group_name_H-M	'P1'
_symmetry_Int_Tables_number	1
_symmetry_cell_setting	triclinic
loop_
_symmetry_equiv_pos_as_xyz
  x,y,z
_cell_length_a	17.699083
_cell_length_b	14.185569
_cell_length_c	15.625163
_cell_angle_alpha	94.305586
_cell_angle_beta	96.219997
_cell_angle_gamma	76.866969
loop_
_atom_site_label
_atom_site_type_symbol
_atom_site_fract_x
_atom_site_fract_y
_atom_site_fract_z
O1	O	0.996479	0.038373	-0.123426
O2	O	0.777150	0.033449	-0.137049
O3	O	0.883695	0.079743	-0.009746
O4	O	0.889933	-0.007920	-0.250728
O5	O	0.915170	-0.073418	0.027856
O6	O	0.808625	-0.119711	-0.099447
O7	O	1.027953	-0.114787	-0.085823
Cu8	Cu	0.921163	-0.131234	-0.089202
Cu9	Cu	0.883940	0.049896	-0.133671
O10	O	0.921408	-0.161081	-0.213126
C11	C	0.764652	-0.042950	-0.117761
C12	C	0.680518	-0.042406	-0.116300
N13	N	0.947349	-0.258631	-0.057924
C14	C	0.637692	-0.069588	-0.191022
C15	C	0.558645	-0.069098	-0.189639
C16	C	0.522422	-0.041418	-0.113535
C17	C	0.565254	-0.014237	-0.038806
C18	C	0.644302	-0.014734	-0.040189
C19	C	0.246463	-0.012233	-0.033229
C20	C	0.167409	-0.011735	-0.031853
C21	C	0.160806	-0.066596	-0.182679
C22	C	0.239854	-0.067094	-0.184062
C23	C	0.282680	-0.039917	-0.109333
C24	C	0.368393	-0.040451	-0.110833
C25	C	0.436709	-0.040878	-0.112035
C26	C	0.780824	-0.698602	-0.256800
C27	C	0.800665	-0.795010	-0.233113
C28	C	0.895034	-0.753993	-0.120428
C29	C	0.875199	-0.657578	-0.144103
C30	C	0.818093	-0.629892	-0.212290
C31	C	0.912468	-0.588868	-0.099593
C32	C	0.892637	-0.492464	-0.123269
C33	C	0.835536	-0.464769	-0.191455
C34	C	0.798262	-0.533487	-0.235966
C35	C	0.969577	-0.616559	-0.031410
C36	C	1.006847	-0.547849	0.013100
C37	C	0.987012	-0.451440	-0.010572
C38	C	0.929910	-0.423746	-0.078758
C39	C	1.024285	-0.382722	0.033939
C40	C	1.004454	-0.286318	0.010263
C41	C	0.910079	-0.327341	-0.102434
C42	C	1.040451	-0.038386	-0.105112
C43	C	1.124584	-0.038924	-0.106574
C44	C	0.896595	0.014381	0.039887
C45	C	0.888129	0.047809	0.131759
N46	N	0.857760	0.177296	-0.164942
C47	C	0.908508	-0.095717	-0.262760
C48	C	0.916973	-0.129139	-0.354633
C49	C	0.859041	0.178404	0.240749
C50	C	0.866998	0.146984	0.154424
C51	C	0.901307	-0.019985	0.195417
C52	C	0.893349	0.011421	0.281746
C53	C	0.872217	0.110616	0.304405
C54	C	0.906525	-0.056367	0.345402
C55	C	0.898571	-0.024963	0.431724
C56	C	0.877442	0.074229	0.454391
C57	C	0.864263	0.142021	0.390727
C58	C	0.927663	-0.155562	0.322742
C59	C	0.940839	-0.223350	0.386398
C60	C	0.932880	-0.191947	0.472722
C61	C	0.911750	-0.092755	0.495388
C62	C	0.946059	-0.259739	0.536385
C63	C	0.938105	-0.228335	0.622708
C64	C	0.903797	-0.061351	0.581711
H65	H	0.667179	-0.092127	-0.252996
Br66	Br	0.832566	-0.289757	-0.194965
Br67	Br	0.875100	0.073273	0.612468
H68	H	0.751755	-0.510942	-0.291485
H69	H	0.137920	0.010805	0.030124
H70	H	0.870969	0.099796	0.524682
Br71	Br	1.055040	-0.193066	0.070666
H72	H	0.269341	-0.089629	-0.246035
H73	H	0.948832	-0.283534	0.674539
Br74	Br	0.703311	-0.661018	-0.349331
H75	H	0.125929	-0.088730	-0.243526
H76	H	0.523779	-0.091231	-0.250486
H77	H	0.770311	-0.850953	-0.269366
Br78	Br	0.516098	0.023319	0.064482
Br79	Br	0.835566	0.276645	0.421484
H80	H	0.819392	-0.386270	-0.210734
Br81	Br	0.304575	0.024648	0.068190
Br82	Br	0.996495	-0.747399	0.000713
Br83	Br	0.702425	0.022150	0.061226
Br84	Br	1.084348	-0.585432	0.105634
H85	H	0.841819	0.259179	0.259196
Br86	Br	1.101794	-0.420312	0.126465
H87	H	0.941532	-0.776548	-0.064911
H88	H	0.856267	0.202193	0.102595
Br89	Br	0.929990	-0.154604	0.164657
H90	H	0.934140	-0.181128	0.252452
H91	H	0.958048	-0.304116	0.367937
Br92	Br	0.974752	-0.394356	0.505625
