data_functionalizedCrystal
_audit_creation_method	'MofGen! by Chris Wilmer'
_symmetry_space_group_name_H-M	'P1'
_symmetry_Int_Tables_number	1
_symmetry_cell_setting	triclinic
loop_
_symmetry_equiv_pos_as_xyz
  x,y,z
_cell_length_a	12.759401
_cell_length_b	12.759394
_cell_length_c	12.759393
_cell_angle_alpha	90.030331
_cell_angle_beta	90.018496
_cell_angle_gamma	90.014802
loop_
_atom_site_label
_atom_site_type_symbol
_atom_site_fract_x
_atom_site_fract_y
_atom_site_fract_z
Zn1	Zn	1.606256	-0.418200	0.593990
Zn2	Zn	1.606150	-0.593919	0.418314
Zn3	Zn	1.430558	-0.418255	0.418330
Zn4	Zn	1.430547	-0.593838	0.593956
O5	O	1.518378	-0.506053	0.506148
O6	O	1.753263	-0.441520	0.570695
O7	O	1.582818	-0.570674	0.271295
O8	O	1.453913	-0.271227	0.441652
O9	O	1.753185	-0.570620	0.441626
O10	O	1.582998	-0.271186	0.570710
O11	O	1.453811	-0.441614	0.271307
O12	O	1.283535	-0.441536	0.441619
O13	O	1.453894	-0.570482	0.740981
O14	O	1.283527	-0.570536	0.570651
O15	O	1.582987	-0.441442	0.741007
O16	O	1.582807	-0.740929	0.441593
O17	O	1.453792	-0.740870	0.570636
C18	C	1.245410	-0.506034	0.506133
C19	C	1.128634	-0.506051	0.506152
C20	C	1.073795	-0.573329	0.573228
C21	C	0.964071	-0.573342	0.573239
C22	C	0.964034	-0.438796	0.439090
C23	C	1.073756	-0.438779	0.439085
C24	C	1.128672	-0.640601	0.640295
C25	C	1.073834	-0.707885	0.707375
C26	C	0.964109	-0.707898	0.707387
C27	C	0.909224	-0.640627	0.640318
C28	C	1.518316	-0.779021	0.506131
C29	C	1.518385	-0.895797	0.506160
C30	C	1.652952	-1.115229	0.371931
C31	C	1.720148	-1.060362	0.304788
C32	C	1.720094	-0.950640	0.304767
C33	C	1.652833	-0.895784	0.371895
C34	C	1.585636	-0.950651	0.439038
C35	C	1.585700	-1.060375	0.439053
C36	C	1.451188	-0.950665	0.573303
C37	C	1.451247	-1.060386	0.573330
C38	C	1.383927	-0.895808	0.640430
C39	C	1.316734	-0.950676	0.707580
C40	C	1.316793	-1.060404	0.707599
C41	C	1.384050	-1.115254	0.640473
C42	C	1.792411	-0.506073	0.506162
C43	C	1.909188	-0.506082	0.506169
C44	C	1.518451	-0.505947	0.780181
C45	C	1.518483	-0.505902	0.896958
C46	C	1.518469	-0.232020	0.506187
C47	C	1.518507	-0.115243	0.506203
C48	C	1.518365	-0.506083	0.233180
C49	C	1.518537	-0.505832	0.116404
C50	C	1.585710	-0.438704	0.951835
C51	C	1.585735	-0.438666	1.061559
C52	C	1.451302	-0.573033	1.061519
C53	C	1.451272	-0.573065	0.951797
C54	C	1.652921	-0.371541	0.896995
C55	C	1.720155	-0.304339	0.951872
C56	C	1.720180	-0.304301	1.061596
C57	C	1.652971	-0.371465	1.116444
H58	H	1.118528	-0.762648	0.761987
Cl59	Cl	1.804704	-0.219823	1.130582
H60	H	0.919463	-0.762677	0.762014
Cl61	Cl	0.771284	-0.640638	0.640343
Cl62	Cl	1.652897	-0.371588	0.759057
H63	H	1.774807	-0.905967	0.250090
H64	H	1.118407	-0.383987	0.384474
Cl65	Cl	1.366754	-0.657542	0.882804
Cl66	Cl	1.652618	-1.253165	0.371544
H67	H	0.919338	-0.384029	0.384485
H68	H	1.774908	-1.105038	0.250132
Cl69	Cl	1.383738	-1.253190	0.640100
H70	H	1.262074	-1.105071	0.762276
Cl71	Cl	1.804625	-0.219892	0.882924
H72	H	1.652984	-0.371417	1.205788
H73	H	1.396583	-0.627714	1.106185
Cl74	Cl	1.653038	-0.757847	0.372138
H75	H	1.383884	-0.806467	0.640404
H76	H	1.261971	-0.906005	0.762225
H77	H	1.218015	-0.640599	0.640291
