data_functionalizedCrystal
_audit_creation_method	'MofGen! by Chris Wilmer'
_symmetry_space_group_name_H-M	'P1'
_symmetry_Int_Tables_number	1
_symmetry_cell_setting	triclinic
loop_
_symmetry_equiv_pos_as_xyz
  x,y,z
_cell_length_a	19.188930
_cell_length_b	17.699083
_cell_length_c	16.176319
_cell_angle_alpha	89.992304
_cell_angle_beta	89.978701
_cell_angle_gamma	83.213897
loop_
_atom_site_label
_atom_site_type_symbol
_atom_site_fract_x
_atom_site_fract_y
_atom_site_fract_z
O1	O	0.926253	0.094493	-0.069014
O2	O	1.426253	0.594493	0.430986
O3	O	0.722956	0.107214	-0.068957
O4	O	1.222956	0.607214	0.431043
O5	O	0.830349	-0.009343	-0.068980
O6	O	1.330349	0.490657	0.431020
O7	O	0.818861	0.211050	-0.068991
O8	O	1.318861	0.711050	0.431009
O9	O	0.830334	-0.009351	0.068513
O10	O	1.330334	0.490649	0.568513
O11	O	0.722942	0.107206	0.068536
O12	O	1.222942	0.607206	0.568536
O13	O	0.926239	0.094486	0.068479
O14	O	1.426239	0.594486	0.568479
Cu15	Cu	0.824589	0.100845	0.081062
Cu16	Cu	1.324589	0.600845	0.581062
Cu17	Cu	0.824606	0.100854	-0.081540
Cu18	Cu	1.324606	0.600854	0.418460
O19	O	0.818847	0.211043	0.068502
O20	O	1.318847	0.711043	0.568502
C21	C	0.829930	-0.037543	-0.000233
C22	C	1.329930	0.462457	0.499767
C23	C	0.828695	-0.121560	-0.000233
C24	C	1.328695	0.378440	0.499767
C25	C	0.696938	0.106798	-0.000204
C26	C	1.196938	0.606798	0.499796
C27	C	0.619432	0.105561	-0.000182
C28	C	1.119432	0.605561	0.499818
C29	C	0.891732	-0.170264	-0.000249
C30	C	1.391732	0.329736	0.499751
C31	C	0.890567	-0.249206	-0.000256
C32	C	1.390567	0.250794	0.499744
C33	C	0.826365	-0.279442	-0.000241
C34	C	1.326365	0.220558	0.499759
C35	C	0.763323	-0.230732	-0.000227
C36	C	1.263323	0.269268	0.499773
C37	C	0.764489	-0.151791	-0.000226
C38	C	1.264489	0.348209	0.499774
C39	C	0.758623	-0.549089	-0.000232
C40	C	1.258623	-0.049089	0.499768
C41	C	0.757463	-0.628035	-0.000231
C42	C	1.257463	-0.128035	0.499769
C43	C	0.884702	-0.646503	-0.000262
C44	C	1.384702	-0.146503	0.499738
C45	C	0.885867	-0.567563	-0.000261
C46	C	1.385867	-0.067563	0.499739
C47	C	0.822826	-0.518859	-0.000252
C48	C	1.322826	-0.018859	0.499748
C49	C	0.824089	-0.433262	-0.000246
C50	C	1.324089	0.066738	0.499754
C51	C	0.825101	-0.365038	-0.000241
C52	C	1.325101	0.134962	0.499759
C53	C	0.574584	0.173953	-0.000198
C54	C	1.074584	0.673953	0.499802
C55	C	0.501759	0.172791	-0.000207
C56	C	1.001759	0.672791	0.499793
C57	C	0.473785	0.103234	-0.000216
C58	C	0.973785	0.603234	0.499784
C59	C	0.518642	0.034833	-0.000195
C60	C	1.018642	0.534833	0.499805
C61	C	0.591465	0.035997	-0.000178
C62	C	1.091465	0.535997	0.499822
N63	N	0.365750	0.050069	-0.047042
N64	N	0.865750	0.550069	0.452958
N65	N	0.296570	0.048968	-0.047060
N66	N	0.796570	0.548968	0.452940
C67	C	0.254372	0.099724	-0.000267
C68	C	0.754372	0.599724	0.499733
N69	N	0.283966	0.151634	0.046535
N70	N	0.783966	0.651634	0.546535
N71	N	0.353152	0.152737	0.046550
N72	N	0.853152	0.652737	0.546550
C73	C	0.394821	0.101965	-0.000235
C74	C	0.894821	0.601965	0.499765
C75	C	0.130559	0.166861	-0.000292
C76	C	0.630559	0.666861	0.499708
C77	C	0.057733	0.165696	-0.000296
C78	C	0.557733	0.665696	0.499704
C79	C	0.074617	0.027736	-0.000292
C80	C	0.574617	0.527736	0.499708
C81	C	0.147442	0.028903	-0.000280
C82	C	0.647442	0.528903	0.499720
C83	C	0.175408	0.098467	-0.000284
C84	C	0.675408	0.598467	0.499716
C85	C	0.952258	0.094902	-0.000276
C86	C	1.452258	0.594902	0.499724
C87	C	1.029763	0.096138	-0.000304
C88	C	1.529763	0.596138	0.499696
C89	C	0.819266	0.239243	-0.000247
C90	C	1.319266	0.739243	0.499753
C91	C	0.820500	0.323259	-0.000253
C92	C	1.320500	0.823259	0.499747
N93	N	0.824582	0.100839	0.195427
N94	N	1.324582	0.600839	0.695427
N95	N	0.824619	0.100855	-0.195905
N96	N	1.324619	0.600855	0.304095
C97	C	0.872149	0.049248	0.238681
C98	C	1.372149	0.549248	0.738681
C99	C	0.872153	0.049248	0.325228
C100	C	1.372153	0.549248	0.825228
C101	C	0.824592	0.100841	0.368520
C102	C	1.324592	0.600841	0.868520
C103	C	0.777019	0.152434	0.325259
C104	C	1.277019	0.652434	0.825259
C105	C	0.777013	0.152431	0.238714
C106	C	1.277013	0.652431	0.738714
C107	C	0.777043	0.152448	0.674288
C108	C	1.277043	0.652448	1.174288
C109	C	0.777054	0.152449	0.760839
C110	C	1.277054	0.652449	1.260839
C111	C	0.872183	0.049265	0.760802
C112	C	1.372183	0.549265	1.260802
C113	C	0.872177	0.049262	0.674256
C114	C	1.372177	0.549262	1.174256
C115	C	0.824602	0.100852	0.631004
C116	C	1.324602	0.600852	1.131004
C117	C	0.824598	0.100851	0.537160
C118	C	1.324598	0.600851	1.037160
C119	C	0.824599	0.100846	0.462362
C120	C	1.324599	0.600846	0.962362
H121	H	0.944012	-0.145652	-0.000256
H122	H	1.444012	0.354348	0.499744
Cl123	Cl	0.679371	-0.487872	-0.000222
Cl124	Cl	1.179371	0.012128	0.499778
H125	H	0.936033	-0.686167	-0.000274
H126	H	1.436033	-0.186167	0.499726
H127	H	0.153330	0.223504	-0.000283
H128	H	0.653330	0.723504	0.499717
Cl129	Cl	0.039456	-0.059709	-0.000294
Cl130	Cl	0.539456	0.440291	0.499706
H131	H	0.705179	-0.652650	-0.000217
H132	H	1.205179	-0.152650	0.499783
H133	H	0.738307	0.194456	0.639078
H134	H	1.238307	0.694456	1.139078
Cl135	Cl	0.969818	-0.310431	-0.000274
Cl136	Cl	1.469818	0.189569	0.499726
H137	H	0.738278	0.194440	0.203497
H138	H	1.238278	0.694440	0.703497
Cl139	Cl	0.717257	0.217314	0.815262
Cl140	Cl	1.217257	0.717314	1.315262
H141	H	0.910885	0.007238	0.360445
H142	H	1.410885	0.507238	0.860445
H143	H	0.938147	-0.542949	-0.000270
H144	H	1.438147	-0.042949	0.499730
H145	H	0.738290	0.194440	0.360512
H146	H	1.238290	0.694440	0.860512
H147	H	0.711049	-0.255356	-0.000219
H148	H	1.211049	0.244644	0.499781
H149	H	0.465238	0.228486	-0.000218
H150	H	0.965238	0.728486	0.499782
Cl151	Cl	0.931972	-0.015599	0.619836
Cl152	Cl	1.431972	0.484401	1.119836
Cl153	Cl	0.685239	-0.090563	-0.000208
Cl154	Cl	1.185239	0.409437	0.499792
Cl155	Cl	0.609738	0.261405	-0.000199
Cl156	Cl	1.109738	0.761405	0.499801
Cl157	Cl	0.001352	0.251683	-0.000312
Cl158	Cl	0.501352	0.751683	0.499688
H159	H	0.910882	0.007238	0.203439
H160	H	1.410882	0.507238	0.703439
Cl161	Cl	0.483475	-0.052610	-0.000202
Cl162	Cl	0.983475	0.447390	0.499798
Cl163	Cl	0.203824	-0.057081	-0.000264
Cl164	Cl	0.703824	0.442919	0.499736
Cl165	Cl	0.931990	-0.015595	0.815181
Cl166	Cl	1.431990	0.484405	1.315181
H167	H	0.627981	-0.019698	-0.000165
H168	H	1.127981	0.480302	0.499835
