data_functionalizedCrystal
_audit_creation_method	'MofGen! by Chris Wilmer'
_symmetry_space_group_name_H-M	'P1'
_symmetry_Int_Tables_number	1
_symmetry_cell_setting	triclinic
loop_
_symmetry_equiv_pos_as_xyz
  x,y,z
_cell_length_a	17.699083
_cell_length_b	9.798715
_cell_length_c	17.699083
_cell_angle_alpha	90.004036
_cell_angle_beta	96.716985
_cell_angle_gamma	90.002777
loop_
_atom_site_label
_atom_site_type_symbol
_atom_site_fract_x
_atom_site_fract_y
_atom_site_fract_z
O1	O	-1.004075	0.113289	0.095710
O2	O	-0.670742	0.446622	0.429043
O3	O	-0.337408	0.779955	0.762376
O4	O	-0.783697	0.113337	0.108162
O5	O	-0.450363	0.446670	0.441495
O6	O	-0.117030	0.780003	0.774829
O7	O	-0.900112	0.113299	-0.008253
O8	O	-0.566779	0.446633	0.325080
O9	O	-0.233445	0.779966	0.658413
O10	O	-0.887660	0.113326	0.212125
O11	O	-0.554326	0.446660	0.545458
O12	O	-0.220993	0.779993	0.878792
O13	O	-0.900104	-0.113683	-0.008254
O14	O	-0.566770	0.219651	0.325080
O15	O	-0.233437	0.552984	0.658413
O16	O	-0.783688	-0.113645	0.108162
O17	O	-0.450355	0.219688	0.441495
O18	O	-0.117021	0.553021	0.774828
O19	O	-1.004066	-0.113693	0.095709
O20	O	-0.670733	0.219640	0.429043
O21	O	-0.337400	0.552973	0.762376
Zn22	Zn	-0.893876	-0.149708	0.101936
Zn23	Zn	-0.560543	0.183626	0.435269
Zn24	Zn	-0.227209	0.516959	0.768602
Zn25	Zn	-0.893887	0.149351	0.101936
Zn26	Zn	-0.560554	0.482684	0.435269
Zn27	Zn	-0.227221	0.816018	0.768602
O28	O	-0.887651	-0.113656	0.212125
O29	O	-0.554318	0.219677	0.545458
O30	O	-0.220984	0.553011	0.878791
C31	C	-0.755495	-0.000148	0.107716
C32	C	-0.422162	0.333185	0.441049
C33	C	-0.088829	0.666518	0.774382
C34	C	-0.671477	-0.000130	0.106377
C35	C	-0.338144	0.333203	0.439710
C36	C	-0.004811	0.666536	0.773044
C37	C	-0.622856	-0.000122	0.174710
C38	C	-0.289523	0.333212	0.508044
C39	C	0.043810	0.666545	0.841377
C40	C	-0.543913	-0.000139	0.173448
C41	C	-0.210580	0.333195	0.506782
C42	C	0.122754	0.666528	0.840115
C43	C	-0.513592	-0.000154	0.103852
C44	C	-0.180259	0.333179	0.437185
C45	C	0.153074	0.666513	0.770518
C46	C	-0.562219	-0.000167	0.035513
C47	C	-0.228886	0.333167	0.368846
C48	C	0.104447	0.666500	0.702180
C49	C	-0.641161	-0.000160	0.036776
C50	C	-0.307828	0.333174	0.370110
C51	C	0.025505	0.666507	0.703443
C52	C	-0.243856	-0.000197	0.030418
C53	C	0.089477	0.333137	0.363751
C54	C	0.422810	0.666470	0.697085
C55	C	-0.164908	-0.000200	0.029160
C56	C	0.168425	0.333134	0.362493
C57	C	0.501758	0.666467	0.695827
C58	C	-0.146608	-0.000176	0.167090
C59	C	0.186725	0.333158	0.500423
C60	C	0.520058	0.666491	0.833757
C61	C	-0.225550	-0.000169	0.168353
C62	C	0.107783	0.333165	0.501686
C63	C	0.441117	0.666498	0.835020
C64	C	-0.274170	-0.000188	0.100015
C65	C	0.059163	0.333145	0.433348
C66	C	0.392496	0.666478	0.766681
C67	C	-0.359769	-0.000173	0.101384
C68	C	-0.026436	0.333161	0.434718
C69	C	0.306897	0.666494	0.768051
C70	C	-0.427995	-0.000160	0.102481
C71	C	-0.094661	0.333173	0.435815
C72	C	0.238672	0.666507	0.769148
N73	N	-0.893874	-0.353807	0.101935
N74	N	-0.560540	-0.020474	0.435268
N75	N	-0.227207	0.312859	0.768601
C76	C	-0.942756	-0.421600	0.052842
C77	C	-0.609422	-0.088267	0.386175
C78	C	-0.276089	0.245067	0.719509
C79	C	-0.942768	-0.578763	0.052839
C80	C	-0.609434	-0.245429	0.386173
C81	C	-0.276101	0.087904	0.719506
C82	C	-0.032268	-0.000202	0.096156
C83	C	0.301066	0.333131	0.429489
C84	C	0.634399	0.666465	0.762822
C85	C	-0.116286	-0.000201	0.097494
C86	C	0.217047	0.333133	0.430828
C87	C	0.550381	0.666466	0.764161
C88	C	-0.899662	-0.000192	-0.036451
C89	C	-0.566328	0.333142	0.296883
C90	C	-0.232995	0.666475	0.630216
C91	C	-0.898323	-0.000192	-0.120469
C92	C	-0.564990	0.333141	0.212865
C93	C	-0.231656	0.666475	0.546198
N94	N	-0.893896	0.353451	0.101930
N95	N	-0.560562	0.686784	0.435264
N96	N	-0.227229	1.020117	0.768597
C97	C	-0.966656	-0.000209	-0.169090
C98	C	-0.633323	0.333124	0.164244
C99	C	-0.299990	0.666458	0.497577
C100	C	-0.965394	-0.000197	-0.248033
C101	C	-0.632061	0.333137	0.085300
C102	C	-0.298727	0.666470	0.418634
C103	C	-0.895798	-0.000177	-0.278354
C104	C	-0.562464	0.333156	0.054980
C105	C	-0.229131	0.666490	0.388313
C106	C	-0.827459	-0.000156	-0.229727
C107	C	-0.494126	0.333177	0.103607
C108	C	-0.160792	0.666510	0.436940
C109	C	-0.828722	-0.000159	-0.150785
C110	C	-0.495389	0.333175	0.182549
C111	C	-0.162055	0.666508	0.515882
C112	C	-0.822364	-0.000144	-0.548090
C113	C	-0.489030	0.333189	-0.214756
C114	C	-0.155697	0.666523	0.118577
C115	C	-0.821106	-0.000146	-0.627038
C116	C	-0.487773	0.333188	-0.293704
C117	C	-0.154439	0.666521	0.039629
C118	C	-0.959036	-0.000182	-0.645338
C119	C	-0.625703	0.333152	-0.312004
C120	C	-0.292369	0.666485	0.021329
C121	C	-0.960299	-0.000184	-0.566396
C122	C	-0.626966	0.333149	-0.233063
C123	C	-0.293632	0.666482	0.100271
C124	C	-0.891961	-0.000156	-0.517776
C125	C	-0.558627	0.333177	-0.184442
C126	C	-0.225294	0.666510	0.148891
C127	C	-0.893330	-0.000167	-0.432177
C128	C	-0.559997	0.333166	-0.098843
C129	C	-0.226664	0.666500	0.234490
C130	C	-0.894427	-0.000176	-0.363951
C131	C	-0.561094	0.333157	-0.030618
C132	C	-0.227761	0.666491	0.302715
C133	C	-0.888102	-0.000162	0.240322
C134	C	-0.554768	0.333172	0.573655
C135	C	-0.221435	0.666505	0.906989
C136	C	-0.889440	-0.000153	0.324340
C137	C	-0.556107	0.333181	0.657673
C138	C	-0.222773	0.666514	0.991007
H139	H	-0.283434	-0.000214	-0.025228
H140	H	0.049899	0.333119	0.308106
H141	H	0.383233	0.666453	0.641439
F142	F	-1.040732	-0.000243	-0.136828
F143	F	-0.707398	0.333091	0.196506
F144	F	-0.374065	0.666424	0.529839
H145	H	-0.680748	-0.000166	-0.018868
H146	H	-0.347415	0.333168	0.314465
H147	H	-0.014082	0.666501	0.647799
H148	H	-0.773078	-0.000145	-0.111198
H149	H	-0.439745	0.333189	0.222136
H150	H	-0.106411	0.666522	0.555469
F151	F	-0.997312	-0.345389	-0.002227
F152	F	-0.663978	-0.012056	0.331106
F153	F	-0.330645	0.321278	0.664440
H154	H	-0.504328	-0.000130	0.229092
H155	H	-0.170995	0.333203	0.562426
H156	H	0.162338	0.666537	0.895759
F157	F	-0.997474	-0.654960	-0.002096
F158	F	-0.664141	-0.321627	0.331238
F159	F	-0.330807	0.011707	0.664571
H160	H	-0.852046	-0.588259	0.143966
H161	H	-0.518713	-0.254926	0.477299
H162	H	-0.185380	0.078407	0.810632
F163	F	-0.094857	-0.000160	0.239822
F164	F	0.238477	0.333173	0.573156
F165	F	0.571810	0.666507	0.906489
H166	H	-0.852030	-0.412118	0.143960
H167	H	-0.518697	-0.078785	0.477294
H168	H	-0.185363	0.254548	0.810627
H169	H	-0.770792	-0.000132	-0.254420
H170	H	-0.437459	0.333202	0.078913
H171	H	-0.104126	0.666535	0.412247
F172	F	-0.529948	-0.000192	-0.038557
F173	F	-0.196614	0.333141	0.294776
F174	F	0.136719	0.666475	0.628110
H175	H	-1.021038	-0.000213	-0.287618
H176	H	-0.687705	0.333120	0.045716
H177	H	-0.354372	0.666453	0.379049
F178	F	-0.132641	-0.000216	-0.044918
F179	F	0.200692	0.333117	0.288416
F180	F	0.534025	0.666450	0.621749
F181	F	-1.034373	-0.000204	-0.534131
F182	F	-0.701039	0.333130	-0.200798
F183	F	-0.367706	0.666463	0.132536
H184	H	-1.014680	-0.000198	-0.684934
H185	H	-0.681347	0.333136	-0.351601
H186	H	-0.348013	0.666469	-0.018268
H187	H	-0.764429	-0.000132	-0.651721
H188	H	-0.431096	0.333201	-0.318388
H189	H	-0.097762	0.666534	0.014946
H190	H	-0.766718	-0.000121	-0.508512
H191	H	-0.433385	0.333212	-0.175179
H192	H	-0.100052	0.666545	0.158155
H193	H	-0.647537	-0.000108	0.231384
H194	H	-0.314204	0.333225	0.564717
H195	H	0.019130	0.666559	0.898051
H196	H	-0.250232	-0.000150	0.225025
H197	H	0.083101	0.333184	0.558359
H198	H	0.416434	0.666517	0.891692
