data_functionalizedCrystal
_audit_creation_method	'MofGen! by Chris Wilmer'
_symmetry_space_group_name_H-M	'P1'
_symmetry_Int_Tables_number	1
_symmetry_cell_setting	triclinic
loop_
_symmetry_equiv_pos_as_xyz
  x,y,z
_cell_length_a	13.032831
_cell_length_b	13.897448
_cell_length_c	13.033109
_cell_angle_alpha	97.153140
_cell_angle_beta	76.665514
_cell_angle_gamma	82.822399
loop_
_atom_site_label
_atom_site_type_symbol
_atom_site_fract_x
_atom_site_fract_y
_atom_site_fract_z
Zn1	Zn	1.700113	-0.678106	-0.806401
Zn2	Zn	1.677445	-0.815943	-0.628782
Zn3	Zn	1.499937	-0.631189	-0.606295
Zn4	Zn	1.522460	-0.815858	-0.783826
O5	O	1.599989	-0.735274	-0.706326
O6	O	1.845742	-0.716060	-0.801698
O7	O	1.634986	-0.771836	-0.477168
O8	O	1.526552	-0.502443	-0.632875
O9	O	1.829088	-0.817329	-0.671203
O10	O	1.673620	-0.536912	-0.779893
O11	O	1.504572	-0.636098	-0.460646
O12	O	1.354289	-0.636016	-0.610986
O13	O	1.564938	-0.817184	-0.935453
O14	O	1.370836	-0.771691	-0.741418
O15	O	1.695459	-0.715978	-0.952038
O16	O	1.656825	-0.950902	-0.649313
O17	O	1.542958	-0.950840	-0.763223
C18	C	1.324023	-0.698754	-0.671313
C19	C	1.205967	-0.683157	-0.656359
C20	C	1.161536	-0.743414	-0.714130
C21	C	1.039519	-0.727296	-0.698676
C22	C	1.599907	-0.985874	-0.706286
C23	C	1.599974	-1.093100	-0.706316
C24	C	1.600094	-1.289418	-0.706397
C25	C	1.600025	-1.180173	-0.706355
C26	C	1.877032	-0.771938	-0.741477
C27	C	1.995092	-0.787562	-0.756456
C28	C	1.635240	-0.771805	-0.983361
C29	C	1.650262	-0.787373	-1.101417
C30	C	1.600102	-0.483702	-0.706394
C31	C	1.600151	-0.376498	-0.706423
C32	C	1.592433	-0.727152	-1.145876
C33	C	1.607957	-0.743241	-1.267892
C34	C	1.564936	-0.698824	-0.430376
C35	C	1.550120	-0.683012	-0.312347
H36	H	1.531426	-0.663689	-1.093605
O37	O	1.057585	-0.863237	-0.829188
C38	C	1.130494	-0.825894	-0.905985
H39	H	1.142262	-0.749988	-0.870742
H40	H	1.097842	-0.820189	-0.979347
C41	C	1.223894	-0.988575	-0.981668
C42	C	1.238354	-0.895349	-0.938378
H43	H	1.290426	-1.031419	-1.001654
H44	H	1.174771	-1.013735	-0.929931
H45	H	1.196680	-0.983807	-1.042797
H46	H	1.265554	-0.900117	-0.877243
H47	H	1.287483	-0.870192	-0.990105
O48	O	1.477404	-0.607177	-1.250127
C49	C	1.504092	-0.517657	-1.280105
H50	H	1.555104	-0.531609	-1.365849
H51	H	1.550829	-0.484228	-1.224636
C52	C	1.338545	-0.429044	-1.166641
C53	C	1.401192	-0.446179	-1.271958
H54	H	1.275072	-0.384950	-1.161611
H55	H	1.320566	-0.489354	-1.146441
H56	H	1.377505	-0.401191	-1.120429
H57	H	1.362236	-0.474042	-1.318166
H58	H	1.419161	-0.385871	-1.292166
H59	H	1.668963	-0.806713	-1.320159
H60	H	1.153673	-0.619632	-0.595462
O61	O	1.723175	-0.863048	-1.163665
C62	C	1.825635	-0.852423	-1.150095
H63	H	1.817672	-0.805087	-1.069822
H64	H	1.869316	-0.815741	-1.217054
C65	C	1.899086	-1.012451	-1.251853
C66	C	1.889306	-0.954319	-1.153255
H67	H	1.938364	-1.075305	-1.253807
H68	H	1.830058	-1.019609	-1.260999
H69	H	1.935483	-0.981871	-1.307641
H70	H	1.852897	-0.984893	-1.097470
H71	H	1.958330	-0.947169	-1.144099
O72	O	1.224037	-0.819086	-0.786855
C73	C	1.296948	-0.781743	-0.863649
H74	H	1.308710	-0.705834	-0.828407
H75	H	1.264303	-0.776044	-0.937015
C76	C	1.390359	-0.944422	-0.939320
C77	C	1.404811	-0.851193	-0.896032
H78	H	1.456893	-0.987264	-0.959300
H79	H	1.341235	-0.969582	-0.887585
H80	H	1.363151	-0.939659	-1.000453
H81	H	1.432006	-0.855956	-0.834893
H82	H	1.453942	-0.826036	-0.947757
H83	H	0.987229	-0.663766	-0.637775
