data_functionalizedCrystal
_audit_creation_method	'MofGen! by Chris Wilmer'
_symmetry_space_group_name_H-M	'P1'
_symmetry_Int_Tables_number	1
_symmetry_cell_setting	triclinic
loop_
_symmetry_equiv_pos_as_xyz
  x,y,z
_cell_length_a	13.033293
_cell_length_b	29.839131
_cell_length_c	13.032268
_cell_angle_alpha	82.866272
_cell_angle_beta	90.920818
_cell_angle_gamma	97.203227
loop_
_atom_site_label
_atom_site_type_symbol
_atom_site_fract_x
_atom_site_fract_y
_atom_site_fract_z
Zn1	Zn	1.498373	-0.139770	0.781400
Zn2	Zn	1.998373	0.360230	1.281400
Zn3	Zn	1.520074	-0.204330	0.609388
Zn4	Zn	2.020074	0.295670	1.109388
Zn5	Zn	1.348235	-0.137397	0.587577
Zn6	Zn	1.848235	0.362603	1.087577
Zn7	Zn	1.326313	-0.223058	0.759417
Zn8	Zn	1.826313	0.276942	1.259417
O9	O	1.423249	-0.176139	0.684445
O10	O	1.923249	0.323861	1.184445
O11	O	1.645175	-0.141489	0.776910
O12	O	2.145175	0.358511	1.276910
O13	O	1.515536	-0.186621	0.462592
O14	O	2.015536	0.313379	0.962592
O15	O	1.368243	-0.074844	0.613359
O16	O	1.868243	0.425156	1.113359
O17	O	1.661119	-0.188921	0.650534
O18	O	2.161119	0.311079	1.150534
O19	O	1.478549	-0.076587	0.755760
O20	O	1.978549	0.423413	1.255760
O21	O	1.389286	-0.137445	0.446567
O22	O	1.889286	0.362555	0.946567
O23	O	1.201403	-0.155605	0.592044
O24	O	1.701403	0.344395	1.092044
O25	O	1.330881	-0.220840	0.906237
O26	O	1.830881	0.279160	1.406237
O27	O	1.185298	-0.218540	0.718294
O28	O	1.685298	0.281460	1.218294
O29	O	1.457292	-0.159649	0.922387
O30	O	1.957292	0.340351	1.422387
O31	O	1.494279	-0.269683	0.629219
O32	O	1.994279	0.230317	1.129219
O33	O	1.351924	-0.283442	0.739444
O34	O	1.851924	0.216558	1.239444
C35	C	1.156033	-0.188848	0.650417
C36	C	1.656033	0.311152	1.150417
C37	C	1.041714	-0.194297	0.635884
C38	C	1.541714	0.305703	1.135884
C39	C	0.982845	-0.173306	0.692030
C40	C	1.482845	0.326694	1.192030
C41	C	0.864690	-0.178938	0.677011
C42	C	1.364690	0.321062	1.177011
C43	C	1.423103	-0.292864	0.684339
C44	C	1.923103	0.207136	1.184339
C45	C	1.423130	-0.342797	0.684340
C46	C	1.923130	0.157203	1.184340
C47	C	1.480659	-0.653318	0.758686
C48	C	1.980659	-0.153318	1.258686
C49	C	1.480762	-0.840990	0.758761
C50	C	1.980762	-0.340990	1.258761
O51	O	1.529530	-0.866005	0.821889
O52	O	2.029530	-0.366005	1.321889
N53	N	1.423409	-0.863580	0.684582
N54	N	1.923409	-0.363580	1.184582
C55	C	1.366020	-0.839249	0.610382
C56	C	1.866020	-0.339249	1.110382
O57	O	1.317231	-0.862770	0.547296
O58	O	1.817231	-0.362770	1.047296
C59	C	1.365911	-0.651579	0.610311
C60	C	1.865911	-0.151579	1.110311
C61	C	1.423277	-0.628991	0.684490
C62	C	1.923277	-0.128991	1.184490
C63	C	1.538019	-0.630730	0.832858
C64	C	2.038019	-0.130730	1.332858
C65	C	1.537997	-0.583815	0.832835
C66	C	2.037997	-0.083815	1.332835
C67	C	1.480615	-0.559487	0.758639
C68	C	1.980615	-0.059487	1.258639
C69	C	1.423254	-0.582075	0.684466
C70	C	1.923254	-0.082075	1.184466
C71	C	1.308517	-0.627250	0.536117
C72	C	1.808517	-0.127250	1.036117
C73	C	1.308492	-0.580330	0.536108
C74	C	1.808492	-0.080330	1.036108
C75	C	1.365858	-0.557742	0.610286
C76	C	1.865858	-0.057742	1.110286
C77	C	1.365850	-0.510832	0.610247
C78	C	1.865850	-0.010832	1.110247
N79	N	1.423204	-0.488243	0.684427
N80	N	1.923204	0.011757	1.184427
C81	C	1.480586	-0.512570	0.758623
C82	C	1.980586	-0.012570	1.258623
C83	C	1.366083	-0.937778	0.610423
C84	C	1.866083	-0.437778	1.110423
C85	C	1.366111	-0.984696	0.610439
C86	C	1.866111	-0.484696	1.110439
C87	C	1.480853	-0.986433	0.758820
C88	C	1.980853	-0.486433	1.258820
C89	C	1.480829	-0.939515	0.758799
C90	C	1.980829	-0.439515	1.258799
C91	C	1.423436	-0.915189	0.684603
C92	C	1.923436	-0.415189	1.184603
C93	C	1.480536	-0.414044	0.758568
C94	C	1.980536	0.085956	1.258568
C95	C	1.480512	-0.367124	0.758536
C96	C	1.980512	0.132876	1.258536
C97	C	1.365767	-0.365391	0.610158
C98	C	1.865767	0.134609	1.110158
C99	C	1.365795	-0.412306	0.610187
C100	C	1.865795	0.087694	1.110187
C101	C	1.423182	-0.436632	0.684401
C102	C	1.923182	0.063368	1.184401
O103	O	1.317099	-0.485790	0.547160
O104	O	1.817099	0.014210	1.047160
O105	O	1.529349	-0.489043	0.821714
O106	O	2.029349	0.010957	1.321714
C107	C	1.480681	-0.700234	0.758709
C108	C	1.980681	-0.200234	1.258709
C109	C	1.423321	-0.722822	0.684536
C110	C	1.923321	-0.222822	1.184536
C111	C	1.365938	-0.698494	0.610340
C112	C	1.865938	-0.198494	1.110340
C113	C	1.423349	-0.769739	0.684552
C114	C	1.923349	-0.269739	1.184552
C115	C	1.480731	-0.794067	0.758748
C116	C	1.980731	-0.294067	1.258748
C117	C	1.538085	-0.771477	0.832928
C118	C	2.038085	-0.271477	1.332928
C119	C	1.538063	-0.724561	0.832905
C120	C	2.038063	-0.224561	1.332905
C121	C	1.308585	-0.721084	0.536160
C122	C	1.808585	-0.221084	1.036160
C123	C	1.308613	-0.768000	0.536189
C124	C	1.808613	-0.268000	1.036189
C125	C	1.365995	-0.792327	0.610385
C126	C	1.865995	-0.292327	1.110385
C127	C	1.691508	-0.163381	0.718607
C128	C	2.191508	0.336619	1.218607
C129	C	1.805824	-0.157944	0.733165
C130	C	2.305824	0.342056	1.233165
C131	C	1.389220	-0.192598	0.952667
C132	C	1.889220	0.307402	1.452667
C133	C	1.374720	-0.199612	1.066968
C134	C	1.874720	0.300388	1.566968
C135	C	1.423420	-0.058958	0.684579
C136	C	1.923420	0.441042	1.184579
C137	C	1.423493	-0.009023	0.684635
C138	C	1.923493	0.490977	1.184635
C139	C	1.457204	-0.159708	0.417275
C140	C	1.957204	0.340292	0.917275
C141	C	1.471904	-0.152558	0.303000
C142	C	1.971904	0.347442	0.803000
C143	C	1.430801	-0.172463	1.125917
C144	C	1.930801	0.327537	1.625917
C145	C	1.415815	-0.179711	1.244053
C146	C	1.915815	0.320289	1.744053
H147	H	1.527230	-0.348734	0.818941
H148	H	2.027230	0.151266	1.318941
Cl149	Cl	0.807465	-0.213120	0.585617
Cl150	Cl	1.307465	0.286880	1.085617
H151	H	1.319411	-1.003081	0.550026
H152	H	1.819411	-0.503081	1.050026
H153	H	0.842893	-0.135799	0.792352
H154	H	1.342893	0.364201	1.292352
Cl155	Cl	1.293692	-0.440702	0.516922
Cl156	Cl	1.793692	0.059298	1.016922
H157	H	1.531010	-0.123944	1.266015
H158	H	2.031010	0.376056	1.766015
Cl159	Cl	1.552989	-1.017025	0.852096
Cl160	Cl	2.052989	-0.517025	1.352096
Cl161	Cl	1.236492	-0.796390	0.442923
Cl162	Cl	1.736492	-0.296390	0.942923
H163	H	1.004640	-0.216436	0.576695
H164	H	1.504640	0.283564	1.076695
H165	H	1.527258	-0.433845	0.819006
H166	H	2.027258	0.066155	1.319006
H167	H	1.261856	-0.701280	0.475742
H168	H	1.761856	-0.201280	0.975742
Cl169	Cl	1.522036	-0.128280	1.068813
Cl170	Cl	2.022036	0.371720	1.568813
Cl171	Cl	1.324544	-0.223884	1.301148
Cl172	Cl	1.824544	0.276116	1.801148
H173	H	1.584705	-0.565427	0.893240
H174	H	2.084705	-0.065427	1.393240
Cl175	Cl	1.610181	-0.696172	0.926164
Cl176	Cl	2.110181	-0.196172	1.426164
Cl177	Cl	1.040076	-0.139121	0.783412
Cl178	Cl	1.540076	0.360879	1.283412
Cl179	Cl	1.610163	-0.661305	0.926149
Cl180	Cl	2.110163	-0.161305	1.426149
H181	H	1.527541	-0.921126	0.819201
H182	H	2.027541	-0.421126	1.319201
Cl183	Cl	1.293921	-0.907204	0.517140
Cl184	Cl	1.793921	-0.407204	1.017140
Cl185	Cl	1.283453	-0.243783	1.124068
Cl186	Cl	1.783453	0.256217	1.624068
H187	H	1.261804	-0.645633	0.475713
H188	H	1.761804	-0.145633	0.975713
H189	H	1.261753	-0.560526	0.475689
H190	H	1.761753	-0.060526	0.975689
H191	H	1.584812	-0.791292	0.893338
H192	H	2.084812	-0.291292	1.393338
H193	H	1.319050	-0.345576	0.549746
H194	H	1.819050	0.154424	1.049746
