data_functionalizedCrystal
_audit_creation_method	'MofGen! by Chris Wilmer'
_symmetry_space_group_name_H-M	'P1'
_symmetry_Int_Tables_number	1
_symmetry_cell_setting	triclinic
loop_
_symmetry_equiv_pos_as_xyz
  x,y,z
_cell_length_a	14.044220
_cell_length_b	14.519709
_cell_length_c	12.503552
_cell_angle_alpha	86.474774
_cell_angle_beta	86.160109
_cell_angle_gamma	91.565489
loop_
_atom_site_label
_atom_site_type_symbol
_atom_site_fract_x
_atom_site_fract_y
_atom_site_fract_z
O1	O	1.263541	-0.217493	-0.089211
O2	O	0.987560	-0.209467	-0.089238
O3	O	1.132867	-0.079832	-0.089214
O4	O	1.118234	-0.347128	-0.089235
O5	O	1.121926	-0.089590	0.089427
O6	O	0.976619	-0.219225	0.089403
O7	O	1.252600	-0.227250	0.089430
Cu8	Cu	1.113611	-0.224128	0.105728
Cu9	Cu	1.126549	-0.212589	-0.105535
O10	O	1.107293	-0.356885	0.089406
C11	C	1.126715	-0.050296	0.000107
C12	C	1.124671	0.052250	0.000107
C13	C	0.946769	-0.210833	0.000079
C14	C	0.841526	-0.200356	0.000069
N15	N	1.104517	-0.232245	0.254319
C16	C	0.648831	-0.181202	0.000092
C17	C	0.591324	-0.255510	0.000091
C18	C	0.484102	-0.244853	0.000104
C19	C	0.756063	-0.191858	0.000079
C20	C	1.293391	-0.225884	0.000111
C21	C	1.398634	-0.236361	0.000114
C22	C	1.113446	-0.386421	0.000083
C23	C	1.115490	-0.488967	0.000076
C24	C	1.117148	0.427754	0.000078
C25	C	1.119237	0.323277	0.000087
C26	C	1.120909	0.240005	0.000094
C27	C	1.122999	0.135522	0.000100
N28	N	1.135650	-0.204466	-0.254127
C29	C	1.149022	-0.192523	0.526760
C30	C	1.091149	-0.244185	0.473426
C31	C	1.098589	-0.237540	0.351504
C32	C	1.141583	-0.199167	0.648693
H33	H	0.622617	-0.327131	0.000080
C34	C	1.016671	-0.310685	0.535436
C35	C	1.009035	-0.317112	0.659121
C36	C	0.934564	-0.383612	0.721137
C37	C	0.867729	-0.443686	0.659467
C38	C	0.875362	-0.437261	0.535775
C39	C	0.949833	-0.370761	0.473759
H40	H	1.058513	-0.272640	0.704779
H41	H	0.928914	-0.388368	0.812703
H42	H	0.812601	-0.492914	0.705375
H43	H	0.825884	-0.481733	0.490117
H44	H	0.955483	-0.366005	0.382193
C45	C	0.606565	-0.084450	0.000094
C46	C	0.497772	-0.073792	0.000098
C47	C	0.455492	0.022959	0.000094
C48	C	0.522006	0.109051	0.000086
C49	C	0.630806	0.098396	0.000082
C50	C	0.673085	0.001645	0.000086
H51	H	0.448528	-0.137526	0.000104
H52	H	0.374951	0.030846	0.000097
H53	H	0.490708	0.180672	0.000083
H54	H	0.680049	0.162130	0.000077
H55	H	0.753626	-0.006242	0.000084
H56	H	1.204153	-0.143308	0.480858
