data_functionalizedCrystal
_audit_creation_method	'MofGen! by Chris Wilmer'
_symmetry_space_group_name_H-M	'P1'
_symmetry_Int_Tables_number	1
_symmetry_cell_setting	triclinic
loop_
_symmetry_equiv_pos_as_xyz
  x,y,z
_cell_length_a	19.188930
_cell_length_b	16.109301
_cell_length_c	15.186229
_cell_angle_alpha	90.005167
_cell_angle_beta	90.017233
_cell_angle_gamma	83.303130
loop_
_atom_site_label
_atom_site_type_symbol
_atom_site_fract_x
_atom_site_fract_y
_atom_site_fract_z
O1	O	-0.926386	-0.103796	-0.073514
O2	O	-0.723108	-0.117769	-0.073454
O3	O	-0.830331	0.010267	-0.073477
O4	O	-0.819163	-0.231832	-0.073492
O5	O	-0.830324	0.010268	0.072980
O6	O	-0.723101	-0.117767	0.073003
O7	O	-0.926379	-0.103795	0.072943
Zn8	Zn	-0.824739	-0.110781	0.096226
Zn9	Zn	-0.824748	-0.110783	-0.096738
O10	O	-0.819156	-0.231831	0.072965
C11	C	-0.697092	-0.117316	-0.000218
C12	C	-0.619584	-0.115958	-0.000195
C13	C	-0.952395	-0.104248	-0.000296
C14	C	-1.029903	-0.105606	-0.000325
C15	C	-0.829875	0.041241	-0.000248
C16	C	-0.828519	0.133532	-0.000246
C17	C	-0.574836	-0.191085	-0.000213
C18	C	-0.502009	-0.189809	-0.000223
C19	C	-0.473934	-0.113401	-0.000232
C20	C	-0.518692	-0.038264	-0.000208
C21	C	-0.591517	-0.039542	-0.000190
N22	N	-0.365820	-0.054998	-0.050109
N23	N	-0.296638	-0.053788	-0.050129
C24	C	-0.254516	-0.109545	-0.000285
N25	N	-0.284188	-0.166569	0.049567
N26	N	-0.353375	-0.167781	0.049583
C27	C	-0.394968	-0.112007	-0.000251
C28	C	-0.130800	-0.183294	-0.000313
C29	C	-0.057973	-0.182015	-0.000317
C30	C	-0.074657	-0.030468	-0.000312
C31	C	-0.147483	-0.031749	-0.000299
C32	C	-0.175550	-0.108165	-0.000303
C33	C	-0.819612	-0.262805	-0.000266
C34	C	-0.820968	-0.355096	-0.000273
N35	N	-0.824737	-0.110779	0.227919
C36	C	-0.888990	0.356005	-0.000278
C37	C	-0.887710	0.442721	-0.000285
C38	C	-0.760493	0.422425	-0.000244
C39	C	-0.761773	0.335710	-0.000243
C40	C	-0.826024	0.302503	-0.000256
C41	C	-0.823463	0.475933	-0.000263
C42	C	-0.822075	0.569955	-0.000271
C43	C	-0.827412	0.208475	-0.000250
N44	N	-0.824755	-0.110779	-0.228430
C45	C	-0.872232	-0.054103	0.453632
C46	C	-0.872234	-0.054101	0.545821
C47	C	-0.777255	-0.167457	0.545850
C48	C	-0.777250	-0.167454	0.453662
C49	C	-0.824743	-0.110778	0.407555
C50	C	-0.824750	-0.110779	0.591933
C51	C	-0.824752	-0.110777	0.691889
C52	C	-0.824740	-0.110779	0.307593
H53	H	-0.597683	-0.253308	-0.000219
H54	H	-0.708182	0.449473	-0.000232
H55	H	-0.938983	0.486279	-0.000305
O56	O	-0.731213	-0.222549	0.408803
C57	C	-0.716323	-0.336170	0.304750
C58	C	-0.768534	-0.273814	0.355481
H59	H	-0.746477	-0.377645	0.261641
H60	H	-0.681461	-0.300422	0.261551
H61	H	-0.682371	-0.376645	0.353556
H62	H	-0.802532	-0.233324	0.306739
H63	H	-0.803348	-0.309613	0.398694
H64	H	-0.910902	-0.007953	0.416093
O65	O	-0.951339	0.323607	-0.000261
C66	C	-1.009696	0.199016	-0.000337
C67	C	-0.939036	0.235591	-0.000332
H68	H	-0.999774	0.127851	-0.000413
H69	H	-1.040823	0.221016	0.060957
H70	H	-1.040808	0.221115	-0.061628
H71	H	-0.907867	0.213509	0.060917
H72	H	-0.907962	0.213595	-0.061666
H73	H	-0.710496	0.292146	-0.000228
H74	H	-0.910904	-0.007950	0.583334
O75	O	-0.731195	-0.222482	0.590777
C76	C	-0.689084	-0.272696	0.732810
C77	C	-0.741294	-0.210345	0.682044
H78	H	-0.697221	-0.262893	0.806608
H79	H	-0.698166	-0.339279	0.714734
H80	H	-0.633173	-0.262038	0.714661
H81	H	-0.797225	-0.220926	0.700166
H82	H	-0.732152	-0.143784	0.700124
H83	H	-0.465568	-0.250988	-0.000235
H84	H	-0.495829	0.023948	-0.000228
H85	H	-0.153654	-0.245516	-0.000304
O86	O	-0.634890	0.033517	-0.000217
C87	C	-0.643754	0.183963	-0.000159
C88	C	-0.594553	0.101286	-0.000146
H89	H	-0.611161	0.238776	-0.000082
H90	H	-0.678274	0.187209	-0.061460
H91	H	-0.678259	0.187106	0.061125
H92	H	-0.560004	0.098087	-0.061388
H93	H	-0.560081	0.098074	0.061196
H94	H	-0.021538	-0.243195	-0.000327
O95	O	-0.047278	0.043683	-0.000361
C96	C	0.057519	0.112817	-0.000334
C97	C	0.026602	0.028781	-0.000302
H98	H	0.117254	0.100798	-0.000268
H99	H	0.039114	0.149940	-0.061637
H100	H	0.039068	0.149932	0.060947
H101	H	0.045038	-0.008402	-0.061542
H102	H	0.045003	-0.008279	0.061042
H103	H	-0.183919	0.029428	-0.000288
