data_functionalizedCrystal
_audit_creation_method	'MofGen! by Chris Wilmer'
_symmetry_space_group_name_H-M	'P1'
_symmetry_Int_Tables_number	1
_symmetry_cell_setting	triclinic
loop_
_symmetry_equiv_pos_as_xyz
  x,y,z
_cell_length_a	17.699083
_cell_length_b	23.532407
_cell_length_c	16.776229
_cell_angle_alpha	89.988688
_cell_angle_beta	89.998886
_cell_angle_gamma	83.065847
loop_
_atom_site_label
_atom_site_type_symbol
_atom_site_fract_x
_atom_site_fract_y
_atom_site_fract_z
O1	O	1.003713	0.072020	-0.066185
O2	O	1.503713	0.572020	0.433815
O3	O	0.783287	0.081390	-0.066212
O4	O	1.283287	0.581390	0.433788
O5	O	0.900147	-0.006208	-0.066183
O6	O	1.400147	0.493792	0.433817
O7	O	0.886853	0.159617	-0.066214
O8	O	1.386853	0.659617	0.433786
O9	O	0.900132	-0.006213	0.066394
O10	O	1.400132	0.493787	0.566394
O11	O	0.783272	0.081384	0.066365
O12	O	1.283272	0.581384	0.566365
O13	O	1.003698	0.072015	0.066392
O14	O	1.503698	0.572015	0.566392
Zn15	Zn	0.893482	0.076699	0.087428
Zn16	Zn	1.393482	0.576699	0.587428
Zn17	Zn	0.893503	0.076706	-0.087248
Zn18	Zn	1.393503	0.576706	0.412752
O19	O	0.886838	0.159612	0.066363
O20	O	1.386838	0.659612	0.566363
C21	C	0.755084	0.081051	0.000073
C22	C	1.255084	0.581051	0.500073
C23	C	0.671071	0.080044	0.000063
C24	C	1.171071	0.580044	0.500063
C25	C	0.622189	0.131462	0.000054
C26	C	1.122189	0.631462	0.500054
C27	C	0.543251	0.130512	0.000065
C28	C	1.043251	0.630512	0.500065
C29	C	0.513196	0.078144	0.000079
C30	C	1.013196	0.578144	0.500079
C31	C	0.562084	0.026722	0.000090
C32	C	1.062084	0.526722	0.500090
C33	C	0.641021	0.027672	0.000086
C34	C	1.141021	0.527672	0.500086
C35	C	0.243740	0.022888	0.000111
C36	C	0.743740	0.522888	0.500111
C37	C	0.164797	0.021942	0.000113
C38	C	0.664797	0.521942	0.500113
C39	C	0.145970	0.125728	0.000090
C40	C	0.645970	0.625728	0.500090
C41	C	0.224907	0.126678	0.000085
C42	C	0.724907	0.626678	0.500085
C43	C	0.273788	0.075257	0.000101
C44	C	0.773788	0.575257	0.500101
C45	C	0.359382	0.076287	0.000091
C46	C	0.859382	0.576287	0.500091
C47	C	0.427603	0.077113	0.000083
C48	C	0.927603	0.577113	0.500083
C49	C	0.899801	-0.027427	0.000107
C50	C	1.399801	0.472573	0.500107
C51	C	0.898783	-0.090647	0.000113
C52	C	1.398783	0.409353	0.500113
C53	C	0.961554	-0.489570	0.000077
C54	C	1.461554	0.010430	0.500077
C55	C	0.960609	-0.548973	0.000071
C56	C	1.460609	-0.048973	0.500071
O57	O	1.018799	-0.585550	0.000049
O58	O	1.518799	-0.085550	0.500049
N59	N	0.891136	-0.571799	0.000063
N60	N	1.391136	-0.071799	0.500063
C61	C	0.822604	-0.535218	0.000053
C62	C	1.322604	-0.035218	0.500053
O63	O	0.763424	-0.560088	0.000045
O64	O	1.263424	-0.060088	0.500045
C65	C	0.823550	-0.475816	0.000054
C66	C	1.323550	0.024184	0.500054
C67	C	0.893028	-0.452994	0.000070
C68	C	1.393028	0.047006	0.500070
C69	C	1.031026	-0.466747	0.000093
C70	C	1.531026	0.033253	0.500093
C71	C	1.031972	-0.407348	0.000100
C72	C	1.531972	0.092652	0.500100
C73	C	0.963445	-0.370772	0.000093
C74	C	1.463445	0.129228	0.500093
C75	C	0.893973	-0.393595	0.000078
C76	C	1.393973	0.106405	0.500078
C77	C	0.755019	-0.439237	0.000038
C78	C	1.255019	0.060763	0.500038
C79	C	0.755971	-0.379832	0.000038
C80	C	1.255971	0.120168	0.500038
C81	C	0.825448	-0.357009	0.000054
C82	C	1.325448	0.142991	0.500054
C83	C	0.826391	-0.297620	0.000078
C84	C	1.326391	0.202380	0.500078
N85	N	0.895864	-0.274795	0.000086
N86	N	1.395864	0.225205	0.500086
C87	C	0.964391	-0.311371	0.000093
C88	C	1.464391	0.188629	0.500093
C89	C	0.820622	-0.659966	0.000051
C90	C	1.320622	-0.159966	0.500051
C91	C	0.819674	-0.719367	0.000056
C92	C	1.319674	-0.219367	0.500056
C93	C	0.957680	-0.733118	0.000073
C94	C	1.457680	-0.233118	0.500073
C95	C	0.958626	-0.673716	0.000073
C96	C	1.458626	-0.173716	0.500073
C97	C	0.890095	-0.637141	0.000059
C98	C	1.390095	-0.137141	0.500059
C99	C	0.966371	-0.186628	0.000110
C100	C	1.466371	0.313372	0.500110
C101	C	0.967310	-0.127223	0.000121
C102	C	1.467310	0.372777	0.500121
C103	C	0.829305	-0.113478	0.000100
C104	C	1.329305	0.386522	0.500100
C105	C	0.828365	-0.172877	0.000094
C106	C	1.328365	0.327123	0.500094
C107	C	0.896904	-0.209452	0.000096
C108	C	1.396904	0.290548	0.500096
O109	O	0.768232	-0.261008	0.000097
O110	O	1.268232	0.238992	0.500097
O111	O	1.023560	-0.286493	0.000091
O112	O	1.523560	0.213507	0.500091
C113	C	1.031901	0.072353	0.000105
C114	C	1.531901	0.572353	0.500105
C115	C	1.115914	0.073360	0.000110
C116	C	1.615914	0.573360	0.500110
C117	C	0.887184	0.180832	0.000071
C118	C	1.387184	0.680832	0.500071
C119	C	0.888202	0.244052	0.000060
C120	C	1.388202	0.744052	0.500060
N121	N	0.893474	0.076693	0.206639
N122	N	1.393474	0.576693	0.706639
N123	N	0.893517	0.076706	-0.206459
N124	N	1.393517	0.576706	0.293541
C125	C	0.945235	0.037921	0.248369
C126	C	1.445235	0.537921	0.748369
C127	C	0.945239	0.037921	0.331821
C128	C	1.445239	0.537921	0.831821
C129	C	0.893485	0.076696	0.373542
C130	C	1.393485	0.576696	0.873542
C131	C	0.841719	0.115470	0.331806
C132	C	1.341719	0.615470	0.831806
C133	C	0.841712	0.115467	0.248355
C134	C	1.341712	0.615467	0.748355
C135	C	0.841746	0.115481	0.668353
C136	C	1.341746	0.615481	1.168353
C137	C	0.841759	0.115482	0.751810
C138	C	1.341759	0.615482	1.251810
C139	C	0.945274	0.037935	0.751819
C140	C	1.445274	0.537935	1.251819
C141	C	0.945267	0.037932	0.668368
C142	C	1.445267	0.537932	1.168368
C143	C	0.893498	0.076704	0.626640
C144	C	1.393498	0.576704	1.126640
C145	C	0.893493	0.076703	0.536151
C146	C	1.393493	0.576703	1.036151
C147	C	0.893493	0.076699	0.464029
C148	C	1.393493	0.576699	0.964029
H149	H	0.283530	-0.018983	0.000124
H150	H	0.783530	0.481017	0.500124
H151	H	0.987387	0.006349	0.365797
H152	H	1.487387	0.506349	0.865797
O153	O	0.098516	0.175696	-0.000059
O154	O	0.598516	0.675696	0.499941
C155	C	0.112088	0.207503	-0.068722
C156	C	0.612088	0.707503	0.431278
H157	H	0.139293	0.177400	-0.116707
H158	H	0.639293	0.677400	0.383293
H159	H	0.055905	0.230420	-0.091771
H160	H	0.555905	0.730420	0.408229
H161	H	0.152040	0.240411	-0.053212
H162	H	0.652040	0.740411	0.446788
O163	O	0.651417	0.182320	-0.000103
O164	O	1.151417	0.682320	0.499897
C165	C	0.696524	0.185973	-0.068760
C166	C	1.196524	0.685973	0.431240
H167	H	0.678079	0.156238	-0.116743
H168	H	1.178079	0.656238	0.383257
H169	H	0.689087	0.231882	-0.091818
H170	H	1.189087	0.731882	0.408182
H171	H	0.758880	0.172753	-0.053238
H172	H	1.258880	0.672753	0.446762
H173	H	0.140330	-0.020705	0.000126
H174	H	0.640330	0.479295	0.500126
H175	H	1.088547	-0.388773	0.000110
H176	H	1.588547	0.111227	0.500110
O177	O	0.791339	0.153078	0.372297
O178	O	1.291339	0.653078	0.872297
C179	C	0.716489	0.143896	0.351905
C180	C	1.216489	0.643896	0.851905
H181	H	0.716466	0.098298	0.328979
H182	H	1.216466	0.598298	0.828979
H183	H	0.678463	0.150481	0.406789
H184	H	1.178463	0.650481	0.906789
H185	H	0.694012	0.175482	0.303459
H186	H	1.194012	0.675482	0.803459
O187	O	0.689446	-0.344246	0.000132
O188	O	1.189446	0.155754	0.500132
C189	C	0.685839	-0.309495	0.068808
C190	C	1.185839	0.190505	0.568808
H191	H	0.745885	-0.306567	0.091712
H192	H	1.245885	0.193433	0.591712
H193	H	0.657298	-0.264812	0.053364
H194	H	1.157298	0.235188	0.553364
H195	H	0.651417	-0.329006	0.116879
H196	H	1.151417	0.170994	0.616879
O197	O	0.532765	-0.024099	0.000070
O198	O	1.032765	0.475901	0.500070
C199	C	0.452611	-0.013914	0.000090
C200	C	0.952611	0.486086	0.500090
H201	H	0.433736	0.030556	-0.025019
H202	H	0.933736	0.530556	0.474981
H203	H	0.428624	-0.047416	-0.038392
H204	H	0.928624	0.452584	0.461608
H205	H	0.430657	-0.016645	0.063695
H206	H	0.930657	0.483355	0.563695
H207	H	0.249373	0.169322	0.000070
H208	H	0.749373	0.669322	0.500070
H209	H	0.503454	0.172382	0.000056
H210	H	1.003454	0.672382	0.500056
H211	H	1.086833	-0.496522	0.000096
H212	H	1.586833	0.003478	0.500096
O213	O	0.752203	-0.741561	0.000189
O214	O	1.252203	-0.241561	0.500189
C215	C	0.747520	-0.775534	0.068836
C216	C	1.247520	-0.275534	0.568836
H217	H	0.786957	-0.761549	0.116836
H218	H	1.286957	-0.261549	0.616836
H219	H	0.686478	-0.770125	0.091873
H220	H	1.186478	-0.270125	0.591873
H221	H	0.765336	-0.822399	0.053308
H222	H	1.265336	-0.322399	0.553308
H223	H	0.680820	-0.014197	0.000093
H224	H	1.180820	0.485803	0.500093
O225	O	0.760810	-0.194956	0.000045
O226	O	1.260810	0.305044	0.500045
C227	C	0.700530	-0.149932	0.000064
C228	C	1.200530	0.350068	0.500064
H229	H	0.721440	-0.109598	-0.025018
H230	H	1.221440	0.390402	0.474982
H231	H	0.652004	-0.162273	-0.038443
H232	H	1.152004	0.337727	0.461557
H233	H	0.679401	-0.141517	0.063665
H234	H	1.179401	0.358483	0.563665
H235	H	0.773512	-0.083687	0.000097
H236	H	1.273512	0.416313	0.500097
H237	H	1.023889	-0.108645	0.000136
H238	H	1.523889	0.391355	0.500136
H239	H	0.987382	0.006348	0.214405
H240	H	1.487382	0.506348	0.714405
H241	H	0.987412	0.006360	0.634402
H242	H	1.487412	0.506360	1.134402
H243	H	0.764811	-0.630189	0.000046
H244	H	1.264811	-0.130189	0.500046
H245	H	0.799595	0.147051	0.634384
H246	H	1.299595	0.647051	1.134384
O247	O	0.995485	0.000287	0.792479
O248	O	1.495485	0.500287	1.292479
C249	C	0.984409	0.008609	0.875081
C250	C	1.484409	0.508609	1.375081
H251	H	0.924077	0.029949	0.886481
H252	H	1.424077	0.529949	1.386481
H253	H	0.993163	-0.034529	0.906807
H254	H	1.493163	0.465471	1.406807
H255	H	1.027030	0.037134	0.898749
H256	H	1.527030	0.537134	1.398749
H257	H	1.022182	-0.216401	0.000109
H258	H	1.522182	0.283599	0.500109
H259	H	1.015201	-0.655139	0.000086
H260	H	1.515201	-0.155139	0.500086
O261	O	0.791404	0.153168	0.792215
O262	O	1.291404	0.653168	1.292215
C263	C	0.745720	0.187397	0.737491
C264	C	1.245720	0.687397	1.237491
H265	H	0.745037	0.164048	0.678011
H266	H	1.245037	0.664048	1.178011
H267	H	0.685216	0.196136	0.761612
H268	H	1.185216	0.696136	1.261612
H269	H	0.769963	0.229685	0.728598
H270	H	1.269963	0.729685	1.228598
H271	H	0.698442	-0.457808	0.000020
H272	H	1.198442	0.042192	0.500020
H273	H	1.013478	-0.762909	0.000076
H274	H	1.513478	-0.262909	0.500076
O275	O	0.791536	0.153156	0.207728
O276	O	1.291536	0.653156	0.707728
C277	C	0.831795	0.188261	0.159453
C278	C	1.331795	0.688261	0.659453
H279	H	0.891188	0.165523	0.146952
H280	H	1.391188	0.665523	0.646952
H281	H	0.800131	0.197297	0.100771
H282	H	1.300131	0.697297	0.600771
H283	H	0.836618	0.230349	0.191597
H284	H	1.336618	0.730349	0.691597
