data_functionalizedCrystal
_audit_creation_method	'MofGen! by Chris Wilmer'
_symmetry_space_group_name_H-M	'P1'
_symmetry_Int_Tables_number	1
_symmetry_cell_setting	triclinic
loop_
_symmetry_equiv_pos_as_xyz
  x,y,z
_cell_length_a	10.654550
_cell_length_b	9.730223
_cell_length_c	10.654551
_cell_angle_alpha	89.999594
_cell_angle_beta	84.485180
_cell_angle_gamma	89.996981
loop_
_atom_site_label
_atom_site_type_symbol
_atom_site_fract_x
_atom_site_fract_y
_atom_site_fract_z
O1	O	1.667835	0.114181	0.176393
O2	O	1.302356	0.114206	0.193200
O3	O	1.493498	0.114190	0.002057
O4	O	1.476693	0.114197	0.367536
O5	O	1.493496	-0.114390	0.002062
O6	O	1.302354	-0.114374	0.193204
O7	O	1.667833	-0.114398	0.176398
Zn8	Zn	1.485093	-0.150678	0.184802
Zn9	Zn	1.485096	0.150486	0.184796
O10	O	1.476691	-0.114383	0.367540
C11	C	1.255557	-0.000081	0.191968
C12	C	1.116114	-0.000071	0.188276
N13	N	1.485100	-0.356214	0.184806
C14	C	1.036629	-0.000073	0.300818
C15	C	0.905608	-0.000097	0.297341
C16	C	0.933570	-0.000112	0.068772
C17	C	1.064589	-0.000097	0.072249
C18	C	1.569760	-0.428148	0.100197
C19	C	1.569756	-0.572031	0.100182
C20	C	1.400430	-0.572035	0.269395
C21	C	1.400428	-0.428154	0.269403
C22	C	1.667522	-0.428146	0.002506
C23	C	1.667519	-0.572029	0.002491
C24	C	1.714632	-0.000109	0.177630
C25	C	1.854075	-0.000109	0.181322
C26	C	1.492262	-0.000097	-0.044738
C27	C	1.488570	-0.000091	-0.184181
N28	N	1.485099	0.356022	0.184782
C29	C	1.486838	0.124510	-0.249688
C30	C	1.483358	0.124511	-0.380708
C31	C	1.483347	-0.124699	-0.380705
C32	C	1.486818	-0.124699	-0.249686
C33	C	1.477926	-0.000092	0.414336
C34	C	1.481619	-0.000089	0.553779
H35	H	1.078576	-0.000062	0.395294
H36	H	0.840896	-0.000101	0.388984
O37	O	1.141862	-0.000334	-0.037046
C38	C	1.306090	-0.118704	-0.165720
C39	C	1.218630	-0.118617	-0.041920
H40	H	1.368198	-0.214310	-0.169689
H41	H	1.246824	-0.118801	-0.249294
H42	H	1.368058	-0.022994	-0.169790
H43	H	1.156645	-0.214310	-0.037727
H44	H	1.277971	-0.118448	0.041596
O45	O	0.883307	-0.000065	-0.043823
C46	C	0.693860	-0.000169	-0.150482
C47	C	0.750611	-0.000194	-0.022880
H48	H	0.586568	-0.000302	-0.133594
H49	H	0.726413	0.095514	-0.206178
H50	H	0.726601	-0.095807	-0.206148
H51	H	0.717896	0.095380	0.032888
H52	H	0.718063	-0.095940	0.032721
O53	O	1.776182	-0.374860	0.039238
C54	C	1.871675	-0.232995	0.189210
C55	C	1.748536	-0.293260	0.147736
H56	H	1.849364	-0.166985	0.276920
H57	H	1.937497	-0.320214	0.211390
H58	H	1.919324	-0.167091	0.109955
H59	H	1.700780	-0.359148	0.226940
H60	H	1.682803	-0.205976	0.125514
O61	O	1.488296	0.245591	-0.186092
C62	C	1.380766	0.458630	-0.132821
C63	C	1.378951	0.321535	-0.204867
H64	H	1.292383	0.520082	-0.147997
H65	H	1.383463	0.437330	-0.027897
H66	H	1.467857	0.520016	-0.169308
H67	H	1.291871	0.260080	-0.168487
H68	H	1.376320	0.342931	-0.309781
H69	H	1.481945	0.225973	-0.434037
H70	H	1.331481	-0.369588	0.338287
O71	O	1.318013	-0.641860	0.351444
C72	C	1.100278	-0.685810	0.423039
C73	C	1.193476	-0.606676	0.330026
H74	H	0.999570	-0.657371	0.405773
H75	H	1.114708	-0.801018	0.408496
H76	H	1.117572	-0.657553	0.523779
H77	H	1.176239	-0.634818	0.229249
H78	H	1.179025	-0.491487	0.344679
H79	H	1.488221	-0.226170	-0.196348
O80	O	1.481437	-0.245772	-0.444259
C81	C	1.371805	-0.458800	-0.471022
C82	C	1.373792	-0.321720	-0.398972
H83	H	1.284797	-0.520255	-0.434417
H84	H	1.368951	-0.437477	-0.575923
H85	H	1.460264	-0.520193	-0.456007
H86	H	1.285351	-0.260258	-0.413885
H87	H	1.376712	-0.343140	-0.294097
O88	O	1.782753	-0.618477	0.028004
C89	C	2.005901	-0.622938	-0.035850
C90	C	1.875489	-0.570214	-0.064869
H91	H	2.080910	-0.583964	-0.110934
H92	H	2.027474	-0.583880	0.060645
H93	H	2.005847	-0.740101	-0.035817
H94	H	1.875446	-0.453057	-0.064970
H95	H	1.853967	-0.609377	-0.161343
H96	H	1.646079	-0.389092	-0.094026
H97	H	1.637006	-0.616644	-0.088732
