data_functionalizedCrystal
_audit_creation_method	'MofGen! by Chris Wilmer'
_symmetry_space_group_name_H-M	'P1'
_symmetry_Int_Tables_number	1
_symmetry_cell_setting	triclinic
loop_
_symmetry_equiv_pos_as_xyz
  x,y,z
_cell_length_a	15.712078
_cell_length_b	19.188924
_cell_length_c	14.750779
_cell_angle_alpha	77.399495
_cell_angle_beta	106.492891
_cell_angle_gamma	101.361556
loop_
_atom_site_label
_atom_site_type_symbol
_atom_site_fract_x
_atom_site_fract_y
_atom_site_fract_z
O1	O	1.126581	0.392880	-0.080071
O2	O	0.875140	0.339774	-0.080020
O3	O	1.008122	0.266542	-0.080036
O4	O	0.993599	0.466113	-0.080055
O5	O	1.045715	0.245843	0.079610
O6	O	0.912732	0.319076	0.079626
O7	O	1.164174	0.372181	0.079575
Zn8	Zn	1.044422	0.342342	0.104948
Zn9	Zn	0.994892	0.369613	-0.105393
O10	O	1.031191	0.445414	0.079591
C11	C	0.861768	0.320750	-0.000190
C12	C	0.765916	0.294891	-0.000170
C13	C	0.397962	0.514424	-0.000258
C14	C	0.307888	0.490115	-0.000280
C15	C	0.328971	0.368296	-0.000270
C16	C	0.419047	0.392595	-0.000253
C17	C	0.453536	0.465660	-0.000246
C18	C	0.474621	0.343830	-0.000241
C19	C	0.564691	0.368127	-0.000219
C20	C	0.599187	0.441188	-0.000209
C21	C	0.543606	0.489956	-0.000224
C22	C	0.440132	0.270765	-0.000241
C23	C	0.495706	0.222000	-0.000229
C24	C	0.585776	0.246298	-0.000214
C25	C	0.620272	0.319359	-0.000204
C26	C	0.641357	0.197530	-0.000199
C27	C	0.731427	0.221826	-0.000177
C28	C	0.710342	0.343656	-0.000182
C29	C	1.026450	0.230060	-0.000212
C30	C	1.025042	0.152192	-0.000209
C31	C	1.003893	0.126906	-0.087232
C32	C	1.002556	0.053740	-0.087239
C33	C	1.022386	0.005864	-0.000218
C34	C	1.043533	0.031156	0.086817
C35	C	1.044861	0.104320	0.086821
N36	N	1.084692	-0.110062	0.064540
N37	N	1.083431	-0.179564	0.064530
C38	C	1.018384	-0.214575	-0.000226
N39	N	0.954654	-0.177456	-0.064987
N40	N	0.955918	-0.107947	-0.064979
C41	C	1.020948	-0.073471	-0.000213
C42	C	0.995782	-0.319195	-0.087263
C43	C	0.994441	-0.392364	-0.087266
C44	C	1.035427	-0.414945	0.086792
C45	C	1.036760	-0.341779	0.086793
C46	C	1.016941	-0.293907	-0.000237
C47	C	1.177545	0.391206	-0.000257
C48	C	1.273396	0.417065	-0.000283
C49	C	1.012863	0.481896	-0.000235
C50	C	1.014270	0.559765	-0.000245
N51	N	1.078231	0.323731	0.248499
N52	N	0.961090	0.388221	-0.248944
C53	C	0.866666	0.440167	0.600343
C54	C	0.890363	0.427132	0.700839
C55	C	1.008143	0.362326	0.700788
C56	C	0.984453	0.375352	0.600289
C57	C	0.913714	0.414274	0.550075
C58	C	1.031501	0.349459	0.550021
C59	C	1.007815	0.362488	0.449532
C60	C	0.937081	0.401410	0.399310
C61	C	0.890028	0.427303	0.449585
C62	C	1.102244	0.310542	0.600238
C63	C	1.149292	0.284649	0.549970
C64	C	1.125602	0.297673	0.449479
C65	C	1.054868	0.336595	0.399257
C66	C	1.172655	0.271780	0.399204
C67	C	1.148969	0.284809	0.298714
C68	C	1.031182	0.349624	0.298767
H69	H	0.672529	0.460969	-0.000188
H70	H	1.065742	0.330637	0.741684
H71	H	0.613266	0.138038	-0.000192
N72	N	0.293753	0.293661	-0.000269
N73	N	0.326697	0.246855	0.067027
H74	H	0.301827	0.194143	0.067027
H75	H	0.917800	0.412021	0.317485
N76	N	0.433208	0.589059	-0.000266
N77	N	0.465298	0.624934	-0.067551
H78	H	0.490192	0.677643	-0.067557
N79	N	1.066463	0.130139	0.175726
N80	N	1.084159	0.087388	0.253420
H81	H	1.099416	0.105623	0.316211
N82	N	1.126446	0.297231	0.702886
N83	N	1.203673	0.320025	0.747716
H84	H	1.220764	0.310624	0.820212
H85	H	0.776677	0.182117	-0.000170
H86	H	1.206891	0.252960	0.590866
N87	N	1.244921	0.232040	0.450517
N88	N	1.266069	0.220422	0.540239
H89	H	1.317111	0.192358	0.576481
H90	H	0.832420	0.458991	0.408698
H91	H	1.187282	0.263725	0.257786
H92	H	0.366794	0.250983	-0.000247
H93	H	0.571688	0.549453	-0.000217
N94	N	0.975549	-0.270288	-0.176155
N95	N	1.022534	-0.261796	-0.234436
H96	H	1.008246	-0.227255	-0.297217
N97	N	0.745585	0.418289	-0.000161
N98	N	0.809314	0.436702	0.067148
H99	H	0.834207	0.489409	0.067166
N100	N	0.251134	0.539940	-0.000284
N101	N	0.281944	0.605171	-0.000271
H102	H	0.241863	0.640360	-0.000270
N103	N	0.460476	0.147367	-0.000219
N104	N	0.428396	0.111483	0.067067
H105	H	0.403516	0.058772	0.067074
N106	N	0.983645	0.175794	-0.176136
N107	N	0.964760	0.153202	-0.253831
H108	H	0.950458	0.187730	-0.316622
H109	H	0.977213	-0.412949	-0.158134
H110	H	0.985328	0.033148	-0.158106
N111	N	1.063779	-0.017755	0.175698
N112	N	1.062591	-0.083078	0.175683
H113	H	1.076886	-0.117623	0.238458
N114	N	1.055669	-0.463852	0.175674
N115	N	1.054474	-0.529176	0.175661
H116	H	1.068765	-0.563722	0.238436
H117	H	1.053989	-0.321191	0.157656
N118	N	0.958925	0.389388	0.247478
N119	N	0.962500	0.452708	0.258697
H120	H	0.911472	0.480791	0.222474
H121	H	0.809057	0.471855	0.559456
H122	H	0.852045	0.448222	0.741762
