data_functionalizedCrystal
_audit_creation_method	'MofGen! by Chris Wilmer'
_symmetry_space_group_name_H-M	'P1'
_symmetry_Int_Tables_number	1
_symmetry_cell_setting	triclinic
loop_
_symmetry_equiv_pos_as_xyz
  x,y,z
_cell_length_a	14.519709
_cell_length_b	19.288864
_cell_length_c	18.366186
_cell_angle_alpha	90.022894
_cell_angle_beta	89.992822
_cell_angle_gamma	96.591805
loop_
_atom_site_label
_atom_site_type_symbol
_atom_site_fract_x
_atom_site_fract_y
_atom_site_fract_z
O1	O	0.115045	-0.921767	-0.060785
O2	O	0.130564	-0.719562	-0.060735
O3	O	-0.011468	-0.826026	-0.060755
O4	O	0.257077	-0.815303	-0.060765
O5	O	-0.011475	-0.826007	0.060345
O6	O	0.130557	-0.719544	0.060364
O7	O	0.115038	-0.921749	0.060315
Zn8	Zn	0.122797	-0.820643	0.079567
Zn9	Zn	0.122806	-0.820667	-0.079987
O10	O	0.257070	-0.815285	0.060334
C11	C	0.130061	-0.693675	-0.000179
C12	C	0.128562	-0.616566	-0.000160
C13	C	0.115541	-0.947636	-0.000243
C14	C	0.117040	-1.024745	-0.000267
C15	C	-0.045828	-0.825517	-0.000205
C16	C	-0.148200	-0.824019	-0.000204
C17	C	-0.523061	-0.818507	-0.000222
C18	C	-0.418762	-0.820037	-0.000216
C19	C	-0.335633	-0.821263	-0.000212
C20	C	-0.231329	-0.822794	-0.000208
C21	C	0.291430	-0.815794	-0.000217
C22	C	0.393802	-0.817291	-0.000223
N23	N	0.122790	-0.820632	0.188458
C24	C	0.211900	-0.572169	-0.000175
C25	C	0.210492	-0.499717	-0.000183
C26	C	0.125741	-0.471665	-0.000191
C27	C	0.042392	-0.516071	-0.000172
C28	C	0.043803	-0.588521	-0.000156
C29	C	0.059120	-0.363169	-0.042639
C30	C	0.057713	-0.290720	-0.042659
C31	C	0.121387	-0.248203	-0.000234
C32	C	0.186484	-0.278144	0.042200
C33	C	0.187894	-0.350595	0.042215
C34	C	0.124202	-0.393105	-0.000207
C35	C	0.203203	-0.125246	-0.000257
C36	C	0.201792	-0.052792	-0.000260
C37	C	0.033689	-0.069148	-0.000257
C38	C	0.035103	-0.141599	-0.000246
C39	C	0.119863	-0.169644	-0.000249
N40	N	0.122805	-0.820684	-0.188878
C41	C	0.059929	-0.867790	0.226549
C42	C	0.059925	-0.867794	0.302777
C43	C	0.122797	-0.820648	0.340910
C44	C	0.185663	-0.773481	0.302809
C45	C	0.185659	-0.773473	0.226583
C46	C	0.206826	-0.811652	0.461669
C47	C	0.206831	-0.811664	0.537894
C48	C	0.122809	-0.820667	0.576018
C49	C	0.038778	-0.829673	0.537908
C50	C	0.038775	-0.829665	0.461681
C51	C	0.122808	-0.820650	0.423565
C52	C	0.059938	-0.867832	0.696765
C53	C	0.059933	-0.867832	0.772994
C54	C	0.185679	-0.773522	0.773025
C55	C	0.185677	-0.773519	0.696797
C56	C	0.122807	-0.820678	0.658671
H57	H	0.280918	-0.594998	-0.000179
H58	H	-0.032760	-0.177748	-0.000238
N59	N	-0.004308	-0.915985	0.811907
N60	N	-0.061485	-0.893870	0.854444
H61	H	-0.106866	-0.927874	0.881924
H62	H	0.004711	-0.266348	-0.077214
H63	H	0.275251	-0.804308	0.430634
N64	N	-0.005941	-0.406586	-0.085974
N65	N	-0.064052	-0.379847	-0.123860
H66	H	-0.110003	-0.410509	-0.154463
H67	H	0.272220	-0.148080	-0.000249
N68	N	-0.044188	-0.487431	-0.000174
N69	N	-0.100307	-0.500969	0.050878
H70	H	-0.161458	-0.480745	0.050881
H71	H	0.236868	-0.735122	0.665780
H72	H	-0.035317	-0.046308	-0.000308
H73	H	0.269658	-0.016645	-0.000268
N74	N	-0.004399	-0.915918	0.657826
N75	N	-0.060605	-0.957959	0.691850
H76	H	-0.106088	-0.991889	0.664353
H77	H	-0.029646	-0.836995	0.430655
H78	H	0.236854	-0.735092	0.333861
H79	H	-0.024063	-0.624670	-0.000145
N80	N	-0.047048	-0.838859	0.576851
N81	N	-0.047037	-0.838852	0.644909
H82	H	-0.107649	-0.845337	0.672417
N83	N	-0.004218	-0.916023	0.187618
N84	N	-0.060289	-0.958164	0.221644
H85	H	-0.105565	-0.992251	0.194148
N86	N	-0.004299	-0.915969	0.341687
N87	N	-0.060428	-0.958067	0.307637
H88	H	-0.105786	-0.992091	0.335115
H89	H	0.240896	-0.374969	0.076770
H90	H	0.236868	-0.735132	0.804072
H91	H	0.275253	-0.804336	0.568917
H92	H	0.236849	-0.735071	0.195568
H93	H	0.238333	-0.243528	0.076747
N94	N	0.295632	-0.454367	-0.000194
N95	N	0.371301	-0.479415	-0.000193
H96	H	0.431432	-0.447389	-0.000201
