data_functionalizedCrystal
_audit_creation_method	'MofGen! by Chris Wilmer'
_symmetry_space_group_name_H-M	'P1'
_symmetry_Int_Tables_number	1
_symmetry_cell_setting	triclinic
loop_
_symmetry_equiv_pos_as_xyz
  x,y,z
_cell_length_a	14.519731
_cell_length_b	10.654550
_cell_length_c	9.730223
_cell_angle_alpha	89.996251
_cell_angle_beta	89.995895
_cell_angle_gamma	95.913122
loop_
_atom_site_label
_atom_site_type_symbol
_atom_site_fract_x
_atom_site_fract_y
_atom_site_fract_z
O1	O	-0.129527	1.666602	-0.114385
O2	O	-0.141868	1.301006	-0.114361
O3	O	-0.001510	1.493483	-0.114383
O4	O	-0.269884	1.474125	-0.114362
O5	O	-0.001514	1.493481	0.114197
O6	O	-0.141871	1.301004	0.114219
O7	O	-0.129531	1.666600	0.114195
Zn8	Zn	-0.135702	1.483802	0.150499
Zn9	Zn	-0.135697	1.483804	-0.150665
O10	O	-0.269888	1.474123	0.114218
C11	C	-0.140964	1.254216	-0.000068
C12	C	-0.138253	1.114798	-0.000060
C13	C	-0.220893	1.034527	-0.000073
C14	C	-0.218340	0.903530	-0.000097
C15	C	-0.050499	0.933090	-0.000100
C16	C	-0.053053	1.064084	-0.000066
C17	C	-0.306092	1.085241	-0.000067
C18	C	-0.388739	1.004968	-0.000082
C19	C	-0.386186	0.873971	-0.000106
C20	C	-0.300986	0.823248	-0.000115
C21	C	-0.304250	1.475031	-0.000070
C22	C	-0.406645	1.477749	-0.000063
C23	C	-0.489800	1.479957	-0.000068
C24	C	-0.594123	1.482717	-0.000082
C25	C	-0.677274	1.484907	-0.000093
C26	C	-0.781603	1.487667	-0.000104
C27	C	0.032852	1.492575	-0.000099
C28	C	0.135246	1.489857	-0.000115
C29	C	-0.130435	1.713390	-0.000100
C30	C	-0.133146	1.852808	-0.000118
N31	N	-0.135704	1.483809	0.356036
N32	N	-0.135687	1.483807	-0.356201
C33	C	-0.073575	1.569059	0.427952
C34	C	-0.073564	1.569056	0.571835
C35	C	-0.197819	1.398547	0.571873
C36	C	-0.197825	1.398546	0.427992
C37	C	-0.011454	1.654322	0.355995
C38	C	0.050679	1.739581	0.427911
C39	C	0.050690	1.739578	0.571794
C40	C	-0.011432	1.654316	0.643761
H41	H	-0.458106	1.046276	-0.000063
H42	H	-0.453481	0.808616	-0.000105
C43	C	-0.343009	0.627578	-0.117654
C44	C	-0.298175	0.679254	-0.000142
H45	H	-0.341267	0.538686	-0.117677
H46	H	-0.405569	0.646288	-0.117631
H47	H	-0.312584	0.662702	-0.197351
H48	H	-0.328604	0.644137	0.079555
H49	H	-0.235603	0.660534	-0.000153
H50	H	0.014240	1.129444	-0.000059
H51	H	-0.011460	1.654335	0.238838
H52	H	0.018866	0.891780	-0.000130
C53	C	-0.250479	1.181274	0.616219
C54	C	-0.266102	1.304838	0.650980
H55	H	-0.292633	1.123424	0.665064
H56	H	-0.259381	1.169076	0.520249
H57	H	-0.188831	1.167517	0.639792
H58	H	-0.327749	1.318598	0.627397
H59	H	-0.257208	1.317041	0.746971
H60	H	-0.248415	1.329126	0.369438
C61	C	0.105888	1.815227	0.207334
C62	C	0.119001	1.833243	0.348811
H63	H	0.148077	1.873042	0.158507
H64	H	0.116440	1.731385	0.183793
H65	H	0.044254	1.829058	0.183754
H66	H	0.180632	1.819403	0.372393
H67	H	0.108455	1.917106	0.372362
C68	C	0.173504	1.908122	0.557297
C69	C	0.118986	1.833289	0.650847
H70	H	0.215662	1.965984	0.606102
H71	H	0.207034	1.855779	0.501177
H72	H	0.134789	1.953371	0.501183
H73	H	0.157701	1.788032	0.706955
H74	H	0.085454	1.885639	0.706990
H75	H	-0.011411	1.654312	0.760920
H76	H	-0.308180	1.191903	-0.000054
