data_functionalizedCrystal
_audit_creation_method	'MofGen! by Chris Wilmer'
_symmetry_space_group_name_H-M	'P1'
_symmetry_Int_Tables_number	1
_symmetry_cell_setting	triclinic
loop_
_symmetry_equiv_pos_as_xyz
  x,y,z
_cell_length_a	12.759401
_cell_length_b	12.827892
_cell_length_c	12.759393
_cell_angle_alpha	90.029782
_cell_angle_beta	90.020938
_cell_angle_gamma	90.016917
loop_
_atom_site_label
_atom_site_type_symbol
_atom_site_fract_x
_atom_site_fract_y
_atom_site_fract_z
Zn1	Zn	1.606261	-0.415940	0.594025
Zn2	Zn	1.606150	-0.590717	0.418348
Zn3	Zn	1.430560	-0.415996	0.418361
Zn4	Zn	1.430550	-0.590644	0.593985
O5	O	1.518380	-0.503324	0.506180
O6	O	1.753268	-0.439132	0.570733
O7	O	1.582816	-0.567594	0.271328
O8	O	1.453918	-0.269752	0.441685
O9	O	1.753186	-0.567540	0.441663
O10	O	1.583005	-0.269711	0.570745
O11	O	1.453810	-0.439227	0.271338
O12	O	1.283538	-0.439156	0.441646
O13	O	1.453900	-0.567416	0.741011
O14	O	1.283530	-0.567469	0.570676
O15	O	1.582995	-0.439061	0.741041
O16	O	1.582806	-0.736944	0.441624
O17	O	1.453793	-0.736890	0.570664
C18	C	1.245413	-0.503312	0.506159
C19	C	1.128636	-0.503331	0.506175
C20	C	1.073798	-0.570246	0.573255
C21	C	0.964074	-0.570250	0.573276
C22	C	0.964036	-0.436422	0.439127
C23	C	1.073758	-0.436413	0.439112
C24	C	1.518315	-0.774834	0.506161
C25	C	1.518383	-0.890987	0.506188
C26	C	1.582298	-0.942764	0.442406
C27	C	1.582370	-1.062814	0.442433
C28	C	1.792414	-0.503338	0.506201
C29	C	1.909190	-0.503344	0.506210
C30	C	1.518459	-0.503224	0.780213
C31	C	1.518492	-0.503181	0.896990
C32	C	1.518475	-0.230754	0.506221
C33	C	1.518515	-0.114601	0.506239
C34	C	1.518363	-0.503349	0.233212
C35	C	1.518533	-0.503097	0.116436
C36	C	1.585717	-0.436336	0.951869
C37	C	1.585735	-0.436291	1.061593
C38	C	1.451301	-0.569945	1.061549
C39	C	1.451278	-0.569984	0.951827
H40	H	0.919341	-0.381941	0.384525
O41	O	1.127154	-0.635350	0.638254
C42	C	1.190597	-0.702756	0.578321
H43	H	1.157491	-0.709120	0.495567
H44	H	1.191842	-0.783221	0.616185
H45	H	1.273760	-0.670436	0.574747
O46	O	1.386087	-0.635073	0.898557
C47	C	1.408995	-0.739218	0.925369
H48	H	1.492930	-0.744492	0.955548
H49	H	1.399914	-0.790867	0.853198
H50	H	1.352667	-0.766511	0.989041
H51	H	0.919429	-0.624737	0.627901
H52	H	1.396580	-0.624336	1.106211
H53	H	1.636970	-0.898218	0.387783
O54	O	1.126873	-0.371376	0.373846
C55	C	1.054911	-0.312302	0.314670
H56	H	0.976684	-0.355105	0.310963
H57	H	1.086579	-0.301053	0.231910
H58	H	1.043278	-0.232983	0.353284
O59	O	1.651107	-0.371587	0.898550
C60	C	1.718916	-0.431101	0.835061
H61	H	1.725392	-0.513395	0.868112
H62	H	1.799779	-0.393303	0.833833
H63	H	1.686412	-0.434730	0.751900
H64	H	1.637087	-1.107341	0.387824
O65	O	1.453281	-1.061610	0.571538
C66	C	1.476200	-1.088086	0.676301
H67	H	1.516561	-1.167324	0.678604
H68	H	1.400352	-1.091740	0.723351
H69	H	1.530219	-1.026606	0.711663
O70	O	1.453128	-0.943962	0.571460
C71	C	1.393665	-0.872512	0.630740
H72	H	1.436577	-0.794638	0.634468
H73	H	1.382462	-0.904077	0.713486
H74	H	1.313875	-0.861043	0.592202
O75	O	1.651138	-0.371327	1.114740
C76	C	1.710434	-0.312358	1.042806
H77	H	1.714039	-0.355194	0.964588
H78	H	1.793222	-0.301207	1.074524
H79	H	1.671990	-0.232992	1.031139
