data_functionalizedCrystal
_audit_creation_method	'MofGen! by Chris Wilmer'
_symmetry_space_group_name_H-M	'P1'
_symmetry_Int_Tables_number	1
_symmetry_cell_setting	triclinic
loop_
_symmetry_equiv_pos_as_xyz
  x,y,z
_cell_length_a	13.635800
_cell_length_b	13.167930
_cell_length_c	11.102300
_cell_angle_alpha	82.075380
_cell_angle_beta	108.605850
_cell_angle_gamma	74.245432
loop_
_atom_site_label
_atom_site_type_symbol
_atom_site_fract_x
_atom_site_fract_y
_atom_site_fract_z
V1	V	2.053688	-0.148894	0.413815
O2	O	2.035381	0.007155	0.387869
O3	O	2.040036	-0.295232	0.428363
O4	O	2.042111	-0.146603	0.586366
O5	O	2.033292	-0.142502	0.228772
V6	V	2.292500	-0.130229	0.389572
O7	O	2.190788	-0.189838	0.466996
O8	O	2.380499	-0.089285	0.336391
O9	O	2.194549	0.016109	0.375024
O10	O	2.369506	-0.286278	0.415518
O11	O	2.371595	-0.136621	0.574615
O12	O	2.192474	-0.132519	0.217021
V13	V	2.553688	-0.148894	0.413815
O14	O	2.535381	0.007155	0.387869
O15	O	2.540036	-0.295232	0.428363
O16	O	2.542111	-0.146603	0.586366
O17	O	2.533292	-0.142502	0.228772
V18	V	2.792500	-0.130229	0.389572
O19	O	2.690788	-0.189838	0.466996
O20	O	2.880499	-0.089285	0.336391
O21	O	2.694549	0.016109	0.375024
O22	O	2.869506	-0.286278	0.415518
O23	O	2.871595	-0.136621	0.574615
O24	O	2.692474	-0.132519	0.217021
C25	C	1.964694	-0.330906	0.426319
C26	C	1.994258	-0.450539	0.439363
C27	C	1.990085	-0.644607	0.227454
C28	C	2.017863	-0.757012	0.239705
C29	C	2.077598	-0.787757	0.476113
C30	C	2.049821	-0.675352	0.463863
C31	C	2.006063	-0.603780	0.339529
C32	C	1.978278	-0.491372	0.327280
C33	C	2.038021	-0.522120	0.563688
C34	C	2.065798	-0.634525	0.575938
C35	C	1.967340	-0.141314	0.627866
C36	C	1.998585	-0.140410	0.769042
C37	C	2.101563	0.051778	0.377066
C38	C	2.061618	0.171410	0.364030
C39	C	2.098916	-0.137812	0.175515
C40	C	2.057289	-0.138711	0.034337
C41	C	2.464694	-0.330906	0.426319
C42	C	2.494258	-0.450539	0.439363
C43	C	2.467340	-0.141314	0.627866
C44	C	2.498585	-0.140410	0.769042
C45	C	2.105195	-0.145360	0.842474
C46	C	2.134547	-0.144506	0.975122
C47	C	1.950669	-0.133757	0.960894
C48	C	1.921317	-0.134603	0.828246
C49	C	2.601563	0.051778	0.377066
C50	C	2.561618	0.171410	0.364030
C51	C	2.598916	-0.137812	0.175515
C52	C	2.557289	-0.138711	0.034337
C53	C	2.600083	-0.512207	0.452486
C54	C	2.627882	-0.624619	0.464762
C55	C	2.549852	-0.675358	0.463907
C56	C	2.444019	-0.613682	0.450786
C57	C	2.416224	-0.501274	0.438519
C58	C	2.628287	0.233077	0.350910
C59	C	2.590761	0.345488	0.338640
C60	C	2.486568	0.396227	0.339499
C61	C	2.419894	0.334552	0.352616
C62	C	2.457417	0.222145	0.364876
C63	C	2.605195	-0.145360	0.842474
C64	C	2.634547	-0.144506	0.975122
C65	C	2.450669	-0.133757	0.960894
C66	C	2.421317	-0.134603	0.828246
H67	H	1.942642	-0.433099	0.226041
H68	H	2.335056	0.375882	0.353311
H69	H	2.713129	0.191780	0.350210
H70	H	1.954442	-0.586331	0.126216
Br71	Br	2.706005	-0.443374	0.453661
Br72	Br	2.125190	-0.731666	0.744668
H73	H	2.668113	-0.150086	0.794274
H74	H	2.380494	-0.655012	0.450092
Br75	Br	2.587592	-0.827915	0.480556
Br76	Br	1.996185	-0.812418	0.087597
Br77	Br	2.210058	-0.153237	0.762128
Br78	Br	2.681264	0.429166	0.320841
Br79	Br	2.272592	-0.417594	0.420702
Br80	Br	2.435659	0.548784	0.322855
Br81	Br	2.779235	-0.151221	1.074776
H82	H	2.221356	-0.148536	1.034905
H83	H	1.887765	-0.129032	1.009115
Br84	Br	2.771514	-0.708298	0.482562
Br85	Br	2.059698	-0.466707	0.715799
H86	H	2.403123	0.171941	0.375569
Br87	Br	1.776619	-0.127878	0.728576
H88	H	2.334497	-0.130564	0.768452
H89	H	2.113244	-0.846050	0.577340
Br90	Br	2.345817	-0.125889	1.041255
