data_functionalizedCrystal
_audit_creation_method	'MofGen! by Chris Wilmer'
_symmetry_space_group_name_H-M	'P1'
_symmetry_Int_Tables_number	1
_symmetry_cell_setting	triclinic
loop_
_symmetry_equiv_pos_as_xyz
  x,y,z
_cell_length_a	17.077404
_cell_length_b	19.077068
_cell_length_c	19.077174
_cell_angle_alpha	94.657148
_cell_angle_beta	87.684591
_cell_angle_gamma	92.327269
loop_
_atom_site_label
_atom_site_type_symbol
_atom_site_fract_x
_atom_site_fract_y
_atom_site_fract_z
Zn1	Zn	1.205069	-0.296674	-0.409853
Zn2	Zn	1.705069	0.203326	0.090147
Zn3	Zn	1.194834	-0.409828	-0.296696
Zn4	Zn	1.694834	0.090172	0.203304
Zn5	Zn	1.068740	-0.291960	-0.291981
Zn6	Zn	1.568740	0.208040	0.208019
Zn7	Zn	1.068687	-0.414524	-0.414541
Zn8	Zn	1.568687	0.085476	0.085459
O9	O	1.134333	-0.353247	-0.353268
O10	O	1.634333	0.146753	0.146732
O11	O	1.313558	-0.311692	-0.394853
O12	O	1.813558	0.188308	0.105147
O13	O	1.173846	-0.390255	-0.197423
O14	O	1.673846	0.109745	0.302577
O15	O	1.091129	-0.193936	-0.303682
O16	O	1.591129	0.306064	0.196318
O17	O	1.306039	-0.394826	-0.311718
O18	O	1.806039	0.105174	0.188282
O19	O	1.191290	-0.197399	-0.390282
O20	O	1.691290	0.302601	0.109718
O21	O	1.081205	-0.303657	-0.193959
O22	O	1.581205	0.196343	0.306041
O23	O	0.958886	-0.308211	-0.308228
O24	O	1.458886	0.191789	0.191772
O25	O	1.091040	-0.402829	-0.512567
O26	O	1.591040	0.097171	-0.012567
O27	O	0.958847	-0.398258	-0.398272
O28	O	1.458847	0.101742	0.101728
O29	O	1.191239	-0.316245	-0.509123
O30	O	1.691239	0.183755	-0.009123
O31	O	1.173795	-0.509101	-0.316264
O32	O	1.673795	-0.009101	0.183736
O33	O	1.081116	-0.512551	-0.402844
O34	O	1.581116	-0.012551	0.097156
C35	C	0.930384	-0.353233	-0.353248
C36	C	1.430384	0.146767	0.146752
C37	C	0.843134	-0.353245	-0.353257
C38	C	1.343134	0.146755	0.146743
C39	C	0.802139	-0.400198	-0.400073
C40	C	1.302139	0.099802	0.099927
C41	C	0.720159	-0.400200	-0.400084
C42	C	1.220159	0.099800	0.099916
C43	C	0.679176	-0.353252	-0.353275
C44	C	1.179176	0.146748	0.146725
C45	C	0.720177	-0.306294	-0.306457
C46	C	1.220177	0.193706	0.193543
C47	C	0.802156	-0.306289	-0.306450
C48	C	1.302156	0.193711	0.193550
C49	C	0.549307	-0.306308	-0.306474
C50	C	1.049307	0.193692	0.193526
C51	C	0.467323	-0.306314	-0.306481
C52	C	0.967323	0.193686	0.193519
C53	C	0.467310	-0.400219	-0.400109
C54	C	0.967310	0.099781	0.099891
C55	C	0.549289	-0.400214	-0.400102
C56	C	1.049289	0.099786	0.099898
C57	C	0.590285	-0.353257	-0.353282
C58	C	1.090285	0.146743	0.146718
C59	C	1.126361	-0.536405	-0.360589
C60	C	1.626361	-0.036405	0.139411
C61	C	1.123024	-0.614762	-0.363745
C62	C	1.623024	-0.114762	0.136255
C63	C	1.169749	-0.649756	-0.320188
C64	C	1.669749	-0.149756	0.179812
C65	C	1.166615	-0.723381	-0.323160
C66	C	1.666615	-0.223381	0.176840
C67	C	1.116751	-0.762010	-0.369687
C68	C	1.616751	-0.262010	0.130313
C69	C	1.070023	-0.727011	-0.413249
C70	C	1.570023	-0.227011	0.086751
C71	C	1.073162	-0.653387	-0.410280
C72	C	1.573162	-0.153387	0.089720
C73	C	1.102188	-0.982396	-0.383400
C74	C	1.602188	-0.482396	0.116600
C75	C	1.099051	-1.056024	-0.386365
C76	C	1.599051	-0.556024	0.113635
C77	C	1.195645	-1.052389	-0.296276
C78	C	1.695645	-0.552389	0.203724
C79	C	1.198776	-0.978764	-0.293308
C80	C	1.698776	-0.478764	0.206692
C81	C	1.152051	-0.943771	-0.336873
C82	C	1.652051	-0.443771	0.163127
N83	N	1.113544	-0.837266	-0.372725
N84	N	1.613544	-0.337266	0.127275
N85	N	1.155263	-0.868516	-0.333838
N86	N	1.655263	-0.368516	0.166162
C87	C	1.339077	-0.353261	-0.353288
C88	C	1.839077	0.146739	0.146712
C89	C	1.426327	-0.353267	-0.353297
C90	C	1.926327	0.146733	0.146703
C91	C	1.142276	-0.360587	-0.537138
C92	C	1.642276	0.139413	-0.037138
C93	C	1.145661	-0.363714	-0.615493
C94	C	1.645661	0.136286	-0.115493
C95	C	1.142357	-0.169374	-0.345933
C96	C	1.642357	0.330626	0.154067
C97	C	1.145777	-0.091018	-0.342807
C98	C	1.645777	0.408982	0.157193
C99	C	1.099020	-0.320098	-0.650500
C100	C	1.599020	0.179902	-0.150500
C101	C	1.102197	-0.323043	-0.724123
C102	C	1.602197	0.176957	-0.224123
C103	C	1.152020	-0.369601	-0.762737
C104	C	1.652020	0.130399	-0.262737
C105	C	1.198662	-0.413222	-0.727725
C106	C	1.698662	0.086778	-0.227725
C107	C	1.195480	-0.410280	-0.654103
C108	C	1.695480	0.089720	-0.154103
C109	C	1.166704	-0.383237	-0.983115
C110	C	1.666704	0.116763	-0.483115
C111	C	1.169884	-0.386174	-1.056741
C112	C	1.669884	0.113826	-0.556741
C113	C	1.073418	-0.295995	-1.053134
C114	C	1.573418	0.204005	-0.553134
C115	C	1.070244	-0.293055	-0.979512
C116	C	1.570244	0.206945	-0.479512
C117	C	1.116883	-0.336679	-0.944506
C118	C	1.616883	0.163321	-0.444506
N119	N	1.155270	-0.372611	-0.837991
N120	N	1.655270	0.127389	-0.337991
N121	N	1.113628	-0.333672	-0.869253
N122	N	1.613628	0.166328	-0.369253
C123	C	1.126468	-0.345884	-0.170111
C124	C	1.626468	0.154116	0.329889
C125	C	1.123243	-0.342558	-0.091748
C126	C	1.623243	0.157442	0.408252
H127	H	0.433957	-0.268077	-0.268373
H128	H	0.933957	0.231923	0.231627
O129	O	1.021957	-0.247757	-0.941967
O130	O	1.521957	0.252243	-0.441967
C131	C	1.066794	-0.200540	-0.897556
C132	C	1.566794	0.299460	-0.397556
H133	H	1.129766	-0.197073	-0.919578
H134	H	1.629766	0.302927	-0.419578
H135	H	1.040733	-0.146254	-0.894550
H136	H	1.540733	0.353746	-0.394550
H137	H	1.066140	-0.220112	-0.842631
H138	H	1.566140	0.279888	-0.342631
H139	H	0.582684	-0.268065	-0.268355
H140	H	1.082684	0.231935	0.231645
H141	H	1.029426	-0.758469	-0.451136
H142	H	1.529426	-0.258469	0.048864
H143	H	1.233686	-1.080888	-0.260809
H144	H	1.733686	-0.580888	0.239191
O145	O	0.680447	-0.260718	-0.260891
O146	O	1.180447	0.239282	0.239109
C147	C	0.696746	-0.273218	-0.191215
C148	C	1.196746	0.226782	0.308785
H149	H	0.755025	-0.300249	-0.190786
H150	H	1.255025	0.199751	0.309214
H151	H	0.700393	-0.221032	-0.157654
H152	H	1.200393	0.278968	0.342346
H153	H	0.648000	-0.308479	-0.168864
H154	H	1.148000	0.191521	0.331136
O155	O	1.247167	-0.458411	-0.765154
O156	O	1.747167	0.041589	-0.265154
C157	C	1.325299	-0.442281	-0.746568
C158	C	1.825299	0.057719	-0.246568
H159	H	1.325798	-0.413048	-0.692034
H160	H	1.825798	0.086952	-0.192034
H161	H	1.358168	-0.493061	-0.746082
H162	H	1.858168	0.006939	-0.246082
H163	H	1.355112	-0.407694	-0.786560
H164	H	1.855112	0.092306	-0.286560
H165	H	1.210459	-0.424088	-1.088179
H166	H	1.710459	0.075912	-0.588179
O167	O	1.056758	-0.948325	-0.425610
O168	O	1.556758	-0.448325	0.074390
C169	C	1.006161	-0.904201	-0.383715
C170	C	1.506161	-0.404201	0.116285
H171	H	1.032061	-0.891044	-0.329871
H172	H	1.532061	-0.391044	0.170129
H173	H	0.999062	-0.853570	-0.410332
H174	H	1.499062	-0.353570	0.089668
H175	H	0.946448	-0.932309	-0.377065
H176	H	1.446448	-0.432309	0.122935
H177	H	0.686784	-0.438434	-0.438206
H178	H	1.186784	0.061566	0.061794
O179	O	1.050735	-0.274795	-0.612960
O180	O	1.550735	0.225205	-0.112960
C181	C	1.095567	-0.227573	-0.568550
C182	C	1.595567	0.272427	-0.068550
H183	H	1.158541	-0.224108	-0.590566
H184	H	1.658541	0.275892	-0.090566
H185	H	1.069505	-0.173287	-0.565553
H186	H	1.569505	0.326713	-0.065553
H187	H	1.094906	-0.247139	-0.513622
H188	H	1.594906	0.252861	-0.013622
H189	H	0.433928	-0.438451	-0.438233
H190	H	0.933928	0.061549	0.061767
H191	H	1.064214	-0.287529	-0.752623
H192	H	1.564214	0.212471	-0.252623
H193	H	0.582655	-0.438447	-0.438214
H194	H	1.082655	0.061553	0.061786
H195	H	1.035446	-0.260480	-1.081644
H196	H	1.535446	0.239520	-0.581644
H197	H	1.233466	-0.445792	-0.625601
H198	H	1.733466	0.054208	-0.125601
H199	H	0.835534	-0.268052	-0.268330
H200	H	1.335534	0.231948	0.231670
O201	O	1.247176	-0.941319	-0.248020
O202	O	1.747176	-0.441319	0.251980
C203	C	1.226271	-0.956534	-0.178472
C204	C	1.726271	-0.456534	0.321528
H205	H	1.193749	-1.009951	-0.179141
H206	H	1.693749	-0.509951	0.320859
H207	H	1.281484	-0.957769	-0.147013
H208	H	1.781484	-0.457769	0.352987
H209	H	1.186677	-0.914187	-0.153023
H210	H	1.686677	-0.414187	0.346977
O211	O	0.841827	-0.445829	-0.445612
O212	O	1.341827	0.054171	0.054388
C213	C	0.788058	-0.487281	-0.486924
C214	C	1.288058	0.012719	0.013076
H215	H	0.730985	-0.458512	-0.488261
H216	H	1.230985	0.041488	0.011739
H217	H	0.813824	-0.497101	-0.542756
H218	H	1.313824	0.002899	-0.042756
H219	H	0.775888	-0.539748	-0.463163
H220	H	1.275888	-0.039748	0.036837
O221	O	1.218255	-0.612342	-0.274971
O222	O	1.718255	-0.112342	0.225029
C223	C	1.258809	-0.659020	-0.237151
C224	C	1.758809	-0.159020	0.262849
H225	H	1.260512	-0.712639	-0.268146
H226	H	1.760512	-0.212639	0.231854
H227	H	1.321249	-0.637408	-0.228821
H228	H	1.821249	-0.137408	0.271179
H229	H	1.227461	-0.664759	-0.183907
H230	H	1.727461	-0.164759	0.316093
H231	H	1.035114	-0.624896	-0.445750
H232	H	1.535114	-0.124896	0.054250
H233	H	1.204664	-0.751869	-0.287690
H234	H	1.704664	-0.251869	0.212310
O235	O	1.050598	-1.093444	-0.431631
O236	O	1.550598	-0.593444	0.068369
C237	C	1.010018	-1.046772	-0.469436
C238	C	1.510018	-0.546772	0.030564
H239	H	1.044510	-0.994363	-0.469786
H240	H	1.544510	-0.494363	0.030214
H241	H	1.003096	-1.070247	-0.525828
H242	H	1.503096	-0.570247	-0.025828
H243	H	0.949634	-1.037965	-0.443266
H244	H	1.449634	-0.537965	0.056734
O245	O	1.212096	-0.425629	-0.949226
O246	O	1.712096	0.074371	-0.449226
C247	C	1.256742	-0.467358	-0.999098
C248	C	1.756742	0.032642	-0.499098
H249	H	1.262979	-0.440579	-1.050427
H250	H	1.762979	0.059421	-0.550427
H251	H	1.317346	-0.474025	-0.978136
H252	H	1.817346	0.025975	-0.478136
H253	H	1.226006	-0.521213	-1.009058
H254	H	1.726006	-0.021213	-0.509058
