data_functionalizedCrystal
_audit_creation_method	'MofGen! by Chris Wilmer'
_symmetry_space_group_name_H-M	'P1'
_symmetry_Int_Tables_number	1
_symmetry_cell_setting	triclinic
loop_
_symmetry_equiv_pos_as_xyz
  x,y,z
_cell_length_a	19.188930
_cell_length_b	11.026607
_cell_length_c	9.482900
_cell_angle_alpha	101.363848
_cell_angle_beta	99.297616
_cell_angle_gamma	84.134601
loop_
_atom_site_label
_atom_site_type_symbol
_atom_site_fract_x
_atom_site_fract_y
_atom_site_fract_z
O1	O	0.283622	-1.627581	-0.120957
O2	O	0.250352	-1.274451	-0.120952
O3	O	0.166632	-1.461202	-0.120926
O4	O	0.367342	-1.440830	-0.120983
O5	O	0.183725	-1.423268	0.120861
O6	O	0.267445	-1.236517	0.120835
O7	O	0.300715	-1.589648	0.120830
Cu8	Cu	0.285641	-1.409619	0.142910
Cu9	Cu	0.265426	-1.454480	-0.143032
O10	O	0.384435	-1.402896	0.120804
C11	C	0.252761	-1.210306	-0.000057
C12	C	0.234464	-1.075688	-0.000054
C13	C	0.149084	-1.441575	-0.000029
C14	C	0.071328	-1.439592	-0.000016
C15	C	0.298306	-1.653793	-0.000068
C16	C	0.316602	-1.788412	-0.000081
C17	C	0.040370	-1.549173	-0.000011
C18	C	-0.032693	-1.547315	-0.000034
C19	C	-0.074793	-1.435865	-0.000033
C20	C	-0.043828	-1.326271	-0.000047
C21	C	0.029233	-1.328134	-0.000038
N22	N	-0.187838	-1.337766	0.082253
N23	N	-0.257242	-1.336003	0.082248
C24	C	-0.294921	-1.430246	-0.000063
N25	N	-0.260572	-1.526334	-0.082349
N26	N	-0.191161	-1.528099	-0.082338
C27	C	-0.154016	-1.433833	-0.000044
C28	C	-0.405101	-1.537820	-0.000085
C29	C	-0.478166	-1.535959	-0.000117
C30	C	-0.489299	-1.314910	-0.000115
C31	C	-0.416236	-1.316776	-0.000098
C32	C	-0.374141	-1.428234	-0.000075
C33	C	0.401983	-1.422524	-0.000097
C34	C	0.479738	-1.424509	-0.000119
N35	N	0.299859	-1.378075	0.344025
C36	C	0.284984	-1.001617	-0.000069
C37	C	0.266075	-0.862482	-0.000066
N38	N	0.251204	-1.486034	-0.344148
C39	C	0.269615	-1.445167	0.416234
C40	C	0.281452	-1.418931	0.583648
H41	H	0.074639	-1.639931	0.000002
O42	O	-0.530100	-1.206542	0.000077
C43	C	-0.506808	-1.120122	0.125321
H44	H	-0.449231	-1.146347	0.167081
H45	H	-0.511390	-1.023498	0.097155
H46	H	-0.540966	-1.120637	0.212999
H47	H	0.216543	-1.562899	0.593739
H48	H	0.177212	-1.036104	-0.000075
H49	H	0.342235	-1.041206	-0.000077
O50	O	0.384879	-0.835715	-0.000376
C51	C	0.389603	-0.927677	-0.125592
H52	H	0.343205	-0.911600	-0.213089
H53	H	0.441446	-0.922739	-0.167662
H54	H	0.387981	-1.023052	-0.097281
O55	O	0.197801	-0.815079	-0.000113
C56	C	0.194121	-0.686710	-0.000075
H57	H	0.241632	-0.664024	-0.045862
H58	H	0.143216	-0.658998	-0.070262
H59	H	0.194540	-0.633307	0.115925
H60	H	0.334511	-1.301206	0.406145
H61	H	0.316106	-1.342057	0.645762
O62	O	-0.062657	-1.653868	0.000040
C63	C	-0.009839	-1.752646	0.000019
H64	H	0.043842	-1.714396	0.045793
H65	H	-0.022101	-1.818382	0.070224
H66	H	-0.008549	-1.805037	-0.115975
O67	O	0.228238	-1.536756	0.341947
C68	C	0.170895	-1.485585	0.253915
H69	H	0.185265	-1.394150	0.231311
H70	H	0.158662	-1.552924	0.146797
H71	H	0.122391	-1.468303	0.312449
H72	H	-0.078111	-1.235528	-0.000050
H73	H	0.054438	-1.238897	-0.000042
H74	H	-0.391030	-1.227542	-0.000094
H75	H	-0.503371	-1.625199	-0.000121
O76	O	-0.364315	-1.646204	-0.000154
C77	C	-0.407309	-1.742527	-0.000138
H78	H	-0.464253	-1.715975	-0.045916
H79	H	-0.387263	-1.831370	-0.070344
H80	H	-0.405178	-1.758125	0.115853
