data_functionalizedCrystal
_audit_creation_method	'MofGen! by Chris Wilmer'
_symmetry_space_group_name_H-M	'P1'
_symmetry_Int_Tables_number	1
_symmetry_cell_setting	triclinic
loop_
_symmetry_equiv_pos_as_xyz
  x,y,z
_cell_length_a	17.038272
_cell_length_b	17.019294
_cell_length_c	15.500227
_cell_angle_alpha	88.951630
_cell_angle_beta	86.956295
_cell_angle_gamma	87.244363
loop_
_atom_site_label
_atom_site_type_symbol
_atom_site_fract_x
_atom_site_fract_y
_atom_site_fract_z
O1	O	1.041486	0.167282	-0.084296
O2	O	0.813849	0.164571	-0.084119
O3	O	0.933587	0.051923	-0.075710
O4	O	0.921748	0.279929	-0.092705
O5	O	0.926321	0.058730	0.067671
O6	O	0.806583	0.171378	0.059261
O7	O	1.034220	0.174089	0.059085
Cu8	Cu	0.919738	0.173355	0.072265
Cu9	Cu	0.928331	0.165305	-0.097299
O10	O	0.914481	0.286736	0.050675
C11	C	0.781081	0.165509	-0.012249
C12	C	0.694267	0.158154	-0.011710
C13	C	0.644349	0.225676	-0.016743
C14	C	0.562778	0.218761	-0.016215
C15	C	0.531126	0.144325	-0.010662
C16	C	0.581050	0.076799	-0.005626
C17	C	0.662619	0.083714	-0.006148
C18	C	0.285296	0.119894	-0.008818
C19	C	0.203720	0.112984	-0.008299
C20	C	0.185454	0.254947	-0.018887
C21	C	0.267026	0.261856	-0.019413
C22	C	0.316942	0.194330	-0.014373
C23	C	0.447747	0.137255	-0.010125
C24	C	0.400319	0.201400	-0.014903
C25	C	0.929362	0.026009	-0.001836
C26	C	0.927588	-0.061349	0.004669
C27	C	0.930718	-0.106096	-0.070430
C28	C	0.929046	-0.188178	-0.064315
C29	C	0.924250	-0.225512	0.016901
C30	C	0.921118	-0.180759	0.092006
C31	C	0.922785	-0.098678	0.085890
C32	C	0.919016	-0.473157	0.039278
C33	C	0.917352	-0.555244	0.045388
C34	C	0.925278	-0.562658	-0.110934
C35	C	0.926948	-0.480576	-0.117043
C36	C	0.923812	-0.435829	-0.041937
C37	C	0.922544	-0.309413	0.023154
C38	C	0.925513	-0.351929	-0.048191
C39	C	1.066988	0.173151	-0.012788
C40	C	1.153803	0.180505	-0.013332
C41	C	0.918707	0.312651	-0.023200
C42	C	0.920481	0.400009	-0.029711
N43	N	0.913700	0.179017	0.191527
N44	N	0.934375	0.159637	-0.216561
C45	C	0.964455	0.131304	0.240366
C46	C	0.959896	0.135594	0.330618
C47	C	0.904584	0.187601	0.372030
C48	C	0.853824	0.235315	0.323185
C49	C	0.858380	0.231021	0.232935
C50	C	0.888171	0.203057	0.644343
C51	C	0.883620	0.207350	0.734600
C52	C	0.989692	0.107627	0.742027
C53	C	0.994246	0.103341	0.651774
C54	C	0.943483	0.151052	0.602937
C55	C	0.899924	0.191989	0.464283
C56	C	0.948140	0.146660	0.510687
H57	H	0.292791	0.322469	-0.023945
O58	O	0.935884	-0.065836	-0.158032
H59	H	0.990082	-0.032066	-0.164305
O60	O	0.932414	-0.236453	-0.145308
H61	H	0.878588	-0.270571	-0.146511
O62	O	1.007784	0.090563	0.466015
H63	H	1.067899	0.105504	0.482264
H64	H	0.854890	0.234335	0.498008
H65	H	0.927829	-0.599099	-0.172080
H66	H	0.920226	-0.062245	0.147045
O67	O	0.912171	-0.595516	0.132989
H68	H	0.910261	-0.550612	0.184188
H69	H	0.325928	0.064910	-0.004713
O70	O	0.434460	0.281681	-0.020892
H71	H	0.411479	0.317168	0.035112
O72	O	0.915654	-0.424900	0.120280
H73	H	0.912053	-0.464654	0.177779
H74	H	0.930854	-0.450184	-0.183177
H75	H	0.808784	0.277658	0.356908
O76	O	0.678487	0.305961	-0.022724
H77	H	0.630068	0.351751	-0.026124
O78	O	0.131610	0.327772	-0.024308
H79	H	0.145830	0.360361	-0.085387
O80	O	0.508940	0.291590	-0.021641
H81	H	0.474285	0.289058	-0.080090
O82	O	0.915961	-0.221021	0.179607
H83	H	0.915342	-0.285616	0.171245
H84	H	0.817049	0.269873	0.193171
O85	O	0.169576	0.032696	-0.002301
H86	H	0.217988	-0.013098	0.001125
H87	H	0.555272	0.016191	-0.001092
H88	H	0.703262	0.028731	-0.002050
O89	O	0.930681	-0.311669	-0.135788
H90	H	0.984878	-0.277897	-0.142048
H91	H	0.421966	0.076650	-0.005579
H92	H	0.918642	-0.339820	0.089280
H93	H	1.009498	0.088958	0.206654
O94	O	1.014652	0.084148	0.383296
H95	H	1.053890	0.047276	0.339337
O96	O	1.053896	0.047241	0.607108
H97	H	1.088419	0.014777	0.656233
H98	H	1.031020	0.068782	0.781798
H99	H	0.838577	0.249703	0.768313
O100	O	0.833429	0.254523	0.591673
H101	H	0.794211	0.291413	0.635634
