data_functionalizedCrystal
_audit_creation_method	'MofGen! by Chris Wilmer'
_symmetry_space_group_name_H-M	'P1'
_symmetry_Int_Tables_number	1
_symmetry_cell_setting	triclinic
loop_
_symmetry_equiv_pos_as_xyz
  x,y,z
_cell_length_a	16.992694
_cell_length_b	11.792241
_cell_length_c	15.455313
_cell_angle_alpha	92.683265
_cell_angle_beta	87.142206
_cell_angle_gamma	87.430819
loop_
_atom_site_label
_atom_site_type_symbol
_atom_site_fract_x
_atom_site_fract_y
_atom_site_fract_z
O1	O	1.044827	0.236106	-0.072022
O2	O	0.816531	0.233463	-0.072048
O3	O	0.936219	0.070068	-0.072029
O4	O	0.925139	0.399501	-0.072042
O5	O	0.929374	0.079370	0.072232
O6	O	0.809687	0.242766	0.072213
O7	O	1.037982	0.245409	0.072239
Cu8	Cu	0.923210	0.244937	0.085398
Cu9	Cu	0.931304	0.233935	-0.085207
O10	O	0.918295	0.408804	0.072219
C11	C	0.783882	0.234716	0.000079
C12	C	0.696795	0.224578	0.000070
C13	C	0.932101	0.032371	0.000102
C14	C	0.930017	-0.093813	0.000101
C15	C	0.646971	0.322395	0.000066
C16	C	0.565143	0.312864	0.000079
C17	C	0.533142	0.205513	0.000088
C18	C	0.582973	0.107688	0.000094
C19	C	0.664799	0.117221	0.000088
C20	C	0.289375	0.166002	0.000113
C21	C	0.207543	0.156476	0.000117
C22	C	0.189719	0.361652	0.000103
C23	C	0.271548	0.371176	0.000091
C24	C	0.321371	0.273351	0.000102
N25	N	0.449501	0.195767	0.000098
N26	N	0.405010	0.283098	0.000098
C27	C	0.926187	-0.324840	0.000086
C28	C	0.928315	-0.196280	0.000094
C29	C	1.070631	0.244155	0.000109
C30	C	1.157718	0.254293	0.000113
C31	C	0.922413	0.446501	0.000087
C32	C	0.924497	0.572684	0.000082
N33	N	0.917522	0.252674	0.205393
N34	N	0.936998	0.226189	-0.205202
C35	C	0.968388	0.183287	0.250795
C36	C	0.964094	0.189150	0.341602
C37	C	0.908938	0.264406	0.387005
C38	C	0.858067	0.333796	0.341597
C39	C	0.862358	0.327927	0.250791
C40	C	0.890417	0.289710	0.658584
C41	C	0.886132	0.295576	0.749396
C42	C	0.992158	0.150928	0.749395
C43	C	0.996447	0.145070	0.658588
C44	C	0.945574	0.214455	0.613187
N45	N	0.904549	0.270403	0.479825
N46	N	0.949959	0.208452	0.520369
H47	H	0.673020	0.409812	0.000058
H48	H	1.005512	0.132648	0.378568
H49	H	1.013305	0.122010	0.213834
H50	H	0.813154	0.395068	0.378569
N51	N	1.055943	0.063904	0.609625
H52	H	1.092634	0.108049	0.571947
H53	H	1.087459	0.020863	0.652227
N54	N	0.548461	-0.008098	0.000118
H55	H	0.489064	0.000703	0.000121
H56	H	0.569186	-0.054687	-0.053357
N57	N	1.047026	0.076093	0.798362
H58	H	1.035941	0.091227	0.862776
H59	H	1.038375	-0.006309	0.782500
H60	H	0.848996	0.346209	0.621625
H61	H	0.181491	0.069054	0.000123
N62	N	0.826648	0.376761	0.798369
H63	H	0.795071	0.419829	0.755830
H64	H	0.790011	0.332560	0.836064
N65	N	0.135990	0.467167	0.000102
H66	H	0.104170	0.464348	-0.053371
H67	H	0.099166	0.471180	0.053619
N68	N	0.343106	0.060497	0.000130
H69	H	0.310415	-0.008953	0.000135
H70	H	0.379979	0.056524	-0.053348
H71	H	0.705366	0.037568	0.000090
H72	H	0.524579	0.392517	0.000075
N73	N	0.306063	0.486960	0.000065
H74	H	0.262082	0.547483	0.000061
H75	H	0.337100	0.498847	0.053536
N76	N	0.807492	0.402759	0.201817
H77	H	0.771900	0.451326	0.244356
H78	H	0.839509	0.453269	0.164127
