data_functionalizedCrystal
_audit_creation_method	'MofGen! by Chris Wilmer'
_symmetry_space_group_name_H-M	'P1'
_symmetry_Int_Tables_number	1
_symmetry_cell_setting	triclinic
loop_
_symmetry_equiv_pos_as_xyz
  x,y,z
_cell_length_a	17.699083
_cell_length_b	17.699092
_cell_length_c	15.500346
_cell_angle_alpha	93.173239
_cell_angle_beta	93.180637
_cell_angle_gamma	83.284691
loop_
_atom_site_label
_atom_site_type_symbol
_atom_site_fract_x
_atom_site_fract_y
_atom_site_fract_z
O1	O	-1.007206	-0.098823	-0.071810
O2	O	-0.507206	0.401177	0.428190
O3	O	-0.786829	-0.111277	-0.071839
O4	O	-0.286829	0.388723	0.428161
O5	O	-0.903241	0.005139	-0.071822
O6	O	-0.403241	0.505139	0.428178
O7	O	-0.890795	-0.215239	-0.071827
O8	O	-0.390795	0.284761	0.428173
O9	O	-0.896964	0.011378	0.072064
O10	O	-0.396964	0.511378	0.572064
O11	O	-0.780553	-0.105037	0.072046
O12	O	-0.280553	0.394963	0.572046
O13	O	-1.000929	-0.092584	0.072076
O14	O	-0.500929	0.407416	0.572076
Cu15	Cu	-0.890168	-0.098241	0.085199
Cu16	Cu	-0.390168	0.401759	0.585199
Cu17	Cu	-0.897591	-0.105620	-0.084962
Cu18	Cu	-0.397591	0.394380	0.415038
O19	O	-0.884518	-0.208999	0.072058
O20	O	-0.384518	0.291001	0.572058
C21	C	-0.755494	-0.107711	0.000100
C22	C	-0.255494	0.392289	0.500100
C23	C	-0.671477	-0.106373	0.000088
C24	C	-0.171477	0.393627	0.500088
C25	C	-0.622858	-0.174706	0.000086
C26	C	-0.122858	0.325294	0.500086
C27	C	-0.543914	-0.173443	0.000097
C28	C	-0.043914	0.326557	0.500097
C29	C	-0.513591	-0.103847	0.000103
C30	C	-0.013591	0.396153	0.500103
C31	C	-0.562216	-0.035508	0.000107
C32	C	-0.062216	0.464492	0.500107
C33	C	-0.641158	-0.036772	0.000103
C34	C	-0.141158	0.463228	0.500103
C35	C	-0.243852	-0.030412	0.000126
C36	C	0.256148	0.469588	0.500126
C37	C	-0.164904	-0.029154	0.000128
C38	C	0.335096	0.470846	0.500128
C39	C	-0.146608	-0.167084	0.000120
C40	C	0.353392	0.332916	0.500120
C41	C	-0.225550	-0.168347	0.000116
C42	C	0.274450	0.331653	0.500116
C43	C	-0.274168	-0.100009	0.000125
C44	C	0.225832	0.399991	0.500125
C45	C	-0.359767	-0.101379	0.000115
C46	C	0.140233	0.398621	0.500115
C47	C	-0.427993	-0.102476	0.000107
C48	C	0.072007	0.397524	0.500107
C49	C	-0.899655	0.036456	0.000120
C50	C	-0.399655	0.536456	0.500120
C51	C	-0.898314	0.120473	0.000116
C52	C	-0.398314	0.620473	0.500116
C53	C	-0.032265	-0.096149	0.000133
C54	C	0.467735	0.403851	0.500133
C55	C	-0.116283	-0.097488	0.000132
C56	C	0.383717	0.402512	0.500132
C57	C	-0.888104	-0.240316	0.000115
C58	C	-0.388104	0.259684	0.500115
C59	C	-0.889445	-0.324334	0.000113
C60	C	-0.389445	0.175666	0.500113
C61	C	-0.901108	0.156539	-0.078318
C62	C	-0.401108	0.656539	0.421682
C63	C	-0.899843	0.235482	-0.078319
C64	C	-0.399843	0.735482	0.421681
C65	C	-0.895790	0.278358	0.000114
C66	C	-0.395790	0.778358	0.500114
C67	C	-0.892994	0.242286	0.078553
C68	C	-0.392994	0.742286	0.578553
C69	C	-0.894254	0.163344	0.078553
C70	C	-0.394254	0.663344	0.578553
C71	C	-0.887914	0.560651	0.078554
C72	C	-0.387914	1.060651	0.578554
C73	C	-0.886657	0.639599	0.078547
C74	C	-0.386657	1.139599	0.578547
C75	C	-0.893503	0.632790	-0.078318
C76	C	-0.393503	1.132790	0.421682
C77	C	-0.894762	0.553847	-0.078318
C78	C	-0.394762	1.053847	0.421682
C79	C	-0.891963	0.517782	0.000120
C80	C	-0.391963	1.017782	0.500120
C81	C	-0.893333	0.432183	0.000121
C82	C	-0.393333	0.932183	0.500121
C83	C	-0.894425	0.363957	0.000115
C84	C	-0.394425	0.863957	0.500115
N85	N	-0.884953	-0.093050	0.204881
N86	N	-0.384953	0.406950	0.704881
N87	N	-0.902812	-0.110804	-0.204645
N88	N	-0.402812	0.389196	0.295355
C89	C	-0.858968	-0.066935	0.750056
C90	C	-0.358968	0.433065	1.250056
C91	C	-0.862907	-0.070889	0.659485
C92	C	-0.362907	0.429111	1.159485
C93	C	-0.910687	-0.118718	0.614215
C94	C	-0.410687	0.381282	1.114215
C95	C	-0.954537	-0.162588	0.659521
C96	C	-0.454537	0.337412	1.159521
C97	C	-0.950601	-0.158629	0.750090
C98	C	-0.450601	0.341371	1.250090
C99	C	-0.924867	-0.132962	0.340756
C100	C	-0.424867	0.367038	0.840756
C101	C	-0.928797	-0.136920	0.250180
C102	C	-0.428797	0.363080	0.750180
C103	C	-0.837168	-0.045219	0.250151
C104	C	-0.337168	0.454781	0.750151
C105	C	-0.833233	-0.041267	0.340722
C106	C	-0.333233	0.458733	0.840722
C107	C	-0.877085	-0.085135	0.386020
C108	C	-0.377085	0.414865	0.886020
C109	C	-0.914713	-0.122763	0.521637
C110	C	-0.414713	0.377237	1.021637
C111	C	-0.873063	-0.081085	0.478596
C112	C	-0.373063	0.418915	0.978596
H113	H	-0.680743	0.018872	0.000104
H114	H	-0.180743	0.518872	0.500104
H115	H	-0.953616	-0.161706	0.484769
H116	H	-0.453616	0.338294	0.984769
H117	H	-0.140218	0.027523	0.000134
H118	H	0.359782	0.527523	0.500134
H119	H	-0.283427	0.025233	0.000134
H120	H	0.216573	0.525233	0.500134
H121	H	-0.250234	-0.225020	0.000107
H122	H	0.249766	0.274980	0.500107
H123	H	-0.902120	0.264844	-0.142187
H124	H	-0.402120	0.764844	0.357813
H125	H	-0.537520	0.021159	0.000125
H126	H	-0.037520	0.521159	0.500125
H127	H	-0.904412	0.121636	-0.142187
H128	H	-0.404412	0.621636	0.357813
H129	H	-0.107013	-0.222728	0.000117
H130	H	0.392987	0.277272	0.500117
H131	H	-0.967704	-0.175872	0.213324
H132	H	-0.467704	0.324128	0.713324
H133	H	-0.898066	0.518942	-0.142186
H134	H	-0.398066	1.018942	0.357814
H135	H	-0.895779	0.662163	-0.142187
H136	H	-0.395779	1.162163	0.357813
H137	H	-0.960574	-0.168683	0.377626
H138	H	-0.460574	0.331317	0.877626
H139	H	-0.504331	-0.229087	0.000094
H140	H	-0.004331	0.270913	0.500094
H141	H	-0.794326	-0.002319	0.377575
H142	H	-0.294326	0.497681	0.877575
H143	H	-0.883355	0.674507	0.142421
H144	H	-0.383355	1.174507	0.642421
H145	H	-0.885649	0.531299	0.142423
H146	H	-0.385649	1.031299	0.642423
H147	H	-0.993445	-0.201528	0.622655
H148	H	-0.493445	0.298472	1.122655
H149	H	-0.889690	0.277202	0.142414
H150	H	-0.389690	0.777202	0.642414
H151	H	-0.647540	-0.231380	0.000080
H152	H	-0.147540	0.268620	0.500080
H153	H	-0.891969	0.133979	0.142422
H154	H	-0.391969	0.633979	0.642422
H155	H	-0.820056	-0.027992	0.786909
H156	H	-0.320056	0.472008	1.286909
H157	H	-0.827206	-0.035164	0.622607
H158	H	-0.327206	0.464836	1.122607
H159	H	-0.801466	-0.009504	0.213260
H160	H	-0.301466	0.490496	0.713260
H161	H	-0.986305	-0.194352	0.786971
H162	H	-0.486305	0.305648	1.286971
H163	H	-0.834163	-0.042141	0.515459
H164	H	-0.334163	0.457859	1.015459
