data_functionalizedCrystal
_audit_creation_method	'MofGen! by Chris Wilmer'
_symmetry_space_group_name_H-M	'P1'
_symmetry_Int_Tables_number	1
_symmetry_cell_setting	triclinic
loop_
_symmetry_equiv_pos_as_xyz
  x,y,z
_cell_length_a	10.908937
_cell_length_b	10.489716
_cell_length_c	10.065875
_cell_angle_alpha	98.882384
_cell_angle_beta	83.441416
_cell_angle_gamma	72.307546
loop_
_atom_site_label
_atom_site_type_symbol
_atom_site_fract_x
_atom_site_fract_y
_atom_site_fract_z
O1	O	1.720628	-0.219304	-0.113548
O2	O	2.220628	0.280696	0.386452
O3	O	1.347676	-0.119894	-0.113535
O4	O	1.847676	0.380106	0.386465
O5	O	1.542655	-0.357081	-0.113547
O6	O	2.042655	0.142919	0.386453
O7	O	1.525648	0.017883	-0.113537
O8	O	2.025648	0.517883	0.386463
O9	O	1.505477	-0.311703	0.113444
O10	O	2.005477	0.188297	0.613444
O11	O	1.310497	-0.074516	0.113456
O12	O	1.810497	0.425484	0.613456
O13	O	1.683449	-0.173926	0.113443
O14	O	2.183449	0.326074	0.613443
Zn15	Zn	1.491070	-0.117016	0.149489
Zn16	Zn	1.991070	0.382984	0.649489
Zn17	Zn	1.540055	-0.176804	-0.149582
Zn18	Zn	2.040055	0.323196	0.350418
O19	O	1.488470	0.063261	0.113454
O20	O	1.988470	0.563261	0.613454
C21	C	1.281330	-0.087915	-0.000038
C22	C	1.781330	0.412085	0.499962
C23	C	1.139031	-0.060248	-0.000034
C24	C	1.639031	0.439752	0.499966
C25	C	0.942031	-0.132622	-0.000060
C26	C	1.442031	0.367378	0.499940
C27	C	1.089101	-0.161215	-0.000044
C28	C	1.589101	0.338785	0.499956
C29	C	1.522789	-0.381643	-0.000056
C30	C	2.022789	0.118357	0.499944
C31	C	1.518968	-0.522430	-0.000068
C32	C	2.018968	-0.022430	0.499932
C33	C	1.638534	-0.646556	-0.000060
C34	C	2.138534	-0.146556	0.499940
C35	C	1.593682	-0.732311	-0.111972
C36	C	2.093682	-0.232311	0.388028
C37	C	1.556999	-0.687529	0.111823
C38	C	2.056999	-0.187529	0.611823
C39	C	1.474182	-0.606349	-0.112073
C40	C	1.974182	-0.106349	0.387927
C41	C	1.437500	-0.561546	0.111823
C42	C	1.937500	-0.061546	0.611823
C43	C	1.392565	-0.647237	-0.000117
C44	C	1.892565	-0.147237	0.499883
C45	C	1.749796	-0.205906	-0.000057
C46	C	2.249796	0.294094	0.499943
C47	C	1.892096	-0.233575	-0.000071
C48	C	2.392096	0.266425	0.499929
C49	C	1.508337	0.087822	-0.000040
C50	C	2.008337	0.587822	0.499960
C51	C	1.512159	0.228608	-0.000037
C52	C	2.012159	0.728608	0.499963
N53	N	1.457649	-0.076216	0.353596
N54	N	1.957649	0.423784	0.853596
N55	N	1.573486	-0.217617	-0.353689
N56	N	2.073486	0.282383	0.146311
C57	C	1.528418	-0.162614	0.421371
C58	C	2.028418	0.337386	0.921371
C59	C	1.502706	-0.131205	0.578540
C60	C	2.002706	0.368795	1.078540
H61	H	1.155227	-0.268823	-0.000050
H62	H	1.655227	0.231177	0.499950
H63	H	1.288494	-0.648651	-0.000174
H64	H	1.788494	-0.148651	0.499826
H65	H	0.875903	-0.025025	-0.000072
H66	H	1.375903	0.474975	0.499928
H67	H	1.072908	0.047358	-0.000040
H68	H	1.572908	0.547358	0.499960
Cl69	Cl	0.994185	-0.399707	-0.000077
Cl70	Cl	1.494185	0.100293	0.499923
Cl71	Cl	1.799130	-0.644012	-0.000235
Cl72	Cl	2.299130	-0.144012	0.499765
H73	H	1.378021	0.021003	0.411927
H74	H	1.878021	0.521003	0.911927
Cl75	Cl	1.696705	-0.367519	0.556271
Cl76	Cl	2.196705	0.132481	1.056271
H77	H	1.659653	-0.805888	-0.206592
H78	H	2.159653	-0.305888	0.293408
H79	H	1.439249	-0.570819	-0.206792
H80	H	1.939249	-0.070819	0.293208
H81	H	1.608038	-0.259841	0.363042
H82	H	2.108038	0.240159	0.863042
Cl83	Cl	1.335739	-0.447895	0.257916
Cl84	Cl	1.835739	0.052105	0.757916
H85	H	1.592002	-0.723261	0.206434
H86	H	2.092002	-0.223261	0.706434
H87	H	1.423073	-0.033981	0.636866
H88	H	1.923073	0.466019	1.136866
