data_functionalizedCrystal
_audit_creation_method	'MofGen! by Chris Wilmer'
_symmetry_space_group_name_H-M	'P1'
_symmetry_Int_Tables_number	1
_symmetry_cell_setting	triclinic
loop_
_symmetry_equiv_pos_as_xyz
  x,y,z
_cell_length_a	14.044220
_cell_length_b	17.699083
_cell_length_c	16.776229
_cell_angle_alpha	90.007545
_cell_angle_beta	90.002022
_cell_angle_gamma	88.235946
loop_
_atom_site_label
_atom_site_type_symbol
_atom_site_fract_x
_atom_site_fract_y
_atom_site_fract_z
O1	O	-1.257290	-0.182444	-0.066207
O2	O	-0.757290	0.317556	0.433793
O3	O	-0.981336	-0.175860	-0.066227
O4	O	-0.481336	0.324140	0.433773
O5	O	-1.127109	-0.069500	-0.066209
O6	O	-0.627109	0.430500	0.433791
O7	O	-1.111516	-0.288803	-0.066224
O8	O	-0.611516	0.211197	0.433776
O9	O	-1.127090	-0.069492	0.066367
O10	O	-0.627090	0.430508	0.566367
O11	O	-0.981317	-0.175852	0.066350
O12	O	-0.481317	0.324148	0.566350
O13	O	-1.257271	-0.182435	0.066370
O14	O	-0.757271	0.317565	0.566370
Zn15	Zn	-1.119290	-0.179142	0.087409
Zn16	Zn	-0.619290	0.320858	0.587409
Zn17	Zn	-1.119316	-0.179153	-0.087266
Zn18	Zn	-0.619316	0.320847	0.412734
O19	O	-1.111497	-0.288795	0.066352
O20	O	-0.611497	0.211205	0.566352
C21	C	-0.946018	-0.172974	0.000059
C22	C	-0.446018	0.327026	0.500059
C23	C	-0.840812	-0.164378	0.000052
C24	C	-0.340812	0.335622	0.500052
C25	C	-1.126541	-0.041261	0.000079
C26	C	-0.626541	0.458739	0.500079
C27	C	-1.124865	0.042873	0.000079
C28	C	-0.624865	0.542873	0.500079
C29	C	-1.292588	-0.185321	0.000082
C30	C	-0.792588	0.314679	0.500082
C31	C	-1.397794	-0.193917	0.000085
C32	C	-0.897794	0.306083	0.500085
C33	C	-0.648187	-0.148663	0.000069
C34	C	-0.148187	0.351337	0.500069
C35	C	-0.590414	-0.209629	0.000068
C36	C	-0.090414	0.290371	0.500068
C37	C	-0.483230	-0.200885	0.000077
C38	C	0.016770	0.299115	0.500077
C39	C	-0.755381	-0.157406	0.000059
C40	C	-0.255381	0.342594	0.500059
C41	C	-1.112066	-0.317035	0.000062
C42	C	-0.612066	0.182965	0.500062
C43	C	-1.113742	-0.401168	0.000057
C44	C	-0.613742	0.098832	0.500057
N45	N	-1.119280	-0.179134	0.206620
N46	N	-0.619280	0.320866	0.706620
C47	C	-1.210431	0.085591	0.000087
C48	C	-0.710431	0.585591	0.500087
C49	C	-1.208850	0.164644	0.000080
C50	C	-0.708850	0.664644	0.500080
C51	C	-1.121702	0.200976	0.000071
C52	C	-0.621702	0.700976	0.500071
C53	C	-1.036130	0.158252	0.000061
C54	C	-0.536130	0.658252	0.500061
C55	C	-1.037712	0.079201	0.000063
C56	C	-0.537712	0.579201	0.500063
C57	C	-1.029750	0.477055	0.000054
C58	C	-0.529750	0.977055	0.500054
C59	C	-1.028175	0.556112	0.000055
C60	C	-0.528175	1.056112	0.500055
C61	C	-1.200888	0.562498	0.000071
C62	C	-0.700888	1.062498	0.500071
C63	C	-1.202470	0.483447	0.000073
C64	C	-0.702470	0.983447	0.500073
C65	C	-1.116898	0.440730	0.000059
C66	C	-0.616898	0.940730	0.500059
C67	C	-1.118613	0.355012	0.000065
C68	C	-0.618613	0.855012	0.500065
C69	C	-1.119987	0.286692	0.000070
C70	C	-0.619987	0.786692	0.500070
N71	N	-1.119334	-0.179155	-0.206477
N72	N	-0.619334	0.320845	0.293523
C73	C	-1.183848	-0.132061	0.248345
C74	C	-0.683848	0.367939	0.748345
C75	C	-1.183853	-0.132061	0.331798
C76	C	-0.683853	0.367939	0.831798
C77	C	-1.119294	-0.179138	0.373523
C78	C	-0.619294	0.320862	0.873523
C79	C	-1.054719	-0.226214	0.331793
C80	C	-0.554719	0.273786	0.831793
C81	C	-1.054710	-0.226210	0.248342
C82	C	-0.554710	0.273790	0.748342
C83	C	-1.054754	-0.226231	0.668340
C84	C	-0.554754	0.273769	1.168340
C85	C	-1.054770	-0.226233	0.751796
C86	C	-0.554770	0.273767	1.251796
C87	C	-1.183897	-0.132082	0.751795
C88	C	-0.683897	0.367918	1.251795
C89	C	-1.183888	-0.132078	0.668345
C90	C	-0.683888	0.367922	1.168345
C91	C	-1.119310	-0.179150	0.626621
C92	C	-0.619310	0.320850	1.126621
C93	C	-1.119304	-0.179149	0.536133
C94	C	-0.619304	0.320851	1.036133
C95	C	-1.119304	-0.179144	0.464010
C96	C	-0.619304	0.320856	0.964010
H97	H	-0.621449	-0.268391	0.000060
H98	H	-0.121449	0.231609	0.500060
C99	C	-0.680501	-0.014655	0.000066
C100	C	-0.180501	0.485345	0.500066
C101	C	-0.606299	-0.069340	0.000071
C102	C	-0.106299	0.430660	0.500071
H103	H	-0.654630	0.034314	0.000069
H104	H	-0.154630	0.534314	0.500069
H105	H	-0.718590	-0.020599	-0.046165
H106	H	-0.218590	0.479401	0.453835
H107	H	-0.718597	-0.020588	0.046300
H108	H	-0.218597	0.479412	0.546300
H109	H	-0.568207	-0.063410	-0.046167
H110	H	-0.068207	0.436590	0.453833
H111	H	-0.568194	-0.063393	0.046306
H112	H	-0.068194	0.436607	0.546306
H113	H	-1.281396	0.056016	0.000099
H114	H	-0.781396	0.556016	0.500099
H115	H	-1.236429	-0.093729	0.365770
H116	H	-0.736429	0.406271	0.865770
H117	H	-1.278527	0.199422	0.000087
H118	H	-0.778527	0.699422	0.500087
C119	C	-0.927124	-0.319304	0.676735
C120	C	-0.427124	0.180696	1.176735
C121	C	-0.983778	-0.277979	0.622485
C122	C	-0.483778	0.222021	1.122485
H123	H	-0.883309	-0.351256	0.648421
H124	H	-0.383309	0.148744	1.148421
H125	H	-0.893116	-0.285488	0.709293
H126	H	-0.393116	0.214512	1.209293
H127	H	-0.966525	-0.349205	0.709274
H128	H	-0.466525	0.150795	1.209274
H129	H	-0.944377	-0.248073	0.589949
H130	H	-0.444377	0.251927	1.089949
H131	H	-1.017788	-0.311800	0.589913
H132	H	-0.517788	0.188200	1.089913
H133	H	-0.965173	0.187840	0.000049
H134	H	-0.465173	0.687840	0.500049
C135	C	-1.373038	0.497702	0.000079
C136	C	-0.873038	0.997702	0.500079
C137	C	-1.298265	0.443511	0.000078
C138	C	-0.798265	0.943511	0.500078
H139	H	-1.432177	0.473046	0.000075
H140	H	-0.932177	0.973046	0.500075
H141	H	-1.368826	0.528405	0.046308
H142	H	-0.868826	1.028405	0.546308
H143	H	-1.368826	0.528398	-0.046157
H144	H	-0.868826	1.028398	0.453843
H145	H	-1.302472	0.412819	0.046317
H146	H	-0.802472	0.912819	0.546317
H147	H	-1.302478	0.412795	-0.046156
H148	H	-0.802478	0.912795	0.453844
C149	C	-1.275170	0.686514	0.000063
C150	C	-0.775170	1.186514	0.500063
C151	C	-1.294954	0.609455	0.000074
C152	C	-0.794954	1.109455	0.500074
H153	H	-1.333241	0.715500	0.000062
H154	H	-0.833241	1.215500	0.500062
H155	H	-1.239427	0.698162	0.046289
H156	H	-0.739427	1.198162	0.546289
H157	H	-1.239435	0.698141	-0.046176
H158	H	-0.739435	1.198141	0.453824
H159	H	-1.330682	0.597827	0.046317
H160	H	-0.830682	1.097827	0.546317
H161	H	-1.330711	0.597803	-0.046156
H162	H	-0.830711	1.097803	0.453844
H163	H	-0.957205	0.585691	0.000050
H164	H	-0.457205	1.085691	0.500050
H165	H	-0.968035	0.044420	0.000056
H166	H	-0.468035	0.544420	0.500056
C167	C	-0.858868	0.478694	0.000056
C168	C	-0.358868	0.978694	0.500056
C169	C	-0.935690	0.430107	0.000054
C170	C	-0.435690	0.930107	0.500054
H171	H	-0.800798	0.449706	0.000063
H172	H	-0.300798	0.949706	0.500063
H173	H	-0.861847	0.509650	-0.046175
H174	H	-0.361847	1.009650	0.453825
H175	H	-0.861853	0.509669	0.046290
H176	H	-0.361853	1.009669	0.546290
H177	H	-0.932709	0.399136	-0.046183
H178	H	-0.432709	0.899136	0.453817
H179	H	-0.932710	0.399138	0.046290
H180	H	-0.432710	0.899138	0.546290
H181	H	-1.236423	-0.093728	0.214378
H182	H	-0.736423	0.406272	0.714378
H183	H	-1.236461	-0.093745	0.634374
H184	H	-0.736461	0.406255	1.134374
C185	C	-1.204721	-0.030483	0.845652
C186	C	-0.704721	0.469517	1.345652
C187	C	-1.254873	-0.080329	0.797661
C188	C	-0.754873	0.419671	1.297661
H189	H	-1.248540	0.001467	0.873962
H190	H	-0.748540	0.501467	1.373962
H191	H	-1.166283	-0.058520	0.882442
H192	H	-0.666283	0.441480	1.382442
H193	H	-1.165339	-0.000582	0.813096
H194	H	-0.665339	0.499418	1.313096
H195	H	-1.294250	-0.110233	0.830218
H196	H	-0.794250	0.389767	1.330218
H197	H	-1.293328	-0.052289	0.760867
H198	H	-0.793328	0.447711	1.260867
C199	C	-0.925774	-0.233880	0.845668
C200	C	-0.425774	0.266120	1.345668
C201	C	-0.983796	-0.277979	0.797666
C202	C	-0.483796	0.222021	1.297666
H203	H	-0.881966	-0.265826	0.873990
H204	H	-0.381966	0.234174	1.373990
H205	H	-0.891759	-0.200067	0.813124
H206	H	-0.391759	0.299933	1.313124
H207	H	-0.964248	-0.205850	0.882455
H208	H	-0.464248	0.294150	1.382455
H209	H	-0.945322	-0.306005	0.760875
H210	H	-0.445322	0.193995	1.260875
H211	H	-1.017813	-0.311806	0.830213
H212	H	-0.517813	0.188194	1.330213
H213	H	-1.002149	-0.264543	0.365771
H214	H	-0.502149	0.235457	0.865771
C215	C	-0.927079	-0.319285	0.256720
C216	C	-0.427079	0.180715	0.756720
C217	C	-0.983739	-0.277958	0.202475
C218	C	-0.483739	0.222042	0.702475
H219	H	-0.883266	-0.351234	0.228402
H220	H	-0.383266	0.148766	0.728402
H221	H	-0.893070	-0.285469	0.289277
H222	H	-0.393070	0.214531	0.789277
H223	H	-0.966476	-0.349188	0.289260
H224	H	-0.466476	0.150812	0.789260
H225	H	-0.944343	-0.248051	0.169938
H226	H	-0.444343	0.251949	0.669938
H227	H	-1.017751	-0.311778	0.169904
H228	H	-0.517751	0.188222	0.669904
