data_functionalizedCrystal
_audit_creation_method	'MofGen! by Chris Wilmer'
_symmetry_space_group_name_H-M	'P1'
_symmetry_Int_Tables_number	1
_symmetry_cell_setting	triclinic
loop_
_symmetry_equiv_pos_as_xyz
  x,y,z
_cell_length_a	21.295420
_cell_length_b	21.295417
_cell_length_c	16.959447
_cell_angle_alpha	89.964725
_cell_angle_beta	89.981879
_cell_angle_gamma	90.026289
loop_
_atom_site_label
_atom_site_type_symbol
_atom_site_fract_x
_atom_site_fract_y
_atom_site_fract_z
Zn1	Zn	0.962315	-0.250667	-0.446907
Zn2	Zn	1.462315	0.249333	0.053093
Zn3	Zn	0.962229	-0.355944	-0.314717
Zn4	Zn	1.462229	0.144056	0.185283
Zn5	Zn	0.857050	-0.250685	-0.314742
Zn6	Zn	1.357050	0.249315	0.185258
Zn7	Zn	0.857008	-0.355895	-0.446853
Zn8	Zn	1.357008	0.144105	0.053147
O9	O	0.909651	-0.303298	-0.380804
O10	O	1.409651	0.196702	0.119196
O11	O	1.050393	-0.264646	-0.429384
O12	O	1.550393	0.235354	0.070616
O13	O	0.948259	-0.342009	-0.204109
O14	O	1.448259	0.157991	0.295891
O15	O	0.871068	-0.162593	-0.332306
O16	O	1.371068	0.337407	0.167694
O17	O	1.050330	-0.341992	-0.332264
O18	O	1.550330	0.158008	0.167736
O19	O	0.948405	-0.162580	-0.429408
O20	O	1.448405	0.337420	0.070592
O21	O	0.870984	-0.264676	-0.204127
O22	O	1.370984	0.235324	0.295873
O23	O	0.768955	-0.264628	-0.332254
O24	O	1.268955	0.235372	0.167746
O25	O	0.870995	-0.341908	-0.557471
O26	O	1.370995	0.158092	-0.057471
O27	O	0.768924	-0.341925	-0.429316
O28	O	1.268924	0.158075	0.070684
O29	O	0.948364	-0.264598	-0.557511
O30	O	1.448364	0.235402	-0.057511
O31	O	0.948218	-0.444027	-0.332212
O32	O	1.448218	0.055973	0.167788
O33	O	0.870912	-0.443991	-0.429292
O34	O	1.370912	0.056009	0.070708
C35	C	0.746099	-0.303274	-0.380782
C36	C	1.246099	0.196726	0.119218
C37	C	0.676131	-0.303278	-0.380791
C38	C	1.176131	0.196722	0.119209
C39	C	0.176705	-0.263118	-0.431469
C40	C	0.676705	0.236882	0.068531
C41	C	0.242448	-0.263114	-0.431468
C42	C	0.742448	0.236886	0.068532
C43	C	0.275291	-0.303317	-0.380823
C44	C	0.775291	0.196683	0.119177
C45	C	0.242387	-0.343539	-0.330188
C46	C	0.742387	0.156461	0.169812
C47	C	0.176646	-0.343547	-0.330195
C48	C	0.676646	0.156453	0.169805
N49	N	0.378488	-0.308066	-0.311611
N50	N	0.878488	0.191934	0.188389
N51	N	0.440939	-0.308054	-0.311606
N52	N	0.940939	0.191946	0.188394
C53	C	0.473366	-0.303296	-0.380800
C54	C	0.973366	0.196704	0.119200
N55	N	0.440983	-0.298537	-0.449999
N56	N	0.940983	0.201463	0.050001
N57	N	0.378526	-0.298545	-0.450003
N58	N	0.878526	0.201455	0.049997
C59	C	0.346577	-0.303313	-0.380810
C60	C	0.846577	0.196687	0.119190
C61	C	0.577548	-0.263074	-0.431435
C62	C	1.077548	0.236926	0.068565
C63	C	0.643292	-0.263074	-0.431436
C64	C	1.143292	0.236926	0.068564
C65	C	0.643230	-0.343496	-0.330149
C66	C	1.143230	0.156504	0.169851
C67	C	0.577488	-0.343500	-0.330155
C68	C	1.077488	0.156500	0.169845
C69	C	0.544651	-0.303286	-0.380797
C70	C	1.044651	0.196714	0.119203
C71	C	0.909568	-0.466849	-0.380761
C72	C	1.409568	0.033151	0.119239
C73	C	0.909590	-0.536817	-0.380768
C74	C	1.409590	-0.036817	0.119232
C75	C	0.949879	-0.569682	-0.330271
C76	C	1.449879	-0.069682	0.169729
C77	C	0.949909	-0.635425	-0.330289
C78	C	1.449909	-0.135425	0.169711
C79	C	0.909638	-0.668300	-0.380796
C80	C	1.409638	-0.168300	0.119204
C81	C	0.869346	-0.635427	-0.431303
C82	C	1.369346	-0.135427	0.068697
C83	C	0.869323	-0.569686	-0.431289
C84	C	1.369323	-0.069686	0.068711
N85	N	0.854571	-0.771561	-0.386814
N86	N	1.354571	-0.271561	0.113186
N87	N	0.854595	-0.834013	-0.386822
N88	N	1.354595	-0.334013	0.113178
C89	C	0.909709	-0.866375	-0.380841
C90	C	1.409709	-0.366375	0.119159
N91	N	0.964798	-0.833926	-0.374836
N92	N	1.464798	-0.333926	0.125164
N93	N	0.964773	-0.771469	-0.374823
N94	N	1.464773	-0.271469	0.125177
C95	C	0.909660	-0.739585	-0.380816
C96	C	1.409660	-0.239585	0.119184
C97	C	0.950033	-0.970525	-0.330360
C98	C	1.450033	-0.470525	0.169640
C99	C	0.950064	-1.036268	-0.330383
C100	C	1.450064	-0.536268	0.169617
C101	C	0.869496	-1.036270	-0.431394
C102	C	1.369496	-0.536270	0.068606
C103	C	0.869471	-0.970528	-0.431374
C104	C	1.369471	-0.470528	0.068626
C105	C	0.909738	-0.937659	-0.380853
C106	C	1.409738	-0.437659	0.119147
C107	C	1.073841	-0.303322	-0.380827
C108	C	1.573841	0.196678	0.119173
C109	C	1.143809	-0.303333	-0.380837
C110	C	1.643809	0.196667	0.119163
C111	C	0.909684	-0.303245	-0.586973
C112	C	1.409684	0.196755	-0.086973
C113	C	0.909699	-0.303223	-0.674829
C114	C	1.409699	0.196777	-0.174829
C115	C	0.909751	-0.139107	-0.380866
C116	C	1.409751	0.360893	0.119134
C117	C	0.909793	-0.069139	-0.380892
C118	C	1.409793	0.430861	0.119108
C119	C	0.869521	-0.262893	-1.046321
C120	C	1.369521	0.237107	-0.546321
C121	C	0.949988	-0.343421	-1.046290
C122	C	1.449988	0.156579	-0.546290
C123	C	0.949977	-0.343435	-0.963744
C124	C	1.449977	0.156565	-0.463744
C125	C	0.909737	-0.303179	-0.922483
C126	C	1.409737	0.196821	-0.422483
C127	C	0.869507	-0.262907	-0.963767
C128	C	1.369507	0.237093	-0.463767
C129	C	0.990201	-0.383710	-0.922453
C130	C	1.490201	0.116290	-0.422453
C131	C	0.990191	-0.383727	-0.839902
C132	C	1.490191	0.116273	-0.339902
C133	C	0.949953	-0.343467	-0.798639
C134	C	1.449953	0.156533	-0.298639
C135	C	0.909723	-0.303194	-0.839929
C136	C	1.409723	0.196806	-0.339929
C137	C	0.869483	-0.262937	-0.798668
C138	C	1.369483	0.237063	-0.298668
C139	C	0.829255	-0.222660	-0.839956
C140	C	1.329255	0.277340	-0.339956
C141	C	0.829270	-0.222647	-0.922505
C142	C	1.329270	0.277353	-0.422505
C143	C	0.949939	-0.343480	-0.716091
C144	C	1.449939	0.156520	-0.216091
C145	C	0.869470	-0.262952	-0.716114
C146	C	1.369470	0.237048	-0.216114
C147	C	0.909653	-0.303304	-0.175438
C148	C	1.409653	0.196696	0.324562
C149	C	0.909761	-0.303149	-0.087582
C150	C	1.409761	0.196851	0.412418
H151	H	0.269133	-0.376275	-0.288954
H152	H	0.769133	0.123725	0.211046
Br153	Br	1.004591	-0.680037	-0.261752
Br154	Br	1.504591	-0.180037	0.238248
H155	H	0.982669	-0.542922	-0.289136
H156	H	1.482669	-0.042922	0.210864
H157	H	0.550810	-0.230329	-0.472671
H158	H	1.050810	0.269671	0.027329
Br159	Br	0.687797	-0.398066	-0.261423
Br160	Br	1.187797	0.101934	0.238577
H161	H	0.836704	-0.230166	-0.682525
H162	H	1.336704	0.269834	-0.182525
H163	H	0.149862	-0.376296	-0.288964
H164	H	0.649862	0.123704	0.211036
Br165	Br	0.687938	-0.208499	-0.500166
Br166	Br	1.187938	0.291501	-0.000166
Br167	Br	1.004679	-0.925913	-0.261795
Br168	Br	1.504679	-0.425913	0.238205
H169	H	0.836559	-0.662199	-0.472428
H170	H	1.336559	-0.162199	0.027572
H171	H	0.836514	-0.542927	-0.472412
H172	H	1.336514	-0.042927	0.027588
Br173	Br	0.532840	-0.398071	-0.261425
Br174	Br	1.032840	0.101929	0.238575
Br175	Br	0.287102	-0.208532	-0.500187
Br176	Br	0.787102	0.291468	-0.000187
Br177	Br	1.004753	-1.080872	-0.261853
Br178	Br	1.504753	-0.580872	0.238147
Br179	Br	1.044800	-0.438350	-0.978452
Br180	Br	1.544800	0.061650	-0.478452
Br181	Br	0.774646	-0.168028	-0.783949
Br182	Br	1.274646	0.331972	-0.283949
Br183	Br	0.814788	-0.925922	-0.499909
Br184	Br	1.314788	-0.425922	0.000091
Br185	Br	0.814848	-1.080879	-0.499949
Br186	Br	1.314848	-0.580879	0.000051
H187	H	0.796518	-0.189857	-0.956129
H188	H	1.296518	0.310143	-0.456129
H189	H	0.836770	-0.230098	-1.079942
H190	H	1.336770	0.269902	-0.579942
H191	H	0.982744	-0.376201	-1.079889
H192	H	1.482744	0.123799	-0.579889
H193	H	0.982696	-0.376268	-0.682477
H194	H	1.482696	0.123732	-0.182477
Br195	Br	0.132143	-0.208546	-0.500202
Br196	Br	0.632143	0.291454	-0.000202
Br197	Br	1.044786	-0.438386	-0.783875
Br198	Br	1.544786	0.061614	-0.283875
