data_functionalizedCrystal
_audit_creation_method	'MofGen! by Chris Wilmer'
_symmetry_space_group_name_H-M	'P1'
_symmetry_Int_Tables_number	1
_symmetry_cell_setting	triclinic
loop_
_symmetry_equiv_pos_as_xyz
  x,y,z
_cell_length_a	14.519709
_cell_length_b	13.101039
_cell_length_c	14.519709
_cell_angle_alpha	86.632446
_cell_angle_beta	83.680145
_cell_angle_gamma	93.358259
loop_
_atom_site_label
_atom_site_type_symbol
_atom_site_fract_x
_atom_site_fract_y
_atom_site_fract_z
O1	O	1.228925	0.085083	0.115817
O2	O	1.562258	0.418416	0.449151
O3	O	1.895591	0.751749	0.782484
O4	O	0.960450	0.085114	0.130052
O5	O	1.293783	0.418448	0.463385
O6	O	1.627116	0.751781	0.796719
O7	O	1.101805	0.085088	-0.011303
O8	O	1.435138	0.418422	0.322030
O9	O	1.768471	0.751755	0.655364
O10	O	1.087569	0.085109	0.257173
O11	O	1.420903	0.418442	0.590506
O12	O	1.754236	0.751775	0.923839
O13	O	1.091663	-0.085340	-0.001144
O14	O	1.424996	0.247994	0.332189
O15	O	1.758329	0.581327	0.665522
O16	O	0.950308	-0.085314	0.140211
O17	O	1.283641	0.248020	0.473544
O18	O	1.616974	0.581353	0.806878
O19	O	1.218783	-0.085345	0.125976
O20	O	1.552116	0.247988	0.459310
O21	O	1.885449	0.581321	0.792643
Zn22	Zn	1.082935	-0.112389	0.134707
Zn23	Zn	1.416268	0.220945	0.468040
Zn24	Zn	1.749601	0.554278	0.801373
Zn25	Zn	1.096297	0.112158	0.121322
Zn26	Zn	1.429631	0.445491	0.454655
Zn27	Zn	1.762964	0.778824	0.787988
O28	O	1.077427	-0.085319	0.267331
O29	O	1.410761	0.248014	0.600665
O30	O	1.744094	0.581347	0.933998
C31	C	0.921019	-0.000096	0.134468
C32	C	1.254352	0.333238	0.467801
C33	C	1.587686	0.666571	0.801134
C34	C	0.818638	-0.000084	0.132479
C35	C	1.151972	0.333249	0.465812
C36	C	1.485305	0.666583	0.799146
N37	N	1.073822	-0.265635	0.143841
N38	N	1.407155	0.067698	0.477174
N39	N	1.740489	0.401031	0.810507
C40	C	0.443740	-0.000131	0.125162
C41	C	0.777073	0.333202	0.458496
C42	C	1.110406	0.666536	0.791829
C43	C	0.548049	-0.000118	0.127194
C44	C	0.881382	0.333216	0.460527
C45	C	1.214715	0.666549	0.793861
C46	C	0.631186	-0.000107	0.128820
C47	C	0.964519	0.333227	0.462154
C48	C	1.297853	0.666560	0.795487
C49	C	0.735501	-0.000095	0.130853
C50	C	1.068834	0.333238	0.464186
C51	C	1.402168	0.666572	0.797519
C52	C	1.061423	-0.474676	0.156277
C53	C	1.394757	-0.141342	0.489610
C54	C	1.728090	0.191991	0.822943
C55	C	1.117813	-0.525562	0.099747
C56	C	1.451146	-0.192228	0.433081
C57	C	1.784480	0.141105	0.766414
C58	C	1.110914	-0.641879	0.106667
C59	C	1.444248	-0.308546	0.440000
C60	C	1.777581	0.024788	0.773334
C61	C	1.068321	-0.358348	0.149358
C62	C	1.401654	-0.025015	0.482692
C63	C	1.734988	0.308319	0.816025
C64	C	1.258213	-0.000133	0.121560
C65	C	1.591547	0.333200	0.454894
C66	C	1.924880	0.666534	0.788227
C67	C	1.360594	-0.000138	0.123549
C68	C	1.693928	0.333195	0.456882
C69	C	2.027261	0.666529	0.790216
C70	C	1.096070	-0.000126	-0.040583
C71	C	1.429404	0.333208	0.292750
C72	C	1.762737	0.666541	0.626083
C73	C	1.094082	-0.000126	-0.142965
C74	C	1.427415	0.333207	0.190369
C75	C	1.760749	0.666541	0.523702
N76	N	1.105418	0.265405	0.112180
N77	N	1.438751	0.598738	0.445514
N78	N	1.772084	0.932071	0.778847
C79	C	1.086764	-0.000098	-0.517862
C80	C	1.420098	0.333235	-0.184529
C81	C	1.753431	0.666568	0.148805
C82	C	1.088796	-0.000106	-0.413554
C83	C	1.422130	0.333227	-0.080220
C84	C	1.755463	0.666560	0.253113
C85	C	1.090423	-0.000113	-0.330417
C86	C	1.423756	0.333220	0.002917
C87	C	1.757089	0.666553	0.336250
C88	C	1.092456	-0.000119	-0.226102
C89	C	1.425789	0.333214	0.107232
C90	C	1.759122	0.666547	0.440565
C91	C	1.083162	-0.000103	0.296612
C92	C	1.416495	0.333230	0.629945
C93	C	1.749829	0.666564	0.963278
C94	C	1.085151	-0.000096	0.398992
C95	C	1.418484	0.333237	0.732326
C96	C	1.751817	0.666571	1.065659
H97	H	1.171271	-0.481769	0.046155
H98	H	1.504604	-0.148436	0.379489
H99	H	1.837938	0.184897	0.712822
H100	H	1.007970	-0.518463	0.209866
H101	H	1.341303	-0.185130	0.543200
H102	H	1.674637	0.148204	0.876533
