data_functionalizedCrystal
_audit_creation_method	'MofGen! by Chris Wilmer'
_symmetry_space_group_name_H-M	'P1'
_symmetry_Int_Tables_number	1
_symmetry_cell_setting	triclinic
loop_
_symmetry_equiv_pos_as_xyz
  x,y,z
_cell_length_a	16.992694
_cell_length_b	19.188930
_cell_length_c	15.455313
_cell_angle_alpha	92.650876
_cell_angle_beta	87.142206
_cell_angle_gamma	86.906503
loop_
_atom_site_label
_atom_site_type_symbol
_atom_site_fract_x
_atom_site_fract_y
_atom_site_fract_z
O1	O	1.043326	0.145160	-0.072038
O2	O	0.815047	0.143535	-0.072064
O3	O	0.935773	0.043078	-0.072033
O4	O	0.922600	0.245617	-0.072069
O5	O	0.928870	0.048798	0.072227
O6	O	0.808144	0.149255	0.072197
O7	O	1.036422	0.150879	0.072222
Cu8	Cu	0.921653	0.150589	0.085382
Cu9	Cu	0.929817	0.143825	-0.085223
O10	O	0.915696	0.251336	0.072192
C11	C	0.782390	0.144306	0.000064
C12	C	0.695368	0.138072	0.000055
C13	C	0.644922	0.198212	0.000045
C14	C	0.563155	0.192351	0.000058
C15	C	0.531836	0.126351	0.000075
C16	C	0.582288	0.066208	0.000087
C17	C	0.664053	0.072069	0.000080
C18	C	0.288320	0.102059	0.000102
C19	C	0.206548	0.096203	0.000106
C20	C	0.187420	0.222347	0.000079
C21	C	0.269188	0.228202	0.000067
C22	C	0.319633	0.168059	0.000084
N23	N	0.448257	0.120360	0.000085
N24	N	0.403210	0.174051	0.000079
C25	C	0.931895	0.019902	0.000099
C26	C	0.930614	-0.057677	0.000107
C27	C	1.001452	-0.098455	0.000119
C28	C	1.000250	-0.171350	0.000105
C29	C	0.928204	-0.203463	0.000096
C30	C	0.857356	-0.162676	0.000079
C31	C	0.858561	-0.089783	0.000085
N32	N	0.870784	-0.312744	0.049185
N33	N	0.869644	-0.381990	0.049181
C34	C	0.924569	-0.423085	0.000078
N35	N	0.980688	-0.392319	-0.049011
N36	N	0.981830	-0.323067	-0.049004
C37	C	0.926889	-0.282503	0.000090
C38	C	0.994108	-0.542904	0.000074
C39	C	0.992903	-0.615801	0.000054
C40	C	0.850007	-0.607124	0.000038
C41	C	0.851215	-0.534230	0.000048
C42	C	0.923267	-0.502124	0.000070
C43	C	1.069079	0.150109	0.000093
C44	C	1.156102	0.156342	0.000096
C45	C	0.919575	0.274513	0.000057
C46	C	0.920856	0.352092	0.000044
N47	N	0.915916	0.155346	0.205376
N48	N	0.935560	0.139063	-0.205217
C49	C	0.967222	0.112686	0.250783
C50	C	0.962891	0.116291	0.341590
C51	C	0.907257	0.162559	0.386988
C52	C	0.855945	0.205221	0.341574
C53	C	0.860273	0.201613	0.250769
C54	C	0.888576	0.178116	0.658564
C55	C	0.884253	0.181723	0.749376
C56	C	0.991199	0.092792	0.749385
C57	C	0.995525	0.089190	0.658578
C58	C	0.944211	0.131849	0.613173
N59	N	0.902830	0.166246	0.479807
N60	N	0.948634	0.128158	0.520355
H61	H	0.294682	0.281946	0.000043
C62	C	0.131933	0.288501	0.000064
H63	H	0.162297	0.328646	0.000047
H64	H	0.097237	0.290834	0.050372
H65	H	0.102042	0.286840	-0.050248
C66	C	0.832139	0.225046	0.608630
H67	H	0.798393	0.253123	0.648675
H68	H	0.801279	0.196693	0.573219
H69	H	0.861930	0.254288	0.573194
C70	C	0.780635	-0.044925	0.000080
H71	H	0.737553	-0.074487	0.000076
H72	H	0.780542	-0.018291	-0.050222
H73	H	0.775730	-0.014326	0.050398
C74	C	1.073361	-0.507585	0.000088
H75	H	1.115380	-0.542315	0.000081
H76	H	1.074395	-0.477345	0.050399
H77	H	1.079207	-0.481316	-0.050221
H78	H	1.057937	-0.204558	0.000111
H79	H	0.810642	0.242891	0.378543
C80	C	0.343803	0.035906	0.000108
H81	H	0.396986	0.048845	0.000110
H82	H	0.336731	0.007038	-0.050194
H83	H	0.331931	0.011025	0.050425
H84	H	0.798696	-0.188827	0.000070
H85	H	1.050591	-0.649002	0.000059
C86	C	0.507667	0.258505	0.000044
H87	H	0.538031	0.298650	0.000023
H88	H	0.472973	0.260839	0.050354
H89	H	0.477773	0.256842	-0.050266
H90	H	0.181052	0.042455	0.000119
C91	C	0.770758	-0.642440	0.000025
H92	H	0.780184	-0.691693	0.000028
H93	H	0.744007	-0.630696	-0.050284
H94	H	0.739193	-0.626726	0.050336
C95	C	1.080704	-0.063140	0.000140
H96	H	1.071279	-0.013886	0.000149
H97	H	1.112275	-0.078855	-0.050160
H98	H	1.107447	-0.074882	0.050460
C99	C	0.547839	-0.006391	0.000104
H100	H	0.491918	-0.001270	0.000097
H101	H	0.562769	-0.029352	0.050413
H102	H	0.567573	-0.033338	-0.050206
H103	H	0.705127	0.023097	0.000088
H104	H	0.793530	-0.501027	0.000043
H105	H	1.032976	0.058060	0.786362
H106	H	1.012529	0.075013	0.213826
C107	C	1.019336	0.069372	0.391534
H108	H	1.053097	0.041307	0.351491
H109	H	0.989558	0.040129	0.426972
H110	H	1.050191	0.097738	0.426941
C111	C	0.823053	0.232618	0.799317
H112	H	0.827834	0.228662	0.859900
H113	H	0.771469	0.221499	0.784452
H114	H	0.832115	0.279098	0.784418
H115	H	0.818493	0.236350	0.213800
C116	C	0.679365	0.270812	0.000026
H117	H	0.637607	0.305789	0.000030
H118	H	0.713265	0.273728	-0.050283
H119	H	0.708463	0.277715	0.050337
C120	C	1.056718	0.038291	0.608646
H121	H	1.086651	0.013395	0.648695
H122	H	1.090951	0.063830	0.573208
H123	H	1.030301	0.006235	0.573239
