data_functionalizedCrystal
_audit_creation_method	'MofGen! by Chris Wilmer'
_symmetry_space_group_name_H-M	'P1'
_symmetry_Int_Tables_number	1
_symmetry_cell_setting	triclinic
loop_
_symmetry_equiv_pos_as_xyz
  x,y,z
_cell_length_a	13.635800
_cell_length_b	15.866870
_cell_length_c	17.804807
_cell_angle_alpha	113.816373
_cell_angle_beta	80.488431
_cell_angle_gamma	77.344085
loop_
_atom_site_label
_atom_site_type_symbol
_atom_site_fract_x
_atom_site_fract_y
_atom_site_fract_z
V1	V	2.000585	-0.133678	-0.275090
O2	O	1.985044	0.005496	-0.231482
O3	O	1.985608	-0.264169	-0.310112
O4	O	1.966617	-0.132029	-0.378229
O5	O	2.004166	-0.127559	-0.162894
V6	V	2.242470	-0.116983	-0.257187
O7	O	2.130944	-0.170300	-0.314361
O8	O	2.337209	-0.080361	-0.217916
O9	O	2.145843	0.013508	-0.222165
O10	O	2.316710	-0.256157	-0.300795
O11	O	2.297587	-0.123102	-0.369384
O12	O	2.164834	-0.118632	-0.154048
V13	V	2.500585	-0.133678	-0.275090
O14	O	2.485044	0.005496	-0.231482
O15	O	2.485608	-0.264169	-0.310112
O16	O	2.466617	-0.132029	-0.378229
O17	O	2.504166	-0.127559	-0.162894
V18	V	2.742470	-0.116983	-0.257187
O19	O	2.630944	-0.170300	-0.314361
O20	O	2.837209	-0.080361	-0.217916
O21	O	2.645843	0.013508	-0.222165
O22	O	2.816710	-0.256157	-0.300795
O23	O	2.797587	-0.123102	-0.369384
O24	O	2.664834	-0.118632	-0.154048
C25	C	1.910668	-0.295967	-0.315295
C26	C	1.939001	-0.402648	-0.344618
C27	C	1.959210	-0.683701	-0.072626
C28	C	1.985836	-0.783948	-0.100204
C29	C	2.015024	-0.811860	-0.247580
C30	C	1.988396	-0.711612	-0.220013
C31	C	1.960492	-0.647540	-0.132535
C32	C	1.989678	-0.675452	-0.279923
C33	C	1.963057	-0.575213	-0.252359
C34	C	1.935155	-0.511136	-0.164885
C35	C	1.933871	-0.547302	-0.104971
C36	C	2.017589	-0.739526	-0.367401
C37	C	2.018871	-0.703365	-0.427311
C38	C	1.992243	-0.603125	-0.399746
C39	C	1.964340	-0.539047	-0.312272
C40	C	1.993526	-0.566958	-0.459660
C41	C	1.966906	-0.466720	-0.432096
C42	C	1.937720	-0.438808	-0.284708
C43	C	1.886443	-0.127408	-0.402184
C44	C	1.899374	-0.126923	-0.486744
C45	C	2.052455	0.045301	-0.216981
C46	C	2.013741	0.151981	-0.187664
C47	C	2.076680	-0.123256	-0.130090
C48	C	2.053369	-0.123736	-0.045528
C49	C	2.410668	-0.295967	-0.315295
C50	C	2.439001	-0.402648	-0.344618
C51	C	2.077377	-0.211889	-0.041378
C52	C	2.055476	-0.212343	0.038075
C53	C	2.009573	-0.124644	0.113378
C54	C	1.985561	-0.036485	0.109225
C55	C	2.007456	-0.036032	0.029772
C56	C	1.897263	-0.038310	0.429650
C57	C	1.875372	-0.038769	0.509106
C58	C	1.945283	-0.214621	0.437953
C59	C	1.967177	-0.214168	0.358500
C60	C	1.943158	-0.126010	0.354354
C61	C	1.966904	-0.125518	0.268201
C62	C	1.985834	-0.125134	0.199530
C63	C	2.543361	-0.457654	-0.363573
C64	C	2.569999	-0.557895	-0.391137
C65	C	2.492275	-0.603127	-0.399739
C66	C	2.387907	-0.548113	-0.380785
C67	C	2.361271	-0.447876	-0.353227
C68	C	2.386443	-0.127408	-0.402184
C69	C	2.399374	-0.126923	-0.486744
C70	C	2.552455	0.045301	-0.216981
C71	C	2.513741	0.151981	-0.187664
C72	C	2.576680	-0.123256	-0.130090
C73	C	2.553369	-0.123736	-0.045528
C74	C	2.496483	-0.131494	-0.531685
C75	C	2.508643	-0.131026	-0.611133
C76	C	2.423694	-0.125993	-0.645641
C77	C	2.326576	-0.121418	-0.600693
C78	C	2.314415	-0.121880	-0.521243
C79	C	2.581875	0.206986	-0.168711
C80	C	2.545508	0.307226	-0.141151
C81	C	2.441009	0.352458	-0.132550
C82	C	2.372870	0.297446	-0.151503
C83	C	2.409235	0.197208	-0.179057
C84	C	2.456085	-0.128759	-0.011037
C85	C	2.434163	-0.129198	0.068422
C86	C	2.509529	-0.124623	0.113385
C87	C	2.606820	-0.119597	0.078890
C88	C	2.628738	-0.119151	-0.000565
H89	H	1.913483	-0.429516	-0.142444
O90	O	2.243984	-0.116360	-0.634118
C91	C	2.068100	-0.024488	-0.615701
C92	C	2.161560	-0.030075	-0.577752
H93	H	2.001428	0.045258	-0.570139
H94	H	2.093415	-0.024883	-0.680187
H95	H	2.040244	-0.089750	-0.624851
H96	H	2.189460	0.035172	-0.568547
H97	H	2.136191	-0.029727	-0.513294
O98	O	2.220105	-0.117633	-0.477718
C99	C	2.084755	-0.193146	-0.478414
C100	C	2.191587	-0.198078	-0.527773
H101	H	2.061654	-0.258166	-0.518871
H102	H	2.090569	-0.194406	-0.415710
H103	H	2.022912	-0.123163	-0.464138
H104	H	2.253486	-0.268052	-0.542111
H105	H	2.185685	-0.196764	-0.590442
O106	O	2.312400	-0.592038	-0.389265
C107	C	2.178737	-0.627593	-0.458829
C108	C	2.264232	-0.577826	-0.449331
H109	H	2.139754	-0.616103	-0.507377
H110	H	2.215663	-0.708700	-0.481827
H111	H	2.117445	-0.594760	-0.394256
H112	H	2.325551	-0.610579	-0.513876
H113	H	2.227231	-0.496720	-0.426290
O114	O	2.339717	-0.134105	0.102032
C115	C	2.229498	-0.139262	0.219701
C116	C	2.336471	-0.133637	0.181767
H117	H	2.226846	-0.138907	0.284164
H118	H	2.164312	-0.074061	0.228871
H119	H	2.218169	-0.209060	0.174112
H120	H	2.347902	-0.063881	0.227319
H121	H	2.401602	-0.198887	0.172578
H122	H	2.287784	0.334289	-0.144495
H123	H	2.513977	-0.684747	-0.422180
H124	H	2.491673	-0.124999	0.178076
O125	O	2.680129	-0.115115	0.122472
C126	C	2.853726	-0.105636	0.124456
C127	C	2.770787	-0.110674	0.075020
H128	H	2.927051	-0.102064	0.086103
H129	H	2.821018	-0.038087	0.189218
H130	H	2.874533	-0.173104	0.134624
H131	H	2.749947	-0.043255	0.064788
H132	H	2.803540	-0.178265	0.010291
O133	O	2.602920	-0.135308	-0.654753
C134	C	2.698360	-0.056846	-0.716740
C135	C	2.591534	-0.051860	-0.667323
H136	H	2.689186	0.010603	-0.726934
H137	H	2.757009	-0.060475	-0.678440
H138	H	2.727958	-0.124405	-0.781491
H139	H	2.561841	0.015692	-0.602571
H140	H	2.532954	-0.048284	-0.705688
H141	H	2.606661	-0.420839	-0.356568
H142	H	2.707959	-0.115067	-0.028643
H143	H	1.964832	-0.286404	0.441337
H144	H	2.565665	-0.135596	-0.503601
O145	O	2.343038	0.143766	-0.197342
C146	C	2.260807	0.038154	-0.164468
C147	C	2.335787	0.098649	-0.143662
H148	H	2.254937	0.001645	-0.121092
H149	H	2.179838	0.087674	-0.153549
H150	H	2.292196	-0.019699	-0.234219
H151	H	2.304493	0.156507	-0.073914
H152	H	2.416743	0.049067	-0.154640
O153	O	2.683405	0.163222	-0.176976
C154	C	2.850796	0.183527	-0.163821
C155	C	2.735833	0.233206	-0.154415
H156	H	2.893224	0.240084	-0.145603
H157	H	2.853510	0.147603	-0.119857
H158	H	2.890783	0.126093	-0.233035
H159	H	2.695776	0.290682	-0.085229
H160	H	2.733194	0.269066	-0.198431
H161	H	2.601005	0.352004	-0.125724
O162	O	2.382727	-0.133158	-0.054572
C163	C	2.209168	-0.142757	-0.056556
C164	C	2.292153	-0.137766	-0.007164
H165	H	2.135928	-0.146504	-0.018255
H166	H	2.188203	-0.075268	-0.066680
H167	H	2.241978	-0.210271	-0.121337
H168	H	2.259414	-0.070295	0.057644
H169	H	2.313109	-0.205301	0.002892
O170	O	2.405875	0.449831	-0.105813
C171	C	2.448426	0.599038	-0.060553
C172	C	2.488349	0.488770	-0.090840
H173	H	2.515080	0.630556	-0.048421
H174	H	2.419021	0.613416	-0.111941
H175	H	2.381586	0.634789	0.001190
H176	H	2.555219	0.452946	-0.152566
H177	H	2.517686	0.474463	-0.039399
H178	H	2.433610	-0.125619	-0.710335
H179	H	1.914981	-0.386636	-0.213474
H180	H	2.654985	-0.602673	-0.406564
H181	H	2.004557	-0.285581	0.297189
H182	H	1.936471	-0.631528	-0.001392
O183	O	1.906841	-0.485192	-0.019965
C184	C	1.880657	-0.468070	0.123321
C185	C	1.911300	-0.538517	0.027084
H186	H	1.884231	-0.511155	0.161389
H187	H	1.937388	-0.424236	0.135968
H188	H	1.797587	-0.416652	0.143855
H189	H	1.994348	-0.589995	0.006484
H190	H	1.854501	-0.582282	0.014491
O191	O	2.259846	-0.394461	-0.334671
C192	C	2.082192	-0.342239	-0.247379
C193	C	2.197023	-0.402743	-0.268292
H194	H	2.031363	-0.348930	-0.193723
H195	H	2.076415	-0.262799	-0.226142
H196	H	2.053777	-0.370254	-0.306844
H197	H	2.225511	-0.374813	-0.208861
H198	H	2.202734	-0.482174	-0.289564
H199	H	1.984787	-0.813384	-0.051412
H200	H	2.037752	-0.864040	-0.318805
H201	H	2.039266	-0.821145	-0.389841
O202	O	1.830900	0.046497	0.582206
C203	C	1.846511	0.201208	0.672321
C204	C	1.896977	0.104703	0.589503
H205	H	1.899922	0.248285	0.678256
H206	H	1.767319	0.241035	0.670252
H207	H	1.834958	0.185712	0.729803
H208	H	1.908601	0.120112	0.531977
H209	H	1.976133	0.064904	0.591647
H210	H	2.016259	-0.619140	-0.530885
O211	O	2.046127	-0.765712	-0.512267
C212	C	2.179672	-0.899706	-0.633863
C213	C	2.148935	-0.829176	-0.537640
H214	H	2.262801	-0.951021	-0.654410
H215	H	2.123033	-0.943638	-0.646503
H216	H	2.175956	-0.856618	-0.671927
H217	H	2.152659	-0.872188	-0.499513
H218	H	2.205578	-0.785243	-0.525066
H219	H	2.114756	-0.283304	-0.102688
O220	O	1.968317	-0.431707	-0.490376
C221	C	2.071658	-0.429494	-0.612800
C222	C	2.070195	-0.469236	-0.546862
H223	H	2.154024	-0.459804	-0.658475
H224	H	2.014251	-0.452347	-0.650646
H225	H	2.047789	-0.346844	-0.578047
H226	H	2.094089	-0.551887	-0.581547
H227	H	2.127580	-0.446308	-0.509019
O228	O	2.078934	-0.298056	0.041958
C229	C	2.150596	-0.472435	-0.037002
C230	C	2.124090	-0.375430	-0.041519
H231	H	2.187089	-0.535018	-0.104486
H232	H	2.208420	-0.473397	0.002380
H233	H	2.075822	-0.480704	-0.005550
H234	H	2.198804	-0.367098	-0.072989
H235	H	2.066225	-0.374512	-0.080873
O236	O	1.873793	0.047287	0.425569
C237	C	1.775943	0.145277	0.372156
C238	C	1.802409	0.048304	0.376730
H239	H	1.718244	0.146123	0.332658
H240	H	1.739314	0.207916	0.439602
H241	H	1.850751	0.153556	0.340772
H242	H	1.727650	0.039931	0.408077
H243	H	1.839081	-0.014286	0.309265
O244	O	1.941098	0.048776	0.182321
C245	C	1.956728	0.203480	0.272430
C246	C	2.007185	0.106972	0.189613
H247	H	2.010147	0.250550	0.278361
H248	H	1.877539	0.243314	0.270361
H249	H	1.945171	0.187988	0.329914
H250	H	2.018813	0.122378	0.132086
H251	H	2.086339	0.067168	0.191757
H252	H	1.987910	0.035751	0.026398
