data_functionalizedCrystal
_audit_creation_method	'MofGen! by Chris Wilmer'
_symmetry_space_group_name_H-M	'P1'
_symmetry_Int_Tables_number	1
_symmetry_cell_setting	triclinic
loop_
_symmetry_equiv_pos_as_xyz
  x,y,z
_cell_length_a	12.759394
_cell_length_b	21.395362
_cell_length_c	21.395355
_cell_angle_alpha	89.956060
_cell_angle_beta	89.987117
_cell_angle_gamma	90.029736
loop_
_atom_site_label
_atom_site_type_symbol
_atom_site_fract_x
_atom_site_fract_y
_atom_site_fract_z
Zn1	Zn	-0.417943	0.957933	-0.354610
Zn2	Zn	-0.593608	0.957866	-0.249843
Zn3	Zn	-0.417992	0.853148	-0.249811
Zn4	Zn	-0.593629	0.853148	-0.354548
O5	O	-0.505793	0.905524	-0.302203
O6	O	-0.441216	1.045602	-0.340752
O7	O	-0.570323	0.943947	-0.162161
O8	O	-0.270964	0.867076	-0.263726
O9	O	-0.570276	1.045553	-0.263780
O10	O	-0.270928	0.944061	-0.340721
O11	O	-0.441299	0.867011	-0.162138
O12	O	-0.441320	0.765470	-0.263666
O13	O	-0.570313	0.867076	-0.442234
O14	O	-0.570360	0.765470	-0.340615
O15	O	-0.441237	0.944061	-0.442280
O16	O	-0.740631	0.943947	-0.263719
O17	O	-0.740647	0.867011	-0.340645
C18	C	-0.505848	0.742736	-0.302130
C19	C	-0.505897	0.673095	-0.302114
C20	C	-0.778760	0.905489	-0.302193
C21	C	-0.895537	0.905531	-0.302209
C22	C	-0.573178	0.640398	-0.342122
C23	C	-0.573152	0.574963	-0.342150
C24	C	-0.505857	0.542226	-0.302159
C25	C	-0.438564	0.574931	-0.262148
C26	C	-0.438584	0.640365	-0.262126
C27	C	-0.497393	0.438500	-0.245753
C28	C	-0.497380	0.373067	-0.245774
C29	C	-0.505788	0.340406	-0.302228
C30	C	-0.514231	0.373185	-0.358662
C31	C	-0.514252	0.438619	-0.358640
C32	C	-0.505827	0.471274	-0.302179
C33	C	-0.573044	0.236756	-0.342269
C34	C	-0.573011	0.171320	-0.342298
C35	C	-0.438429	0.171290	-0.262291
C36	C	-0.438456	0.236725	-0.262268
C37	C	-0.505770	0.269454	-0.302256
C38	C	-0.895341	0.985636	-0.382444
C39	C	-0.950104	1.025708	-0.422567
C40	C	-1.059826	1.025745	-0.422580
C41	C	-1.114787	0.985705	-0.382468
C42	C	-1.060024	0.945633	-0.342346
C43	C	-0.950300	0.945601	-0.342336
C44	C	-1.060220	0.865526	-0.262115
C45	C	-0.950498	0.865491	-0.262097
C46	C	-1.115181	0.825485	-0.222003
C47	C	-1.060418	0.785415	-0.181877
C48	C	-0.950690	0.785380	-0.181865
C49	C	-0.895735	0.825419	-0.221975
C50	C	-0.231759	0.905576	-0.302227
C51	C	-0.114983	0.905598	-0.302237
C52	C	-0.505738	1.068947	-0.302276
C53	C	-0.505714	1.138588	-0.302308
C54	C	-0.505772	0.905576	-0.465626
C55	C	-0.505762	0.905598	-0.535268
C56	C	-0.438550	0.945682	-0.568006
C57	C	-0.438505	0.945681	-0.633441
C58	C	-0.505691	0.905603	-0.666136
C59	C	-0.572908	0.865510	-0.633390
C60	C	-0.572944	0.865508	-0.567956
C61	C	-0.600292	0.900643	-0.769806
C62	C	-0.600258	0.900650	-0.835239
C63	C	-0.505580	0.905607	-0.867957
C64	C	-0.410933	0.910569	-0.835234
C65	C	-0.410968	0.910567	-0.769800
C66	C	-0.505659	0.905601	-0.737089
C67	C	-0.438313	0.945692	-0.971648
C68	C	-0.438266	0.945687	-1.037084
C69	C	-0.572679	0.865519	-1.037032
C70	C	-0.572716	0.865521	-0.971597
C71	C	-0.505535	0.905611	-0.938908
C72	C	-0.505738	0.905508	-0.139415
C73	C	-0.505451	0.905607	-0.069775
H74	H	-0.627939	0.548336	-0.374731
H75	H	-0.806394	0.825397	-0.221966
H76	H	-0.905346	1.058307	-0.455227
N77	N	-0.702334	0.895297	-0.870530
H78	H	-0.712167	0.933466	-0.897705
H79	H	-0.762254	0.892129	-0.839836
N80	N	-0.645226	0.822286	-0.936294
H81	H	-0.693926	0.847733	-0.909166
H82	H	-0.602484	0.793263	-0.909159
N83	N	-1.118900	1.068956	-0.465861
H84	H	-1.067438	1.094313	-0.491273
H85	H	-1.164394	1.097977	-0.440399
H86	H	-0.490542	0.465088	-0.199779
N87	N	-0.366019	0.988922	-0.668764
H88	H	-0.317323	0.963473	-0.695893
H89	H	-0.323536	1.014309	-0.638089
N90	N	-0.308889	0.915918	-0.734512
H91	H	-0.261877	0.879698	-0.745868
H92	H	-0.323367	0.915185	-0.688107
N93	N	-0.645150	0.822291	-1.072284
H94	H	-0.628853	0.777527	-1.060861
H95	H	-0.634898	0.828425	-1.118693
N96	N	-0.366091	0.988919	-0.532749
H97	H	-0.323504	1.014312	-0.563422
H98	H	-0.317491	0.963424	-0.505579
H99	H	-0.383631	0.144636	-0.229733
H100	H	-0.627797	0.144699	-0.374881
N101	N	-0.523353	0.473971	-0.419505
H102	H	-0.462667	0.462642	-0.447609
H103	H	-0.522122	0.520367	-0.410869
N104	N	-0.645452	0.822271	-0.532651
H105	H	-0.694151	0.847720	-0.505525
H106	H	-0.602709	0.793250	-0.505514
H107	H	-0.521076	0.346594	-0.404632
H108	H	-1.204128	0.985733	-0.382488
H109	H	-0.383770	0.548273	-0.229589
H110	H	-0.383675	0.263347	-0.229686
N111	N	-0.308806	0.915921	-0.870513
H112	H	-0.323140	0.915168	-0.916930
H113	H	-0.261851	0.879699	-0.859043
N114	N	-0.645638	0.272064	-0.385398
H115	H	-0.688252	0.241418	-0.410751
H116	H	-0.602954	0.299266	-0.414425
H117	H	-0.677371	0.896440	-0.743172
N118	N	-1.119693	0.742237	-0.138614
H119	H	-1.100670	0.697459	-0.148287
H120	H	-1.197491	0.748392	-0.144733
N121	N	-0.645776	0.675699	-0.385250
H122	H	-0.688394	0.645052	-0.410599
H123	H	-0.603094	0.702898	-0.414281
H124	H	-0.383603	0.978332	-0.945031
H125	H	-0.806000	0.985615	-0.382432
N126	N	-0.488283	0.337715	-0.184910
H127	H	-0.482946	0.368333	-0.149144
H128	H	-0.423543	0.310592	-0.185889
N129	N	-0.366007	0.675636	-0.218978
H130	H	-0.323365	0.644971	-0.193650
H131	H	-0.408704	0.702735	-0.189928
H132	H	-0.383527	0.978328	-1.063738
H133	H	-0.627608	0.832876	-0.660015
H134	H	-1.204522	0.825516	-0.222020
H135	H	-0.906107	0.752746	-0.149195
