data_functionalizedCrystal
_audit_creation_method	'MofGen! by Chris Wilmer'
_symmetry_space_group_name_H-M	'P1'
_symmetry_Int_Tables_number	1
_symmetry_cell_setting	triclinic
loop_
_symmetry_equiv_pos_as_xyz
  x,y,z
_cell_length_a	10.967926
_cell_length_b	11.026607
_cell_length_c	14.048226
_cell_angle_alpha	89.996210
_cell_angle_beta	102.122801
_cell_angle_gamma	96.380754
loop_
_atom_site_label
_atom_site_type_symbol
_atom_site_fract_x
_atom_site_fract_y
_atom_site_fract_z
O1	O	1.693945	0.170499	0.198726
O2	O	1.334327	0.186826	0.139731
O3	O	1.484331	0.001762	0.164343
O4	O	1.543941	0.355563	0.174115
O5	O	1.484305	0.001751	0.322660
O6	O	1.334301	0.186815	0.298048
O7	O	1.693919	0.170488	0.357044
Zn8	Zn	1.514106	0.178650	0.352682
Zn9	Zn	1.514140	0.178664	0.144093
O10	O	1.543915	0.355552	0.332432
C11	C	1.287559	0.185634	0.211220
C12	C	1.148242	0.182082	0.188365
C13	C	1.086117	0.180492	0.260188
C14	C	0.942126	0.176822	0.236568
C15	C	1.473321	-0.043546	0.241696
C16	C	1.440539	-0.178532	0.236315
C17	C	1.531056	-0.251586	0.251163
C18	C	1.497177	-0.391102	0.245601
C19	C	1.740687	0.171681	0.285553
C20	C	1.880004	0.175232	0.308402
C21	C	1.554925	0.400860	0.255076
C22	C	1.587707	0.535847	0.260452
N23	N	1.514092	0.178639	0.495041
N24	N	1.514162	0.178666	0.001735
C25	C	1.580548	0.096727	0.555762
C26	C	1.580557	0.096726	0.655421
C27	C	1.514115	0.178645	0.694358
C28	C	1.447651	0.260561	0.633628
C29	C	1.447636	0.260554	0.533969
C30	C	1.447689	0.260570	0.841348
C31	C	1.447705	0.260578	0.941014
C32	C	1.580610	0.096741	0.962800
C33	C	1.580595	0.096735	0.863142
C34	C	1.514132	0.178653	0.802419
H35	H	1.394593	-0.431840	0.228766
H36	H	1.094829	0.180721	0.109387
O37	O	1.156857	0.182290	0.364806
H38	H	1.139248	0.264367	0.403324
O39	O	1.304658	-0.232487	0.214020
H40	H	1.257463	-0.201714	0.270805
H41	H	1.690291	-0.423417	0.277209
O42	O	1.652205	0.008367	0.513766
H43	H	1.698405	-0.048601	0.572735
H44	H	1.393563	0.327272	0.791909
O45	O	1.652261	0.008401	0.720922
H46	H	1.698482	-0.048544	0.677108
O47	O	1.652249	0.008380	0.821138
H48	H	1.698456	-0.048592	0.880101
H49	H	0.933410	0.176585	0.387385
O50	O	1.376030	0.348909	0.983022
H51	H	1.275085	0.332521	0.947365
H52	H	1.634725	0.030041	1.012247
H53	H	0.888717	0.175461	0.157586
H54	H	1.633633	-0.210842	0.267996
O55	O	1.375998	0.348929	0.675618
H56	H	1.303754	0.297223	0.709197
H57	H	1.393519	0.327254	0.484529
