data_functionalizedCrystal
_audit_creation_method	'MofGen! by Chris Wilmer'
_symmetry_space_group_name_H-M	'P1'
_symmetry_Int_Tables_number	1
_symmetry_cell_setting	triclinic
loop_
_symmetry_equiv_pos_as_xyz
  x,y,z
_cell_length_a	14.853566
_cell_length_b	16.109301
_cell_length_c	15.186229
_cell_angle_alpha	89.994833
_cell_angle_beta	90.000510
_cell_angle_gamma	96.452052
loop_
_atom_site_label
_atom_site_type_symbol
_atom_site_fract_x
_atom_site_fract_y
_atom_site_fract_z
O1	O	1.196185	-0.108541	0.073173
O2	O	1.696185	0.391459	0.573173
O3	O	0.933704	-0.121473	0.073188
O4	O	1.433704	0.378527	0.573188
O5	O	1.072155	0.006014	0.073171
O6	O	1.572155	0.506014	0.573171
O7	O	1.057734	-0.236028	0.073190
O8	O	1.557734	0.263972	0.573190
O9	O	1.072146	0.006015	-0.073286
O10	O	1.572146	0.506015	0.426714
O11	O	0.933695	-0.121471	-0.073269
O12	O	1.433695	0.378529	0.426731
O13	O	1.196176	-0.108540	-0.073284
O14	O	1.696176	0.391460	0.426716
Zn15	Zn	1.064934	-0.115005	-0.096530
Zn16	Zn	1.564934	0.384995	0.403470
Zn17	Zn	1.064946	-0.115008	0.096434
Zn18	Zn	1.564946	0.384992	0.596434
O19	O	1.057724	-0.236026	-0.073267
O20	O	1.557724	0.263974	0.426733
C21	C	0.900111	-0.120886	-0.000039
C22	C	1.400111	0.379114	0.499961
C23	C	0.800031	-0.119131	-0.000033
C24	C	1.300031	0.380869	0.499967
C25	C	0.376863	-0.111708	0.079784
C26	C	0.876863	0.388292	0.579784
C27	C	0.376874	-0.111706	-0.079889
C28	C	0.876874	0.388294	0.420111
C29	C	0.470906	-0.113355	-0.079886
C30	C	0.970906	0.386645	0.420114
C31	C	0.517920	-0.114181	-0.000047
C32	C	1.017920	0.385819	0.499953
C33	C	0.470903	-0.113359	0.079790
C34	C	0.970903	0.386641	0.579790
C35	C	0.517929	-0.114185	-0.159721
C36	C	1.017929	0.385815	0.340279
C37	C	0.611966	-0.115835	-0.159721
C38	C	1.111966	0.384165	0.340279
C39	C	0.658982	-0.116655	-0.079881
C40	C	1.158982	0.383345	0.420119
C41	C	0.611960	-0.115832	-0.000041
C42	C	1.111960	0.384168	0.499959
C43	C	0.658974	-0.116658	0.079798
C44	C	1.158974	0.383342	0.579798
C45	C	0.611953	-0.115829	0.159639
C46	C	1.111953	0.384171	0.659639
C47	C	0.517919	-0.114179	0.159630
C48	C	1.017919	0.385821	0.659630
C49	C	0.753016	-0.118305	-0.079873
C50	C	1.253016	0.381695	0.420127
C51	C	0.753013	-0.118309	0.079803
C52	C	1.253013	0.381691	0.579803
C53	C	1.071566	0.036990	-0.000058
C54	C	1.571566	0.536990	0.499942
C55	C	1.069815	0.129288	-0.000059
C56	C	1.569815	0.629288	0.499941
C57	C	1.229768	-0.109126	-0.000055
C58	C	1.729768	0.390874	0.499945
C59	C	1.329849	-0.110882	-0.000055
C60	C	1.829849	0.389118	0.499945
C61	C	1.058313	-0.267003	-0.000036
C62	C	1.558313	0.232997	0.499964
C63	C	1.060065	-0.359301	-0.000029
C64	C	1.560065	0.140699	0.499971
N65	N	1.064932	-0.115003	-0.228222
N66	N	1.564932	0.384997	0.271778
C67	C	1.147897	0.351451	-0.000049
C68	C	1.647897	0.851451	0.499951
C69	C	1.146244	0.438174	-0.000042
C70	C	1.646244	0.938174	0.499958
C71	C	0.981977	0.418529	-0.000036
C72	C	1.481977	0.918529	0.499964
C73	C	0.983630	0.331808	-0.000037
C74	C	1.483630	0.831808	0.499963
C75	C	1.066593	0.298272	-0.000048
C76	C	1.566593	0.798272	0.499952
C77	C	1.063287	0.471716	-0.000040
C78	C	1.563287	0.971716	0.499960
C79	C	1.061494	0.565744	-0.000032
C80	C	1.561494	1.065744	0.499968
C81	C	1.068386	0.204237	-0.000055
C82	C	1.568386	0.704237	0.499945
C83	C	1.126259	-0.058571	-0.453953
C84	C	1.626259	0.441429	0.046047
C85	C	1.126262	-0.058569	-0.546142
C86	C	1.626262	0.441431	-0.046142
C87	C	1.003621	-0.171438	-0.546137
C88	C	1.503621	0.328562	-0.046137
C89	C	1.003615	-0.171435	-0.453949
C90	C	1.503615	0.328565	0.046051
C91	C	1.064939	-0.115003	-0.407859
C92	C	1.564939	0.384997	0.092141
C93	C	1.064948	-0.115003	-0.592237
C94	C	1.564948	0.384997	-0.092237
C95	C	1.064951	-0.115002	-0.692193
C96	C	1.564951	0.384998	-0.192193
C97	C	1.064935	-0.115003	-0.307897
C98	C	1.564935	0.384997	0.192103
N99	N	1.064955	-0.115003	0.228127
N100	N	1.564955	0.384997	0.728127
H101	H	0.650244	-0.116507	0.224644
H102	H	1.150244	0.383493	0.724644
Br103	Br	0.313059	-0.110553	0.188135
Br104	Br	0.813059	0.389447	0.688135
H105	H	0.953694	-0.217385	-0.583672
H106	H	1.453694	0.282615	-0.083672
H107	H	1.215450	0.324149	-0.000056
H108	H	1.715450	0.824149	0.499944
Br109	Br	0.873281	0.259630	-0.000024
Br110	Br	1.373281	0.759630	0.499976
Br111	Br	1.209482	0.018017	-0.391406
Br112	Br	1.709482	0.518017	0.108594
Br113	Br	1.256590	0.510343	-0.000038
Br114	Br	1.756590	1.010343	0.499962
H115	H	0.914431	0.445846	-0.000029
H116	H	1.414431	0.945846	0.499971
Br117	Br	0.313067	-0.110598	-0.188237
Br118	Br	0.813067	0.389402	0.311763
Br119	Br	1.209481	0.018024	-0.608697
Br120	Br	1.709481	0.518024	-0.108697
H121	H	0.953676	-0.217389	-0.416417
H122	H	1.453676	0.282611	0.083583
H123	H	0.479627	-0.113503	0.224632
H124	H	0.979627	0.386497	0.724632
Br125	Br	0.454119	-0.113078	-0.268068
Br126	Br	0.954119	0.386922	0.231932
Br127	Br	0.675771	-0.116960	-0.268074
Br128	Br	1.175771	0.383040	0.231926
Br129	Br	0.816813	-0.119420	0.188163
Br130	Br	1.316813	0.380580	0.688163
H131	H	0.791295	-0.118988	-0.144878
H132	H	1.291295	0.381012	0.355122
