data_functionalizedCrystal
_audit_creation_method	'MofGen! by Chris Wilmer'
_symmetry_space_group_name_H-M	'P1'
_symmetry_Int_Tables_number	1
_symmetry_cell_setting	triclinic
loop_
_symmetry_equiv_pos_as_xyz
  x,y,z
_cell_length_a	23.096457
_cell_length_b	16.704494
_cell_length_c	23.096457
_cell_angle_alpha	89.999212
_cell_angle_beta	59.999659
_cell_angle_gamma	56.633868
loop_
_atom_site_label
_atom_site_type_symbol
_atom_site_fract_x
_atom_site_fract_y
_atom_site_fract_z
Zr1	Zr	0.641971	-0.111026	0.553664
O2	O	0.772789	-0.246133	0.456201
O3	O	0.518110	-0.069614	0.583539
O4	O	0.652004	-0.246144	0.576987
O5	O	0.628555	0.069653	0.467924
O6	O	0.652003	-0.246147	0.672269
O7	O	0.638895	-0.069603	0.462753
O8	O	0.412492	0.069633	0.683989
O9	O	0.868067	-0.246127	0.456203
O10	O	0.566479	-0.051948	0.667391
O11	O	0.558762	0.051979	0.600143
O12	O	0.716405	-0.155862	0.592429
O13	O	0.708688	-0.051935	0.525180
Zr14	Zr	0.625479	0.111066	0.713874
Zr15	Zr	0.641970	-0.111031	0.705627
Zr16	Zr	0.625479	0.111071	0.561911
Zr17	Zr	0.793927	-0.111017	0.553668
Zr18	Zr	0.473522	0.111057	0.713869
O19	O	0.749340	0.069654	0.683998
O20	O	0.772789	-0.246140	0.672272
O21	O	0.749340	0.069660	0.467927
O22	O	0.494661	0.246173	0.811337
O23	O	0.518109	-0.069621	0.799611
O24	O	0.494661	0.246179	0.595266
O25	O	0.638895	-0.069613	0.799614
O26	O	0.615446	0.246184	0.690550
O27	O	0.615446	0.246187	0.595269
O28	O	0.628554	0.069643	0.804785
O29	O	0.868066	-0.246131	0.576993
O30	O	0.399383	0.246170	0.690544
O31	O	0.399383	0.246167	0.811334
O32	O	0.412492	0.069629	0.804779
O33	O	0.854958	-0.069590	0.462759
O34	O	0.854958	-0.069593	0.583549
O35	O	0.551045	0.155902	0.675109
O36	O	0.558762	0.051975	0.742357
O37	O	0.708688	-0.051939	0.667395
O38	O	0.700971	0.051988	0.600147
C39	C	0.443650	0.000008	0.633764
C40	C	0.379141	0.000004	0.633762
C41	C	0.633725	0.000026	0.443687
C42	C	0.633725	0.000028	0.379175
C43	C	0.613097	0.277829	0.644085
C44	C	0.606096	0.372115	0.647586
C45	C	0.352868	-0.054249	0.668860
C46	C	0.292245	-0.054240	0.668867
C47	C	0.257910	0.000007	0.633762
C48	C	0.284186	0.054272	0.598663
C49	C	0.344801	0.054270	0.598663
N50	N	0.196073	-0.007513	0.573078
N51	N	0.138492	-0.007517	0.573079
C52	C	0.075277	0.000017	0.633761
N53	N	0.071826	0.007535	0.694441
N54	N	0.129415	0.007534	0.694438
C55	C	0.192182	0.000015	0.633759
C56	C	-0.016730	-0.054230	0.668871
C57	C	-0.077359	-0.054214	0.668880
C58	C	-0.085411	0.054291	0.598669
C59	C	-0.024790	0.054282	0.598666
C60	C	0.009550	0.000016	0.633765
C61	C	0.823800	0.000032	0.633774
C62	C	0.888309	0.000036	0.633776
C63	C	0.654353	-0.277790	0.623453
C64	C	0.661354	-0.372076	0.619952
C65	C	0.749477	0.440794	0.575886
C66	C	0.742903	0.529381	0.579174
C67	C	0.586374	0.637878	0.657444
C68	C	0.592948	0.549291	0.654156
C69	C	0.674502	0.450750	0.613377
C70	C	0.681076	0.362162	0.610094
C71	C	0.524548	0.470659	0.688359
C72	C	0.517974	0.559247	0.691647
C73	C	0.628038	0.076722	-0.078493
C74	C	0.628032	0.076731	-0.017873
C75	C	0.633729	0.000013	0.009590
C76	C	0.639411	-0.076704	-0.023560
C77	C	0.639409	-0.076704	-0.084173
N78	N	0.686840	-0.090962	0.078207
N79	N	0.686843	-0.090958	0.135786
C80	C	0.633735	0.000011	0.192216
N81	N	0.580633	0.090980	0.188886
N82	N	0.580633	0.090975	0.131300
C83	C	0.633732	0.000005	0.075315
C84	C	0.628041	0.076736	0.291092
C85	C	0.628029	0.076745	0.351715
C86	C	0.639418	-0.076698	0.346023
C87	C	0.639420	-0.076699	0.285405
C88	C	0.633736	0.000018	0.257942
C89	C	0.633725	0.000014	0.823851
C90	C	0.633724	0.000012	0.888363
C91	C	0.443650	0.000002	0.823846
C92	C	0.379140	-0.000004	0.888356
C93	C	0.423022	0.277818	0.644079
C94	C	0.351511	0.372100	0.647579
C95	C	0.423022	0.277812	0.834161
C96	C	0.351511	0.372092	0.902173
C97	C	0.844428	-0.277772	0.433376
C98	C	0.915939	-0.372052	0.365365
C99	C	0.823800	0.000037	0.443692
C100	C	0.888310	0.000043	0.379182
C101	C	0.844428	-0.277778	0.623458
C102	C	0.915938	-0.372060	0.619959
C103	C	0.352875	-0.054262	0.879519
C104	C	0.292271	-0.054289	0.940126
C105	C	0.257929	-0.000050	1.009571
C106	C	0.284201	0.054211	1.018407
C107	C	0.344808	0.054231	0.957800
C108	C	0.313900	0.470631	0.688354
C109	C	0.246717	0.559228	0.691640
C110	C	0.217141	0.549290	0.654154
C111	C	0.254758	0.450748	0.613373
C112	C	0.321945	0.362154	0.610084
C113	C	0.321957	0.362118	0.969221
C114	C	0.254774	0.450695	1.033131
C115	C	0.217142	0.549246	1.029990
C116	C	0.246703	0.559218	0.962935
C117	C	0.313888	0.470641	0.899027
C118	C	0.945501	-0.362078	0.298316
C119	C	1.012702	-0.450656	0.234407
C120	C	1.050337	-0.549206	0.237547
C121	C	1.020773	-0.559178	0.304603
C122	C	0.953576	-0.470602	0.368511
C123	C	0.914582	0.054293	0.388019
C124	C	0.975205	0.054295	0.327410
C125	C	1.009549	0.000052	0.257965
C126	C	0.983274	-0.054204	0.249129
C127	C	0.922657	-0.054211	0.309737
C128	C	0.945493	-0.362089	0.657453
C129	C	1.012676	-0.450668	0.654180
C130	C	1.050308	-0.549218	0.613407
C131	C	1.020747	-0.559187	0.575911
C132	C	0.953561	-0.470608	0.579189
H133	H	0.380824	-0.098432	0.697442
H134	H	0.815881	0.360559	0.542687
C135	C	0.893754	-0.113880	0.300005
N136	N	0.871986	-0.158824	0.292669
C137	C	0.143230	0.646674	1.100298
N138	N	0.087557	0.720053	1.153256
H139	H	0.256231	0.098370	1.074957
C140	C	1.124248	-0.646634	0.167240
N141	N	1.179914	-0.720013	0.114281
H142	H	0.623408	0.139206	0.268732
C143	C	0.222210	0.439834	0.572146
N144	N	0.197689	0.431617	0.541097
C145	C	0.428270	0.667647	0.736609
N146	N	0.360703	0.749295	0.770517
C147	C	0.363302	0.253770	0.565235
N148	N	0.394447	0.172137	0.531453
H149	H	1.036736	-0.442531	0.684713
C150	C	0.021036	-0.113911	0.707489
N151	N	0.049478	-0.158861	0.736578
H152	H	0.352587	0.281881	0.971792
H153	H	0.230713	0.442558	1.087724
C154	C	0.346425	0.481588	0.729591
N155	N	0.370923	0.489850	0.760649
H156	H	0.162432	0.621438	0.656838
H157	H	0.337942	0.478777	0.844436
C158	C	0.205291	0.667634	0.959493
N159	N	0.174094	0.749296	0.956902
C160	C	1.045209	-0.439663	0.160654
N161	N	1.069690	-0.431381	0.105105
C162	C	0.645687	-0.161090	0.376228
N163	N	0.650409	-0.224657	0.398982
C164	C	1.124215	-0.646647	0.609807
N165	N	1.179884	-0.720028	0.607096
H166	H	0.208579	-0.000073	1.058915
C167	C	0.621791	0.161111	0.018586
N168	N	0.617095	0.224663	0.046042
H169	H	1.051398	-0.639437	0.542714
H170	H	-0.003396	0.098457	0.570083
H171	H	-0.113366	0.098461	0.570086
H172	H	0.623393	0.139217	0.378704
H173	H	0.914862	-0.281841	0.295746
H174	H	1.051424	-0.639429	0.307151
C175	C	0.825380	0.518423	0.537934
N176	N	0.887506	0.510167	0.506871
C177	C	0.770786	0.253767	0.565231
N178	N	0.838358	0.172125	0.531435
H179	H	0.929506	-0.478741	0.548653
H180	H	0.929509	-0.478735	0.423102
H181	H	0.914862	-0.281853	0.690655
C182	C	1.004088	0.113992	0.337146
N183	N	1.025839	0.158960	0.344481
H184	H	0.380836	-0.098443	0.822978
H185	H	0.519977	0.718122	0.690640
C186	C	0.263341	-0.113928	0.707477
N187	N	0.241574	-0.158886	0.736557
H188	H	0.886623	0.098470	0.444559
H189	H	1.058906	0.000067	0.208621
H190	H	0.463498	0.478760	0.718887
H191	H	0.644056	-0.139167	0.258415
C192	C	1.021049	-0.113850	0.172734
N193	N	1.049495	-0.158765	0.115192
C194	C	0.621773	0.161121	-0.108693
N195	N	0.617050	0.224694	-0.131439
H196	H	0.256225	0.098441	0.570081
C197	C	0.645662	-0.161094	-0.120632
N198	N	0.650372	-0.224657	-0.148094
C199	C	-0.106248	-0.113912	0.707483
N200	N	-0.128002	-0.158886	0.736555
H201	H	0.366185	0.098421	0.965005
C202	C	0.645670	-0.161088	0.006656
N203	N	0.650378	-0.224644	0.029417
H204	H	0.270888	-0.098474	0.932918
H205	H	0.366192	0.098449	0.570080
C206	C	0.205341	0.667614	0.736510
N207	N	0.174177	0.749248	0.770309
