data_functionalizedCrystal
_audit_creation_method	'MofGen! by Chris Wilmer'
_symmetry_space_group_name_H-M	'P1'
_symmetry_Int_Tables_number	1
_symmetry_cell_setting	triclinic
loop_
_symmetry_equiv_pos_as_xyz
  x,y,z
_cell_length_a	12.759401
_cell_length_b	18.101395
_cell_length_c	12.759393
_cell_angle_alpha	89.966505
_cell_angle_beta	89.981504
_cell_angle_gamma	90.031381
loop_
_atom_site_label
_atom_site_type_symbol
_atom_site_fract_x
_atom_site_fract_y
_atom_site_fract_z
Zn1	Zn	1.606135	-0.294780	-0.593969
Zn2	Zn	1.605979	-0.418642	-0.418283
Zn3	Zn	1.430437	-0.294819	-0.418308
Zn4	Zn	1.430376	-0.418585	-0.593924
O5	O	1.518232	-0.356707	-0.506121
O6	O	1.753136	-0.311218	-0.570672
O7	O	1.582654	-0.402257	-0.271265
O8	O	1.453835	-0.191181	-0.441639
O9	O	1.753021	-0.402219	-0.441596
O10	O	1.582920	-0.191152	-0.570696
O11	O	1.453684	-0.311285	-0.271284
O12	O	1.283408	-0.311230	-0.441596
O13	O	1.453730	-0.402122	-0.740951
O14	O	1.283363	-0.402160	-0.570620
O15	O	1.582860	-0.311163	-0.740984
O16	O	1.582594	-0.522267	-0.441553
O17	O	1.453579	-0.522225	-0.570596
C18	C	1.245264	-0.356693	-0.506107
C19	C	1.128488	-0.356705	-0.506125
C20	C	0.963899	-0.404136	-0.573210
C21	C	1.073623	-0.404128	-0.573199
C22	C	1.073623	-0.309294	-0.439051
C23	C	0.963901	-0.309306	-0.439057
C24	C	1.518091	-0.549117	-0.506090
C25	C	1.518127	-0.631431	-0.506112
C26	C	1.518358	-0.930522	-0.506169
C27	C	1.437373	-0.899201	-0.587561
C28	C	1.436988	-0.813584	-0.587306
C29	C	1.518243	-0.782140	-0.506142
C30	C	1.488263	-0.813299	-0.395417
C31	C	1.487741	-0.898945	-0.395904
C32	C	1.629500	-0.898863	-0.534527
C33	C	1.628847	-0.813212	-0.536956
C34	C	1.518181	-0.698280	-0.506119
C35	C	1.518418	-1.014382	-0.506183
C36	C	1.792265	-0.356720	-0.506136
C37	C	1.909042	-0.356726	-0.506143
C38	C	1.518305	-0.356632	-0.780155
C39	C	1.518337	-0.356600	-0.896931
C40	C	1.518402	-0.163545	-0.506175
C41	C	1.518474	-0.081230	-0.506198
C42	C	1.451206	-0.309222	-0.951802
C43	C	1.451230	-0.309199	-1.061526
C44	C	1.585525	-0.403934	-1.061499
C45	C	1.585494	-0.403960	-0.951777
C46	C	1.518219	-0.356728	-0.233154
C47	C	1.518392	-0.356551	-0.116378
H48	H	0.919235	-0.442749	-0.627835
H49	H	1.640163	-0.442543	-0.907100
H50	H	1.651455	-0.792843	-0.618443
C51	C	1.564245	-1.004280	-0.310893
C52	C	1.563942	-0.926926	-0.311278
H53	H	1.611301	-1.021550	-0.258660
H54	H	1.495665	-1.021896	-0.296178
H55	H	1.585994	-1.021854	-0.377576
H56	H	1.542186	-0.909352	-0.244596
H57	H	1.632537	-0.909303	-0.325985
C58	C	1.760088	-0.967202	-0.629102
C59	C	1.666400	-0.927941	-0.641667
H60	H	1.782854	-0.985157	-0.695248
H61	H	1.812095	-0.935469	-0.600638
H62	H	1.748846	-1.007614	-0.582909
H63	H	1.677644	-0.887525	-0.687854
H64	H	1.614382	-0.959676	-0.670146
C65	C	1.273372	-0.273099	-1.095289
C66	C	1.377437	-0.257117	-1.121834
H67	H	1.227814	-0.240941	-1.132516
H68	H	1.257960	-0.322845	-1.113259
H69	H	1.263764	-0.266337	-1.022090
H70	H	1.387047	-0.263884	-1.195033
H71	H	1.392855	-0.207359	-1.103872
C72	C	1.640997	-0.740398	-0.358065
C73	C	1.565375	-0.785805	-0.311310
H74	H	1.688598	-0.723420	-0.306139
H75	H	1.678091	-0.767685	-0.409681
H76	H	1.607585	-0.699286	-0.390069
H77	H	1.598787	-0.826919	-0.279312
H78	H	1.528277	-0.758517	-0.259675
H79	H	1.406496	-0.918990	-0.371881
C80	C	1.756699	-0.865494	-0.404213
C81	C	1.710954	-0.926209	-0.454506
H82	H	1.806972	-0.882382	-0.354805
H83	H	1.790171	-0.834940	-0.454683
H84	H	1.703974	-0.837993	-0.369026
H85	H	1.763679	-0.953707	-0.489699
H86	H	1.677481	-0.956776	-0.404027
H87	H	1.407879	-0.791917	-0.370963
C88	C	1.062594	-0.497859	-0.705809
C89	C	1.133921	-0.456239	-0.646927
H90	H	1.099821	-0.530028	-0.751330
H91	H	1.019766	-0.526153	-0.659969
H92	H	1.019831	-0.465620	-0.746074
H93	H	1.176679	-0.488478	-0.606656
H94	H	1.176767	-0.427942	-0.692773
H95	H	1.118303	-0.270685	-0.384433
C96	C	1.636596	-0.529332	-1.095245
C97	C	1.659350	-0.455986	-1.121788
H98	H	1.682172	-0.561465	-1.132470
H99	H	1.646187	-0.536123	-1.022055
H100	H	1.565999	-0.540152	-1.113229
H101	H	1.729945	-0.445164	-1.103798
H102	H	1.649767	-0.449191	-1.194996
H103	H	0.919236	-0.270698	-0.384438
C104	C	1.391531	-0.267193	-0.783618
C105	C	1.377381	-0.257170	-0.891514
H106	H	1.345955	-0.235054	-0.746403
H107	H	1.376104	-0.316948	-0.765623
H108	H	1.462129	-0.256360	-0.765654
H109	H	1.306784	-0.268008	-0.909479
H110	H	1.392800	-0.207403	-0.909516
C111	C	1.477930	-0.845238	-0.765376
C112	C	1.462286	-0.785133	-0.698144
H113	H	1.493534	-0.827675	-0.833808
H114	H	1.534680	-0.874261	-0.740409
H115	H	1.416176	-0.874535	-0.767519
H116	H	1.524042	-0.755840	-0.695995
H117	H	1.405530	-0.756099	-0.723117
H118	H	1.355493	-0.920790	-0.569013
C119	C	1.259245	-0.846638	-0.546894
C120	C	1.325782	-0.786008	-0.561931
H121	H	1.190591	-0.829612	-0.531217
H122	H	1.257522	-0.875628	-0.608894
H123	H	1.284492	-0.875785	-0.490358
H124	H	1.300540	-0.756863	-0.618472
H125	H	1.327502	-0.757006	-0.499923
H126	H	1.455945	-0.919743	-0.669928
H127	H	1.692377	-0.791803	-0.481994
