data_functionalizedCrystal
_audit_creation_method	'MofGen! by Chris Wilmer'
_symmetry_space_group_name_H-M	'P1'
_symmetry_Int_Tables_number	1
_symmetry_cell_setting	triclinic
loop_
_symmetry_equiv_pos_as_xyz
  x,y,z
_cell_length_a	16.120530
_cell_length_b	12.594516
_cell_length_c	16.120728
_cell_angle_alpha	87.103457
_cell_angle_beta	89.860094
_cell_angle_gamma	87.111852
loop_
_atom_site_label
_atom_site_type_symbol
_atom_site_fract_x
_atom_site_fract_y
_atom_site_fract_z
Zn1	Zn	1.247392	-0.539467	0.534597
Zn2	Zn	1.254386	-0.708853	0.395553
Zn3	Zn	1.115408	-0.521421	0.388515
Zn4	Zn	1.108317	-0.707927	0.527521
O5	O	1.181376	-0.619417	0.461547
O6	O	1.364686	-0.569876	0.522059
O7	O	1.241845	-0.676826	0.278255
O8	O	1.132957	-0.374873	0.407910
O9	O	1.369824	-0.694324	0.419904
O10	O	1.229925	-0.388131	0.515235
O11	O	1.139739	-0.539120	0.273084
O12	O	0.998102	-0.538222	0.401048
O13	O	1.120871	-0.692745	0.644824
O14	O	0.992892	-0.675247	0.503175
O15	O	1.223049	-0.568978	0.650023
O16	O	1.234969	-0.857673	0.413043
O17	O	1.127653	-0.856992	0.509999
C18	C	0.965324	-0.604676	0.450580
C19	C	0.872896	-0.598397	0.445909
C20	C	0.703667	-0.586908	0.437387
C21	C	0.659923	-0.652009	0.485767
C22	C	0.565758	-0.645616	0.481026
C23	C	0.797840	-0.593299	0.442127
C24	C	1.181322	-0.895954	0.461536
C25	C	1.181373	-1.014264	0.461563
C26	C	1.123001	-1.083183	0.514258
C27	C	1.106603	-1.147965	0.437355
C28	C	1.197846	-1.160287	0.538483
C29	C	1.164937	-1.077483	0.384617
C30	C	1.256213	-1.089804	0.485798
C31	C	1.239847	-1.154553	0.408844
C32	C	1.398271	-0.634216	0.472556
C33	C	1.490699	-0.640523	0.477248
C34	C	1.170389	-0.632771	0.678440
C35	C	1.165707	-0.638462	0.770866
C36	C	1.181452	-0.341803	0.461577
C37	C	1.181484	-0.223501	0.461590
C38	C	1.157128	-0.648826	0.940090
C39	C	1.205598	-0.590109	0.983853
C40	C	1.200825	-0.595875	1.078015
C41	C	1.161900	-0.643061	0.845920
C42	C	1.192320	-0.606144	1.245497
C43	C	1.197022	-0.600470	1.153072
H44	H	0.670399	-0.526378	0.392408
F45	F	0.703406	-0.731127	0.544567
F46	F	1.098210	-0.720191	0.983549
H47	H	1.250678	-0.535507	0.950602
H48	H	1.073556	-1.051848	0.558748
H49	H	1.289261	-1.185682	0.364239
F50	F	1.023941	-1.181631	0.410569
F51	F	1.146691	-1.030370	0.299577
F52	F	1.338851	-1.056107	0.512610
F53	F	1.215999	-1.207569	0.623492
