data_functionalizedCrystal
_audit_creation_method	'MofGen! by Chris Wilmer'
_symmetry_space_group_name_H-M	'P1'
_symmetry_Int_Tables_number	1
_symmetry_cell_setting	triclinic
loop_
_symmetry_equiv_pos_as_xyz
  x,y,z
_cell_length_a	25.639242
_cell_length_b	25.639239
_cell_length_c	25.639234
_cell_angle_alpha	89.978894
_cell_angle_beta	89.980236
_cell_angle_gamma	90.034213
loop_
_atom_site_label
_atom_site_type_symbol
_atom_site_fract_x
_atom_site_fract_y
_atom_site_fract_z
Zn1	Zn	0.799213	-0.208265	-0.295742
Zn2	Zn	0.799140	-0.295687	-0.208307
Zn3	Zn	0.711793	-0.208261	-0.208306
Zn4	Zn	0.711734	-0.295664	-0.295696
O5	O	0.755470	-0.251969	-0.252013
O6	O	0.872368	-0.219873	-0.284163
O7	O	0.787547	-0.284098	-0.135141
O8	O	0.723444	-0.135096	-0.219924
O9	O	0.872315	-0.284102	-0.219924
O10	O	0.787671	-0.135099	-0.284163
O11	O	0.723373	-0.219866	-0.135141
O12	O	0.638620	-0.219844	-0.219880
O13	O	0.723344	-0.284062	-0.368868
O14	O	0.638577	-0.284058	-0.284085
O15	O	0.787614	-0.219850	-0.368901
O16	O	0.787490	-0.368849	-0.219880
O17	O	0.723274	-0.368832	-0.284085
C18	C	0.619627	-0.251948	-0.251977
C19	C	0.561513	-0.251952	-0.251975
C20	C	0.201137	-0.285462	-0.285413
C21	C	0.146532	-0.285465	-0.285421
O22	O	0.118284	-0.313930	-0.313821
N23	N	0.119231	-0.251983	-0.252047
C24	C	0.146536	-0.218493	-0.218666
O25	O	0.118300	-0.190014	-0.190280
C26	C	0.201140	-0.218487	-0.218661
C27	C	0.228438	-0.251975	-0.252034
C28	C	0.228435	-0.318946	-0.318783
C29	C	0.283036	-0.318943	-0.318774
C30	C	0.310338	-0.285456	-0.285395
C31	C	0.283039	-0.251972	-0.252024
C32	C	0.228444	-0.184995	-0.185283
C33	C	0.283051	-0.184992	-0.185281
C34	C	0.310350	-0.218479	-0.218654
C35	C	0.364941	-0.218483	-0.218636
N36	N	0.392243	-0.251964	-0.252010
C37	C	0.364941	-0.285451	-0.285389
C38	C	0.031866	-0.218506	-0.218680
C39	C	-0.022737	-0.218514	-0.218683
C40	C	-0.022737	-0.285485	-0.285438
C41	C	0.031866	-0.285480	-0.285433
C42	C	0.059167	-0.251988	-0.252054
C43	C	0.479606	-0.285443	-0.285368
C44	C	0.534211	-0.285439	-0.285354
C45	C	0.534207	-0.218466	-0.218601
C46	C	0.479606	-0.218472	-0.218612
C47	C	0.452307	-0.251962	-0.252000
O48	O	0.393224	-0.190030	-0.190252
O49	O	0.393184	-0.313920	-0.313776
C50	C	0.755382	-0.387812	-0.251989
C51	C	0.755392	-0.445926	-0.251996
C52	C	0.788995	-0.806285	-0.218638
C53	C	0.789015	-0.860889	-0.218645
O54	O	0.817494	-0.889123	-0.190257
N55	N	0.755562	-0.888208	-0.252048
C56	C	0.722090	-0.860920	-0.285449
O57	O	0.693637	-0.889171	-0.313861
C58	C	0.722073	-0.806317	-0.285444
C59	C	0.755524	-0.779000	-0.252036
C60	C	0.822444	-0.778969	-0.185233
C61	C	0.822423	-0.724368	-0.185226
C62	C	0.788952	-0.697084	-0.218623
C63	C	0.755503	-0.724400	-0.252028
C64	C	0.688604	-0.779029	-0.318847
C65	C	0.688590	-0.724422	-0.318840
C66	C	0.722041	-0.697106	-0.285432
C67	C	0.722012	-0.642515	-0.285418
N68	N	0.755465	-0.615196	-0.252016
C69	C	0.788935	-0.642481	-0.218618
C70	C	0.722129	-0.975590	-0.285457
C71	C	0.722143	-1.030193	-0.285459
C72	C	0.789069	-1.030158	-0.218656
C73	C	0.789052	-0.975555	-0.218652
C74	C	0.755582	-0.948272	-0.252055
C75	C	0.788888	-0.527815	-0.218605
C76	C	0.788862	-0.473210	-0.218599
C77	C	0.721939	-0.473249	-0.285403
C78	C	0.721962	-0.527850	-0.285408
C79	C	0.755441	-0.555132	-0.252007
O80	O	0.693549	-0.614247	-0.313793
O81	O	0.817388	-0.614223	-0.190216
C82	C	0.891843	-0.251990	-0.252049
C83	C	0.949957	-0.251999	-0.252064
C84	C	0.755481	-0.251954	-0.388386
C85	C	0.755486	-0.251948	-0.446500
C86	C	0.755572	-0.115596	-0.252048
C87	C	0.755616	-0.057482	-0.252064
C88	C	0.722055	-0.285317	-0.697670
C89	C	0.722046	-0.285329	-0.643066
O90	O	0.693572	-0.313753	-0.614810
N91	N	0.755506	-0.251906	-0.615774
C92	C	0.788973	-0.218465	-0.643089
O93	O	0.817432	-0.190036	-0.614861
C94	C	0.788979	-0.218451	-0.697692
C95	C	0.755521	-0.251880	-0.724982
C96	C	0.688599	-0.318744	-0.724960
C97	C	0.688609	-0.318732	-0.779560
C98	C	0.722075	-0.285295	-0.806871
C99	C	0.755531	-0.251869	-0.779582
C100	C	0.822443	-0.185007	-0.725007
C101	C	0.822446	-0.184996	-0.779614
C102	C	0.788988	-0.218425	-0.806903
C103	C	0.789007	-0.218420	-0.861494
N104	N	0.755547	-0.251843	-0.888786
C105	C	0.722081	-0.285281	-0.861475
C106	C	0.788957	-0.218496	-0.528418
C107	C	0.788954	-0.218512	-0.473816
C108	C	0.722026	-0.285376	-0.473797
C109	C	0.722032	-0.285362	-0.528400
C110	C	0.755497	-0.251919	-0.555710
C111	C	0.722105	-0.285255	-0.976140
C112	C	0.722120	-0.285243	-1.030745
C113	C	0.789045	-0.218377	-1.030760
C114	C	0.789033	-0.218391	-0.976159
C115	C	0.755559	-0.251832	-0.948851
O116	O	0.817465	-0.190009	-0.889785
O117	O	0.693622	-0.313700	-0.889709
C118	C	0.755489	-0.251946	-0.116170
C119	C	0.755585	-0.251805	-0.058057
H120	H	-0.044976	-0.312751	-0.312619
C121	C	0.796350	-0.148083	-0.914757
C122	C	0.825816	-0.181657	-0.946154
H123	H	0.819058	-0.125407	-0.896233
H124	H	0.773598	-0.128072	-0.936058
H125	H	0.776414	-0.168003	-0.890680
H126	H	0.845749	-0.161737	-0.970233
H127	H	0.848577	-0.201670	-0.924851
C128	C	0.344462	-0.326301	-0.389090
C129	C	0.313038	-0.355747	-0.355466
H130	H	0.362983	-0.349023	-0.411743
H131	H	0.323179	-0.303552	-0.409124
H132	H	0.368541	-0.306364	-0.369206
H133	H	0.288956	-0.375681	-0.375350
H134	H	0.334322	-0.378505	-0.335429
H135	H	0.816212	-0.191264	-0.550651
H136	H	0.206227	-0.157727	-0.158106
C137	C	0.829830	-0.840436	-0.114948
C138	C	0.859257	-0.808976	-0.148555
H139	H	0.852563	-0.858967	-0.092314
H140	H	0.807077	-0.819178	-0.094893
H141	H	0.809897	-0.864508	-0.134847
H142	H	0.879187	-0.784902	-0.128656
H143	H	0.882019	-0.830236	-0.168611
C144	C	0.847954	-0.096474	-0.708247
C145	C	0.859217	-0.148249	-0.695027
H146	H	0.870655	-0.073777	-0.689739
H147	H	0.852740	-0.091698	-0.744674
H148	H	0.812827	-0.088832	-0.699285
H149	H	0.894342	-0.155892	-0.703993
H150	H	0.854435	-0.153027	-0.658592
H151	H	0.457379	-0.191205	-0.191436
C152	C	0.093236	-0.355819	-0.292571
C153	C	0.061870	-0.322287	-0.322120
H154	H	0.111754	-0.378544	-0.315223
H155	H	0.117314	-0.335875	-0.272699
H156	H	0.071911	-0.375785	-0.269756
H157	H	0.083196	-0.302318	-0.344932
H158	H	0.037790	-0.342232	-0.342001
H159	H	0.556446	-0.191204	-0.191422
C160	C	0.892792	-0.177720	-0.841033
C161	C	0.859233	-0.148235	-0.809634
H162	H	0.915500	-0.155025	-0.859567
H163	H	0.912770	-0.200502	-0.819731
H164	H	0.872864	-0.197623	-0.865100
H165	H	0.879162	-0.128334	-0.785564
H166	H	0.839253	-0.125444	-0.830937
C167	C	0.818764	-0.188673	-1.114477
C168	C	0.825828	-0.181622	-1.060788
H169	H	0.841469	-0.165977	-1.133014
H170	H	0.826394	-0.223797	-1.123417
H171	H	0.783638	-0.181016	-1.123411
H172	H	0.860953	-0.189282	-1.051853
H173	H	0.818202	-0.146490	-1.051844
C174	C	0.233934	-0.385147	-0.384758
C175	C	0.198432	-0.355762	-0.355475
H176	H	0.215413	-0.407882	-0.407406
H177	H	0.255248	-0.362392	-0.404796
H178	H	0.255214	-0.405103	-0.361929
H179	H	0.177154	-0.335803	-0.378304
H180	H	0.177109	-0.378520	-0.335435
H181	H	0.694870	-0.953379	-0.312656
C182	C	0.528718	-0.351637	-0.351344
C183	C	0.564217	-0.322248	-0.322043
H184	H	0.547242	-0.374357	-0.373996
H185	H	0.507401	-0.371604	-0.328531
H186	H	0.507442	-0.328879	-0.371385
H187	H	0.585491	-0.345006	-0.301999
H188	H	0.585544	-0.302280	-0.344858
H189	H	0.816204	-0.191296	-0.451602
H190	H	0.457386	-0.312713	-0.312556
C191	C	0.093239	-0.211135	-0.148350
C192	C	0.061874	-0.181696	-0.181981
H193	H	0.111765	-0.188408	-0.125697
H194	H	0.071917	-0.233886	-0.128317
H195	H	0.117314	-0.231069	-0.168230
H196	H	0.037796	-0.161764	-0.162101
H197	H	0.083199	-0.158936	-0.202016
H198	H	0.661361	-0.801261	-0.346049
H199	H	0.694686	-0.451026	-0.312594
H200	H	-0.044959	-0.191250	-0.191502
H201	H	0.305277	-0.157715	-0.158103
C202	C	0.855021	-0.478669	-0.152568
C203	C	0.825637	-0.443185	-0.181876
H204	H	0.877726	-0.460133	-0.129901
H205	H	0.832264	-0.499997	-0.132548
H206	H	0.875009	-0.499937	-0.175379
H207	H	0.805647	-0.421920	-0.159064
H208	H	0.848398	-0.421848	-0.201897
C209	C	0.655866	-0.351468	-0.479249
C210	C	0.685235	-0.322129	-0.443770
H211	H	0.633157	-0.374158	-0.460709
H212	H	0.635888	-0.328681	-0.500545
H213	H	0.678636	-0.371470	-0.500548
H214	H	0.662465	-0.302125	-0.422472
H215	H	0.705214	-0.344919	-0.422464
C216	C	0.859267	-0.589133	-0.211424
C217	C	0.825696	-0.557792	-0.181894
H218	H	0.881994	-0.607635	-0.188759
H219	H	0.839353	-0.613225	-0.231307
H220	H	0.879230	-0.567793	-0.234227
H221	H	0.805731	-0.579133	-0.159093
H222	H	0.845613	-0.533698	-0.162002
C223	C	0.888584	-0.729836	-0.119205
C224	C	0.859202	-0.694347	-0.148510
H225	H	0.911295	-0.711304	-0.096541
H226	H	0.865825	-0.751160	-0.099182
H227	H	0.908565	-0.751107	-0.142019
H228	H	0.839218	-0.673079	-0.125696
H229	H	0.881964	-0.673014	-0.168534
H230	H	0.816292	-0.953318	-0.191448
H231	H	0.694787	-0.312583	-0.550615
C232	C	0.818877	-1.113851	-0.189076
C233	C	0.825908	-1.060157	-0.181991
H234	H	0.841634	-1.132371	-0.166456
H235	H	0.783775	-1.122854	-0.181344
H236	H	0.826464	-1.122744	-0.224233
H237	H	0.818318	-1.051263	-0.146835
H238	H	0.861018	-1.051150	-0.189719
C239	C	0.655990	-1.024728	-0.351490
C240	C	0.685369	-1.060215	-0.322180
H241	H	0.633291	-1.043263	-0.374164
H242	H	0.636002	-1.003464	-0.328684
H243	H	0.678755	-1.003397	-0.371507
H244	H	0.662604	-1.081543	-0.302159
H245	H	0.705359	-1.081488	-0.344989
C246	C	0.622444	-0.729945	-0.384880
C247	C	0.651798	-0.694433	-0.355559
H248	H	0.599729	-0.711431	-0.407545
H249	H	0.645220	-0.751210	-0.404901
H250	H	0.602468	-0.751273	-0.362076
H251	H	0.671776	-0.673108	-0.378363
H252	H	0.629019	-0.673160	-0.335536
H253	H	0.661344	-0.345972	-0.702729
C254	C	0.655810	-0.522396	-0.351442
C255	C	0.685192	-0.557879	-0.322130
H256	H	0.633115	-0.540933	-0.374118
H257	H	0.635816	-0.501136	-0.328637
H258	H	0.678573	-0.501061	-0.371457
H259	H	0.662429	-0.579211	-0.302112
H260	H	0.705187	-0.579148	-0.344938
C261	C	0.692419	-0.314929	-1.114437
C262	C	0.685343	-0.321993	-1.060742
H263	H	0.669718	-0.337620	-1.132953
H264	H	0.684790	-0.279803	-1.123391
H265	H	0.727546	-0.322583	-1.123384
H266	H	0.650216	-0.314336	-1.051794
H267	H	0.692968	-0.357128	-1.051784
H268	H	0.694842	-0.312481	-0.953912
C269	C	0.622449	-0.384817	-0.774039
C270	C	0.651824	-0.355473	-0.809552
H271	H	0.599735	-0.407496	-0.792553
H272	H	0.645212	-0.404826	-0.752748
H273	H	0.602472	-0.362029	-0.752738
H274	H	0.671804	-0.378261	-0.830850
H275	H	0.629058	-0.335463	-0.830852
