data_functionalizedCrystal
_audit_creation_method	'MofGen! by Chris Wilmer'
_symmetry_space_group_name_H-M	'P1'
_symmetry_Int_Tables_number	1
_symmetry_cell_setting	triclinic
loop_
_symmetry_equiv_pos_as_xyz
  x,y,z
_cell_length_a	6.817900
_cell_length_b	19.453114
_cell_length_c	9.514072
_cell_angle_alpha	92.251299
_cell_angle_beta	118.843421
_cell_angle_gamma	101.709288
loop_
_atom_site_label
_atom_site_type_symbol
_atom_site_fract_x
_atom_site_fract_y
_atom_site_fract_z
V1	V	-4.092146	-0.219553	-0.223881
O2	O	-3.991297	-0.214808	0.009038
O3	O	-4.127001	-0.218596	-0.442263
O4	O	-4.034036	-0.315060	-0.221192
O5	O	-4.084907	-0.117677	-0.213564
V6	V	-4.566244	-0.207302	-0.195932
O7	O	-4.374078	-0.246428	-0.285189
O8	O	-4.734508	-0.180427	-0.134623
O9	O	-4.308181	-0.208259	0.022450
O10	O	-4.784489	-0.212048	-0.428850
O11	O	-4.690880	-0.309179	-0.206249
O12	O	-4.401147	-0.111796	-0.198621
C13	C	-3.992570	-0.215273	-0.495476
C14	C	-4.102291	-0.215128	-0.674011
C15	C	-3.873981	-0.338321	-0.213476
C16	C	-3.908305	-0.416402	-0.212723
C17	C	-4.109285	-0.456678	-0.220430
C18	C	-4.141536	-0.530043	-0.219723
C19	C	-3.972815	-0.563131	-0.211340
C20	C	-3.771801	-0.522845	-0.203622
C21	C	-3.739545	-0.449480	-0.204314
N22	N	-3.945407	-0.682130	-0.296156
N23	N	-3.976063	-0.751824	-0.295503
C24	C	-4.069986	-0.784174	-0.209252
N25	N	-4.132138	-0.744199	-0.123701
N26	N	-4.101490	-0.674500	-0.124361
C27	C	-4.007770	-0.642682	-0.210588
C28	C	-4.305947	-0.904001	-0.216191
C29	C	-4.338184	-0.977367	-0.215472
C30	C	-3.968454	-0.970168	-0.199388
C31	C	-3.936212	-0.896803	-0.200090
C32	C	-4.104971	-0.863725	-0.208499
C33	C	-4.105958	-0.211580	0.075655
C34	C	-3.975476	-0.211730	0.254189
C35	C	-4.224546	-0.088531	-0.206341
C36	C	-4.169458	-0.010449	-0.207087
H37	H	-4.294833	-0.217949	-0.749142
H38	H	-4.246701	-0.429750	-0.227271
H39	H	-3.831069	-0.997107	-0.192548
H40	H	-3.782941	-0.208899	-0.670685
H41	H	-4.501843	-1.010158	-0.221737
H42	H	-4.305209	-0.562843	-0.226008
C43	C	-4.701082	-0.897349	-0.368883
C44	C	-4.491425	-0.867634	-0.225414
H45	H	-4.815587	-0.874900	-0.374568
H46	H	-4.680836	-0.890492	-0.459818
H47	H	-4.749026	-0.946806	-0.369546
H48	H	-4.443471	-0.818177	-0.224756
H49	H	-4.511669	-0.874484	-0.134455
C50	C	-3.657102	-0.632114	-0.195446
C51	C	-3.586342	-0.559213	-0.194414
H52	H	-3.542602	-0.654565	-0.189766
H53	H	-3.677332	-0.638967	-0.104504
H54	H	-3.799346	-0.652254	-0.292786
H55	H	-3.444106	-0.539072	-0.097068
H56	H	-3.566083	-0.552356	-0.285364
C57	C	-3.504462	-0.430590	-0.329626
C58	C	-3.518620	-0.405218	-0.195878
H59	H	-3.368077	-0.403264	-0.324429
H60	H	-3.499545	-0.479013	-0.327989
H61	H	-3.636150	-0.426687	-0.427169
H62	H	-3.386940	-0.409126	-0.098334
H63	H	-3.523516	-0.356783	-0.197500
H64	H	-3.772564	-0.864011	-0.193830
