data_functionalizedCrystal
_audit_creation_method	'MofGen! by Chris Wilmer'
_symmetry_space_group_name_H-M	'P1'
_symmetry_Int_Tables_number	1
_symmetry_cell_setting	triclinic
loop_
_symmetry_equiv_pos_as_xyz
  x,y,z
_cell_length_a	15.944551
_cell_length_b	8.559649
_cell_length_c	7.681481
_cell_angle_alpha	94.930900
_cell_angle_beta	95.719764
_cell_angle_gamma	103.361299
loop_
_atom_site_label
_atom_site_type_symbol
_atom_site_fract_x
_atom_site_fract_y
_atom_site_fract_z
O1	O	1.092297	-0.221220	-0.146588
O2	O	0.846110	-0.246623	-0.146553
O3	O	0.990893	-0.001322	-0.146572
O4	O	0.947514	-0.466521	-0.146569
O5	O	1.008718	0.028939	0.146284
O6	O	0.863935	-0.216363	0.146303
O7	O	1.110122	-0.190959	0.146267
Zn8	Zn	0.989858	-0.198856	0.192782
Zn9	Zn	0.966373	-0.238726	-0.193067
O10	O	0.965339	-0.436260	0.146286
C11	C	0.823797	-0.230438	-0.000121
C12	C	0.730755	-0.227274	-0.000108
C13	C	1.003092	0.073337	-0.000148
C14	C	1.012877	0.250715	-0.000159
C15	C	1.132435	-0.207145	-0.000169
C16	C	1.225475	-0.210310	-0.000193
C17	C	1.430034	-0.369914	-0.000152
C18	C	1.487049	-0.310717	-0.144544
C19	C	1.395834	-0.216028	-0.000168
C20	C	1.504603	-0.280846	0.144188
C21	C	1.560391	-0.221562	-0.000135
C22	C	1.451616	-0.156801	-0.144679
C23	C	1.469170	-0.126938	0.144183
C24	C	1.526172	-0.067633	-0.000244
C25	C	1.301036	-0.212844	-0.000188
C26	C	1.655188	-0.224734	-0.000128
C27	C	0.953139	-0.510920	-0.000141
C28	C	0.943354	-0.688299	-0.000142
N29	N	1.005892	-0.171645	0.456114
N30	N	0.950347	-0.265925	-0.456400
H31	H	1.388475	-0.497664	-0.000295
Br32	Br	1.100414	-0.011263	0.581437
H33	H	1.079891	0.334214	-0.000154
Br34	Br	0.855841	-0.426325	0.418283
H35	H	1.495532	-0.388422	-0.266612
H36	H	1.428386	-0.104400	-0.266892
Br37	Br	1.454991	0.002483	0.347658
H38	H	1.567572	0.060210	-0.000317
Br39	Br	1.543465	-0.368352	0.347642
Br40	Br	0.831664	0.172553	-0.000115
