data_functionalizedCrystal
_audit_creation_method	'MofGen! by Chris Wilmer'
_symmetry_space_group_name_H-M	'P1'
_symmetry_Int_Tables_number	1
_symmetry_cell_setting	triclinic
loop_
_symmetry_equiv_pos_as_xyz
  x,y,z
_cell_length_a	13.897448
_cell_length_b	16.959455
_cell_length_c	16.959447
_cell_angle_alpha	90.027292
_cell_angle_beta	89.971905
_cell_angle_gamma	89.987315
loop_
_atom_site_label
_atom_site_type_symbol
_atom_site_fract_x
_atom_site_fract_y
_atom_site_fract_z
Zn1	Zn	-0.384137	-1.208425	-0.447111
Zn2	Zn	0.115863	-0.708425	0.052889
Zn3	Zn	-0.545451	-1.208345	-0.314934
Zn4	Zn	-0.045451	-0.708345	0.185066
Zn5	Zn	-0.384158	-1.076245	-0.314927
Zn6	Zn	0.115842	-0.576245	0.185073
Zn7	Zn	-0.545377	-1.076224	-0.447051
Zn8	Zn	-0.045377	-0.576224	0.052949
O9	O	-0.464781	-1.142310	-0.381006
O10	O	0.035219	-0.642310	0.118994
O11	O	-0.405558	-1.319026	-0.429605
O12	O	0.094442	-0.819026	0.070395
O13	O	-0.524095	-1.190797	-0.204322
O14	O	-0.024095	-0.690797	0.295678
O15	O	-0.249173	-1.093822	-0.332483
O16	O	0.250827	-0.593822	0.167517
O17	O	-0.524075	-1.318967	-0.332496
O18	O	-0.024075	-0.818967	0.167504
O19	O	-0.249158	-1.190934	-0.429598
O20	O	0.250842	-0.690934	0.070402
O21	O	-0.405594	-1.093744	-0.204317
O22	O	0.094406	-0.593744	0.295683
O23	O	-0.405522	-0.965632	-0.332425
O24	O	0.094478	-0.465632	0.167575
O25	O	-0.523949	-1.093785	-0.557670
O26	O	-0.023949	-0.593785	-0.057670
O27	O	-0.523969	-0.965616	-0.429497
O28	O	-0.023969	-0.465616	0.070503
O29	O	-0.405486	-1.190913	-0.557714
O30	O	0.094514	-0.690913	-0.057714
O31	O	-0.680423	-1.190776	-0.332438
O32	O	-0.180423	-0.690776	0.167562
O33	O	-0.680369	-1.093707	-0.429504
O34	O	-0.180369	-0.593707	0.070496
C35	C	-0.464741	-0.936944	-0.380954
C36	C	0.035259	-0.436944	0.119046
C37	C	-0.464746	-0.849087	-0.380951
C38	C	0.035254	-0.349087	0.119049
C39	C	-0.526403	-0.477570	-0.330377
C40	C	-0.026403	0.022430	0.169623
C41	C	-0.403182	-0.477653	-0.431655
C42	C	0.096818	0.022347	0.068345
C43	C	-0.403169	-0.560199	-0.431640
C44	C	0.096831	-0.060199	0.068360
C45	C	-0.464776	-0.601434	-0.380994
C46	C	0.035224	-0.101434	0.119006
C47	C	-0.526395	-0.560124	-0.330363
C48	C	-0.026395	-0.060124	0.169637
C49	C	-0.341558	-0.601516	-0.482276
C50	C	0.158442	-0.101516	0.017724
C51	C	-0.341544	-0.684066	-0.482264
C52	C	0.158456	-0.184066	0.017736
C53	C	-0.403147	-0.725303	-0.431614
C54	C	0.096853	-0.225303	0.068386
C55	C	-0.464767	-0.683988	-0.380980
C56	C	0.035233	-0.183988	0.119020
C57	C	-0.526374	-0.725223	-0.330334
C58	C	-0.026374	-0.225223	0.169666
C59	C	-0.587990	-0.683909	-0.279695
C60	C	-0.087990	-0.183909	0.220305
C61	C	-0.587997	-0.601360	-0.279712
C62	C	-0.087997	-0.101360	0.220288
C63	C	-0.403140	-0.807852	-0.431597
C64	C	0.096860	-0.307852	0.068403
C65	C	-0.526365	-0.807777	-0.330319
C66	C	-0.026365	-0.307777	0.169681
C67	C	-0.715395	-1.142252	-0.380983
C68	C	-0.215395	-0.642252	0.119017
C69	C	-0.822609	-1.142300	-0.380999
C70	C	-0.322609	-0.642300	0.119001
C71	C	-1.018904	-1.142383	-0.381049
C72	C	-0.518904	-0.642383	0.118951
C73	C	-0.909672	-1.142335	-0.381024
C74	C	-0.409672	-0.642335	0.118976
C75	C	-0.213188	-1.142389	-0.381046
C76	C	0.286812	-0.642389	0.118954
C77	C	-0.105974	-1.142423	-0.381063
C78	C	0.394026	-0.642423	0.118937
C79	C	-0.464707	-1.142356	-0.587174
C80	C	0.035293	-0.642356	-0.087174
C81	C	-0.464675	-1.142376	-0.675031
C82	C	0.035325	-0.642376	-0.175031
C83	C	-0.464811	-0.348478	-0.381043
C84	C	0.035189	0.151522	0.118957
C85	C	-0.464796	-0.436335	-0.381023
C86	C	0.035204	0.063665	0.118977
C87	C	-0.526357	-1.192917	-0.716309
C88	C	-0.026357	-0.692917	-0.216309
C89	C	-0.402968	-1.091848	-0.716306
C90	C	0.097032	-0.591848	-0.216306
C91	C	-0.402940	-1.091862	-0.798852
C92	C	0.097060	-0.591862	-0.298852
C93	C	-0.464622	-1.142403	-0.840130
C94	C	0.035378	-0.642403	-0.340130
C95	C	-0.526333	-1.192930	-0.798863
C96	C	-0.026333	-0.692930	-0.298863
C97	C	-0.341238	-1.041329	-0.840125
C98	C	0.158762	-0.541329	-0.340125
C99	C	-0.341208	-1.041340	-0.922676
C100	C	0.158792	-0.541340	-0.422676
C101	C	-0.402886	-1.091886	-0.963956
C102	C	0.097114	-0.591886	-0.463956
C103	C	-0.464598	-1.142416	-0.922684
C104	C	0.035402	-0.642416	-0.422684
C105	C	-0.526280	-1.192957	-0.963962
C106	C	-0.026280	-0.692957	-0.463962
C107	C	-0.587988	-1.243492	-0.922691
C108	C	-0.087988	-0.743492	-0.422691
C109	C	-0.588011	-1.243476	-0.840143
C110	C	-0.088011	-0.743476	-0.340143
C111	C	-0.402863	-1.091902	-1.046505
C112	C	0.097137	-0.591902	-0.546505
C113	C	-0.526256	-1.192971	-1.046516
C114	C	-0.026256	-0.692971	-0.546516
C115	C	-0.464785	-1.142310	-0.175639
C116	C	0.035215	-0.642310	0.324361
C117	C	-0.464545	-1.142443	-0.087783
C118	C	0.035455	-0.642443	0.412217
H119	H	-0.638155	-0.717493	-0.238463
H120	H	-0.138155	-0.217493	0.261537
Cl121	Cl	-0.264129	-0.549674	-0.545951
Cl122	Cl	0.235871	-0.049674	-0.045951
Cl123	Cl	-0.325691	-0.859786	-0.495255
Cl124	Cl	0.174309	-0.359786	0.004745
Cl125	Cl	-0.665453	-0.549418	-0.216061
Cl126	Cl	-0.165453	-0.049418	0.283939
H127	H	-0.291372	-0.717697	-0.523497
H128	H	0.208628	-0.217697	-0.023497
H129	H	-0.576567	-0.443928	-0.289146
H130	H	-0.076567	0.056072	0.210854
H131	H	-0.353030	-0.444074	-0.472893
H132	H	0.146970	0.055926	0.027107
H133	H	-0.576596	-1.234063	-0.682703
H134	H	-0.076596	-0.734063	-0.182703
Cl135	Cl	-0.665535	-1.307021	-0.974594
Cl136	Cl	-0.165535	-0.807021	-0.474594
Cl137	Cl	-0.603799	-1.256516	-1.098402
Cl138	Cl	-0.103799	-0.756516	-0.598402
H139	H	-0.352623	-1.050756	-1.080104
H140	H	0.147377	-0.550756	-0.580104
H141	H	-0.576530	-0.841345	-0.289074
H142	H	-0.076530	-0.341345	0.210926
H143	H	-0.352755	-1.050695	-0.682692
H144	H	0.147245	-0.550695	-0.182692
Cl145	Cl	-0.263649	-0.977799	-0.974552
Cl146	Cl	0.236351	-0.477799	-0.474552
H147	H	-0.638251	-1.284618	-0.806533
H148	H	-0.138251	-0.784618	-0.306533
H149	H	-0.291026	-1.000176	-0.806510
H150	H	0.208974	-0.500176	-0.306510
