data_functionalizedCrystal
_audit_creation_method	'MofGen! by Chris Wilmer'
_symmetry_space_group_name_H-M	'P1'
_symmetry_Int_Tables_number	1
_symmetry_cell_setting	triclinic
loop_
_symmetry_equiv_pos_as_xyz
  x,y,z
_cell_length_a	12.759401
_cell_length_b	19.805405
_cell_length_c	19.805399
_cell_angle_alpha	90.029301
_cell_angle_beta	90.015508
_cell_angle_gamma	90.025455
loop_
_atom_site_label
_atom_site_type_symbol
_atom_site_fract_x
_atom_site_fract_y
_atom_site_fract_z
Zn1	Zn	1.606138	-0.269496	0.382638
Zn2	Zn	2.106138	0.230504	0.882638
Zn3	Zn	1.606006	-0.382685	0.269446
Zn4	Zn	2.106006	0.117315	0.769446
Zn5	Zn	1.430449	-0.269513	0.269471
Zn6	Zn	1.930449	0.230487	0.769471
Zn7	Zn	1.430393	-0.382647	0.382601
Zn8	Zn	1.930393	0.117353	0.882601
O9	O	1.518247	-0.326085	0.326039
O10	O	2.018247	0.173915	0.826039
O11	O	1.753142	-0.284520	0.367628
O12	O	2.253142	0.215480	0.867628
O13	O	1.582686	-0.367695	0.174733
O14	O	2.082686	0.132305	0.674733
O15	O	1.453834	-0.174794	0.284508
O16	O	1.953834	0.325206	0.784508
O17	O	1.753044	-0.367679	0.284467
O18	O	2.253044	0.132321	0.784467
O19	O	1.582912	-0.174782	0.367652
O20	O	2.082912	0.325218	0.867652
O21	O	1.453706	-0.284548	0.174751
O22	O	1.953706	0.215452	0.674751
O23	O	1.283421	-0.284512	0.284472
O24	O	1.783421	0.215488	0.784472
O25	O	1.453737	-0.367614	0.477323
O26	O	1.953737	0.132386	0.977323
O27	O	1.283379	-0.367630	0.367589
O28	O	1.783379	0.132370	0.867589
O29	O	1.582857	-0.284483	0.477350
O30	O	2.082857	0.215517	0.977350
O31	O	1.582631	-0.477396	0.284431
O32	O	2.082631	0.022604	0.784431
O33	O	1.453609	-0.477368	0.367565
O34	O	1.953609	0.022632	0.867565
C35	C	1.518128	-0.501941	0.326006
C36	C	2.018128	-0.001941	0.826006
C37	C	1.518174	-0.577173	0.326015
C38	C	2.018174	-0.077173	0.826015
C39	C	1.245279	-0.326069	0.326030
C40	C	1.745279	0.173931	0.826030
C41	C	1.128503	-0.326079	0.326042
C42	C	1.628503	0.173921	0.826042
C43	C	1.585421	-0.612509	0.282772
C44	C	2.085421	-0.112509	0.782772
C45	C	1.585466	-0.683198	0.282787
C46	C	2.085466	-0.183198	0.782787
C47	C	1.518257	-0.718549	0.326042
C48	C	2.018257	-0.218549	0.826042
C49	C	1.451007	-0.683208	0.369290
C50	C	1.951007	-0.183208	0.869290
C51	C	1.450968	-0.612520	0.369278
C52	C	1.950968	-0.112520	0.869278
C53	C	1.451162	-0.968281	0.369340
C54	C	1.951162	-0.468281	0.869340
C55	C	1.451203	-1.038973	0.369347
C56	C	1.951203	-0.538973	0.869347
C57	C	1.585659	-1.038958	0.282849
C58	C	2.085659	-0.538958	0.782849
C59	C	1.585621	-0.968271	0.282837
C60	C	2.085621	-0.468271	0.782837
C61	C	1.518375	-0.932936	0.326087
C62	C	2.018375	-0.432936	0.826087
C63	C	1.518329	-0.856288	0.326071
C64	C	2.018329	-0.356288	0.826071
C65	C	1.518297	-0.795196	0.326055
C66	C	2.018297	-0.295196	0.826055
C67	C	1.073684	-0.282860	0.369411
C68	C	1.573684	0.217140	0.869411
C69	C	0.963960	-0.282872	0.369415
C70	C	1.463960	0.217128	0.869415
C71	C	0.963883	-0.369330	0.282679
C72	C	1.463883	0.130670	0.782679
C73	C	1.073605	-0.369313	0.282672
C74	C	1.573605	0.130687	0.782672
C75	C	1.128582	-0.239625	0.412781
C76	C	1.628582	0.260375	0.912781
C77	C	1.073764	-0.196403	0.456154
C78	C	1.573764	0.303597	0.956154
C79	C	0.964040	-0.196416	0.456158
C80	C	1.464040	0.303584	0.956158
C81	C	0.909134	-0.239651	0.412789
C82	C	1.409134	0.260349	0.912789
C83	C	1.792280	-0.326102	0.326049
C84	C	2.292280	0.173898	0.826049
C85	C	1.909056	-0.326109	0.326053
C86	C	2.409056	0.173891	0.826053
C87	C	1.518306	-0.326042	0.502582
C88	C	2.018306	0.173958	1.002582
C89	C	1.518331	-0.326024	0.577814
C90	C	2.018331	0.173976	1.077814
C91	C	1.518394	-0.149542	0.326087
C92	C	2.018394	0.350458	0.826087
C93	C	1.518457	-0.074310	0.326107
C94	C	2.018457	0.425690	0.826107
C95	C	1.518248	-0.326079	0.150183
C96	C	2.018248	0.173921	0.650183
C97	C	1.518427	-0.325906	0.074952
C98	C	2.018427	0.174094	0.574952
C99	C	1.585565	-0.282736	0.613173
C100	C	2.085565	0.217264	1.113173
C101	C	1.585575	-0.282716	0.683862
C102	C	2.085575	0.217284	1.183862
C103	C	1.518357	-0.325989	0.719190
C104	C	2.018357	0.174011	1.219190
C105	C	1.451115	-0.369279	0.683825
C106	C	1.951115	0.130721	1.183825
C107	C	1.451100	-0.369295	0.613138
C108	C	1.951100	0.130705	1.113138
C109	C	1.451175	-0.369216	0.968899
C110	C	1.951175	0.130784	1.468899
C111	C	1.451197	-0.369199	1.039591
C112	C	1.951197	0.130801	1.539591
C113	C	1.585650	-0.282637	1.039622
C114	C	2.085650	0.217363	1.539622
C115	C	1.585635	-0.282653	0.968935
C116	C	2.085635	0.217347	1.468935
C117	C	1.518390	-0.325941	0.933577
C118	C	2.018390	0.174059	1.433577
C119	C	1.518378	-0.325960	0.856929
C120	C	2.018378	0.174040	1.356929
C121	C	1.518374	-0.325973	0.795837
C122	C	2.018374	0.174027	1.295837
H123	H	1.640145	-0.583731	0.247546
H124	H	2.140145	-0.083731	0.747546
Cl125	Cl	1.670148	-0.228324	0.728311
Cl126	Cl	2.170148	0.271676	1.228311
H127	H	1.118239	-0.404506	0.247357
H128	H	1.618239	0.095494	0.747357
H129	H	1.396435	-0.404474	0.940119
H130	H	1.896435	0.095526	1.440119
H131	H	1.640400	-0.247388	1.068420
H132	H	2.140400	0.252612	1.568420
Cl133	Cl	1.670144	-0.228253	0.924527
Cl134	Cl	2.170144	0.271747	1.424527
H135	H	1.640224	-0.711965	0.247574
H136	H	2.140224	-0.211965	0.747574
Cl137	Cl	1.266520	-0.239609	0.412781
Cl138	Cl	1.766520	0.260391	0.912781
Cl139	Cl	1.366622	-0.923869	0.423710
Cl140	Cl	1.866622	-0.423869	0.923710
Cl141	Cl	1.366522	-0.727649	0.423671
Cl142	Cl	1.866522	-0.227649	0.923671
Cl143	Cl	1.142785	-0.142048	0.510666
Cl144	Cl	1.642785	0.357952	1.010666
Cl145	Cl	1.366686	-0.423602	1.084002
Cl146	Cl	1.866686	0.076398	1.584002
H147	H	1.396475	-1.067754	0.404575
H148	H	1.896475	-0.567754	0.904575
Cl149	Cl	1.366608	-0.423678	0.728238
Cl150	Cl	1.866608	0.076322	1.228238
Cl151	Cl	1.366571	-0.423715	0.568686
Cl152	Cl	1.866571	0.076285	1.068686
Cl153	Cl	0.895127	-0.142076	0.510679
Cl154	Cl	1.395127	0.357924	1.010679
H155	H	0.819789	-0.239644	0.412782
H156	H	1.319789	0.260356	0.912782
H157	H	1.640344	-0.939490	0.247613
H158	H	2.140344	-0.439490	0.747613
H159	H	1.640305	-0.247500	0.584414
H160	H	2.140305	0.252500	1.084414
H161	H	1.640418	-1.067736	0.247636
H162	H	2.140418	-0.567736	0.747636
Cl163	Cl	0.894858	-0.423680	0.228164
Cl164	Cl	1.394858	0.076320	0.728164
H165	H	1.396210	-0.583750	0.404491
H166	H	1.896210	-0.083750	0.904491
