data_functionalizedCrystal
_audit_creation_method	'MofGen! by Chris Wilmer'
_symmetry_space_group_name_H-M	'P1'
_symmetry_Int_Tables_number	1
_symmetry_cell_setting	triclinic
loop_
_symmetry_equiv_pos_as_xyz
  x,y,z
_cell_length_a	15.944551
_cell_length_b	14.519709
_cell_length_c	13.596369
_cell_angle_alpha	90.006778
_cell_angle_beta	89.998652
_cell_angle_gamma	96.410558
loop_
_atom_site_label
_atom_site_type_symbol
_atom_site_fract_x
_atom_site_fract_y
_atom_site_fract_z
O1	O	1.114698	-0.118943	-0.081691
O2	O	1.448032	0.214391	0.251642
O3	O	1.781365	0.547724	0.584976
O4	O	0.870170	-0.133607	-0.081716
O5	O	1.203503	0.199726	0.251618
O6	O	1.536837	0.533060	0.584951
O7	O	0.998917	0.007975	-0.081694
O8	O	1.332251	0.341308	0.251640
O9	O	1.665584	0.674642	0.584973
O10	O	0.985951	-0.260525	-0.081713
O11	O	1.319284	0.072809	0.251621
O12	O	1.652617	0.406142	0.584954
O13	O	0.998903	0.007982	0.081889
O14	O	1.332237	0.341315	0.415222
O15	O	1.665570	0.674648	0.748556
O16	O	0.870156	-0.133600	0.081867
O17	O	1.203489	0.199733	0.415201
O18	O	1.536822	0.533067	0.748534
O19	O	1.114684	-0.118936	0.081892
O20	O	1.448017	0.214397	0.415225
O21	O	1.781351	0.547731	0.748559
Zn22	Zn	0.992418	-0.126267	0.107852
Zn23	Zn	1.325751	0.207066	0.441185
Zn24	Zn	1.659084	0.540400	0.774519
Zn25	Zn	0.992436	-0.126276	-0.107676
Zn26	Zn	1.325770	0.207057	0.225658
Zn27	Zn	1.659103	0.540391	0.558991
O28	O	0.985937	-0.260518	0.081870
O29	O	1.319270	0.072816	0.415203
O30	O	1.652603	0.406149	0.748537
C31	C	0.838868	-0.132995	0.000073
C32	C	1.172201	0.200339	0.333406
C33	C	1.505535	0.533672	0.666739
C34	C	0.745619	-0.131170	0.000064
C35	C	1.078953	0.202164	0.333397
C36	C	1.412286	0.535497	0.666730
C37	C	0.998306	0.042337	0.000098
C38	C	1.331639	0.375670	0.333431
C39	C	1.664973	0.709004	0.666764
C40	C	0.996495	0.144715	0.000098
C41	C	1.329828	0.478048	0.333431
C42	C	1.663162	0.811382	0.666765
N43	N	0.992411	-0.126260	0.254944
N44	N	1.325744	0.207073	0.588277
N45	N	1.659078	0.540407	0.921610
C46	C	0.530629	-0.039048	0.000089
C47	C	0.863962	0.294285	0.333422
C48	C	1.197296	0.627618	0.666756
C49	C	0.469678	-0.081830	-0.080569
C50	C	0.803011	0.251504	0.252764
C51	C	1.136345	0.584837	0.586098
C52	C	0.574889	-0.127868	0.000075
C53	C	0.908222	0.205465	0.333409
C54	C	1.241555	0.538799	0.666742
C55	C	0.469686	-0.081844	0.080711
C56	C	0.803019	0.251489	0.414044
C57	C	1.136353	0.584823	0.747378
C58	C	0.409971	-0.124672	0.000091
C59	C	0.743305	0.208661	0.333425
C60	C	1.076638	0.541995	0.666758
C61	C	0.515166	-0.170674	-0.080649
C62	C	0.848499	0.162659	0.252684
C63	C	1.181832	0.495993	0.586017
C64	C	0.515180	-0.170676	0.080703
C65	C	0.848514	0.162658	0.414036
C66	C	1.181847	0.495991	0.747370
C67	C	0.454247	-0.213522	0.000025
C68	C	0.787580	0.119812	0.333359
C69	C	1.120914	0.453145	0.666692
C70	C	0.669894	-0.129706	0.000065
C71	C	1.003227	0.203627	0.333399
C72	C	1.336560	0.536960	0.666732
C73	C	0.314967	-0.122840	0.000094
C74	C	0.648301	0.210493	0.333427
C75	C	0.981634	0.543826	0.666761
C76	C	1.145986	-0.119548	0.000101
C77	C	1.479319	0.213785	0.333435
C78	C	1.812653	0.547119	0.666768
C79	C	1.239235	-0.121373	0.000104
C80	C	1.572568	0.211960	0.333437
C81	C	1.905901	0.545293	0.666771
C82	C	0.986548	-0.294880	0.000076
C83	C	1.319881	0.038453	0.333410
C84	C	1.653215	0.371787	0.666743
C85	C	0.988359	-0.397258	0.000070
C86	C	1.321692	-0.063925	0.333403
C87	C	1.655025	0.269409	0.666736
C88	C	0.989829	0.519599	0.000072
C89	C	1.323162	0.852933	0.333405
C90	C	1.656495	1.186266	0.666739
C91	C	0.991680	0.415295	0.000080
C92	C	1.325013	0.748628	0.333413
C93	C	1.658347	1.081961	0.666746
C94	C	0.993162	0.332161	0.000086
C95	C	1.326495	0.665494	0.333419
C96	C	1.659828	0.998827	0.666753
C97	C	0.995013	0.227849	0.000092
C98	C	1.328347	0.561183	0.333425
C99	C	1.661680	0.894516	0.666758
C100	C	0.992429	-0.126280	0.656235
C101	C	1.325762	0.207054	0.989568
C102	C	1.659096	0.540387	1.322901
C103	C	0.992422	-0.126277	0.544583
C104	C	1.325755	0.207056	0.877917
C105	C	1.659088	0.540389	1.211250
C106	C	0.992420	-0.126271	0.455593
C107	C	1.325754	0.207063	0.788926
C108	C	1.659087	0.540396	1.122259
C109	C	0.992412	-0.126267	0.343934
C110	C	1.325746	0.207066	0.677268
C111	C	1.659079	0.540400	1.010601
N112	N	0.992442	-0.126279	0.745233
N113	N	1.325775	0.207054	1.078566
N114	N	1.659108	0.540388	1.411899
H115	H	0.449519	-0.044266	-0.148754
H116	H	0.782852	0.289068	0.184579
H117	H	1.116186	0.622401	0.517912
N118	N	0.540295	-0.217757	-0.166304
N119	N	0.873628	0.115577	0.167030
N120	N	1.206962	0.448910	0.500363
N121	N	0.486105	-0.249931	-0.227302
N122	N	0.819438	0.083402	0.106031
N123	N	1.152772	0.416735	0.439365
H124	H	0.503853	-0.283180	-0.287797
H125	H	0.837186	0.050153	0.045536
H126	H	1.170520	0.383486	0.378869
H127	H	0.421196	-0.287311	-0.000025
H128	H	0.754529	0.046022	0.333308
H129	H	1.087862	0.379356	0.666642
N130	N	0.540492	-0.217756	0.166251
N131	N	0.873825	0.115578	0.499584
N132	N	1.207158	0.448911	0.832918
N133	N	0.526167	-0.187480	0.249940
N134	N	0.859500	0.145853	0.583273
N135	N	1.192834	0.479187	0.916607
H136	H	0.544044	-0.220724	0.310367
H137	H	0.877377	0.112609	0.643700
H138	H	1.210711	0.445943	0.977034
N139	N	0.444414	-0.034684	0.166245
N140	N	0.777747	0.298650	0.499579
N141	N	1.111080	0.631983	0.832912
N142	N	0.472066	0.048206	0.180599
N143	N	0.805400	0.381539	0.513932
N144	N	1.138733	0.714873	0.847265
H145	H	0.454220	0.081520	0.241003
H146	H	0.787554	0.414854	0.574336
H147	H	1.120887	0.748187	0.907670
H148	H	0.563855	0.034665	-0.000005
H149	H	0.897188	0.367998	0.333328
H150	H	1.230522	0.701332	0.666661
