data_functionalizedCrystal
_audit_creation_method	'MofGen! by Chris Wilmer'
_symmetry_space_group_name_H-M	'P1'
_symmetry_Int_Tables_number	1
_symmetry_cell_setting	triclinic
loop_
_symmetry_equiv_pos_as_xyz
  x,y,z
_cell_length_a	10.489741
_cell_length_b	9.065218
_cell_length_c	7.540329
_cell_angle_alpha	90.001757
_cell_angle_beta	89.995054
_cell_angle_gamma	95.222470
loop_
_atom_site_label
_atom_site_type_symbol
_atom_site_fract_x
_atom_site_fract_y
_atom_site_fract_z
O1	O	1.694803	-0.208165	-0.147557
O2	O	1.323678	-0.227705	-0.147542
O3	O	1.516911	-0.003256	-0.147546
O4	O	1.501569	-0.432615	-0.147553
O5	O	1.516900	-0.003253	0.147419
O6	O	1.323666	-0.227702	0.147423
O7	O	1.694791	-0.208162	0.147408
Cu8	Cu	1.509228	-0.217932	0.174348
Cu9	Cu	1.509241	-0.217935	-0.174482
O10	O	1.501558	-0.432612	0.147412
C11	C	1.276135	-0.226228	-0.000058
C12	C	1.134489	-0.221813	-0.000052
C13	C	1.742334	-0.209640	-0.000081
C14	C	1.883979	-0.214055	-0.000098
C15	C	1.952635	-0.356866	-0.000081
C16	C	2.044524	-0.289405	-0.145507
C17	C	2.044479	-0.289368	0.145305
C18	C	1.974003	-0.146535	-0.145644
C19	C	1.973948	-0.146518	0.145299
C20	C	2.065809	-0.078954	-0.000162
C21	C	1.515431	0.051725	-0.000067
C22	C	1.511022	0.215547	-0.000075
C23	C	1.503038	-0.487593	-0.000072
C24	C	1.507447	-0.651414	-0.000075
N25	N	1.509227	-0.217929	0.419697
N26	N	1.509252	-0.217927	-0.419831
H27	H	1.903411	-0.474285	-0.000230
H28	H	1.942961	-0.086166	-0.268738
H29	H	2.114800	0.038574	-0.000231
O30	O	1.936667	-0.074704	0.292162
C31	C	1.972233	-0.150355	0.445206
H32	H	1.983893	-0.270756	0.410363
H33	H	2.066718	-0.095552	0.498277
C34	C	1.853376	0.003500	0.630558
C35	C	1.867687	-0.144382	0.587765
H36	H	1.788892	0.007189	0.718499
H37	H	1.829419	0.054473	0.527450
H38	H	1.932122	0.049153	0.674773
H39	H	1.788948	-0.190026	0.543530
H40	H	1.891629	-0.195362	0.690868
O41	O	2.081656	-0.361415	-0.292321
C42	C	2.044074	-0.287401	-0.445499
H43	H	1.960770	-0.219958	-0.411694
H44	H	2.128045	-0.210258	-0.496337
C45	C	2.104432	-0.484700	-0.631333
C46	C	2.002110	-0.401875	-0.589816
H47	H	2.078552	-0.555311	-0.720359
H48	H	2.129757	-0.534563	-0.528136
H49	H	2.174399	-0.420399	-0.673689
H50	H	1.932151	-0.466174	-0.547442
H51	H	1.976772	-0.352026	-0.693011
H52	H	2.075668	-0.349818	0.268257
