data_functionalizedCrystal
_audit_creation_method	'MofGen! by Chris Wilmer'
_symmetry_space_group_name_H-M	'P1'
_symmetry_Int_Tables_number	1
_symmetry_cell_setting	triclinic
loop_
_symmetry_equiv_pos_as_xyz
  x,y,z
_cell_length_a	6.817900
_cell_length_b	11.168121
_cell_length_c	10.773894
_cell_angle_alpha	95.440990
_cell_angle_beta	96.645922
_cell_angle_gamma	108.508496
loop_
_atom_site_label
_atom_site_type_symbol
_atom_site_fract_x
_atom_site_fract_y
_atom_site_fract_z
V1	V	-3.973864	-0.170064	-0.388954
O2	O	-3.936042	0.012947	-0.381539
O3	O	-3.951079	-0.341801	-0.386304
O4	O	-3.890835	-0.165353	-0.558586
O5	O	-3.996703	-0.164722	-0.208065
V6	V	-4.458661	-0.148422	-0.367317
O7	O	-4.232330	-0.217540	-0.436417
O8	O	-4.650392	-0.100947	-0.319855
O9	O	-4.258240	0.023315	-0.369967
O10	O	-4.613880	-0.331433	-0.374732
O11	O	-4.553219	-0.153764	-0.548206
O12	O	-4.318484	-0.153133	-0.197685
C13	C	-3.803431	-0.383733	-0.380171
C14	C	-3.865857	-0.524116	-0.379135
C15	C	-4.066459	-0.592744	-0.384590
C16	C	-4.130983	-0.737838	-0.383519
C17	C	-3.726583	-0.158654	-0.599932
C18	C	-3.740150	-0.155939	-0.738607
C19	C	-3.918927	-0.160645	-0.806469
C20	C	-3.932953	-0.157838	-0.949797
C21	C	-4.069231	0.065240	-0.376097
C22	C	-3.986042	0.205622	-0.377141
C23	C	-4.146079	-0.159836	-0.156333
C24	C	-4.111750	-0.162545	-0.017657
H25	H	-4.302830	-0.796830	-0.388175
O26	O	-3.762558	-0.150325	-1.006963
C27	C	-3.597915	-0.037508	-0.954387
H28	H	-3.665115	0.034796	-0.910358
H29	H	-3.488537	-0.059896	-0.878710
C30	C	-3.392507	-0.070510	-1.112736
C31	C	-3.475045	0.018300	-1.058668
H32	H	-3.316707	-0.036086	-1.177059
H33	H	-3.503426	-0.146519	-1.148156
H34	H	-3.301371	-0.089158	-1.049661
H35	H	-3.566198	0.036935	-1.121740
H36	H	-3.364138	0.094314	-1.023262
O37	O	-3.781053	-0.723858	-0.371406
C38	C	-3.717539	-0.631363	-0.263042
H39	H	-3.860414	-0.611968	-0.232408
H40	H	-3.637101	-0.667900	-0.183588
C41	C	-3.388334	-0.530993	-0.331008
C42	C	-3.563814	-0.507163	-0.293388
H43	H	-3.293502	-0.454381	-0.349723
H44	H	-3.431120	-0.593310	-0.404013
H45	H	-3.321328	-0.561443	-0.264790
H46	H	-3.630831	-0.476729	-0.359612
H47	H	-3.521035	-0.444837	-0.220395
H48	H	-4.190433	-0.544082	-0.390059
H49	H	-3.741886	-0.572780	-0.373680
H50	H	-4.061596	-0.166743	-0.758458
H51	H	-4.254440	-0.168657	-0.969655
H52	H	-3.597473	-0.149823	-0.786615
