data_functionalizedCrystal
_audit_creation_method	'MofGen! by Chris Wilmer'
_symmetry_space_group_name_H-M	'P1'
_symmetry_Int_Tables_number	1
_symmetry_cell_setting	triclinic
loop_
_symmetry_equiv_pos_as_xyz
  x,y,z
_cell_length_a	27.732048
_cell_length_b	13.339070
_cell_length_c	12.376457
_cell_angle_alpha	75.578880
_cell_angle_beta	101.174161
_cell_angle_gamma	99.135974
loop_
_atom_site_label
_atom_site_type_symbol
_atom_site_fract_x
_atom_site_fract_y
_atom_site_fract_z
O1	O	0.248454	1.318943	0.094097
O2	O	0.216713	1.024915	0.094084
O3	O	0.163443	1.181065	0.094070
O4	O	0.301724	1.162793	0.094112
O5	O	0.150176	1.220133	-0.093946
O6	O	0.203447	1.063983	-0.093931
O7	O	0.235187	1.358011	-0.093918
Zn8	Zn	0.217211	1.217200	-0.123776
Zn9	Zn	0.234690	1.165726	0.123942
O10	O	0.288458	1.201861	-0.093904
C11	C	0.138750	1.200217	0.000059
C12	C	0.084935	1.199064	0.000049
C13	C	0.204718	1.006844	0.000074
C14	C	0.188737	0.894793	0.000068
C15	C	0.313003	0.528046	0.000124
C16	C	0.328020	0.633322	0.000133
C17	C	0.293200	0.698695	0.000117
C18	C	0.243361	0.658782	0.000092
C19	C	0.228343	0.553493	0.000092
C20	C	0.208540	0.724142	0.000084
C21	C	0.158701	0.684229	0.000059
C22	C	0.143685	0.578951	0.000058
C23	C	0.178505	0.513578	0.000075
C24	C	0.223559	0.829431	0.000084
C25	C	0.138899	0.854878	0.000052
C26	C	0.123881	0.749602	0.000042
C27	C	-0.242171	1.284056	0.000111
C28	C	-0.444420	1.279770	0.000127
O29	O	-0.464969	1.357490	0.000180
N30	N	-0.476292	1.187182	0.000122
C31	C	-0.457600	1.095658	0.000120
O32	O	-0.489349	1.016805	0.000127
C33	C	-0.255352	1.099944	0.000112
C34	C	-0.223482	1.192540	0.000106
C35	C	-0.210302	1.376645	0.000106
C36	C	-0.159743	1.377717	0.000096
C37	C	-0.141054	1.286200	0.000091
C38	C	-0.172924	1.193612	0.000096
C39	C	-0.236660	1.008419	0.000119
C40	C	-0.186094	1.009498	0.000120
C41	C	-0.154224	1.102094	0.000114
C42	C	-0.103676	1.103167	0.000081
N43	N	-0.071803	1.195755	0.000086
C44	C	-0.090492	1.287272	0.000091
C45	C	-0.563783	1.093415	0.000122
C46	C	-0.614345	1.092343	0.000121
C47	C	-0.601161	1.276455	0.000130
C48	C	-0.550598	1.277527	0.000122
C49	C	-0.531910	1.186002	0.000127
C50	C	0.015684	1.289516	0.000069
C51	C	0.066246	1.290581	0.000054
C52	C	0.053058	1.106468	0.000051
C53	C	0.002500	1.105404	0.000060
C54	C	-0.016185	1.196935	0.000073
O55	O	-0.083092	1.025486	0.000041
O56	O	-0.058733	1.366107	0.000109
C57	C	-0.292730	1.282985	0.000121
C58	C	-0.324599	1.190396	0.000126
C59	C	-0.305910	1.098880	0.000121
C60	C	-0.375161	1.189325	0.000126
C61	C	-0.393850	1.280841	0.000131
C62	C	-0.361977	1.373429	0.000136
C63	C	-0.311419	1.374501	0.000126
C64	C	-0.337783	1.006292	0.000116
C65	C	-0.388341	1.005227	0.000125
C66	C	-0.407030	1.096744	0.000130
C67	C	0.313151	1.182709	0.000110
C68	C	0.366966	1.183860	0.000126
C69	C	0.247183	1.376082	0.000094
C70	C	0.263165	1.488131	0.000107
N71	N	0.246616	1.130597	0.293004
N72	N	0.205282	1.252337	-0.292838
C73	C	0.177606	1.333910	0.647970
C74	C	0.169265	1.358501	0.529628
C75	C	0.188602	1.301528	0.470466
C76	C	0.216282	1.219958	0.529658
C77	C	0.224620	1.195358	0.648012
C78	C	0.235616	1.162976	0.470508
C79	C	0.263296	1.081406	0.529700
C80	C	0.271634	1.056812	0.648042
C81	C	0.252296	1.113785	0.707204
C82	C	0.227278	1.187576	0.352154
C83	C	0.274292	1.049024	0.352196
C84	C	0.282633	1.024433	0.470538
H85	H	0.264138	0.861918	0.000100
Br86	Br	0.131700	1.469194	0.449297
H87	H	-0.023452	1.030011	0.000034
Br88	Br	-0.160734	0.885277	0.000131
H89	H	0.000477	1.364049	0.000084
Br90	Br	-0.116497	1.503383	0.000120
H91	H	0.161861	1.380285	0.696147
Br92	Br	-0.431588	0.879551	0.000124
Br93	Br	0.300533	0.971691	0.271913
H94	H	0.181809	1.321554	0.374107
Br95	Br	0.395657	0.687483	0.000176
H96	H	0.110546	0.908104	0.000043
Br97	Br	0.263622	1.080415	0.867818
Br98	Br	0.309189	0.946096	0.728377
H99	H	0.305170	0.958016	0.518747
Br100	Br	0.313582	0.841572	0.000128
Br101	Br	0.158125	0.370698	0.000056
Br102	Br	0.189713	1.298272	0.271837
Br103	Br	0.360254	0.439320	0.000171
H104	H	0.083302	0.717087	0.000031
Br105	Br	0.076049	0.524775	0.000070
H106	H	-0.616386	1.350972	0.000134
H107	H	0.092193	1.365988	0.000046
H108	H	-0.225512	1.451172	0.000114
H109	H	-0.640291	1.016946	0.000107
Br110	Br	-0.507352	1.403198	0.000112
Br111	Br	-0.538428	0.969189	0.000130
Br112	Br	-0.279899	0.882743	0.000132
Br113	Br	0.078432	0.982273	0.000044
H114	H	-0.285474	1.449902	0.000122
Br115	Br	-0.387352	1.497631	0.000134
H116	H	-0.322572	0.931765	0.000114
