data_functionalizedCrystal
_audit_creation_method	'MofGen! by Chris Wilmer'
_symmetry_space_group_name_H-M	'P1'
_symmetry_Int_Tables_number	1
_symmetry_cell_setting	triclinic
loop_
_symmetry_equiv_pos_as_xyz
  x,y,z
_cell_length_a	16.120490
_cell_length_b	18.050590
_cell_length_c	16.120297
_cell_angle_alpha	92.871020
_cell_angle_beta	90.129683
_cell_angle_gamma	87.110849
loop_
_atom_site_label
_atom_site_type_symbol
_atom_site_fract_x
_atom_site_fract_y
_atom_site_fract_z
Zn1	Zn	1.247484	-0.376310	-0.534523
Zn2	Zn	1.747484	0.123690	-0.034523
Zn3	Zn	1.254446	-0.494536	-0.395461
Zn4	Zn	1.754446	0.005464	0.104539
Zn5	Zn	1.115472	-0.363754	-0.388444
Zn6	Zn	1.615472	0.136246	0.111556
Zn7	Zn	1.108402	-0.493845	-0.527434
Zn8	Zn	1.608402	0.006155	-0.027434
O9	O	1.181451	-0.432111	-0.461466
O10	O	1.681451	0.067889	0.038534
O11	O	1.364775	-0.397537	-0.521979
O12	O	1.864775	0.102463	-0.021979
O13	O	1.241884	-0.472222	-0.278165
O14	O	1.741884	0.027778	0.221835
O15	O	1.133029	-0.261498	-0.407852
O16	O	1.633029	0.238502	0.092148
O17	O	1.369890	-0.484397	-0.419811
O18	O	1.869890	0.015603	0.080189
O19	O	1.230018	-0.270723	-0.515175
O20	O	1.730018	0.229277	-0.015175
O21	O	1.139780	-0.376137	-0.273010
O22	O	1.639780	0.123863	0.226990
O23	O	0.998167	-0.375467	-0.400978
O24	O	1.498167	0.124533	0.099022
O25	O	1.120979	-0.483219	-0.644740
O26	O	1.620979	0.016781	-0.144740
O27	O	0.992972	-0.471044	-0.503094
O28	O	1.492972	0.028956	-0.003094
O29	O	1.223162	-0.396867	-0.649948
O30	O	1.723162	0.103133	-0.149948
O31	O	1.235028	-0.598365	-0.412938
O32	O	1.735028	-0.098365	0.087062
O33	O	1.127730	-0.597857	-0.509898
O34	O	1.627730	-0.097857	-0.009898
C35	C	0.965397	-0.421819	-0.450506
C36	C	1.465397	0.078181	0.049494
C37	C	0.872967	-0.417434	-0.445837
C38	C	1.372967	0.082566	0.054163
C39	C	0.660009	-0.454848	-0.485686
C40	C	1.160009	0.045152	0.014314
C41	C	0.703741	-0.409436	-0.437312
C42	C	1.203741	0.090564	0.062688
C43	C	0.797907	-0.413887	-0.442057
C44	C	1.297907	0.086113	0.057943
C45	C	0.565834	-0.450398	-0.480942
C46	C	1.065834	0.049602	0.019058
C47	C	1.181389	-0.625059	-0.461429
C48	C	1.681389	-0.125059	0.038571
C49	C	1.181437	-0.707607	-0.461445
C50	C	1.681437	-0.207607	0.038555
C51	C	1.239897	-0.907316	-0.408802
C52	C	1.739897	-0.407316	0.091198
C53	C	1.256363	-0.960870	-0.485723
C54	C	1.756363	-0.460870	0.014277
C55	C	1.181483	-0.858741	-0.461481
C56	C	1.681483	-0.358741	0.038519
C57	C	1.165100	-0.952274	-0.384598
C58	C	1.665100	-0.452274	0.115402
C59	C	1.181528	-1.004730	-0.461509
C60	C	1.681528	-0.504730	0.038491
C61	C	1.197985	-0.911212	-0.538444
C62	C	1.697985	-0.411212	-0.038444
C63	C	1.106690	-0.902608	-0.437266
C64	C	1.606690	-0.402608	0.062734
C65	C	1.123123	-0.956141	-0.514238
C66	C	1.623123	-0.456141	-0.014238
C67	C	1.181458	-0.774641	-0.461464
C68	C	1.681458	-0.274641	0.038536
C69	C	1.181552	-1.088829	-0.461534
C70	C	1.681552	-0.588829	0.038466
C71	C	1.398349	-0.442444	-0.472469
C72	C	1.898349	0.057556	0.027531
C73	C	1.490778	-0.446848	-0.477158
C74	C	1.990778	0.053152	0.022842
C75	C	1.170505	-0.441366	-0.678360
C76	C	1.670505	0.058634	-0.178360
C77	C	1.165840	-0.445310	-0.770787
C78	C	1.665840	0.054690	-0.270787
C79	C	1.181535	-0.238412	-0.461522
C80	C	1.681535	0.261588	0.038478
C81	C	1.181571	-0.155869	-0.461545
C82	C	1.681571	0.344131	0.038455
C83	C	1.157293	-0.452493	-0.940012
C84	C	1.657293	0.047507	-0.440012
C85	C	1.205773	-0.411514	-0.983780
C86	C	1.705773	0.088486	-0.483780
C87	C	1.201017	-0.415511	-1.077942
C88	C	1.701017	0.084489	-0.577942
C89	C	1.162048	-0.448497	-0.845841
C90	C	1.662048	0.051503	-0.345841
C91	C	1.192403	-0.422840	-0.245418
C92	C	1.692403	0.077160	0.254582
C93	C	1.197229	-0.418695	-0.152999
C94	C	1.697229	0.081305	0.347001
H95	H	0.670461	-0.367214	-0.392334
H96	H	1.170461	0.132786	0.107666
O97	O	1.097585	-0.502938	-0.984043
O98	O	1.597585	-0.002938	-0.484043
H99	H	1.132832	-0.544141	-1.025501
H100	H	1.632832	-0.044141	-0.525501
H101	H	1.211794	-0.893126	-0.603527
H102	H	1.711794	-0.393126	-0.103527
H103	H	0.693287	-0.497067	-0.530659
H104	H	1.193287	0.002933	-0.030659
H105	H	1.073741	-0.977452	-0.558853
H106	H	1.573741	-0.477452	-0.058853
H107	H	1.250849	-0.373429	-0.950532
H108	H	1.750849	0.126571	-0.450532
H109	H	1.319633	-0.986316	-0.506222
H110	H	1.819633	-0.486316	-0.006222
O111	O	1.305342	-0.878901	-0.349856
O112	O	1.805342	-0.378901	0.150144
H113	H	1.367388	-0.902369	-0.370170
H114	H	1.867388	-0.402369	0.129830
H115	H	1.043439	-0.877146	-0.416746
H116	H	1.543439	-0.377146	0.083254
O117	O	1.146706	-0.976348	-0.298460
O118	O	1.646706	-0.476348	0.201540
H119	H	1.195261	-0.956802	-0.254845
H120	H	1.695261	-0.456802	0.245155
