data_functionalizedCrystal
_audit_creation_method	'MofGen! by Chris Wilmer'
_symmetry_space_group_name_H-M	'P1'
_symmetry_Int_Tables_number	1
_symmetry_cell_setting	triclinic
loop_
_symmetry_equiv_pos_as_xyz
  x,y,z
_cell_length_a	18.215407
_cell_length_b	18.050590
_cell_length_c	18.215399
_cell_angle_alpha	90.028735
_cell_angle_beta	90.016899
_cell_angle_gamma	90.016012
loop_
_atom_site_label
_atom_site_type_symbol
_atom_site_fract_x
_atom_site_fract_y
_atom_site_fract_z
Zn1	Zn	1.125104	-0.295717	0.416054
Zn2	Zn	1.125026	-0.419912	0.292986
Zn3	Zn	1.002037	-0.295735	0.293008
Zn4	Zn	1.002016	-0.419865	0.416017
O5	O	1.063546	-0.357807	0.354516
O6	O	1.228078	-0.312205	0.399735
O7	O	1.108687	-0.403468	0.190005
O8	O	1.018403	-0.191808	0.309355
O9	O	1.228021	-0.403450	0.309318
O10	O	1.108820	-0.191795	0.399756
O11	O	1.018328	-0.312235	0.190021
O12	O	0.899050	-0.312189	0.309319
O13	O	1.018368	-0.403369	0.519007
O14	O	0.899035	-0.403386	0.399694
O15	O	1.108800	-0.312158	0.519034
O16	O	1.108668	-0.523831	0.309282
O17	O	1.018293	-0.523796	0.399673
C18	C	0.872340	-0.357785	0.354505
C19	C	0.790541	-0.357793	0.354518
C20	C	1.063489	-0.550760	0.354487
C21	C	1.063532	-0.633305	0.354499
C22	C	0.525495	-0.405372	0.401510
C23	C	0.602353	-0.405365	0.401506
C24	C	0.602339	-0.310260	0.307536
C25	C	0.525481	-0.310270	0.307536
C26	C	0.487061	-0.357825	0.354527
C27	C	0.640777	-0.357808	0.354524
C28	C	0.724111	-0.357801	0.354519
C29	C	0.403722	-0.357834	0.354531
C30	C	1.112781	-0.832748	0.305413
C31	C	1.130758	-0.882081	0.372579
C32	C	1.063574	-0.784436	0.354529
C33	C	1.045672	-0.882184	0.287393
C34	C	1.063616	-0.930421	0.354551
C35	C	1.081586	-0.832681	0.421730
C36	C	0.996469	-0.832780	0.336498
C37	C	1.014421	-0.882091	0.403710
C38	C	1.063552	-0.700337	0.354515
C39	C	1.063638	-1.014517	0.354572
C40	C	1.255499	-0.357831	0.354528
C41	C	1.337298	-0.357841	0.354533
C42	C	1.063591	-0.357756	0.546469
C43	C	1.063610	-0.357734	0.628268
C44	C	1.063623	-0.164102	0.354562
C45	C	1.063656	-0.081556	0.354581
C46	C	1.063544	-0.357805	0.163310
C47	C	1.063667	-0.357617	0.081512
C48	C	1.110715	-0.310197	0.816478
C49	C	1.110724	-0.310175	0.893336
C50	C	1.016557	-0.405157	0.893297
C51	C	1.016545	-0.405175	0.816440
C52	C	1.063628	-0.357695	0.778032
C53	C	1.063649	-0.357656	0.931748
C54	C	1.063658	-0.357633	1.015082
C55	C	1.063618	-0.357717	0.694693
H56	H	0.494215	-0.444094	0.439773
H57	H	0.939718	-0.811107	0.321213
H58	H	0.494188	-0.271551	0.269274
H59	H	1.030513	-0.903928	0.230608
C60	C	1.162499	-0.257965	0.774228
C61	C	1.214289	-0.205714	0.816522
C62	C	1.266073	-0.153479	0.774275
C63	C	1.266065	-0.153494	0.689735
C64	C	1.214272	-0.205748	0.647437
C65	C	1.162489	-0.257983	0.689683
H66	H	1.214297	-0.205700	0.879107
H67	H	1.304413	-0.114797	0.805587
H68	H	1.304398	-0.114827	0.658461
H69	H	1.214265	-0.205761	0.584851
H70	H	1.124149	-0.296664	0.658371
H71	H	0.633629	-0.271541	0.269278
H72	H	1.154407	-0.811082	0.263921
C73	C	0.644630	-0.457665	0.453191
C74	C	0.602367	-0.509971	0.504877
C75	C	0.644643	-0.562273	0.556563
C76	C	0.729183	-0.562270	0.556564
C77	C	0.771451	-0.509961	0.504876
C78	C	0.729175	-0.457659	0.453190
H79	H	0.539781	-0.509976	0.504878
H80	H	0.613353	-0.600995	0.594825
H81	H	0.760479	-0.600987	0.594825
H82	H	0.834037	-0.509957	0.504875
H83	H	0.760465	-0.418937	0.414927
C84	C	1.207444	-0.911342	0.393206
C85	C	1.274263	-0.891859	0.345172
C86	C	1.350951	-0.921114	0.365794
C87	C	1.360819	-0.969852	0.434452
C88	C	1.293998	-0.989337	0.482491
C89	C	1.217310	-0.960082	0.461868
H90	H	1.266960	-0.855778	0.294343
H91	H	1.400417	-0.906689	0.330232
H92	H	1.417588	-0.991508	0.449718
H93	H	1.301301	-1.025418	0.533319
H94	H	1.167844	-0.974507	0.497430
H95	H	1.096688	-0.811030	0.478564
C96	C	1.162522	-0.257927	0.935626
C97	C	1.246180	-0.264000	0.925071
C98	C	1.297979	-0.211748	0.967360
C99	C	1.266121	-0.153422	1.020203
C100	C	1.182459	-0.147346	1.030761
C101	C	1.130659	-0.199598	0.988472
H102	H	1.269767	-0.307179	0.885950
H103	H	1.359912	-0.216247	0.959544
H104	H	1.304466	-0.114742	1.051508
H105	H	1.158872	-0.104167	1.069881
H106	H	1.068727	-0.195100	0.996288
H107	H	0.978225	-0.443815	0.924578
C108	C	0.958229	-0.911184	0.459894
C109	C	0.966467	-0.891443	0.541739
C110	C	0.910280	-0.920538	0.597924
C111	C	0.845855	-0.969374	0.572265
C112	C	0.837614	-0.989117	0.490416
C113	C	0.893801	-0.960022	0.434231
H114	H	1.014161	-0.855290	0.560737
H115	H	0.916381	-0.905922	0.658514
H116	H	0.804262	-0.990911	0.613857
H117	H	0.789920	-1.025270	0.471418
H118	H	0.887700	-0.974638	0.373641
C119	C	0.964747	-0.457427	0.774143
C120	C	0.912964	-0.509659	0.816387
C121	C	0.861166	-0.561907	0.774090
C122	C	0.861151	-0.561923	0.689550
C123	C	0.912936	-0.509689	0.647302
C124	C	0.964734	-0.457441	0.689599
H125	H	0.912973	-0.509650	0.878973
H126	H	0.822831	-0.600574	0.805366
H127	H	0.822808	-0.600599	0.658240
H128	H	0.912927	-0.509698	0.584716
H129	H	1.003069	-0.418774	0.658323
