data_functionalizedCrystal
_audit_creation_method	'MofGen! by Chris Wilmer'
_symmetry_space_group_name_H-M	'P1'
_symmetry_Int_Tables_number	1
_symmetry_cell_setting	triclinic
loop_
_symmetry_equiv_pos_as_xyz
  x,y,z
_cell_length_a	17.640112
_cell_length_b	12.645330
_cell_length_c	17.637815
_cell_angle_alpha	101.180572
_cell_angle_beta	70.395660
_cell_angle_gamma	78.749979
loop_
_atom_site_label
_atom_site_type_symbol
_atom_site_fract_x
_atom_site_fract_y
_atom_site_fract_z
Zn1	Zn	1.165501	0.163080	0.211672
Zn2	Zn	1.193273	0.295476	0.073908
Zn3	Zn	1.055575	0.163138	0.101704
Zn4	Zn	1.027662	0.385250	0.239464
O5	O	1.110503	0.251736	0.156687
O6	O	1.284497	0.143047	0.170133
O7	O	1.198311	0.240375	-0.037713
O8	O	1.070215	0.014768	0.116293
O9	O	1.304901	0.240319	0.068918
O10	O	1.150977	0.014725	0.197086
O11	O	1.097145	0.143147	-0.017291
O12	O	0.936559	0.230197	0.143242
O13	O	1.022643	0.393324	0.351085
O14	O	0.916052	0.393381	0.244454
O15	O	1.123912	0.230097	0.330666
O16	O	1.171246	0.455748	0.095867
O17	O	1.049572	0.521704	0.217501
C18	C	0.896406	0.321538	0.199881
C19	C	0.804811	0.351432	0.218379
C20	C	1.110412	0.527193	0.156697
C21	C	1.110444	0.645019	0.156714
C22	C	0.556755	0.024622	0.016166
C23	C	0.470685	0.052737	0.033559
C24	C	0.449422	0.222788	0.138769
C25	C	0.535491	0.194685	0.121388
C26	C	0.589151	0.095601	0.060085
C27	C	0.567888	0.265664	0.165306
C28	C	0.653950	0.237566	0.147923
C29	C	0.707616	0.138488	0.086621
C30	C	0.675214	0.067503	0.042702
C31	C	0.514227	0.364751	0.226605
C32	C	0.546623	0.435730	0.270524
C33	C	0.632686	0.407628	0.253145
C34	C	0.686352	0.308551	0.191843
C35	C	0.665089	0.478613	0.297065
C36	C	0.751151	0.450515	0.279682
C37	C	0.772415	0.280453	0.174460
C38	C	1.034102	0.854106	0.233383
C39	C	1.033834	0.731580	0.233239
C40	C	1.104503	0.668966	0.074617
C41	C	1.104023	0.791822	0.075087
C42	C	1.193212	0.790907	0.161373
C43	C	1.192307	0.669088	0.163376
C44	C	1.325435	0.181662	0.113325
C45	C	1.417026	0.151801	0.094847
C46	C	1.067066	0.321718	0.371609
C47	C	1.048556	0.351540	0.463197
C48	C	1.110582	0.975212	0.156699
C49	C	1.110541	0.857401	0.156727
C50	C	1.153818	0.181934	-0.057409
C51	C	1.172488	0.151761	-0.149028
C52	C	1.251302	0.024731	0.711261
C53	C	1.233899	0.052781	0.797323
C54	C	1.128457	0.222735	0.818573
C55	C	1.145853	0.194703	0.732510
C56	C	1.207276	0.095699	0.678861
C57	C	1.101827	0.265670	0.700110
C58	C	1.119220	0.237636	0.614056
C59	C	1.180638	0.138635	0.560402
C60	C	1.224668	0.067665	0.592806
C61	C	1.040401	0.364669	0.753762
C62	C	0.996375	0.435637	0.721362
C63	C	1.013771	0.407608	0.635305
C64	C	1.075189	0.308607	0.581651
C65	C	0.969741	0.478578	0.602901
C66	C	0.987133	0.450544	0.516846
C67	C	1.092581	0.280573	0.495597
H68	H	0.816106	0.199757	0.124553
C69	C	1.269857	0.788743	0.085661
N70	N	1.327580	0.787121	0.028635
C71	C	1.023085	0.850365	0.067015
N72	N	0.962119	0.894456	0.060938
C73	C	1.178386	0.588302	-0.003614
N74	N	1.234035	0.527542	-0.062537
H75	H	0.600446	-0.056073	-0.033741
C76	C	0.419555	0.395657	0.245725
N77	N	0.348248	0.418933	0.260128
H78	H	0.502922	0.516406	0.320434
H79	H	0.777693	0.115614	0.072468
C80	C	1.160155	0.171668	0.436576
N81	N	1.211048	0.089644	0.392122
H82	H	0.444311	-0.005076	-0.002204
C83	C	0.951317	0.917725	0.231238
N84	N	0.888964	0.965638	0.229617
H85	H	0.972198	0.718616	0.231546
H86	H	0.718905	-0.013193	-0.007205
H87	H	1.269750	-0.005021	0.823699
C88	C	1.177251	0.790725	-0.003432
N89	N	1.232402	0.789895	-0.062575
H90	H	1.045333	0.652664	0.068161
H91	H	0.919725	0.559181	0.646595
C92	C	0.606052	0.587606	0.364491
N93	N	0.561586	0.669700	0.415279
H94	H	0.777528	0.508313	0.315446
C95	C	0.938707	0.528616	0.481203
N96	N	0.902230	0.587422	0.454357
C97	C	1.205158	0.850544	0.239628
N98	N	1.214145	0.895466	0.298575
H99	H	1.197106	0.654994	0.223708
H100	H	0.405721	0.303464	0.188679
C101	C	1.271407	0.586740	0.091548
N102	N	1.330986	0.524716	0.037440
C103	C	1.036102	0.712725	0.316222
N104	N	1.037807	0.698531	0.378730
H105	H	1.194798	0.115813	0.490331
H106	H	1.301322	-0.055884	0.667575
H107	H	1.035599	0.899831	0.295048
C108	C	1.292241	-0.041240	0.533786
N109	N	1.343135	-0.123264	0.489332
C110	C	1.060888	0.331631	0.877597
N111	N	1.009993	0.413652	0.922054
C112	C	0.928806	0.544532	0.780387
N113	N	0.877912	0.626554	0.824844
H114	H	1.026235	0.387483	0.823834
