data_functionalizedCrystal
_audit_creation_method	'MofGen! by Chris Wilmer'
_symmetry_space_group_name_H-M	'P1'
_symmetry_Int_Tables_number	1
_symmetry_cell_setting	triclinic
loop_
_symmetry_equiv_pos_as_xyz
  x,y,z
_cell_length_a	13.897449
_cell_length_b	13.897448
_cell_length_c	12.759393
_cell_angle_alpha	89.966654
_cell_angle_beta	89.976808
_cell_angle_gamma	90.018519
loop_
_atom_site_label
_atom_site_type_symbol
_atom_site_fract_x
_atom_site_fract_y
_atom_site_fract_z
Zn1	Zn	1.474701	-0.383937	-0.594100
Zn2	Zn	1.808034	-0.050603	-0.260767
Zn3	Zn	2.141367	0.282730	0.072567
Zn4	Zn	1.474595	-0.545266	-0.418415
Zn5	Zn	1.807929	-0.211933	-0.085081
Zn6	Zn	2.141262	0.121401	0.248252
Zn7	Zn	1.313390	-0.383989	-0.418425
Zn8	Zn	1.646724	-0.050656	-0.085092
Zn9	Zn	1.980057	0.282678	0.248242
Zn10	Zn	1.313372	-0.545194	-0.594042
Zn11	Zn	1.646705	-0.211860	-0.260708
Zn12	Zn	1.980038	0.121473	0.072625
O13	O	1.394015	-0.464596	-0.506245
O14	O	1.727348	-0.131263	-0.172912
O15	O	2.060681	0.202070	0.160421
O16	O	1.609668	-0.405346	-0.570815
O17	O	1.943002	-0.072012	-0.237482
O18	O	2.276335	0.261321	0.095852
O19	O	1.453175	-0.523925	-0.271395
O20	O	1.786508	-0.190591	0.061938
O21	O	2.119842	0.142742	0.395272
O22	O	1.334841	-0.249000	-0.441757
O23	O	1.668174	0.084333	-0.108424
O24	O	2.001507	0.417666	0.224909
O25	O	1.609591	-0.523874	-0.441740
O26	O	1.942924	-0.190540	-0.108406
O27	O	2.276258	0.142793	0.224927
O28	O	1.453355	-0.248962	-0.570825
O29	O	1.786688	0.084371	-0.237492
O30	O	2.120021	0.417705	0.095842
O31	O	1.334738	-0.405435	-0.271402
O32	O	1.668072	-0.072102	0.061931
O33	O	2.001405	0.261232	0.395264
O34	O	1.178406	-0.405365	-0.441701
O35	O	1.511740	-0.072032	-0.108368
O36	O	1.845073	0.261302	0.224966
O37	O	1.334808	-0.523750	-0.741071
O38	O	1.668142	-0.190417	-0.407737
O39	O	2.001475	0.142916	-0.074404
O40	O	1.178392	-0.523801	-0.570726
O41	O	1.511726	-0.190468	-0.237392
O42	O	1.845059	0.142865	0.095941
O43	O	1.453336	-0.405276	-0.741113
O44	O	1.786670	-0.071942	-0.407780
O45	O	2.120003	0.261391	-0.074447
O46	O	1.453157	-0.680238	-0.441683
O47	O	1.786490	-0.346905	-0.108350
O48	O	2.119823	-0.013571	0.224983
O49	O	1.334706	-0.680185	-0.570716
O50	O	1.668040	-0.346852	-0.237382
O51	O	2.001373	-0.013518	0.095951
C52	C	1.143400	-0.464582	-0.506209
C53	C	1.476733	-0.131248	-0.172875
C54	C	1.810067	0.202085	0.160458
C55	C	1.036186	-0.464598	-0.506218
C56	C	1.369520	-0.131265	-0.172885
C57	C	1.702853	0.202068	0.160449
C58	C	0.949116	-0.464602	-0.506235
C59	C	1.282450	-0.131268	-0.172902
C60	C	1.615783	0.202065	0.160431
C61	C	0.839884	-0.464608	-0.506267
C62	C	1.173217	-0.131275	-0.172934
C63	C	1.506551	0.202058	0.160399
C64	C	1.393944	-0.715211	-0.506215
C65	C	1.727277	-0.381877	-0.172882
C66	C	2.060611	-0.048544	0.160452
C67	C	1.394002	-0.822425	-0.506237
C68	C	1.727336	-0.489091	-0.172904
C69	C	2.060669	-0.155758	0.160430
C70	C	1.394104	-1.018720	-0.506303
C71	C	1.727437	-0.685386	-0.172970
C72	C	2.060770	-0.352053	0.160364
C73	C	1.394044	-0.909487	-0.506269
C74	C	1.727378	-0.576154	-0.172936
C75	C	2.060711	-0.242821	0.160397
C76	C	1.645607	-0.464612	-0.506283
C77	C	1.978941	-0.131279	-0.172949
C78	C	2.312274	0.202055	0.160384
C79	C	1.752821	-0.464619	-0.506299
C80	C	2.086155	-0.131285	-0.172965
C81	C	2.419488	0.202048	0.160368
C82	C	1.394082	-0.464499	-0.780279
C83	C	1.727415	-0.131166	-0.446945
C84	C	2.060749	0.202168	-0.113612
C85	C	1.394111	-0.464458	-0.897056
C86	C	1.727444	-0.131124	-0.563722
C87	C	2.060777	0.202209	-0.230389
C88	C	1.394111	-0.213003	-0.506299
C89	C	1.727445	0.120330	-0.172966
C90	C	2.060778	0.453663	0.160368
C91	C	1.394153	-0.105789	-0.506322
C92	C	1.727486	0.227544	-0.172988
C93	C	2.060819	0.560877	0.160345
C94	C	1.455837	-0.402762	-0.951942
C95	C	1.789170	-0.069429	-0.618608
C96	C	2.122503	0.263905	-0.285275
C97	C	1.455860	-0.402727	-1.061666
C98	C	1.789193	-0.069394	-0.728332
C99	C	2.122526	0.263940	-0.394999
C100	C	1.332428	-0.526092	-1.061608
C101	C	1.665761	-0.192759	-0.728275
C102	C	1.999095	0.140575	-0.394941
C103	C	1.332401	-0.526121	-0.951886
C104	C	1.665734	-0.192788	-0.618553
C105	C	1.999068	0.140545	-0.285219
C106	C	1.517547	-0.341098	-0.897111
C107	C	1.850880	-0.007765	-0.563778
C108	C	2.184213	0.325568	-0.230444
C109	C	1.579278	-0.279398	-0.951997
C110	C	1.912612	0.053935	-0.618664
C111	C	2.245945	0.387268	-0.285331
C112	C	1.579301	-0.279363	-1.061721
C113	C	1.912635	0.053970	-0.728388
C114	C	2.245968	0.387303	-0.395055
C115	C	1.517592	-0.341029	-1.116559
C116	C	1.850926	-0.007695	-0.783226
C117	C	2.184259	0.325638	-0.449893
C118	C	1.394003	-0.464624	-0.233278
C119	C	1.727336	-0.131290	0.100055
C120	C	2.060669	0.202043	0.433389
C121	C	1.394161	-0.464393	-0.116502
C122	C	1.727494	-0.131060	0.216831
C123	C	2.060827	0.202273	0.550165
H124	H	1.629513	-0.229187	-0.907341
H125	H	1.962847	0.104146	-0.574008
H126	H	2.296180	0.437480	-0.240674
H127	H	1.517605	-0.340984	-1.205904
H128	H	1.850938	-0.007651	-0.872571
H129	H	2.184272	0.325683	-0.539238
H130	H	1.282187	-0.576296	-1.106266
H131	H	1.615521	-0.242963	-0.772933
H132	H	1.948854	0.090370	-0.439599
H133	H	1.282123	-0.576344	-0.907197
H134	H	1.615457	-0.243011	-0.573863
H135	H	1.948790	0.090322	-0.240530
H136	H	1.517537	-0.341122	-0.807768
H137	H	1.850870	-0.007788	-0.474435
H138	H	2.184204	0.325545	-0.141102
H139	H	1.629559	-0.229117	-1.106407
H140	H	1.962892	0.104216	-0.773073
H141	H	2.296226	0.437549	-0.439740
