data_functionalizedCrystal
_audit_creation_method	'MofGen! by Chris Wilmer'
_symmetry_space_group_name_H-M	'P1'
_symmetry_Int_Tables_number	1
_symmetry_cell_setting	triclinic
loop_
_symmetry_equiv_pos_as_xyz
  x,y,z
_cell_length_a	15.995292
_cell_length_b	15.995292
_cell_length_c	15.186229
_cell_angle_alpha	89.999448
_cell_angle_beta	89.995469
_cell_angle_gamma	83.468616
loop_
_atom_site_label
_atom_site_type_symbol
_atom_site_fract_x
_atom_site_fract_y
_atom_site_fract_z
O1	O	1.110992	0.107697	-0.073246
O2	O	1.610992	0.607697	0.426754
O3	O	0.867207	0.121075	-0.073242
O4	O	1.367207	0.621075	0.426758
O5	O	0.995789	-0.007506	-0.073245
O6	O	1.495789	0.492494	0.426755
O7	O	0.982410	0.236278	-0.073243
O8	O	1.482410	0.736278	0.426757
O9	O	0.995781	-0.007508	0.073212
O10	O	1.495781	0.492492	0.573212
O11	O	0.867199	0.121074	0.073215
O12	O	1.367199	0.621074	0.573215
O13	O	1.110984	0.107695	0.073211
O14	O	1.610984	0.607695	0.573211
Zn15	Zn	0.989090	0.114384	0.096467
Zn16	Zn	1.489090	0.614384	0.596467
Zn17	Zn	0.989101	0.114386	-0.096497
Zn18	Zn	1.489101	0.614386	0.403503
O19	O	0.982402	0.236277	0.073215
O20	O	1.482402	0.736277	0.573215
C21	C	0.836008	0.120530	-0.000013
C22	C	1.336008	0.620530	0.499987
C23	C	0.743055	0.118898	-0.000011
C24	C	1.243055	0.618898	0.499989
C25	C	0.405318	0.112896	-0.000021
C26	C	0.905318	0.612896	0.499979
C27	C	0.428611	0.205703	-0.000347
C28	C	0.928611	0.705703	0.499653
C29	C	0.525286	0.207467	-0.000013
C30	C	1.025286	0.707467	0.499987
C31	C	0.572873	0.115874	-0.000017
C32	C	1.072873	0.615874	0.499983
C33	C	0.543776	0.069474	0.083614
C34	C	1.043776	0.569474	0.583614
C35	C	0.446986	0.068357	0.083680
C36	C	0.946986	0.568357	0.583680
C37	C	0.447141	0.066464	-0.082869
C38	C	0.947141	0.566464	0.417131
C39	C	0.543632	0.069903	-0.083971
C40	C	1.043632	0.569903	0.416029
C41	C	0.667569	0.117552	-0.000011
C42	C	1.167569	0.617552	0.499989
C43	C	0.310622	0.111215	-0.000021
C44	C	0.810622	0.611215	0.499979
C45	C	0.995240	-0.038703	-0.000019
C46	C	1.495240	0.461297	0.499981
C47	C	0.993608	-0.131655	-0.000026
C48	C	1.493608	0.368345	0.499974
C49	C	0.987607	-0.469393	-0.000017
C50	C	1.487607	0.030607	0.499983
C51	C	1.080413	-0.446100	0.000308
C52	C	1.580413	0.053900	0.500308
C53	C	1.082177	-0.349424	-0.000025
C54	C	1.582177	0.150576	0.499975
C55	C	0.990584	-0.301837	-0.000021
C56	C	1.490584	0.198163	0.499979
C57	C	0.944190	-0.330928	-0.083652
C58	C	1.444190	0.169072	0.416348
C59	C	0.943073	-0.427718	-0.083719
C60	C	1.443073	0.072282	0.416281
C61	C	0.941168	-0.427577	0.082831
C62	C	1.441168	0.072423	0.582831
C63	C	0.944607	-0.331085	0.083933
C64	C	1.444607	0.168915	0.583933
C65	C	0.992263	-0.207141	-0.000026
C66	C	1.492263	0.292859	0.499974
C67	C	0.985926	-0.564088	-0.000018
C68	C	1.485926	-0.064088	0.499982
C69	C	1.142183	0.108240	-0.000020
C70	C	1.642183	0.608240	0.499980
C71	C	1.235136	0.109873	-0.000027
C72	C	1.735136	0.609873	0.499973
C73	C	0.982951	0.267473	-0.000014
C74	C	1.482951	0.767473	0.499986
C75	C	0.984583	0.360426	-0.000013
C76	C	1.484583	0.860426	0.499987
N77	N	0.989088	0.114382	0.228159
N78	N	1.489088	0.614382	0.728159
N79	N	0.989109	0.114382	-0.228190
N80	N	1.489109	0.614382	0.271810
C81	C	1.046044	0.057465	0.453880
C82	C	1.546044	0.557465	0.953880
C83	C	1.046046	0.057463	0.546070
C84	C	1.546046	0.557463	1.046070
C85	C	0.932148	0.171301	0.546082
C86	C	1.432148	0.671301	1.046082
C87	C	0.932142	0.171299	0.453894
C88	C	1.432142	0.671299	0.953894
C89	C	0.989095	0.114381	0.407796
C90	C	1.489095	0.614381	0.907796
C91	C	0.989103	0.114382	0.592173
C92	C	1.489103	0.614382	1.092173
C93	C	0.989106	0.114380	0.692130
C94	C	1.489106	0.614380	1.192130
C95	C	0.989091	0.114382	0.307833
C96	C	1.489091	0.614382	0.807833
H97	H	0.543678	0.244023	0.060039
H98	H	1.043678	0.744023	0.560039
H99	H	0.885780	0.217643	0.583625
H100	H	1.385780	0.717643	1.083625
H101	H	0.544308	0.243801	-0.059965
H102	H	1.044308	0.743801	0.440035
Cl103	Cl	1.138614	-0.321013	-0.092750
Cl104	Cl	1.638614	0.178987	0.407250
Cl105	Cl	0.403415	0.111262	-0.180736
Cl106	Cl	0.903415	0.611262	0.319264
Cl107	Cl	0.835700	-0.449156	0.083708
Cl108	Cl	1.335700	0.050844	0.583708
Cl109	Cl	0.383792	0.260630	0.091729
Cl110	Cl	0.883792	0.760630	0.591729
H111	H	0.975211	-0.454540	-0.146237
H112	H	1.475211	0.045460	0.353763
Cl113	Cl	0.860539	0.242852	0.395954
Cl114	Cl	1.360539	0.742852	0.895954
H115	H	0.400611	0.241476	-0.060323
H116	H	0.900611	0.741476	0.439677
Cl117	Cl	0.594549	-0.033319	-0.091772
Cl118	Cl	1.094549	0.466681	0.408228
H119	H	0.970391	-0.455672	0.146223
H120	H	1.470391	0.044328	0.646223
Cl121	Cl	1.117638	-0.014091	0.395932
Cl122	Cl	1.617638	0.485909	0.895932
H123	H	0.420158	0.100490	0.146198
H124	H	0.920158	0.600490	0.646198
H125	H	0.432449	0.000310	0.087477
H126	H	0.932449	0.500310	0.587477
Cl127	Cl	0.592989	-0.034591	0.088411
Cl128	Cl	1.092989	0.465409	0.588411
H129	H	0.978389	-0.312527	0.145802
H130	H	1.478389	0.187473	0.645802
H131	H	1.118512	-0.330408	0.059923
H132	H	1.618512	0.169592	0.559923
H133	H	0.875027	-0.442254	-0.087505
H134	H	1.375027	0.057746	0.412495
Cl135	Cl	0.841386	-0.280165	0.091737
Cl136	Cl	1.341386	0.219835	0.591737
Cl137	Cl	0.574725	0.119219	0.179711
Cl138	Cl	1.074725	0.619219	0.679711
H139	H	1.092418	0.011115	0.583590
H140	H	1.592418	0.511115	1.083590
Cl141	Cl	0.425564	-0.039005	-0.083745
Cl142	Cl	0.925564	0.460995	0.416255
Cl143	Cl	0.572335	0.122034	-0.179497
Cl144	Cl	1.072335	0.622034	0.320503
H145	H	1.116182	-0.474105	0.060283
H146	H	1.616182	0.025895	0.560283
H147	H	1.115990	-0.475124	-0.059332
H148	H	1.615990	0.024876	0.440668
Cl149	Cl	0.840131	-0.281702	-0.088457
Cl150	Cl	1.340131	0.218298	0.411543
Cl151	Cl	0.993943	-0.299972	-0.179749
Cl152	Cl	1.493943	0.200028	0.320251
