data_functionalizedCrystal
_audit_creation_method	'MofGen! by Chris Wilmer'
_symmetry_space_group_name_H-M	'P1'
_symmetry_Int_Tables_number	1
_symmetry_cell_setting	triclinic
loop_
_symmetry_equiv_pos_as_xyz
  x,y,z
_cell_length_a	10.654550
_cell_length_b	16.109301
_cell_length_c	15.186229
_cell_angle_alpha	90.005167
_cell_angle_beta	90.006884
_cell_angle_gamma	83.973192
loop_
_atom_site_label
_atom_site_type_symbol
_atom_site_fract_x
_atom_site_fract_y
_atom_site_fract_z
O1	O	-1.666255	-0.116773	-0.073304
O2	O	-1.300626	-0.127898	-0.073290
O3	O	-1.493485	-0.001364	-0.073289
O4	O	-1.473396	-0.243307	-0.073306
O5	O	-1.493472	-0.001362	0.073169
O6	O	-1.300613	-0.127896	0.073167
O7	O	-1.666242	-0.116771	0.073153
Zn8	Zn	-1.483426	-0.122333	0.096413
Zn9	Zn	-1.483443	-0.122336	-0.096550
O10	O	-1.473383	-0.243305	0.073152
C11	C	-1.253832	-0.127080	-0.000060
C12	C	-1.114422	-0.124636	-0.000054
C13	C	-1.492665	0.029616	-0.000059
C14	C	-1.490225	0.121926	-0.000058
C15	C	-1.713036	-0.117589	-0.000079
C16	C	-1.852446	-0.120033	-0.000091
C17	C	-1.033926	-0.199138	-0.000072
C18	C	-0.902936	-0.196836	-0.000087
C19	C	-0.932952	-0.045526	-0.000070
C20	C	-1.063939	-0.047828	-0.000048
C21	C	-1.084409	-0.275946	-0.000078
C22	C	-1.003911	-0.350453	-0.000097
C23	C	-0.872921	-0.348152	-0.000112
C24	C	-0.822430	-0.271343	-0.000108
C25	C	-1.474204	-0.274286	-0.000080
C26	C	-1.476643	-0.366595	-0.000087
N27	N	-1.483423	-0.122331	0.228106
C28	C	-1.598991	0.343552	-0.000076
C29	C	-1.596689	0.430286	-0.000083
C30	C	-1.367868	0.411772	-0.000071
C31	C	-1.370172	0.325040	-0.000070
C32	C	-1.485737	0.290932	-0.000068
C33	C	-1.481131	0.464399	-0.000076
C34	C	-1.478634	0.558440	-0.000084
C35	C	-1.488234	0.196885	-0.000062
N36	N	-1.483455	-0.122331	-0.228243
C37	C	-1.568850	-0.066321	0.453830
C38	C	-1.568854	-0.066319	0.546019
C39	C	-1.398019	-0.178344	0.546027
C40	C	-1.398010	-0.178341	0.453839
C41	C	-1.483433	-0.122331	0.407743
C42	C	-1.483445	-0.122332	0.592120
C43	C	-1.483449	-0.122330	0.692076
C44	C	-1.483428	-0.122331	0.307780
H45	H	-1.191065	-0.277828	-0.000070
H46	H	-1.129482	0.012837	-0.000036
Cl47	Cl	-1.290613	-0.248755	0.395895
H48	H	-1.045031	-0.412988	-0.000093
H49	H	-1.277941	0.282194	-0.000067
Cl50	Cl	-0.771728	-0.441816	-0.000128
Cl51	Cl	-1.739073	0.496434	-0.000095
H52	H	-1.273779	0.439553	-0.000071
H53	H	-0.715768	-0.269475	-0.000107
H54	H	-1.638407	-0.020710	0.583541
Cl55	Cl	-1.744272	0.300677	-0.000076
H56	H	-1.328471	-0.223948	0.583568
H57	H	-0.891831	0.017008	-0.000081
Cl58	Cl	-1.676234	0.004095	0.395884
