data_functionalizedCrystal
_audit_creation_method	'MofGen! by Chris Wilmer'
_symmetry_space_group_name_H-M	'P1'
_symmetry_Int_Tables_number	1
_symmetry_cell_setting	triclinic
loop_
_symmetry_equiv_pos_as_xyz
  x,y,z
_cell_length_a	31.640172
_cell_length_b	20.919309
_cell_length_c	20.919309
_cell_angle_alpha	89.826366
_cell_angle_beta	57.447816
_cell_angle_gamma	57.440394
loop_
_atom_site_label
_atom_site_type_symbol
_atom_site_fract_x
_atom_site_fract_y
_atom_site_fract_z
Zr1	Zr	0.432854	-0.061499	0.639363
O2	O	0.532428	-0.172362	0.528516
O3	O	0.341191	-0.027516	0.673330
O4	O	0.436809	-0.166722	0.667703
O5	O	0.430930	0.076654	0.538596
O6	O	0.430930	-0.162271	0.777512
O7	O	0.436809	-0.033156	0.534142
O8	O	0.259886	0.086744	0.787578
O9	O	0.601975	-0.172360	0.528531
O10	O	0.371575	-0.009698	0.769782
O11	O	0.371575	0.068930	0.691157
O12	O	0.484154	-0.094967	0.684532
O13	O	0.484154	-0.016339	0.605906
Zr14	Zr	0.414101	0.120734	0.821599
Zr15	Zr	0.423477	-0.054401	0.814496
Zr16	Zr	0.423477	0.113635	0.646466
Zr17	Zr	0.543772	-0.061496	0.639387
Zr18	Zr	0.303182	0.120731	0.821574
O19	O	0.505764	0.086750	0.787631
O20	O	0.519096	-0.162268	0.777532
O21	O	0.519096	0.076657	0.538615
O22	O	0.314526	0.231597	0.932446
O23	O	0.327859	-0.017422	0.922346
O24	O	0.327858	0.221503	0.683430
O25	O	0.416024	-0.017420	0.922365
O26	O	0.410145	0.225956	0.793258
O27	O	0.416024	0.221505	0.683449
O28	O	0.410145	0.092390	0.926819
O29	O	0.594522	-0.166718	0.667738
O30	O	0.252433	0.225952	0.793224
O31	O	0.244980	0.231595	0.932431
O32	O	0.252433	0.092386	0.926785
O33	O	0.594521	-0.033152	0.534177
O34	O	0.587069	-0.027509	0.673384
O35	O	0.362800	0.154202	0.776430
O36	O	0.362800	0.075573	0.855055
O37	O	0.475379	-0.009695	0.769805
O38	O	0.475379	0.068933	0.691179
C39	C	0.284735	0.029614	0.730451
C40	C	0.237647	0.029612	0.730440
C41	C	0.435205	0.020738	0.511417
C42	C	0.439186	0.017724	0.437068
C43	C	0.411749	0.248684	0.739366
C44	C	0.407768	0.323033	0.742381
C45	C	-0.054399	-0.011418	0.771539
C46	C	-0.231395	-0.011417	0.771556
O47	O	-0.254303	-0.046292	0.806492
N48	N	-0.253524	0.029625	0.730513
C49	C	-0.231405	0.070674	0.689468
O50	O	-0.254293	0.105589	0.654566
C51	C	-0.054413	0.070677	0.689457
C52	C	-0.032281	0.029626	0.730495
C53	C	-0.032268	-0.052465	0.812575
C54	C	0.011982	-0.052468	0.812567
C55	C	0.034100	-0.011425	0.771522
C56	C	0.011968	0.029622	0.730487
C57	C	-0.032297	0.111730	0.648417
C58	C	0.011952	0.111729	0.648419
C59	C	0.034084	0.070678	0.689458
C60	C	0.078336	0.070662	0.689434
N61	N	0.100465	0.029620	0.730477
C62	C	0.078347	-0.011423	0.771521
C63	C	-0.324327	0.070668	0.689475
C64	C	-0.368574	0.070666	0.689477
C65	C	-0.368563	-0.011423	0.771566
C66	C	-0.324311	-0.011426	0.771560
C67	C	-0.302198	0.029626	0.730518
C68	C	0.171274	-0.011428	0.771500
C69	C	0.215529	-0.011431	0.771485
C70	C	0.215511	0.070661	0.689399
C71	C	0.171262	0.070661	0.689410
C72	C	0.149143	0.029615	0.730466
O73	O	0.101265	0.105527	0.654524
O74	O	0.101232	-0.046318	0.806433
C75	C	-0.098648	-0.011414	0.771548
C76	C	-0.120779	0.029633	0.730512
C77	C	-0.098661	0.070677	0.689468
C78	C	-0.165026	0.029631	0.730513
C79	C	-0.187144	-0.011412	0.771557
C80	C	-0.165015	-0.052454	0.812600
C81	C	-0.120766	-0.052457	0.812592
C82	C	-0.120790	0.111718	0.648425
C83	C	-0.165039	0.111718	0.648436
C84	C	-0.187157	0.070674	0.689480
C85	C	0.562220	0.029621	0.730511
C86	C	0.609308	0.029622	0.730521
C87	C	0.435206	-0.189449	0.721596
C88	C	0.439186	-0.263798	0.718580
C89	C	0.464661	0.313455	0.699300
C90	C	0.460917	0.383317	0.702129
C91	C	0.400280	0.462755	0.748046
C92	C	0.343382	0.472332	0.791129
C93	C	0.347127	0.402471	0.788294
C94	C	0.386034	0.675917	0.758828
C95	C	0.382293	0.745780	0.761662
C96	C	0.499829	0.656759	0.672661
C97	C	0.503568	0.586901	0.669834
C98	C	0.446671	0.596483	0.712913
C99	C	0.396451	0.534166	0.750942
C100	C	0.450500	0.525073	0.710012
C101	C	0.382293	0.060814	0.446637
C102	C	0.386037	0.057980	0.376776
C103	C	0.446675	0.012052	0.297347
C104	C	0.503572	-0.031039	0.287780
C105	C	0.499827	-0.028200	0.357640
C106	C	0.460921	0.001258	0.084187
C107	C	0.464662	-0.001579	0.014325
C108	C	0.347126	0.087441	0.103326
C109	C	0.343387	0.090272	0.173183
C110	C	0.400284	0.047185	0.163611
C111	C	0.450503	0.009152	0.225936
C112	C	0.396454	0.050090	0.235021
C113	C	0.411749	0.038497	0.949545
C114	C	0.407768	0.041510	1.023893
C115	C	0.273006	0.038493	0.949515
C116	C	0.221938	0.041505	1.023853
C117	C	0.273006	0.248680	0.739335
C118	C	0.221937	0.323028	0.742341
C119	C	0.261278	0.257560	0.958400
C120	C	0.206229	0.334921	1.035753
C121	C	0.585677	-0.198325	0.502562
C122	C	0.640726	-0.275686	0.425208
C123	C	0.573948	0.020741	0.511447
C124	C	0.625016	0.017729	0.437109
C125	C	0.573948	-0.189445	0.721626
C126	C	0.625017	-0.263793	0.718621
C127	C	0.202537	-0.001598	1.014251
C128	C	0.154560	0.001216	1.084092
C129	C	0.125982	0.047138	1.163535
C130	C	0.145388	0.090243	1.173135
C131	C	0.193367	0.087424	1.103294
C132	C	0.193374	0.402461	0.788264
C133	C	0.145396	0.472325	0.791085
C134	C	0.125978	0.462755	0.747987
C135	C	0.154547	0.383314	0.702058
C136	C	0.202527	0.313451	0.699233
C137	C	0.180377	0.330208	1.113128
C138	C	0.128659	0.402891	1.185817
C139	C	0.102790	0.480286	1.181128
C140	C	0.128647	0.484997	1.103745
C141	C	0.180367	0.412315	1.031058
C142	C	0.666583	-0.270973	0.347833
C143	C	0.718315	-0.343656	0.275145
C144	C	0.744186	-0.421051	0.279833
C145	C	0.718326	-0.425763	0.357217
C146	C	0.666598	-0.353081	0.429903
C147	C	0.644423	0.060825	0.446710
C148	C	0.692413	0.057992	0.376868
C149	C	0.720993	0.012067	0.297426
C150	C	0.701584	-0.031034	0.287825
C151	C	0.653598	-0.028206	0.357666
C152	C	0.644419	-0.254197	0.761728
C153	C	0.692396	-0.324047	0.758921
C154	C	0.720974	-0.403494	0.713001
C155	C	0.701568	-0.413089	0.669892
C156	C	0.653588	-0.343239	0.672705
H157	H	0.233548	-0.044863	0.804902
C158	C	0.523505	-0.046147	0.073657
C159	C	0.534015	0.001184	0.111775
C160	C	0.596602	-0.046226	0.101249
C161	C	0.648677	-0.140968	0.052604
C162	C	0.638168	-0.188305	0.014482
C163	C	0.575582	-0.140894	0.025009
H164	H	0.495464	0.071323	0.147788
H165	H	0.604381	-0.011184	0.129469
H166	H	0.695007	-0.176064	0.044811
H167	H	0.676719	-0.258443	-0.021530
H168	H	0.567803	-0.175936	-0.003211
H169	H	0.086909	0.519649	0.750294
H170	H	0.107577	0.548022	1.099940
H171	H	0.724843	-0.477783	0.632505
H172	H	0.347080	0.598853	0.788330
H173	H	0.122141	0.537003	0.828488
H174	H	0.339708	0.093069	0.384574
H175	H	0.739361	-0.339804	0.212144
H176	H	0.708190	-0.316218	0.794024
H177	H	0.546152	0.648967	0.637587
C178	C	0.638133	-0.185845	0.342661
C179	C	0.581233	-0.105886	0.422602
C180	C	0.552788	-0.020760	0.417422
C181	C	0.581243	-0.015594	0.332301
C182	C	0.638146	-0.095555	0.252354
C183	C	0.666591	-0.180681	0.257534
H184	H	0.560166	-0.109708	0.485619
H185	H	0.510664	0.038433	0.476604
H186	H	0.560187	0.047421	0.328466
H187	H	0.659214	-0.091733	0.189337
H188	H	0.708715	-0.239874	0.198352
C189	C	0.773756	-0.480325	0.709906
C190	C	0.795096	-0.469759	0.757322
C191	C	0.847880	-0.546586	0.754227
C192	C	0.879323	-0.633980	0.703717
C193	C	0.857982	-0.644550	0.656297
C194	C	0.805199	-0.567722	0.659391
H195	H	0.771820	-0.405061	0.794716
H196	H	0.863677	-0.538761	0.789331
H197	H	0.918396	-0.690852	0.701426
H198	H	0.881259	-0.709247	0.618903
H199	H	0.789402	-0.575547	0.624288
C200	C	0.612984	-0.166811	0.812252
C201	C	0.634328	-0.156271	0.859675
C202	C	0.602893	-0.068888	0.910207
C203	C	0.550113	0.007957	0.913317
C204	C	0.528766	-0.002580	0.865893
C205	C	0.560202	-0.089963	0.815360
H206	H	0.673401	-0.213159	0.857374
H207	H	0.618695	-0.061088	0.945314
H208	H	0.526843	0.072644	0.950724
H209	H	0.489693	0.054308	0.868194
H210	H	0.544399	-0.097763	0.780254
H211	H	0.201410	0.416164	0.968059
C212	C	0.612995	0.111342	0.534092
C213	C	0.634357	0.158734	0.544635
C214	C	0.602937	0.209248	0.632014
C215	C	0.550154	0.212370	0.708849
C216	C	0.528789	0.164977	0.698307
C217	C	0.560210	0.114462	0.610929
H218	H	0.673433	0.156424	0.487755
H219	H	0.618753	0.244332	0.639817
H220	H	0.526895	0.249764	0.773532
H221	H	0.489714	0.167286	0.755187
H222	H	0.544394	0.079379	0.603126
C223	C	0.315587	0.833168	0.812176
C224	C	0.253002	0.843710	0.859565
C225	C	0.186299	0.931096	0.910081
C226	C	0.182183	1.007938	0.913207
C227	C	0.244771	0.997398	0.865817
C228	C	0.311473	0.910013	0.815301
H229	H	0.256047	0.786825	0.857252
H230	H	0.139968	0.938898	0.945162
H231	H	0.132806	1.072626	0.950602
H232	H	0.241726	1.054283	0.868130
H233	H	0.357805	0.902210	0.780219
H234	H	0.546155	-0.063278	0.349845
H235	H	0.499875	-0.028242	0.161258
C236	C	0.801084	-0.500999	0.199873
C237	C	0.829491	-0.495805	0.114764
C238	C	0.886387	-0.575749	0.034801
C239	C	0.914875	-0.660886	0.039946
C240	C	0.886468	-0.666083	0.125059
C241	C	0.829572	-0.586139	0.205022
H242	H	0.808403	-0.432778	0.110952
H243	H	0.907416	-0.571901	-0.028205
H244	H	0.956993	-0.720065	-0.019247
H245	H	0.907557	-0.729110	0.128871
H246	H	0.808543	-0.589987	0.268027
H247	H	0.209178	0.410269	0.823360
C248	C	0.329754	0.100609	0.322389
C249	C	0.314112	0.057164	0.380315
C250	C	0.247412	0.107680	0.467691
C251	C	0.196354	0.201642	0.497140
C252	C	0.211995	0.245092	0.439214
C253	C	0.278695	0.194575	0.351838
H254	H	0.351910	-0.012396	0.358516
H255	H	0.235834	0.075515	0.510572
H256	H	0.146979	0.239037	0.561821
H257	H	0.174197	0.314652	0.461013
H258	H	0.290273	0.226741	0.308957
H259	H	0.233529	0.104075	0.655979
C260	C	0.632257	-0.353804	0.625272
C261	C	0.663700	-0.441197	0.574758
C262	C	0.642372	-0.451769	0.527323
C263	C	0.589601	-0.374949	0.530401
C264	C	0.558154	-0.287550	0.580917
C265	C	0.579482	-0.276977	0.628353
H266	H	0.702768	-0.498069	0.572478
H267	H	0.665652	-0.516468	0.489927
H268	H	0.573813	-0.382775	0.495286
H269	H	0.519086	-0.230677	0.583197
H270	H	0.556203	-0.212278	0.665748
H271	H	0.514043	-0.038983	-0.050352
H272	H	0.708206	0.093095	0.384701
H273	H	0.209157	0.122529	1.111124
H274	H	0.739397	-0.488786	0.361024
C275	C	0.113942	0.140763	1.260527
C276	C	0.156325	0.119484	1.285347
C277	C	0.124873	0.170009	1.372741
C278	C	0.051038	0.241812	1.435317
C279	C	0.008650	0.263093	1.410499
C280	C	0.040102	0.212569	1.323104
H281	H	0.210986	0.066328	1.239023
H282	H	0.156251	0.154254	1.391113
H283	H	0.027755	0.279213	1.500011
H284	H	-0.046011	0.316249	1.456822
H285	H	0.008724	0.228324	1.304732
H286	H	0.552946	0.522222	0.632445
H287	H	0.138730	0.375534	0.666969
H288	H	0.086914	0.049428	1.220397
H289	H	-0.183028	-0.085877	0.846017
H290	H	0.339704	0.683730	0.793909
H291	H	0.645546	-0.356928	0.492903
H292	H	0.225778	0.248776	0.661840
C293	C	0.208827	0.245079	1.118300
C294	C	0.180386	0.239913	1.203421
C295	C	0.208835	0.154787	1.208601
C296	C	0.265726	0.074828	1.128661
C297	C	0.294171	0.079992	1.043533
C298	C	0.265721	0.165118	1.038353
H299	H	0.138269	0.299106	1.262604
H300	H	0.187778	0.150965	1.271619
H301	H	0.286786	0.011813	1.132495
H302	H	0.336288	0.020799	0.984351
H303	H	0.286778	0.168940	0.975336
H304	H	0.760065	0.009771	0.240563
H305	H	-0.386582	0.104083	0.656048
H306	H	0.724861	-0.068426	0.223134
H307	H	0.153268	-0.044850	0.804933
H308	H	0.029997	-0.085893	0.845986
H309	H	0.637800	-0.063298	0.349837
C310	C	0.100221	0.397694	1.270930
C311	C	0.070833	0.353838	1.294775
C312	C	0.042397	0.348638	1.379885
C313	C	0.043349	0.387295	1.441150
C314	C	0.072737	0.431154	1.417306
C315	C	0.101173	0.436354	1.332196
H316	H	0.070128	0.325219	1.249422
H317	H	0.020642	0.316170	1.397535
H318	H	0.022299	0.383446	1.504153
H319	H	0.073442	0.459773	1.462659
H320	H	0.122928	0.468822	1.314545
C321	C	0.133215	-0.046195	1.073519
C322	C	0.141083	-0.114140	1.106937
C323	C	0.119739	-0.161550	1.096361
C324	C	0.090529	-0.141015	1.052366
C325	C	0.082661	-0.073066	1.018944
C326	C	0.104004	-0.025657	1.029520
H327	H	0.162707	-0.129344	1.139508
H328	H	0.125564	-0.211849	1.121102
H329	H	0.074730	-0.176110	1.044537
H330	H	0.061036	-0.057862	0.986374
H331	H	0.098179	0.024643	1.004779
C332	C	-0.056589	-0.097622	0.857725
C333	C	-0.007821	-0.191447	0.831615
C334	C	-0.032134	-0.236614	0.876762
C335	C	-0.105215	-0.187956	0.948018
C336	C	-0.153987	-0.094125	0.974132
C337	C	-0.129674	-0.048958	0.928985
H338	H	0.046281	-0.227472	0.778863
H339	H	0.003971	-0.306074	0.857430
H340	H	-0.123212	-0.221392	0.981439
H341	H	-0.208090	-0.058101	1.026884
H342	H	-0.165779	0.020502	0.948317
H343	H	-0.306295	-0.044853	0.804977
H344	H	-0.386578	-0.044844	0.804985
C345	C	-0.300005	0.115825	0.644319
C346	C	-0.348766	0.209648	0.670414
C347	C	-0.324444	0.254802	0.625253
C348	C	-0.251361	0.206133	0.553999
C349	C	-0.202596	0.112304	0.527901
C350	C	-0.226917	0.067150	0.573061
H351	H	-0.402870	0.245680	0.723164
H352	H	-0.360544	0.324260	0.644573
H353	H	-0.233357	0.239559	0.520569
H354	H	-0.148492	0.076272	0.475151
H355	H	-0.190818	-0.002308	0.553742
H356	H	-0.050310	0.145160	0.615000
H357	H	0.029956	0.145158	0.614996
C358	C	0.045893	0.560233	1.261089
C359	C	-0.019046	0.577619	1.323624
C360	C	-0.075945	0.657562	1.403587
C361	C	-0.067903	0.720121	1.421015
C362	C	-0.002961	0.702737	1.358478
C363	C	0.053937	0.622793	1.278515
H364	H	-0.025001	0.531308	1.310724
H365	H	-0.124019	0.670431	1.449880
H366	H	-0.110023	0.779300	1.480209
H367	H	0.002994	0.749048	1.371378
H368	H	0.102012	0.609925	1.232222
C369	C	0.146915	0.115812	0.644266
C370	C	0.110332	0.209638	0.670369
C371	C	0.085982	0.254799	0.625234
C372	C	0.098214	0.206134	0.553996
C373	C	0.134800	0.112303	0.527890
C374	C	0.159150	0.067142	0.573025
H375	H	0.101275	0.245668	0.723106
H376	H	0.058899	0.324259	0.644560
H377	H	0.080189	0.239565	0.520585
H378	H	0.143857	0.076273	0.475152
H379	H	0.186233	-0.002318	0.553699
C380	C	0.276680	0.559715	0.841638
C381	C	0.254857	0.622318	0.913458
C382	C	0.188153	0.709700	0.963970
C383	C	0.143272	0.734480	0.942663
C384	C	0.165093	0.671875	0.870840
C385	C	0.231797	0.584493	0.820327
H386	H	0.288082	0.603976	0.929234
H387	H	0.172000	0.756044	1.017138
H388	H	0.093894	0.799166	0.980055
H389	H	0.131869	0.690217	0.855064
H390	H	0.247951	0.538149	0.767159
C391	C	0.523503	0.372775	0.654741
C392	C	0.534005	0.410901	0.702080
C393	C	0.596595	0.400355	0.654688
C394	C	0.648682	0.351683	0.559957
C395	C	0.638182	0.313554	0.512614
C396	C	0.575592	0.324100	0.560005
H397	H	0.495446	0.446934	0.772210
H398	H	0.604368	0.428581	0.689736
H399	H	0.695015	0.343876	0.524875
H400	H	0.676741	0.277521	0.442484
H401	H	0.567819	0.295874	0.524958
C402	C	0.284543	0.413005	0.835686
C403	C	0.217842	0.500383	0.886196
C404	C	0.155256	0.510919	0.933587
C405	C	0.159372	0.434076	0.930467
C406	C	0.226077	0.346692	0.879955
C407	C	0.288662	0.336156	0.832564
H408	H	0.214792	0.557271	0.888507
H409	H	0.105878	0.575607	0.970979
H410	H	0.113043	0.441876	0.965548
H411	H	0.229126	0.289803	0.877643
H412	H	0.338041	0.271468	0.795172
H413	H	-0.183051	0.145143	0.615009
C414	C	0.315589	0.111336	0.534007
C415	C	0.253008	0.158738	0.544529
C416	C	0.186302	0.209264	0.631899
C417	C	0.182178	0.212389	0.708746
C418	C	0.244761	0.164985	0.698227
C419	C	0.311467	0.114459	0.610857
H420	H	0.256059	0.156426	0.487639
H421	H	0.139974	0.244355	0.639685
H422	H	0.132798	0.249791	0.773423
H423	H	0.241710	0.167297	0.755117
H424	H	0.357795	0.079368	0.603071
H425	H	-0.102750	-0.085885	0.846009
H426	H	-0.102788	0.145144	0.615003
H427	H	0.225805	-0.039004	0.949571
C428	C	0.276681	0.140794	0.260552
C429	C	0.261031	0.097352	0.318477
C430	C	0.194325	0.147871	0.405845
C431	C	0.143269	0.241831	0.435288
C432	C	0.158917	0.285278	0.377362
C433	C	0.225624	0.234760	0.289994
H434	H	0.298827	0.027793	0.296682
H435	H	0.182741	0.115708	0.448725
H436	H	0.093888	0.279227	0.499963
H437	H	0.121121	0.354837	0.399156
H438	H	0.237208	0.266923	0.247113
H439	H	0.499871	0.460391	0.672623
H440	H	0.514039	0.248776	0.661913
H441	H	0.552944	-0.068430	0.223102
H442	H	0.300803	0.122521	0.111110
