data_functionalizedCrystal
_audit_creation_method	'MofGen! by Chris Wilmer'
_symmetry_space_group_name_H-M	'P1'
_symmetry_Int_Tables_number	1
_symmetry_cell_setting	triclinic
loop_
_symmetry_equiv_pos_as_xyz
  x,y,z
_cell_length_a	11.792241
_cell_length_b	15.944551
_cell_length_c	10.268362
_cell_angle_alpha	89.993764
_cell_angle_beta	89.999626
_cell_angle_gamma	83.846077
loop_
_atom_site_label
_atom_site_type_symbol
_atom_site_fract_x
_atom_site_fract_y
_atom_site_fract_z
O1	O	1.505960	0.115128	-0.108177
O2	O	1.175521	0.126993	-0.108207
O3	O	1.349764	-0.001173	-0.108180
O4	O	1.331717	0.243295	-0.108205
O5	O	1.349749	-0.001179	0.108421
O6	O	1.175506	0.126988	0.108393
O7	O	1.505945	0.115123	0.108424
Cu8	Cu	1.340724	0.121055	0.128186
Cu9	Cu	1.340742	0.121061	-0.127970
O10	O	1.331702	0.243290	0.108396
C11	C	1.133229	0.126245	0.000089
C12	C	1.007234	0.124015	0.000078
C13	C	1.349008	-0.032473	0.000121
C14	C	1.346761	-0.125729	0.000121
C15	C	0.776555	0.119913	0.000116
C16	C	0.904922	0.122192	0.000095
C17	C	1.233389	-0.341098	0.000093
C18	C	1.286028	-0.401880	0.106895
C19	C	1.342698	-0.296474	0.000111
C20	C	1.286069	-0.401858	-0.106656
C21	C	1.338765	-0.461404	0.000095
C22	C	1.395367	-0.356028	0.107001
C23	C	1.395392	-0.355999	-0.106646
C24	C	1.448111	-0.416764	0.000182
C25	C	1.344961	-0.201461	0.000121
C26	C	1.336511	-0.556415	0.000095
C27	C	1.548237	0.115871	0.000124
C28	C	1.674233	0.118102	0.000127
C29	C	1.332459	0.274590	0.000093
C30	C	1.334705	0.367846	0.000084
N31	N	1.340720	0.121050	0.308352
N32	N	1.340756	0.121060	-0.308135
C33	C	1.340736	0.121060	0.574022
C34	C	1.340724	0.121057	0.426184
H35	H	1.239788	-0.422199	0.197179
C36	C	1.224606	-0.428887	-0.227210
C37	C	1.280989	-0.404530	-0.338768
C38	C	1.224404	-0.429421	-0.449839
H39	H	1.148335	-0.402745	-0.227267
H40	H	1.224266	-0.488444	-0.226833
H41	H	1.281317	-0.344985	-0.339146
H42	H	1.357256	-0.430670	-0.338755
H43	H	1.224064	-0.488978	-0.449461
H44	H	1.148135	-0.403277	-0.449882
H45	H	1.262657	-0.412906	-0.525543
C46	C	1.569183	-0.460456	-0.000029
C47	C	1.586306	-0.510304	-0.112006
C48	C	1.697832	-0.550546	-0.112259
H49	H	1.580685	-0.495129	0.075055
H50	H	1.621724	-0.419261	0.000650
H51	H	1.533781	-0.551494	-0.112673
H52	H	1.574829	-0.475651	-0.187108
H53	H	1.750373	-0.509351	-0.111580
H54	H	1.709324	-0.585215	-0.037170
H55	H	1.709468	-0.584366	-0.188239
C56	C	1.112327	-0.297383	0.000286
C57	C	1.034939	-0.358122	0.001543
C58	C	0.923411	-0.317884	0.001746
H59	H	1.100417	-0.263504	-0.075596
H60	H	1.101070	-0.262773	0.075474
H61	H	1.046190	-0.392718	-0.073637
H62	H	1.046811	-0.392005	0.077420
H63	H	0.912155	-0.283274	0.076935
H64	H	0.911514	-0.284006	-0.074137
H65	H	0.870890	-0.359089	0.002612
C66	C	1.457009	-0.328704	-0.226917
C67	C	1.459199	-0.241092	-0.224643
C68	C	1.515953	-0.215916	-0.335417
H69	H	1.418153	-0.344138	-0.302826
H70	H	1.532895	-0.355613	-0.227680
H71	H	1.383327	-0.214192	-0.223892
H72	H	1.498063	-0.225636	-0.148759
H73	H	1.591838	-0.242825	-0.336180
H74	H	1.477091	-0.231355	-0.411317
H75	H	1.517455	-0.156471	-0.333883
C76	C	1.456865	-0.328933	0.227487
C77	C	1.458179	-0.241235	0.226133
C78	C	1.514802	-0.216243	0.337111
H79	H	1.532951	-0.355435	0.227918
H80	H	1.418280	-0.344957	0.303263
H81	H	1.496766	-0.225220	0.150377
H82	H	1.382109	-0.214713	0.225721
H83	H	1.476217	-0.232266	0.412887
H84	H	1.590884	-0.242750	0.337532
H85	H	1.515692	-0.156737	0.336213
