data_functionalizedCrystal
_audit_creation_method	'MofGen! by Chris Wilmer'
_symmetry_space_group_name_H-M	'P1'
_symmetry_Int_Tables_number	1
_symmetry_cell_setting	triclinic
loop_
_symmetry_equiv_pos_as_xyz
  x,y,z
_cell_length_a	12.759401
_cell_length_b	10.685676
_cell_length_c	10.685880
_cell_angle_alpha	80.972437
_cell_angle_beta	85.606672
_cell_angle_gamma	85.613574
loop_
_atom_site_label
_atom_site_type_symbol
_atom_site_fract_x
_atom_site_fract_y
_atom_site_fract_z
Zn1	Zn	1.618801	0.560281	-0.756383
Zn2	Zn	1.593667	0.756310	-0.560430
Zn3	Zn	1.430583	0.544079	-0.544167
Zn4	Zn	1.430584	0.772470	-0.772619
O5	O	1.518409	0.658285	-0.658400
O6	O	1.762488	0.586302	-0.730400
O7	O	1.561515	0.714613	-0.380658
O8	O	1.466069	0.368607	-0.558716
O9	O	1.744022	0.730324	-0.586435
O10	O	1.604352	0.380511	-0.714630
O11	O	1.441698	0.558689	-0.368709
O12	O	1.283563	0.574359	-0.574460
O13	O	1.466071	0.757866	-0.948080
O14	O	1.283563	0.742156	-0.742303
O15	O	1.604353	0.601972	-0.936151
O16	O	1.561516	0.936075	-0.602179
O17	O	1.441699	0.947948	-0.758073
C18	C	1.245442	0.658254	-0.658380
C19	C	1.128666	0.658273	-0.658404
C20	C	1.083410	0.583444	-0.733504
C21	C	0.973685	0.583469	-0.733514
C22	C	0.954480	0.733163	-0.583320
C23	C	1.064203	0.733130	-0.583304
C24	C	1.147873	0.508587	-0.808603
C25	C	1.102618	0.433753	-0.883711
C26	C	0.992893	0.433778	-0.883721
C27	C	0.928423	0.508637	-0.808623
C28	C	1.498910	0.988068	-0.683681
C29	C	1.490667	1.129154	-0.694538
C30	C	1.792441	0.658317	-0.658420
C31	C	1.909218	0.658331	-0.658429
C32	C	1.538005	1.327217	-0.633062
C33	C	1.546335	1.186139	-0.622302
C34	C	1.538015	0.683529	-0.989457
C35	C	1.546371	0.694286	-1.130534
C36	C	1.498944	0.633048	-0.328623
C37	C	1.490814	0.621933	-0.187519
H38	H	1.155117	0.372797	-0.944844
H39	H	1.101051	0.794063	-0.522151
H40	H	0.901980	0.794112	-0.522182
N41	N	1.419185	1.207491	-0.787470
H42	H	1.423231	1.300554	-0.782316
H43	H	1.344319	1.182956	-0.765884
H44	H	1.436849	0.551761	-1.128379
N45	N	1.617835	1.107797	-0.529381
H46	H	1.613792	1.014733	-0.534535
H47	H	1.594838	1.124039	-0.440476
N48	N	0.944079	0.353047	-0.964700
H49	H	1.001568	0.305619	-1.012264
H50	H	0.898977	0.409281	-1.027326
N51	N	1.617846	0.787264	-1.208867
H52	H	1.613888	0.782036	-1.301926
H53	H	1.692697	0.765779	-1.184253
H54	H	1.237218	0.508558	-0.808603
H55	H	0.839078	0.508622	-0.808608
