data_functionalizedCrystal
_audit_creation_method	'MofGen! by Chris Wilmer'
_symmetry_space_group_name_H-M	'P1'
_symmetry_Int_Tables_number	1
_symmetry_cell_setting	triclinic
loop_
_symmetry_equiv_pos_as_xyz
  x,y,z
_cell_length_a	13.448316
_cell_length_b	14.971486
_cell_length_c	14.971496
_cell_angle_alpha	96.383873
_cell_angle_beta	90.007512
_cell_angle_gamma	89.998199
loop_
_atom_site_label
_atom_site_type_symbol
_atom_site_fract_x
_atom_site_fract_y
_atom_site_fract_z
O1	O	0.082580	-1.186951	0.116564
O2	O	0.082607	-0.926552	0.130523
O3	O	0.082584	-1.063726	-0.006656
O4	O	0.082603	-1.049777	0.253743
O5	O	-0.082800	-1.063709	-0.006664
O6	O	-0.082777	-0.926535	0.130515
O7	O	-0.082804	-1.186934	0.116556
Cu8	Cu	-0.097891	-1.056733	0.123534
Cu9	Cu	0.097694	-1.056753	0.123544
O10	O	-0.082781	-1.049760	0.253735
C11	C	-0.000082	-0.893218	0.129895
C12	C	-0.000071	-0.793921	0.128024
N13	N	-0.235456	-1.056725	0.123527
C14	C	-0.000108	-1.063092	-0.039985
C15	C	-0.000109	-1.061218	-0.139281
C16	C	-0.287506	-1.117485	0.062809
C17	C	-0.391610	-1.117490	0.062808
C18	C	-0.443660	-1.056740	0.123530
C19	C	-0.391602	-0.995973	0.184251
C20	C	-0.287501	-0.995964	0.184247
C21	C	-0.608582	-0.995998	0.184257
C22	C	-0.712691	-0.996008	0.184263
C23	C	-0.712691	-1.117524	0.062819
C24	C	-0.608590	-1.117515	0.062814
C25	C	-0.556539	-1.056750	0.123536
N26	N	0.235258	-1.056768	0.123545
C27	C	-0.000114	-1.220268	0.117184
C28	C	-0.000117	-1.319565	0.119055
C29	C	-0.000067	-0.736699	0.208613
C30	C	-0.000082	-0.643399	0.206850
C31	C	-0.000094	-0.607324	0.124497
C32	C	-0.000102	-0.664554	0.043902
C33	C	-0.000094	-0.757852	0.045666
C34	C	-0.000116	-0.470091	0.040231
C35	C	-0.000122	-0.376787	0.038466
C36	C	-0.000104	-0.355639	0.201414
C37	C	-0.000096	-0.448937	0.203179
C38	C	-0.000101	-0.506160	0.122583
C39	C	0.090069	-1.053160	-0.566981
C40	C	0.090064	-1.054926	-0.473681
C41	C	-0.000090	-1.055793	-0.427043
C42	C	-0.090246	-1.054904	-0.473709
C43	C	-0.090241	-1.053144	-0.567007
C44	C	-0.090252	-1.058569	-0.279246
C45	C	-0.090258	-1.060326	-0.185941
C46	C	0.090053	-1.060350	-0.185920
C47	C	0.090059	-1.058590	-0.279218
C48	C	-0.000097	-1.057700	-0.325878
C49	C	-0.000087	-1.050394	0.287063
C50	C	-0.000080	-1.052268	0.386360
H51	H	-0.433989	-1.166965	0.013367
O52	O	0.177699	-1.057637	-0.324408
C53	C	0.232557	-0.980662	-0.291578
H54	H	0.206926	-0.956121	-0.220493
H55	H	0.220079	-0.925470	-0.337060
C56	C	0.375438	-1.034429	-0.377610
C57	C	0.343964	-1.004291	-0.290299
H58	H	0.444159	-1.049002	-0.376824
H59	H	0.338479	-1.086287	-0.399731
H60	H	0.365031	-0.988430	-0.415502
H61	H	0.354359	-1.050293	-0.252412
H62	H	0.380927	-0.952441	-0.268172
O63	O	-0.557908	-0.937095	0.243280
C64	C	-0.497693	-0.985051	0.298552
H65	H	-0.482096	-1.054999	0.263040
H66	H	-0.537798	-0.991201	0.364671
C67	C	-0.417965	-0.848725	0.361198
C68	C	-0.398802	-0.934635	0.317579
H69	H	-0.356966	-0.817625	0.372939
H70	H	-0.458535	-0.816415	0.323963
H71	H	-0.451388	-0.853862	0.416293
H72	H	-0.365391	-0.929496	0.262480
H73	H	-0.358223	-0.966942	0.354805
O74	O	-0.558180	-1.176562	0.003745
C75	C	-0.626441	-1.230211	-0.049835
H76	H	-0.700656	-1.193551	-0.050908
H77	H	-0.637494	-1.296685	-0.020680
C78	C	-0.494670	-1.293567	-0.144979
C79	C	-0.585820	-1.248537	-0.146303
H80	H	-0.469613	-1.304875	-0.204484
H81	H	-0.448680	-1.257425	-0.108879
H82	H	-0.503893	-1.348957	-0.120679
H83	H	-0.576594	-1.193144	-0.170592
H84	H	-0.631808	-1.284670	-0.182409
O85	O	-0.763101	-0.936897	0.243268
C86	C	-0.694840	-0.883267	0.296867
H87	H	-0.620636	-0.882222	0.260196
H88	H	-0.683759	-0.912355	0.363374
C89	C	-0.826620	-0.788085	0.360151
C90	C	-0.735484	-0.786795	0.315108
H91	H	-0.851692	-0.728577	0.371407
H92	H	-0.872610	-0.824218	0.324043
H93	H	-0.817373	-0.812329	0.415568
H94	H	-0.744733	-0.762562	0.259687
H95	H	-0.689496	-0.750655	0.351207
O96	O	-0.442119	-0.936834	0.243144
C97	C	-0.416681	-0.848279	0.228466
H98	H	-0.388077	-0.847768	0.156851
H99	H	-0.356251	-0.822051	0.277999
C100	C	-0.544298	-0.788295	0.330222
C101	C	-0.509174	-0.787666	0.242260
H102	H	-0.601350	-0.750904	0.338734
H103	H	-0.561435	-0.847956	0.340114
H104	H	-0.493931	-0.766440	0.371489
H105	H	-0.559536	-0.809530	0.200995
H106	H	-0.492048	-0.728007	0.232361
H107	H	-0.755077	-1.167001	0.013377
H108	H	-0.000122	-0.516681	-0.025399
H109	H	0.163473	-1.055653	-0.435696
O110	O	0.177588	-1.052430	-0.612388
C111	C	0.183000	-1.128828	-0.676387
H112	H	0.104726	-1.154362	-0.693738
H113	H	0.227475	-1.183715	-0.647453
C114	C	0.330705	-1.072283	-0.740631
C115	C	0.234567	-1.103640	-0.761947
H116	H	0.362518	-1.056749	-0.793407
H117	H	0.327062	-1.020814	-0.697511
H118	H	0.367755	-1.118028	-0.716518
H119	H	0.197516	-1.057892	-0.786049
H120	H	0.238205	-1.155101	-0.805073
O121	O	-0.177853	-1.055891	-0.428472
C122	C	-0.232735	-1.132841	-0.461333
H123	H	-0.180001	-1.186482	-0.493981
H124	H	-0.288930	-1.114309	-0.513235
C125	C	-0.352778	-1.103589	-0.342916
C126	C	-0.288008	-1.169474	-0.383008
H127	H	-0.386877	-1.126184	-0.294603
H128	H	-0.315806	-1.051744	-0.320778
H129	H	-0.399598	-1.088151	-0.386176
H130	H	-0.241182	-1.184903	-0.339751
H131	H	-0.324974	-1.221322	-0.405137
O132	O	-0.236980	-0.937033	0.243354
C133	C	-0.262414	-0.951651	0.331925
H134	H	-0.291019	-1.023263	0.332484
H135	H	-0.322842	-0.902109	0.358117
C136	C	-0.134792	-0.849851	0.391850
C137	C	-0.169918	-0.937809	0.392538
H138	H	-0.077738	-0.841309	0.429241
H139	H	-0.117658	-0.840000	0.332179
H140	H	-0.185157	-0.808576	0.413675
H141	H	-0.119557	-0.979081	0.370703
H142	H	-0.187041	-0.947667	0.452208
O143	O	0.177597	-1.061015	-0.140519
C144	C	0.182951	-0.984570	-0.076573
H145	H	0.104655	-0.959102	-0.059224
H146	H	0.227335	-0.929666	-0.105558
C147	C	0.330772	-1.040917	-0.012309
C148	C	0.234607	-1.009641	0.009004
H149	H	0.362640	-1.056380	0.040478
H150	H	0.327168	-1.092418	-0.055392
H151	H	0.367746	-0.995158	-0.036465
H152	H	0.197632	-1.055404	0.033149
H153	H	0.238207	-0.958148	0.052094
O154	O	-0.000032	-0.587941	0.285217
C155	C	-0.000038	-0.639789	0.358281
H156	H	0.031279	-0.709392	0.335652
H157	H	-0.079377	-0.646467	0.383518
C158	C	0.026358	-0.507891	0.462361
C159	C	0.064831	-0.593377	0.434570
H160	H	0.066368	-0.479262	0.509422
H161	H	0.026359	-0.472960	0.413137
H162	H	-0.039757	-0.513468	0.483386
H163	H	0.130939	-0.587798	0.413535
H164	H	0.064843	-0.628307	0.483792
O165	O	-0.000062	-0.300185	0.279790
C166	C	-0.000069	-0.352032	0.352854
H167	H	0.031249	-0.421635	0.330225
H168	H	-0.079407	-0.358710	0.378091
C169	C	0.026327	-0.220134	0.456934
C170	C	0.064800	-0.305620	0.429143
H171	H	0.066337	-0.191505	0.503995
H172	H	0.026328	-0.185203	0.407710
H173	H	-0.039788	-0.225712	0.477959
H174	H	0.130909	-0.300041	0.408109
H175	H	0.064812	-0.340550	0.478365
O176	O	-0.177921	-1.061178	-0.140774
C177	C	-0.257494	-1.059982	-0.201956
H178	H	-0.231084	-1.087059	-0.272127
H179	H	-0.285172	-0.988081	-0.202597
C180	C	-0.375141	-1.085970	-0.086945
C181	C	-0.342706	-1.119233	-0.173130
H182	H	-0.427706	-1.122515	-0.069163
H183	H	-0.321532	-1.086772	-0.045724
H184	H	-0.398199	-1.026052	-0.087491
H185	H	-0.319637	-1.179145	-0.172581
H186	H	-0.396313	-1.118442	-0.214351
H187	H	-0.245134	-1.166959	0.013366
O188	O	-0.000180	-0.341890	-0.041608
C189	C	-0.000165	-0.412401	-0.112365
H190	H	-0.031472	-0.475808	-0.087229
H191	H	0.079174	-0.425575	-0.137230
C192	C	-0.026583	-0.308095	-0.220897
C193	C	-0.065042	-0.385971	-0.190026
H194	H	-0.066598	-0.291792	-0.268804
H195	H	-0.026589	-0.260590	-0.173227
H196	H	0.039533	-0.319084	-0.241611
H197	H	-0.131151	-0.374978	-0.169303
H198	H	-0.065049	-0.433474	-0.237695
O199	O	0.000020	-0.629618	-0.036151
C200	C	0.085684	-0.658831	-0.085270
H201	H	0.114244	-0.723564	-0.060823
H202	H	0.145661	-0.604856	-0.074963
C203	C	0.024582	-0.596704	-0.215898
C204	C	0.059655	-0.676215	-0.185876
H205	H	0.008528	-0.607424	-0.277957
H206	H	-0.033130	-0.577019	-0.182805
H207	H	0.074569	-0.551732	-0.207301
H208	H	0.009664	-0.721182	-0.194463
H209	H	0.117358	-0.695908	-0.218973
H210	H	-0.000056	-0.766063	0.275674
H211	H	-0.000097	-0.804442	-0.019958
H212	H	-0.163666	-1.057844	-0.317233
H213	H	-0.000076	-0.478306	0.270237
H214	H	-0.163649	-1.052417	-0.604996
