data_functionalizedCrystal
_audit_creation_method	'MofGen! by Chris Wilmer'
_symmetry_space_group_name_H-M	'P1'
_symmetry_Int_Tables_number	1
_symmetry_cell_setting	triclinic
loop_
_symmetry_equiv_pos_as_xyz
  x,y,z
_cell_length_a	17.019372
_cell_length_b	17.038272
_cell_length_c	9.730223
_cell_angle_alpha	89.998176
_cell_angle_beta	93.876219
_cell_angle_gamma	87.242864
loop_
_atom_site_label
_atom_site_type_symbol
_atom_site_fract_x
_atom_site_fract_y
_atom_site_fract_z
O1	O	1.053349	0.099574	0.010266
O2	O	0.824538	0.112280	-0.016793
O3	O	0.937584	-0.007888	-0.003413
O4	O	0.940303	0.219741	-0.003113
O5	O	0.937582	-0.007885	0.225166
O6	O	0.824537	0.112283	0.211787
O7	O	1.053348	0.099577	0.238846
Zn8	Zn	0.938942	0.105930	0.261608
Zn9	Zn	0.938944	0.105926	-0.039555
O10	O	0.940302	0.219744	0.225466
C11	C	0.795116	0.111800	0.094017
C12	C	0.707450	0.110358	0.083650
C13	C	0.935109	-0.037012	0.110584
C14	C	0.927729	-0.123799	0.109711
C15	C	0.211629	0.102174	0.018672
C16	C	0.294001	0.103529	0.028432
C17	C	0.335177	0.104214	0.157912
C18	C	0.293979	0.103536	0.277639
C19	C	0.211609	0.102175	0.267879
C20	C	0.583882	0.108319	0.193617
C21	C	0.666257	0.109682	0.203369
C22	C	0.666273	0.109674	-0.045840
C23	C	0.583901	0.108317	-0.055590
C24	C	0.542710	0.107635	0.064138
C25	C	0.419375	0.105602	0.167891
C26	C	0.458515	0.106242	0.054158
C27	C	0.995489	-0.173972	0.117725
C28	C	0.988549	-0.255517	0.116892
C29	C	0.913850	-0.286886	0.108053
C30	C	0.846085	-0.236706	0.100033
C31	C	0.853025	-0.155163	0.100857
C32	C	0.889332	-0.532622	0.105135
C33	C	0.882397	-0.614171	0.104315
C34	C	1.024862	-0.632977	0.121171
C35	C	1.031795	-0.551432	0.122003
C36	C	0.964031	-0.501259	0.113976
C37	C	0.906755	-0.370237	0.107205
C38	C	0.971126	-0.417909	0.114814
C39	C	1.082769	0.100056	0.128033
C40	C	1.170436	0.101498	0.138391
C41	C	0.942776	0.248868	0.111466
C42	C	0.950157	0.335655	0.112330
N43	N	0.938947	0.105932	0.467145
N44	N	0.938945	0.105918	-0.245092
C45	C	0.989018	0.052740	0.544998
C46	C	0.989015	0.052731	0.688880
C47	C	0.888868	0.159112	0.677045
C48	C	0.888867	0.159117	0.533165
C49	C	1.046840	-0.008676	0.551832
C50	C	1.046837	-0.008686	0.695715
H51	H	0.178108	0.101622	-0.086765
H52	H	1.080032	-0.673836	0.127704
F53	F	0.835572	0.215712	0.747319
H54	H	0.785263	-0.262252	0.092828
F55	F	0.337838	0.104245	-0.098991
F56	F	0.827256	-0.403630	0.097793
H57	H	1.108201	0.004118	0.742021
F58	F	0.835566	0.215721	0.450308
H59	H	1.029875	-0.068640	0.510777
F60	F	0.540084	0.107589	-0.193400
H61	H	0.699820	0.110228	-0.143315
F62	F	0.463205	0.106339	0.305689
F63	F	0.780906	-0.101764	0.092323
H64	H	0.550354	0.107752	0.291108
H65	H	1.092623	-0.525898	0.129200
F66	F	0.710079	0.110410	0.341186
F67	F	0.167769	0.101450	0.395300
H68	H	1.105189	0.009806	0.514104
H69	H	0.327512	0.104089	0.383065
H70	H	0.424985	0.105681	-0.051264
F71	F	1.074994	-0.140595	0.127146
H72	H	1.024371	-0.065288	0.737679
F73	F	0.802888	-0.647554	0.094914
F74	F	1.060669	-0.308913	0.125425
H75	H	0.834153	-0.491780	0.098599
H76	H	1.031946	-0.392365	0.121980
