data_functionalizedCrystal
_audit_creation_method	'MofGen! by Chris Wilmer'
_symmetry_space_group_name_H-M	'P1'
_symmetry_Int_Tables_number	1
_symmetry_cell_setting	triclinic
loop_
_symmetry_equiv_pos_as_xyz
  x,y,z
_cell_length_a	13.596369
_cell_length_b	14.519709
_cell_length_c	14.519709
_cell_angle_alpha	83.680145
_cell_angle_beta	89.998664
_cell_angle_gamma	89.999684
loop_
_atom_site_label
_atom_site_type_symbol
_atom_site_fract_x
_atom_site_fract_y
_atom_site_fract_z
O1	O	0.081665	-1.223870	-0.120885
O2	O	0.331665	-0.973870	0.129115
O3	O	0.581665	-0.723870	0.379115
O4	O	0.831665	-0.473870	0.629115
O5	O	0.081696	-0.955393	-0.135122
O6	O	0.331696	-0.705393	0.114878
O7	O	0.581696	-0.455393	0.364878
O8	O	0.831696	-0.205393	0.614878
O9	O	0.081671	-1.096750	0.006235
O10	O	0.331671	-0.846750	0.256235
O11	O	0.581671	-0.596750	0.506235
O12	O	0.831671	-0.346750	0.756235
O13	O	0.081690	-1.082513	-0.262242
O14	O	0.331690	-0.832513	-0.012242
O15	O	0.581690	-0.582513	0.237758
O16	O	0.831690	-0.332513	0.487758
O17	O	-0.081912	-1.096732	0.006227
O18	O	0.168088	-0.846732	0.256227
O19	O	0.418088	-0.596732	0.506227
O20	O	0.668088	-0.346732	0.756227
O21	O	-0.081887	-0.955376	-0.135129
O22	O	0.168113	-0.705376	0.114871
O23	O	0.418113	-0.455376	0.364871
O24	O	0.668113	-0.205376	0.614871
O25	O	-0.081917	-1.223853	-0.120893
O26	O	0.168083	-0.973853	0.129107
O27	O	0.418083	-0.723853	0.379107
O28	O	0.668083	-0.473853	0.629107
Zn29	Zn	-0.107875	-1.089611	-0.128012
Zn30	Zn	0.142125	-0.839611	0.121988
Zn31	Zn	0.392125	-0.589611	0.371988
Zn32	Zn	0.642125	-0.339611	0.621988
Zn33	Zn	0.107653	-1.089634	-0.128002
Zn34	Zn	0.357653	-0.839634	0.121998
Zn35	Zn	0.607653	-0.589634	0.371998
Zn36	Zn	0.857653	-0.339634	0.621998
O37	O	-0.081893	-1.082496	-0.262250
O38	O	0.168107	-0.832496	-0.012250
O39	O	0.418107	-0.582496	0.237750
O40	O	0.668107	-0.332496	0.487750
C41	C	-0.000092	-0.921025	-0.134462
C42	C	0.249908	-0.671025	0.115538
C43	C	0.499908	-0.421025	0.365538
C44	C	0.749908	-0.171025	0.615538
C45	C	-0.000081	-0.818643	-0.132474
C46	C	0.249919	-0.568643	0.117526
C47	C	0.499919	-0.318643	0.367526
C48	C	0.749919	-0.068643	0.617526
N49	N	-0.254966	-1.089603	-0.128019
N50	N	-0.004966	-0.839603	0.121981
N51	N	0.245034	-0.589603	0.371981
N52	N	0.495034	-0.339603	0.621981
C53	C	-0.000121	-1.096078	0.040591
C54	C	0.249879	-0.846078	0.290591
C55	C	0.499879	-0.596078	0.540591
C56	C	0.749879	-0.346078	0.790591
C57	C	-0.000121	-1.094090	0.142972
C58	C	0.249879	-0.844090	0.392972
C59	C	0.499879	-0.594090	0.642972
C60	C	0.749879	-0.344090	0.892972
C61	C	-0.343964	-1.089607	-0.128021
C62	C	-0.093964	-0.839607	0.121979
C63	C	0.156036	-0.589607	0.371979
C64	C	0.406036	-0.339607	0.621979
C65	C	-0.455616	-1.089616	-0.128015
C66	C	-0.205616	-0.839616	0.121985
C67	C	0.044384	-0.589616	0.371985
C68	C	0.294384	-0.339616	0.621985
C69	C	-0.544606	-1.089628	-0.128004
C70	C	-0.294606	-0.839628	0.121996
C71	C	-0.044606	-0.589628	0.371996
C72	C	0.205394	-0.339628	0.621996
C73	C	-0.656265	-1.089639	-0.127999
C74	C	-0.406265	-0.839639	0.122001
C75	C	-0.156265	-0.589639	0.372001
C76	C	0.093735	-0.339639	0.622001
N77	N	0.254745	-1.089651	-0.127988
N78	N	0.504745	-0.839651	0.122012
N79	N	0.754745	-0.589651	0.372012
N80	N	1.004745	-0.339651	0.622012
C81	C	-0.000128	-1.258221	-0.121553
C82	C	0.249872	-1.008221	0.128447
C83	C	0.499872	-0.758221	0.378447
C84	C	0.749872	-0.508221	0.628447
C85	C	-0.000132	-1.360602	-0.123541
C86	C	0.249868	-1.110602	0.126459
C87	C	0.499868	-0.860602	0.376459
C88	C	0.749868	-0.610602	0.626459
C89	C	-0.000126	-0.443748	-0.125154
C90	C	0.249874	-0.193748	0.124846
C91	C	0.499874	0.056252	0.374846
C92	C	0.749874	0.306252	0.624846
C93	C	-0.000113	-0.548056	-0.127187
C94	C	0.249887	-0.298056	0.122813
C95	C	0.499887	-0.048056	0.372813
C96	C	0.749887	0.201944	0.622813
C97	C	-0.000102	-0.631192	-0.128814
C98	C	0.249898	-0.381192	0.121186
C99	C	0.499898	-0.131192	0.371186
C100	C	0.749898	0.118808	0.621186
C101	C	-0.000091	-0.735507	-0.130847
C102	C	0.249909	-0.485507	0.119153
C103	C	0.499909	-0.235507	0.369153
C104	C	0.749909	0.014493	0.619153
C105	C	-0.000099	-1.083168	-0.296606
C106	C	0.249901	-0.833168	-0.046606
C107	C	0.499901	-0.583168	0.203394
C108	C	0.749901	-0.333168	0.453394
C109	C	-0.000092	-1.085156	-0.398987
C110	C	0.249908	-0.835156	-0.148987
C111	C	0.499908	-0.585156	0.101013
C112	C	0.749908	-0.335156	0.351013
C113	C	-0.000095	-1.086770	0.517868
C114	C	0.249905	-0.836770	0.767868
C115	C	0.499905	-0.586770	1.017868
C116	C	0.749905	-0.336770	1.267868
C117	C	-0.000102	-1.088803	0.413560
C118	C	0.249898	-0.838803	0.663560
C119	C	0.499898	-0.588803	0.913560
C120	C	0.749898	-0.338803	1.163560
C121	C	-0.000109	-1.090430	0.330423
C122	C	0.249891	-0.840430	0.580423
C123	C	0.499891	-0.590430	0.830423
C124	C	0.749891	-0.340430	1.080423
C125	C	-0.000114	-1.092463	0.226109
C126	C	0.249886	-0.842463	0.476109
C127	C	0.499886	-0.592463	0.726109
C128	C	0.749886	-0.342463	0.976109
