data_functionalizedCrystal
_audit_creation_method	'MofGen! by Chris Wilmer'
_symmetry_space_group_name_H-M	'P1'
_symmetry_Int_Tables_number	1
_symmetry_cell_setting	triclinic
loop_
_symmetry_equiv_pos_as_xyz
  x,y,z
_cell_length_a	19.805407
_cell_length_b	12.645330
_cell_length_c	19.805399
_cell_angle_alpha	89.976144
_cell_angle_beta	89.980427
_cell_angle_gamma	90.012646
loop_
_atom_site_label
_atom_site_type_symbol
_atom_site_fract_x
_atom_site_fract_y
_atom_site_fract_z
Zn1	Zn	1.034800	-0.422064	-0.382737
Zn2	Zn	1.534800	0.077936	0.117263
Zn3	Zn	1.034742	-0.599342	-0.269556
Zn4	Zn	1.534742	-0.099342	0.230444
Zn5	Zn	0.921615	-0.422093	-0.269562
Zn6	Zn	1.421615	0.077907	0.230438
Zn7	Zn	0.921606	-0.599286	-0.382703
Zn8	Zn	1.421606	-0.099286	0.117297
O9	O	0.978191	-0.510696	-0.326140
O10	O	1.478191	-0.010696	0.173860
O11	O	1.129509	-0.445592	-0.367735
O12	O	1.629509	0.054408	0.132265
O13	O	1.019715	-0.575865	-0.174840
O14	O	1.519715	-0.075865	0.325160
O15	O	0.936657	-0.273742	-0.284591
O16	O	1.436657	0.226258	0.215409
O17	O	1.129467	-0.575837	-0.284582
O18	O	1.629467	-0.075837	0.215418
O19	O	1.019814	-0.273721	-0.367741
O20	O	1.519814	0.226279	0.132259
O21	O	0.936601	-0.445641	-0.174844
O22	O	1.436601	0.054359	0.325156
O23	O	0.826897	-0.445587	-0.284558
O24	O	1.326897	0.054413	0.215442
O25	O	0.936642	-0.575741	-0.477424
O26	O	1.436642	-0.075741	0.022576
O27	O	0.826890	-0.575769	-0.367683
O28	O	1.326890	-0.075769	0.132317
O29	O	1.019805	-0.445537	-0.477449
O30	O	1.519805	0.054463	0.022551
O31	O	1.019706	-0.747682	-0.284549
O32	O	1.519706	-0.247682	0.215451
O33	O	0.936585	-0.747640	-0.367677
O34	O	1.436585	-0.247640	0.132323
C35	C	0.802335	-0.510676	-0.326118
C36	C	1.302335	-0.010676	0.173882
C37	C	0.727103	-0.510693	-0.326124
C38	C	1.227103	-0.010693	0.173876
C39	C	0.691773	-0.578581	-0.369337
C40	C	1.191773	-0.078581	0.130663
C41	C	0.621084	-0.578583	-0.369347
C42	C	1.121084	-0.078583	0.130653
C43	C	0.585727	-0.510701	-0.326140
C44	C	1.085727	-0.010701	0.173860
C45	C	0.621062	-0.442805	-0.282925
C46	C	1.121062	0.057195	0.217075
C47	C	0.691749	-0.442799	-0.282919
C48	C	1.191749	0.057201	0.217081
C49	C	0.335989	-0.442829	-0.282947
C50	C	0.835989	0.057171	0.217053
C51	C	0.265297	-0.442843	-0.282955
C52	C	0.765297	0.057157	0.217045
C53	C	0.265324	-0.578613	-0.369375
C54	C	0.765324	-0.078613	0.130625
C55	C	0.336011	-0.578606	-0.369369
C56	C	0.836011	-0.078606	0.130631
C57	C	0.371340	-0.510707	-0.326157
C58	C	0.871340	-0.010707	0.173843
C59	C	0.447988	-0.510705	-0.326148
C60	C	0.947988	-0.010705	0.173852
C61	C	0.509080	-0.510708	-0.326145
C62	C	1.009080	-0.010708	0.173855
C63	C	0.978157	-0.786126	-0.326124
C64	C	1.478157	-0.286126	0.173876
C65	C	0.978204	-0.903956	-0.326139
C66	C	1.478204	-0.403956	0.173861
C67	C	1.030412	-1.071502	-0.273737
C68	C	1.530412	-0.571502	0.226263
C69	C	1.030582	-0.948942	-0.273865
C70	C	1.530582	-0.448942	0.226135
C71	C	0.997546	-0.948344	-0.397486
C72	C	1.497546	-0.448344	0.102514
C73	C	0.997960	-1.070942	-0.397208
C74	C	1.497960	-0.570942	0.102792
C75	C	0.906635	-1.071282	-0.307898
C76	C	1.406635	-0.571282	0.192102
C77	C	0.906978	-0.948677	-0.306298
C78	C	1.406978	-0.448677	0.193702
C79	C	1.154734	-0.510717	-0.326162
C80	C	1.654734	-0.010717	0.173838
C81	C	1.229966	-0.510726	-0.326171
C82	C	1.729966	-0.010726	0.173829
C83	C	0.978229	-0.510629	-0.502682
C84	C	1.478229	-0.010629	-0.002682
C85	C	0.978245	-0.510601	-0.577914
C86	C	1.478245	-0.010601	-0.077914
C87	C	0.978243	-0.234191	-0.326170
C88	C	1.478243	0.265809	0.173830
C89	C	0.978266	-0.116361	-0.326184
C90	C	1.478266	0.383639	0.173816
C91	C	1.021549	-0.442800	-0.613273
C92	C	1.521549	0.057200	-0.113273
C93	C	1.021556	-0.442770	-0.683961
C94	C	1.521556	0.057230	-0.183961
C95	C	0.978262	-0.510546	-0.719290
C96	C	1.478262	-0.010546	-0.219290
C97	C	0.934953	-0.578349	-0.683927
C98	C	1.434953	-0.078349	-0.183927
C99	C	0.934943	-0.578374	-0.613240
C100	C	1.434943	-0.078374	-0.113240
C101	C	0.934991	-0.578250	-0.969000
C102	C	1.434991	-0.078250	-0.469000
C103	C	0.935006	-0.578223	-1.039692
C104	C	1.435006	-0.078223	-0.539692
C105	C	1.021604	-0.442646	-1.039722
C106	C	1.521604	0.057354	-0.539722
C107	C	1.021594	-0.442671	-0.969035
C108	C	1.521594	0.057329	-0.469035
C109	C	0.978283	-0.510470	-0.933678
C110	C	1.478283	-0.010470	-0.433678
C111	C	0.978275	-0.510501	-0.857029
C112	C	1.478275	-0.010501	-0.357029
C113	C	0.978273	-0.510521	-0.795937
C114	C	1.478273	-0.010521	-0.295937
C115	C	0.978192	-0.510686	-0.150284
C116	C	1.478192	-0.010686	0.349716
C117	C	0.978307	-0.510416	-0.075052
C118	C	1.478307	-0.010416	0.424948
H119	H	0.236511	-0.387559	-0.247770
H120	H	0.736511	0.112441	0.252230
H121	H	0.899699	-0.633530	-0.712697
H122	H	1.399699	-0.133530	-0.212697
H123	H	0.867782	-1.100293	-0.346097
H124	H	1.367782	-0.600293	0.153903
H125	H	0.592269	-0.387530	-0.247748
H126	H	1.092269	0.112470	0.252252
H127	H	0.866030	-0.918066	-0.341696
H128	H	1.366030	-0.418066	0.158304
F129	F	1.014798	-1.110128	-0.204386
F130	F	1.514798	-0.610128	0.295614
F131	F	1.067698	-0.370484	-1.077357
F132	F	1.567698	0.129516	-0.577357
H133	H	1.083636	-0.919535	-0.285960
H134	H	1.583636	-0.419535	0.214040
H135	H	1.056807	-0.387612	-0.584513
H136	H	1.556807	0.112388	-0.084513
H137	H	0.364796	-0.633886	-0.404551
H138	H	0.864796	-0.133886	0.095449
H139	H	0.899747	-0.633416	-1.068455
H140	H	1.399747	-0.133416	-0.568455
F141	F	0.227719	-0.650877	-0.415366
F142	F	0.727719	-0.150877	0.084634
H143	H	0.899734	-0.633472	-0.940221
H144	H	1.399734	-0.133472	-0.440221
H145	H	0.720556	-0.633862	-0.404519
H146	H	1.220556	-0.133862	0.095481
F147	F	0.373580	-0.370562	-0.236959
F148	F	0.873580	0.129438	0.263041
H149	H	1.083182	-1.102233	-0.285697
H150	H	1.583182	-0.602233	0.214303
F151	F	1.067670	-0.370643	-0.721589
F152	F	1.567670	0.129357	-0.221589
H153	H	0.592322	-0.633865	-0.404534
H154	H	1.092322	-0.133865	0.095466
H155	H	1.056852	-0.387484	-0.940273
H156	H	1.556852	0.112516	-0.440273
H157	H	0.899673	-0.633573	-0.584452
H158	H	1.399673	-0.133573	-0.084452
H159	H	0.720514	-0.387512	-0.247734
H160	H	1.220514	0.112488	0.252266
H161	H	1.018481	-0.918934	-0.220963
H162	H	1.518481	-0.418934	0.279037
F163	F	1.066396	-1.108215	-0.417452
F164	F	1.566396	-0.608215	0.082548
H165	H	0.961642	-1.100613	-0.437631
H166	H	1.461642	-0.600613	0.062369
F167	F	0.949410	-0.910265	-0.449932
F168	F	1.449410	-0.410265	0.050068
F169	F	1.065209	-0.908107	-0.418071
F170	F	1.565209	-0.408107	0.081929
F171	F	0.887913	-0.910766	-0.237671
F172	F	1.387913	-0.410766	0.262329
F173	F	0.883644	-1.111807	-0.241080
F174	F	1.383644	-0.611807	0.258920
