data_functionalizedCrystal
_audit_creation_method	'MofGen! by Chris Wilmer'
_symmetry_space_group_name_H-M	'P1'
_symmetry_Int_Tables_number	1
_symmetry_cell_setting	triclinic
loop_
_symmetry_equiv_pos_as_xyz
  x,y,z
_cell_length_a	19.805407
_cell_length_b	14.908178
_cell_length_c	19.805399
_cell_angle_alpha	86.674164
_cell_angle_beta	89.982278
_cell_angle_gamma	93.315719
loop_
_atom_site_label
_atom_site_type_symbol
_atom_site_fract_x
_atom_site_fract_y
_atom_site_fract_z
Zn1	Zn	1.019210	-0.359149	-0.367183
Zn2	Zn	1.012615	-0.510030	-0.247461
Zn3	Zn	0.906029	-0.359183	-0.254004
Zn4	Zn	0.899475	-0.509983	-0.360608
O5	O	0.959332	-0.434586	-0.307314
O6	O	1.113052	-0.379169	-0.351314
O7	O	0.998459	-0.490053	-0.153611
O8	O	0.926545	-0.232924	-0.274507
O9	O	1.108207	-0.490021	-0.263355
O10	O	1.009699	-0.232899	-0.357659
O11	O	0.920150	-0.379227	-0.158418
O12	O	0.810443	-0.379181	-0.268132
O13	O	0.915376	-0.489941	-0.456198
O14	O	0.805628	-0.489974	-0.346453
O15	O	1.003344	-0.379124	-0.461028
O16	O	0.992105	-0.636278	-0.256980
O17	O	0.908981	-0.636244	-0.340109
C18	C	0.783477	-0.434577	-0.307290
C19	C	0.708244	-0.434595	-0.307295
C20	C	0.248975	-0.376974	-0.353202
C21	C	0.319663	-0.376975	-0.353197
C22	C	0.352482	-0.434600	-0.307335
C23	C	0.314608	-0.492233	-0.261480
C24	C	0.243921	-0.492235	-0.261488
C25	C	0.599682	-0.492226	-0.261444
C26	C	0.670374	-0.492218	-0.261438
C27	C	0.675424	-0.376966	-0.353153
C28	C	0.604737	-0.376969	-0.353161
C29	C	0.566869	-0.434605	-0.307309
C30	C	0.490221	-0.434603	-0.307316
C31	C	0.429129	-0.434597	-0.307324
C32	C	0.949135	-0.668998	-0.297136
C33	C	0.944834	-0.769280	-0.292804
C34	C	1.023275	-0.957545	-0.371343
C35	C	1.019237	-1.051769	-0.367275
C36	C	0.932715	-1.051954	-0.280605
C37	C	0.936754	-0.957730	-0.284672
C38	C	0.982036	-0.910529	-0.330042
C39	C	0.986078	-0.816303	-0.334106
C40	C	0.899553	-0.816489	-0.247439
C41	C	0.895515	-0.910714	-0.243372
C42	C	1.135875	-0.434596	-0.307338
C43	C	1.211107	-0.434601	-0.307349
C44	C	0.959365	-0.434524	-0.483859
C45	C	0.959379	-0.434497	-0.559092
C46	C	0.969588	-0.199259	-0.317547
C47	C	0.973959	-0.098977	-0.321907
C48	C	0.918616	-0.376784	-0.596940
C49	C	0.918626	-0.376767	-0.667629
C50	C	0.959403	-0.434458	-0.700470
C51	C	1.000167	-0.492177	-0.662617
C52	C	1.000153	-0.492199	-0.591929
C53	C	1.000225	-0.492093	-0.947695
C54	C	1.000237	-0.492065	-1.018388
C55	C	0.918697	-0.376661	-1.023394
C56	C	0.918683	-0.376682	-0.952706
C57	C	0.959445	-0.434404	-0.914860
C58	C	0.959432	-0.434424	-0.838210
C59	C	0.959419	-0.434435	-0.777118
C60	C	0.959342	-0.434584	-0.131458
C61	C	0.959470	-0.434356	-0.056236
H62	H	0.697093	-0.539146	-0.224090
H63	H	1.060150	-0.919114	-0.408280
H64	H	0.885481	-0.329701	-0.925971
C65	C	0.873853	-0.313171	-1.065031
N66	N	0.840078	-0.265351	-1.096391
H67	H	0.865976	-0.778198	-0.213808
C68	C	1.045093	-0.555539	-1.054511
N69	N	1.078876	-0.603346	-1.081719
C70	C	0.202266	-0.555627	-0.211045
N71	N	0.170892	-0.603377	-0.173050
H72	H	1.022950	-0.777873	-0.371047
C73	C	0.873757	-0.313318	-0.560821
N74	N	0.839965	-0.265516	-0.533619
H75	H	1.033407	-0.539104	-0.916888
H76	H	1.052814	-1.090047	-0.400910
H77	H	0.222260	-0.330044	-0.390544
C78	C	0.873791	-0.313268	-0.709258
N79	N	0.840021	-0.265436	-0.740613
H80	H	1.033365	-0.539155	-0.689362
C81	C	0.882989	-1.103891	-0.230622
N82	N	0.845566	-1.143012	-0.192944
C83	C	0.845750	-0.962645	-0.193425
N84	N	0.808282	-1.001760	-0.155787
H85	H	0.350493	-0.330053	-0.390537
C86	C	0.568641	-0.313579	-0.403614
N87	N	0.541454	-0.265835	-0.441618
H88	H	0.706265	-0.330039	-0.390490
C89	C	0.558037	-0.555612	-0.210994
N90	N	0.526668	-0.603353	-0.172989
C91	C	1.044999	-0.555683	-0.550298
N92	N	1.078777	-0.603503	-0.518942
H93	H	0.341335	-0.539155	-0.224141
