data_functionalizedCrystal
_audit_creation_method	'MofGen! by Chris Wilmer'
_symmetry_space_group_name_H-M	'P1'
_symmetry_Int_Tables_number	1
_symmetry_cell_setting	triclinic
loop_
_symmetry_equiv_pos_as_xyz
  x,y,z
_cell_length_a	13.339070
_cell_length_b	23.532407
_cell_length_c	12.376457
_cell_angle_alpha	101.199798
_cell_angle_beta	75.589755
_cell_angle_gamma	99.238986
loop_
_atom_site_label
_atom_site_type_symbol
_atom_site_fract_x
_atom_site_fract_y
_atom_site_fract_z
O1	O	1.358915	0.277209	-0.094091
O2	O	1.064762	0.239795	-0.094078
O3	O	1.220704	0.177002	-0.094064
O4	O	1.202972	0.340002	-0.094105
O5	O	1.181733	0.192673	0.093944
O6	O	1.025790	0.255466	0.093930
O7	O	1.319944	0.292880	0.093918
Zn8	Zn	1.166679	0.276661	0.123774
Zn9	Zn	1.218026	0.256014	-0.123935
O10	O	1.164001	0.355673	0.093904
C11	C	1.007650	0.241311	-0.000072
C12	C	0.895536	0.222472	-0.000066
C13	C	0.529282	0.368949	-0.000121
C14	C	0.634619	0.386650	-0.000130
C15	C	0.699853	0.345607	-0.000113
C16	C	0.659741	0.286860	-0.000089
C17	C	0.554396	0.269156	-0.000089
C18	C	0.724966	0.245815	-0.000082
C19	C	0.684854	0.187068	-0.000057
C20	C	0.579519	0.169367	-0.000056
C21	C	0.514285	0.210410	-0.000073
C22	C	0.830312	0.263518	-0.000082
C23	C	0.855425	0.163726	-0.000050
C24	C	0.750088	0.146025	-0.000041
C25	C	1.200766	0.163549	-0.000057
C26	C	1.199406	0.100114	-0.000048
C27	C	1.283186	-0.285491	-0.000114
C28	C	1.281926	-0.345096	-0.000122
O29	O	1.359588	-0.369326	-0.000168
N30	N	1.189215	-0.382667	-0.000118
C31	C	1.097761	-0.360632	-0.000116
O32	O	1.018788	-0.398062	-0.000114
C33	C	1.099024	-0.301029	-0.000115
C34	C	1.191738	-0.263460	-0.000109
C35	C	1.375893	-0.247923	-0.000109
C36	C	1.377152	-0.188322	-0.000098
C37	C	1.285704	-0.166291	-0.000093
C38	C	1.192997	-0.203859	-0.000098
C39	C	1.007572	-0.278996	-0.000122
C40	C	1.008843	-0.219388	-0.000122
C41	C	1.101558	-0.181819	-0.000115
C42	C	1.102808	-0.122227	-0.000082
N43	N	1.195519	-0.084656	-0.000087
C44	C	1.286967	-0.106688	-0.000092
C45	C	1.095117	-0.485801	-0.000119
C46	C	1.093851	-0.545402	-0.000111
C47	C	1.278017	-0.529862	-0.000120
C48	C	1.279280	-0.470259	-0.000119
C49	C	1.187828	-0.448230	-0.000124
C50	C	1.289604	0.018477	-0.000069
C51	C	1.290854	0.078082	-0.000054
C52	C	1.106690	0.062536	-0.000051
C53	C	1.105438	0.002937	-0.000060
C54	C	1.196904	-0.019091	-0.000073
O55	O	1.025189	-0.097956	-0.000042
O56	O	1.365930	-0.069253	-0.000109
C57	C	1.377056	0.291365	-0.000091
C58	C	1.489171	0.310202	-0.000104
C59	C	1.183940	0.369126	-0.000106
C60	C	1.185301	0.432561	-0.000122
N61	N	1.131644	0.290753	0.292830
N62	N	1.253069	0.241919	-0.292990
C63	C	1.334398	0.209197	0.647833
C64	C	1.358914	0.199333	0.529495
C65	C	1.302098	0.222187	0.470323
C66	C	1.220763	0.254907	0.529500
C67	C	1.196250	0.264775	0.647849
C68	C	1.163950	0.277766	0.470339
C69	C	1.082615	0.310485	0.529516
C70	C	1.058106	0.320352	0.647854
C71	C	1.114922	0.297498	0.707026
C72	C	1.188463	0.267897	0.351990
C73	C	1.050315	0.323476	0.352007
C74	C	1.025800	0.333339	0.470344
H75	H	0.476162	0.402358	-0.000144
C76	C	1.461290	-0.297881	0.096535
C77	C	1.476422	-0.272135	-0.000112
H78	H	1.523354	-0.312827	0.096533
H79	H	1.444361	-0.269492	0.162084
H80	H	1.405901	-0.328790	0.096522
H81	H	1.531806	-0.241223	-0.000095
H82	H	1.493364	-0.300526	-0.065678
C83	C	0.929308	0.076062	-0.096675
C84	C	0.927121	0.118606	-0.000033
H85	H	0.973581	0.048212	-0.096669
H86	H	0.860839	0.057114	-0.096665
H87	H	0.955006	0.094008	-0.162235
H88	H	0.901417	0.100661	0.065527
H89	H	0.995604	0.137557	-0.000033
H90	H	1.452651	-0.157738	-0.000097
C91	C	0.719012	0.063572	0.096635
C92	C	0.705990	0.081450	-0.000023
H93	H	0.691781	0.023707	0.096646
H94	H	0.791076	0.068236	0.096627
H95	H	0.682993	0.086642	0.162184
H96	H	0.742016	0.058383	-0.065573
H97	H	0.633913	0.076781	-0.000025
H98	H	1.380655	0.190596	0.696018
H99	H	1.004052	0.342087	0.303829
H100	H	0.991886	0.347000	0.696036
C101	C	0.957929	0.425415	0.506772
C102	C	0.936398	0.369306	0.535394
H103	H	0.902731	0.447617	0.546927
H104	H	1.021246	0.443877	0.526155
H105	H	0.964394	0.422804	0.427823
H106	H	0.929940	0.371918	0.614343
H107	H	0.873063	0.350840	0.516019
H108	H	0.785623	0.360023	-0.000123
H109	H	1.366356	0.108670	-0.000045
C110	C	1.412419	0.177791	0.300797
C111	C	1.329036	0.211339	0.340244
H112	H	1.429043	0.171089	0.220489
H113	H	1.471340	0.198030	0.327541
H114	H	1.393414	0.141498	0.327597
H115	H	1.348045	0.247635	0.313451
H116	H	1.270103	0.191101	0.313488
H117	H	1.364085	0.000549	-0.000084
H118	H	0.862960	0.311351	-0.000097
C119	C	1.461190	-0.460900	-0.000136
C120	C	1.381197	-0.428967	-0.000130
H121	H	1.524113	-0.435410	-0.000153
H122	H	1.443276	-0.479006	0.065427
H123	H	1.470441	-0.489936	-0.065699
H124	H	1.371940	-0.399934	0.065438
H125	H	1.399114	-0.410852	-0.065699
H126	H	0.428510	0.196001	-0.000065
C127	C	0.599205	0.483509	-0.000152
C128	C	0.678706	0.451221	-0.000146
H129	H	0.626424	0.523375	-0.000154
H130	H	0.572236	0.469065	-0.065710
H131	H	0.545047	0.479989	0.065416
H132	H	0.732861	0.454738	-0.065719
H133	H	0.705691	0.465669	0.065419
C134	C	0.911942	-0.554760	-0.000105
C135	C	0.991935	-0.586693	-0.000109
H136	H	0.849025	-0.580253	-0.000116
H137	H	0.902678	-0.525734	0.065459
H138	H	0.929870	-0.536645	-0.065667
H139	H	0.974011	-0.604805	0.065458
H140	H	1.001199	-0.615730	-0.065679
H141	H	0.546866	0.121531	-0.000049
H142	H	1.352480	-0.547811	-0.000128
C143	C	1.009699	-0.435845	-0.096755
C144	C	0.994578	-0.461589	-0.000108
H145	H	0.947629	-0.420904	-0.096751
H146	H	1.065078	-0.404938	-0.096750
H147	H	1.026628	-0.464238	-0.162311
H148	H	0.977656	-0.433195	0.065449
H149	H	0.939182	-0.492500	-0.000103
H150	H	1.425137	0.172693	0.481317
C151	C	0.825674	-0.288346	-0.000147
C152	C	0.905658	-0.320282	-0.000139
H153	H	0.762756	-0.313836	-0.000166
H154	H	0.816406	-0.259320	0.065417
H155	H	0.843613	-0.270230	-0.065709
H156	H	0.887723	-0.338395	0.065428
H157	H	0.914926	-0.349319	-0.065709
H158	H	0.934370	-0.201456	-0.000127
H159	H	1.029936	-0.027651	-0.000034
H160	H	1.032235	0.080486	-0.000042
H161	H	1.254686	0.241257	0.303819
H162	H	1.094959	0.305527	0.803387
