data_functionalizedCrystal
_audit_creation_method	'MofGen! by Chris Wilmer'
_symmetry_space_group_name_H-M	'P1'
_symmetry_Int_Tables_number	1
_symmetry_cell_setting	triclinic
loop_
_symmetry_equiv_pos_as_xyz
  x,y,z
_cell_length_a	17.699083
_cell_length_b	10.268362
_cell_length_c	17.699103
_cell_angle_alpha	89.989758
_cell_angle_beta	96.712962
_cell_angle_gamma	89.998556
loop_
_atom_site_label
_atom_site_type_symbol
_atom_site_fract_x
_atom_site_fract_y
_atom_site_fract_z
O1	O	1.004083	0.108132	-0.095711
O2	O	0.783705	0.108177	-0.108163
O3	O	0.900112	0.108128	0.008251
O4	O	0.887675	0.108180	-0.212125
O5	O	0.900102	-0.108473	0.008256
O6	O	0.783695	-0.108424	-0.108158
O7	O	1.004073	-0.108469	-0.095706
Cu8	Cu	0.893883	-0.128224	-0.101932
Cu9	Cu	0.893895	0.127932	-0.101937
O10	O	0.887665	-0.108420	-0.212120
C11	C	0.755503	-0.000118	-0.107715
C12	C	0.671485	-0.000103	-0.106376
N13	N	0.893880	-0.308390	-0.101927
C14	C	0.622869	-0.000087	-0.174709
C15	C	0.543925	-0.000104	-0.173447
C16	C	0.513600	-0.000128	-0.103851
C17	C	0.562222	-0.000147	-0.035513
C18	C	0.641164	-0.000140	-0.036776
C19	C	0.243859	-0.000181	-0.030418
C20	C	0.164910	-0.000185	-0.029160
C21	C	0.146620	-0.000145	-0.167088
C22	C	0.225562	-0.000137	-0.168351
C23	C	0.274177	-0.000164	-0.100014
C24	C	0.359777	-0.000148	-0.101383
C25	C	0.428002	-0.000134	-0.102480
C26	C	0.893891	-0.574060	-0.101936
C27	C	0.893882	-0.426222	-0.101933
C28	C	1.032275	-0.000171	-0.096155
C29	C	1.116293	-0.000178	-0.097493
C30	C	0.899659	-0.000176	0.036450
C31	C	0.898315	-0.000186	0.120468
N32	N	0.893904	0.308097	-0.101936
C33	C	0.888119	-0.000113	-0.240320
C34	C	0.889463	-0.000094	-0.324337
C35	C	0.890096	0.117969	0.636176
C36	C	0.891358	0.117958	0.557233
C37	C	0.891982	-0.000119	0.517777
C38	C	0.891352	-0.118192	0.557270
C39	C	0.890095	-0.118179	0.636212
C40	C	0.896422	-0.118248	0.238903
C41	C	0.897676	-0.118252	0.159955
C42	C	0.897685	0.117889	0.159924
C43	C	0.896428	0.117902	0.238867
C44	C	0.895802	-0.000170	0.278353
C45	C	0.894434	-0.000156	0.363952
C46	C	0.893344	-0.000135	0.432178
H47	H	0.647553	-0.000067	-0.231382
H48	H	0.891875	0.214097	0.525087
H49	H	0.504345	-0.000090	-0.229090
H50	H	0.889579	-0.214319	0.668361
H51	H	0.889581	0.214122	0.668295
H52	H	0.107027	-0.000130	-0.222732
H53	H	0.898197	0.214029	0.127765
H54	H	0.140223	-0.000206	0.027517
Br55	Br	0.707144	-0.000172	0.055965
H56	H	0.283432	-0.000204	0.025227
H57	H	0.895916	0.214053	0.270987
Br58	Br	0.895566	-0.278488	0.292481
Br59	Br	0.898521	-0.278510	0.106407
H60	H	0.537525	-0.000185	0.021153
Br61	Br	0.266714	-0.000093	-0.262806
Br62	Br	0.892206	-0.278442	0.503725
