data_functionalizedCrystal
_audit_creation_method	'MofGen! by Chris Wilmer'
_symmetry_space_group_name_H-M	'P1'
_symmetry_Int_Tables_number	1
_symmetry_cell_setting	triclinic
loop_
_symmetry_equiv_pos_as_xyz
  x,y,z
_cell_length_a	17.077404
_cell_length_b	17.077402
_cell_length_c	17.077396
_cell_angle_alpha	90.029784
_cell_angle_beta	90.019699
_cell_angle_gamma	90.019951
loop_
_atom_site_label
_atom_site_type_symbol
_atom_site_fract_x
_atom_site_fract_y
_atom_site_fract_z
Zn1	Zn	-1.200055	0.312570	-0.443840
Zn2	Zn	-1.199962	0.443844	-0.312571
Zn3	Zn	-1.068786	0.312590	-0.312587
Zn4	Zn	-1.068754	0.443791	-0.443794
O5	O	-1.134389	0.378199	-0.378198
O6	O	-1.309889	0.329997	-0.426439
O7	O	-1.182536	0.426464	-0.202726
O8	O	-1.086252	0.202740	-0.330024
O9	O	-1.309821	0.426445	-0.329996
O10	O	-1.182694	0.202725	-0.426455
O11	O	-1.086162	0.330032	-0.202738
O12	O	-0.958935	0.329980	-0.329980
O13	O	-1.086197	0.426353	-0.553647
O14	O	-0.958912	0.426373	-0.426377
O15	O	-1.182663	0.329945	-0.553681
O16	O	-1.182505	0.553684	-0.329952
O17	O	-1.086107	0.553645	-0.426361
C18	C	-0.930441	0.378173	-0.378176
C19	C	-0.843192	0.378181	-0.378185
C20	C	-0.802238	0.328050	-0.428478
C21	C	-0.720257	0.328054	-0.428480
C22	C	-0.679232	0.378193	-0.378191
C23	C	-0.720192	0.428327	-0.327892
C24	C	-0.802171	0.428318	-0.327887
C25	C	-0.549322	0.428342	-0.327908
C26	C	-0.467337	0.428351	-0.327914
C27	C	-0.467408	0.328077	-0.428500
C28	C	-0.549387	0.328069	-0.428495
C29	C	-0.590341	0.378203	-0.378197
C30	C	-1.134314	0.582146	-0.378167
C31	C	-1.134353	0.669396	-0.378179
C32	C	-1.134437	0.378141	-0.582942
C33	C	-1.134457	0.378116	-0.670192
C34	C	-0.339134	0.378221	-0.378215
C35	C	-0.426383	0.378220	-0.378207
C36	C	-1.134487	0.173454	-0.378247
C37	C	-1.134528	0.086204	-0.378267
C38	C	-1.184598	0.710381	-0.328033
C39	C	-1.184637	0.792361	-0.328053
C40	C	-1.134425	0.833356	-0.378216
C41	C	-1.084178	0.792365	-0.428368
C42	C	-1.084144	0.710386	-0.428351
C43	C	-1.084250	0.963235	-0.428398
C44	C	-1.084283	1.045220	-0.428414
C45	C	-1.184743	1.045210	-0.328100
C46	C	-1.184709	0.963231	-0.328083
C47	C	-1.134461	0.922247	-0.378234
C48	C	-1.184689	0.327913	-0.711201
C49	C	-1.184698	0.327886	-0.793182
C50	C	-1.134479	0.378068	-0.834152
C51	C	-1.084242	0.428274	-0.793137
C52	C	-1.084229	0.428296	-0.711158
C53	C	-1.084274	0.428227	-0.964007
C54	C	-1.084288	0.428207	-1.045992
C55	C	-1.184742	0.327818	-1.046031
C56	C	-1.184730	0.327839	-0.964052
C57	C	-1.134493	0.378046	-0.923043
C58	C	-1.134387	0.378200	-0.174250
C59	C	-1.134519	0.378003	-0.087001
H60	H	-0.433937	0.469180	-0.286965
H61	H	-0.686916	0.287233	-0.469435
C62	C	-0.594513	0.272911	-0.483814
N63	N	-0.628502	0.231363	-0.525477
H64	H	-1.225483	0.677009	-0.287181
H65	H	-1.225603	0.287007	-0.826567
H66	H	-1.225645	0.286936	-1.079424
H67	H	-1.043298	0.825749	-0.469215
C68	C	-1.240024	1.090295	-0.272939
N69	N	-1.281660	1.124256	-0.231394
H70	H	-1.043318	0.469169	-0.677769
H71	H	-0.582664	0.469165	-0.286948
H72	H	-1.043411	1.078595	-0.469275
H73	H	-1.225626	0.286981	-0.930696
C74	C	-0.847358	0.272891	-0.483799
N75	N	-0.881340	0.231340	-0.525467
C76	C	-1.028967	0.918154	-0.483560
N77	N	-0.987323	0.884199	-0.525102
C78	C	-1.028870	0.665304	-0.483517
N79	N	-0.987238	0.631348	-0.525071
C80	C	-0.847220	0.483469	-0.272562
N81	N	-0.881149	0.525008	-0.230888
C82	C	-1.239932	0.918139	-0.272889
N83	N	-1.281525	0.884176	-0.231313
C84	C	-1.029014	0.483460	-0.918899
N85	N	-0.987397	0.525065	-0.884924
C86	C	-0.422357	0.272931	-0.483832
N87	N	-0.388422	0.231400	-0.525509
C88	C	-1.239933	0.272707	-0.666142
N89	N	-1.281543	0.231121	-0.632205
C90	C	-0.675061	0.483480	-0.272573
N91	N	-0.641070	0.525025	-0.230908
C92	C	-1.029040	0.483405	-1.091057
N93	N	-0.987425	0.524979	-1.125000
H94	H	-1.225551	0.825727	-0.287218
H95	H	-1.043350	0.469130	-0.826501
