data_functionalizedCrystal
_audit_creation_method	'MofGen! by Chris Wilmer'
_symmetry_space_group_name_H-M	'P1'
_symmetry_Int_Tables_number	1
_symmetry_cell_setting	triclinic
loop_
_symmetry_equiv_pos_as_xyz
  x,y,z
_cell_length_a	19.288874
_cell_length_b	19.288859
_cell_length_c	17.766277
_cell_angle_alpha	89.989768
_cell_angle_beta	89.993108
_cell_angle_gamma	83.136975
loop_
_atom_site_label
_atom_site_type_symbol
_atom_site_fract_x
_atom_site_fract_y
_atom_site_fract_z
O1	O	0.086628	0.921359	-0.062610
O2	O	0.586628	1.421359	0.437390
O3	O	0.098321	0.719098	-0.062608
O4	O	0.598321	1.219098	0.437392
O5	O	-0.008655	0.826069	-0.062603
O6	O	0.491345	1.326069	0.437397
O7	O	0.193604	0.814388	-0.062615
O8	O	0.693604	1.314388	0.437385
O9	O	-0.008661	0.826050	0.062585
O10	O	0.491339	1.326050	0.562585
O11	O	0.098316	0.719079	0.062580
O12	O	0.598316	1.219079	0.562580
O13	O	0.086623	0.921340	0.062579
O14	O	0.586623	1.421340	0.562579
Cu15	Cu	0.092469	0.820208	0.074010
Cu16	Cu	0.592469	1.320208	0.574010
Cu17	Cu	0.092475	0.820230	-0.074040
Cu18	Cu	0.592475	1.320230	0.425960
O19	O	0.193599	0.814369	0.062574
O20	O	0.693599	1.314369	0.562574
C21	C	0.097943	0.693212	-0.000014
C22	C	0.597943	1.193212	0.499986
C23	C	0.096816	0.616108	-0.000013
C24	C	0.596816	1.116108	0.499987
C25	C	-0.034535	0.825683	-0.000009
C26	C	0.465465	1.325683	0.499991
C27	C	-0.111638	0.824551	-0.000009
C28	C	0.388362	1.324551	0.499991
C29	C	0.151959	0.052069	-0.000017
C30	C	0.651959	0.552069	0.499983
C31	C	0.153024	0.124516	-0.000021
C32	C	0.653024	0.624516	0.499979
C33	C	0.090255	0.169221	-0.000016
C34	C	0.590255	0.669221	0.499984
C35	C	0.026416	0.141473	-0.000026
C36	C	0.526416	0.641473	0.499974
C37	C	0.025352	0.069028	-0.000030
C38	C	0.525352	0.569028	0.499970
C39	C	0.043440	0.290483	0.043848
C40	C	0.543440	0.790483	0.543848
C41	C	0.044506	0.362926	0.043857
C42	C	0.544506	0.862926	0.543857
C43	C	0.093532	0.392666	-0.000009
C44	C	0.593532	0.892666	0.499991
C45	C	0.141504	0.349953	-0.043872
C46	C	0.641504	0.849953	0.456128
C47	C	0.140441	0.277507	-0.043876
C48	C	0.640441	0.777507	0.456124
C49	C	0.091401	0.247776	-0.000013
C50	C	0.591401	0.747776	0.499987
C51	C	0.158523	0.498960	-0.000008
C52	C	0.658523	0.998960	0.499992
C53	C	0.159585	0.571409	-0.000017
C54	C	0.659585	1.071409	0.499983
C55	C	0.032975	0.588365	-0.000014
C56	C	0.532975	1.088365	0.499986
C57	C	0.031915	0.515918	-0.000013
C58	C	0.531915	1.015918	0.499987
C59	C	0.094690	0.471220	-0.000007
C60	C	0.594690	0.971220	0.499993
C61	C	-0.667210	0.816415	0.068213
C62	C	-0.167210	1.316415	0.568213
C63	C	-0.594762	0.817471	0.068217
C64	C	-0.094762	1.317471	0.568217
C65	C	-0.558528	0.818012	-0.000023
C66	C	-0.058528	1.318012	0.499977
C67	C	-0.594745	0.817480	-0.068271
C68	C	-0.094745	1.317480	0.431729
C69	C	-0.667191	0.816417	-0.068273
C70	C	-0.167191	1.316417	0.431727
C71	C	-0.449195	0.860386	-0.052302
C72	C	0.050805	1.360386	0.447698
C73	C	-0.376752	0.861453	-0.052297
C74	C	0.123248	1.361453	0.447703
C75	C	-0.335082	0.821287	-0.000019
C76	C	0.164918	1.321287	0.499981
C77	C	-0.365865	0.780064	0.052266
C78	C	0.134135	1.280064	0.552266
C79	C	-0.438311	0.779001	0.052264
C80	C	0.061689	1.279001	0.552264
C81	C	-0.479973	0.819164	-0.000028
C82	C	0.020027	1.319164	0.499972
C83	C	-0.220317	0.822959	0.068230
C84	C	0.279683	1.322959	0.568230
C85	C	-0.147867	0.824011	0.068231
C86	C	0.352133	1.324011	0.568231
C87	C	-0.147852	0.824027	-0.068259
C88	C	0.352148	1.324027	0.431741
C89	C	-0.220300	0.822968	-0.068258
C90	C	0.279700	1.322968	0.431742
C91	C	-0.256528	0.822438	-0.000012
C92	C	0.243472	1.322438	0.499988
C93	C	0.219478	0.814755	-0.000022
C94	C	0.719478	1.314755	0.499978
C95	C	0.296581	0.815887	-0.000027
C96	C	0.796581	1.315887	0.499973
C97	C	0.087001	0.947226	-0.000018
C98	C	0.587001	1.447226	0.499982
C99	C	0.088128	1.024330	-0.000023
C100	C	0.588128	1.524330	0.499977
N101	N	0.092464	0.820197	0.178141
N102	N	0.592464	1.320197	0.678141
N103	N	0.092474	0.820246	-0.178170
N104	N	0.592474	1.320246	0.321830
C105	C	0.045118	0.867580	0.217530
C106	C	0.545118	1.367580	0.717530
C107	C	0.045114	0.867584	0.296331
C108	C	0.545114	1.367584	0.796331
C109	C	0.092469	0.820212	0.335741
C110	C	0.592469	1.320212	0.835741
C111	C	0.139819	0.772821	0.296342
C112	C	0.639819	1.272821	0.796342
C113	C	0.139816	0.772814	0.217542
C114	C	0.639816	1.272814	0.717542
C115	C	0.155757	0.810915	0.460575
C116	C	0.655757	1.310915	0.960575
C117	C	0.155760	0.810928	0.539374
C118	C	0.655760	1.310928	1.039374
C119	C	0.092478	0.820231	0.578787
C120	C	0.592478	1.320231	1.078787
C121	C	0.029188	0.829536	0.539392
C122	C	0.529188	1.329536	1.039392
C123	C	0.029185	0.829529	0.460592
C124	C	0.529185	1.329529	0.960592
C125	C	0.092477	0.820214	0.421187
C126	C	0.592477	1.320214	0.921187
C127	C	0.045124	0.867620	0.703622
C128	C	0.545124	1.367620	1.203622
C129	C	0.045120	0.867619	0.782426
C130	C	0.545120	1.367619	1.282426
C131	C	0.139830	0.772860	0.782435
C132	C	0.639830	1.272860	1.282435
C133	C	0.139829	0.772857	0.703633
C134	C	0.639829	1.272857	1.203633
C135	C	0.092476	0.820241	0.664232
C136	C	0.592476	1.320241	1.164232
H137	H	0.205004	0.147106	-0.000009
H138	H	0.705004	0.647106	0.499991
O139	O	0.221548	0.598444	0.000078
O140	O	0.721548	1.098444	0.500078
C141	C	0.296234	0.670369	0.064937
C142	C	0.796234	1.170369	0.564937
C143	C	0.226032	0.639806	0.064922
C144	C	0.726032	1.139806	0.564922
H145	H	0.299889	0.703805	0.117366
H146	H	0.799889	1.203805	0.617366
H147	H	0.299903	0.703911	0.012576
H148	H	0.799903	1.203911	0.512576
H149	H	0.340908	0.625969	0.064901
H150	H	0.840908	1.125969	0.564901
H151	H	0.181317	0.684162	0.064984
H152	H	0.681317	1.184162	0.564984
H153	H	0.222424	0.606246	0.117278
H154	H	0.722424	1.106246	0.617278
H155	H	-0.018132	0.624763	-0.000016
H156	H	0.481868	1.124763	0.499984
H157	H	-0.249782	0.822543	-0.123827
H158	H	0.250218	1.322543	0.376173
O159	O	-0.346961	0.901511	-0.103156
O160	O	0.153039	1.401511	0.396844
C161	C	-0.365409	0.982152	-0.206845
C162	C	0.134591	1.482152	0.293155
C163	C	-0.399233	0.936803	-0.149300
C164	C	0.100767	1.436803	0.350700
H165	H	-0.407657	1.010708	-0.244157
H166	H	0.092343	1.510708	0.255843
H167	H	-0.326794	0.947479	-0.243175
H168	H	0.173206	1.447479	0.256825
H169	H	-0.336734	1.021881	-0.175763
H170	H	0.163266	1.521881	0.324237
H171	H	-0.427945	0.897069	-0.180320
H172	H	0.072055	1.397069	0.319680
H173	H	-0.437811	0.971520	-0.112972
H174	H	0.062189	1.471520	0.387028
H175	H	-0.483117	0.893090	-0.094881
H176	H	0.016883	1.393090	0.405119
O177	O	-0.468283	0.738908	0.102942
O178	O	0.031717	1.238908	0.602942
C179	C	-0.537543	0.644357	0.121919
C180	C	-0.037543	1.144357	0.621919
C181	C	-0.503652	0.689727	0.064449
C182	C	-0.003652	1.189727	0.564449
H183	H	-0.566135	0.604575	0.090820
H184	H	-0.066135	1.104575	0.590820
H185	H	-0.576224	0.679014	0.158193
H186	H	-0.076224	1.179014	0.658193
H187	H	-0.495312	0.615864	0.159299
H188	H	0.004688	1.115864	0.659299
H189	H	-0.545834	0.718228	0.027020
H190	H	-0.045834	1.218228	0.527020
H191	H	-0.464956	0.655035	0.028229
H192	H	0.035044	1.155035	0.528229
H193	H	0.178375	0.734249	0.328434
H194	H	0.678375	1.234249	0.828434
H195	H	-0.118350	0.824460	-0.123821
H196	H	0.381650	1.324460	0.376179
H197	H	0.203076	0.015680	-0.000015
H198	H	0.703076	0.515680	0.499985
H199	H	-0.331939	0.747359	0.094838
H200	H	0.168061	1.247359	0.594838
O201	O	-0.030152	0.489083	0.000024
O202	O	0.469848	0.989083	0.500024
C203	C	-0.155617	0.513549	-0.000016
C204	C	0.344383	1.013549	0.499984
C205	C	-0.085373	0.544030	-0.000038
C206	C	0.414627	1.044030	0.499962
H207	H	-0.200281	0.557958	-0.000083
H208	H	0.299719	1.057958	0.499917
H209	H	-0.159331	0.480071	0.052386
H210	H	0.340669	0.980071	0.552386
H211	H	-0.159239	0.480041	-0.052396
H212	H	0.340761	0.980041	0.447604
H213	H	-0.081704	0.577570	0.052306
H214	H	0.418296	1.077570	0.552306
H215	H	-0.081689	0.577468	-0.052475
H216	H	0.418311	1.077468	0.447525
H217	H	-0.022347	0.837104	0.428519
H218	H	0.477653	1.337104	0.928519
H219	H	-0.249814	0.822522	0.123800
H220	H	0.250186	1.322522	0.623800
H221	H	-0.565238	0.817918	-0.123832
H222	H	-0.065238	1.317918	0.376168
O223	O	-0.559520	0.818079	0.134463
O224	O	-0.059520	1.318079	0.634463
C225	C	-0.485837	0.879459	0.213696
C226	C	0.014163	1.379459	0.713696
C227	C	-0.525696	0.878850	0.138637
C228	C	-0.025696	1.378850	0.638637
H229	H	-0.458491	0.928594	0.217102
H230	H	0.041509	1.428594	0.717102
H231	H	-0.445368	0.831391	0.217129
H232	H	0.054632	1.331391	0.717129
H233	H	-0.524189	0.878860	0.262454
H234	H	-0.024189	1.378860	0.762454
H235	H	-0.487397	0.879473	0.089837
H236	H	0.012603	1.379473	0.589837
H237	H	-0.566174	0.926913	0.135269
H238	H	-0.066174	1.426913	0.635269
H239	H	-0.696671	0.815986	-0.123844
H240	H	-0.196671	1.315986	0.376156
H241	H	0.207294	0.803355	0.571444
H242	H	0.707294	1.303355	1.071444
H243	H	-0.118387	0.824439	0.123802
H244	H	0.381613	1.324439	0.623802
H245	H	0.006559	0.906160	0.185451
H246	H	0.506559	1.406160	0.685451
O247	O	-0.000909	0.913677	0.334488
O248	O	0.499091	1.413677	0.834488
C249	C	-0.094878	1.007633	0.326169
C250	C	0.405122	1.507633	0.826169
C251	C	-0.042782	0.955485	0.282866
C252	C	0.457218	1.455485	0.782866
H253	H	-0.128755	1.041438	0.284451
H254	H	0.371245	1.541438	0.784451
H255	H	-0.065013	1.042285	0.363027
H256	H	0.434987	1.542285	0.863027
H257	H	-0.129466	0.977741	0.363095
H258	H	0.370534	1.477741	0.863095
H259	H	-0.008180	0.985320	0.245899
H260	H	0.491820	1.485320	0.745899
H261	H	-0.072689	0.920833	0.246055
H262	H	0.427311	1.420833	0.746055
O263	O	-0.032279	0.838450	0.577696
O264	O	0.467721	1.338450	1.077696
C265	C	-0.107394	0.789761	0.666712
C266	C	0.392606	1.289761	1.166712
C267	C	-0.037771	0.779566	0.623367
C268	C	0.462229	1.279566	1.123367
H269	H	-0.111851	0.742168	0.703659
H270	H	0.388149	1.242168	1.203659
H271	H	-0.152650	0.796369	0.625049
H272	H	0.347350	1.296369	1.125049
H273	H	-0.109204	0.838325	0.703558
H274	H	0.390796	1.338325	1.203558
H275	H	-0.035893	0.731000	0.586519
H276	H	0.464107	1.231000	1.086519
H277	H	0.007453	0.772998	0.665071
H278	H	0.507453	1.272998	1.165071
O279	O	-0.001997	0.404435	0.086551
O280	O	0.498003	0.904435	0.586551
C281	C	-0.018432	0.488604	0.187118
C282	C	0.481568	0.988604	0.687118
C283	C	0.034309	0.441617	0.138835
C284	C	0.534309	0.941617	0.638835
H285	H	0.010901	0.518688	0.229391
H286	H	0.510901	1.018688	0.729391
H287	H	-0.053656	0.454939	0.218518
H288	H	0.446344	0.954939	0.718518
H289	H	-0.051594	0.527007	0.149148
H290	H	0.448406	1.027007	0.649148
H291	H	0.067518	0.403206	0.176751
H292	H	0.567518	0.903206	0.676751
H293	H	0.069484	0.475326	0.107427
H294	H	0.569484	0.975326	0.607427
H295	H	0.179500	0.242732	-0.079593
H296	H	0.679500	0.742732	0.420407
H297	H	0.006565	0.906200	0.671540
H298	H	0.506565	1.406200	1.171540
O299	O	-0.000900	0.913717	0.820574
O300	O	0.499100	1.413717	1.320574
C301	C	-0.094854	1.007687	0.812245
C302	C	0.405146	1.507687	1.312245
C303	C	-0.042764	0.955528	0.768948
C304	C	0.457236	1.455528	1.268948
H305	H	-0.128724	1.041495	0.770524
H306	H	0.371276	1.541495	1.270524
H307	H	-0.064984	1.042336	0.849103
H308	H	0.435016	1.542336	1.349103
H309	H	-0.129450	0.977804	0.849172
H310	H	0.370550	1.477804	1.349172
H311	H	-0.008155	0.985354	0.731980
H312	H	0.491845	1.485354	1.231980
H313	H	-0.072677	0.920880	0.732138
H314	H	0.427323	1.420880	1.232138
O315	O	0.185763	0.726746	0.820674
O316	O	0.685763	1.226746	1.320674
C317	C	0.226803	0.605850	0.844774
C318	C	0.726803	1.105850	1.344774
C319	C	0.174735	0.658000	0.801432
C320	C	0.674735	1.158000	1.301432
H321	H	0.217914	0.550257	0.829221
H322	H	0.717914	1.050257	1.329221
H323	H	0.218673	0.613930	0.907871
H324	H	0.718673	1.113930	1.407871
H325	H	0.282406	0.614760	0.829277
H326	H	0.782406	1.114760	1.329277
H327	H	0.119111	0.649121	0.816866
H328	H	0.619111	1.149121	1.316866
H329	H	0.182925	0.649907	0.738346
H330	H	0.682925	1.149907	1.238346
H331	H	0.178385	0.734277	0.671561
H332	H	0.678385	1.234277	1.171561
H333	H	0.003514	0.266275	0.079570
H334	H	0.503514	0.766275	0.579570
O335	O	0.217298	0.801908	0.422410
O336	O	0.717298	1.301908	0.922410
C337	C	0.342840	0.783436	0.430709
C338	C	0.842840	1.283436	0.930709
C339	C	0.273200	0.793642	0.474023
C340	C	0.773200	1.293642	0.974023
H341	H	0.388054	0.776736	0.472420
H342	H	0.888054	1.276736	0.972420
H343	H	0.347388	0.831054	0.393827
H344	H	0.847388	1.331054	0.893827
H345	H	0.344629	0.734911	0.393806
H346	H	0.844629	1.234911	0.893806
H347	H	0.271364	0.842141	0.510968
H348	H	0.771364	1.342141	1.010968
H349	H	0.268681	0.745988	0.510858
H350	H	0.768681	1.245988	1.010858
H351	H	0.178372	0.734229	0.185471
H352	H	0.678372	1.234229	0.685471
H353	H	0.181427	0.374165	-0.079590
H354	H	0.681427	0.874165	0.420410
H355	H	0.209638	0.462565	-0.000004
H356	H	0.709638	0.962565	0.499996
H357	H	-0.024691	0.177876	-0.000024
H358	H	0.475309	0.677876	0.499976
O359	O	-0.036717	0.042194	0.000002
O360	O	0.463283	0.542194	0.500002
C361	C	-0.162182	0.066657	-0.000045
C362	C	0.337818	0.566657	0.499955
C363	C	-0.091938	0.097140	-0.000065
C364	C	0.408062	0.597140	0.499935
H365	H	-0.206847	0.111066	-0.000114
H366	H	0.293153	0.611066	0.499886
H367	H	-0.165897	0.033182	0.052359
H368	H	0.334103	0.533182	0.552359
H369	H	-0.165800	0.033147	-0.052423
H370	H	0.334200	0.533147	0.447577
H371	H	-0.088272	0.130682	0.052278
H372	H	0.411728	0.630682	0.552278
H373	H	-0.088253	0.130576	-0.052503
H374	H	0.411747	0.630576	0.447497
H375	H	-0.696702	0.815982	0.123784
H376	H	-0.196702	1.315982	0.623784
