data_functionalizedCrystal
_audit_creation_method	'MofGen! by Chris Wilmer'
_symmetry_space_group_name_H-M	'P1'
_symmetry_Int_Tables_number	1
_symmetry_cell_setting	triclinic
loop_
_symmetry_equiv_pos_as_xyz
  x,y,z
_cell_length_a	12.594517
_cell_length_b	18.050589
_cell_length_c	12.594517
_cell_angle_alpha	89.983934
_cell_angle_beta	90.010336
_cell_angle_gamma	89.964653
loop_
_atom_site_label
_atom_site_type_symbol
_atom_site_fract_x
_atom_site_fract_y
_atom_site_fract_z
Zn1	Zn	1.626995	0.295753	0.601869
Zn2	Zn	1.626861	0.419926	0.423884
Zn3	Zn	1.449036	0.295753	0.423895
Zn4	Zn	1.448920	0.419904	0.601811
O5	O	1.537953	0.357834	0.512865
O6	O	1.775923	0.312234	0.578279
O7	O	1.603265	0.403463	0.274940
O8	O	1.472747	0.191828	0.447533
O9	O	1.775825	0.403463	0.447514
O10	O	1.603493	0.191828	0.578290
O11	O	1.472618	0.312234	0.274948
O12	O	1.300075	0.312213	0.447477
O13	O	1.472549	0.403426	0.750765
O14	O	1.299989	0.403426	0.578191
O15	O	1.603380	0.312213	0.750807
O16	O	1.603152	0.523848	0.447458
O17	O	1.472419	0.523832	0.578180
C18	C	1.261412	0.357818	0.512830
C19	C	1.143107	0.357829	0.512840
C20	C	1.003106	0.308163	0.441907
C21	C	1.073953	0.290086	0.539034
C22	C	1.073831	0.375873	0.415723
C23	C	1.003169	0.339745	0.610096
C24	C	1.003040	0.425564	0.486720
C25	C	1.073856	0.407512	0.583914
C26	C	1.537787	0.550786	0.512835
C27	C	1.537814	0.633332	0.512857
C28	C	1.466794	0.882176	0.583947
C29	C	1.563851	0.832709	0.610067
C30	C	1.537988	0.930452	0.512919
C31	C	1.440850	0.832837	0.486818
C32	C	1.537897	0.784467	0.512891
C33	C	1.635097	0.882073	0.539090
C34	C	1.512031	0.882205	0.415796
C35	C	1.609155	0.832761	0.441880
C36	C	1.538038	1.014551	0.512938
C37	C	1.537857	0.700371	0.512873
C38	C	1.815574	0.357851	0.512902
C39	C	1.933879	0.357858	0.512917
C40	C	1.537967	0.357817	0.790486
C41	C	1.537973	0.357810	0.908791
C42	C	1.538108	1.164128	0.512921
C43	C	1.538073	1.081583	0.512950
C44	C	1.609124	0.308218	1.048831
C45	C	1.635095	0.375966	0.978007
C46	C	1.512050	0.290070	0.978044
C47	C	1.563989	0.425622	1.048753
C48	C	1.440899	0.339680	1.048796
C49	C	1.466832	0.407475	0.978004
C50	C	1.537942	0.357858	1.236324
C51	C	1.537968	0.357838	1.118019
H52	H	1.104873	0.391122	0.333560
H53	H	1.585774	0.810970	0.692191
H54	H	1.490127	0.232771	0.946980
H55	H	1.717230	0.903612	0.561250
H56	H	1.669392	0.811202	0.381802
H57	H	0.972043	0.266119	0.381963
H58	H	1.717186	0.391315	0.946910
H59	H	0.971870	0.482818	0.464560
H60	H	1.406700	0.903870	0.644070
H61	H	1.490079	0.903961	0.333696
H62	H	0.972258	0.324429	0.692283
H63	H	1.358741	0.811206	0.464754
H64	H	1.105082	0.232813	0.561178
H65	H	1.669343	0.266320	1.079928
H66	H	1.586031	0.482933	1.079684
H67	H	1.406659	0.449473	0.947102
H68	H	1.104723	0.449525	0.644001
H69	H	1.358831	0.324309	1.079915
