data_functionalizedCrystal
_audit_creation_method	'MofGen! by Chris Wilmer'
_symmetry_space_group_name_H-M	'P1'
_symmetry_Int_Tables_number	1
_symmetry_cell_setting	triclinic
loop_
_symmetry_equiv_pos_as_xyz
  x,y,z
_cell_length_a	19.188923
_cell_length_b	12.376897
_cell_length_c	13.262508
_cell_angle_alpha	61.821051
_cell_angle_beta	96.185847
_cell_angle_gamma	102.689742
loop_
_atom_site_label
_atom_site_type_symbol
_atom_site_fract_x
_atom_site_fract_y
_atom_site_fract_z
O1	O	-0.919507	0.057123	0.120109
O2	O	-0.717018	0.051350	0.138857
O3	O	-0.817011	0.104136	-0.032837
O4	O	-0.819513	0.004337	0.291802
O5	O	-0.842476	-0.095557	0.005209
O6	O	-0.742482	-0.148343	0.176903
O7	O	-0.944971	-0.142570	0.158155
Zn8	Zn	-0.847770	-0.177162	0.173569
Zn9	Zn	-0.814219	0.085942	0.123442
O10	O	-0.844978	-0.195356	0.329848
C11	C	-0.703713	-0.048312	0.157274
C12	C	-0.626129	-0.047757	0.155457
N13	N	-0.870672	-0.356724	0.207779
C14	C	-0.068244	-0.075001	0.244030
C15	C	-0.141141	-0.075520	0.245747
C16	C	-0.181658	-0.044551	0.145003
C17	C	-0.149268	-0.013030	0.042530
C18	C	-0.076370	-0.012499	0.040815
N19	N	-0.307805	-0.090103	0.085018
N20	N	-0.377055	-0.090611	0.086655
C21	C	-0.401295	-0.046144	0.150166
N22	N	-0.353670	-0.001170	0.211997
N23	N	-0.284414	-0.000668	0.210364
C24	C	-0.260704	-0.045122	0.146852
C25	C	-0.512719	-0.078218	0.254491
C26	C	-0.585617	-0.078729	0.256202
C27	C	-0.593744	-0.016249	0.052985
C28	C	-0.520846	-0.015728	0.051275
C29	C	-0.480338	-0.046719	0.152032
C30	C	-0.738132	-0.650925	0.009802
C31	C	-0.722091	-0.525234	-0.014144
C32	C	-0.759235	-0.483100	0.041335
C33	C	-0.812422	-0.566670	0.120764
C34	C	-0.828469	-0.692373	0.144706
C35	C	-0.849572	-0.524547	0.176239
C36	C	-0.902759	-0.608118	0.255667
C37	C	-0.918802	-0.733807	0.279606
C38	C	-0.881659	-0.775941	0.224127
C39	C	-0.833525	-0.398845	0.152297
C40	C	-0.923862	-0.440292	0.287200
C41	C	-0.939903	-0.565984	0.311146
C42	C	0.041723	-0.042915	0.139742
C43	C	-0.035863	-0.043490	0.141572
C44	C	-0.827542	0.017059	-0.055348
C45	C	-0.820973	0.055111	-0.179105
N46	N	-0.791322	0.265506	0.089223
C47	C	-0.857979	-0.273053	-0.445011
C48	C	-0.864145	-0.308805	-0.328734
C49	C	-0.853353	-0.217829	-0.291320
C50	C	-0.836393	-0.091094	-0.370197
C51	C	-0.830221	-0.055338	-0.486485
C52	C	-0.825595	-0.000115	-0.332794
C53	C	-0.808635	0.126620	-0.411670
C54	C	-0.802464	0.162370	-0.527946
C55	C	-0.813256	0.071394	-0.565359
C56	C	-0.831767	-0.035871	-0.216506
C57	C	-0.804009	0.181843	-0.257980
C58	C	-0.797843	0.217596	-0.374257
C59	C	-0.834447	-0.108277	0.352359
C60	C	-0.841014	-0.146321	0.476114
H61	H	-0.167513	-0.101192	0.329185
O62	O	-0.997271	-0.656121	0.396811
H63	H	-1.048963	-0.624440	0.367736
O64	O	-0.637433	0.017150	-0.055679
H65	H	-0.693565	0.011480	-0.037274
H66	H	-0.784033	0.320786	-0.438494
H67	H	-0.788648	0.265565	-0.592164
O68	O	-0.898955	-0.911506	0.249931
H69	H	-0.889566	-0.971092	0.342183
H70	H	-0.858373	-0.246947	-0.196641
O71	O	-0.882436	-0.445486	-0.243660
H72	H	-0.933039	-0.463852	-0.199852
O73	O	-0.869629	-0.371169	-0.485362
H74	H	-0.862496	-0.325010	-0.579473
H75	H	-0.808240	0.100498	-0.660041
O76	O	-0.976175	-0.823938	0.365263
H77	H	-0.981098	-0.918416	0.372581
O78	O	-0.792364	0.279985	-0.217649
H79	H	-0.841644	0.272042	-0.175843
O80	O	-0.024551	-0.108415	0.352697
H81	H	-0.059318	-0.130405	0.424230
O82	O	-0.963926	-0.394871	0.347056
H83	H	-0.943827	-0.293431	0.317076
H84	H	-0.707900	-0.685242	-0.035368
O85	O	-0.485916	0.018230	-0.059228
H86	H	-0.526336	0.039664	-0.128993
O87	O	-0.850071	-0.172555	-0.131446
H88	H	-0.808416	-0.221023	-0.133658
H89	H	-0.182261	0.012189	-0.039496
H90	H	-0.050006	0.013161	-0.042622
O91	O	-0.664725	-0.435100	-0.099798
H92	H	-0.641586	-0.485515	-0.134345
O93	O	-0.776170	-0.308689	0.066631
H94	H	-0.724468	-0.340334	0.095697
O95	O	-0.469017	-0.111630	0.363153
H96	H	-0.470672	-0.045312	0.396693
O97	O	-0.620550	-0.112732	0.366718
H98	H	-0.580135	-0.134209	0.436490
O99	O	-0.741931	-0.347537	0.015526
H100	H	-0.698701	-0.296507	-0.049016
