data_functionalizedCrystal
_audit_creation_method	'MofGen! by Chris Wilmer'
_symmetry_space_group_name_H-M	'P1'
_symmetry_Int_Tables_number	1
_symmetry_cell_setting	triclinic
loop_
_symmetry_equiv_pos_as_xyz
  x,y,z
_cell_length_a	18.050591
_cell_length_b	14.908520
_cell_length_c	14.908694
_cell_angle_alpha	83.255478
_cell_angle_beta	86.677417
_cell_angle_gamma	86.682923
loop_
_atom_site_label
_atom_site_type_symbol
_atom_site_fract_x
_atom_site_fract_y
_atom_site_fract_z
Zn1	Zn	1.142129	0.389979	-0.532732
Zn2	Zn	1.475462	0.723312	-0.199399
Zn3	Zn	1.808796	1.056645	0.133935
Zn4	Zn	1.128493	0.532623	-0.390099
Zn5	Zn	1.461826	0.865957	-0.056765
Zn6	Zn	1.795159	1.199290	0.276568
Zn7	Zn	1.011164	0.381270	-0.381370
Zn8	Zn	1.344497	0.714603	-0.048037
Zn9	Zn	1.677831	1.047936	0.285297
Zn10	Zn	1.011132	0.541285	-0.541393
Zn11	Zn	1.344466	0.874618	-0.208060
Zn12	Zn	1.677799	1.207951	0.125273
O13	O	1.073229	0.461289	-0.461398
O14	O	1.406563	0.794622	-0.128065
O15	O	1.739896	1.127956	0.205268
O16	O	1.244245	0.408921	-0.513840
O17	O	1.577578	0.742254	-0.180506
O18	O	1.910912	1.075588	0.152827
O19	O	1.107235	0.505277	-0.262278
O20	O	1.440569	0.838610	0.071055
O21	O	1.773902	1.171943	0.404389
O22	O	1.034257	0.255761	-0.394171
O23	O	1.367590	0.589094	-0.060837
O24	O	1.700923	0.922428	0.272496
O25	O	1.234227	0.513721	-0.409048
O26	O	1.567560	0.847055	-0.075714
O27	O	1.900893	1.180388	0.257619
O28	O	1.130476	0.262159	-0.505376
O29	O	1.463809	0.595493	-0.172042
O30	O	1.797143	0.928826	0.161291
O31	O	1.021034	0.394078	-0.255865
O32	O	1.354368	0.727411	0.077468
O33	O	1.687701	1.060744	0.410802
O34	O	0.907235	0.402476	-0.402569
O35	O	1.240568	0.735809	-0.069236
O36	O	1.573901	1.069143	0.264098
O37	O	1.034203	0.528483	-0.666907
O38	O	1.367536	0.861816	-0.333574
O39	O	1.700869	1.195150	-0.000241
O40	O	0.907212	0.520038	-0.520138
O41	O	1.240545	0.853372	-0.186804
O42	O	1.573878	1.186705	0.146529
O43	O	1.130445	0.417319	-0.660544
O44	O	1.463779	0.750653	-0.327210
O45	O	1.797112	1.083986	0.006123
O46	O	1.107205	0.660437	-0.417446
O47	O	1.440538	0.993770	-0.084113
O48	O	1.773871	1.327103	0.249221
O49	O	1.020980	0.666800	-0.528602
O50	O	1.354314	1.000133	-0.195268
O51	O	1.687647	1.333466	0.138065
C52	C	1.062630	0.696462	-0.474931
C53	C	1.395964	1.029795	-0.141597
C54	C	1.729297	1.363129	0.191736
C55	C	1.058165	0.797072	-0.480750
C56	C	1.391499	1.130405	-0.147417
C57	C	1.724832	1.463738	0.185917
C58	C	0.880277	0.461253	-0.461346
C59	C	1.213610	0.794586	-0.128013
C60	C	1.546943	1.127919	0.205320
C61	C	0.797730	0.461260	-0.461347
C62	C	1.131064	0.794593	-0.128014
C63	C	1.464397	1.127927	0.205320
C64	C	1.083842	0.474839	-0.697486
C65	C	1.417175	0.808172	-0.364153
C66	C	1.750508	1.141505	-0.030819
C67	C	1.088364	0.480613	-0.798093
C68	C	1.421697	0.813946	-0.464759
C69	C	1.755031	1.147280	-0.131426
C70	C	0.598280	0.397267	-0.397548
C71	C	0.931614	0.730601	-0.064215
C72	C	1.264947	1.063934	0.269118
C73	C	0.544173	0.478543	-0.380035
C74	C	0.877507	0.811877	-0.046702
C75	C	1.210840	1.145210	0.286631
C76	C	0.646601	0.461290	-0.461389
C77	C	0.979934	0.794623	-0.128056
C78	C	1.313267	1.127956	0.205277
C79	C	0.553625	0.380042	-0.478902
C80	C	0.886958	0.713376	-0.145568
C81	C	1.220291	1.046709	0.187765
C82	C	0.500616	0.461311	-0.461428
C83	C	0.833950	0.794645	-0.128095
C84	C	1.167283	1.127978	0.205238
C85	C	0.593577	0.542607	-0.443836
C86	C	0.926911	0.875940	-0.110503
C87	C	1.260244	1.209273	0.222831
C88	C	0.603037	0.444052	-0.542737
C89	C	0.936370	0.777385	-0.209404
C90	C	1.269703	1.110719	0.123929
C91	C	0.548951	0.525387	-0.525259
C92	C	0.882284	0.858720	-0.191926
C93	C	1.215618	1.192053	0.141408
C94	C	0.730698	0.461276	-0.461365
C95	C	1.064032	0.794609	-0.128031
C96	C	1.397365	1.127943	0.205302
C97	C	0.416520	0.461334	-0.461454
C98	C	0.749853	0.794668	-0.128121
C99	C	1.083187	1.128001	0.205213
C100	C	1.266936	0.461327	-0.461451
C101	C	1.600269	0.794660	-0.128118
C102	C	1.933602	1.127993	0.205215
C103	C	1.349482	0.461343	-0.461474
C104	C	1.682815	0.794676	-0.128140
C105	C	2.016149	1.128009	0.205193
C106	C	1.083891	0.225199	-0.447833
C107	C	1.417224	0.558533	-0.114500
C108	C	1.750558	0.891866	0.218833
C109	C	1.088434	0.124592	-0.442053
C110	C	1.421768	0.457925	-0.108719
C111	C	1.755101	0.791258	0.224614
C112	C	1.139662	0.979446	-0.376033
C113	C	1.472995	1.312779	-0.042699
C114	C	1.806329	1.646113	0.290634
C115	C	1.135469	1.073978	-0.381497
C116	C	1.468803	1.407311	-0.048164
C117	C	1.802136	1.740644	0.285169
C118	C	1.045591	1.080668	-0.497149
C119	C	1.378924	1.414001	-0.163815
C120	C	1.712258	1.747335	0.169518
C121	C	1.049784	0.986137	-0.491684
C122	C	1.383117	1.319470	-0.158351
C123	C	1.716451	1.652803	0.174983
C124	C	1.096820	0.935529	-0.431123
C125	C	1.430154	1.268862	-0.097789
C126	C	1.763487	1.602195	0.235544
C127	C	1.101009	0.840995	-0.425654
C128	C	1.434342	1.174328	-0.092321
C129	C	1.767675	1.507662	0.241013
C130	C	1.011135	0.847688	-0.541309
C131	C	1.344468	1.181021	-0.207976
C132	C	1.677802	1.514354	0.125358
C133	C	1.006942	0.942219	-0.546774
C134	C	1.340275	1.275553	-0.213441
C135	C	1.673609	1.608886	0.119893
C136	C	1.007083	0.375674	-0.980466
C137	C	1.340417	0.709007	-0.647133
C138	C	1.673750	1.042340	-0.313800
C139	C	1.011330	0.381096	-1.074995
C140	C	1.344663	0.714429	-0.741662
C141	C	1.677997	1.047763	-0.408328
C142	C	1.101099	0.496884	-1.081680
C143	C	1.434433	0.830217	-0.748347
C144	C	1.767766	1.163550	-0.415013
C145	C	1.096853	0.491461	-0.987152
C146	C	1.430186	0.824795	-0.653818
C147	C	1.763519	1.158128	-0.320485
C148	C	1.049844	0.430853	-0.936548
C149	C	1.383177	0.764187	-0.603215
C150	C	1.716511	1.097520	-0.269881
C151	C	1.045602	0.425427	-0.842017
C152	C	1.378935	0.758760	-0.508684
C153	C	1.712268	1.092094	-0.175351
C154	C	1.135367	0.541219	-0.848704
C155	C	1.468700	0.874552	-0.515371
C156	C	1.802033	1.207885	-0.182038
C157	C	1.139613	0.546641	-0.943233
C158	C	1.472947	0.879974	-0.609900
C159	C	1.806280	1.213308	-0.276566
C160	C	1.062704	0.447727	-0.226226
C161	C	1.396038	0.781060	0.107108
C162	C	1.729371	1.114394	0.440441
C163	C	1.058337	0.441698	-0.125605
C164	C	1.391671	0.775031	0.207728
C165	C	1.725004	1.108365	0.541062
H166	H	0.619934	0.343178	-0.343508
H167	H	0.953267	0.676511	-0.010175
H168	H	1.286600	1.009845	0.323159
H169	H	0.628755	0.429430	-0.611492
H170	H	0.962088	0.762763	-0.278159
H171	H	1.295422	1.096097	0.055174
H172	H	0.976248	0.811920	-0.586165
H173	H	1.309581	1.145253	-0.252831
H174	H	1.642914	1.478586	0.080502
Br175	Br	1.193618	1.133578	-0.306734
Br176	Br	1.526951	1.466911	0.026600
Br177	Br	1.860285	1.800245	0.359933
H178	H	1.139361	0.546240	-1.122898
H179	H	1.472694	0.879573	-0.789565
H180	H	1.806028	1.212906	-0.456232
H181	H	0.611189	0.611342	-0.428963
H182	H	0.944522	0.944675	-0.095630
H183	H	1.277855	1.278008	0.237703
H184	H	0.976510	0.336163	-1.110750
H185	H	1.309843	0.669496	-0.777416
H186	H	1.643177	1.002829	-0.444083
Br187	Br	0.513073	0.615734	-0.615280
Br188	Br	0.846407	0.949068	-0.281946
Br189	Br	1.179740	1.282401	0.051387
Br190	Br	0.943299	0.293411	-0.911785
Br191	Br	1.276632	0.626744	-0.578452
Br192	Br	1.609966	0.960077	-0.245118
Br193	Br	0.981809	0.343171	-0.773341
Br194	Br	1.315142	0.676504	-0.440008
Br195	Br	1.648476	1.009838	-0.106674
H196	H	1.177884	0.595989	-0.984447
H197	H	1.511217	0.929322	-0.651114
H198	H	1.844551	1.262656	-0.317781
H199	H	1.139306	0.799791	-0.376340
H200	H	1.472639	1.133124	-0.043006
H201	H	1.805973	1.466457	0.290327
H202	H	0.968649	0.983437	-0.596083
H203	H	1.301982	1.316770	-0.262750
H204	H	1.635315	1.650104	0.070583
Br205	Br	0.501337	0.502874	-0.265404
Br206	Br	0.834670	0.836207	0.067929
Br207	Br	1.168003	1.169541	0.401262
Br208	Br	0.524103	0.265510	-0.503560
Br209	Br	0.857437	0.598844	-0.170227
Br210	Br	1.190770	0.932177	0.163106
Br211	Br	1.203480	0.910758	-0.293828
Br212	Br	1.536813	1.244092	0.039505
Br213	Br	1.870146	1.577425	0.372838
H214	H	1.007302	1.121890	-0.546460
H215	H	1.340635	1.455223	-0.213127
H216	H	1.673968	1.788556	0.120206
Br217	Br	1.193407	0.616106	-0.789096
Br218	Br	1.526740	0.949440	-0.455763
Br219	Br	1.860073	1.282773	-0.122429
