data_functionalizedCrystal
_audit_creation_method	'MofGen! by Chris Wilmer'
_symmetry_space_group_name_H-M	'P1'
_symmetry_Int_Tables_number	1
_symmetry_cell_setting	triclinic
loop_
_symmetry_equiv_pos_as_xyz
  x,y,z
_cell_length_a	21.606444
_cell_length_b	21.606444
_cell_length_c	14.560438
_cell_angle_alpha	60.001790
_cell_angle_beta	90.001828
_cell_angle_gamma	59.999398
loop_
_atom_site_label
_atom_site_type_symbol
_atom_site_fract_x
_atom_site_fract_y
_atom_site_fract_z
Zr1	Zr	0.596225	0.677448	-0.120480
O2	O	0.497396	0.806568	-0.267124
O3	O	0.626522	0.548329	-0.075530
O4	O	0.626518	0.677450	-0.267128
O5	O	0.497404	0.677446	0.075614
O6	O	0.728370	0.677450	-0.267125
O7	O	0.497401	0.677448	-0.075526
O8	O	0.728378	0.446477	0.075609
O9	O	0.497395	0.908419	-0.267120
O10	O	0.715454	0.601437	-0.056352
O11	O	0.639444	0.601436	0.056441
O12	O	0.639439	0.753459	-0.169141
O13	O	0.563430	0.753458	-0.056348
Zr14	Zr	0.758671	0.677445	0.120576
Zr15	Zr	0.758667	0.677448	-0.120476
Zr16	Zr	0.596229	0.677446	0.120572
Zr17	Zr	0.596223	0.839889	-0.120472
Zr18	Zr	0.758673	0.515005	0.120568
O19	O	0.728374	0.806564	0.075626
O20	O	0.728368	0.806568	-0.267119
O21	O	0.497402	0.806565	0.075621
O22	O	0.857500	0.548325	0.267221
O23	O	0.857494	0.548329	-0.075524
O24	O	0.626528	0.548325	0.267215
O25	O	0.857493	0.677447	-0.075518
O26	O	0.728379	0.677444	0.267224
O27	O	0.626527	0.677444	0.267222
O28	O	0.857495	0.677446	0.075623
O29	O	0.626515	0.908419	-0.267117
O30	O	0.728381	0.446475	0.267213
O31	O	0.857501	0.446474	0.267216
O32	O	0.857498	0.446477	0.075612
O33	O	0.497399	0.908417	-0.075515
O34	O	0.626518	0.908417	-0.075512
O35	O	0.715457	0.601435	0.169237
O36	O	0.791466	0.601436	0.056444
O37	O	0.715452	0.753458	-0.056345
O38	O	0.639443	0.753456	0.056448
C39	C	0.677450	0.474259	0.000038
C40	C	0.677451	0.405299	0.000035
C41	C	0.717125	0.372902	-0.058843
C42	C	0.717128	0.308102	-0.058836
C43	C	0.677452	0.275704	0.000044
C44	C	0.637776	0.308104	0.058930
C45	C	0.637778	0.372898	0.058928
C46	C	0.637767	0.046795	0.058939
C47	C	0.637766	-0.018002	0.058934
C48	C	0.717117	-0.018002	-0.058825
C49	C	0.717119	0.046792	-0.058826
C50	C	0.677447	0.079183	0.000064
C51	C	0.677446	0.149445	0.000057
C52	C	0.677448	0.205448	0.000046
C53	C	0.474258	0.677447	0.000043
C54	C	0.405297	0.677447	0.000042
C55	C	0.372897	0.677451	-0.083226
C56	C	0.308103	0.677446	-0.083222
C57	C	0.275707	0.677445	0.000046
C58	C	0.308113	0.677438	0.083322
C59	C	0.372909	0.677437	0.083322
C60	C	0.046799	0.677445	0.083326
C61	C	-0.018003	0.677449	0.083318
C62	C	-0.018006	0.677454	-0.083217
C63	C	0.046789	0.677453	-0.083218
C64	C	0.079192	0.677442	0.000061
C65	C	0.149449	0.677445	0.000057
C66	C	0.205447	0.677448	0.000047
C67	C	0.880639	0.677447	0.000053
C68	C	0.949599	0.677447	0.000054
C69	C	0.677443	0.677450	-0.301471
C70	C	0.677441	0.677451	-0.403804
C71	C	0.677446	0.880635	0.000058
C72	C	0.677445	0.949595	0.000061
C73	C	0.637763	0.756804	-0.510755
C74	C	0.637772	0.756800	-0.606904
C75	C	0.717138	0.598084	-0.489137
C76	C	0.717133	0.598089	-0.392991
C77	C	0.677453	0.677443	0.301568
C78	C	0.677455	0.677442	0.403901
C79	C	0.880641	0.474259	0.000043
C80	C	0.949602	0.405298	0.000041
C81	C	0.677456	0.474255	0.301558
C82	C	0.677458	0.405294	0.403887
C83	C	0.880646	0.474255	0.301562
C84	C	0.949609	0.405294	0.403894
C85	C	0.474251	0.880638	-0.301466
C86	C	0.405287	0.949600	-0.403797
C87	C	0.474256	0.880635	0.000053
C88	C	0.405294	0.949595	0.000055
C89	C	0.677441	0.880638	-0.301462
C90	C	0.677438	0.949600	-0.403791
C91	C	0.942310	0.372915	-0.058848
C92	C	1.007100	0.308128	-0.058872
C93	C	1.079183	0.275722	0.000000
C94	C	1.086474	0.308112	0.058891
C95	C	1.021684	0.372902	0.058908
C96	C	0.717137	0.372908	0.510831
C97	C	0.717137	0.308121	0.606990
C98	C	0.677461	0.275716	0.596203
C99	C	0.637777	0.308108	0.489248
C100	C	0.637773	0.372899	0.393091
C101	C	1.021678	0.372909	0.393073
C102	C	1.086483	0.308122	0.489215
C103	C	1.079217	0.275715	0.596176
C104	C	1.007141	0.308106	0.606995
C105	C	0.942338	0.372897	0.510854
C106	C	0.333218	0.981992	-0.392976
C107	C	0.268414	1.046800	-0.489118
C108	C	0.275679	1.079210	-0.596080
C109	C	0.347756	1.046815	-0.606899
C110	C	0.412559	0.982013	-0.510758
C111	C	0.412587	0.981986	0.058934
C112	C	0.347796	1.046790	0.058932
C113	C	0.275714	1.079198	0.000056
C114	C	0.268422	1.046805	-0.058831
C115	C	0.333212	0.982006	-0.058834
C116	C	0.717122	0.981984	-0.392968
C117	C	0.717134	1.046772	-0.489108
C118	C	0.677459	1.079179	-0.596071
C119	C	0.637774	1.046788	-0.606892
C120	C	0.637766	0.981997	-0.510753
H121	H	0.749423	-0.044384	-0.106772
H122	H	0.605455	-0.044379	0.106885
H123	H	0.749447	0.533467	-0.305900
H124	H	0.883622	0.399299	-0.106803
N125	N	0.490328	0.947040	0.122440
H126	H	0.485105	0.977404	0.159730
H127	H	0.518937	0.958315	0.068375
N128	N	0.355670	1.081719	0.122450
H129	H	0.411167	1.051346	0.159753
H130	H	0.330514	1.070448	0.181639
N131	N	0.355580	1.081774	-0.722271
H132	H	0.384195	1.032345	-0.731293
H133	H	0.384181	1.108673	-0.731223
H134	H	0.209724	1.073202	-0.106766
H135	H	-0.044378	0.677447	0.151130
N136	N	0.594998	0.842386	-0.722259
H137	H	0.569861	0.892659	-0.714514
H138	H	0.555110	0.845858	-0.764747
H139	H	0.605475	0.281717	0.106878
N140	N	1.149058	0.205833	-0.000013
H141	H	1.195833	0.190212	0.046219
H142	H	1.149009	0.228440	-0.079790
N143	N	0.325337	0.947062	-0.122324
H144	H	0.377315	0.901092	-0.113398
H145	H	0.296680	0.996549	-0.204661
H146	H	0.749431	0.955609	-0.305882
N147	N	0.759940	1.081697	-0.477422
H148	H	0.785065	1.051339	-0.395072
H149	H	0.723514	1.146743	-0.514751
H150	H	1.001149	0.281764	-0.106828
N151	N	0.677478	1.149052	-0.699759
H152	H	0.708641	1.164645	-0.676662
H153	H	0.623723	1.202781	-0.746006
N154	N	0.864605	0.407811	0.522527
H155	H	0.835937	0.472854	0.485268
H156	H	0.869904	0.377382	0.604897
N157	N	-0.052964	0.677470	-0.173040
H158	H	-0.052867	0.623507	-0.136723
H159	H	-0.022594	0.677511	-0.225771
H160	H	1.027633	0.399261	0.106870
N161	N	0.594982	1.081745	-0.722262
H162	H	0.601011	1.127706	-0.781514
H163	H	0.539492	1.108589	-0.731176
H164	H	0.399289	0.677432	0.151128
N165	N	0.594961	0.947072	-0.522435
H166	H	0.569830	0.977439	-0.604786
H167	H	0.555066	0.958356	-0.485118
H168	H	0.749446	0.399285	0.519636
H169	H	0.749455	0.281755	0.694068
H170	H	0.222964	1.131962	0.000068
H171	H	0.209733	1.073165	-0.480287
N172	N	1.164222	0.273157	0.122386
H173	H	1.204154	0.227197	0.113436
H174	H	1.170232	0.246311	0.204727
H175	H	0.749431	0.399279	-0.106796
H176	H	0.677470	0.222959	0.674508
N177	N	0.594991	0.273148	0.477621
H178	H	0.601023	0.227186	0.554769
H179	H	0.615832	0.246304	0.435115
H180	H	0.749434	0.281724	-0.106778
N181	N	0.594929	0.407871	0.277746
H182	H	0.569784	0.377521	0.285514
H183	H	0.631321	0.396622	0.235226
H184	H	0.749424	0.073171	-0.106776
H185	H	1.027608	0.399285	0.305988
N186	N	0.081754	0.677410	0.173161
H187	H	0.051399	0.677405	0.225911
H188	H	0.081667	0.731367	0.136777
H189	H	0.327288	0.955608	-0.305892
H190	H	1.145164	0.281756	0.480386
N191	N	0.273182	0.677422	0.173146
H192	H	0.227218	0.677424	0.160513
H193	H	0.257526	0.731385	0.169478
H194	H	0.605467	0.073156	0.106896
H195	H	1.131990	0.222959	0.674451
N196	N	0.490288	0.947062	-0.522442
H197	H	0.530244	0.901088	-0.445314
H198	H	0.496293	0.996544	-0.564961
H199	H	0.605469	0.399277	0.106870
H200	H	0.605444	0.821426	-0.519566
H201	H	0.222906	1.131975	-0.674355
H202	H	0.399267	0.677457	-0.151036
H203	H	0.281724	0.677448	-0.151024
N204	N	0.081727	0.677462	-0.173033
H205	H	0.051370	0.677463	-0.225783
H206	H	0.135596	0.623495	-0.136621
H207	H	0.749453	0.533470	-0.480347
H208	H	1.001236	0.281711	0.694096
