data_functionalizedCrystal
_audit_creation_method	'MofGen! by Chris Wilmer'
_symmetry_space_group_name_H-M	'P1'
_symmetry_Int_Tables_number	1
_symmetry_cell_setting	triclinic
loop_
_symmetry_equiv_pos_as_xyz
  x,y,z
_cell_length_a	14.519709
_cell_length_b	19.288865
_cell_length_c	17.766277
_cell_angle_alpha	90.011603
_cell_angle_beta	90.003743
_cell_angle_gamma	83.408197
loop_
_atom_site_label
_atom_site_type_symbol
_atom_site_fract_x
_atom_site_fract_y
_atom_site_fract_z
O1	O	-1.223296	-0.091051	-0.062505
O2	O	-0.723296	0.408949	0.437495
O3	O	-0.954751	-0.101773	-0.062529
O4	O	-0.454751	0.398227	0.437471
O5	O	-1.096783	0.004690	-0.062502
O6	O	-0.596783	0.504690	0.437498
O7	O	-1.081264	-0.197514	-0.062533
O8	O	-0.581264	0.302486	0.437467
O9	O	-1.096759	0.004696	0.062687
O10	O	-0.596759	0.504696	0.562687
O11	O	-0.954726	-0.101768	0.062659
O12	O	-0.454726	0.398232	0.562659
O13	O	-1.223271	-0.091045	0.062683
O14	O	-0.723271	0.408955	0.562683
Cu15	Cu	-1.088997	-0.096406	0.074102
Cu16	Cu	-0.588997	0.403594	0.574102
Cu17	Cu	-1.089026	-0.096413	-0.073948
Cu18	Cu	-0.589026	0.403587	0.426052
O19	O	-1.081239	-0.197509	0.062656
O20	O	-0.581239	0.302491	0.562656
C21	C	-1.096272	0.030571	0.000095
C22	C	-0.596272	0.530571	0.500095
C23	C	-1.094773	0.107680	0.000101
C24	C	-0.594773	0.607680	0.500101
C25	C	-0.920382	-0.101271	0.000062
C26	C	-0.420382	0.398729	0.500062
C27	C	-0.818010	-0.099773	0.000054
C28	C	-0.318010	0.400227	0.500054
C29	C	-1.257640	-0.091548	0.000090
C30	C	-0.757640	0.408452	0.500090
C31	C	-1.360012	-0.093045	0.000094
C32	C	-0.860012	0.406955	0.500094
C33	C	-0.443150	-0.094261	0.000089
C34	C	0.056850	0.405739	0.500089
C35	C	-0.547448	-0.095792	0.000079
C36	C	-0.047448	0.404208	0.500079
C37	C	-0.630577	-0.097017	0.000070
C38	C	-0.130577	0.402983	0.500070
C39	C	-0.734882	-0.098548	0.000062
C40	C	-0.234882	0.401452	0.500062
C41	C	-1.081751	-0.223390	0.000058
C42	C	-0.581751	0.276610	0.500058
C43	C	-1.083250	-0.300499	0.000046
C44	C	-0.583250	0.199501	0.500046
N45	N	-1.088983	-0.096401	0.178232
N46	N	-0.588983	0.403599	0.678232
C47	C	-1.178111	0.152077	0.000112
C48	C	-0.678111	0.652077	0.500112
C49	C	-1.176702	0.224529	0.000100
C50	C	-0.676702	0.724529	0.500100
C51	C	-1.091951	0.252581	0.000092
C52	C	-0.591951	0.752581	0.500092
C53	C	-1.008602	0.208175	0.000077
C54	C	-0.508602	0.708175	0.500077
C55	C	-1.010013	0.135725	0.000081
C56	C	-0.510013	0.635725	0.500081
C57	C	-1.025318	0.361110	0.043937
C58	C	-0.525318	0.861110	0.543937
C59	C	-1.023911	0.433560	0.043937
C60	C	-0.523911	0.933560	0.543937
C61	C	-1.087597	0.476043	0.000075
C62	C	-0.587597	0.976043	0.500075
C63	C	-1.152705	0.446068	-0.043778
C64	C	-0.652705	0.946068	0.456222
C65	C	-1.154116	0.373618	-0.043773
C66	C	-0.654116	0.873618	0.456227
C67	C	-1.090412	0.331141	0.000087
C68	C	-0.590412	0.831141	0.500087
C69	C	-1.169414	0.599000	0.000072
C70	C	-0.669414	1.099000	0.500072
C71	C	-1.168002	0.671454	0.000055
C72	C	-0.668002	1.171454	0.500055
C73	C	-0.999899	0.655098	0.000040
C74	C	-0.499899	1.155098	0.500040
C75	C	-1.001314	0.582647	0.000049
C76	C	-0.501314	1.082647	0.500049
C77	C	-1.086073	0.554602	0.000069
C78	C	-0.586073	1.054602	0.500069
N79	N	-1.089047	-0.096412	-0.178078
N80	N	-0.589047	0.403588	0.321922
C81	C	-1.151895	-0.049282	0.217631
C82	C	-0.651895	0.450718	0.717631
C83	C	-1.151900	-0.049279	0.296433
C84	C	-0.651900	0.450721	0.796433
C85	C	-1.089002	-0.096407	0.335833
C86	C	-0.589002	0.403593	0.835833
C87	C	-1.026078	-0.143529	0.296424
C88	C	-0.526078	0.356471	0.796424
C89	C	-1.026069	-0.143526	0.217624
C90	C	-0.526069	0.356474	0.717624
C91	C	-1.076656	-0.159650	0.460660
C92	C	-0.576656	0.340350	0.960660
C93	C	-1.076672	-0.159654	0.539459
C94	C	-0.576672	0.340346	1.039459
C95	C	-1.089027	-0.096415	0.578879
C96	C	-0.589027	0.403585	1.078879
C97	C	-1.101385	-0.033170	0.539491
C98	C	-0.601385	0.466830	1.039491
C99	C	-1.101375	-0.033167	0.460690
C100	C	-0.601375	0.466833	0.960690
C101	C	-1.089005	-0.096415	0.421279
C102	C	-0.589005	0.403585	0.921279
C103	C	-1.151948	-0.049289	0.703724
C104	C	-0.651948	0.450711	1.203724
C105	C	-1.151947	-0.049285	0.782528
C106	C	-0.651947	0.450715	1.282528
C107	C	-1.026129	-0.143541	0.782517
C108	C	-0.526129	0.356459	1.282517
C109	C	-1.026126	-0.143539	0.703715
C110	C	-0.526126	0.356461	1.203715
C111	C	-1.089040	-0.096414	0.664324
C112	C	-0.589040	0.403586	1.164324
H113	H	-1.244568	0.260683	0.000106
H114	H	-0.744568	0.760683	0.500106
H115	H	-1.203174	-0.010914	0.671650
H116	H	-0.703174	0.489086	1.171650
H117	H	-1.203121	-0.010909	0.185561
H118	H	-0.703121	0.489091	0.685561
H119	H	-0.974901	-0.181910	0.671634
H120	H	-0.474901	0.318090	1.171634
N121	N	-0.961893	-0.191690	0.822754
N122	N	-0.461893	0.308310	1.322754
N123	N	-0.962888	-0.255894	0.813939
N124	N	-0.462888	0.244106	1.313939
H125	H	-0.917519	-0.289901	0.842360
H126	H	-0.417519	0.210099	1.342360
H127	H	-1.111435	0.018329	0.428623
H128	H	-0.611435	0.518329	0.928623
N129	N	-1.216169	-0.001139	0.336678
N130	N	-0.716169	0.498861	0.836678
N131	N	-1.272332	0.040934	0.301498
N132	N	-0.772332	0.540934	0.801498
H133	H	-1.317723	0.074933	0.329918
H134	H	-0.817723	0.574933	0.829918
H135	H	-1.066615	-0.211151	0.571523
H136	H	-0.566615	0.288849	1.071523
H137	H	-1.207128	0.349216	-0.079481
H138	H	-0.707128	0.849216	0.420519
H139	H	-1.203175	-0.010911	0.814607
H140	H	-0.703175	0.489089	1.314607
N141	N	-1.217778	0.489441	-0.088588
N142	N	-0.717778	0.989441	0.411412
N143	N	-1.302819	0.489606	-0.077522
N144	N	-0.802819	0.989606	0.422478
H145	H	-1.348778	0.520239	-0.109167
H146	H	-0.848778	1.020239	0.390833
H147	H	-1.111445	0.018325	0.571585
H148	H	-0.611445	0.518325	1.071585
N149	N	-0.961794	-0.191662	0.177386
N150	N	-0.461794	0.308338	0.677386
N151	N	-0.905632	-0.233734	0.212569
N152	N	-0.405632	0.266266	0.712569
H153	H	-0.860237	-0.267732	0.184150
H154	H	-0.360237	0.232268	0.684150
N155	N	-1.064045	-0.224258	0.420410
N156	N	-0.564045	0.275742	0.920410
N157	N	-1.053033	-0.280719	0.455584
N158	N	-0.553033	0.219281	0.955584
H159	H	-1.044132	-0.326348	0.427158
H160	H	-0.544132	0.173652	0.927158
H161	H	-0.942147	0.099576	0.000073
H162	H	-0.442147	0.599576	0.500073
N163	N	-0.961830	-0.191660	0.336678
N164	N	-0.461830	0.308340	0.836678
N165	N	-0.961847	-0.191657	0.407034
N166	N	-0.461847	0.308343	0.907034
H167	H	-0.916466	-0.225648	0.435464
H168	H	-0.416466	0.274352	0.935464
H169	H	-1.247128	0.129248	0.000126
H170	H	-0.747128	0.629248	0.500126
H171	H	-1.235869	0.707601	0.000060
H172	H	-0.735869	1.207601	0.500060
N173	N	-1.255997	0.570360	0.000094
N174	N	-0.755997	1.070360	0.500094
N175	N	-1.330403	0.610012	0.000100
N176	N	-0.830403	1.110012	0.500100
H177	H	-1.391554	0.589787	0.000117
H178	H	-0.891554	1.089787	0.500117
H179	H	-0.930893	0.677938	0.000029
H180	H	-0.430893	1.177938	0.500029
H181	H	-0.970892	0.457959	0.079640
H182	H	-0.470892	0.957959	0.579640
N183	N	-0.916176	0.537303	0.000040
N184	N	-0.416176	1.037303	0.500040
N185	N	-0.840510	0.562355	0.000030
N186	N	-0.340510	1.062355	0.500030
H187	H	-0.780376	0.530331	0.000021
H188	H	-0.280376	1.030331	0.500021
H189	H	-0.973455	0.326526	0.079659
H190	H	-0.473455	0.826526	0.579659
N191	N	-0.922039	0.236838	0.000062
N192	N	-0.422039	0.736838	0.500062
N193	N	-0.920790	0.301526	0.000059
N194	N	-0.420790	0.801526	0.500059
H195	H	-0.859652	0.321770	0.000044
H196	H	-0.359652	0.821770	0.500044
