data_functionalizedCrystal
_audit_creation_method	'MofGen! by Chris Wilmer'
_symmetry_space_group_name_H-M	'P1'
_symmetry_Int_Tables_number	1
_symmetry_cell_setting	triclinic
loop_
_symmetry_equiv_pos_as_xyz
  x,y,z
_cell_length_a	13.897449
_cell_length_b	13.897448
_cell_length_c	16.625539
_cell_angle_alpha	90.024962
_cell_angle_beta	90.019431
_cell_angle_gamma	90.020848
loop_
_atom_site_label
_atom_site_type_symbol
_atom_site_fract_x
_atom_site_fract_y
_atom_site_fract_z
Zn1	Zn	-1.474678	0.383980	-0.455904
Zn2	Zn	-0.974678	0.883980	0.044096
Zn3	Zn	-1.474570	0.545293	-0.321079
Zn4	Zn	-0.974570	1.045293	0.178921
Zn5	Zn	-1.313370	0.384018	-0.321087
Zn6	Zn	-0.813370	0.884018	0.178913
Zn7	Zn	-1.313343	0.545239	-0.455871
Zn8	Zn	-0.813343	1.045239	0.044129
O9	O	-1.393990	0.464632	-0.388485
O10	O	-0.893990	0.964632	0.111515
O11	O	-1.609645	0.405386	-0.438029
O12	O	-1.109645	0.905386	0.061971
O13	O	-1.453153	0.523938	-0.208247
O14	O	-0.953153	1.023938	0.291753
O15	O	-1.334825	0.249031	-0.338988
O16	O	-0.834825	0.749031	0.161012
O17	O	-1.609566	0.523902	-0.338974
O18	O	-1.109566	1.023902	0.161026
O19	O	-1.453336	0.249004	-0.438037
O20	O	-0.953336	0.749004	0.061963
O21	O	-1.334720	0.405450	-0.208253
O22	O	-0.834720	0.905450	0.291747
O23	O	-1.178385	0.405397	-0.338956
O24	O	-0.678385	0.905397	0.161044
O25	O	-1.334778	0.523809	-0.568708
O26	O	-0.834778	1.023809	-0.068708
O27	O	-1.178365	0.523845	-0.437982
O28	O	-0.678365	1.023845	0.062018
O29	O	-1.453310	0.405333	-0.568732
O30	O	-0.953310	0.905333	-0.068732
O31	O	-1.453127	0.680268	-0.338942
O32	O	-0.953127	1.180268	0.161058
O33	O	-1.334674	0.680227	-0.437974
O34	O	-0.834674	1.180227	0.062026
C35	C	-1.393912	0.715247	-0.388471
C36	C	-0.893912	1.215247	0.111529
C37	C	-1.393966	0.822461	-0.388492
C38	C	-0.893966	1.322461	0.111508
C39	C	-1.143376	0.464620	-0.388467
C40	C	-0.643376	0.964620	0.111533
C41	C	-1.036162	0.464637	-0.388478
C42	C	-0.536162	0.964637	0.111522
C43	C	-1.394053	0.464561	-0.598794
C44	C	-0.894053	0.964561	-0.098794
C45	C	-1.394080	0.464530	-0.688415
C46	C	-0.894080	0.964530	-0.188415
C47	C	-1.645583	0.464646	-0.388504
C48	C	-1.145583	0.964646	0.111496
C49	C	-1.752797	0.464652	-0.388512
C50	C	-1.252797	0.964652	0.111488
C51	C	-0.839867	0.464641	-0.388499
C52	C	-0.339867	0.964641	0.111501
C53	C	-0.949099	0.464636	-0.388485
C54	C	-0.449099	0.964636	0.111515
C55	C	-1.394061	1.018756	-0.388550
C56	C	-0.894061	1.518756	0.111450
C57	C	-1.394006	0.909523	-0.388520
C58	C	-0.894006	1.409523	0.111480
C59	C	-1.394087	1.213039	-0.388526
C60	C	-0.894087	1.713039	0.111474
C61	C	-1.394108	1.105825	-0.388568
C62	C	-0.894108	1.605825	0.111432
C63	C	-1.394124	0.464422	-1.016591
C64	C	-0.894124	0.964422	-0.516591
C65	C	-1.394109	0.464455	-0.925283
C66	C	-0.894109	0.964455	-0.425283
C67	C	-1.394102	0.464477	-0.852506
C68	C	-0.894102	0.964477	-0.352506
C69	C	-1.394086	0.464508	-0.761192
C70	C	-0.894086	0.964508	-0.261192
C71	C	-1.393983	0.464634	-0.178994
C72	C	-0.893983	0.964634	0.321006
C73	C	-1.394144	0.464393	-0.089374
C74	C	-0.894144	0.964393	0.410626
