data_functionalizedCrystal
_audit_creation_method	'MofGen! by Chris Wilmer'
_symmetry_space_group_name_H-M	'P1'
_symmetry_Int_Tables_number	1
_symmetry_cell_setting	triclinic
loop_
_symmetry_equiv_pos_as_xyz
  x,y,z
_cell_length_a	16.959454
_cell_length_b	12.827893
_cell_length_c	12.827885
_cell_angle_alpha	89.980538
_cell_angle_beta	90.024624
_cell_angle_gamma	89.999040
loop_
_atom_site_label
_atom_site_type_symbol
_atom_site_fract_x
_atom_site_fract_y
_atom_site_fract_z
Zn1	Zn	0.314644	1.597776	-0.590886
Zn2	Zn	0.814644	2.097776	-0.090886
Zn3	Zn	0.446843	1.597714	-0.416162
Zn4	Zn	0.946843	2.097714	0.083838
Zn5	Zn	0.314682	1.423017	-0.416160
Zn6	Zn	0.814682	1.923017	0.083840
Zn7	Zn	0.446784	1.423047	-0.590862
Zn8	Zn	0.946784	1.923047	-0.090862
O9	O	0.380738	1.510388	-0.503518
O10	O	0.880738	2.010388	-0.003518
O11	O	0.332189	1.744004	-0.567720
O12	O	0.832189	2.244004	-0.067720
O13	O	0.429352	1.574501	-0.269926
O14	O	0.929352	2.074501	0.230074
O15	O	0.204066	1.446213	-0.439347
O16	O	0.704066	1.946213	0.060653
O17	O	0.429315	1.743958	-0.439351
O18	O	0.929315	2.243958	0.060649
O19	O	0.204038	1.574608	-0.567717
O20	O	0.704038	2.074608	-0.067717
O21	O	0.332254	1.446152	-0.269924
O22	O	0.832254	1.946152	0.230076
O23	O	0.332197	1.276785	-0.439323
O24	O	0.832197	1.776785	0.060677
O25	O	0.429215	1.446264	-0.737102
O26	O	0.929215	1.946264	-0.237102
O27	O	0.429252	1.276807	-0.567677
O28	O	0.929252	1.776807	-0.067677
O29	O	0.332132	1.574637	-0.737119
O30	O	0.832132	2.074637	-0.237119
O31	O	0.557446	1.574530	-0.439328
O32	O	1.057446	2.074530	0.060672
O33	O	0.557403	1.446203	-0.567679
O34	O	1.057403	1.946203	-0.067679
C35	C	0.380723	1.238878	-0.503498
C36	C	0.880723	1.738878	-0.003498
C37	C	0.380736	1.122725	-0.503514
C38	C	0.880736	1.622725	-0.003514
C39	C	0.174570	1.510414	-0.503534
C40	C	0.674570	2.010414	-0.003534
C41	C	0.086714	1.510425	-0.503542
C42	C	0.586714	2.010425	-0.003542
C43	C	0.428836	1.070979	-0.566929
C44	C	0.928836	1.570979	-0.066929
C45	C	0.428850	0.950929	-0.566948
C46	C	0.928850	1.450929	-0.066948
C47	C	-0.284779	1.577332	-0.570396
C48	C	0.215221	2.077332	-0.070396
C49	C	-0.284745	1.443633	-0.436722
C50	C	0.215255	1.943633	0.063278
C51	C	-0.202199	1.443618	-0.436719
C52	C	0.297801	1.943618	0.063281
C53	C	-0.160939	1.510462	-0.503553
C54	C	0.339061	2.010462	-0.003553
C55	C	-0.202226	1.577321	-0.570392
C56	C	0.297774	2.077321	-0.070392
C57	C	-0.160907	1.376768	-0.369874
C58	C	0.339093	1.876768	0.130126
C59	C	-0.078356	1.376751	-0.369866
C60	C	0.421644	1.876751	0.130134
C61	C	-0.037095	1.443590	-0.436707
C62	C	0.462905	1.943590	0.063293
C63	C	-0.078386	1.510451	-0.503549
C64	C	0.421614	2.010451	-0.003549
C65	C	-0.037126	1.577295	-0.570384
C66	C	0.462874	2.077295	-0.070384
C67	C	-0.078416	1.644151	-0.637232
C68	C	0.421584	2.144151	-0.137232
C69	C	-0.160965	1.644160	-0.637233
C70	C	0.339035	2.144160	-0.137233
C71	C	0.045454	1.443581	-0.436707
C72	C	0.545454	1.943581	0.063293
C73	C	0.045427	1.577284	-0.570380
C74	C	0.545427	2.077284	-0.070380
C75	C	0.586105	1.510391	-0.503524
C76	C	1.086105	2.010391	-0.003524
C77	C	0.673961	1.510488	-0.503561
C78	C	1.173961	2.010488	-0.003561
C79	C	0.380662	1.510460	-0.776088
C80	C	0.880662	2.010460	-0.276088
C81	C	0.380630	1.510491	-0.892241
C82	C	0.880630	2.010491	-0.392241
C83	C	0.380754	1.782958	-0.503538
C84	C	0.880754	2.282958	-0.003538
C85	C	0.380761	1.899112	-0.503547
C86	C	0.880761	2.399112	-0.003547
C87	C	0.332574	1.447000	-0.944025
C88	C	0.832574	1.947000	-0.444025
C89	C	0.332539	1.447030	-1.064075
C90	C	0.832539	1.947030	-0.564075
C91	C	0.380757	1.510377	-0.232008
C92	C	0.880757	2.010377	0.267992
C93	C	0.380567	1.510548	-0.115855
C94	C	0.880567	2.010548	0.384145
H95	H	0.470004	1.115554	-0.621211
H96	H	0.970004	1.615554	-0.121211
C97	C	-0.033020	1.717679	-0.710746
C98	C	0.466980	2.217679	-0.210746
N99	N	0.001176	1.773058	-0.766116
N100	N	0.501176	2.273058	-0.266116
C101	C	-0.032944	1.303200	-0.296341
C102	C	0.467056	1.803200	0.203659
N103	N	0.001260	1.247797	-0.240964
N104	N	0.501260	1.747797	0.259036
C105	C	0.276954	1.373595	-1.124234
C106	C	0.776954	1.873595	-0.624234
N107	N	0.235086	1.318280	-1.169549
N108	N	0.735086	1.818280	-0.669549
C109	C	-0.330133	1.370110	-0.363208
C110	C	0.169867	1.870110	0.136792
N111	N	-0.364323	1.314726	-0.307837
N112	N	0.135677	1.814726	0.192163
C113	C	0.436153	1.583988	-1.055703
C114	C	0.936153	2.083988	-0.555703
N115	N	0.478023	1.639301	-1.010389
N116	N	0.978023	2.139301	-0.510389
H117	H	0.421748	1.564869	-0.936784
H118	H	0.921748	2.064869	-0.436784
H119	H	0.339581	0.943606	-0.449248
H120	H	0.839581	1.443606	0.050752
C121	C	0.484486	0.890813	-0.640297
C122	C	0.984486	1.390813	-0.140297
N123	N	0.526392	0.845532	-0.695547
N124	N	1.026392	1.345532	-0.195547
H125	H	0.339562	1.078151	-0.449240
H126	H	0.839562	1.578151	0.050760
H127	H	0.079015	1.631709	-0.624814
H128	H	0.579015	2.131709	-0.124814
H129	H	-0.194588	1.698593	-0.691657
H130	H	0.305412	2.198593	-0.191657
C131	C	0.277017	1.373542	-0.883855
C132	C	0.777017	1.873542	-0.383855
N133	N	0.235167	1.318216	-0.838536
N134	N	0.735167	1.818216	-0.338536
C135	C	0.090869	1.370044	-0.363178
C136	C	0.590869	1.870044	0.136822
N137	N	0.125075	1.314650	-0.307794
N138	N	0.625075	1.814650	0.192206
H139	H	-0.318400	1.631763	-0.624826
H140	H	0.181600	2.131763	-0.124826
C141	C	-0.206297	1.303245	-0.296361
C142	C	0.293703	1.803245	0.203639
N143	N	-0.240489	1.247862	-0.240991
N144	N	0.259511	1.747862	0.259009
