data_functionalizedCrystal
_audit_creation_method	'MofGen! by Chris Wilmer'
_symmetry_space_group_name_H-M	'P1'
_symmetry_Int_Tables_number	1
_symmetry_cell_setting	triclinic
loop_
_symmetry_equiv_pos_as_xyz
  x,y,z
_cell_length_a	21.295418
_cell_length_b	21.295417
_cell_length_c	21.295411
_cell_angle_alpha	89.978356
_cell_angle_beta	90.043738
_cell_angle_gamma	89.953681
loop_
_atom_site_label
_atom_site_type_symbol
_atom_site_fract_x
_atom_site_fract_y
_atom_site_fract_z
Zn1	Zn	0.962356	0.250415	0.356234
Zn2	Zn	1.462356	0.750415	0.856234
Zn3	Zn	0.962258	0.355667	0.250959
Zn4	Zn	1.462258	0.855667	0.750959
Zn5	Zn	0.857079	0.250445	0.250943
Zn6	Zn	1.357079	0.750445	0.750943
Zn7	Zn	0.857048	0.355680	0.356155
Zn8	Zn	1.357048	0.855680	0.856155
O9	O	0.909685	0.303052	0.303573
O10	O	1.409685	0.803052	0.803573
O11	O	1.050432	0.264360	0.342308
O12	O	1.550432	0.764360	0.842308
O13	O	0.948278	0.341716	0.162867
O14	O	1.448278	0.841716	0.662867
O15	O	0.871098	0.162351	0.264937
O16	O	1.371098	0.662351	0.764937
O17	O	1.050361	0.341688	0.264963
O18	O	1.550361	0.841688	0.764963
O19	O	0.948444	0.162330	0.342293
O20	O	1.448444	0.662330	0.842293
O21	O	0.871003	0.264410	0.162856
O22	O	1.371003	0.764410	0.662856
O23	O	0.768985	0.264422	0.264861
O24	O	1.268985	0.764422	0.764861
O25	O	0.871046	0.341709	0.444255
O26	O	1.371046	0.841709	0.944255
O27	O	0.768963	0.341738	0.342160
O28	O	1.268963	0.841738	0.842160
O29	O	0.948415	0.264372	0.444313
O30	O	1.448415	0.764372	0.944313
O31	O	0.948248	0.443758	0.264887
O32	O	1.448248	0.943758	0.764887
O33	O	0.870951	0.443767	0.342175
O34	O	1.370951	0.943767	0.842175
C35	C	0.746134	0.303085	0.303500
C36	C	1.246134	0.803085	0.803500
C37	C	0.676166	0.303114	0.303484
C38	C	1.176166	0.803114	0.803484
C39	C	0.909603	0.466603	0.303538
C40	C	1.409603	0.966603	0.803538
C41	C	0.909625	0.536571	0.303544
C42	C	1.409625	1.036571	0.803544
C43	C	0.643304	0.343426	0.343674
C44	C	1.143304	0.843426	0.843674
C45	C	0.577561	0.343410	0.343702
C46	C	1.077561	0.843410	0.843702
C47	C	0.544683	0.303090	0.303530
C48	C	1.044683	0.803090	0.803530
C49	C	0.577553	0.262770	0.263337
C50	C	1.077553	0.762770	0.763337
C51	C	0.643294	0.262783	0.263315
C52	C	1.143294	0.762783	0.763315
N53	N	0.441407	0.298163	0.248472
N54	N	0.941407	0.798163	0.748472
N55	N	0.378956	0.298155	0.248495
N56	N	0.878956	0.798155	0.748495
C57	C	0.346608	0.303050	0.303596
C58	C	0.846608	0.803050	0.803596
N59	N	0.379072	0.307965	0.358675
N60	N	0.879072	0.807965	0.858675
N61	N	0.441529	0.307976	0.358650
N62	N	0.941529	0.807976	0.858650
C63	C	0.473398	0.303072	0.303550
C64	C	0.973398	0.803072	0.803550
C65	C	0.242461	0.343346	0.343820
C66	C	0.742461	0.843346	0.843820
C67	C	0.176717	0.343326	0.343849
C68	C	0.676717	0.843326	0.843849
C69	C	0.176710	0.262690	0.263479
C70	C	0.676710	0.762690	0.763479
C71	C	0.242453	0.262707	0.263455
C72	C	0.742453	0.762707	0.763455
C73	C	0.275324	0.303038	0.303625
C74	C	0.775324	0.803038	0.803625
C75	C	0.909738	0.303038	0.467763
C76	C	1.409738	0.803038	0.967763
C77	C	0.909760	0.303033	0.537731
C78	C	1.409760	0.803033	1.037731
C79	C	1.073876	0.303019	0.303646
C80	C	1.573876	0.803019	0.803646
C81	C	1.143844	0.303005	0.303677
C82	C	1.643844	0.803005	0.803677
C83	C	0.909785	0.138861	0.303622
C84	C	1.409785	0.638861	0.803622
C85	C	0.909828	0.068893	0.303642
C86	C	1.409828	0.568893	0.803642
C87	C	0.949910	0.569412	0.263342
C88	C	1.449910	1.069412	0.763342
C89	C	0.949939	0.635155	0.263356
C90	C	1.449939	1.135155	0.763356
C91	C	0.909673	0.668054	0.303566
C92	C	1.409673	1.168054	0.803566
C93	C	0.869386	0.635205	0.343776
C94	C	1.369386	1.135205	0.843776
C95	C	0.869362	0.569464	0.343765
C96	C	1.369362	1.069464	0.843765
N97	N	0.854606	0.771336	0.308340
N98	N	1.354606	1.271336	0.808340
N99	N	0.854630	0.833787	0.308347
N100	N	1.354630	1.333787	0.808347
C101	C	0.909743	0.866129	0.303602
C102	C	1.409743	1.366129	0.803602
N103	N	0.964832	0.833659	0.298838
N104	N	1.464832	1.333659	0.798838
N105	N	0.964807	0.771202	0.298828
N106	N	1.464807	1.271202	0.798828
C107	C	0.909695	0.739339	0.303582
C108	C	1.409695	1.239339	0.803582
C109	C	0.950063	0.970255	0.263413
C110	C	1.450063	1.470255	0.763413
C111	C	0.950094	1.035999	0.263431
C112	C	1.450094	1.535999	0.763431
C113	C	0.869535	1.036048	0.343848
C114	C	1.369535	1.536048	0.843848
C115	C	0.869510	0.970305	0.343833
C116	C	1.369510	1.470305	0.843833
C117	C	0.909773	0.937413	0.303612
C118	C	1.409773	1.437413	0.803612
C119	C	0.909670	0.303019	0.140021
C120	C	1.409670	0.803019	0.640021
C121	C	0.909769	0.302848	0.070054
C122	C	1.409769	0.802848	0.570054
C123	C	0.950044	0.262761	0.570629
C124	C	1.450044	0.762761	1.070629
C125	C	0.950043	0.262734	0.636371
C126	C	1.450043	0.762734	1.136371
C127	C	0.909765	0.302989	0.669214
C128	C	1.409765	0.802989	1.169214
C129	C	0.869473	0.343263	0.636308
C130	C	1.369473	0.843263	1.136308
C131	C	0.869470	0.343285	0.570567
C132	C	1.369470	0.843285	1.070567
N133	N	0.904908	0.358058	0.772428
N134	N	1.404908	0.858058	1.272428
N135	N	0.904914	0.358036	0.834879
N136	N	1.404914	0.858036	1.334879
C137	C	0.909769	0.302926	0.867289
C138	C	1.409769	0.802926	1.367289
N139	N	0.914629	0.247837	0.834888
N140	N	1.414629	0.747837	1.334888
N141	N	0.914627	0.247860	0.772430
N142	N	1.414627	0.747860	1.272430
C143	C	0.909763	0.302970	0.740499
C144	C	1.409763	0.802970	1.240499
C145	C	0.950054	0.262621	0.971472
C146	C	1.450054	0.762621	1.471472
C147	C	0.950049	0.262593	1.037216
C148	C	1.450049	0.762593	1.537216
C149	C	0.869482	0.343128	1.037151
C150	C	1.369482	0.843128	1.537151
C151	C	0.869484	0.343151	0.971409
C152	C	1.369484	0.843151	1.471409
C153	C	0.909773	0.302898	0.938573
C154	C	1.409773	0.802898	1.438573
H155	H	0.670063	0.376266	0.376384
H156	H	1.170063	0.876266	0.876384
O157	O	0.830183	0.667091	0.382805
O158	O	1.330183	1.167091	0.882805
C159	C	0.767444	0.651118	0.368958
C160	C	1.267444	1.151118	0.868958
H161	H	0.766133	0.603399	0.344751
H162	H	1.266133	1.103399	0.844751
H163	H	0.746269	0.688159	0.336574
H164	H	1.246269	1.188159	0.836574
C165	C	0.730893	0.706700	0.460011
C166	C	1.230893	1.206700	0.960011
C167	C	0.729284	0.648089	0.430284
C168	C	1.229284	1.148089	0.930284
H169	H	0.707353	0.704834	0.497839
H170	H	1.207353	1.204834	0.997839
H171	H	0.773162	0.717464	0.469339
H172	H	1.273162	1.217464	0.969339
H173	H	0.713249	0.737562	0.433018
H174	H	1.213249	1.237562	0.933018
H175	H	0.746935	0.617230	0.457274
H176	H	1.246935	1.117230	0.957274
H177	H	0.687017	0.637320	0.420962
H178	H	1.187017	1.137320	0.920962
O179	O	0.989212	0.223703	0.668405
O180	O	1.489212	0.723703	1.168405
C181	C	1.029854	0.259532	0.706446
C182	C	1.529854	0.759532	1.206446
H183	H	1.007616	0.307235	0.716273
H184	H	1.507616	0.807235	1.216273
H185	H	1.076497	0.266453	0.681142
H186	H	1.576497	0.766453	1.181142
C187	C	1.068595	0.166291	0.756836
C188	C	1.568595	0.666291	1.256836
C189	C	1.041279	0.224879	0.768910
C190	C	1.541279	0.724879	1.268910
H191	H	1.075645	0.144914	0.795366
H192	H	1.575645	0.644914	1.295366
H193	H	1.041215	0.142152	0.731206
H194	H	1.541215	0.642152	1.231206
H195	H	1.107461	0.172066	0.735748
H196	H	1.607461	0.672066	1.235748
H197	H	1.002411	0.219102	0.789990
H198	H	1.502411	0.719102	1.289990
H199	H	1.068653	0.249016	0.794545
H200	H	1.568653	0.749016	1.294545
O201	O	0.274476	0.223574	0.224468
O202	O	0.774476	0.723574	0.724468
C203	C	0.339550	0.232243	0.233049
C204	C	0.839550	0.732243	0.733049
H205	H	0.348562	0.252931	0.281588
H206	H	0.848562	0.752931	0.781588
H207	H	0.358130	0.265716	0.195643
H208	H	0.858130	0.765716	0.695643
C209	C	0.362292	0.143141	0.167766
C210	C	0.862292	0.643141	0.667766
C211	C	0.373362	0.168545	0.227385
C212	C	0.873362	0.668545	0.727385
H213	H	0.383150	0.103850	0.164270
H214	H	0.883150	0.603850	0.664270
H215	H	0.318450	0.137302	0.161982
H216	H	0.818450	0.637302	0.661982
H217	H	0.377775	0.171041	0.136601
H218	H	0.877775	0.671041	0.636601
H219	H	0.357871	0.140649	0.258548
H220	H	0.857871	0.640649	0.758548
H221	H	0.417202	0.174378	0.233174
H222	H	0.917202	0.674378	0.733174
H223	H	0.982902	1.062737	0.230695
H224	H	1.482902	1.562737	0.730695
H225	H	0.836704	0.943564	0.376567
H226	H	1.336704	1.443564	0.876567
H227	H	0.836680	0.375898	1.063891
H228	H	1.336680	0.875898	1.563891
H229	H	0.149942	0.229857	0.230773
H230	H	0.649942	0.729857	0.730773
O231	O	0.989196	0.223598	0.538831
O232	O	1.489196	0.723598	1.038831
C233	C	1.024763	0.188058	0.581970
C234	C	1.524763	0.688058	1.081970
H235	H	0.998982	0.185870	0.628815
H236	H	1.498982	0.685870	1.128815
H237	H	1.072557	0.211099	0.588994
H238	H	1.572557	0.711099	1.088994
C239	C	1.065540	0.123753	0.498791
C240	C	1.565540	0.623753	0.998791
C241	C	1.033873	0.121062	0.556325
C242	C	1.533873	0.621062	1.056325
H243	H	1.071163	0.082428	0.482971
H244	H	1.571163	0.582428	0.982971
H245	H	1.041580	0.147699	0.469727
H246	H	1.541580	0.647699	0.969727
H247	H	1.105366	0.142957	0.504652
H248	H	1.605366	0.642957	1.004652
H249	H	0.994046	0.101866	0.550461
H250	H	1.494046	0.601866	1.050461
H251	H	1.057827	0.097112	0.585388
H252	H	1.557827	0.597112	1.085388
O253	O	0.989242	0.223450	1.069077
O254	O	1.489242	0.723450	1.569077
C255	C	1.024789	0.187920	1.025995
C256	C	1.524789	0.687920	1.525995
H257	H	1.026950	0.213720	0.979133
H258	H	1.526950	0.713720	1.479133
H259	H	1.001771	0.140116	1.018986
H260	H	1.501771	0.640116	1.518986
C261	C	1.089137	0.147142	1.109259
C262	C	1.589137	0.647142	1.609259
C263	C	1.091796	0.178833	1.051705
C264	C	1.591796	0.678833	1.551705
H265	H	1.130470	0.141534	1.125119
H266	H	1.630470	0.641534	1.625119
H267	H	1.065187	0.171077	1.138286
H268	H	1.565187	0.671077	1.638286
H269	H	1.069953	0.107308	1.103411
H270	H	1.569953	0.607308	1.603411
H271	H	1.110973	0.218668	1.057556
H272	H	1.610973	0.718668	1.557556
H273	H	1.115751	0.154904	1.022680
H274	H	1.615751	0.654904	1.522680
O275	O	0.830377	0.382218	0.939351
O276	O	1.330377	0.882218	1.439351
C277	C	0.839024	0.373617	0.874285
C278	C	1.339024	0.873617	1.374285
H279	H	0.859668	0.325036	0.865323
H280	H	1.359668	0.825036	1.365323
H281	H	0.872524	0.410955	0.855652
H282	H	1.372524	0.910955	1.355652
C283	C	0.749972	0.439081	0.851491
C284	C	1.249972	0.939081	1.351491
C285	C	0.775323	0.379410	0.840484
C286	C	1.275323	0.879410	1.340484
H287	H	0.710680	0.442657	0.830640
H288	H	1.210680	0.942657	1.330640
H289	H	0.744148	0.444878	0.895328
H290	H	1.244148	0.944878	1.395328
H291	H	0.777895	0.470189	0.835964
H292	H	1.277895	0.970189	1.335964
H293	H	0.747404	0.348304	0.856018
H294	H	1.247404	0.848304	1.356018
H295	H	0.781141	0.373609	0.796649
H296	H	1.281141	0.873609	1.296649
O297	O	0.830315	0.537530	0.382884
O298	O	1.330315	1.037530	0.882884
C299	C	0.866119	0.499424	0.423567
C300	C	1.366119	0.999424	0.923567
H301	H	0.915703	0.519174	0.427522
H302	H	1.415703	1.019174	0.927522
H303	H	0.868278	0.449609	0.404095
H304	H	1.368278	0.949609	0.904095
C305	C	0.774433	0.474153	0.484111
C306	C	1.274433	0.974153	0.984111
C307	C	0.835332	0.498413	0.488972
C308	C	1.335332	0.998413	0.988972
H309	H	0.755441	0.473527	0.524455
H310	H	1.255441	0.973527	1.024455
H311	H	0.750310	0.499824	0.456701
H312	H	1.250310	0.999824	0.956701
H313	H	0.776240	0.432643	0.467881
H314	H	1.276240	0.932643	0.967881
H315	H	0.833523	0.539925	0.505194
H316	H	1.333523	1.039925	1.005194
H317	H	0.859454	0.472749	0.516387
H318	H	1.359454	0.972749	1.016387
O319	O	0.675191	0.223693	0.224179
O320	O	1.175191	0.723693	0.724179
C321	C	0.659029	0.237343	0.161421
C322	C	1.159029	0.737343	0.661421
H323	H	0.640899	0.287623	0.158157
H324	H	1.140899	0.787623	0.658157
H325	H	0.620887	0.203560	0.145043
H326	H	1.120887	0.703560	0.645043
C327	C	0.739656	0.168218	0.123411
C328	C	1.239656	0.668218	0.623411
C329	C	0.717394	0.229974	0.119401
C330	C	1.217394	0.729974	0.619401
H331	H	0.775657	0.163669	0.097489
H332	H	1.275657	0.663669	0.597489
H333	H	0.750544	0.159019	0.165692
H334	H	1.250544	0.659019	0.665692
H335	H	0.707866	0.140072	0.109763
H336	H	1.207866	0.640072	0.609763
H337	H	0.749182	0.258118	0.133055
H338	H	1.249182	0.758118	0.633055
H339	H	0.706513	0.239177	0.077121
H340	H	1.206513	0.739177	0.577121
O341	O	0.830442	1.068095	0.382852
O342	O	1.330442	1.568095	0.882852
C343	C	0.839115	1.133163	0.374256
C344	C	1.339115	1.633163	0.874256
H345	H	0.859756	1.142146	0.325703
H346	H	1.359756	1.642146	0.825703
H347	H	0.872629	1.151756	0.411639
H348	H	1.372629	1.651756	0.911639
C349	C	0.750082	1.155956	0.439590
C350	C	1.250082	1.655956	0.939590
C351	C	0.775429	1.166990	0.379954
C352	C	1.275429	1.666990	0.879954
H353	H	0.710799	1.176823	0.443107
H354	H	1.210799	1.676823	0.943107
H355	H	0.744240	1.112119	0.445383
H356	H	1.244240	1.612119	0.945383
H357	H	0.778016	1.171451	0.470736
H358	H	1.278016	1.671451	0.970736
H359	H	0.747499	1.151489	0.348810
H360	H	1.247499	1.651489	0.848810
H361	H	0.781265	1.210826	0.374155
H362	H	1.281265	1.710826	0.874155
H363	H	0.982857	0.229842	0.944736
H364	H	1.482857	0.729842	1.444736
O365	O	0.989235	0.938396	0.224327
O366	O	1.489235	1.438396	0.724327
C367	C	1.024791	0.981484	0.188837
C368	C	1.524791	1.481484	0.688837
H369	H	1.026979	1.028328	0.214635
H370	H	1.526979	1.528328	0.714635
H371	H	1.001763	0.988534	0.141002
H372	H	1.501763	1.488534	0.641002
C373	C	1.089092	0.898214	0.148155
C374	C	1.589092	1.398214	0.648155
C375	C	1.091785	0.955747	0.179842
C376	C	1.591785	1.455747	0.679842
H377	H	1.130417	0.882337	0.142603
H378	H	1.630417	1.382337	0.642603
H379	H	1.065136	0.869184	0.172063
H380	H	1.565136	1.369184	0.672063
H381	H	1.069900	0.904096	0.108295
H382	H	1.569900	1.404096	0.608295
H383	H	1.110969	0.949862	0.219703
H384	H	1.610969	1.449862	0.719703
H385	H	1.115746	0.984775	0.155940
H386	H	1.615746	1.484775	0.655940
O387	O	0.830438	0.382437	0.668236
O388	O	1.330438	0.882437	1.168236
C389	C	0.866254	0.423066	0.706297
C390	C	1.366254	0.923066	1.206297
H391	H	0.915829	0.426950	0.686519
H392	H	1.415829	0.926950	1.186519
H393	H	0.868437	0.403588	0.756124
H394	H	1.368437	0.903588	1.256124
C395	C	0.774572	0.483741	0.731570
C396	C	1.274572	0.983741	1.231570
C397	C	0.835459	0.488516	0.707276
C398	C	1.335459	0.988516	1.207276
H399	H	0.755575	0.524113	0.732177
H400	H	1.255575	1.024113	1.232177
H401	H	0.750441	0.456367	0.705930
H402	H	1.250441	0.956367	1.205930
H403	H	0.776399	0.467507	0.773091
H404	H	1.276399	0.967507	1.273091
H405	H	0.833630	0.504742	0.665754
H406	H	1.333630	1.004742	1.165754
H407	H	0.859589	0.515894	0.732909
H408	H	1.359589	1.015894	1.232909
H409	H	0.836663	0.376078	0.543782
H410	H	1.336663	0.876078	1.043782
H411	H	0.550800	0.376236	0.376431
H412	H	1.050800	0.876236	0.876431
O413	O	0.545645	0.223516	0.224380
O414	O	1.045645	0.723516	0.724380
C415	C	0.561794	0.160799	0.238237
C416	C	1.061794	0.660799	0.738237
H417	H	0.579925	0.157696	0.288525
H418	H	1.079925	0.657696	0.788525
H419	H	0.599932	0.144300	0.204505
H420	H	1.099932	0.644300	0.704505
C421	C	0.481157	0.122581	0.169243
C422	C	0.981157	0.622581	0.669243
C423	C	0.503420	0.118769	0.231010
C424	C	1.003420	0.618769	0.731010
H425	H	0.445150	0.096654	0.164783
H426	H	0.945150	0.596654	0.664783
H427	H	0.470278	0.164835	0.159905
H428	H	0.970278	0.664835	0.659905
H429	H	0.512944	0.108833	0.141140
H430	H	1.012944	0.608833	0.641140
H431	H	0.471636	0.132525	0.259111
H432	H	0.971636	0.632525	0.759111
H433	H	0.514292	0.076517	0.240352
H434	H	1.014292	0.576517	0.740352
O435	O	0.274300	0.382536	0.382904
O436	O	0.774300	0.882536	0.882904
C437	C	0.231193	0.418120	0.418378
C438	C	0.731193	0.918120	0.918378
H439	H	0.184359	0.392329	0.420621
H440	H	0.684359	0.892329	0.920621
H441	H	0.224127	0.465895	0.395244
H442	H	0.724127	0.965895	0.895244
C443	C	0.314440	0.458968	0.482595
C444	C	0.814440	0.958968	0.982595
C445	C	0.256919	0.427289	0.485354
C446	C	0.756919	0.927289	0.985354
H447	H	0.330309	0.464627	0.523907
H448	H	0.830309	0.964627	1.023907
H449	H	0.343482	0.434996	0.458694
H450	H	0.843482	0.934996	0.958694
H451	H	0.308543	0.498777	0.463313
H452	H	0.808543	0.998777	0.963313
H453	H	0.262818	0.387478	0.504627
H454	H	0.762818	0.887478	1.004627
H455	H	0.227878	0.451254	0.509259
H456	H	0.727878	0.951254	1.009259
O457	O	0.989125	0.667101	0.224382
O458	O	1.489125	1.167101	0.724382
C459	C	1.029770	0.705086	0.260261
C460	C	1.529770	1.205086	0.760261
H461	H	1.033656	0.685243	0.309839
H462	H	1.533656	1.185243	0.809839
H463	H	1.010308	0.754925	0.262423
H464	H	1.510308	1.254925	0.762423
C465	C	1.090439	0.730432	0.168668
C466	C	1.590439	1.230432	0.668668
C467	C	1.095216	0.706057	0.229559
C468	C	1.595216	1.206057	0.729559
H469	H	1.130808	0.731033	0.149729
H470	H	1.630808	1.231033	0.649729
H471	H	1.063054	0.704842	0.144495
H472	H	1.563054	1.204842	0.644495
H473	H	1.074218	0.771962	0.170478
H474	H	1.574218	1.271962	0.670478
H475	H	1.111429	0.664525	0.227747
H476	H	1.611429	1.164525	0.727747
H477	H	1.122605	0.731639	0.253731
H478	H	1.622605	1.231639	0.753731
O479	O	0.144766	0.382398	0.382959
O480	O	0.644766	0.882398	0.882959
C481	C	0.106811	0.346616	0.423692
C482	C	0.606811	0.846616	0.923692
H483	H	0.126677	0.297047	0.427670
H484	H	0.626677	0.797047	0.927670
H485	H	0.056966	0.344407	0.404253
H486	H	0.556966	0.844407	0.904253
C487	C	0.081446	0.438354	0.484187
C488	C	0.581446	0.938354	0.984187
C489	C	0.105849	0.377474	0.489076
C490	C	0.605849	0.877474	0.989076
H491	H	0.080850	0.457389	0.524518
H492	H	0.580850	0.957389	1.024518
H493	H	0.107015	0.462461	0.456743
H494	H	0.607015	0.962461	0.956743
H495	H	0.039911	0.436504	0.467985
H496	H	0.539911	0.936504	0.967985
H497	H	0.147386	0.379325	0.505270
H498	H	0.647386	0.879325	1.005270
H499	H	0.080287	0.353367	0.516524
H500	H	0.580287	0.853367	1.016524
H501	H	0.982696	0.542633	0.230593
H502	H	1.482696	1.042633	0.730593
