data_functionalizedCrystal
_audit_creation_method	'MofGen! by Chris Wilmer'
_symmetry_space_group_name_H-M	'P1'
_symmetry_Int_Tables_number	1
_symmetry_cell_setting	triclinic
loop_
_symmetry_equiv_pos_as_xyz
  x,y,z
_cell_length_a	21.295418
_cell_length_b	11.169416
_cell_length_c	11.169409
_cell_angle_alpha	90.030874
_cell_angle_beta	89.957636
_cell_angle_gamma	89.973844
loop_
_atom_site_label
_atom_site_type_symbol
_atom_site_fract_x
_atom_site_fract_y
_atom_site_fract_z
Zn1	Zn	0.962435	0.477203	-0.679277
Zn2	Zn	0.962377	0.677944	-0.478599
Zn3	Zn	0.857161	0.477329	-0.478532
Zn4	Zn	0.857165	0.677898	-0.679165
O5	O	0.909785	0.577593	-0.578893
O6	O	1.050517	0.503798	-0.652731
O7	O	0.948394	0.651403	-0.310640
O8	O	0.871149	0.309362	-0.505181
O9	O	1.050475	0.651281	-0.505294
O10	O	0.948493	0.309270	-0.652667
O11	O	0.871092	0.504012	-0.310591
O12	O	0.769072	0.503968	-0.505072
O13	O	0.871155	0.651204	-0.847130
O14	O	0.769075	0.651326	-0.652476
O15	O	0.948497	0.503754	-0.847212
O16	O	0.948398	0.845887	-0.505186
O17	O	0.871099	0.845854	-0.652540
C18	C	0.909760	0.889418	-0.578884
C19	C	0.909807	1.022818	-0.578920
C20	C	0.746233	0.577657	-0.578755
C21	C	0.676265	0.577712	-0.578725
C22	C	0.909833	0.577460	-0.891936
C23	C	0.909854	0.577403	-1.025336
C24	C	0.643416	0.654543	-0.655363
C25	C	0.577674	0.654514	-0.655417
C26	C	0.544783	0.577666	-0.578811
C27	C	0.577639	0.500820	-0.502167
C28	C	0.643380	0.500843	-0.502124
N29	N	0.441506	0.568308	-0.473837
N30	N	0.379055	0.568293	-0.473882
C31	C	0.346708	0.577589	-0.578938
N32	N	0.379172	0.586925	-0.683951
N33	N	0.441629	0.586946	-0.683905
C34	C	0.473497	0.577632	-0.578850
C35	C	0.242574	0.654392	-0.655642
C36	C	0.176830	0.654354	-0.655698
C37	C	0.176797	0.500667	-0.502437
C38	C	0.242539	0.500699	-0.502392
C39	C	0.275424	0.577568	-0.578992
C40	C	1.073975	0.577531	-0.579033
C41	C	1.143943	0.577504	-0.579092
C42	C	0.909827	0.264551	-0.578929
C43	C	0.909845	0.131151	-0.578944
C44	C	0.909773	0.577640	-0.267069
C45	C	0.909874	0.577358	-0.133669
H46	H	0.550923	0.717078	-0.717830
C47	C	0.541461	0.416288	-0.417899
C48	C	0.496323	0.322111	-0.470093
C49	C	0.460145	0.237571	-0.385826
C50	C	0.469105	0.247208	-0.249366
C51	C	0.514245	0.341388	-0.197165
C52	C	0.550423	0.425928	-0.281431
H53	H	0.489689	0.314974	-0.571115
H54	H	0.426730	0.167853	-0.424470
H55	H	0.442324	0.184626	-0.186987
H56	H	0.520879	0.348525	-0.096143
H57	H	0.583838	0.495647	-0.242788
H58	H	0.150017	0.438090	-0.440068
C59	C	0.278677	0.416204	-0.418065
C60	C	0.242502	0.331678	-0.333790
C61	C	0.278640	0.247181	-0.249457
C62	C	0.350953	0.247210	-0.249398
C63	C	0.387132	0.331740	-0.333676
C64	C	0.350994	0.416236	-0.418010
H65	H	0.188968	0.331653	-0.333830
H66	H	0.251857	0.184607	-0.187069
H67	H	0.377704	0.184661	-0.186970
H68	H	0.440665	0.331764	-0.333636
H69	H	0.377776	0.478811	-0.480398
C70	C	0.278754	0.738929	-0.739911
C71	C	0.323885	0.833119	-0.687720
C72	C	0.360063	0.917654	-0.771991
C73	C	0.351110	0.908000	-0.908451
C74	C	0.305977	0.813807	-0.960649
C75	C	0.269798	0.729272	-0.876378
H76	H	0.330514	0.840269	-0.586698
H77	H	0.393474	0.987382	-0.733350
H78	H	0.377892	0.970578	-0.970833
H79	H	0.299348	0.806657	-1.061671
H80	H	0.236388	0.659544	-0.915019
C81	C	0.679517	0.416333	-0.417806
C82	C	0.670534	0.279902	-0.427828
C83	C	0.706671	0.195394	-0.343505
C84	C	0.751792	0.247317	-0.249161
C85	C	0.760778	0.383756	-0.239136
C86	C	0.724640	0.468264	-0.323458
H87	H	0.637131	0.241458	-0.497670
H88	H	0.700019	0.094393	-0.350927
H89	H	0.778543	0.184759	-0.186741
H90	H	0.794181	0.422199	-0.169293
H91	H	0.731292	0.569265	-0.316036
C92	C	0.679586	0.739087	-0.739636
C93	C	0.670494	0.875510	-0.729624
C94	C	0.706664	0.960051	-0.813900
C95	C	0.751928	0.908168	-0.908189
C96	C	0.761023	0.771738	-0.918205
C97	C	0.724852	0.687197	-0.833928
H98	H	0.636985	0.913923	-0.659822
H99	H	0.699932	1.061046	-0.806485
H100	H	0.778704	0.970750	-0.970575
H101	H	0.794532	0.733325	-0.988006
H102	H	0.731585	0.586202	-0.841343
C103	C	0.140694	0.738871	-0.740009
C104	C	0.176869	0.823420	-0.824261
C105	C	0.140732	0.907937	-0.908574
C106	C	0.068419	0.907907	-0.908635
C107	C	0.032239	0.823356	-0.824380
C108	C	0.068377	0.738838	-0.740067
H109	H	0.230403	0.823445	-0.824218
H110	H	0.167515	0.970528	-0.970945
H111	H	0.041668	0.970472	-0.971048
H112	H	-0.021294	0.823331	-0.824422
H113	H	0.041594	0.676247	-0.677696
