data_functionalizedCrystal
_audit_creation_method	'MofGen! by Chris Wilmer'
_symmetry_space_group_name_H-M	'P1'
_symmetry_Int_Tables_number	1
_symmetry_cell_setting	triclinic
loop_
_symmetry_equiv_pos_as_xyz
  x,y,z
_cell_length_a	15.944551
_cell_length_b	15.944551
_cell_length_c	15.021413
_cell_angle_alpha	90.003065
_cell_angle_beta	89.997174
_cell_angle_gamma	83.498738
loop_
_atom_site_label
_atom_site_type_symbol
_atom_site_fract_x
_atom_site_fract_y
_atom_site_fract_z
O1	O	1.114529	0.108321	-0.073941
O2	O	0.869979	0.121677	-0.073964
O3	O	0.998932	-0.007276	-0.073944
O4	O	0.985576	0.237274	-0.073961
O5	O	0.998912	-0.007257	0.074121
O6	O	0.869959	0.121695	0.074101
O7	O	1.114508	0.108339	0.074123
Zn8	Zn	0.992230	0.115020	0.097620
Zn9	Zn	0.992257	0.114996	-0.097461
O10	O	0.985555	0.237292	0.074103
C11	C	0.838675	0.121132	0.000066
C12	C	0.745429	0.119470	0.000057
C13	C	0.530572	0.035565	0.000081
C14	C	0.469562	0.074518	-0.072926
C15	C	0.574703	0.116462	0.000068
C16	C	0.469564	0.074556	0.073054
C17	C	0.409790	0.113551	0.000083
C18	C	0.514921	0.155438	-0.072998
C19	C	0.514930	0.155464	0.073047
C20	C	0.453937	0.194476	0.000023
C21	C	0.669705	0.118137	0.000059
C22	C	0.314789	0.111883	0.000085
C23	C	0.998367	-0.038561	0.000089
C24	C	0.996705	-0.131807	0.000089
C25	C	0.912801	-0.346663	0.000069
C26	C	0.951753	-0.407672	0.073077
C27	C	0.993698	-0.302533	0.000082
C28	C	0.951792	-0.407673	-0.072903
C29	C	0.990787	-0.467445	0.000071
C30	C	1.032672	-0.362313	0.073150
C31	C	1.032700	-0.362308	-0.072895
C32	C	1.071711	-0.423298	0.000131
C33	C	0.995372	-0.207530	0.000089
C34	C	0.989119	-0.562446	0.000070
C35	C	1.145813	0.108885	0.000092
C36	C	1.239059	0.110547	0.000094
C37	C	0.986120	0.268577	0.000069
C38	C	0.987782	0.361823	0.000063
N39	N	0.992218	0.115036	0.230758
N40	N	0.992276	0.114973	-0.230598
C41	C	0.932581	0.174636	0.470432
C42	C	1.008481	0.190943	0.529772
C43	C	0.992239	0.115015	0.412365
C44	C	0.916360	0.098727	0.529766
C45	C	0.992253	0.114997	0.587789
C46	C	1.068178	0.131360	0.470398
C47	C	0.976006	0.039111	0.470387
C48	C	1.051962	0.055386	0.529701
C49	C	0.992230	0.115028	0.311307
C50	C	0.992271	0.114984	0.688844
H51	H	0.563905	-0.031573	-0.000005
H52	H	0.420779	0.261683	-0.000023
C53	C	0.541909	0.200926	0.155369
C54	C	0.598632	0.146021	0.204970
C55	C	0.623515	0.187868	0.280812
H56	H	0.493743	0.218763	0.190666
H57	H	0.568494	0.248718	0.137867
H58	H	0.572046	0.098246	0.222473
H59	H	0.646810	0.128183	0.169699
H60	H	0.650100	0.235659	0.263310
H61	H	0.575344	0.205702	0.316101
H62	H	0.662009	0.150624	0.314471
H63	H	0.449461	0.040295	-0.134642
C64	C	0.823252	-0.302288	0.000336
C65	C	0.781273	-0.325133	0.076951
C66	C	0.698786	-0.284262	0.077237
H67	H	0.794129	-0.318435	-0.050942
H68	H	0.824898	-0.242914	-0.000146
H69	H	0.779622	-0.384495	0.077425
H70	H	0.810370	-0.308986	0.128241
H71	H	0.700432	-0.224888	0.076755
H72	H	0.669672	-0.300412	0.025956
H73	H	0.670296	-0.299750	0.129223
C74	C	0.442638	0.029064	0.155385
C75	C	0.387118	0.084395	0.205882
C76	C	0.362291	0.042509	0.281719
H77	H	0.490946	0.010318	0.190088
H78	H	0.415133	-0.018133	0.137867
H79	H	0.414623	0.131577	0.223400
H80	H	0.338798	0.103143	0.171205
H81	H	0.334786	-0.004689	0.264202
H82	H	0.410604	0.023764	0.316415
H83	H	0.324613	0.080042	0.315986
C84	C	1.153773	0.149981	0.435934
C85	C	1.170690	0.229202	0.466800
C86	C	1.249535	0.246390	0.435091
H87	H	1.153356	0.149975	0.372700
H88	H	1.196205	0.107911	0.456738
H89	H	1.128270	0.271261	0.445992
H90	H	1.171125	0.229228	0.530031
H91	H	1.291967	0.204320	0.455895
H92	H	1.249111	0.246380	0.371858
H93	H	1.261027	0.300139	0.456035
C94	C	1.026667	0.276520	0.564686
C95	C	0.958959	0.311227	0.617276
C96	C	0.975679	0.390056	0.649459
H97	H	1.033891	0.313067	0.516029
H98	H	1.076712	0.269898	0.599519
H99	H	0.908929	0.317853	0.582444
H100	H	0.951725	0.274704	0.665946
H101	H	1.025724	0.383435	0.684292
H102	H	0.982903	0.426596	0.600796
H103	H	0.929746	0.413612	0.685151
H104	H	0.917528	-0.427772	0.134794
H105	H	1.138919	-0.456457	0.000178
C106	C	1.078164	-0.335331	-0.155217
C107	C	1.023259	-0.278611	-0.204821
C108	C	1.065106	-0.253730	-0.280664
H109	H	1.096000	-0.383499	-0.190513
H110	H	1.125955	-0.308746	-0.137717
H111	H	0.975483	-0.305197	-0.222323
H112	H	1.005421	-0.230430	-0.169553
H113	H	1.112898	-0.227145	-0.263163
H114	H	1.082940	-0.301903	-0.315951
H115	H	1.027863	-0.215237	-0.314325
H116	H	0.917574	-0.427758	-0.134630
H117	H	0.882181	0.225096	0.444409
C118	C	0.541749	0.200948	-0.155359
C119	C	0.629441	0.201921	-0.154435
C120	C	0.654188	0.243824	-0.230297
H121	H	0.514904	0.257257	-0.155652
H122	H	0.525907	0.172390	-0.207159
H123	H	0.645275	0.230480	-0.102649
H124	H	0.656307	0.145624	-0.154156
H125	H	0.638346	0.215267	-0.282096
H126	H	0.627338	0.300130	-0.230583
H127	H	0.713690	0.244483	-0.229684
C128	C	0.830872	0.080238	0.564660
C129	C	0.840934	0.006433	0.615900
C130	C	0.762202	-0.010612	0.648065
H131	H	0.794366	0.072911	0.515994
H132	H	0.807152	0.126065	0.600403
H133	H	0.864642	-0.039384	0.580159
H134	H	0.877425	0.013740	0.664579
H135	H	0.738481	0.035216	0.683808
H136	H	0.725702	-0.017934	0.599393
H137	H	0.769019	-0.060684	0.682841
C138	C	1.078339	-0.335551	0.155437
C139	C	1.148341	-0.295769	0.129489
C140	C	1.190418	-0.271094	0.205266
H141	H	1.096656	-0.383864	0.190314
H142	H	1.041079	-0.297468	0.189558
H143	H	1.185594	-0.333850	0.095382
H144	H	1.130047	-0.247448	0.094622
H145	H	1.153158	-0.233011	0.239387
H146	H	1.208729	-0.319410	0.240138
H147	H	1.237914	-0.244092	0.187670
H148	H	1.102474	0.004956	0.555561
H149	H	0.962240	-0.025051	0.444283
