data_functionalizedCrystal
_audit_creation_method	'MofGen! by Chris Wilmer'
_symmetry_space_group_name_H-M	'P1'
_symmetry_Int_Tables_number	1
_symmetry_cell_setting	triclinic
loop_
_symmetry_equiv_pos_as_xyz
  x,y,z
_cell_length_a	18.101395
_cell_length_b	19.805407
_cell_length_c	19.805407
_cell_angle_alpha	89.990779
_cell_angle_beta	90.010856
_cell_angle_gamma	89.968896
loop_
_atom_site_label
_atom_site_type_symbol
_atom_site_fract_x
_atom_site_fract_y
_atom_site_fract_z
Zn1	Zn	-0.294951	-1.034644	0.382731
Zn2	Zn	-0.418764	-1.034570	0.269548
Zn3	Zn	-0.294941	-0.921480	0.269556
Zn4	Zn	-0.418755	-0.921413	0.382694
O5	O	-0.356853	-0.978027	0.326132
O6	O	-0.311383	-1.129351	0.367729
O7	O	-0.402338	-1.019565	0.174832
O8	O	-0.191309	-0.936550	0.284587
O9	O	-0.402348	-1.129297	0.284574
O10	O	-0.191317	-1.019691	0.367737
O11	O	-0.311365	-0.936478	0.174838
O12	O	-0.311357	-0.826754	0.284552
O13	O	-0.402333	-0.936437	0.477416
O14	O	-0.402323	-0.826706	0.367674
O15	O	-0.311375	-1.019627	0.477443
O16	O	-0.522396	-1.019501	0.284538
O17	O	-0.522389	-0.936365	0.367667
C18	C	-0.549263	-0.977936	0.326112
C19	C	-0.631577	-0.977960	0.326126
C20	C	-0.356839	-0.802171	0.326110
C21	C	-0.356850	-0.726939	0.326117
C22	C	-0.356854	-0.978033	0.502675
C23	C	-0.356855	-0.978036	0.577907
C24	C	-0.930668	-0.978108	0.326163
C25	C	-0.899370	-0.925922	0.378595
C26	C	-0.813752	-0.925674	0.378431
C27	C	-0.782286	-0.978034	0.326145
C28	C	-0.813415	-0.958736	0.254811
C29	C	-0.899060	-0.958400	0.255125
C30	C	-0.899018	-1.049706	0.344438
C31	C	-0.813367	-1.049285	0.346002
C32	C	-0.698426	-0.977994	0.326131
C33	C	-1.014528	-0.978147	0.326172
C34	C	-0.163691	-0.978136	0.326167
C35	C	-0.081377	-0.978183	0.326182
C36	C	-0.356867	-1.154570	0.326155
C37	C	-0.356874	-1.229802	0.326164
C38	C	-0.404288	-0.691587	0.369329
C39	C	-0.404289	-0.620899	0.369338
C40	C	-0.356856	-0.585563	0.326132
C41	C	-0.309414	-0.620920	0.282918
C42	C	-0.309409	-0.691607	0.282913
C43	C	-0.309430	-0.335847	0.282941
C44	C	-0.309440	-0.265155	0.282948
C45	C	-0.404310	-0.265138	0.369366
C46	C	-0.404305	-0.335825	0.369361
C47	C	-0.356860	-0.371176	0.326150
C48	C	-0.356858	-0.447824	0.326141
C49	C	-0.356861	-0.508916	0.326137
C50	C	-0.309500	-1.021347	0.613266
C51	C	-0.309498	-1.021342	0.683955
C52	C	-0.356855	-0.978027	0.719282
C53	C	-0.404211	-0.934710	0.683918
C54	C	-0.404209	-0.934713	0.613231
C55	C	-0.404220	-0.934697	0.968992
C56	C	-0.404220	-0.934699	1.039684
C57	C	-0.309508	-1.021325	1.039715
C58	C	-0.309506	-1.021328	0.969028
C59	C	-0.356860	-0.978009	0.933670
C60	C	-0.356861	-0.978015	0.857021
C61	C	-0.356858	-0.978024	0.795930
C62	C	-0.356866	-0.978014	1.150276
C63	C	-0.356861	-0.978008	1.075044
H64	H	-0.792705	-0.937747	0.431325
H65	H	-0.270946	-1.056602	0.940267
H66	H	-0.270939	-1.056621	0.584507
Br67	Br	-0.932463	-0.871169	0.229322
H68	H	-0.791944	-1.090221	0.310597
Br69	Br	-0.933646	-0.945838	0.467044
H70	H	-0.920582	-1.067303	0.395568
Br71	Br	-0.245262	-1.080156	0.731940
H72	H	-0.919765	-0.994762	0.214726
H73	H	-0.442939	-0.236347	0.404553
H74	H	-0.442763	-0.899437	0.584442
H75	H	-0.442785	-0.899424	1.068446
H76	H	-0.442915	-0.720352	0.404510
H77	H	-0.920953	-0.873175	0.366642
H78	H	-0.270948	-1.056595	1.068512
Br79	Br	-0.779699	-0.837219	0.358260
H80	H	-0.442768	-0.899440	0.712688
Br81	Br	-0.779447	-1.020095	0.187919
Br82	Br	-0.777769	-0.872427	0.228544
H83	H	-0.793021	-1.063838	0.398500
Br84	Br	-0.468485	-0.875906	0.921014
H85	H	-0.919256	-1.088586	0.306249
H86	H	-0.270803	-0.364621	0.247751
Br87	Br	-0.468685	-0.383777	0.427996
Br88	Br	-0.468669	-0.572924	0.427987
H89	H	-0.270810	-0.236387	0.247765
H90	H	-0.270790	-0.592144	0.247742
Br91	Br	-0.245023	-0.739586	0.224270
