data_functionalizedCrystal
_audit_creation_method	'MofGen! by Chris Wilmer'
_symmetry_space_group_name_H-M	'P1'
_symmetry_Int_Tables_number	1
_symmetry_cell_setting	triclinic
loop_
_symmetry_equiv_pos_as_xyz
  x,y,z
_cell_length_a	18.215407
_cell_length_b	18.215404
_cell_length_c	18.215399
_cell_angle_alpha	89.972485
_cell_angle_beta	89.982223
_cell_angle_gamma	90.019443
loop_
_atom_site_label
_atom_site_type_symbol
_atom_site_fract_x
_atom_site_fract_y
_atom_site_fract_z
Zn1	Zn	-1.125077	0.293078	0.416078
Zn2	Zn	-1.124988	0.416149	0.293012
Zn3	Zn	-1.002010	0.293092	0.293029
Zn4	Zn	-1.001978	0.416098	0.416042
O5	O	-1.063513	0.354604	0.354540
O6	O	-1.228050	0.309419	0.399761
O7	O	-1.108651	0.399852	0.190030
O8	O	-1.018386	0.190105	0.309374
O9	O	-1.227984	0.399839	0.309345
O10	O	-1.108803	0.190095	0.399777
O11	O	-1.018299	0.309443	0.190043
O12	O	-0.899021	0.309393	0.309339
O13	O	-1.018332	0.399752	0.519031
O14	O	-0.898998	0.399765	0.399716
O15	O	-1.108772	0.309369	0.519057
O16	O	-1.108620	0.519127	0.309310
O17	O	-1.018245	0.519089	0.399699
C18	C	-0.872307	0.354575	0.354526
C19	C	-0.790508	0.354581	0.354537
C20	C	-0.602347	0.307590	0.401690
C21	C	-0.525489	0.307594	0.401692
C22	C	-0.525431	0.401607	0.307397
C23	C	-0.602289	0.401599	0.307391
C24	C	-0.640745	0.354591	0.354542
C25	C	-0.487029	0.354603	0.354549
C26	C	-0.403695	0.354608	0.354551
C27	C	-0.724084	0.354586	0.354540
C28	C	-1.063439	0.545810	0.354515
C29	C	-1.063475	0.627609	0.354529
C30	C	-1.063558	0.354553	0.546493
C31	C	-1.063577	0.354532	0.628292
C32	C	-0.255466	0.354625	0.354553
C33	C	-0.337265	0.354614	0.354554
C34	C	-1.110647	0.815798	0.307560
C35	C	-1.110681	0.892657	0.307582
C36	C	-1.016492	0.892658	0.401627
C37	C	-1.016462	0.815800	0.401608
C38	C	-1.063539	0.777373	0.354570
C39	C	-1.063603	0.931089	0.354611
C40	C	-1.063640	1.014422	0.354635
C41	C	-1.063503	0.694034	0.354547
C42	C	-1.063613	1.162651	0.354595
C43	C	-1.063667	1.080852	0.354652
C44	C	-1.063511	0.354602	0.163334
C45	C	-1.063635	0.354416	0.081536
C46	C	-1.110687	0.307426	0.816501
C47	C	-1.110695	0.307404	0.893360
C48	C	-1.016520	0.401524	0.893321
C49	C	-1.016508	0.401541	0.816464
C50	C	-1.063596	0.354493	0.778056
C51	C	-1.063616	0.354454	0.931772
C52	C	-1.063625	0.354432	1.015106
C53	C	-1.063586	0.354515	0.694717
H54	H	-0.494111	0.439879	0.269009
H55	H	-1.149040	0.269076	0.924659
C56	C	-0.483255	0.255891	0.453560
N57	N	-0.451445	0.216946	0.492630
H58	H	-0.978101	0.784512	0.439893
H59	H	-0.633553	0.439874	0.268994
C60	C	-0.964725	0.453273	0.935577
N61	N	-0.925712	0.492251	0.967404
H62	H	-1.149026	0.269114	0.785232
H63	H	-0.978156	0.439868	0.785161
C64	C	-1.162436	0.773531	0.255821
N65	N	-1.201447	0.741697	0.216852
H66	H	-0.633656	0.269311	0.440081
C67	C	-1.162501	0.934922	0.255863
N68	N	-1.201534	0.966755	0.216906
H69	H	-0.978164	0.923955	0.439922
