data_functionalizedCrystal
_audit_creation_method	'MofGen! by Chris Wilmer'
_symmetry_space_group_name_H-M	'P1'
_symmetry_Int_Tables_number	1
_symmetry_cell_setting	triclinic
loop_
_symmetry_equiv_pos_as_xyz
  x,y,z
_cell_length_a	18.215407
_cell_length_b	25.639239
_cell_length_c	18.215399
_cell_angle_alpha	90.030035
_cell_angle_beta	90.019833
_cell_angle_gamma	90.039134
loop_
_atom_site_label
_atom_site_type_symbol
_atom_site_fract_x
_atom_site_fract_y
_atom_site_fract_z
Zn1	Zn	1.125001	-0.208150	0.416105
Zn2	Zn	1.625001	0.291850	0.916105
Zn3	Zn	1.124880	-0.295586	0.293034
Zn4	Zn	1.624880	0.204414	0.793034
Zn5	Zn	1.001934	-0.208167	0.293053
Zn6	Zn	1.501934	0.291833	0.793053
Zn7	Zn	1.001870	-0.295557	0.416059
Zn8	Zn	1.501870	0.204443	0.916059
O9	O	1.063421	-0.251865	0.354563
O10	O	1.563421	0.248135	0.854563
O11	O	1.227970	-0.219754	0.399791
O12	O	1.727970	0.280246	0.899791
O13	O	1.108547	-0.284009	0.190052
O14	O	1.608547	0.215991	0.690052
O15	O	1.018337	-0.135000	0.309403
O16	O	1.518337	0.365000	0.809403
O17	O	1.227880	-0.283992	0.309372
O18	O	1.727880	0.216008	0.809372
O19	O	1.108754	-0.134987	0.399809
O20	O	1.608754	0.365013	0.899809
O21	O	1.018219	-0.219783	0.190066
O22	O	1.518219	0.280217	0.690066
O23	O	0.898941	-0.219754	0.309358
O24	O	1.398941	0.280246	0.809358
O25	O	1.018228	-0.283943	0.519050
O26	O	1.518228	0.216057	1.019050
O27	O	0.898894	-0.283959	0.399731
O28	O	1.398894	0.216041	0.899731
O29	O	1.108692	-0.219725	0.519083
O30	O	1.608692	0.280275	1.019083
O31	O	1.108485	-0.368747	0.309327
O32	O	1.608485	0.131253	0.809327
O33	O	1.018110	-0.368726	0.399713
O34	O	1.518110	0.131274	0.899713
C35	C	0.872215	-0.251856	0.354542
C36	C	1.372215	0.248144	0.854542
C37	C	0.790416	-0.251865	0.354550
C38	C	1.290416	0.248135	0.854550
C39	C	1.063298	-0.387708	0.354529
C40	C	1.563298	0.112292	0.854529
C41	C	1.063312	-0.445822	0.354539
C42	C	1.563312	0.054178	0.854539
C43	C	0.602217	-0.285349	0.401548
C44	C	1.102217	0.214651	0.901548
C45	C	0.525358	-0.285350	0.401557
C46	C	1.025358	0.214650	0.901557
C47	C	0.525378	-0.218391	0.307594
C48	C	1.025378	0.281609	0.807594
C49	C	0.602235	-0.218387	0.307589
C50	C	1.102235	0.281613	0.807589
C51	C	0.640653	-0.251869	0.354565
C52	C	1.140653	0.248131	0.854565
C53	C	0.486937	-0.251874	0.354579
C54	C	0.986937	0.248126	0.854579
C55	C	0.403603	-0.251876	0.354589
C56	C	0.903603	0.248124	0.854589
C57	C	0.723992	-0.251867	0.354556
C58	C	1.223992	0.248133	0.854556
C59	C	1.110602	-0.806183	0.307579
C60	C	1.610602	-0.306183	0.807579
C61	C	1.110631	-0.860787	0.307589
C62	C	1.610631	-0.360787	0.807589
O63	O	1.150711	-0.889023	0.267625
O64	O	1.650711	-0.389023	0.767625
N65	N	1.063551	-0.888104	0.354612
N66	N	1.563551	-0.388104	0.854612
C67	C	1.016444	-0.860813	0.401633
C68	C	1.516444	-0.360813	0.901633
O69	O	0.976402	-0.889062	0.441631
O70	O	1.476402	-0.389062	0.941631
C71	C	1.016420	-0.806210	0.401626
C72	C	1.516420	-0.306210	0.901626
C73	C	1.063498	-0.778896	0.354595
C74	C	1.563498	-0.278896	0.854595
C75	C	1.157677	-0.778869	0.260553
C76	C	1.657677	-0.278869	0.760553
C77	C	1.157647	-0.724269	0.260542
C78	C	1.657647	-0.224269	0.760542
C79	C	1.110543	-0.696982	0.307558
C80	C	1.610543	-0.196982	0.807558
C81	C	1.063468	-0.724296	0.354584
C82	C	1.563468	-0.224296	0.854584
C83	C	0.969318	-0.778920	0.448650
C84	C	1.469318	-0.278920	0.948650
C85	C	0.969298	-0.724313	0.448640
C86	C	1.469298	-0.224313	0.948640
C87	C	1.016376	-0.697000	0.401609
C88	C	1.516376	-0.197000	0.901609
C89	C	1.016334	-0.642408	0.401590
C90	C	1.516334	-0.142408	0.901590
N91	N	1.063414	-0.615092	0.354567
N92	N	1.563414	-0.115092	0.854567
C93	C	1.110519	-0.642379	0.307551
C94	C	1.610519	-0.142379	0.807551
C95	C	1.016500	-0.975484	0.401644
C96	C	1.516500	-0.475484	0.901644
C97	C	1.016520	-1.030086	0.401648
C98	C	1.516520	-0.530086	0.901648
C99	C	1.110708	-1.030057	0.307605
C100	C	1.610708	-0.530057	0.807605
C101	C	1.110683	-0.975453	0.307598
C102	C	1.610683	-0.475453	0.807598
C103	C	1.063580	-0.948167	0.354621
C104	C	1.563580	-0.448167	0.854621
C105	C	1.110452	-0.527714	0.307532
C106	C	1.610452	-0.027714	0.807532
C107	C	1.110416	-0.473108	0.307523
C108	C	1.610416	0.026892	0.807523
C109	C	1.016232	-0.473143	0.401569
C110	C	1.516232	0.026857	0.901569
C111	C	1.016265	-0.527743	0.401575
C112	C	1.516265	-0.027743	0.901575
C113	C	1.063381	-0.555027	0.354554
C114	C	1.563381	-0.055027	0.854554
O115	O	0.976277	-0.614138	0.441536
O116	O	1.476277	-0.114138	0.941536
O117	O	1.150561	-0.614123	0.267567
O118	O	1.650561	-0.114123	0.767567
C119	C	1.255374	-0.251874	0.354584
C120	C	1.755374	0.248126	0.854584
C121	C	1.337173	-0.251878	0.354594
C122	C	1.837173	0.248122	0.854594
C123	C	1.063466	-0.251829	0.546516
C124	C	1.563466	0.248171	1.046516
C125	C	1.063485	-0.251814	0.628315
C126	C	1.563485	0.248186	1.128315
C127	C	1.063566	-0.115492	0.354613
C128	C	1.563566	0.384508	0.854613
C129	C	1.063627	-0.057378	0.354634
C130	C	1.563627	0.442622	0.854634
C131	C	1.063419	-0.251863	0.163357
C132	C	1.563419	0.248137	0.663357
C133	C	1.063543	-0.251731	0.081558
C134	C	1.563543	0.248269	0.581558
C135	C	1.110607	-0.218344	0.816528
C136	C	1.610607	0.281656	1.316528
C137	C	1.110616	-0.218329	0.893386
C138	C	1.610616	0.281671	1.393386
C139	C	1.016416	-0.285202	0.893340
C140	C	1.516416	0.214798	1.393340
C141	C	1.016404	-0.285214	0.816483
C142	C	1.516404	0.214786	1.316483
C143	C	1.063504	-0.251786	0.778078
C144	C	1.563504	0.248214	1.278078
C145	C	1.063524	-0.251759	0.931795
C146	C	1.563524	0.248241	1.431795
C147	C	1.063534	-0.251742	1.015128
C148	C	1.563534	0.248258	1.515128
C149	C	1.063494	-0.251801	0.694739
C150	C	1.563494	0.248199	1.194739
H151	H	0.633495	-0.312611	0.439801
H152	H	1.133495	0.187389	0.939801
C153	C	1.209486	-0.808879	0.208822
C154	C	1.709486	-0.308879	0.708822
H155	H	1.202767	-0.845312	0.215553
H156	H	1.702767	-0.345312	0.715553
H157	H	1.198728	-0.799951	0.159370
H158	H	1.698728	-0.299951	0.659370
H159	H	1.258927	-0.799890	0.219634
H160	H	1.758927	-0.299890	0.719634
C161	C	1.209443	-0.694231	0.208816
C162	C	1.709443	-0.194231	0.708816
H163	H	1.237502	-0.718308	0.180827
H164	H	1.737502	-0.218308	0.680827
H165	H	1.181310	-0.672962	0.176716
H166	H	1.681310	-0.172962	0.676716
H167	H	1.241486	-0.672897	0.237001
H168	H	1.741486	-0.172897	0.737001
C169	C	1.162474	-0.945413	0.255870
C170	C	1.662474	-0.445413	0.755870
H171	H	1.190532	-0.969489	0.227876
H172	H	1.690532	-0.469489	0.727876
H173	H	1.134337	-0.924144	0.223775
H174	H	1.634337	-0.424144	0.723775
H175	H	1.194520	-0.924080	0.284054
H176	H	1.694520	-0.424080	0.784054
H177	H	0.977932	-0.549983	0.439874
H178	H	1.477932	-0.049983	0.939874
C179	C	1.162208	-0.443066	0.255791
C180	C	1.662208	0.056934	0.755791
H181	H	1.190270	-0.467141	0.227798
H182	H	1.690270	0.032859	0.727798
H183	H	1.134068	-0.421801	0.223693
H184	H	1.634068	0.078199	0.723693
H185	H	1.194249	-0.421730	0.283973
H186	H	1.694249	0.078270	0.783973
C187	C	0.964589	-0.322001	0.774182
C188	C	1.464589	0.177999	1.274182
H189	H	0.971323	-0.317215	0.722909
H190	H	1.471323	0.182785	1.222909
H191	H	0.975322	-0.357129	0.786762
H192	H	1.475322	0.142871	1.286762
H193	H	0.915149	-0.314341	0.786772
H194	H	1.415149	0.185659	1.286772
H195	H	1.148971	-0.191096	0.924688
H196	H	1.648971	0.308904	1.424688
C197	C	0.964674	-0.945474	0.453365
C198	C	1.464674	-0.445474	0.953365
H199	H	0.936637	-0.969567	0.481363
H200	H	1.436637	-0.469567	0.981363
H201	H	0.992790	-0.924138	0.485457
H202	H	1.492790	-0.424138	0.985457
H203	H	0.932610	-0.924211	0.425176
H204	H	1.432610	-0.424211	0.925176
H205	H	1.148956	-0.191123	0.785261
H206	H	1.648956	0.308877	1.285261
C207	C	0.964730	-1.060126	0.453377
C208	C	1.464730	-0.560126	0.953377
H209	H	0.936678	-1.036049	0.481378
H210	H	1.436678	-0.536049	0.981378
H211	H	0.932689	-1.081465	0.425205
H212	H	1.432689	-0.581465	0.925205
H213	H	0.992878	-1.081388	0.485478
H214	H	1.492878	-0.581388	0.985478
C215	C	0.964617	-0.321974	0.935587
C216	C	1.464617	0.178026	1.435587
H217	H	0.971375	-0.317182	0.986867
H218	H	1.471375	0.182818	1.486867
H219	H	0.915175	-0.314326	0.922987
H220	H	1.415175	0.185674	1.422987
H221	H	0.975357	-0.357107	0.922976
H222	H	1.475357	0.142893	1.422976
H223	H	0.494089	-0.191131	0.269346
H224	H	0.994089	0.308869	0.769346
H225	H	0.633530	-0.191120	0.269329
H226	H	1.133530	0.308880	0.769329
H227	H	0.494068	-0.312613	0.439817
H228	H	0.994068	0.187387	0.939817
H229	H	1.148821	-0.549922	0.269245
H230	H	1.648821	-0.049922	0.769245
H231	H	1.149065	-1.052283	0.269324
H232	H	1.649065	-0.552283	0.769324
C233	C	0.964427	-0.443123	0.453291
C234	C	1.464427	0.056877	0.953291
H235	H	0.936389	-0.467207	0.481302
H236	H	1.436389	0.032793	0.981302
H237	H	0.992561	-0.421789	0.485371
H238	H	1.492561	0.078211	0.985371
H239	H	0.932363	-0.421856	0.425108
H240	H	1.432363	0.078144	0.925108
C241	C	0.917536	-0.808954	0.500391
C242	C	1.417536	-0.308954	1.000391
H243	H	0.889491	-0.784875	0.528393
H244	H	1.389491	-0.284875	1.028393
H245	H	0.885490	-0.830293	0.472225
H246	H	1.385490	-0.330293	0.972225
H247	H	0.945687	-0.830216	0.532490
H248	H	1.445687	-0.330216	1.032490
H249	H	0.930941	-0.702100	0.486935
H250	H	1.430941	-0.202100	0.986935
