data_functionalizedCrystal
_audit_creation_method	'MofGen! by Chris Wilmer'
_symmetry_space_group_name_H-M	'P1'
_symmetry_Int_Tables_number	1
_symmetry_cell_setting	triclinic
loop_
_symmetry_equiv_pos_as_xyz
  x,y,z
_cell_length_a	29.839134
_cell_length_b	12.759400
_cell_length_c	12.759393
_cell_angle_alpha	89.968436
_cell_angle_beta	89.968585
_cell_angle_gamma	90.009546
loop_
_atom_site_label
_atom_site_type_symbol
_atom_site_fract_x
_atom_site_fract_y
_atom_site_fract_z
Zn1	Zn	0.686845	-0.418348	-0.594343
Zn2	Zn	0.686800	-0.594067	-0.418664
Zn3	Zn	0.611715	-0.418387	-0.418643
Zn4	Zn	0.611711	-0.593970	-0.594265
O5	O	0.649268	-0.506193	-0.506479
O6	O	0.749706	-0.441682	-0.571080
O7	O	0.676823	-0.570820	-0.271640
O8	O	0.621702	-0.271361	-0.441974
O9	O	0.749673	-0.570782	-0.442009
O10	O	0.676900	-0.271332	-0.571061
O11	O	0.621659	-0.441748	-0.271625
O12	O	0.548848	-0.441654	-0.441899
O13	O	0.621694	-0.570616	-0.741297
O14	O	0.548844	-0.570654	-0.570928
O15	O	0.676895	-0.441588	-0.741354
O16	O	0.676818	-0.741075	-0.441933
O17	O	0.621650	-0.741004	-0.570947
C18	C	0.649241	-0.779160	-0.506457
C19	C	0.649271	-0.895937	-0.506483
C20	C	0.532545	-0.506148	-0.506403
C21	C	0.482611	-0.506155	-0.506396
C22	C	0.678028	-0.950801	-0.439379
C23	C	0.678056	-1.060525	-0.439412
C24	C	0.620564	-1.060511	-0.573654
C25	C	0.620539	-0.950789	-0.573626
C26	C	0.706760	-0.895949	-0.372236
C27	C	0.735520	-0.950814	-0.305127
C28	C	0.735547	-1.060538	-0.305159
C29	C	0.706815	-1.115397	-0.372301
C30	C	0.172975	-0.573463	-0.573582
C31	C	-0.014698	-0.573492	-0.573629
O32	O	-0.038956	-0.630671	-0.630708
N33	N	-0.038174	-0.506232	-0.506558
C34	C	-0.014730	-0.438954	-0.439476
O35	O	-0.039004	-0.381737	-0.382437
C36	C	0.172943	-0.438920	-0.439435
C37	C	0.196417	-0.506192	-0.506503
C38	C	0.196449	-0.640729	-0.640645
C39	C	0.243364	-0.640725	-0.640628
C40	C	0.266806	-0.573455	-0.573549
C41	C	0.243332	-0.506188	-0.506486
C42	C	0.196387	-0.371637	-0.372359
C43	C	0.243308	-0.371633	-0.372357
C44	C	0.266782	-0.438906	-0.439424
C45	C	0.313689	-0.438914	-0.439391
N46	N	0.337165	-0.506175	-0.506461
C47	C	0.313724	-0.573445	-0.573540
C48	C	-0.113260	-0.438978	-0.439500
C49	C	-0.160178	-0.438987	-0.439509
C50	C	-0.160143	-0.573525	-0.573664
C51	C	-0.113225	-0.573520	-0.573649
C52	C	-0.089784	-0.506239	-0.506571
C53	C	0.412250	-0.573432	-0.573500
C54	C	0.459169	-0.573425	-0.573475
C55	C	0.459130	-0.438884	-0.439325
C56	C	0.412215	-0.438895	-0.439346
C57	C	0.388776	-0.506172	-0.506442
O58	O	0.337976	-0.381757	-0.382350
O59	O	0.338006	-0.630636	-0.630587
C60	C	0.126059	-0.573467	-0.573598
C61	C	0.102586	-0.506200	-0.506535
C62	C	0.126027	-0.438930	-0.439456
C63	C	0.055668	-0.506210	-0.506544
C64	C	0.032226	-0.573480	-0.573623
C65	C	0.055702	-0.640741	-0.640694
C66	C	0.102618	-0.640737	-0.640678
C67	C	0.102551	-0.371669	-0.372386
C68	C	0.055635	-0.371680	-0.372407
C69	C	0.032194	-0.438950	-0.439486
C70	C	0.766446	-0.506239	-0.506556
C71	C	0.816380	-0.506258	-0.506588
C72	C	0.649299	-0.506087	-0.780512
C73	C	0.649313	-0.506042	-0.897289
C74	C	0.649307	-0.232160	-0.506524
C75	C	0.649323	-0.115383	-0.506543
C76	C	0.678060	-0.438850	-0.952183
C77	C	0.678070	-0.438812	-1.061907
C78	C	0.620586	-0.573167	-1.061834
C79	C	0.620573	-0.573198	-0.952112
C80	C	0.706799	-0.371694	-0.897360
C81	C	0.735549	-0.304498	-0.952254
C82	C	0.735560	-0.304460	-1.061978
C83	C	0.706821	-0.371618	-1.116808
C84	C	0.649262	-0.506223	-0.233512
C85	C	0.649336	-0.505972	-0.116735
H86	H	0.706739	-0.806606	-0.372200
H87	H	0.177282	-0.316859	-0.317743
H88	H	0.478225	-0.384118	-0.384707
H89	H	0.758944	-0.249813	-0.907603
H90	H	0.597172	-1.105187	-0.628317
H91	H	0.758966	-0.249738	-1.106669
H92	H	0.262391	-0.316837	-0.317739
H93	H	0.758915	-0.906141	-0.250468
H94	H	-0.179237	-0.628299	-0.628282
H95	H	0.597187	-0.627843	-1.106486
H96	H	0.393101	-0.384118	-0.384732
H97	H	0.706826	-0.371569	-1.206153
H98	H	0.758968	-1.105205	-0.250523
H99	H	0.706843	-1.204742	-0.372330
H100	H	0.036527	-0.316899	-0.317783
H101	H	-0.094179	-0.384188	-0.384873
H102	H	0.121726	-0.695517	-0.695291
H103	H	-0.094115	-0.628298	-0.628263
H104	H	0.597158	-0.627896	-0.907417
H105	H	0.597123	-0.906118	-0.628269
H106	H	0.478279	-0.628211	-0.628090
H107	H	0.121632	-0.316888	-0.317761
H108	H	0.393171	-0.628213	-0.628139
H109	H	0.262473	-0.695503	-0.695244
H110	H	0.177368	-0.695509	-0.695274
H111	H	0.706795	-0.371719	-0.808017
H112	H	-0.179286	-0.384218	-0.384885
H113	H	0.036608	-0.695518	-0.695309
