data_functionalizedCrystal
_audit_creation_method	'MofGen! by Chris Wilmer'
_symmetry_space_group_name_H-M	'P1'
_symmetry_Int_Tables_number	1
_symmetry_cell_setting	triclinic
loop_
_symmetry_equiv_pos_as_xyz
  x,y,z
_cell_length_a	10.540539
_cell_length_b	11.792254
_cell_length_c	10.268362
_cell_angle_alpha	89.994545
_cell_angle_beta	89.997484
_cell_angle_gamma	84.362045
loop_
_atom_site_label
_atom_site_type_symbol
_atom_site_fract_x
_atom_site_fract_y
_atom_site_fract_z
O1	O	1.685375	0.159956	-0.108240
O2	O	2.185375	0.659956	0.391760
O3	O	1.315913	0.175027	-0.108256
O4	O	1.815913	0.675027	0.391744
O5	O	1.509601	0.002345	-0.108238
O6	O	2.009601	0.502345	0.391762
O7	O	1.491686	0.332638	-0.108257
O8	O	1.991686	0.832638	0.391743
O9	O	1.509584	0.002338	0.108363
O10	O	2.009584	0.502338	0.608363
O11	O	1.315896	0.175020	0.108345
O12	O	1.815896	0.675020	0.608345
O13	O	1.685358	0.159949	0.108361
O14	O	2.185358	0.659949	0.608361
Cu15	Cu	1.500625	0.167483	0.128130
Cu16	Cu	2.000625	0.667483	0.628130
Cu17	Cu	1.500645	0.167492	-0.128025
Cu18	Cu	2.000645	0.667492	0.371975
O19	O	1.491669	0.332630	0.108343
O20	O	1.991669	0.832630	0.608343
C21	C	1.268605	0.173893	0.000043
C22	C	1.768605	0.673893	0.500043
C23	C	1.127668	0.170512	0.000037
C24	C	1.627668	0.670512	0.500037
C25	C	0.944657	0.040941	0.000550
C26	C	1.444657	0.540941	0.500550
C27	C	1.091264	0.044369	0.000048
C28	C	1.591264	0.544369	0.500048
C29	C	1.065811	0.231221	-0.123652
C30	C	1.565811	0.731221	0.376348
C31	C	0.919280	0.226916	-0.123741
C32	C	1.419280	0.726916	0.376259
C33	C	0.918764	0.229474	0.122574
C34	C	1.418764	0.729474	0.622574
C35	C	1.065742	0.230636	0.124195
C36	C	1.565742	0.730636	0.624195
C37	C	1.508464	-0.039952	0.000062
C38	C	2.008464	0.460048	0.500062
C39	C	1.505086	-0.165974	0.000061
C40	C	2.005086	0.334026	0.500061
C41	C	1.732665	0.161083	0.000060
C42	C	2.232665	0.661083	0.500060
C43	C	1.873603	0.164464	0.000057
C44	C	2.373603	0.664464	0.500057
C45	C	1.502342	-0.268318	0.000056
C46	C	2.002342	0.231682	0.500056
C47	C	1.498910	-0.396713	0.000044
C48	C	1.998910	0.103287	0.500044
C49	C	1.492806	0.374928	0.000041
C50	C	1.992806	0.874928	0.500041
C51	C	1.496184	0.500949	0.000033
C52	C	1.996184	1.000949	0.500033
N53	N	1.500620	0.167477	0.308296
N54	N	2.000620	0.667477	0.808296
N55	N	1.500660	0.167490	-0.308191
N56	N	2.000660	0.667490	0.191809
C57	C	1.500639	0.167490	0.573967
C58	C	2.000639	0.667490	1.073967
C59	C	1.500625	0.167486	0.426129
C60	C	2.000625	0.667486	0.926129
H61	H	1.106839	0.186285	0.215699
H62	H	1.606839	0.686285	0.715699
Br63	Br	0.897262	-0.042126	0.148399
Br64	Br	1.397262	0.457874	0.648399
Br65	Br	1.102608	0.385610	-0.131367
Br66	Br	1.602608	0.885610	0.368633
Br67	Br	1.161072	-0.035442	-0.148237
Br68	Br	1.661072	0.464558	0.351763
Br69	Br	0.894579	-0.041774	-0.146451
Br70	Br	1.394579	0.458226	0.353549
H71	H	0.871020	0.317636	-0.129361
H72	H	1.371020	0.817636	0.370639
Br73	Br	1.137025	0.160945	-0.277074
Br74	Br	1.637025	0.660945	0.222926
H75	H	0.887341	0.188648	0.216329
H76	H	1.387341	0.688648	0.716329
H77	H	1.089673	0.322602	0.131658
H78	H	1.589673	0.822602	0.631658
Br79	Br	0.839568	0.381333	0.123958
Br80	Br	1.339568	0.881333	0.623958
H81	H	1.134024	-0.003399	0.088714
H82	H	1.634024	0.496601	0.588714
Br83	Br	0.872505	0.152142	-0.277836
Br84	Br	1.372505	0.652142	0.222164
