data_functionalizedCrystal
_audit_creation_method	'MofGen! by Chris Wilmer'
_symmetry_space_group_name_H-M	'P1'
_symmetry_Int_Tables_number	1
_symmetry_cell_setting	triclinic
loop_
_symmetry_equiv_pos_as_xyz
  x,y,z
_cell_length_a	12.837942
_cell_length_b	8.559649
_cell_length_c	7.088929
_cell_angle_alpha	95.331022
_cell_angle_beta	96.878051
_cell_angle_gamma	97.696198
loop_
_atom_site_label
_atom_site_type_symbol
_atom_site_fract_x
_atom_site_fract_y
_atom_site_fract_z
O1	O	-0.022936	-2.100225	0.158957
O2	O	0.029959	-1.643074	0.158967
O3	O	-0.146585	-1.861513	0.158950
O4	O	0.153608	-1.881785	0.158973
O5	O	-0.170213	-1.890723	-0.159027
O6	O	0.006331	-1.672284	-0.159010
O7	O	-0.046564	-2.129435	-0.159021
Cu8	Cu	-0.022274	-1.903526	-0.188049
Cu9	Cu	0.005669	-1.868982	0.187996
O10	O	0.129980	-1.910995	-0.159004
C11	C	-0.196474	-1.869270	-0.000037
C12	C	-0.309925	-1.848843	-0.000034
C13	C	0.022154	-1.598759	-0.000020
C14	C	0.034086	-1.423195	-0.000017
C15	C	-0.038758	-2.173749	-0.000029
C16	C	-0.050689	-2.349312	-0.000020
C17	C	-0.570430	-2.094400	0.000001
C18	C	-0.677028	-2.075215	0.000004
C19	C	-0.629721	-1.791288	-0.000009
C20	C	-0.523122	-1.810473	-0.000013
C21	C	-0.493482	-1.962034	-0.000011
C22	C	-0.386882	-1.981219	-0.000028
C23	C	-0.339576	-1.697292	-0.000028
C24	C	-0.446175	-1.678107	-0.000024
C25	C	0.179870	-1.903238	-0.000012
C26	C	0.293322	-1.923664	-0.000003
N27	N	-0.041929	-1.927834	-0.452539
N28	N	0.025315	-1.844685	0.452485
H29	H	-0.362752	-2.104628	-0.000033
N30	N	0.117618	-1.730517	-0.439345
H31	H	0.112179	-1.619837	-0.474106
H32	H	0.186247	-1.763129	-0.474108
N33	N	0.142330	-1.329079	0.000012
H34	H	0.135802	-1.212794	0.000018
H35	H	0.173040	-1.366644	-0.117864
N36	N	-0.538452	-2.257860	-0.000027
H37	H	-0.603376	-2.338806	-0.000030
H38	H	-0.486490	-2.261181	0.117847
N39	N	-0.760029	-2.217977	-0.000008
H40	H	-0.796550	-2.205517	0.117866
H41	H	-0.725002	-2.316827	-0.000083
N42	N	-0.661699	-1.627828	0.000010
H43	H	-0.740905	-1.635767	0.000021
H44	H	-0.641508	-1.580017	-0.117873
N45	N	-0.478142	-1.514642	-0.000031
H46	H	-0.512550	-1.489512	0.117844
H47	H	-0.530042	-1.511301	-0.117983
N48	N	-0.256582	-1.554514	-0.000050
H49	H	-0.184554	-1.589660	-0.000057
H50	H	-0.256119	-1.478333	0.117826
N51	N	-0.134228	-2.042001	-0.560689
H52	H	-0.176850	-2.094709	-0.467051
H53	H	-0.106691	-2.125375	-0.643712
N54	N	-0.158929	-1.443410	-0.000031
H55	H	-0.158994	-1.501236	0.117839
H56	H	-0.176448	-1.522801	-0.117987
