data_functionalizedCrystal
_audit_creation_method	'MofGen! by Chris Wilmer'
_symmetry_space_group_name_H-M	'P1'
_symmetry_Int_Tables_number	1
_symmetry_cell_setting	triclinic
loop_
_symmetry_equiv_pos_as_xyz
  x,y,z
_cell_length_a	27.435584
_cell_length_b	27.434948
_cell_length_c	27.431174
_cell_angle_alpha	60.005483
_cell_angle_beta	60.011353
_cell_angle_gamma	59.993028
loop_
_atom_site_label
_atom_site_type_symbol
_atom_site_fract_x
_atom_site_fract_y
_atom_site_fract_z
O1	O	0.067437	-0.712144	0.595551
O2	O	0.567437	-0.212144	1.095551
O3	O	0.025356	-0.554453	0.479848
O4	O	0.525356	-0.054453	0.979848
O5	O	0.125206	-0.654236	0.479781
O6	O	0.625206	-0.154236	0.979781
O7	O	-0.032412	-0.612361	0.595618
O8	O	0.467588	-0.112361	1.095618
O9	O	0.158328	-0.621117	0.512835
O10	O	0.658328	-0.121117	1.012835
O11	O	0.058479	-0.521333	0.512902
O12	O	0.558479	-0.021333	1.012902
O13	O	0.100560	-0.679025	0.628605
O14	O	0.600560	-0.179025	1.128605
Zn15	Zn	0.084778	-0.594921	0.576001
Zn16	Zn	0.584778	-0.094921	1.076001
Zn17	Zn	0.041138	-0.638557	0.532452
Zn18	Zn	0.541138	-0.138557	1.032452
O19	O	0.000710	-0.579241	0.628672
O20	O	0.500710	-0.079241	1.128672
N21	N	0.114563	-0.565144	0.605726
N22	N	0.614563	-0.065144	1.105726
N23	N	0.011358	-0.668338	0.502727
N24	N	0.511358	-0.168338	1.002727
C25	C	0.156385	-0.523520	0.904506
C26	C	0.656385	-0.023520	1.404506
C27	C	0.413419	-0.523497	0.647322
C28	C	0.913419	-0.023497	1.147322
C29	C	0.156253	-0.523488	0.647384
C30	C	0.656253	-0.023488	1.147384
C31	C	0.156238	-0.266354	0.647407
C32	C	0.656238	0.233646	1.147407
C33	C	0.197637	-0.390463	0.688753
C34	C	0.697637	0.109537	1.188753
C35	C	0.197646	-0.482126	0.688741
C36	C	0.697646	0.017874	1.188741
C37	C	0.220575	-0.459215	0.711654
C38	C	0.720575	0.040785	1.211654
C39	C	0.320555	-0.441991	0.659023
C40	C	0.820555	0.058009	1.159023
C41	C	0.383051	-0.462825	0.638179
C42	C	0.883051	0.037175	1.138179
C43	C	0.383069	-0.563942	0.676737
C44	C	0.883069	-0.063942	1.176737
C45	C	0.320575	-0.543107	0.697583
C46	C	0.820575	-0.043107	1.197583
C47	C	0.212704	-0.359206	0.627313
C48	C	0.712704	0.140794	1.127313
C49	C	0.191849	-0.296705	0.606496
C50	C	0.691849	0.203295	1.106496
C51	C	0.140866	-0.296722	0.708562
C52	C	0.640866	0.203278	1.208562
C53	C	0.161721	-0.359223	0.729379
C54	C	0.661721	0.140777	1.229379
C55	C	0.136200	-0.467030	0.703858
C56	C	0.636200	0.032970	1.203858
C57	C	0.115361	-0.487857	0.683021
C58	C	0.615361	0.012143	1.183021
C59	C	0.217408	-0.538877	0.631968
C60	C	0.717408	-0.038877	1.131968
C61	C	0.238249	-0.518050	0.652796
C62	C	0.738249	-0.018050	1.152796
C63	C	0.136259	-0.467047	0.811668
C64	C	0.636259	0.032953	1.311668
C65	C	0.115461	-0.487892	0.874167
C66	C	0.615461	0.012108	1.374167
C67	C	0.217537	-0.538923	0.874131
C68	C	0.717537	-0.038923	1.374131
C69	C	0.238333	-0.518080	0.811631
C70	C	0.738333	-0.018080	1.311631
C71	C	0.197693	-0.482140	0.780401
C72	C	0.697693	0.017860	1.280401
C73	C	0.289320	-0.482131	0.688723
C74	C	0.789320	0.017869	1.188723
C75	C	0.132699	-0.546027	0.973247
C76	C	0.632699	-0.046027	1.473247
C77	C	0.482158	-0.545613	0.624075
C78	C	0.982158	-0.045613	1.124075
C79	C	0.132521	-0.546006	0.624886
C80	C	0.632521	-0.046006	1.124886
C81	C	0.132917	-0.197607	0.625310
C82	C	0.632917	0.302393	1.125310
C83	C	-0.098217	-0.686189	0.484419
C84	C	0.401783	-0.186189	0.984419
C85	C	-0.006438	-0.686322	0.392891
C86	C	0.493562	-0.186322	0.892891
C87	C	-0.006621	-0.777944	0.484592
C88	C	0.493379	-0.277944	0.984592
C89	C	-0.006606	-0.686315	0.484649
C90	C	0.493394	-0.186315	0.984649
C91	C	-0.029470	-0.709193	0.461638
C92	C	0.470530	-0.209193	0.961638
N93	N	0.538410	-0.565162	0.605628
N94	N	1.038410	-0.065162	1.105628
O95	O	0.742647	-0.575135	0.458625
O96	O	1.242647	-0.075135	0.958625
O97	O	0.742821	-0.691181	0.616169
O98	O	1.242821	-0.191181	1.116169
O99	O	0.742757	-0.690917	0.516248
O100	O	1.242757	-0.190917	1.016248
O101	O	0.742711	-0.575399	0.558546
O102	O	1.242711	-0.075399	1.058546
O103	O	0.643472	-0.657878	0.549405
O104	O	1.143472	-0.157878	1.049405
O105	O	0.643536	-0.658142	0.649326
O106	O	1.143536	-0.158142	1.149326
O107	O	0.643362	-0.542096	0.491782
O108	O	1.143362	-0.042096	0.991782
Zn109	Zn	0.627685	-0.594873	0.575818
Zn110	Zn	1.127685	-0.094873	1.075818
Zn111	Zn	0.758498	-0.638404	0.532133
Zn112	Zn	1.258498	-0.138404	1.032133
O113	O	0.643426	-0.542360	0.591702
O114	O	1.143426	-0.042360	1.091702
N115	N	0.847774	-0.668115	0.502317
N116	N	1.347774	-0.168115	1.002317
N117	N	0.114542	-0.141354	0.605766
N118	N	0.614542	0.358646	1.105766
O119	O	-0.032397	0.062987	0.595660
O120	O	0.467603	0.562987	1.095660
O121	O	0.125155	0.062987	0.479633
O122	O	0.625155	0.562987	0.979633
O123	O	0.025219	0.062974	0.479910
O124	O	0.525219	0.562974	0.979910
O125	O	0.067539	0.063001	0.595383
O126	O	0.567539	0.563001	1.095383
O127	O	0.058343	-0.036320	0.513009
O128	O	0.558343	0.463680	1.013009
O129	O	0.158279	-0.036306	0.512732
O130	O	0.658279	0.463694	1.012732
O131	O	0.000728	-0.036306	0.628759
O132	O	0.500728	0.463694	1.128759
Zn133	Zn	0.084763	-0.052071	0.576000
Zn134	Zn	0.584763	0.447929	1.076000
Zn135	Zn	0.041120	0.078752	0.532392
Zn136	Zn	0.541120	0.578752	1.032392
O137	O	0.100664	-0.036292	0.628482
O138	O	0.600664	0.463708	1.128482
N139	N	0.011333	0.168036	0.502628
N140	N	0.511333	0.668036	1.002628
N141	N	0.114782	-0.565197	1.029501
N142	N	0.614782	-0.065197	1.529501
O143	O	0.104681	-0.712124	1.233827
O144	O	0.604681	-0.212124	1.733827
O145	O	-0.011334	-0.554523	1.233839
O146	O	0.488666	-0.054523	1.733839
O147	O	-0.011066	-0.654443	1.233797
O148	O	0.488934	-0.154443	1.733797
O149	O	0.104414	-0.612204	1.233869
O150	O	0.604414	-0.112204	1.733869
O151	O	0.022028	-0.621336	1.134509
O152	O	0.522028	-0.121336	1.634509
O153	O	0.021760	-0.521417	1.134551
O154	O	0.521760	-0.021417	1.634551
O155	O	0.137775	-0.679018	1.134539
O156	O	0.637775	-0.179018	1.634539
Zn157	Zn	0.085022	-0.594961	1.118780
Zn158	Zn	0.585022	-0.094961	1.618780
Zn159	Zn	0.041420	-0.638580	1.249597
Zn160	Zn	0.541420	-0.138580	1.749597
O161	O	0.137508	-0.579098	1.134580
O162	O	0.637508	-0.079098	1.634580
N163	N	0.011658	-0.668350	1.338876
N164	N	0.511658	-0.168350	1.838876
C165	C	0.037974	-0.518023	0.480435
C166	C	0.537974	-0.018023	0.980435
C167	C	0.161625	-0.641592	0.480351
C168	C	0.661625	-0.141592	0.980351
C169	C	0.087941	-0.715455	0.628017
C170	C	0.587941	-0.215455	1.128017
C171	C	-0.035710	-0.591885	0.628101
C172	C	0.464290	-0.091885	1.128101
C173	C	0.693199	-0.690642	0.652596
C174	C	1.193199	-0.190642	1.152596
C175	C	0.693122	-0.690315	0.528855
C176	C	1.193122	-0.190315	1.028855
C177	C	0.692981	-0.542634	0.455356
C178	C	1.192981	-0.042634	0.955356
C179	C	0.693062	-0.542961	0.579095
C180	C	1.193062	-0.042961	1.079095
C181	C	0.161524	0.013463	0.480164
C182	C	0.661524	0.513463	0.980164
C183	C	0.037807	0.013324	0.480547
C184	C	0.537807	0.513324	0.980547
C185	C	-0.035683	0.013341	0.628188
C186	C	0.464317	0.513341	1.128188
C187	C	0.088076	0.013357	0.627845
C188	C	0.588076	0.513357	1.127845
C189	C	-0.010764	-0.518114	1.184196
C190	C	0.489236	-0.018114	1.684196
C191	C	-0.010426	-0.641846	1.184125
C192	C	0.489574	-0.141846	1.684125
C193	C	0.137205	-0.715426	1.184182
C194	C	0.637205	-0.215426	1.684182
C195	C	0.136875	-0.591687	1.184231
C196	C	0.636875	-0.091687	1.684231
H197	H	0.065433	-0.475593	0.899616
H198	H	0.565433	0.024407	1.399616
H199	H	0.028745	0.013321	0.444270
H200	H	0.528745	0.513321	0.944270
O201	O	0.693034	-0.733557	0.518068
O202	O	1.193034	-0.233557	1.018068
C203	C	0.641614	-0.762059	0.491773
C204	C	1.141614	-0.262059	0.991773
C205	C	0.641632	-0.713043	0.503988
C206	C	1.141632	-0.213043	1.003988
H207	H	0.600066	-0.745488	0.480374
H208	H	1.100066	-0.245488	0.980374
H209	H	0.641627	-0.803770	0.533167
H210	H	1.141627	-0.303770	1.033167
H211	H	0.683166	-0.773194	0.452690
H212	H	1.183166	-0.273194	0.952690
H213	H	0.600088	-0.701857	0.543050
H214	H	1.100088	-0.201857	1.043050
H215	H	0.641650	-0.671363	0.462563
H216	H	1.141650	-0.171363	0.962563
O217	O	0.098772	0.013389	0.671183
O218	O	0.598772	0.513389	1.171183
C219	C	0.059762	0.013359	0.771781
C220	C	0.559762	0.513359	1.271781
C221	C	0.047564	0.013337	0.722749
C222	C	0.547564	0.513337	1.222749
H223	H	0.018373	0.013304	0.813488
H224	H	0.518373	0.513304	1.313488
H225	H	0.071094	0.054925	0.755270
H226	H	0.571094	0.554925	1.255270
H227	H	0.098872	-0.028183	0.782894
H228	H	0.598872	0.471817	1.282894
H229	H	0.008447	0.054850	0.711614
H230	H	0.508447	0.554850	1.211614
H231	H	0.036267	-0.028257	0.739286
H232	H	0.536267	0.471743	1.239286
H233	H	0.693053	-0.506675	0.588146
H234	H	1.193053	-0.006675	1.088146
H235	H	0.693242	-0.727072	0.697844
H236	H	1.193242	-0.227072	1.197844
O237	O	0.027300	-0.464035	0.437006
O238	O	0.527300	0.035965	0.937006
C239	C	0.021771	-0.410589	0.337560
C240	C	0.521771	0.089411	0.837560
C241	C	0.033887	-0.471768	0.386686
C242	C	0.533887	0.028232	0.886686
H243	H	0.027079	-0.416818	0.296870
H244	H	0.527079	0.083182	0.796870
H245	H	0.054862	-0.389068	0.324452
H246	H	0.554862	0.110932	0.824452
H247	H	-0.025647	-0.380579	0.355012
H248	H	0.474353	0.119421	0.855012
H249	H	0.081288	-0.501823	0.369276
H250	H	0.581288	-0.001823	0.869276
H251	H	0.000758	-0.493241	0.399788
H252	H	0.500758	0.006759	0.899788
O253	O	-0.054145	-0.464067	1.184119
O254	O	0.445855	0.035933	1.684119
C255	C	-0.082987	-0.357860	1.132677
C256	C	0.417013	0.142140	1.632677
C257	C	-0.033802	-0.419029	1.132697
C258	C	0.466198	0.080971	1.632697
H259	H	-0.066562	-0.321433	1.091100
H260	H	0.433438	0.178567	1.591100
H261	H	-0.094259	-0.349072	1.174210
H262	H	0.405741	0.150928	1.674210
H263	H	-0.124575	-0.357800	1.132687
H264	H	0.375425	0.142200	1.632687
H265	H	0.007817	-0.419134	1.132666
H266	H	0.507817	0.080866	1.632666
H267	H	-0.022582	-0.427793	1.091167
H268	H	0.477418	0.072207	1.591167
O269	O	-0.089707	0.013379	0.671569
O270	O	0.410293	0.513379	1.171569
C271	C	-0.188048	0.013358	0.699335
C272	C	0.311952	0.513358	1.199335
C273	C	-0.126897	0.013323	0.650151
C274	C	0.373103	0.513323	1.150151
H275	H	-0.218130	0.013299	0.682041
H276	H	0.281870	0.513299	1.182041
H277	H	-0.209519	0.054931	0.712335
H278	H	0.290481	0.554931	1.212335
H279	H	-0.181751	-0.028177	0.740062
H280	H	0.318249	0.471823	1.240062
H281	H	-0.133143	0.054830	0.609392
H282	H	0.366857	0.554830	1.109392
H283	H	-0.105447	-0.028278	0.637202
H284	H	0.394553	0.471722	1.137202
O285	O	0.215673	-0.652328	0.437025
O286	O	0.715673	-0.152328	0.937025
C287	C	0.313967	-0.723086	0.409422
C288	C	0.813967	-0.223086	0.909422
C289	C	0.252791	-0.711004	0.458545
C290	C	0.752791	-0.211004	0.958545
H291	H	0.343990	-0.770529	0.426798
H292	H	0.843990	-0.270529	0.926798
H293	H	0.335488	-0.690017	0.396374
H294	H	0.835488	-0.190017	0.896374
H295	H	0.307695	-0.717666	0.368706
H296	H	0.807695	-0.217666	0.868706
H297	H	0.259011	-0.716432	0.499294
H298	H	0.759011	-0.216432	0.999294
H299	H	0.231290	-0.744070	0.471543
H300	H	0.731290	-0.244070	0.971543
O301	O	0.098747	-0.769536	0.671297
O302	O	0.598747	-0.269536	1.171297
C303	C	0.169591	-0.867812	0.698781
C304	C	0.669591	-0.367812	1.198781
C305	C	0.157428	-0.806597	0.649711
C306	C	0.657428	-0.306597	1.149711
H307	H	0.217037	-0.897789	0.681351
H308	H	0.717037	-0.397789	1.181351
H309	H	0.136547	-0.889363	0.711831
H310	H	0.636547	-0.389363	1.211831
H311	H	0.164201	-0.861585	0.739509
H312	H	0.664201	-0.361585	1.239509
H313	H	0.162826	-0.812772	0.608951
H314	H	0.662826	-0.312772	1.108951
H315	H	0.190470	-0.785067	0.636711
H316	H	0.690470	-0.285067	1.136711
O317	O	-0.053616	-0.652692	1.184022
O318	O	0.446384	-0.152692	1.684022
C319	C	-0.080902	-0.723592	1.183941
C320	C	0.419098	-0.223592	1.683941
C321	C	-0.031933	-0.711385	1.184043
C322	C	0.468067	-0.211385	1.684043
H323	H	-0.063394	-0.771049	1.183971
H324	H	0.436606	-0.271049	1.683971
H325	H	-0.093915	-0.690562	1.142360
H326	H	0.406085	-0.190562	1.642360
H327	H	-0.121672	-0.718213	1.225464
H328	H	0.378328	-0.218213	1.725464
H329	H	0.008869	-0.716772	1.142548
H330	H	0.508869	-0.216772	1.642548
H331	H	-0.018971	-0.744413	1.225652
H332	H	0.481029	-0.244413	1.725652
O333	O	0.692940	-0.499239	0.401340
O334	O	1.192940	0.000761	0.901340
C335	C	0.692812	-0.471465	0.303021
C336	C	1.192812	0.028535	0.803021
C337	C	0.692874	-0.520666	0.364161
C338	C	1.192874	-0.020666	0.864161
H339	H	0.692746	-0.488766	0.272949
H340	H	1.192746	0.011234	0.772949
H341	H	0.734349	-0.458418	0.281522
H342	H	1.234349	0.041582	0.781522
H343	H	0.651248	-0.430764	0.309347
H344	H	1.151248	0.069236	0.809347
H345	H	0.734410	-0.561399	0.357888
H346	H	1.234410	-0.061399	0.857888
H347	H	0.651310	-0.533663	0.385640
H348	H	1.151310	-0.033663	0.885640
O349	O	0.180642	-0.769420	1.184098
O350	O	0.680642	-0.269420	1.684098
C351	C	0.243790	-0.841306	1.132619
C352	C	0.743790	-0.341306	1.632619
C353	C	0.194587	-0.780155	1.132649
C354	C	0.694587	-0.280155	1.632649
H355	H	0.255088	-0.850000	1.091021
H356	H	0.755088	-0.350000	1.591021
H357	H	0.227385	-0.877787	1.174131
H358	H	0.727385	-0.377787	1.674131
H359	H	0.285357	-0.841383	1.132667
H360	H	0.785357	-0.341383	1.632667
H361	H	0.153002	-0.780019	1.132580
H362	H	0.653002	-0.280019	1.632580
H363	H	0.211041	-0.743701	1.091141
H364	H	0.711041	-0.243701	1.591141
O365	O	-0.089690	-0.581178	0.671518
O366	O	0.410310	-0.081178	1.171518
C367	C	-0.161588	-0.520764	0.734469
C368	C	0.338412	-0.020764	1.234469
C369	C	-0.100440	-0.532833	0.685307
C370	C	0.399560	-0.032833	1.185307
H371	H	-0.170305	-0.481669	0.745624
H372	H	0.329695	0.018331	1.245624
H373	H	-0.161736	-0.562207	0.776133
H374	H	0.338264	-0.062207	1.276133
H375	H	-0.198015	-0.509457	0.718013
H376	H	0.301985	-0.009457	1.218013
H377	H	-0.063979	-0.544126	0.701707
H378	H	0.436021	-0.044126	1.201707
H379	H	-0.100343	-0.491381	0.643653
H380	H	0.399657	0.008619	1.143653
O381	O	0.215444	0.013713	0.436671
O382	O	0.715444	0.513713	0.936671
C383	C	0.321729	-0.037258	0.407473
C384	C	0.821729	0.462742	0.907473
C385	C	0.260704	-0.037606	0.456781
C386	C	0.760704	0.462394	0.956781
H387	H	0.358337	-0.078751	0.423709
H388	H	0.858337	0.421249	0.923709
H389	H	0.330282	0.004362	0.396331
H390	H	0.830282	0.504362	0.896331
H391	H	0.321736	-0.037144	0.365853
H392	H	0.821736	0.462856	0.865853
H393	H	0.260652	-0.037741	0.498431
H394	H	0.760652	0.462259	0.998431
H395	H	0.252175	-0.079222	0.467871
H396	H	0.752175	0.420778	0.967871
O397	O	0.096697	-0.432163	0.781424
O398	O	0.596697	0.067837	1.281424
C399	C	-0.006744	-0.383714	0.788056
C400	C	0.493256	0.116286	1.288056
C401	C	0.037990	-0.423234	0.822381
C402	C	0.537990	0.076766	1.322381
H403	H	-0.054218	-0.376473	0.821155
H404	H	0.445782	0.123527	1.321155
H405	H	0.000397	-0.406602	0.758811
H406	H	0.500397	0.093398	1.258811
H407	H	0.000477	-0.338773	0.758783
H408	H	0.500477	0.161227	1.258783
H409	H	0.030796	-0.468182	0.851686
H410	H	0.530796	0.031818	1.351686
H411	H	0.030838	-0.400299	0.851588
H412	H	0.530838	0.099701	1.351588
O413	O	0.257097	-0.573840	0.904371
O414	O	0.757097	-0.073840	1.404371
C415	C	0.360540	-0.622209	0.897731
C416	C	0.860540	-0.122209	1.397731
C417	C	0.315802	-0.582673	0.863411
C418	C	0.815802	-0.082673	1.363411
H419	H	0.408012	-0.629353	0.864630
H420	H	0.908012	-0.129353	1.364630
H421	H	0.353409	-0.667195	0.926971
H422	H	0.853409	-0.167195	1.426971
H423	H	0.353313	-0.599311	0.927009
H424	H	0.853313	-0.099311	1.427009
H425	H	0.323002	-0.605519	0.834101
H426	H	0.823002	-0.105519	1.334101
H427	H	0.322944	-0.537690	0.834209
H428	H	0.822944	-0.037690	1.334209
H429	H	0.173154	-0.582650	1.184245
H430	H	0.673154	-0.082650	1.684245
H431	H	0.288361	-0.530376	0.786177
H432	H	0.788361	-0.030376	1.286177
H433	H	0.103135	-0.437780	0.733124
H434	H	0.603135	0.062220	1.233124
H435	H	0.408481	-0.430137	0.613993
H436	H	0.908481	0.069863	1.113993
H437	H	0.204115	-0.271255	0.556464
H438	H	0.704115	0.228745	1.056464
O439	O	0.055669	-0.473271	0.697805
O440	O	0.555669	0.026729	1.197805
C441	C	-0.037905	-0.478031	0.777064
C442	C	0.462095	0.021969	1.277064
C443	C	0.029689	-0.494597	0.760404
C444	C	0.529689	0.005403	1.260404
H445	H	-0.058932	-0.495254	0.827676
H446	H	0.441068	0.004746	1.327676
H447	H	-0.045855	-0.499107	0.756044
H448	H	0.454145	0.000893	1.256044
H449	H	-0.058976	-0.427423	0.759802
H450	H	0.441024	0.072577	1.259802
H451	H	0.050805	-0.545196	0.777663
H452	H	0.550805	-0.045196	1.277663
H453	H	0.037597	-0.473477	0.781416
H454	H	0.537597	0.026523	1.281416
O455	O	0.256884	-0.573682	0.596967
O456	O	0.756884	-0.073682	1.096967
C457	C	0.337741	-0.581650	0.504983
C458	C	0.837741	-0.081650	1.004983
C459	C	0.293051	-0.542170	0.544561
C460	C	0.793051	-0.042170	1.044561
H461	H	0.367002	-0.556193	0.462610
H462	H	0.867002	-0.056193	0.962610
H463	H	0.312337	-0.593938	0.492627
H464	H	0.812337	-0.093938	0.992627
H465	H	0.366996	-0.624070	0.530438
H466	H	0.866996	-0.124070	1.030438
H467	H	0.263785	-0.499725	0.519143
H468	H	0.763785	0.000275	1.019143
H469	H	0.318491	-0.529930	0.556920
H470	H	0.818491	-0.029930	1.056920
O471	O	0.290324	-0.582178	0.726398
O472	O	0.790324	-0.082178	1.226398
C473	C	0.296941	-0.684676	0.762470
C474	C	0.796941	-0.184676	1.262470
C475	C	0.331273	-0.640492	0.729815
C476	C	0.831273	-0.140492	1.229815
H477	H	0.330033	-0.731834	0.765254
H478	H	0.830033	-0.231834	1.265254
H479	H	0.267680	-0.672172	0.736925
H480	H	0.767680	-0.172172	1.236925
H481	H	0.267685	-0.682733	0.809448
H482	H	0.767685	-0.182733	1.309448
H483	H	0.360561	-0.642412	0.682836
H484	H	0.860561	-0.142412	1.182836
H485	H	0.360496	-0.653010	0.755405
H486	H	0.860496	-0.153010	1.255405
H487	H	0.408519	-0.613593	0.683941
H488	H	0.908519	-0.113593	1.183941
O489	O	0.290289	-0.382744	0.650390
O490	O	0.790289	0.117256	1.150390
C491	C	0.296870	-0.284645	0.609908
C492	C	0.796870	0.215355	1.109908
C493	C	0.331222	-0.351729	0.619658
C494	C	0.831222	0.148271	1.119658
H495	H	0.329950	-0.259548	0.585049
H496	H	0.829950	0.240452	1.085049
H497	H	0.267645	-0.277646	0.654959
H498	H	0.767645	0.222354	1.154959
H499	H	0.267577	-0.267071	0.582460
H500	H	0.767577	0.232929	1.082460
H501	H	0.360547	-0.369348	0.647085
H502	H	0.860547	0.130652	1.147085
H503	H	0.360409	-0.358688	0.574586
H504	H	0.860409	0.141312	1.074586
H505	H	0.288283	-0.530335	0.640482
H506	H	0.788283	-0.030335	1.140482
H507	H	0.111630	-0.271286	0.741644
H508	H	0.611630	0.228714	1.241644
O509	O	0.247562	-0.389461	0.587771
O510	O	0.747562	0.110539	1.087771
C511	C	0.295946	-0.382847	0.484336
C512	C	0.795946	0.117153	0.984336
C513	C	0.256455	-0.348510	0.529054
C514	C	0.756455	0.151490	1.029054
H515	H	0.303159	-0.349753	0.436854
H516	H	0.803159	0.150247	0.936854
H517	H	0.273056	-0.412091	0.491500
H518	H	0.773056	0.087909	0.991500
H519	H	0.340898	-0.412124	0.491555
H520	H	0.840898	0.087876	0.991555
H521	H	0.211496	-0.319201	0.521863
H522	H	0.711496	0.180799	1.021863
H523	H	0.279392	-0.319303	0.521880
H524	H	0.779392	0.180697	1.021880
H525	H	0.149444	-0.384673	0.779411
H526	H	0.649444	0.115327	1.279411
