data_functionalizedCrystal
_audit_creation_method	'MofGen! by Chris Wilmer'
_symmetry_space_group_name_H-M	'P1'
_symmetry_Int_Tables_number	1
_symmetry_cell_setting	triclinic
loop_
_symmetry_equiv_pos_as_xyz
  x,y,z
_cell_length_a	21.295417
_cell_length_b	16.959455
_cell_length_c	16.959447
_cell_angle_alpha	90.023545
_cell_angle_beta	90.031627
_cell_angle_gamma	90.027526
loop_
_atom_site_label
_atom_site_type_symbol
_atom_site_fract_x
_atom_site_fract_y
_atom_site_fract_z
Zn1	Zn	-0.250669	1.208351	0.447010
Zn2	Zn	-0.355939	1.208242	0.314820
Zn3	Zn	-0.250682	1.076172	0.314833
Zn4	Zn	-0.355899	1.076120	0.446944
O5	O	-0.303297	1.142222	0.380902
O6	O	-0.264645	1.318948	0.429496
O7	O	-0.341999	1.190699	0.204211
O8	O	-0.162591	1.093774	0.332399
O9	O	-0.341986	1.318868	0.332377
O10	O	-0.162581	1.190885	0.429509
O11	O	-0.264667	1.093668	0.204220
O12	O	-0.264628	0.965555	0.332336
O13	O	-0.341917	1.093685	0.557564
O14	O	-0.341930	0.965516	0.429398
O15	O	-0.264605	1.190834	0.557612
O16	O	-0.444023	1.190649	0.332313
O17	O	-0.443994	1.093579	0.429385
C18	C	-0.303277	0.936855	0.380862
C19	C	-0.303283	0.848999	0.380864
C20	C	-0.343529	0.477471	0.330306
C21	C	-0.263118	0.477575	0.431594
C22	C	-0.263107	0.560121	0.431574
C23	C	-0.303309	0.601346	0.380921
C24	C	-0.343521	0.560024	0.330287
C25	C	-0.222900	0.601449	0.482213
C26	C	-0.222889	0.684000	0.482197
C27	C	-0.263088	0.725226	0.431539
C28	C	-0.303301	0.683899	0.380902
C29	C	-0.343503	0.725124	0.330248
C30	C	-0.383714	0.683799	0.279607
C31	C	-0.383720	0.601250	0.279629
C32	C	-0.263081	0.807774	0.431517
C33	C	-0.343495	0.807677	0.330229
C34	C	-0.466849	1.142118	0.380858
C35	C	-0.536817	1.142146	0.380866
C36	C	-0.569678	1.192735	0.330372
C37	C	-0.635421	1.192772	0.330390
C38	C	-0.668299	1.142206	0.380893
C39	C	-0.635430	1.091613	0.431396
C40	C	-0.569689	1.091583	0.431382
N41	N	-0.771562	1.073059	0.386905
N42	N	-0.834014	1.073090	0.386914
C43	C	-0.866374	1.142294	0.380938
N44	N	-0.833924	1.211468	0.374939
N45	N	-0.771467	1.211437	0.374926
C46	C	-0.739585	1.142233	0.380914
C47	C	-0.970521	1.192928	0.330462
C48	C	-1.036265	1.192966	0.330485
C49	C	-1.036273	1.091801	0.431487
C50	C	-0.970531	1.091769	0.431467
C51	C	-0.937658	1.142332	0.380951
C52	C	-0.139107	1.142347	0.380963
C53	C	-0.069139	1.142401	0.380989
C54	C	-0.303318	1.348390	0.380942
C55	C	-0.303327	1.436246	0.380959
C56	C	-0.303255	1.142266	0.587070
C57	C	-0.303238	1.142285	0.674927
C58	C	-0.303294	1.142223	0.175535
C59	C	-0.303134	1.142357	0.087679
C60	C	-0.343483	1.091713	0.716177
C61	C	-0.262972	1.192869	0.716230
C62	C	-0.262951	1.192886	0.798776
C63	C	-0.303196	1.142314	0.840026
C64	C	-0.343462	1.091727	0.798731
C65	C	-0.222682	1.243467	0.840077
C66	C	-0.222659	1.243485	0.922628
C67	C	-0.262908	1.192917	0.963880
C68	C	-0.303175	1.142328	0.922580
C69	C	-0.343420	1.091756	0.963830
C70	C	-0.383692	1.041170	0.922531
C71	C	-0.383710	1.041158	0.839983
C72	C	-0.262889	1.192929	1.046429
C73	C	-0.343400	1.091769	1.046384
H74	H	-0.190174	0.567878	0.523458
C75	C	-0.934359	1.248559	0.274904
N76	N	-0.907124	1.290463	0.233061
C77	C	-0.178651	0.729450	0.537895
N78	N	-0.145327	0.763683	0.579844
C79	C	-0.218853	0.853228	0.487220
N80	N	-0.185536	0.887463	0.529177
H81	H	-1.063019	1.234167	0.289369
H82	H	-0.416456	0.999991	0.956128
C83	C	-0.427952	0.555787	0.223932
N84	N	-0.461268	0.521540	0.181985
H85	H	-0.230096	1.234109	1.080051
H86	H	-1.063042	1.050632	0.472610
C87	C	-0.387777	1.036069	0.670749
N88	N	-0.421139	0.994156	0.636530
H89	H	-0.376266	0.443820	0.289073
H90	H	-0.189869	1.284676	0.956247
C91	C	-0.218702	1.248491	0.670851
N92	N	-0.185356	1.290388	0.636669
H93	H	-0.943773	1.050572	0.472580
C94	C	-0.218889	0.432226	0.487297
N95	N	-0.185568	0.398065	0.529249
C96	C	-0.427999	0.985512	0.794548
N97	N	-0.461354	0.943595	0.760323
H98	H	-0.376231	0.841236	0.288978
H99	H	-0.416449	0.717374	0.238369
C100	C	-0.671598	1.035988	0.486946
N101	N	-0.698840	0.994089	0.528789
C102	C	-0.178411	1.299086	0.794697
N103	N	-0.145065	1.340980	0.760512
H104	H	-0.542916	1.233908	0.289241
H105	H	-0.662181	1.233970	0.289273
H106	H	-0.542933	1.050387	0.472501
C107	C	-0.387673	1.036135	1.091753
N108	N	-0.421019	0.994230	1.125924
