data_functionalizedCrystal
_audit_creation_method	'MofGen! by Chris Wilmer'
_symmetry_space_group_name_H-M	'P1'
_symmetry_Int_Tables_number	1
_symmetry_cell_setting	triclinic
loop_
_symmetry_equiv_pos_as_xyz
  x,y,z
_cell_length_a	13.635800
_cell_length_b	19.453103
_cell_length_c	10.943624
_cell_angle_alpha	94.445961
_cell_angle_beta	71.161201
_cell_angle_gamma	78.290822
loop_
_atom_site_label
_atom_site_type_symbol
_atom_site_fract_x
_atom_site_fract_y
_atom_site_fract_z
V1	V	2.039758	-0.097163	-0.403151
O2	O	2.037470	0.004688	-0.394859
O3	O	2.011049	-0.192676	-0.400988
O4	O	2.029017	-0.095660	-0.578708
O5	O	2.019377	-0.092999	-0.215908
V6	V	2.280412	-0.084981	-0.380683
O7	O	2.172816	-0.123884	-0.452436
O8	O	2.372453	-0.058260	-0.331398
O9	O	2.197518	0.010532	-0.382847
O10	O	2.341398	-0.186832	-0.388975
O11	O	2.359491	-0.089145	-0.567926
O12	O	2.179549	-0.086484	-0.205126
V13	V	2.539758	-0.097163	-0.403151
O14	O	2.537470	0.004688	-0.394859
O15	O	2.511049	-0.192676	-0.400988
O16	O	2.529017	-0.095660	-0.578708
O17	O	2.519377	-0.092999	-0.215908
V18	V	2.780412	-0.084981	-0.380683
O19	O	2.672816	-0.123884	-0.452436
O20	O	2.872453	-0.058260	-0.331398
O21	O	2.697518	0.010532	-0.382847
O22	O	2.841398	-0.186832	-0.388975
O23	O	2.859491	-0.089145	-0.567926
O24	O	2.679549	-0.086484	-0.205126
C25	C	1.932017	-0.215960	-0.394781
C26	C	1.949277	-0.294043	-0.394183
C27	C	2.048768	-0.334298	-0.400357
C28	C	2.064989	-0.407667	-0.399808
C29	C	1.981707	-0.440775	-0.393057
C30	C	1.882204	-0.400511	-0.386889
C31	C	1.865989	-0.327145	-0.387452
N32	N	1.921223	-0.547043	-0.313493
N33	N	1.936633	-0.616737	-0.312957
C34	C	2.030557	-0.661822	-0.391365
N35	N	2.108502	-0.634578	-0.470315
N36	N	2.093093	-0.564877	-0.470846
C37	C	1.999280	-0.520327	-0.392448
C38	C	2.147644	-0.781632	-0.396947
C39	C	2.163863	-0.855002	-0.396405
C40	C	1.981072	-0.847844	-0.383473
C41	C	1.964859	-0.774476	-0.384028
C42	C	2.048147	-0.741374	-0.390759
C43	C	1.954937	-0.092206	-0.621480
C44	C	1.986767	-0.091609	-0.765002
C45	C	2.108220	0.033812	-0.389050
C46	C	2.080580	0.111895	-0.389657
C47	C	2.432017	-0.215960	-0.394781
C48	C	2.449277	-0.294043	-0.394183
C49	C	2.428691	-0.320690	-0.275595
C50	C	2.444919	-0.394056	-0.275015
C51	C	2.481726	-0.440774	-0.393023
C52	C	2.502316	-0.414123	-0.511620
C53	C	2.486095	-0.340758	-0.512199
C54	C	1.909926	-0.087590	-0.842125
C55	C	1.993561	-0.147241	-0.948484
C56	C	1.959861	-0.030902	-0.914378
C57	C	2.069997	-0.151315	-0.869485
C58	C	2.036266	-0.034924	-0.835356
C59	C	2.119966	-0.094591	-0.941684
C60	C	2.085300	-0.089941	-0.162348
C61	C	2.043089	-0.090534	-0.018824
C62	C	2.454937	-0.092206	-0.621480
C63	C	2.486767	-0.091609	-0.765002
C64	C	2.608220	0.033812	-0.389050
C65	C	2.580580	0.111895	-0.389657
C66	C	2.585300	-0.089941	-0.162348
C67	C	2.543089	-0.090534	-0.018824
C68	C	2.653570	0.152144	-0.383468
C69	C	2.627605	0.225513	-0.384017
C70	C	2.528654	0.258630	-0.390764
C71	C	2.455658	0.218376	-0.396949
C72	C	2.481620	0.145009	-0.396390
C73	C	2.409926	-0.087590	-0.842125
C74	C	2.493561	-0.147241	-0.948484
C75	C	2.459861	-0.030902	-0.914378
C76	C	2.569997	-0.151315	-0.869485
C77	C	2.536266	-0.034924	-0.835356
C78	C	2.619966	-0.094591	-0.941684
H79	H	2.146009	-0.440449	-0.404836
H80	H	2.532287	-0.452172	-0.607698
H81	H	2.116256	-0.202261	-0.849255
H82	H	1.913264	-0.874800	-0.377984
H83	H	1.784971	-0.294369	-0.382424
O84	O	2.557205	0.021802	-0.776585
C85	C	2.498561	0.085150	-0.798704
H86	H	2.426487	0.074436	-0.821050
H87	H	2.551518	0.105252	-0.885123
C88	C	2.548850	0.154825	-0.648498
C89	C	2.460321	0.141667	-0.675932
H90	H	2.525265	0.189689	-0.572769
H91	H	2.588362	0.112146	-0.633599
H92	H	2.592973	0.171573	-0.720523
H93	H	2.416208	0.124911	-0.603915
H94	H	2.420800	0.184344	-0.690816
H95	H	2.209073	-0.097566	-0.984947
O96	O	2.057205	0.021802	-0.776585
C97	C	1.998561	0.085150	-0.798704
H98	H	1.926487	0.074436	-0.821050
H99	H	2.051518	0.105252	-0.885123
C100	C	2.048850	0.154825	-0.648498
C101	C	1.960321	0.141667	-0.675932
H102	H	2.025265	0.189689	-0.572769
H103	H	2.088362	0.112146	-0.633599
H104	H	2.092973	0.171573	-0.720523
H105	H	1.916208	0.124911	-0.603915
H106	H	1.920800	0.184344	-0.690816
H107	H	2.116591	-0.307352	-0.405847
H108	H	2.502858	-0.319069	-0.608770
O109	O	2.260479	-0.894054	-0.402172
C110	C	2.284844	-0.868763	-0.293851
H111	H	2.207848	-0.839850	-0.211673
H112	H	2.338574	-0.830556	-0.323607
C113	C	2.437458	-0.967318	-0.347276
C114	C	2.342889	-0.931811	-0.246339
H115	H	2.473267	-1.006208	-0.317970
H116	H	2.421046	-0.984356	-0.420257
H117	H	2.482220	-0.935471	-0.372063
H118	H	2.298123	-0.963656	-0.221565
H119	H	2.359295	-0.914780	-0.173352
O120	O	1.803639	-0.084028	-0.790156
C121	C	1.753003	-0.022315	-0.696260
H122	H	1.803429	0.018393	-0.717045
H123	H	1.743758	-0.036464	-0.594628
C124	C	1.580127	-0.040779	-0.677379
C125	C	1.642057	0.009221	-0.702913
H126	H	1.511689	-0.021327	-0.681477
H127	H	1.614241	-0.082358	-0.740634
H128	H	1.572435	-0.052566	-0.592686
H129	H	1.649760	0.021000	-0.787610
H130	H	1.607942	0.050803	-0.639672
H131	H	1.883841	-0.741699	-0.378991
H132	H	2.375090	0.245351	-0.402440
H133	H	1.975839	-0.194724	-0.997726
H134	H	1.913606	0.019976	-0.934827
H135	H	2.734147	0.125190	-0.377976
O136	O	2.303639	-0.084028	-0.790156
C137	C	2.253003	-0.022315	-0.696260
H138	H	2.303429	0.018393	-0.717045
H139	H	2.243758	-0.036464	-0.594628
C140	C	2.080127	-0.040779	-0.677379
C141	C	2.142057	0.009221	-0.702913
H142	H	2.011689	-0.021327	-0.681477
H143	H	2.114241	-0.082358	-0.740634
H144	H	2.072435	-0.052566	-0.592686
H145	H	2.149760	0.021000	-0.787610
H146	H	2.107942	0.050803	-0.639672
O147	O	2.698414	0.264656	-0.377792
C148	C	2.652045	0.316842	-0.265348
H149	H	2.585567	0.299368	-0.190281
H150	H	2.617529	0.369337	-0.292913
C151	C	2.819472	0.348000	-0.298888
C152	C	2.737828	0.326536	-0.206685
H153	H	2.872387	0.353983	-0.262704
H154	H	2.850711	0.312844	-0.374647
H155	H	2.790695	0.391744	-0.321851
H156	H	2.766603	0.282789	-0.183736
H157	H	2.706596	0.361686	-0.130920
O158	O	2.424808	-0.419815	-0.159685
C159	C	2.388855	-0.362844	-0.055663
H160	H	2.353973	-0.312252	-0.088531
H161	H	2.458729	-0.355095	-0.025027
C162	C	2.345155	-0.441558	0.101346
C163	C	2.302304	-0.379421	0.060981
H164	H	2.291770	-0.451784	0.173301
H165	H	2.369381	-0.479941	0.031266
H166	H	2.403383	-0.435093	0.126867
H167	H	2.244087	-0.385891	0.035445
H168	H	2.278066	-0.341040	0.131060
H169	H	2.413606	0.019976	-0.934827
H170	H	2.507527	0.318371	-0.391217
O171	O	2.625060	-0.212073	-0.845135
C172	C	2.594128	-0.211922	-0.709086
H173	H	2.511354	-0.175101	-0.658763
H174	H	2.653860	-0.192440	-0.671080
C175	C	2.693127	-0.333041	-0.741599
C176	C	2.591459	-0.287821	-0.679792
H177	H	2.691485	-0.379859	-0.723528
H178	H	2.713971	-0.333142	-0.833259
H179	H	2.742893	-0.316797	-0.709921
H180	H	2.541697	-0.304060	-0.711483
H181	H	2.570606	-0.287724	-0.588137
O182	O	2.726307	-0.098262	-0.993285
C183	C	2.784299	-0.161777	-0.970859
H184	H	2.733421	-0.202336	-0.955225
H185	H	2.805956	-0.150574	-0.880249
C186	C	2.949609	-0.141685	-1.109081
C187	C	2.887122	-0.191503	-1.089890
H188	H	3.013037	-0.160021	-1.182501
H189	H	2.910539	-0.098893	-1.124186
H190	H	2.967645	-0.132354	-1.033564
H191	H	2.869076	-0.200827	-1.165398
H192	H	2.926191	-0.234298	-1.074800
H193	H	2.494929	-0.500511	-0.392532
H194	H	1.814397	-0.427472	-0.381396
H195	H	2.398715	-0.282660	-0.179494
H196	H	2.475839	-0.194724	-0.997726
O197	O	2.228419	-0.749356	-0.403438
C198	C	2.192780	-0.675970	-0.402634
H199	H	2.102056	-0.659394	-0.356062
H200	H	2.217761	-0.664140	-0.507213
C201	C	2.354087	-0.654540	-0.380596
C202	C	2.242658	-0.634179	-0.323386
H203	H	2.384857	-0.628760	-0.331718
H204	H	2.378100	-0.703981	-0.381143
H205	H	2.374890	-0.644680	-0.467743
H206	H	2.221857	-0.644047	-0.236246
H207	H	2.218642	-0.584738	-0.322822
H208	H	2.422181	0.112242	-0.401441
