data_functionalizedCrystal
_audit_creation_method	'MofGen! by Chris Wilmer'
_symmetry_space_group_name_H-M	'P1'
_symmetry_Int_Tables_number	1
_symmetry_cell_setting	triclinic
loop_
_symmetry_equiv_pos_as_xyz
  x,y,z
_cell_length_a	17.699077
_cell_length_b	14.044220
_cell_length_c	13.101039
_cell_angle_alpha	93.667477
_cell_angle_beta	86.649861
_cell_angle_gamma	88.234727
loop_
_atom_site_label
_atom_site_type_symbol
_atom_site_fract_x
_atom_site_fract_y
_atom_site_fract_z
O1	O	1.016154	0.114581	-0.085204
O2	O	0.796851	0.130179	-0.085209
O3	O	0.903210	-0.015596	-0.085196
O4	O	0.909794	0.260356	-0.085216
O5	O	0.895580	-0.005120	0.085233
O6	O	0.789221	0.140656	0.085220
O7	O	1.008524	0.125057	0.085225
Zn8	Zn	0.897661	0.134520	0.112282
Zn9	Zn	0.907714	0.120717	-0.112266
O10	O	0.902164	0.270833	0.085213
C11	C	0.764800	0.134860	0.000005
C12	C	0.680667	0.133186	0.000003
C13	C	0.636986	0.138108	0.092905
C14	C	0.557933	0.136520	0.092906
C15	C	0.522564	0.130016	0.000005
C16	C	0.566250	0.125091	-0.092905
C17	C	0.645301	0.126672	-0.092905
C18	C	0.247447	0.118713	-0.092906
C19	C	0.168390	0.117135	-0.092899
C20	C	0.160079	0.128561	0.092905
C21	C	0.239130	0.130142	0.092905
C22	C	0.282810	0.125211	-0.000004
C23	C	0.368528	0.126931	-0.000004
C24	C	0.436847	0.128303	0.000004
C25	C	0.896513	-0.045666	0.000019
C26	C	0.887917	-0.150871	0.000020
C27	C	0.872203	-0.343497	0.000005
C28	C	0.933169	-0.401272	0.000003
C29	C	0.924425	-0.508456	-0.000006
C30	C	0.880945	-0.236303	0.000013
C31	C	1.040574	0.120377	0.000009
C32	C	1.124708	0.122051	0.000004
C33	C	0.908861	0.300902	-0.000004
C34	C	0.917458	0.406108	-0.000012
N35	N	0.890805	0.143940	0.265530
N36	N	0.914574	0.111289	-0.265513
C37	C	0.881479	0.156764	0.474571
C38	C	0.923898	0.098468	0.525452
C39	C	0.918709	0.105604	0.641770
C40	C	0.886667	0.149630	0.358243
H41	H	0.522372	0.140512	0.168556
H42	H	0.813446	-0.374530	0.000001
H43	H	0.841269	0.212029	0.518363
H44	H	0.665777	0.143411	0.168557
H45	H	0.267924	0.135442	0.168555
H46	H	0.124505	0.132571	0.168556
H47	H	0.964113	0.043201	0.481654
H48	H	0.139595	0.111839	-0.168555
H49	H	0.991933	-0.370242	-0.000064
H50	H	0.283002	0.114696	-0.168558
H51	H	0.537446	0.119789	-0.168547
H52	H	0.680866	0.122666	-0.168555
