data_functionalizedCrystal
_audit_creation_method	'MofGen! by Chris Wilmer'
_symmetry_space_group_name_H-M	'P1'
_symmetry_Int_Tables_number	1
_symmetry_cell_setting	triclinic
loop_
_symmetry_equiv_pos_as_xyz
  x,y,z
_cell_length_a	15.538191
_cell_length_b	14.971486
_cell_length_c	14.048226
_cell_angle_alpha	89.993360
_cell_angle_beta	90.008350
_cell_angle_gamma	114.556889
loop_
_atom_site_label
_atom_site_type_symbol
_atom_site_fract_x
_atom_site_fract_y
_atom_site_fract_z
O1	O	1.249587	0.290400	0.079170
O2	O	0.975445	0.187159	0.079170
O3	O	1.119864	0.371373	0.079163
O4	O	1.105168	0.106187	0.079176
O5	O	1.119846	0.371375	-0.079158
O6	O	0.975427	0.187161	-0.079152
O7	O	1.249570	0.290403	-0.079152
Zn8	Zn	1.112496	0.238782	-0.104289
Zn9	Zn	1.112519	0.238779	0.104307
O10	O	1.105151	0.106189	-0.079145
C11	C	1.119198	0.404485	0.000003
C12	C	1.117228	0.503140	0.000003
C13	C	0.940353	0.176358	0.000009
C14	C	0.835815	0.144183	0.000009
N15	N	1.112487	0.238787	-0.246649
C16	C	0.547665	0.463833	0.000007
C17	C	0.449433	0.433577	0.000010
C18	C	0.427182	0.263395	0.000018
C19	C	0.525413	0.293637	0.000011
C20	C	0.585648	0.393857	0.000007
C21	C	0.563397	0.223661	0.000011
C22	C	0.661620	0.253900	0.000009
C23	C	0.721860	0.354116	0.000007
C24	C	0.683871	0.424096	0.000005
C25	C	0.503161	0.123441	0.000022
C26	C	0.541144	0.053465	0.000021
C27	C	0.639369	0.083705	0.000013
C28	C	0.699609	0.183920	0.000011
C29	C	0.677358	0.013724	0.000015
C30	C	0.775581	0.043964	0.000013
C31	C	0.797832	0.214159	0.000009
C32	C	1.284662	0.301203	0.000011
C33	C	1.389199	0.333378	0.000017
C34	C	1.105817	0.073077	0.000018
C35	C	1.107786	-0.025579	0.000023
C36	C	1.202071	0.587997	0.000003
C37	C	1.200215	0.680692	0.000012
C38	C	1.113515	0.688528	0.000016
C39	C	1.028666	0.603662	0.000019
C40	C	1.030524	0.510969	0.000017
C41	C	1.024802	0.796866	0.000023
C42	C	1.022944	0.889565	0.000024
C43	C	1.194493	0.966589	0.000018
C44	C	1.196350	0.873896	0.000016
C45	C	1.111500	0.789036	0.000017
C46	C	1.176456	0.320339	-0.296470
C47	C	1.176462	0.320341	-0.396128
C48	C	1.112504	0.238789	-0.445963
C49	C	1.048528	0.157232	-0.396135
C50	C	1.048518	0.157234	-0.296479
C51	C	1.048555	0.157235	-0.603849
C52	C	1.048566	0.157232	-0.703512
C53	C	1.176500	0.320342	-0.703498
C54	C	1.176490	0.320344	-0.603842
C55	C	1.112515	0.238786	-0.554021
N56	N	1.112535	0.238784	0.246667
H57	H	0.846879	0.295768	0.000000
Cl58	Cl	0.968155	0.054706	-0.766154
H59	H	1.228542	0.386746	-0.255901
Cl60	Cl	0.845343	0.392134	0.000011
Cl61	Cl	0.401687	0.521559	-0.000005
Cl62	Cl	0.913949	0.899414	0.000027
H63	H	0.423182	0.098824	0.000026
H64	H	0.996427	0.090827	-0.255915
H65	H	0.732918	0.505705	-0.000004
Cl66	Cl	0.968117	0.054710	-0.458782
Cl67	Cl	1.301160	1.073269	0.000021
H68	H	0.996457	0.090824	-0.563288
Cl69	Cl	0.601624	-0.112261	0.000037
Cl70	Cl	0.823336	-0.044007	0.000015
H71	H	0.492088	-0.028134	0.000029
Cl72	Cl	1.256881	0.422865	-0.458762
H73	H	1.228574	0.386747	-0.563267
H74	H	0.958074	0.610049	0.000028
H75	H	0.955708	0.727771	0.000027
H76	H	0.596711	0.545442	-0.000002
H77	H	1.228590	0.386749	-0.744068
Cl78	Cl	1.311071	0.578158	-0.000012
Cl79	Cl	1.306879	0.787367	0.000008
H80	H	0.961436	0.441876	0.000017
H81	H	0.378126	0.181796	0.000025
H82	H	1.266948	0.867521	0.000006
