data_functionalizedCrystal
_audit_creation_method	'MofGen! by Chris Wilmer'
_symmetry_space_group_name_H-M	'P1'
_symmetry_Int_Tables_number	1
_symmetry_cell_setting	triclinic
loop_
_symmetry_equiv_pos_as_xyz
  x,y,z
_cell_length_a	21.295418
_cell_length_b	25.639239
_cell_length_c	21.295411
_cell_angle_alpha	89.980474
_cell_angle_beta	89.956262
_cell_angle_gamma	90.054499
loop_
_atom_site_label
_atom_site_type_symbol
_atom_site_fract_x
_atom_site_fract_y
_atom_site_fract_z
Zn1	Zn	0.962320	-0.207990	-0.356243
Zn2	Zn	1.462320	0.292010	0.143757
Zn3	Zn	0.962207	-0.295410	-0.250972
Zn4	Zn	1.462207	0.204590	0.249028
Zn5	Zn	0.857043	-0.208014	-0.250953
Zn6	Zn	1.357043	0.291986	0.249047
Zn7	Zn	0.856998	-0.295420	-0.356169
Zn8	Zn	1.356998	0.204580	0.143831
O9	O	0.909642	-0.251708	-0.303584
O10	O	1.409642	0.248292	0.196416
O11	O	1.050395	-0.219572	-0.342318
O12	O	1.550395	0.280428	0.157682
O13	O	0.948229	-0.283822	-0.162880
O14	O	1.448229	0.216178	0.337120
O15	O	0.871075	-0.134846	-0.264943
O16	O	1.371075	0.365154	0.235057
O17	O	1.050312	-0.283799	-0.264976
O18	O	1.550312	0.216201	0.235024
O19	O	0.948421	-0.134828	-0.342299
O20	O	1.448421	0.365172	0.157701
O21	O	0.870965	-0.219613	-0.162866
O22	O	1.370965	0.280387	0.337134
O23	O	0.768948	-0.219623	-0.264871
O24	O	1.268948	0.280377	0.235129
O25	O	0.870997	-0.283816	-0.444268
O26	O	1.370997	0.216184	0.055732
O27	O	0.768914	-0.283840	-0.342172
O28	O	1.268914	0.216160	0.157828
O29	O	0.948377	-0.219582	-0.444322
O30	O	1.448377	0.280418	0.055678
O31	O	0.948185	-0.368576	-0.264904
O32	O	1.448185	0.131424	0.235096
O33	O	0.870888	-0.368584	-0.342191
O34	O	1.370888	0.131416	0.157809
C35	C	0.746090	-0.251736	-0.303512
C36	C	1.246090	0.248264	0.196488
C37	C	0.676122	-0.251760	-0.303496
C38	C	1.176122	0.248240	0.196504
C39	C	0.643255	-0.285242	-0.343686
C40	C	1.143255	0.214758	0.156314
C41	C	0.577512	-0.285229	-0.343715
C42	C	1.077512	0.214771	0.156285
C43	C	0.544640	-0.251740	-0.303541
C44	C	1.044640	0.248260	0.196459
C45	C	0.577515	-0.218252	-0.263347
C46	C	1.077515	0.281748	0.236653
C47	C	0.643257	-0.218262	-0.263325
C48	C	1.143257	0.281738	0.236675
N49	N	0.441365	-0.247648	-0.248483
N50	N	0.941365	0.252352	0.251517
N51	N	0.378913	-0.247641	-0.248506
N52	N	0.878913	0.252359	0.251494
C53	C	0.346565	-0.251707	-0.303608
C54	C	0.846565	0.248293	0.196392
N55	N	0.379028	-0.255789	-0.358686
N56	N	0.879028	0.244211	0.141314
N57	N	0.441485	-0.255799	-0.358662
N58	N	0.941485	0.244201	0.141338
C59	C	0.473354	-0.251725	-0.303561
C60	C	0.973354	0.248275	0.196439
C61	C	0.242412	-0.285176	-0.343832
C62	C	0.742412	0.214824	0.156168
C63	C	0.176668	-0.285160	-0.343862
C64	C	0.676668	0.214840	0.156138
C65	C	0.176673	-0.218185	-0.263489
C66	C	0.676673	0.281815	0.236511
C67	C	0.242415	-0.218199	-0.263465
C68	C	0.742415	0.281801	0.236535
C69	C	0.275281	-0.251697	-0.303636
C70	C	0.775281	0.248303	0.196364
C71	C	0.909536	-0.387551	-0.303555
C72	C	1.409536	0.112449	0.196445
C73	C	0.909548	-0.445665	-0.303564
C74	C	1.409548	0.054335	0.196436
C75	C	0.949996	-0.806011	-0.263409
C76	C	1.449996	-0.306011	0.236591
C77	C	0.950020	-0.860616	-0.263418
C78	C	1.450020	-0.360616	0.236582
O79	O	0.984300	-0.888838	-0.229245
O80	O	1.484300	-0.388838	0.270755
N81	N	0.909753	-0.887947	-0.303626
N82	N	1.409753	-0.387947	0.196374
C83	C	0.869463	-0.860672	-0.343833
C84	C	1.369463	-0.360672	0.156167
O85	O	0.835215	-0.888934	-0.378034
O86	O	1.335215	-0.388934	0.121966
C87	C	0.869442	-0.806069	-0.343827
C88	C	1.369442	-0.306069	0.156173
C89	C	0.909708	-0.778740	-0.303612
C90	C	1.409708	-0.278740	0.196388
C91	C	0.990259	-0.778683	-0.223198
C92	C	1.490259	-0.278683	0.276802
C93	C	0.990233	-0.724082	-0.223188
C94	C	1.490233	-0.224082	0.276812
C95	C	0.949945	-0.696810	-0.263391
C96	C	1.449945	-0.196810	0.236609
C97	C	0.909682	-0.724139	-0.303603
C98	C	1.409682	-0.224139	0.196397
C99	C	0.829156	-0.778794	-0.384037
C100	C	1.329156	-0.278794	0.115963
C101	C	0.829139	-0.724187	-0.384028
C102	C	1.329139	-0.224187	0.115972
C103	C	0.869404	-0.696858	-0.343812
C104	C	1.369404	-0.196858	0.156188
C105	C	0.869369	-0.642267	-0.343796
C106	C	1.369369	-0.142267	0.156204
N107	N	0.909636	-0.614935	-0.303588
N108	N	1.409636	-0.114935	0.196412
C109	C	0.949924	-0.642207	-0.263385
C110	C	1.449924	-0.142207	0.236615
C111	C	0.869510	-0.975343	-0.343842
C112	C	1.369510	-0.475343	0.156158
C113	C	0.869527	-1.029945	-0.343845
C114	C	1.369527	-0.529945	0.156155
C115	C	0.950086	-1.029885	-0.263431
C116	C	1.450086	-0.529885	0.236569
C117	C	0.950065	-0.975282	-0.263425
C118	C	1.450065	-0.475282	0.236575
C119	C	0.909778	-0.948011	-0.303634
C120	C	1.409778	-0.448011	0.196366
C121	C	0.949868	-0.527542	-0.263369
C122	C	1.449868	-0.027542	0.236631
C123	C	0.949837	-0.472937	-0.263361
C124	C	1.449837	0.027063	0.236639
C125	C	0.869281	-0.473001	-0.343778
C126	C	1.369281	0.026999	0.156222
C127	C	0.869309	-0.527602	-0.343783
C128	C	1.369309	-0.027602	0.156217
C129	C	0.909607	-0.554871	-0.303577
C130	C	1.409607	-0.054871	0.196423
O131	O	0.835108	-0.614010	-0.377953
O132	O	1.335108	-0.114010	0.122047
O133	O	0.984172	-0.613939	-0.229195
O134	O	1.484172	-0.113939	0.270805
C135	C	1.073832	-0.251681	-0.303657
C136	C	1.573832	0.248319	0.196343
C137	C	1.143801	-0.251670	-0.303688
C138	C	1.643801	0.248330	0.196312
C139	C	0.909694	-0.251697	-0.467774
C140	C	1.409694	0.248303	0.032226
C141	C	0.909717	-0.251693	-0.537743
C142	C	1.409717	0.248307	-0.037743
C143	C	0.909766	-0.115335	-0.303627
C144	C	1.409766	0.384665	0.196373
C145	C	0.909818	-0.057221	-0.303645
C146	C	1.409818	0.442779	0.196355
C147	C	0.950007	-0.218244	-0.570639
C148	C	1.450007	0.281756	-0.070639
C149	C	0.950006	-0.218221	-0.636381
C150	C	1.450006	0.281779	-0.136381
C151	C	0.909721	-0.251657	-0.669225
C152	C	1.409721	0.248343	-0.169225
C153	C	0.869424	-0.285108	-0.636321
C154	C	1.369424	0.214892	-0.136321
C155	C	0.869421	-0.285126	-0.570580
C156	C	1.369421	0.214874	-0.070580
N157	N	0.904857	-0.297396	-0.772441
N158	N	1.404857	0.202604	-0.272441
N159	N	0.904863	-0.297377	-0.834892
N160	N	1.404863	0.202623	-0.334892
C161	C	0.909725	-0.251604	-0.867300
C162	C	1.409725	0.248396	-0.367300
N163	N	0.914594	-0.205848	-0.834897
N164	N	1.414594	0.294152	-0.334897
N165	N	0.914591	-0.205867	-0.772440
N166	N	1.414591	0.294133	-0.272440
C167	C	0.909719	-0.251641	-0.740511
C168	C	1.409719	0.248359	-0.240511
C169	C	0.950017	-0.218128	-0.971482
C170	C	1.450017	0.281872	-0.471482
C171	C	0.950011	-0.218104	-1.037225
C172	C	1.450011	0.281896	-0.537225
C173	C	0.869433	-0.284995	-1.037164
C174	C	1.369433	0.215005	-0.537164
C175	C	0.869435	-0.285014	-0.971422
C176	C	1.369435	0.214986	-0.471422
C177	C	0.909730	-0.251581	-0.938584
C178	C	1.409730	0.248419	-0.438584
C179	C	0.909626	-0.251682	-0.140032
C180	C	1.409626	0.248318	0.359968
C181	C	0.909726	-0.251539	-0.070065
C182	C	1.409726	0.248461	0.429935
H183	H	0.149909	-0.312424	-0.376594
H184	H	0.649909	0.187576	0.123406
H185	H	0.982824	-0.190902	-0.944744
H186	H	1.482824	0.309098	-0.444744
O187	O	0.675246	-0.317704	-0.382746
O188	O	1.175246	0.182296	0.117254
C189	C	0.713343	-0.287990	-0.423468
C190	C	1.213343	0.212010	0.076532
H191	H	0.723225	-0.248343	-0.401348
H192	H	1.223225	0.251657	0.098652
H193	H	0.759552	-0.309304	-0.431848
H194	H	1.259552	0.190696	0.068152
H195	H	0.688061	-0.282296	-0.470136
H196	H	1.188061	0.217704	0.029864
H197	H	1.023070	-0.800881	-0.190460
H198	H	1.523070	-0.300881	0.309540
H199	H	0.982813	-0.190981	-0.663170
H200	H	1.482813	0.309019	-0.163170
O201	O	0.989164	-0.185715	-0.538839
O202	O	1.489164	0.314285	-0.038839
C203	C	1.024736	-0.156197	-0.581977
C204	C	1.524736	0.343803	-0.081977
H205	H	0.998956	-0.154380	-0.628821
H206	H	1.498956	0.345620	-0.128821
H207	H	1.031488	-0.115006	-0.562990
H208	H	1.531488	0.384994	-0.062990
H209	H	1.072527	-0.175334	-0.589002
H210	H	1.572527	0.324666	-0.089002
H211	H	0.550746	-0.312494	-0.376445
H212	H	1.050746	0.187506	0.123555
O213	O	0.989210	-0.185593	-1.069085
O214	O	1.489210	0.314407	-0.569085
C215	C	1.024762	-0.156082	-1.026002
C216	C	1.524762	0.343918	-0.526002
H217	H	1.026920	-0.177512	-0.979141
H218	H	1.526920	0.322488	-0.479141
H219	H	1.074365	-0.150495	-1.045034
H220	H	1.574365	0.349505	-0.545034
H221	H	1.001751	-0.116377	-1.018991
H222	H	1.501751	0.383623	-0.518991
H223	H	0.836626	-0.312213	-1.063905
H224	H	1.336626	0.187787	-0.563905
O225	O	0.830383	-0.317644	-0.668250
O226	O	1.330383	0.182356	-0.168250
C227	C	0.866194	-0.351390	-0.706312
C228	C	1.366194	0.148610	-0.206312
H229	H	0.915768	-0.354616	-0.686535
H230	H	1.415768	0.145384	-0.186535
H231	H	0.843390	-0.391630	-0.707040
H232	H	1.343390	0.108370	-0.207040
H233	H	0.868380	-0.335212	-0.756139
H234	H	1.368380	0.164788	-0.256139
O235	O	0.144651	-0.185715	-0.224468
O236	O	0.644651	0.314285	0.275532
C237	C	0.079578	-0.192880	-0.233110
C238	C	0.579578	0.307120	0.266890
H239	H	0.070570	-0.233247	-0.253663
H240	H	0.570570	0.266753	0.246337
H241	H	0.054552	-0.189294	-0.185968
H242	H	0.554552	0.310706	0.314032
H243	H	0.060989	-0.161895	-0.266686
H244	H	0.560989	0.338105	0.233314
O245	O	0.274415	-0.185751	-0.224386
O246	O	0.774415	0.314249	0.275614
C247	C	0.312343	-0.215476	-0.183640
C248	C	0.812343	0.284524	0.316360
H249	H	0.322163	-0.255127	-0.205752
H250	H	0.822163	0.244873	0.294248
H251	H	0.358593	-0.194177	-0.175232
H252	H	0.858593	0.305823	0.324768
H253	H	0.286946	-0.221161	-0.136987
H254	H	0.786946	0.278839	0.363013
H255	H	0.836630	-0.312254	-0.944637
H256	H	1.336630	0.187746	-0.444637
O257	O	0.830266	-0.317672	-0.538719
O258	O	1.330266	0.182328	-0.038719
C259	C	0.794695	-0.347169	-0.581801
C260	C	1.294695	0.152831	-0.081801
H261	H	0.820475	-0.348960	-0.628685
H262	H	1.320475	0.151040	-0.128685
H263	H	0.787946	-0.388371	-0.562803
H264	H	1.287946	0.111629	-0.062803
H265	H	0.746903	-0.328030	-0.588753
H266	H	1.246903	0.171970	-0.088753
O267	O	0.989013	-0.446471	-0.224275
O268	O	1.489013	0.053529	0.275725
C269	C	1.024566	-0.482255	-0.188785
C270	C	1.524566	0.017745	0.311215
H271	H	1.026749	-0.521165	-0.214581
H272	H	1.526749	-0.021165	0.285419
H273	H	1.074161	-0.466428	-0.182129
H274	H	1.574161	0.033572	0.317871
H275	H	1.001541	-0.488108	-0.140949
H276	H	1.501541	0.011892	0.359051
H277	H	0.982684	-0.549738	-0.230630
H278	H	1.482684	-0.049738	0.269370
H279	H	1.023023	-0.701834	-0.190444
H280	H	1.523023	-0.201834	0.309556
O281	O	0.545560	-0.185797	-0.224251
O282	O	1.045560	0.314203	0.275749
C283	C	0.507439	-0.215510	-0.183551
C284	C	1.007439	0.284490	0.316449
H285	H	0.527191	-0.256687	-0.179569
H286	H	1.027191	0.243313	0.320431
H287	H	0.506669	-0.196543	-0.135147
H288	H	1.006669	0.303457	0.364853
H289	H	0.457632	-0.217328	-0.203023
H290	H	0.957632	0.282672	0.296977
O291	O	0.830388	-1.056408	-0.382965
O292	O	1.330388	-0.556408	0.117035
C293	C	0.794815	-1.020621	-0.418431
C294	C	1.294815	-0.520621	0.081569
H295	H	0.820584	-0.981671	-0.420633
H296	H	1.320584	-0.481671	0.079367
H297	H	0.788080	-1.036382	-0.468024
H298	H	1.288080	-0.536382	0.031976
H299	H	0.747015	-1.014875	-0.395317
H300	H	1.247015	-0.514875	0.104683
O301	O	0.675159	-0.185794	-0.224188
O302	O	1.175159	0.314206	0.275812
C303	C	0.658995	-0.197133	-0.161430
C304	C	1.158995	0.302867	0.338570
H305	H	0.640858	-0.238893	-0.158168
H306	H	1.140858	0.261107	0.341832
H307	H	0.702200	-0.192600	-0.130324
H308	H	1.202200	0.307400	0.369676
H309	H	0.620858	-0.169073	-0.145051
H310	H	1.120858	0.330927	0.354949
O311	O	0.274245	-0.317726	-0.382918
O312	O	0.774245	0.182274	0.117082
C313	C	0.231134	-0.347282	-0.418393
C314	C	0.731134	0.152718	0.081607
H315	H	0.184303	-0.325861	-0.420635
H316	H	0.684303	0.174139	0.079365
H317	H	0.250177	-0.352920	-0.467972
H318	H	0.750177	0.147080	0.032028
H319	H	0.224060	-0.386963	-0.395261
H320	H	0.724060	0.113037	0.104739
O321	O	0.989240	-0.948817	-0.224343
O322	O	1.489240	-0.448817	0.275657
C323	C	1.024787	-0.984604	-0.188849
C324	C	1.524787	-0.484604	0.311151
H325	H	1.026965	-1.023514	-0.214643
H326	H	1.526965	-0.523514	0.285357
H327	H	1.074383	-0.968782	-0.182192
H328	H	1.574383	-0.468782	0.317808
H329	H	1.001758	-0.990453	-0.141014
H330	H	1.501758	-0.490453	0.358986
H331	H	0.982893	-1.052099	-0.230698
H332	H	1.482893	-0.552099	0.269302
O333	O	0.830335	-0.948797	-0.382811
O334	O	1.330335	-0.448797	0.117189
C335	C	0.789669	-0.917279	-0.346918
C336	C	1.289669	-0.417279	0.153082
H337	H	0.811892	-0.909086	-0.299242
H338	H	1.311892	-0.409086	0.200758
H339	H	0.781198	-0.878885	-0.372548
H340	H	1.281198	-0.378885	0.127452
H341	H	0.743035	-0.938379	-0.339940
H342	H	1.243035	-0.438379	0.160060
H343	H	0.796364	-0.801036	-0.416781
H344	H	1.296364	-0.301036	0.083219
O345	O	0.789944	-0.697778	-0.423110
O346	O	1.289944	-0.197778	0.076890
C347	C	0.754427	-0.733613	-0.458615
C348	C	1.254427	-0.233613	0.041385
H349	H	0.752275	-0.772547	-0.432831
H350	H	1.252275	-0.272547	0.067169
H351	H	0.704820	-0.717889	-0.465274
H352	H	1.204820	-0.217889	0.034726
H353	H	0.777465	-0.739379	-0.506450
H354	H	1.277465	-0.239379	-0.006450
O355	O	0.830174	-0.554072	-0.382905
O356	O	1.330174	-0.054072	0.117095
C357	C	0.794597	-0.518289	-0.418373
C358	C	1.294597	-0.018289	0.081627
H359	H	0.820358	-0.479335	-0.420571
H360	H	1.320358	0.020665	0.079429
H361	H	0.787869	-0.534049	-0.467967
H362	H	1.287869	-0.034049	0.032033
H363	H	0.746794	-0.512549	-0.395262
H364	H	1.246794	-0.012549	0.104738
O365	O	0.830240	-0.446479	-0.382897
O366	O	1.330240	0.053521	0.117103
C367	C	0.866058	-0.414831	-0.423575
C368	C	1.366058	0.085169	0.076425
H369	H	0.915639	-0.431239	-0.427523
H370	H	1.415639	0.068761	0.072477
H371	H	0.843274	-0.414210	-0.471994
H372	H	1.343274	0.085790	0.028006
H373	H	0.868225	-0.373456	-0.404103
H374	H	1.368225	0.126544	0.095897
