data_functionalizedCrystal
_audit_creation_method	'MofGen! by Chris Wilmer'
_symmetry_space_group_name_H-M	'P1'
_symmetry_Int_Tables_number	1
_symmetry_cell_setting	triclinic
loop_
_symmetry_equiv_pos_as_xyz
  x,y,z
_cell_length_a	25.993268
_cell_length_b	25.993682
_cell_length_c	25.993511
_cell_angle_alpha	59.999386
_cell_angle_beta	90.000751
_cell_angle_gamma	60.000183
loop_
_atom_site_label
_atom_site_type_symbol
_atom_site_fract_x
_atom_site_fract_y
_atom_site_fract_z
O1	O	-0.438466	-0.368237	0.015285
O2	O	-0.363660	-0.262886	-0.015247
O3	O	-0.363652	-0.368233	0.090098
O4	O	-0.438474	-0.262890	-0.090060
O5	O	-0.278085	-0.453795	0.090097
O6	O	-0.278093	-0.348448	-0.015248
O7	O	-0.352899	-0.453799	0.015284
Zn8	Zn	-0.301910	-0.414708	0.000018
Zn9	Zn	-0.414649	-0.301977	0.000019
O10	O	-0.352906	-0.348452	-0.090061
C11	C	-0.277297	-0.255157	-0.022190
C12	C	-0.309049	-0.291265	-0.017825
C13	C	-0.308398	-0.192809	-0.022624
C14	C	-0.184131	-0.255167	-0.022185
C15	C	-0.116269	-0.291287	-0.017814
C16	C	-0.215373	-0.192819	-0.022618
C17	C	-0.277288	-0.162004	-0.022185
C18	C	-0.309030	-0.098514	-0.017815
C19	C	-0.215382	-0.285830	-0.022623
C20	C	-0.621924	-0.565896	0.037060
C21	C	-0.590676	-0.628246	0.037496
C22	C	-0.528766	-0.565891	0.037058
C23	C	-0.497660	-0.628240	0.037493
C24	C	-0.528762	-0.659053	0.037060
C25	C	-0.590681	-0.535225	0.037494
C26	C	-0.722614	-0.464970	0.029501
C27	C	-0.786237	-0.430675	0.024731
C28	C	-0.818145	-0.460118	0.022338
C29	C	-0.887130	-0.422934	0.017163
C30	C	-0.786434	-0.523860	0.024722
C31	C	-0.722814	-0.558155	0.029495
C32	C	-0.690907	-0.528707	0.031882
C33	C	-0.529000	-0.752183	0.029502
C34	C	-0.499673	-0.811034	0.024731
C35	C	-0.438324	-0.840547	0.022336
C36	C	-0.406524	-0.904355	0.017160
C37	C	-0.406292	-0.811219	0.024718
C38	C	-0.435616	-0.752373	0.029491
C39	C	-0.496970	-0.722855	0.031881
C40	C	-0.529013	-0.464958	0.029496
C41	C	-0.499693	-0.430652	0.024714
C42	C	-0.438345	-0.460088	0.022319
C43	C	-0.406549	-0.422899	0.017141
C44	C	-0.406311	-0.523825	0.024700
C45	C	-0.435628	-0.558132	0.029479
C46	C	-0.496979	-0.528695	0.031876
C47	C	-0.528788	-0.150816	-0.471176
C48	C	-0.590705	-0.088468	-0.502282
C49	C	-0.528789	-0.150815	-0.378017
C50	C	-0.590706	-0.088467	-0.409263
C51	C	-0.621952	-0.057658	-0.471178
C52	C	-0.497683	-0.181484	-0.409262
C53	C	-0.435414	-0.251744	-0.470932
C54	C	-0.405886	-0.286041	-0.500256
C55	C	-0.437720	-0.256603	-0.561605
C56	C	-0.405708	-0.293790	-0.593402
C57	C	-0.499082	-0.192862	-0.593641
C58	C	-0.528607	-0.158565	-0.564320
C59	C	-0.496773	-0.188008	-0.502965
C60	C	-0.722642	0.035466	-0.564549
C61	C	-0.786267	0.094316	-0.594077
C62	C	-0.818177	0.123830	-0.562244
C63	C	-0.887164	0.187636	-0.594255
C64	C	-0.786469	0.094507	-0.500884
C65	C	-0.722847	0.035663	-0.471360
C66	C	-0.690936	0.006142	-0.503192
C67	C	-0.435416	-0.251742	-0.277328
C68	C	-0.405891	-0.286045	-0.213702
C69	C	-0.437726	-0.256606	-0.181793
C70	C	-0.405715	-0.293792	-0.112808
C71	C	-0.499085	-0.192870	-0.213500
C72	C	-0.528612	-0.158568	-0.277123
C73	C	-0.496775	-0.188007	-0.309034
O74	O	0.090116	-0.453829	0.015297
O75	O	-0.090043	-0.348472	-0.015236
O76	O	0.015300	-0.453824	0.090109
O77	O	-0.015227	-0.348477	-0.090048
O78	O	0.015308	-0.368267	0.090114
O79	O	-0.090035	-0.262915	-0.015232
O80	O	0.090124	-0.368271	0.015302
Zn81	Zn	0.000046	-0.302009	0.000036
Zn82	Zn	0.000035	-0.414735	0.000030
O83	O	-0.015218	-0.262919	-0.090044
O84	O	-0.352873	0.074754	0.015299
O85	O	-0.278069	-0.074869	-0.015233
O86	O	-0.278065	-0.074875	0.090112
O87	O	-0.352877	0.074761	-0.090046
O88	O	-0.363635	-0.074866	0.090107
O89	O	-0.363639	-0.074859	-0.015238
O90	O	-0.438444	0.074764	0.015294
Zn91	Zn	-0.414628	-0.000046	0.000027
Zn92	Zn	-0.301885	-0.000059	0.000034
O93	O	-0.438448	0.074770	-0.090051
O94	O	-1.090077	0.358146	-0.636314
O95	O	-0.909916	0.208523	-0.561495
O96	O	-1.015255	0.208516	-0.561495
O97	O	-0.984737	0.358153	-0.636315
O98	O	-1.015253	0.208514	-0.647059
O99	O	-0.909914	0.208521	-0.647059
O100	O	-1.090075	0.358144	-0.721878
Zn101	Zn	-0.999994	0.283332	-0.698054
Zn102	Zn	-0.999997	0.283335	-0.585319
O103	O	-0.984735	0.358151	-0.721879
O104	O	-0.363652	-0.368233	-0.721863
O105	O	-0.438470	-0.262893	-0.647050
O106	O	-0.438464	-0.368239	-0.647047
O107	O	-0.363658	-0.262888	-0.721866
O108	O	-0.352896	-0.453802	-0.561481
O109	O	-0.352902	-0.348456	-0.561484
O110	O	-0.278084	-0.453796	-0.636297
Zn111	Zn	-0.301907	-0.414711	-0.585305
Zn112	Zn	-0.414647	-0.301978	-0.698042
O113	O	-0.278090	-0.348451	-0.636300
C114	C	-0.184132	-0.554690	0.277350
C115	C	-0.116268	-0.618181	0.309097
C116	C	-0.215378	-0.523881	0.308454
C117	C	-0.277295	-0.461533	0.184189
C118	C	-0.309043	-0.425418	0.116327
C119	C	-0.308400	-0.430865	0.215434
C120	C	-0.277295	-0.461533	0.277349
C121	C	-0.309042	-0.425419	0.309095
C122	C	-0.215378	-0.523881	0.215435
C123	C	0.022255	-0.461570	0.277365
C124	C	0.017891	-0.425459	0.309113
C125	C	0.022686	-0.523917	0.308468
C126	C	0.022251	-0.461566	0.184203
C127	C	0.017883	-0.425450	0.116341
C128	C	0.022682	-0.523912	0.215447
C129	C	0.022246	-0.554723	0.277361
C130	C	0.017872	-0.618212	0.309106
C131	C	0.022691	-0.430901	0.215450
C132	C	-0.277278	-0.255190	0.277353
C133	C	-0.309027	-0.291303	0.309094
C134	C	-0.215360	-0.285868	0.308459
C135	C	-0.277276	-0.162025	0.184198
C136	C	-0.309024	-0.098524	0.116339
C137	C	-0.215358	-0.192844	0.215446
C138	C	-0.184112	-0.255200	0.277358
C139	C	-0.116247	-0.291324	0.309106
C140	C	-0.308383	-0.192833	0.215440
C141	C	-0.036981	-0.057679	-0.471161
C142	C	-0.037421	-0.088487	-0.502267
C143	C	-0.036987	-0.150836	-0.378002
C144	C	-0.037426	-0.181502	-0.409249
C145	C	-0.036991	-0.150833	-0.471164
C146	C	-0.037417	-0.088490	-0.409246
C147	C	-0.029412	0.035441	-0.470916
C148	C	-0.024636	0.094288	-0.500240
C149	C	-0.022241	0.123804	-0.561589
C150	C	-0.017059	0.187608	-0.593385
C151	C	-0.024629	0.094482	-0.593625
C152	C	-0.029408	0.035640	-0.564304
C153	C	-0.031797	0.006119	-0.502949
C154	C	-0.029435	-0.158148	-0.564535
C155	C	-0.024668	-0.192241	-0.594062
C156	C	-0.022279	-0.255981	-0.562230
C157	C	-0.017107	-0.292952	-0.594241
C158	C	-0.024662	-0.285632	-0.500870
C159	C	-0.029432	-0.251539	-0.471346
C160	C	-0.031816	-0.187799	-0.503178
C161	C	-0.029423	-0.158158	-0.277313
C162	C	-0.024643	-0.192260	-0.213687
C163	C	-0.022254	-0.256000	-0.181778
C164	C	-0.017078	-0.292975	-0.112793
C165	C	-0.024639	-0.285648	-0.213485
C166	C	-0.029416	-0.251551	-0.277109
C167	C	-0.031807	-0.187806	-0.309020
O168	O	-0.015224	-0.348492	0.438531
O169	O	0.015311	-0.453837	0.363721
O170	O	-0.090035	-0.348490	0.363711
O171	O	0.090123	-0.453838	0.438541
O172	O	-0.090030	-0.262928	0.278147
O173	O	0.015317	-0.368275	0.278157
O174	O	-0.015218	-0.262930	0.352967
Zn175	Zn	0.000050	-0.302018	0.301977
Zn176	Zn	0.000043	-0.414749	0.414711
O177	O	0.090128	-0.368276	0.352977
C178	C	-0.621928	0.434163	-0.471157
C179	C	-0.590681	0.464832	-0.502257
C180	C	-0.528764	0.340989	-0.377996
C181	C	-0.497658	0.371799	-0.409238
C182	C	-0.528764	0.434156	-0.471150
C183	C	-0.590682	0.371807	-0.409244
C184	C	-0.722620	0.441488	-0.470920
C185	C	-0.786245	0.475591	-0.500247
C186	C	-0.818156	0.539341	-0.561593
C187	C	-0.887143	0.576322	-0.593393
C188	C	-0.786446	0.568992	-0.593624
C189	C	-0.722823	0.534889	-0.564300
C190	C	-0.690913	0.471140	-0.502948
C191	C	-0.529004	0.535091	-0.564513
C192	C	-0.499677	0.569387	-0.594034
C193	C	-0.438325	0.539940	-0.562199
C194	C	-0.406525	0.577126	-0.594203
C195	C	-0.406290	0.476191	-0.500841
C196	C	-0.435614	0.441894	-0.471322
C197	C	-0.496972	0.471347	-0.503158
C198	C	-0.529006	0.247853	-0.277315
C199	C	-0.499682	0.189000	-0.213690
C200	C	-0.438330	0.159476	-0.181778
C201	C	-0.406531	0.095660	-0.112795
C202	C	-0.406297	0.188801	-0.213480
C203	C	-0.435618	0.247655	-0.277101
C204	C	-0.496973	0.277178	-0.309016
H205	H	-0.615763	-0.654031	0.038197
O206	O	-0.185543	-0.161945	-0.023501
C207	C	-0.219235	-0.089931	-0.078052
H208	H	-0.270362	-0.068986	-0.095689
H209	H	-0.217430	-0.053894	-0.066387
H210	H	-0.197157	-0.088681	-0.116192
O211	O	-0.185422	-0.345624	-0.023546
C212	C	-0.167990	-0.329351	-0.078116
H213	H	-0.164650	-0.281560	-0.095714
H214	H	-0.120308	-0.378856	-0.066490
H215	H	-0.204916	-0.314478	-0.116268
H216	H	-0.446789	-0.654019	0.038189
H217	H	-0.038122	-0.062697	-0.553139
O218	O	0.023616	-0.371108	0.185488
C219	C	0.078187	-0.387385	0.168058
H220	H	0.095785	-0.435177	0.164721
H221	H	0.066563	-0.337881	0.120375
H222	H	0.116339	-0.402257	0.204983
H223	H	-0.031376	-0.275680	-0.421388
H224	H	-0.359271	-0.380688	0.190342
O225	O	-0.588571	0.563574	-0.595408
C226	C	-0.588439	0.512304	-0.601036
H227	H	-0.545662	0.455298	-0.562792
H228	H	-0.633297	0.515610	-0.595523
H229	H	-0.586252	0.524544	-0.649342
O230	O	-0.031633	0.006664	-0.411280
C231	C	0.019730	-0.067176	-0.371631
H232	H	0.059008	-0.077201	-0.393057
H233	H	0.037840	-0.081285	-0.323325
H234	H	0.003875	-0.102752	-0.366450
H235	H	-0.190278	-0.336040	0.359331
H236	H	-0.031342	0.011760	-0.590385
H237	H	-0.696637	-0.440991	0.031449
H238	H	-0.359272	-0.167017	-0.023332
O239	O	-0.817399	0.630856	-0.653259
C240	C	-0.787580	0.616722	-0.694407
H241	H	-0.760010	0.556100	-0.672946
H242	H	-0.824662	0.648849	-0.741546
H243	H	-0.753958	0.633789	-0.702002
O244	O	-0.530864	0.631381	-0.653590
C245	C	-0.586328	0.685569	-0.654817
H246	H	-0.580967	0.672792	-0.605525
H247	H	-0.594894	0.740747	-0.688678
H248	H	-0.627973	0.686988	-0.671240
H249	H	-0.615772	-0.485050	0.038190
H250	H	-0.190290	-0.549670	0.359326
O251	O	-0.691966	-0.620020	0.031731
C252	C	-0.669527	-0.608403	-0.019650
H253	H	-0.664691	-0.561676	-0.036977
H254	H	-0.621606	-0.659937	-0.004120
H255	H	-0.704138	-0.594204	-0.059398
O256	O	-0.346731	0.447686	-0.469899
C257	C	-0.346863	0.498969	-0.464292
H258	H	-0.396100	0.538998	-0.467927
H259	H	-0.311911	0.469634	-0.416734
H260	H	-0.332685	0.529742	-0.503680
O261	O	-0.817043	0.446750	-0.469201
C262	C	-0.839510	0.429460	-0.503274
H263	H	-0.810371	0.421754	-0.534837
H264	H	-0.835330	0.377055	-0.468990
H265	H	-0.890996	0.475590	-0.533545
H266	H	0.023388	-0.549699	0.190360
O267	O	-0.692006	0.007065	-0.411732
C268	C	-0.669556	-0.066757	-0.371951
H269	H	-0.664706	-0.088938	-0.401338
H270	H	-0.621640	-0.099134	-0.335944
H271	H	-0.704168	-0.071894	-0.346403
H272	H	-0.359256	-0.167045	0.190354
O273	O	0.023403	-0.554581	0.369119
C274	C	-0.030576	-0.503724	0.372565
H275	H	-0.068998	-0.461238	0.324381
H276	H	-0.048224	-0.532972	0.408503
H277	H	-0.018155	-0.475837	0.387600
O278	O	-0.038392	-0.241267	-0.379349
C279	C	-0.092945	-0.224994	-0.361887
H280	H	-0.130366	-0.163729	-0.393329
H281	H	-0.111759	-0.253816	-0.367580
H282	H	-0.080824	-0.244278	-0.310633
O283	O	-0.817154	0.122796	-0.653644
C284	C	-0.868280	0.117020	-0.653605
H285	H	-0.882677	0.112654	-0.610937
H286	H	-0.909752	0.167309	-0.698561
H287	H	-0.853755	0.066430	-0.651285
O288	O	-0.022179	0.123089	-0.653178
C289	C	0.034717	0.117339	-0.653029
H290	H	0.071102	0.071741	-0.603785
H291	H	0.052954	0.104719	-0.687969
H292	H	0.026105	0.170905	-0.667212
H293	H	-0.022690	-0.337555	-0.187499
H294	H	-0.696662	0.011436	-0.590475
H295	H	-0.190271	-0.167060	0.190359
H296	H	-0.022708	-0.168111	-0.187878
H297	H	-0.031374	-0.106252	-0.303293
O298	O	-0.404415	-0.280300	-0.411378
C299	C	-0.348954	-0.282794	-0.410040
H300	H	-0.354207	-0.241025	-0.459328
H301	H	-0.340551	-0.269884	-0.376253
H302	H	-0.307260	-0.339487	-0.393457
H303	H	-0.022730	-0.168091	-0.644022
H304	H	-0.022693	0.118157	-0.474152
H305	H	-0.446809	-0.231652	-0.384178
O306	O	-0.346244	-0.347883	-0.469216
C307	C	-0.306498	-0.336258	-0.503296
H308	H	-0.327938	-0.275553	-0.534850
H309	H	-0.258268	-0.366362	-0.469017
H310	H	-0.301147	-0.357459	-0.533576
O311	O	-0.038364	-0.057633	-0.379379
C312	C	-0.092909	0.014388	-0.413108
H313	H	-0.130345	0.020381	-0.442928
H314	H	-0.111708	0.027508	-0.378588
H315	H	-0.080783	0.053513	-0.445082
H316	H	-0.031379	-0.106246	-0.590459
O317	O	-0.588207	-0.096642	-0.307838
C318	C	-0.609980	-0.078021	-0.266026
H319	H	-0.568002	-0.103611	-0.225948
H320	H	-0.639948	-0.016336	-0.292378
H321	H	-0.639597	-0.099059	-0.245944
H322	H	-0.524998	-0.168895	-0.643600
O323	O	-0.530888	-0.368767	0.022442
C324	C	-0.591327	-0.350138	0.025576
H325	H	-0.591262	-0.400764	0.048770
H326	H	-0.604352	-0.326840	0.054549
H327	H	-0.627240	-0.307748	-0.024054
O328	O	-0.816951	-0.368748	0.022392
C329	C	-0.775143	-0.350119	0.025534
H330	H	-0.735067	-0.375706	0.009143
H331	H	-0.801499	-0.288433	-0.006189
H332	H	-0.755056	-0.371152	0.076186
H333	H	-0.697006	0.559029	-0.590383
H334	H	-0.578967	-0.440988	0.031452
O335	O	-0.588588	-0.723623	0.031852
C336	C	-0.610571	-0.762121	0.028718
H337	H	-0.568706	-0.818643	0.045105
H338	H	-0.640547	-0.767357	0.060446
H339	H	-0.640238	-0.731495	-0.021932
H340	H	-0.446785	0.346006	-0.384147
O341	O	-0.185365	-0.554610	0.185515
C342	C	-0.131096	-0.554862	0.182357
H343	H	-0.115463	-0.551934	0.221227
H344	H	-0.091690	-0.607005	0.188776
H345	H	-0.142250	-0.505855	0.134518
H346	H	-0.022719	-0.337536	-0.474956
O347	O	-0.530722	-0.839627	0.022527
C348	C	-0.496650	-0.913455	0.073892
H349	H	-0.465090	-0.923584	0.113164
H350	H	-0.530934	-0.927397	0.092011
H351	H	-0.466375	-0.949084	0.058038
O352	O	-0.031745	-0.280433	-0.307821
C353	C	-0.028592	-0.344018	-0.266008
H354	H	-0.044988	-0.342114	-0.225935
H355	H	-0.060306	-0.347638	-0.292361
H356	H	0.022064	-0.393717	-0.245919
O357	O	-0.620700	0.341163	-0.379352
C358	C	-0.674982	0.392000	-0.376191
H359	H	-0.690611	0.449439	-0.415033
H360	H	-0.714383	0.385687	-0.382649
H361	H	-0.663849	0.381984	-0.328335
O362	O	-0.404423	0.379997	-0.411711
C363	C	-0.343975	0.361348	-0.389943
H364	H	-0.344029	0.411966	-0.417368
H365	H	-0.330946	0.338040	-0.337669
H366	H	-0.308073	0.318960	-0.397188
O367	O	-0.817477	-0.552445	0.022476
C368	C	-0.839929	-0.569649	0.073854
H369	H	-0.844596	-0.535471	0.091189
H370	H	-0.887933	-0.557554	0.058319
H371	H	-0.805415	-0.629829	0.113599
H372	H	-0.525009	-0.168902	-0.187513
O373	O	-0.530876	0.160578	-0.183001
C374	C	-0.591319	0.199262	-0.224811
H375	H	-0.591258	0.226637	-0.275372
H376	H	-0.604347	0.160019	-0.214543
H377	H	-0.627227	0.242408	-0.218325
O378	O	-0.817513	0.123304	-0.470055
C379	C	-0.839970	0.197136	-0.504235
H380	H	-0.844637	0.219136	-0.555748
H381	H	-0.887974	0.229605	-0.500796
H382	H	-0.805458	0.202371	-0.483801
O383	O	-0.346665	-0.840015	0.022468
C384	C	-0.307008	-0.913847	0.073847
H385	H	-0.336520	-0.935848	0.091184
H386	H	-0.271102	-0.946315	0.058310
H387	H	-0.281336	-0.919081	0.113590
O388	O	-0.620546	-0.057672	-0.563010
C389	C	-0.586826	-0.036808	-0.601284
H390	H	-0.535689	-0.070383	-0.571082
H391	H	-0.588672	-0.046554	-0.639200
H392	H	-0.608850	0.023382	-0.624520
O393	O	-0.404404	0.276035	-0.307811
C394	C	-0.343968	0.237366	-0.265997
H395	H	-0.329481	0.180899	-0.225924
H396	H	-0.308634	0.232000	-0.292348
H397	H	-0.344917	0.267929	-0.245907
O398	O	-0.346729	0.160125	-0.182392
C399	C	-0.346865	0.165878	-0.131250
H400	H	-0.389643	0.170412	-0.117026
H401	H	-0.302008	0.115504	-0.089696
H402	H	-0.349052	0.216370	-0.145670
H403	H	-0.409535	-0.728493	0.031426
H404	H	-0.356355	-0.547792	0.022745
O405	O	-0.404412	-0.620060	0.031815
C406	C	-0.343979	-0.638678	0.028664
H407	H	-0.329494	-0.613084	0.045048
H408	H	-0.308641	-0.700363	0.060386
H409	H	-0.344933	-0.617643	-0.021990
H410	H	-0.578565	-0.106662	-0.590407
H411	H	-0.615790	-0.062685	-0.384176
H412	H	-0.355931	-0.337938	-0.187892
O413	O	-0.404412	-0.280454	-0.308224
C414	C	-0.343919	-0.344056	-0.266599
H415	H	-0.343805	-0.367358	-0.215976
H416	H	-0.331017	-0.385923	-0.277009
H417	H	-0.308021	-0.330316	-0.273151
H418	H	-0.615769	0.515006	-0.553129
H419	H	-0.578963	0.271886	-0.303298
H420	H	-0.696640	0.389578	-0.420966
