data_functionalizedCrystal
_audit_creation_method	'MofGen! by Chris Wilmer'
_symmetry_space_group_name_H-M	'P1'
_symmetry_Int_Tables_number	1
_symmetry_cell_setting	triclinic
loop_
_symmetry_equiv_pos_as_xyz
  x,y,z
_cell_length_a	19.805407
_cell_length_b	16.120444
_cell_length_c	19.805398
_cell_angle_alpha	92.870435
_cell_angle_beta	89.986879
_cell_angle_gamma	92.926644
loop_
_atom_site_label
_atom_site_type_symbol
_atom_site_fract_x
_atom_site_fract_y
_atom_site_fract_z
Zn1	Zn	1.021026	-0.331920	-0.396380
Zn2	Zn	1.521026	0.168080	0.103620
Zn3	Zn	1.015213	-0.471341	-0.288930
Zn4	Zn	1.515213	0.028659	0.211070
Zn5	Zn	0.907852	-0.331946	-0.283206
Zn6	Zn	1.407852	0.168054	0.216794
Zn7	Zn	0.902066	-0.471295	-0.402075
Zn8	Zn	1.402066	0.028705	0.097925
O9	O	0.961539	-0.401625	-0.342648
O10	O	1.461539	0.098375	0.157352
O11	O	1.114971	-0.350424	-0.382139
O12	O	1.614971	0.149576	0.117861
O13	O	1.000961	-0.452881	-0.193455
O14	O	1.500961	0.047119	0.306545
O15	O	0.927720	-0.215276	-0.293440
O16	O	1.427720	0.284724	0.206560
O17	O	1.110700	-0.452856	-0.303196
O18	O	1.610700	0.047144	0.196804
O19	O	1.010868	-0.215257	-0.376589
O20	O	1.510868	0.284743	0.123411
O21	O	0.922083	-0.350467	-0.189250
O22	O	1.422083	0.149533	0.310750
O23	O	0.812369	-0.350422	-0.298962
O24	O	1.312369	0.149578	0.201038
O25	O	0.917857	-0.452776	-0.496035
O26	O	1.417857	0.047224	0.003965
O27	O	0.808117	-0.452801	-0.386294
O28	O	1.308117	0.047199	0.113706
O29	O	1.005257	-0.350378	-0.491851
O30	O	1.505257	0.149622	0.008149
O31	O	0.995349	-0.588002	-0.308718
O32	O	1.495349	-0.088002	0.191282
O33	O	0.912220	-0.587967	-0.391845
O34	O	1.412220	-0.087967	0.108155
C35	C	0.785684	-0.401610	-0.342625
C36	C	1.285684	0.098390	0.157375
C37	C	0.710451	-0.401623	-0.342632
C38	C	1.210451	0.098377	0.157368
C39	C	0.952544	-0.618235	-0.351535
C40	C	1.452544	-0.118235	0.148465
C41	C	0.948758	-0.710901	-0.355360
C42	C	1.448758	-0.210901	0.144640
C43	C	0.672908	-0.455012	-0.388040
C44	C	1.172908	0.044988	0.111960
C45	C	0.602219	-0.455013	-0.388049
C46	C	1.102219	0.044987	0.111951
C47	C	0.569076	-0.401629	-0.342648
C48	C	1.069076	0.098371	0.157352
C49	C	0.606624	-0.348234	-0.297238
C50	C	1.106624	0.151766	0.202762
C51	C	0.677312	-0.348229	-0.297233
C52	C	1.177312	0.151771	0.202767
C53	C	0.321550	-0.348253	-0.297262
C54	C	0.821550	0.151747	0.202738
C55	C	0.250858	-0.348264	-0.297270
C56	C	0.750858	0.151736	0.202730
C57	C	0.246458	-0.455037	-0.388078
C58	C	0.746458	0.044963	0.111922
C59	C	0.317145	-0.455032	-0.388072
C60	C	0.817145	0.044968	0.111928
C61	C	0.354688	-0.401634	-0.342666
C62	C	0.854688	0.098366	0.157334
C63	C	0.431337	-0.401632	-0.342657
C64	C	0.931337	0.098368	0.157343
C65	C	0.492428	-0.401635	-0.342653
C66	C	0.992428	0.098365	0.157347
C67	C	0.981346	-0.921841	-0.322953
C68	C	1.481346	-0.421841	0.177047
C69	C	0.941858	-0.880558	-0.362350
C70	C	1.441858	-0.380558	0.137650
C71	C	0.945699	-0.786152	-0.358459
C72	C	1.445699	-0.286152	0.141541
C73	C	0.977506	-1.016256	-0.326842
C74	C	1.477506	-0.516256	0.173158
C75	C	1.138081	-0.401642	-0.342671
C76	C	1.638081	0.098358	0.157329
C77	C	1.213313	-0.401649	-0.342681
C78	C	1.713313	0.098351	0.157319
C79	C	0.961560	-0.401569	-0.519188
C80	C	1.461560	0.098431	-0.019188
C81	C	0.961568	-0.401545	-0.594419
C82	C	1.461568	0.098455	-0.094419
C83	C	0.970588	-0.184170	-0.333740
C84	C	1.470588	0.315830	0.166260
C85	C	0.974444	-0.091504	-0.329945
C86	C	1.474444	0.408496	0.170055
C87	C	1.002752	-0.454739	-1.058392
C88	C	1.502752	0.045261	-0.558392
C89	C	1.002732	-0.454762	-0.987705
C90	C	1.502732	0.045238	-0.487705
C91	C	0.961656	-0.401451	-0.950177
C92	C	1.461656	0.098549	-0.450177
C93	C	0.920592	-0.348120	-0.983341
C94	C	1.420592	0.151880	-0.483341
C95	C	0.920609	-0.348102	-1.054027
C96	C	1.420609	0.151898	-0.554027
C97	C	0.920524	-0.348191	-0.698271
C98	C	1.420524	0.151809	-0.198271
C99	C	0.920512	-0.348212	-0.627579
C100	C	1.420512	0.151788	-0.127579
C101	C	1.002648	-0.454851	-0.631948
C102	C	1.502648	0.045149	-0.131948
C103	C	1.002664	-0.454833	-0.702634
C104	C	1.502664	0.045167	-0.202634
C105	C	0.961598	-0.401506	-0.735792
C106	C	1.461598	0.098494	-0.235792
C107	C	0.961618	-0.401483	-0.812440
C108	C	1.461618	0.098517	-0.312440
C109	C	0.961639	-0.401469	-0.873531
C110	C	1.461639	0.098531	-0.373531
C111	C	0.961560	-0.401621	-0.166792
C112	C	1.461560	0.098379	0.333208
C113	C	0.961693	-0.401411	-0.091551
C114	C	1.461693	0.098589	0.408449
H115	H	0.699888	-0.498486	-0.425009
H116	H	1.199888	0.001514	0.074991
O117	O	1.025205	-0.879468	-0.279298
O118	O	1.525205	-0.379468	0.220702
C119	C	1.141426	-0.852542	-0.245414
C120	C	1.641426	-0.352542	0.254586
C121	C	1.091836	-0.900578	-0.294910
C122	C	1.591836	-0.400578	0.205090
H123	H	1.195306	-0.869605	-0.258010
H124	H	1.695306	-0.369605	0.241990
H125	H	1.136819	-0.782847	-0.250029
H126	H	1.636819	-0.282847	0.249971
H127	H	1.128853	-0.869655	-0.191524
H128	H	1.628853	-0.369655	0.308476
H129	H	1.104377	-0.883535	-0.348822
H130	H	1.604377	-0.383535	0.151178
H131	H	1.096452	-0.970260	-0.290236
H132	H	1.596452	-0.470260	0.209764
H133	H	1.036084	-0.498276	-0.604943
H134	H	1.536084	0.001724	-0.104943
H135	H	1.036204	-0.498147	-1.088942
H136	H	1.536204	0.001853	-0.588942
O137	O	0.880541	-0.296401	-0.591227
O138	O	1.380541	0.203599	-0.091227
C139	C	0.799092	-0.190599	-0.594348
C140	C	1.299092	0.309401	-0.094348
C141	C	0.844310	-0.249241	-0.635599
C142	C	1.344310	0.250759	-0.135599
H143	H	0.769798	-0.152443	-0.630205
H144	H	1.269798	0.347557	-0.130205
H145	H	0.762063	-0.228848	-0.562836
H146	H	1.262063	0.271152	-0.062836
H147	H	0.831981	-0.147050	-0.559455
H148	H	1.331981	0.352950	-0.059455
H149	H	0.811476	-0.292802	-0.670530
H150	H	1.311476	0.207198	-0.170530
H151	H	0.881344	-0.210941	-0.667067
H152	H	1.381344	0.289059	-0.167067
O153	O	1.042647	-0.506497	-0.739110
O154	O	1.542647	-0.006497	-0.239110
C155	C	1.133561	-0.517696	-0.819401
C156	C	1.633561	-0.017696	-0.319401
C157	C	1.088335	-0.459090	-0.778122
C158	C	1.588335	0.040910	-0.278122
H159	H	1.170501	-0.479391	-0.850964
H160	H	1.670501	0.020609	-0.350964
H161	H	1.162954	-0.555799	-0.783585
H162	H	1.662954	-0.055799	-0.283585
H163	H	1.100669	-0.561297	-0.854251
H164	H	1.600669	-0.061297	-0.354251
H165	H	1.121177	-0.415438	-0.743270
H166	H	1.621177	0.084562	-0.243270
H167	H	1.058938	-0.421045	-0.813977
H168	H	1.558938	0.078955	-0.313977
H169	H	0.344127	-0.498505	-0.425041
H170	H	0.844127	0.001495	0.074959
O171	O	0.713751	-0.296461	-0.253028
O172	O	1.213751	0.203539	0.246972
C173	C	0.737005	-0.255777	-0.136279
C174	C	1.237005	0.244223	0.363721
C175	C	0.695706	-0.314472	-0.186265
C176	C	1.195706	0.185528	0.313735
H177	H	0.722421	-0.270306	-0.082291
H178	H	1.222421	0.229694	0.417709
H179	H	0.793228	-0.264947	-0.144016
H180	H	1.293228	0.235053	0.355984
H181	H	0.725909	-0.188576	-0.145532
H182	H	1.225909	0.311424	0.354468
H183	H	0.706744	-0.381696	-0.177043
H184	H	1.206744	0.118304	0.322957
H185	H	0.639496	-0.305230	-0.178516
H186	H	1.139496	0.194770	0.321484
O187	O	1.042687	-0.506585	-0.955600
O188	O	1.542687	-0.006585	-0.455600
C189	C	1.124143	-0.612376	-0.967394
C190	C	1.624143	-0.112376	-0.467394
C191	C	1.078936	-0.553716	-1.003837
C192	C	1.578936	-0.053716	-0.503837
H193	H	1.153452	-0.650509	-1.006377
H194	H	1.653452	-0.150509	-0.506377
H195	H	1.161159	-0.574143	-0.932755
H196	H	1.661159	-0.074143	-0.432755
H197	H	1.091245	-0.655946	-0.936063
H198	H	1.591245	-0.155946	-0.436063
H199	H	1.111781	-0.510134	-1.035204
H200	H	1.611781	-0.010134	-0.535204
H201	H	1.041916	-0.592000	-1.038434
H202	H	1.541916	-0.092000	-0.538434
O203	O	0.210015	-0.507020	-0.432129
O204	O	0.710015	-0.007020	0.067871
C205	C	0.182547	-0.648885	-0.470652
C206	C	0.682547	-0.148885	0.029348
C207	C	0.223840	-0.590112	-0.420718
C208	C	0.723840	-0.090112	0.079282
H209	H	0.193720	-0.716076	-0.461454
H210	H	0.693720	-0.216076	0.038546
H211	H	0.126319	-0.639793	-0.462866
H212	H	0.626319	-0.139793	0.037134
H213	H	0.197067	-0.634285	-0.524642
H214	H	0.697067	-0.134285	-0.024642
H215	H	0.209378	-0.604675	-0.366708
H216	H	0.709378	-0.104675	0.133292
H217	H	0.280057	-0.599215	-0.428563
H218	H	0.780057	-0.099215	0.071437
H219	H	0.887084	-0.304770	-0.725259
H220	H	1.387084	0.195230	-0.225259
H221	H	0.887144	-0.304717	-0.952781
H222	H	1.387144	0.195283	-0.452781
H223	H	0.887174	-0.304676	-1.081024
H224	H	1.387174	0.195324	-0.581024
H225	H	0.571654	-0.498489	-0.425024
H226	H	1.071654	0.001511	0.074976
H227	H	0.223874	-0.304787	-0.260298
H228	H	0.723874	0.195213	0.239702
O229	O	0.897992	-0.922882	-0.406034
O230	O	1.397992	-0.422882	0.093966
C231	C	0.781753	-0.949873	-0.439830
C232	C	1.281753	-0.449873	0.060170
C233	C	0.831357	-0.901871	-0.390329
C234	C	1.331357	-0.401871	0.109671
H235	H	0.727867	-0.932916	-0.427142
H236	H	1.227867	-0.432916	0.072858
H237	H	0.794221	-0.932740	-0.493740
H238	H	1.294221	-0.432740	0.006260
H239	H	0.786450	-1.019553	-0.435227
H240	H	1.286450	-0.519553	0.064773
H241	H	0.826688	-0.832179	-0.394872
H242	H	1.326688	-0.332179	0.105128
H243	H	0.818875	-0.919073	-0.336440
H244	H	1.318875	-0.419073	0.163560
H245	H	0.579633	-0.304764	-0.260275
H246	H	1.079633	0.195236	0.239725
O247	O	0.357910	-0.296357	-0.253091
O248	O	0.857910	0.203643	0.246909
C249	C	0.354809	-0.190406	-0.163052
C250	C	0.854809	0.309594	0.336948
C251	C	0.313546	-0.249154	-0.213029
C252	C	0.813546	0.250846	0.286971
H253	H	0.318959	-0.152215	-0.130659
H254	H	0.818959	0.347785	0.369341
H255	H	0.386294	-0.228574	-0.129125
H256	H	0.886294	0.271426	0.370875
H257	H	0.389732	-0.146895	-0.192413
H258	H	0.889732	0.353105	0.307587
H259	H	0.278586	-0.292677	-0.183724
H260	H	0.778586	0.207323	0.316276
H261	H	0.282106	-0.210935	-0.246956
H262	H	0.782106	0.289065	0.253044
