data_functionalizedCrystal
_audit_creation_method	'MofGen! by Chris Wilmer'
_symmetry_space_group_name_H-M	'P1'
_symmetry_Int_Tables_number	1
_symmetry_cell_setting	triclinic
loop_
_symmetry_equiv_pos_as_xyz
  x,y,z
_cell_length_a	16.109301
_cell_length_b	17.699083
_cell_length_c	14.586319
_cell_angle_alpha	89.995320
_cell_angle_beta	89.999213
_cell_angle_gamma	83.372248
loop_
_atom_site_label
_atom_site_type_symbol
_atom_site_fract_x
_atom_site_fract_y
_atom_site_fract_z
O1	O	1.102963	0.097285	-0.076184
O2	O	1.602963	0.597285	0.423816
O3	O	0.860880	0.109391	-0.076199
O4	O	1.360880	0.609391	0.423801
O5	O	0.988761	-0.006841	-0.076183
O6	O	1.488761	0.493159	0.423817
O7	O	0.975082	0.213517	-0.076200
O8	O	1.475082	0.713517	0.423800
O9	O	0.988752	-0.006843	0.076298
O10	O	1.488752	0.493157	0.576298
O11	O	0.860872	0.109390	0.076282
O12	O	1.360872	0.609390	0.576282
O13	O	1.102954	0.097283	0.076297
O14	O	1.602954	0.597283	0.576297
Cu15	Cu	0.981912	0.103336	0.090212
Cu16	Cu	1.481912	0.603336	0.590212
Cu17	Cu	0.981923	0.103338	-0.090114
Cu18	Cu	1.481923	0.603338	0.409886
O19	O	0.975074	0.213516	0.076281
O20	O	1.475074	0.713516	0.576281
C21	C	0.829902	0.108900	0.000040
C22	C	1.329902	0.608900	0.500040
C23	C	0.737609	0.107430	0.000034
C24	C	1.237609	0.607430	0.500034
C25	C	0.515224	0.172981	0.000040
C26	C	1.015224	0.672981	0.500040
C27	C	0.428506	0.171594	0.000046
C28	C	0.928506	0.671594	0.500046
C29	C	0.448618	0.033688	0.000053
C30	C	0.948618	0.533688	0.500053
C31	C	0.535334	0.035076	0.000053
C32	C	1.035334	0.535076	0.500053
C33	C	0.568635	0.104725	0.000042
C34	C	1.068635	0.604725	0.500042
C35	C	0.395200	0.101949	0.000047
C36	C	0.895200	0.601949	0.500047
C37	C	0.301177	0.100445	0.000054
C38	C	0.801177	0.600445	0.500054
C39	C	0.662664	0.106230	0.000037
C40	C	1.162664	0.606230	0.500037
C41	C	0.988267	-0.035040	0.000057
C42	C	1.488267	0.464960	0.500057
C43	C	0.986796	-0.119060	0.000058
C44	C	1.486796	0.380940	0.500058
C45	C	1.061860	-0.167574	0.000064
C46	C	1.561860	0.332426	0.500064
C47	C	1.060473	-0.246519	0.000055
C48	C	1.560473	0.253481	0.500055
C49	C	0.984022	-0.276949	0.000048
C50	C	1.484022	0.223051	0.500048
C51	C	0.908953	-0.228429	0.000039
C52	C	1.408953	0.271571	0.500039
C53	C	0.910341	-0.149485	0.000041
C54	C	1.410341	0.350515	0.500041
C55	C	0.903356	-0.546800	0.000031
C56	C	1.403356	-0.046800	0.500031
C57	C	0.901974	-0.625750	0.000033
C58	C	1.401974	-0.125750	0.500033
C59	C	1.053488	-0.643834	0.000046
C60	C	1.553488	-0.143834	0.500046
C61	C	1.054876	-0.564890	0.000048
C62	C	1.554876	-0.064890	0.500048
C63	C	0.979807	-0.516377	0.000034
C64	C	1.479807	-0.016377	0.500034
C65	C	0.981312	-0.430776	0.000041
C66	C	1.481312	0.069224	0.500041
C67	C	0.982517	-0.362549	0.000047
C68	C	1.482517	0.137451	0.500047
C69	C	1.133933	0.097774	0.000056
C70	C	1.633933	0.597774	0.500056
C71	C	1.226226	0.099244	0.000055
C72	C	1.726226	0.599244	0.500055
C73	C	0.975568	0.241714	0.000038
C74	C	1.475568	0.741714	0.500038
C75	C	0.977039	0.325734	0.000032
C76	C	1.477039	0.825734	0.500032
N77	N	0.981911	0.103334	0.217044
N78	N	1.481911	0.603334	0.717044
N79	N	0.981931	0.103334	-0.216946
N80	N	1.481931	0.603334	0.283054
C81	C	1.038555	0.051884	0.452057
C82	C	1.538555	0.551884	0.952057
C83	C	1.038558	0.051882	0.548038
C84	C	1.538558	0.551882	1.048038
C85	C	0.925280	0.154787	0.548034
C86	C	1.425280	0.654787	1.048034
C87	C	0.925274	0.154785	0.452054
C88	C	1.425274	0.654785	0.952054
C89	C	0.981917	0.103334	0.404068
C90	C	1.481917	0.603334	0.904068
C91	C	0.981925	0.103334	0.596029
C92	C	1.481925	0.603334	1.096029
C93	C	0.981927	0.103333	0.700096
C94	C	1.481927	0.603333	1.200096
C95	C	0.981914	0.103334	0.299995
C96	C	1.481914	0.603334	0.799995
H97	H	0.385022	0.227175	0.000046
H98	H	0.885022	0.727175	0.500046
C99	C	1.138969	-0.531417	0.000059
C100	C	1.638969	-0.031417	0.500059
H101	H	1.129044	-0.477453	0.000068
H102	H	1.629044	0.022547	0.500068
H103	H	1.169876	-0.548066	-0.053111
H104	H	1.669876	-0.048066	0.446889
H105	H	1.169863	-0.548075	0.053243
H106	H	1.669863	-0.048075	0.553243
C107	C	0.862971	0.211385	0.399263
C108	C	1.362971	0.711385	0.899263
H109	H	0.829246	0.242035	0.441586
H110	H	1.329246	0.742035	0.941586
H111	H	0.828419	0.184148	0.361827
H112	H	1.328419	0.684148	0.861827
H113	H	0.892818	0.242899	0.361815
H114	H	1.392818	0.742899	0.861815
H115	H	0.542334	0.229694	0.000038
H116	H	1.042334	0.729694	0.500038
C117	C	0.862959	0.211363	0.600817
C118	C	1.362959	0.711363	1.100817
H119	H	0.829214	0.241994	0.558487
H120	H	1.329214	0.741994	1.058487
H121	H	0.892778	0.242887	0.638266
H122	H	1.392778	0.742887	1.138266
H123	H	0.828417	0.184102	0.638250
H124	H	1.328417	0.684102	1.138250
C125	C	0.411988	-0.042922	0.000054
C126	C	0.911988	0.457078	0.500054
H127	H	0.456220	-0.083374	0.000063
H128	H	0.956220	0.416626	0.500063
H129	H	0.378579	-0.046327	-0.053121
H130	H	0.878579	0.453673	0.446879
H131	H	0.378577	-0.046333	0.053233
H132	H	0.878577	0.453667	0.553233
C133	C	0.594093	-0.040008	0.000055
C134	C	1.094093	0.459992	0.500055
H135	H	0.650507	-0.029204	0.000063
H136	H	1.150507	0.470796	0.500063
H137	H	0.584018	-0.068567	-0.053117
H138	H	1.084018	0.431433	0.446883
H139	H	0.584013	-0.068567	0.053237
H140	H	1.084013	0.431433	0.553237
C141	C	1.145957	-0.134108	0.000072
C142	C	1.645957	0.365892	0.500072
H143	H	1.190462	-0.174311	0.000066
H144	H	1.690462	0.325689	0.500066
H145	H	1.149647	-0.103692	0.053245
H146	H	1.649647	0.396308	0.553245
H147	H	1.149649	-0.103686	-0.053108
H148	H	1.649649	0.396314	0.446892
H149	H	1.121597	-0.286017	0.000062
H150	H	1.621597	0.213983	0.500062
C151	C	1.136064	-0.697200	0.000046
C152	C	1.636064	-0.197200	0.500046
H153	H	1.124293	-0.748575	0.000032
H154	H	1.624293	-0.248575	0.500032
H155	H	1.167416	-0.687984	0.053222
H156	H	1.667416	-0.187984	0.553222
H157	H	1.167420	-0.687970	-0.053132
H158	H	1.667420	-0.187970	0.446868
H159	H	0.839715	-0.650523	0.000028
H160	H	1.339715	-0.150523	0.500028
C161	C	0.820784	-0.493446	0.000033
C162	C	1.320784	0.006554	0.500033
H163	H	0.775057	-0.522878	0.000041
H164	H	1.275057	-0.022878	0.500041
H165	H	0.818170	-0.462267	-0.053138
H166	H	1.318170	0.037733	0.446862
H167	H	0.818176	-0.462281	0.053215
H168	H	1.318176	0.037719	0.553215
C169	C	0.824859	-0.261900	0.000034
C170	C	1.324859	0.238100	0.500034
H171	H	0.834782	-0.315865	0.000044
H172	H	1.334782	0.184135	0.500044
H173	H	0.793959	-0.245244	-0.053141
H174	H	1.293959	0.254756	0.446859
H175	H	0.793959	-0.245248	0.053213
H176	H	1.293959	0.254752	0.553213
H177	H	0.849216	-0.109986	0.000036
H178	H	1.349216	0.390014	0.500036
C179	C	1.100851	-0.004716	0.399276
C180	C	1.600851	0.495284	0.899276
H181	H	1.134577	-0.035363	0.441606
H182	H	1.634577	0.464637	0.941606
H183	H	1.135403	0.022514	0.361825
H184	H	1.635403	0.522514	0.861825
H185	H	1.070999	-0.036233	0.361844
H186	H	1.570999	0.463767	0.861844
C187	C	1.100863	-0.004711	0.600822
C188	C	1.600863	0.495289	1.100822
H189	H	1.134598	-0.035347	0.558494
H190	H	1.634598	0.464653	1.058494
H191	H	1.071027	-0.036227	0.638270
H192	H	1.571027	0.463773	1.138270
H193	H	1.135418	0.022532	0.638256
H194	H	1.635418	0.522532	1.138256
