data_functionalizedCrystal
_audit_creation_method	'MofGen! by Chris Wilmer'
_symmetry_space_group_name_H-M	'P1'
_symmetry_Int_Tables_number	1
_symmetry_cell_setting	triclinic
loop_
_symmetry_equiv_pos_as_xyz
  x,y,z
_cell_length_a	15.995350
_cell_length_b	14.472311
_cell_length_c	15.995350
_cell_angle_alpha	90.005792
_cell_angle_beta	96.507625
_cell_angle_gamma	90.002404
loop_
_atom_site_label
_atom_site_type_symbol
_atom_site_fract_x
_atom_site_fract_y
_atom_site_fract_z
O1	O	1.110989	0.076758	-0.107916
O2	O	0.867213	0.076776	-0.121244
O3	O	0.995765	0.076766	0.007308
O4	O	0.982437	0.076769	-0.236468
O5	O	0.995747	-0.076916	0.007291
O6	O	0.867196	-0.076906	-0.121261
O7	O	1.110971	-0.076924	-0.107933
Cu8	Cu	0.989082	-0.090947	-0.114598
Cu9	Cu	0.989103	0.090800	-0.114578
O10	O	0.982420	-0.076913	-0.236484
C11	C	0.836010	-0.000062	-0.120701
C12	C	0.743060	-0.000055	-0.119049
N13	N	0.989074	-0.218778	-0.114612
C14	C	0.405312	-0.000074	-0.113117
C15	C	0.452746	-0.000418	-0.021565
C16	C	0.549436	-0.000065	-0.023217
C17	C	0.572873	-0.000065	-0.116060
C18	C	0.531795	0.087692	-0.161206
C19	C	0.435160	0.087759	-0.158907
C20	C	0.434801	-0.087007	-0.160817
C21	C	0.531746	-0.088160	-0.160796
C22	C	0.667570	-0.000057	-0.117727
C23	C	0.310614	-0.000076	-0.111452
C24	C	0.989089	-0.407278	-0.114593
C25	C	0.920292	-0.446503	-0.183354
C26	C	0.920056	-0.553591	-0.183166
C27	C	0.989103	-0.592869	-0.114577
C28	C	0.970378	-0.553978	-0.027106
C29	C	0.969876	-0.446857	-0.027519
C30	C	1.076821	-0.446744	-0.132515
C31	C	1.076241	-0.553872	-0.134490
C32	C	0.989113	-0.697757	-0.114562
C33	C	0.989077	-0.302390	-0.114603
C34	C	1.142175	-0.000083	-0.108476
C35	C	1.235125	-0.000084	-0.110127
C36	C	0.995205	-0.000073	0.038494
C37	C	0.993553	-0.000068	0.131444
N38	N	0.989117	0.218631	-0.114558
C39	C	0.982980	-0.000072	-0.267671
C40	C	0.984631	-0.000071	-0.360621
C41	C	0.987621	-0.000071	0.469192
C42	C	0.896069	0.000281	0.421758
C43	C	0.897721	-0.000066	0.325068
C44	C	0.990564	-0.000069	0.301631
C45	C	1.035710	-0.087831	0.342699
C46	C	1.033411	-0.087904	0.439335
C47	C	1.035321	0.086861	0.439712
C48	C	1.035300	0.088021	0.342767
C49	C	0.992231	-0.000071	0.206934
C50	C	0.985956	-0.000075	0.563890
H51	H	0.434217	-0.063352	0.015023
N52	N	0.992095	-0.170191	0.462307
N53	N	1.030315	-0.226531	0.512088
H54	H	1.001134	-0.284647	0.528310
H55	H	0.545921	0.090955	-0.229415
H56	H	1.090450	-0.579277	-0.198846
H57	H	1.018097	-0.420907	0.025204
H58	H	0.577301	0.062951	0.012525
H59	H	0.402912	0.091741	-0.226122
N60	N	0.567427	0.169618	-0.121869
N61	N	0.623061	0.163602	-0.060593
H62	H	0.648235	0.221461	-0.032813
N63	N	0.394943	-0.087771	-0.245490
N64	N	0.348996	-0.154104	-0.271221
H65	H	0.320842	-0.154640	-0.331018
H66	H	0.416859	0.153359	-0.125969
N67	N	0.852883	-0.079118	0.290109
N68	N	0.820277	-0.134210	0.337131
H69	H	0.788609	-0.190046	0.312443
N70	N	0.409024	-0.170447	-0.123276
N71	N	0.368600	-0.166853	-0.060901
H72	H	0.350393	-0.225778	-0.034379
N73	N	1.120242	0.094655	0.323513
N74	N	1.179563	0.094877	0.381549
H75	H	1.239557	0.099553	0.367952
H76	H	1.019174	-0.579417	0.025312
N77	N	0.585105	-0.078963	0.021324
N78	N	0.638140	-0.068436	0.084253
H79	H	0.663330	-0.124157	0.115717
N80	N	1.120002	0.087581	0.479548
N81	N	1.145212	0.024417	0.529444
H82	H	1.205017	0.024916	0.557579
H83	H	0.433159	0.062168	0.014869
N84	N	0.565995	-0.169599	-0.119435
N85	N	0.620492	-0.162857	-0.057241
H86	H	0.644686	-0.220372	-0.028027
H87	H	0.855546	-0.419597	-0.172030
N88	N	0.993989	0.169484	0.308508
N89	N	1.020064	0.247398	0.333066
H90	H	0.990895	0.304932	0.308857
H91	H	0.547111	-0.093461	-0.228500
N92	N	0.850181	0.079242	0.445012
N93	N	0.884412	0.136178	0.496818
H94	H	0.852004	0.191950	0.513245
H95	H	0.931157	-0.579888	-0.248176
N96	N	1.121271	-0.091927	0.324960
N97	N	1.137676	-0.095796	0.250472
H98	H	1.198103	-0.098686	0.237939
N99	N	0.933984	-0.414198	-0.265183
N100	N	0.994601	-0.361885	-0.273784
H101	H	1.004273	-0.339063	-0.331578
H102	H	0.854950	-0.579230	-0.171675
H103	H	0.905904	-0.421883	-0.011778
N104	N	0.891051	-0.587650	-0.006887
N105	N	0.848177	-0.640279	-0.056752
H106	H	0.792150	-0.664059	-0.042478
H107	H	1.094894	-0.419736	-0.194959
N108	N	0.996351	-0.169753	0.307083
N109	N	0.935060	-0.163730	0.251467
H110	H	0.907257	-0.221585	0.226313
H111	H	1.129815	-0.580609	-0.087678
H112	H	1.005396	0.153379	0.460259
H113	H	1.128014	-0.421370	-0.082378
H114	H	0.862232	0.062846	0.296653
H115	H	0.859632	-0.062299	0.441345
N116	N	1.117732	-0.092915	0.479783
N117	N	1.178090	-0.096353	0.436614
H118	H	1.237642	-0.099898	0.465176
