data_functionalizedCrystal
_audit_creation_method	'MofGen! by Chris Wilmer'
_symmetry_space_group_name_H-M	'P1'
_symmetry_Int_Tables_number	1
_symmetry_cell_setting	triclinic
loop_
_symmetry_equiv_pos_as_xyz
  x,y,z
_cell_length_a	15.538191
_cell_length_b	10.540539
_cell_length_c	14.185569
_cell_angle_alpha	76.712172
_cell_angle_beta	97.875798
_cell_angle_gamma	65.898793
loop_
_atom_site_label
_atom_site_type_symbol
_atom_site_fract_x
_atom_site_fract_y
_atom_site_fract_z
O1	O	1.226032	-0.372482	-0.083440
O2	O	0.952757	-0.226369	-0.083435
O3	O	1.095630	-0.487082	-0.083436
O4	O	1.083160	-0.111770	-0.083439
O5	O	1.137835	-0.564092	0.083398
O6	O	0.994963	-0.303380	0.083399
O7	O	1.268238	-0.449492	0.083395
Cu8	Cu	1.135454	-0.383468	0.098630
Cu9	Cu	1.085541	-0.292394	-0.098671
O10	O	1.125366	-0.188780	0.083396
C11	C	0.938868	-0.249587	-0.000017
C12	C	0.834601	-0.204052	-0.000016
C13	C	0.543764	-0.656437	-0.000029
C14	C	0.445786	-0.613616	-0.000030
C15	C	0.424963	-0.372762	-0.000031
C16	C	0.522942	-0.415565	-0.000025
C17	C	0.582335	-0.557403	-0.000025
C18	C	0.561514	-0.316531	-0.000021
C19	C	0.659483	-0.359329	-0.000021
C20	C	0.718881	-0.501160	-0.000024
C21	C	0.680305	-0.600201	-0.000024
C22	C	0.502117	-0.174690	-0.000029
C23	C	0.540689	-0.075657	-0.000025
C24	C	0.638662	-0.118457	-0.000017
C25	C	0.698060	-0.260288	-0.000020
C26	C	0.677238	-0.019416	-0.000016
C27	C	0.775208	-0.062213	-0.000016
C28	C	0.796029	-0.303085	-0.000020
C29	C	1.115797	-0.572447	-0.000021
C30	C	1.112998	-0.712069	-0.000026
C31	C	1.005700	-0.844617	-0.000399
C32	C	1.008631	-0.699513	-0.000023
C33	C	1.187326	-0.841460	0.095243
C34	C	1.183784	-0.986357	0.095324
C35	C	1.137911	-0.900304	-0.094398
C36	C	1.138553	-0.753195	-0.095658
C37	C	1.282127	-0.426273	-0.000025
C38	C	1.386392	-0.471806	-0.000033
C39	C	1.105198	-0.103414	-0.000022
C40	C	1.107995	0.036211	-0.000023
N41	N	1.170567	-0.447528	0.237401
N42	N	1.050435	-0.228347	-0.237441
C43	C	0.947273	-0.040193	0.605053
C44	C	0.973877	-0.088712	0.710074
C45	C	1.100417	-0.319521	0.710034
C46	C	1.073820	-0.271023	0.605010
C47	C	0.997248	-0.131358	0.552528
C48	C	1.123795	-0.362188	0.552486
C49	C	1.097203	-0.313691	0.447472
C50	C	1.020636	-0.174029	0.394982
C51	C	0.970656	-0.082861	0.447514
C52	C	1.200371	-0.501850	0.604970
C53	C	1.250346	-0.593015	0.552446
C54	C	1.223751	-0.544522	0.447429
C55	C	1.147184	-0.404860	0.394940
C56	C	1.273731	-0.635691	0.394898
C57	C	1.247139	-0.587194	0.289883
C58	C	1.120592	-0.356363	0.289925
H59	H	0.492317	0.039830	-0.000029
C60	C	0.973464	-0.901528	0.091403
N61	N	0.949192	-0.944391	0.160558
H62	H	1.058233	-0.242639	0.247192
C63	C	0.403362	-0.722573	-0.000034
N64	N	0.371408	-0.804637	-0.000039
H65	H	1.336083	-0.749403	0.437642
C66	C	1.229620	-0.555194	0.720490
N67	N	1.251649	-0.595373	0.807500
C68	C	0.978250	-0.660329	0.092396
N69	N	0.955367	-0.630819	0.162011
H70	H	1.162765	-0.433236	0.752777
H71	H	1.164681	-1.029873	0.166541
H72	H	0.628864	0.096074	-0.000026
C73	C	0.931894	-0.574111	-0.092280
N74	N	0.874088	-0.479660	-0.161768
H75	H	0.908297	0.030863	0.404781
H76	H	0.844393	-0.418587	-0.000014
C77	C	0.394346	-0.127614	-0.000033
N78	N	0.313173	-0.092157	-0.000037
C79	C	0.991384	-0.120682	0.279462
N80	N	0.969350	-0.080503	0.192452
H81	H	1.259937	-1.071823	0.099645
H82	H	0.806615	0.018426	-0.000004
C83	C	1.239528	-1.011878	-0.095270
N84	N	1.316064	-1.095924	-0.095921
H85	H	1.213189	-0.762309	-0.101412
H86	H	0.376591	-0.257275	-0.000035
H87	H	0.947189	-0.822180	-0.068718
C88	C	1.292078	-0.862425	0.100044
N89	N	1.370976	-0.878205	0.103661
C90	C	1.164417	-0.805837	0.191025
N91	N	1.147156	-0.779005	0.263166
C92	C	1.067596	-0.876308	-0.191949
N93	N	1.014625	-0.858229	-0.265420
C94	C	0.863001	0.113414	0.547316
N95	N	0.799519	0.229096	0.503829
C96	C	1.064865	-0.630511	-0.190874
N97	N	1.009355	-0.538106	-0.262590
H98	H	0.933175	-0.014461	0.752834
C99	C	0.745644	-0.756234	-0.000020
N100	N	0.794857	-0.873751	-0.000019
C101	C	1.334571	-0.746647	0.610188
N102	N	1.398007	-0.862367	0.653679
H103	H	0.798651	-0.535997	-0.000037
C104	C	1.302112	-0.687482	0.232103
N105	N	1.343521	-0.763021	0.188583
H106	H	0.592127	-0.771939	-0.000023
