data_functionalizedCrystal
_audit_creation_method	'MofGen! by Chris Wilmer'
_symmetry_space_group_name_H-M	'P1'
_symmetry_Int_Tables_number	1
_symmetry_cell_setting	triclinic
loop_
_symmetry_equiv_pos_as_xyz
  x,y,z
_cell_length_a	19.902436
_cell_length_b	14.560438
_cell_length_c	14.560438
_cell_angle_alpha	90.001361
_cell_angle_beta	60.004023
_cell_angle_gamma	59.995383
loop_
_atom_site_label
_atom_site_type_symbol
_atom_site_fract_x
_atom_site_fract_y
_atom_site_fract_z
Zr1	Zr	0.735495	-0.120607	0.884775
O2	O	0.875671	-0.267274	0.738134
O3	O	0.595316	-0.075633	0.929725
O4	O	0.735494	-0.267253	0.929731
O5	O	0.735495	0.075484	0.738127
O6	O	0.735495	-0.267250	1.080869
O7	O	0.735494	-0.075655	0.738128
O8	O	0.484743	0.075522	1.080859
O9	O	0.986248	-0.267289	0.738137
O10	O	0.652976	-0.056466	1.061692
O11	O	0.652976	0.056325	0.948898
O12	O	0.818017	-0.169282	0.948905
O13	O	0.818017	-0.056491	0.836111
Zr14	Zr	0.735501	0.120445	1.125821
Zr15	Zr	0.735498	-0.120603	1.125823
Zr16	Zr	0.735498	0.120441	0.884773
Zr17	Zr	0.911852	-0.120631	0.884780
Zr18	Zr	0.559144	0.120468	1.125816
O19	O	0.875680	0.075471	1.080870
O20	O	0.875676	-0.267269	1.080873
O21	O	0.875676	0.075465	0.738131
O22	O	0.595324	0.267112	1.272461
O23	O	0.595320	-0.075627	1.272465
O24	O	0.595320	0.267106	0.929722
O25	O	0.735500	-0.075646	1.272469
O26	O	0.735502	0.267090	1.080864
O27	O	0.735500	0.267088	0.929726
O28	O	0.735502	0.075492	1.272467
O29	O	0.986250	-0.267286	0.929738
O30	O	0.484746	0.267123	1.080857
O31	O	0.484748	0.267126	1.272458
O32	O	0.484746	0.075525	1.272460
O33	O	0.986250	-0.075688	0.738135
O34	O	0.986253	-0.075685	0.929737
O35	O	0.652979	0.169120	1.061690
O36	O	0.652979	0.056329	1.174484
O37	O	0.818020	-0.056488	1.061697
O38	O	0.818020	0.056303	0.948903
C39	C	0.514902	-0.000052	1.005291
C40	C	0.440034	-0.000042	1.005289
C41	C	0.735494	-0.000086	0.703783
C42	C	0.735493	-0.000088	0.601452
C43	C	0.735502	0.301433	1.005295
C44	C	0.735503	0.403764	1.005294
C45	C	0.168024	-0.000095	1.005300
C46	C	0.196263	0.071400	0.934492
C47	C	0.274381	0.071106	0.934108
C48	C	0.302971	-0.000068	1.005295
C49	C	0.338533	-0.122641	0.953405
C50	C	0.260695	-0.122264	0.952872
C51	C	0.133511	0.050000	1.128034
C52	C	0.210564	0.052496	1.127855
C53	C	0.379240	-0.000059	1.005293
C54	C	0.091760	-0.000111	1.005299
C55	C	0.956093	-0.000110	1.005304
C56	C	1.030961	-0.000120	1.005306
C57	C	0.735494	-0.301596	1.005301
C58	C	0.735493	-0.403927	1.005302
C59	C	0.821651	0.392954	0.946426
C60	C	0.821647	0.489109	0.946426
C61	C	0.649338	0.606882	1.064172
C62	C	0.649344	0.510728	1.064164
C63	C	0.907810	0.285991	0.887556
C64	C	0.993966	0.275175	0.828684
C65	C	0.993961	0.371330	0.828684
C66	C	0.907801	0.478300	0.887556
C67	C	0.649345	0.058801	0.612247
C68	C	0.649349	0.058811	0.516092
C69	C	0.821658	-0.058965	0.398350
C70	C	0.821652	-0.058968	0.494504
C71	C	0.563185	0.117681	0.719195
C72	C	0.477030	0.176574	0.729995
C73	C	0.477035	0.176584	0.633840
C74	C	0.563194	0.117702	0.526885
C75	C	0.735502	-0.000076	1.306812
C76	C	0.735503	-0.000075	1.409143
C77	C	0.514906	-0.000047	1.306806
C78	C	0.440039	-0.000036	1.409135
C79	C	0.514906	0.301462	1.005289
C80	C	0.440039	0.403803	1.005285
C81	C	0.514910	0.301467	1.306803
C82	C	0.440045	0.403810	1.409131
C83	C	0.956086	-0.301630	0.703793
C84	C	1.030951	-0.403972	0.601464
C85	C	0.956089	-0.000115	0.703790
C86	C	1.030956	-0.000127	0.601461
C87	C	0.956089	-0.301625	1.005307
C88	C	1.030956	-0.403966	1.005310
C89	C	0.404880	-0.058918	1.398314
C90	C	0.334544	-0.058930	1.494453
C91	C	0.299365	-0.000052	1.601413
C92	C	0.334532	0.058832	1.612232
C93	C	0.404871	0.058837	1.516094
C94	C	0.404883	0.510752	1.064160
C95	C	0.334547	0.606921	1.064153
C96	C	0.299365	0.596140	1.005277
C97	C	0.334529	0.489181	0.946395
C98	C	0.404868	0.393014	0.946396
C99	C	0.404887	0.392996	1.516073
C100	C	0.334553	0.489148	1.612230
C101	C	0.299372	0.596114	1.601443
C102	C	0.334537	0.606927	1.494490
C103	C	0.404875	0.510775	1.398335
C104	C	1.066117	-0.393158	0.494523
C105	C	1.136473	-0.489311	0.398365
C106	C	1.171657	-0.596277	0.409152
C107	C	1.136488	-0.607089	0.516105
C108	C	1.066138	-0.510937	0.612260
C109	C	1.066123	0.058745	0.612282
C110	C	1.136478	0.058731	0.516142
C111	C	1.171660	-0.000151	0.409182
C112	C	1.136490	-0.059030	0.398363
C113	C	1.066141	-0.059021	0.494502
C114	C	1.066116	-0.393149	1.064197
C115	C	1.136452	-0.489300	1.064222
C116	C	1.171632	-0.596267	1.005353
C117	C	1.136465	-0.607082	0.946463
C118	C	1.066125	-0.510932	0.946446
H119	H	0.247737	0.161364	0.968915
O120	O	0.442633	0.277701	0.883007
H121	H	0.474646	0.267851	0.792509
O122	O	0.296621	0.477500	1.727589
H123	H	0.264553	0.430838	1.737383
O124	O	0.907812	0.182284	0.887552
H125	H	0.982194	0.106089	0.836721
O126	O	1.086881	0.359669	0.765176
H127	H	1.090999	0.400671	0.824615
O128	O	0.239586	-0.196680	1.016751
H129	H	0.254692	-0.265741	0.960079
H130	H	0.242089	-0.000063	1.679687
O131	O	1.028177	-0.277788	1.127712
H132	H	1.041685	-0.231161	1.068280
H133	H	0.242099	0.674398	1.679748
H134	H	1.228943	-0.000149	0.330909
O135	O	0.907790	0.582016	0.887509
H136	H	0.982170	0.556530	0.836668
H137	H	0.305925	0.694003	1.112105
H138	H	0.359426	-0.178216	1.002502
O139	O	1.247534	-0.699975	0.305432
H140	H	1.266102	-0.776179	0.330889
H141	H	0.242091	0.674455	1.005285
H142	H	0.305873	0.480419	0.898460
H143	H	0.305920	-0.106880	1.485622
O144	O	0.563175	0.117670	0.822908
H145	H	0.637555	0.066821	0.797435
H146	H	0.433491	0.519596	1.311262
O147	O	1.174440	-0.122537	0.282996
H148	H	1.229258	-0.112636	0.217973
H149	H	1.064113	0.188076	0.780744
O150	O	1.028207	-0.122515	0.482825
H151	H	0.996163	-0.088472	0.436135
H152	H	0.181821	0.142796	1.166620
O153	O	0.296577	0.122346	1.727599
H154	H	0.241751	0.112456	1.792622
H155	H	0.305883	0.694031	1.485724
H156	H	0.433520	0.305907	1.524877
H157	H	0.579191	0.693981	1.112103
H158	H	1.165078	-0.480472	1.112175
H159	H	0.433489	0.106792	1.524920
O160	O	1.028182	-0.277793	0.482875
H161	H	1.064473	-0.286445	0.392350
H162	H	1.165096	-0.480485	0.311289
H163	H	1.165144	-0.694192	0.524875
H164	H	1.228907	-0.674550	1.005376
H165	H	0.433522	-0.106877	1.311230
O166	O	1.174421	-0.722456	0.882956
H167	H	1.229248	-0.787488	0.892857
H168	H	1.037506	-0.519756	0.699334
O169	O	0.110817	0.191257	0.980339
H170	H	0.081093	0.229682	1.068900
H171	H	1.037484	0.106701	0.699366
O172	O	1.028219	-0.522622	0.882916
H173	H	0.950622	-0.481640	0.942341
H174	H	0.433520	0.519551	1.112104
H175	H	1.165102	0.106682	0.524973
H176	H	0.222221	0.036961	0.844494
H177	H	0.338839	0.036373	0.843577
H178	H	0.290236	-0.162367	0.862557
H179	H	0.065466	0.138873	1.171388
O180	O	0.426977	-0.175912	0.834691
H181	H	0.445798	-0.115345	0.812461
H182	H	0.226170	0.005837	1.185057
H183	H	0.579194	0.519534	1.112097
O184	O	0.108523	-0.018635	1.198258
H185	H	0.120598	-0.088081	1.146071
H186	H	0.406883	0.224546	0.642639
O187	O	0.384103	0.240077	0.845343
H188	H	0.398570	0.230168	0.910394
O189	O	0.563205	0.117707	0.423170
H190	H	0.488825	0.168544	0.448643
H191	H	0.891805	-0.106907	0.311263
H192	H	0.891802	-0.106899	0.485711
