data_functionalizedCrystal
_audit_creation_method	'MofGen! by Chris Wilmer'
_symmetry_space_group_name_H-M	'P1'
_symmetry_Int_Tables_number	1
_symmetry_cell_setting	triclinic
loop_
_symmetry_equiv_pos_as_xyz
  x,y,z
_cell_length_a	10.723024
_cell_length_b	14.519709
_cell_length_c	9.798715
_cell_angle_alpha	89.995905
_cell_angle_beta	89.996609
_cell_angle_gamma	84.074007
loop_
_atom_site_label
_atom_site_type_symbol
_atom_site_fract_x
_atom_site_fract_y
_atom_site_fract_z
O1	O	1.655978	0.129347	-0.113485
O2	O	1.989311	0.462681	0.219848
O3	O	2.322644	0.796014	0.553181
O4	O	1.292710	0.141728	-0.113490
O5	O	1.626043	0.475062	0.219843
O6	O	1.959376	0.808395	0.553176
O7	O	1.483975	0.001349	-0.113475
O8	O	1.817309	0.334682	0.219858
O9	O	2.150642	0.668015	0.553191
O10	O	1.464712	0.269727	-0.113500
O11	O	1.798045	0.603061	0.219833
O12	O	2.131379	0.936394	0.553166
O13	O	1.483961	0.001348	0.113507
O14	O	1.817294	0.334682	0.446840
O15	O	2.150628	0.668015	0.780173
O16	O	1.292695	0.141728	0.113492
O17	O	1.626029	0.475061	0.446825
O18	O	1.959362	0.808395	0.780158
O19	O	1.655963	0.129347	0.113497
O20	O	1.989297	0.462680	0.446830
O21	O	2.322630	0.796014	0.780163
Zn22	Zn	1.474327	0.135537	0.149533
Zn23	Zn	1.807660	0.468871	0.482866
Zn24	Zn	2.140994	0.802204	0.816199
Zn25	Zn	1.474346	0.135538	-0.149526
Zn26	Zn	1.807679	0.468871	0.183807
Zn27	Zn	2.141013	0.802205	0.517140
O28	O	1.464698	0.269727	0.113482
O29	O	1.798031	0.603060	0.446815
O30	O	2.131365	0.936393	0.780149
C31	C	1.246211	0.140827	0.000000
C32	C	1.579545	0.474161	0.333334
C33	C	1.912878	0.807494	0.666667
C34	C	1.107682	0.138132	-0.000001
C35	C	1.441016	0.471465	0.333332
C36	C	1.774349	0.804798	0.666665
C37	C	1.483070	-0.033016	0.000016
C38	C	1.816404	0.300317	0.333349
C39	C	2.149737	0.633651	0.666682
C40	C	1.480380	-0.135411	0.000017
C41	C	1.813713	0.197922	0.333350
C42	C	2.147047	0.531256	0.666683
C43	C	1.031965	0.216681	-0.000009
C44	C	1.365298	0.550014	0.333324
C45	C	1.698632	0.883347	0.666657
C46	C	0.888788	0.213896	-0.000011
C47	C	1.222121	0.547230	0.333322
C48	C	1.555454	0.880563	0.666656
C49	C	1.470476	-0.510357	-0.000019
C50	C	1.803810	-0.177024	0.333314
C51	C	2.137143	0.156309	0.666648
C52	C	1.473227	-0.406035	-0.000009
C53	C	1.806560	-0.072702	0.333325
C54	C	2.139893	0.260631	0.666658
C55	C	1.475428	-0.322887	0.000000
C56	C	1.808761	0.010446	0.333333
C57	C	2.142095	0.343779	0.666667
C58	C	1.478179	-0.218559	0.000008
C59	C	1.811512	0.114775	0.333341
C60	C	2.144845	0.448108	0.666674
C61	C	1.702462	0.130248	0.000003
C62	C	2.035795	0.463582	0.333337
C63	C	2.369128	0.796915	0.666670
C64	C	1.840991	0.132944	-0.000004
C65	C	2.174324	0.466277	0.333329
C66	C	2.507657	0.799611	0.666662
C67	C	1.465603	0.304091	-0.000012
C68	C	1.798936	0.637425	0.333321
C69	C	2.132269	0.970758	0.666654
C70	C	1.468293	0.406486	-0.000022
C71	C	1.801626	0.739820	0.333311
C72	C	2.134960	1.073153	0.666645
N73	N	1.474323	0.135537	0.353632
N74	N	1.807657	0.468870	0.686966
N75	N	2.140990	0.802203	1.020299
N76	N	1.474359	0.135532	-0.353626
N77	N	1.807693	0.468865	-0.020293
N78	N	2.141026	0.802198	0.313041
C79	C	1.554633	0.076335	0.421415
C80	C	1.887966	0.409669	0.754749
C81	C	2.221300	0.743002	1.088082
C82	C	1.554653	0.076332	0.578578
C83	C	1.887986	0.409665	0.911911
C84	C	2.221320	0.742999	1.245245
H85	H	1.073139	0.285991	-0.000008
H86	H	1.406472	0.619324	0.333325
H87	H	1.739806	0.952657	0.666659
H88	H	1.623371	0.025649	0.363098
H89	H	1.956704	0.358982	0.696432
H90	H	2.290038	0.692316	1.029765
C91	C	1.381465	0.204009	0.567637
C92	C	1.714799	0.537343	0.900971
C93	C	2.048132	0.870676	1.234304
N94	N	1.311496	0.255586	0.508322
N95	N	1.644829	0.588919	0.841656
N96	N	1.978163	0.922252	1.174989
H97	H	0.823726	0.281141	-0.000024
H98	H	1.157060	0.614474	0.333310
H99	H	1.490393	0.947807	0.666643
H100	H	1.623414	0.025651	0.636869
H101	H	1.956748	0.358984	0.970202
H102	H	2.290081	0.692317	1.303535
H103	H	0.906045	0.065696	-0.000006
H104	H	1.239378	0.399029	0.333327
H105	H	1.572712	0.732363	0.666661
C106	C	1.052065	0.044493	0.000007
C107	C	1.385398	0.377826	0.333341
C108	C	1.718731	0.711160	0.666674
N109	N	1.010175	-0.026038	0.000012
N110	N	1.343509	0.307295	0.333345
N111	N	1.676842	0.640629	0.666678
H112	H	1.405577	0.186216	0.411951
H113	H	1.738911	0.519549	0.745285
H114	H	2.072244	0.852882	1.078618
