data_functionalizedCrystal
_audit_creation_method	'MofGen! by Chris Wilmer'
_symmetry_space_group_name_H-M	'P1'
_symmetry_Int_Tables_number	1
_symmetry_cell_setting	triclinic
loop_
_symmetry_equiv_pos_as_xyz
  x,y,z
_cell_length_a	19.077105
_cell_length_b	21.295411
_cell_length_c	19.077068
_cell_angle_alpha	92.278858
_cell_angle_beta	90.115316
_cell_angle_gamma	87.678773
loop_
_atom_site_label
_atom_site_type_symbol
_atom_site_fract_x
_atom_site_fract_y
_atom_site_fract_z
Zn1	Zn	1.063028	-0.405671	-0.323069
Zn2	Zn	1.058205	-0.304447	-0.440556
Zn3	Zn	0.945510	-0.296029	-0.318339
Zn4	Zn	0.940763	-0.405293	-0.435810
O5	O	1.001876	-0.352860	-0.379443
O6	O	1.160720	-0.395925	-0.342619
O7	O	1.043224	-0.215240	-0.424350
O8	O	0.965104	-0.307209	-0.220636
O9	O	1.157177	-0.321555	-0.428936
O10	O	1.051444	-0.387763	-0.224111
O11	O	0.960427	-0.209055	-0.334558
O12	O	0.846548	-0.306842	-0.329957
O13	O	0.957013	-0.493434	-0.420848
O14	O	0.843061	-0.387118	-0.416262
O15	O	1.046841	-0.493712	-0.338017
O16	O	1.038621	-0.321189	-0.538257
O17	O	0.952337	-0.395280	-0.534770
C18	C	0.819308	-0.346026	-0.372082
C19	C	0.741204	-0.343118	-0.368950
C20	C	0.702710	-0.383486	-0.412480
C21	C	0.629324	-0.380756	-0.409528
C22	C	0.594432	-0.337655	-0.363048
C23	C	0.632931	-0.297285	-0.319512
C24	C	0.706316	-0.300018	-0.322462
C25	C	0.375145	-0.325008	-0.349398
C26	C	0.301755	-0.322277	-0.346453
C27	C	0.298153	-0.405749	-0.436468
C28	C	0.371540	-0.408476	-0.439416
C29	C	0.410032	-0.368108	-0.395878
N30	N	0.519418	-0.334862	-0.360030
N31	N	0.485044	-0.370905	-0.398893
C32	C	1.001935	-0.517052	-0.379431
C33	C	1.001960	-0.587021	-0.379426
C34	C	1.048732	-0.620033	-0.336294
C35	C	1.048732	-0.685775	-0.336263
C36	C	1.001968	-0.718502	-0.379377
C37	C	0.955188	-0.685482	-0.422512
C38	C	0.955184	-0.619741	-0.422536
N39	N	0.994080	-0.823636	-0.440631
N40	N	0.994088	-0.886087	-0.440606
C41	C	1.001975	-0.916575	-0.379306
N42	N	1.009868	-0.882253	-0.318032
N43	N	1.009864	-0.819796	-0.318057
C44	C	1.001966	-0.789787	-0.379356
C45	C	1.048749	-1.020871	-0.336138
C46	C	1.048745	-1.086614	-0.336106
C47	C	0.955204	-1.086320	-0.422361
C48	C	0.955205	-1.020578	-0.422387
C49	C	1.001981	-0.987858	-0.379276
C50	C	1.185157	-0.359721	-0.386834
C51	C	1.263261	-0.362645	-0.389984
C52	C	0.994460	-0.359121	-0.562010
C53	C	0.991351	-0.361823	-0.640116
C54	C	1.001860	-0.189307	-0.379407
C55	C	1.001979	-0.119336	-0.379220
C56	C	1.034849	-0.324552	-0.678603
C57	C	1.031930	-0.327097	-0.751992
C58	C	0.985508	-0.366911	-0.786891
C59	C	0.942008	-0.404186	-0.748399
C60	C	0.944931	-0.401644	-0.675012
C61	C	0.971946	-0.378650	-1.006182
C62	C	0.969024	-0.381188	-1.079574
C63	C	1.058947	-0.304099	-1.083162
C64	C	1.061864	-0.301558	-1.009774
C65	C	1.018366	-0.338836	-0.971288
N66	N	0.982521	-0.369512	-0.861906
N67	N	1.021357	-0.336238	-0.896275
C68	C	1.009341	-0.346589	-0.196164
C69	C	1.012522	-0.343917	-0.118062
H70	H	0.737657	-0.267150	-0.287011
C71	C	1.106267	-0.263428	-0.898871
C72	C	1.112890	-0.257792	-0.971413
H73	H	1.137764	-0.236404	-0.875191
H74	H	1.117012	-0.305692	-0.887228
H75	H	1.059532	-0.252002	-0.884998
H76	H	1.159624	-0.269224	-0.985287
H77	H	1.102149	-0.215520	-0.983062
C78	C	1.141203	-1.027762	-0.250869
C79	C	1.100156	-0.984899	-0.288743
H80	H	1.172936	-1.005554	-0.221606
H81	H	1.166837	-1.055470	-0.282556
H82	H	1.111674	-1.051323	-0.222749
H83	H	1.129686	-0.961341	-0.316867
H84	H	1.074521	-0.957180	-0.257052
H85	H	0.406477	-0.292133	-0.313951
C86	C	0.860286	-0.943423	-0.428365
C87	C	0.903797	-0.984286	-0.469805
H88	H	0.828544	-0.921021	-0.457640
H89	H	0.888139	-0.914529	-0.402699
H90	H	0.834657	-0.967009	-0.396660
H91	H	0.929430	-0.960700	-0.501507
H92	H	0.875941	-1.013184	-0.495483
C93	C	1.062360	-1.157642	-0.241941
C94	C	1.100156	-1.122899	-0.288683
H95	H	1.094101	-1.180039	-0.212660
H96	H	1.034516	-1.186540	-0.267610
H97	H	1.032841	-1.129905	-0.213845
H98	H	1.129672	-1.150636	-0.316783
H99	H	1.128013	-1.093998	-0.263011
C100	C	1.094408	-0.273778	-1.197253
C101	C	1.106770	-0.263137	-1.125468
H102	H	1.123940	-0.248493	-1.223369
H103	H	1.046728	-0.263173	-1.207425
H104	H	1.104185	-0.316883	-1.209649
H105	H	1.096988	-0.220032	-1.113071
H106	H	1.154461	-0.273737	-1.115292
C107	C	0.880442	-0.457149	-1.068661
C108	C	0.918000	-0.424961	-1.117938
H109	H	0.848948	-0.484174	-1.092347
H110	H	0.854712	-0.427713	-1.038995
H111	H	0.912197	-0.481399	-1.041229
H112	H	0.886246	-0.400708	-1.145367
H113	H	0.943732	-0.454402	-1.147616
C114	C	0.522037	-0.256032	-0.275022
C115	C	0.594579	-0.249909	-0.268417
H116	H	0.498363	-0.226780	-0.243479
H117	H	0.510454	-0.297541	-0.264327
H118	H	0.508095	-0.247917	-0.321737
H119	H	0.608521	-0.258029	-0.221703
H120	H	0.606167	-0.208391	-0.279107
C121	C	1.132662	-0.316548	-0.599803
C122	C	1.085877	-0.280786	-0.640244
H123	H	1.164163	-0.289527	-0.576121
H124	H	1.158385	-0.345984	-0.629475
H125	H	1.107166	-0.338377	-0.566378
H126	H	1.111372	-0.258960	-0.673672
H127	H	1.060152	-0.251338	-0.610569
C128	C	0.965414	-0.460101	-0.923235
C129	C	0.924127	-0.419623	-0.963889
H130	H	0.935888	-0.485399	-0.897129
H131	H	0.993471	-0.436031	-0.891945
H132	H	0.994877	-0.486334	-0.953065
H133	H	0.894667	-0.393386	-0.934059
H134	H	0.896058	-0.443695	-0.995183
C135	C	0.515229	-0.413635	-0.444972
C136	C	0.587010	-0.425130	-0.457378
H137	H	0.489109	-0.441035	-0.474511
H138	H	0.502764	-0.371232	-0.454701
H139	H	0.505133	-0.420855	-0.397289
H140	H	0.597107	-0.417906	-0.505060
H141	H	0.599480	-0.467543	-0.447654
C142	C	1.141191	-0.626932	-0.251031
C143	C	1.100141	-0.584067	-0.288899
H144	H	1.172924	-0.604726	-0.221768
H145	H	1.166824	-0.654637	-0.282722
H146	H	1.111664	-0.650497	-0.222912
H147	H	1.129668	-0.560506	-0.317022
H148	H	1.074506	-0.556352	-0.257204
C149	C	0.911550	-0.506144	-0.651006
C150	C	0.897119	-0.442615	-0.632703
H151	H	0.882031	-0.531439	-0.624888
H152	H	0.959235	-0.516732	-0.640835
H153	H	0.903161	-0.513347	-0.699707
H154	H	0.905513	-0.435411	-0.584002
H155	H	0.849423	-0.432023	-0.642869
H156	H	0.904213	-0.436606	-0.776820
H157	H	0.399943	-0.443572	-0.477267
C158	C	0.691771	-0.465726	-0.501152
C159	C	0.741060	-0.430867	-0.463571
H160	H	0.715447	-0.494981	-0.532689
H161	H	0.662046	-0.438114	-0.526835
H162	H	0.664402	-0.487731	-0.469417
H163	H	0.768426	-0.408858	-0.495306
H164	H	0.770798	-0.458483	-0.437887
C165	C	1.062363	-0.756826	-0.242115
C166	C	1.100150	-0.722073	-0.288853
H167	H	1.094108	-0.779230	-0.212846
H168	H	1.034513	-0.785719	-0.267788
H169	H	1.032848	-0.729096	-0.214007
H170	H	1.129661	-0.749804	-0.316965
H171	H	1.128011	-0.693177	-0.263178
H172	H	0.917120	-1.112965	-0.457459
H173	H	0.917110	-0.712132	-0.457614
H174	H	0.266804	-0.438615	-0.471913
H175	H	1.067350	-0.296746	-0.783325
C176	C	0.916114	-0.602307	-0.540150
C177	C	0.903777	-0.583448	-0.469957
H178	H	0.884381	-0.579897	-0.569426
H179	H	0.909415	-0.646137	-0.546300
H180	H	0.962911	-0.593668	-0.552330
H181	H	0.856981	-0.592092	-0.457774
H182	H	0.910470	-0.539609	-0.463803
C183	C	0.312683	-0.240046	-0.257760
C184	C	0.263400	-0.274899	-0.295355
H185	H	0.289002	-0.210801	-0.226214
H186	H	0.340051	-0.218034	-0.289480
H187	H	0.342411	-0.267667	-0.232079
H188	H	0.233675	-0.247279	-0.321040
H189	H	0.236020	-0.296912	-0.263630
