data_functionalizedCrystal
_audit_creation_method	'MofGen! by Chris Wilmer'
_symmetry_space_group_name_H-M	'P1'
_symmetry_Int_Tables_number	1
_symmetry_cell_setting	triclinic
loop_
_symmetry_equiv_pos_as_xyz
  x,y,z
_cell_length_a	29.839135
_cell_length_b	12.594516
_cell_length_c	12.594510
_cell_angle_alpha	90.032321
_cell_angle_beta	90.024304
_cell_angle_gamma	90.017880
loop_
_atom_site_label
_atom_site_type_symbol
_atom_site_fract_x
_atom_site_fract_y
_atom_site_fract_z
Zn1	Zn	-0.686837	0.423594	-0.601966
Zn2	Zn	-0.686791	0.601623	-0.423993
Zn3	Zn	-0.611708	0.423665	-0.423985
Zn4	Zn	-0.611701	0.601536	-0.601913
O5	O	-0.649259	0.512604	-0.512964
O6	O	-0.749698	0.447216	-0.578383
O7	O	-0.676815	0.578082	-0.275046
O8	O	-0.621697	0.274709	-0.447612
O9	O	-0.749664	0.578014	-0.447627
O10	O	-0.676893	0.274657	-0.578374
O11	O	-0.621652	0.447337	-0.275040
O12	O	-0.548840	0.447253	-0.447562
O13	O	-0.621683	0.577866	-0.750866
O14	O	-0.548834	0.577935	-0.578285
O15	O	-0.676886	0.447132	-0.750905
O16	O	-0.676808	0.750557	-0.447577
O17	O	-0.621639	0.750494	-0.578294
C18	C	-0.532537	0.512593	-0.512918
C19	C	-0.482602	0.512614	-0.512923
C20	C	-0.649230	0.789145	-0.512954
C21	C	-0.649258	0.907451	-0.512985
C22	C	-0.172973	0.444588	-0.581144
C23	C	0.014700	0.444589	-0.581172
O24	O	0.038952	0.386734	-0.639128
N25	N	0.038183	0.512586	-0.512996
C26	C	0.014745	0.580581	-0.444803
O27	O	0.039025	0.638408	-0.386808
C28	C	-0.172927	0.580573	-0.444770
C29	C	-0.196408	0.512580	-0.512958
C30	C	-0.196454	0.376599	-0.649326
C31	C	-0.243370	0.376604	-0.649322
C32	C	-0.266804	0.444596	-0.581136
C33	C	-0.243323	0.512584	-0.512955
C34	C	-0.196364	0.648563	-0.376572
C35	C	-0.243285	0.648553	-0.376568
C36	C	-0.266766	0.580560	-0.444757
C37	C	-0.313674	0.580581	-0.444765
N38	N	-0.337157	0.512585	-0.512942
C39	C	-0.313722	0.444593	-0.581127
C40	C	0.113276	0.580582	-0.444826
C41	C	0.160193	0.580586	-0.444836
C42	C	0.160145	0.444592	-0.581204
C43	C	0.113226	0.444595	-0.581199
C44	C	0.089792	0.512586	-0.513002
C45	C	-0.412248	0.444607	-0.581115
C46	C	-0.459168	0.444621	-0.581108
C47	C	-0.459115	0.580610	-0.444737
C48	C	-0.412199	0.580601	-0.444747
C49	C	-0.388767	0.512591	-0.512939
O50	O	-0.337955	0.638398	-0.386831
O51	O	-0.338010	0.386757	-0.639097
C52	C	-0.126058	0.444583	-0.581147
C53	C	-0.102577	0.512571	-0.512966
C54	C	-0.126012	0.580564	-0.444780
C55	C	-0.055659	0.512575	-0.512975
C56	C	-0.032225	0.444582	-0.581160
C57	C	-0.055708	0.376586	-0.649337
C58	C	-0.102623	0.376591	-0.649333
C59	C	-0.102529	0.648560	-0.376604
C60	C	-0.055613	0.648551	-0.376614
C61	C	-0.032178	0.580559	-0.444799
C62	C	-0.649289	0.512482	-0.790585
C63	C	-0.649301	0.512429	-0.908891
C64	C	0.233562	0.512609	-0.513009
C65	C	0.183628	0.512593	-0.513021
C66	C	-0.649301	0.234984	-0.512998
C67	C	-0.649319	0.116678	-0.513012
C68	C	-0.619249	0.976708	-0.584032
C69	C	-0.608303	1.047585	-0.486907
C70	C	-0.660245	1.047373	-0.610126
C71	C	-0.638291	0.976769	-0.415809
C72	C	-0.690251	0.976552	-0.539093
C73	C	-0.679321	1.047396	-0.441902
C74	C	-0.679335	0.441318	-0.978165
C75	C	-0.638361	0.415268	-1.048949
C76	C	-0.690299	0.538404	-1.048905
C77	C	-0.608306	0.486330	-0.978117
C78	C	-0.660272	0.609511	-0.978067
C79	C	-0.619270	0.583498	-1.048820
C80	C	-0.649255	0.512650	-0.236423
C81	C	-0.649330	0.512403	-0.118118
H82	H	-0.478284	0.389252	-0.636639
C83	C	-0.641802	0.795018	-0.973223
C84	C	-0.672801	0.720325	-0.935997
H85	H	-0.649543	0.863431	-0.947254
H86	H	-0.612668	0.776647	-0.949023
H87	H	-0.642179	0.795643	-1.048640
H88	H	-0.672422	0.719694	-0.860579
H89	H	-0.701943	0.738701	-0.960191
C90	C	-0.549771	1.052532	-0.356113
C91	C	-0.561541	1.089711	-0.457100
H92	H	-0.520901	1.078533	-0.337721
H93	H	-0.571080	1.076732	-0.305600
H94	H	-0.549344	0.977115	-0.356537
H95	H	-0.561972	1.165128	-0.456673
H96	H	-0.540227	1.065517	-0.507626
C97	C	-0.768464	0.493520	-1.055208
C98	C	-0.737087	0.568088	-1.090879
H99	H	-0.797349	0.511845	-1.081115
H100	H	-0.760475	0.425044	-1.080525
H101	H	-0.768851	0.493116	-0.979790
H102	H	-0.736698	0.568487	-1.166298
H103	H	-0.745079	0.636583	-1.065568
H104	H	-0.036499	0.703930	-0.321089
C105	C	-0.745988	1.150141	-0.413089
C106	C	-0.713615	1.089048	-0.360722
H107	H	-0.767159	1.175852	-0.362969
H108	H	-0.731884	1.208407	-0.447351
H109	H	-0.760883	1.107588	-0.464449
H110	H	-0.698718	1.131604	-0.309367
H111	H	-0.727720	1.030774	-0.326443
H112	H	-0.393175	0.389224	-0.636641
H113	H	-0.573636	0.464253	-0.947153
C114	C	-0.511865	0.723750	-0.429704
C115	C	-0.484883	0.655340	-0.369788
H116	H	-0.527776	0.769875	-0.383427
H117	H	-0.493566	0.764525	-0.475991
H118	H	-0.532558	0.683241	-0.470314
H119	H	-0.464187	0.695849	-0.329184
H120	H	-0.503183	0.614561	-0.323482
H121	H	-0.036619	0.321228	-0.704859
H122	H	-0.262484	0.321235	-0.704846
H123	H	-0.593826	0.945669	-0.644027
C124	C	-0.201227	0.242195	-0.784126
C125	C	-0.170700	0.301859	-0.724291
H126	H	-0.185329	0.196061	-0.830418
H127	H	-0.219518	0.201430	-0.737812
H128	H	-0.219532	0.288635	-0.824741
H129	H	-0.152397	0.255420	-0.683669
H130	H	-0.152401	0.342628	-0.770610
H131	H	0.094111	0.389227	-0.636722
H132	H	-0.628983	0.945883	-0.333646
C133	C	-0.753945	0.873260	-0.485236
C134	C	-0.737003	0.934398	-0.568929
H135	H	-0.782809	0.847243	-0.503663
H136	H	-0.734411	0.815202	-0.472090
H137	H	-0.756111	0.915881	-0.423198
H138	H	-0.734833	0.891775	-0.630965
H139	H	-0.756542	0.992465	-0.582088
H140	H	-0.669513	1.078388	-0.692266
H141	H	-0.704689	0.381146	-0.947137
H142	H	-0.629092	0.333157	-1.080085
C143	C	0.232049	0.384215	-0.641747
C144	C	0.185910	0.369847	-0.656150
H145	H	0.247956	0.338064	-0.688005
H146	H	0.239739	0.455738	-0.657217
H147	H	0.239743	0.368569	-0.570252
H148	H	0.178215	0.385501	-0.727643
H149	H	0.178217	0.298308	-0.640688
H150	H	-0.121737	0.321223	-0.704858
H151	H	-0.593854	0.643623	-1.079647
H152	H	0.094200	0.635952	-0.389290
C153	C	0.155517	0.715001	-0.310038
C154	C	0.186000	0.655332	-0.369888
H155	H	0.171449	0.761140	-0.263760
H156	H	0.137215	0.755762	-0.356343
H157	H	0.137219	0.668565	-0.269407
H158	H	0.204296	0.701769	-0.410525
H159	H	0.204310	0.614568	-0.323577
H160	H	-0.177254	0.703929	-0.321045
H161	H	-0.262363	0.703919	-0.321032
H162	H	-0.393080	0.635979	-0.389235
C163	C	-0.097758	0.782986	-0.241824
C164	C	-0.128283	0.723311	-0.301654
H165	H	-0.113658	0.829144	-0.195559
H166	H	-0.079460	0.736563	-0.201191
H167	H	-0.079460	0.823737	-0.288151
H168	H	-0.146580	0.682554	-0.255328
H169	H	-0.146589	0.769740	-0.342291
