data_functionalizedCrystal
_audit_creation_method	'MofGen! by Chris Wilmer'
_symmetry_space_group_name_H-M	'P1'
_symmetry_Int_Tables_number	1
_symmetry_cell_setting	triclinic
loop_
_symmetry_equiv_pos_as_xyz
  x,y,z
_cell_length_a	14.853566
_cell_length_b	23.532407
_cell_length_c	22.010155
_cell_angle_alpha	90.010545
_cell_angle_beta	89.987140
_cell_angle_gamma	96.758458
loop_
_atom_site_label
_atom_site_type_symbol
_atom_site_fract_x
_atom_site_fract_y
_atom_site_fract_z
O1	O	1.195567	-0.074348	-0.050493
O2	O	1.695567	0.425652	0.449507
O3	O	0.933011	-0.083206	-0.050504
O4	O	1.433011	0.416794	0.449496
O5	O	1.072206	0.004120	-0.050485
O6	O	1.572206	0.504120	0.449515
O7	O	1.056371	-0.161675	-0.050512
O8	O	1.556371	0.338325	0.449488
O9	O	1.072165	0.004120	0.050565
O10	O	1.572165	0.504120	0.550565
O11	O	0.932969	-0.083206	0.050546
O12	O	1.432969	0.416794	0.550546
O13	O	1.195525	-0.074348	0.050557
O14	O	1.695525	0.425652	0.550557
Cu15	Cu	1.064243	-0.078777	0.059778
Cu16	Cu	1.564243	0.421223	0.559778
Cu17	Cu	1.064293	-0.078777	-0.059726
Cu18	Cu	1.564293	0.421223	0.440274
O19	O	1.056330	-0.161674	0.050538
O20	O	1.556330	0.338326	0.550538
C21	C	0.899405	-0.082805	0.000020
C22	C	1.399405	0.417195	0.500020
C23	C	0.799335	-0.081603	0.000016
C24	C	1.299335	0.418397	0.500016
C25	C	0.376228	-0.076517	-0.055055
C26	C	0.876228	0.423483	0.444945
C27	C	0.376204	-0.076517	0.055114
C28	C	0.876204	0.423483	0.555114
C29	C	0.470226	-0.077647	0.055112
C30	C	0.970226	0.422353	0.555112
C31	C	0.517253	-0.078212	0.000026
C32	C	1.017253	0.421788	0.500026
C33	C	0.470258	-0.077648	-0.055059
C34	C	0.970258	0.422352	0.444941
C35	C	0.517226	-0.078216	0.110195
C36	C	1.017226	0.421784	0.610195
C37	C	0.611254	-0.079346	0.110195
C38	C	1.111254	0.420654	0.610195
C39	C	0.658283	-0.079907	0.055108
C40	C	1.158283	0.420093	0.555108
C41	C	0.611283	-0.079343	0.000022
C42	C	1.111283	0.420657	0.500022
C43	C	0.658310	-0.079908	-0.055065
C44	C	1.158310	0.420092	0.444935
C45	C	0.611312	-0.079340	-0.110152
C46	C	1.111312	0.420660	0.389848
C47	C	0.517288	-0.078209	-0.110146
C48	C	1.017288	0.421791	0.389854
C49	C	0.752308	-0.081037	0.055102
C50	C	1.252308	0.418963	0.555102
C51	C	0.752340	-0.081039	-0.055068
C52	C	1.252340	0.418961	0.444932
C53	C	1.071782	0.025338	0.000042
C54	C	1.571782	0.525338	0.500042
C55	C	1.070570	0.088560	0.000048
C56	C	1.570570	0.588560	0.500048
C57	C	1.145339	0.487337	0.000028
C58	C	1.645339	0.987337	0.500028
C59	C	1.144213	0.546742	0.000025
C60	C	1.644213	1.046742	0.500025
O61	O	1.213524	0.583184	0.000006
O62	O	1.713524	1.083184	0.500006
N63	N	1.061461	0.569729	0.000022
N64	N	1.561461	1.069729	0.500022
C65	C	0.979830	0.533308	0.000017
C66	C	1.479830	1.033308	0.500017
O67	O	0.909340	0.558315	0.000014
O68	O	1.409340	1.058315	0.500014
C69	C	0.980957	0.473904	0.000016
C70	C	1.480957	0.973904	0.500016
C71	C	1.063714	0.450920	0.000024
C72	C	1.563714	0.950920	0.500024
C73	C	1.228089	0.464353	0.000036
C74	C	1.728089	0.964353	0.500036
C75	C	1.229215	0.404952	0.000040
C76	C	1.729215	0.904952	0.500040
C77	C	1.147591	0.368535	0.000037
C78	C	1.647591	0.868535	0.500037
C79	C	1.064840	0.391519	0.000029
C80	C	1.564840	0.891519	0.500029
C81	C	0.899327	0.437483	0.000006
C82	C	1.399327	0.937483	0.500006
C83	C	0.900462	0.378076	0.000004
C84	C	1.400462	0.878076	0.500004
C85	C	0.983219	0.355092	0.000013
C86	C	1.483219	0.855092	0.500013
C87	C	0.984341	0.295701	0.000029
C88	C	1.484341	0.795701	0.500029
N89	N	1.067093	0.272714	0.000032
N90	N	1.567093	0.772714	0.500032
C91	C	1.148718	0.309131	0.000035
C92	C	1.648718	0.809131	0.500035
C93	C	0.977469	0.658060	0.000018
C94	C	1.477469	1.158060	0.500018
C95	C	0.976341	0.717463	0.000024
C96	C	1.476341	1.217463	0.500024
C97	C	1.140724	0.730894	0.000031
C98	C	1.640724	1.230894	0.500031
C99	C	1.141851	0.671490	0.000029
C100	C	1.641851	1.171490	0.500029
C101	C	1.060221	0.635073	0.000021
C102	C	1.560221	1.135073	0.500021
C103	C	1.151076	0.184384	0.000045
C104	C	1.651076	0.684384	0.500045
C105	C	1.152194	0.124977	0.000052
C106	C	1.652194	0.624977	0.500052
C107	C	0.987812	0.111552	0.000042
C108	C	1.487812	0.611552	0.500042
C109	C	0.986693	0.170953	0.000038
C110	C	1.486693	0.670953	0.500038
C111	C	1.068332	0.207369	0.000038
C112	C	1.568332	0.707369	0.500038
O113	O	0.915066	0.259224	0.000046
O114	O	1.415066	0.759224	0.500046
O115	O	1.219196	0.284115	0.000030
O116	O	1.719196	0.784115	0.500030
C117	C	1.229131	-0.074750	0.000032
C118	C	1.729131	0.425250	0.500032
C119	C	1.329201	-0.075952	0.000031
C120	C	1.829201	0.424048	0.500031
C121	C	1.056754	0.817108	0.000016
C122	C	1.556754	1.317108	0.500016
C123	C	1.057966	0.753885	0.000024
C124	C	1.557966	1.253885	0.500024
N125	N	1.064215	-0.078777	0.143831
N126	N	1.564215	0.421223	0.643831
N127	N	1.064328	-0.078773	-0.143778
N128	N	1.564328	0.421227	0.356222
C129	C	1.118661	-0.113375	0.563607
C130	C	1.618661	0.386625	1.063607
C131	C	1.118671	-0.113374	0.627214
C132	C	1.618671	0.386626	1.127214
O133	O	1.164930	-0.142786	0.660103
O134	O	1.664930	0.357214	1.160103
N135	N	1.064310	-0.078771	0.659038
N136	N	1.564310	0.421229	1.159038
C137	C	1.009942	-0.044163	0.627250
C138	C	1.509942	0.455837	1.127250
O139	O	0.963706	-0.014730	0.660160
O140	O	1.463706	0.485270	1.160160
C141	C	1.009937	-0.044162	0.563644
C142	C	1.509937	0.455838	1.063644
C143	C	1.064295	-0.078771	0.531824
C144	C	1.564295	0.421229	1.031824
C145	C	1.173014	-0.147981	0.531786
C146	C	1.673014	0.352019	1.031786
C147	C	1.173002	-0.147983	0.468183
C148	C	1.673002	0.352017	0.968183
C149	C	1.118636	-0.113379	0.436400
C150	C	1.618636	0.386621	0.936400
C151	C	1.064282	-0.078773	0.468221
C152	C	1.564282	0.421227	0.968221
C153	C	0.955574	-0.009551	0.531858
C154	C	1.455574	0.490449	1.031858
C155	C	0.955574	-0.009553	0.468247
C156	C	1.455574	0.490447	0.968247
C157	C	1.009932	-0.044162	0.436427
C158	C	1.509932	0.455838	0.936427
C159	C	1.009904	-0.044171	0.372834
C160	C	1.509904	0.455829	0.872834
N161	N	1.064265	-0.078774	0.341011
N162	N	1.564265	0.421226	0.841011
C163	C	1.118631	-0.113378	0.372794
C164	C	1.618631	0.386622	0.872794
C165	C	1.009958	-0.044168	0.760828
C166	C	1.509958	0.455832	1.260828
C167	C	1.009958	-0.044171	0.824434
C168	C	1.509958	0.455829	1.324434
C169	C	1.118688	-0.113381	0.824393
C170	C	1.618688	0.386619	1.324393
C171	C	1.118683	-0.113380	0.760787
C172	C	1.618683	0.386620	1.260787
C173	C	1.064319	-0.078770	0.729005
C174	C	1.564319	0.421230	1.229005
C175	C	1.118601	-0.113380	0.239222
C176	C	1.618601	0.386620	0.739222
C177	C	1.118581	-0.113381	0.175614
C178	C	1.618581	0.386619	0.675614
C179	C	1.009855	-0.044169	0.175660
C180	C	1.509855	0.455831	0.675660
C181	C	1.009871	-0.044170	0.239263
C182	C	1.509871	0.455830	0.739263
C183	C	1.064251	-0.078777	0.271043
C184	C	1.564251	0.421223	0.771043
O185	O	0.963672	-0.014772	0.339906
O186	O	1.463672	0.485228	0.839906
O187	O	1.164869	-0.142800	0.339877
O188	O	1.664869	0.357200	0.839877
H189	H	0.478929	-0.077760	0.155044
H190	H	0.978929	0.422240	0.655044
Cl191	Cl	0.317082	-0.075813	0.124361
Cl192	Cl	0.817082	0.424187	0.624361
Cl193	Cl	0.885204	0.065760	0.000036
Cl194	Cl	1.385204	0.565760	0.500036
H195	H	0.337959	-0.076052	-0.099906
H196	H	0.837959	0.423948	0.400094
H197	H	0.649511	-0.079808	0.155051
H198	H	1.149511	0.420192	0.655051
Cl199	Cl	0.811385	-0.081756	0.124349
Cl200	Cl	1.311385	0.418244	0.624349
Cl201	Cl	0.941511	-0.000670	0.135692
Cl202	Cl	1.441511	0.499330	0.635692
H203	H	0.910992	0.628413	0.000017
H204	H	1.410992	1.128413	0.500017
H205	H	1.162945	-0.141563	0.734883
H206	H	1.662945	0.358437	1.234883
H207	H	1.162845	-0.141566	0.149708
H208	H	1.662845	0.358434	0.649708
H209	H	1.217290	-0.176160	0.557657
H210	H	1.717290	0.323840	1.057657
H211	H	1.162883	-0.141560	0.265090
H212	H	1.662883	0.358440	0.765090
Cl213	Cl	1.330718	0.510124	0.000041
Cl214	Cl	1.830718	1.010124	0.500041
H215	H	1.217270	-0.176163	0.442281
H216	H	1.717270	0.323837	0.942281
Cl217	Cl	1.243339	0.776686	0.000031
Cl218	Cl	1.743339	1.276686	0.500031
H219	H	1.162955	-0.141559	0.850282
H220	H	1.662955	0.358441	1.350282
Cl221	Cl	0.941606	-0.000670	0.864428
Cl222	Cl	1.441606	0.499330	1.364428
H223	H	1.209239	0.652781	0.000036
H224	H	1.709239	1.152781	0.500036
H225	H	0.965597	-0.015996	0.265172
H226	H	1.465597	0.484004	0.765172
H227	H	0.965680	-0.015986	0.734955
H228	H	1.465680	0.484014	1.234955
H229	H	0.831938	0.456186	-0.000005
H230	H	1.331938	0.956186	0.499995
H231	H	0.833987	0.348428	-0.000003
H232	H	1.333987	0.848428	0.499997
H233	H	0.790623	-0.081498	-0.099927
H234	H	1.290623	0.418502	0.400073
H235	H	0.649613	-0.079804	-0.155003
H236	H	1.149613	0.420196	0.344997
H237	H	0.911312	0.018632	0.557755
H238	H	1.411312	0.518632	1.057755
H239	H	0.911304	0.018632	0.442374
H240	H	1.411304	0.518632	0.942374
H241	H	1.219588	0.106267	0.000060
H242	H	1.719588	0.606267	0.500060
Cl243	Cl	0.458205	-0.077473	-0.179391
Cl244	Cl	0.958205	0.422527	0.320609
H245	H	1.217555	0.214027	0.000042
H246	H	1.717555	0.714027	0.500042
H247	H	1.296604	0.386244	0.000045
H248	H	1.796604	0.886244	0.500045
H249	H	0.908952	0.736171	0.000027
H250	H	1.408952	1.236171	0.500027
Cl251	Cl	0.882654	0.199848	0.000039
Cl252	Cl	1.382654	0.699848	0.500039
