data_functionalizedCrystal
_audit_creation_method	'MofGen! by Chris Wilmer'
_symmetry_space_group_name_H-M	'P1'
_symmetry_Int_Tables_number	1
_symmetry_cell_setting	triclinic
loop_
_symmetry_equiv_pos_as_xyz
  x,y,z
_cell_length_a	10.967926
_cell_length_b	8.559649
_cell_length_c	7.088929
_cell_angle_alpha	84.655815
_cell_angle_beta	108.299392
_cell_angle_gamma	77.415431
loop_
_atom_site_label
_atom_site_type_symbol
_atom_site_fract_x
_atom_site_fract_y
_atom_site_fract_z
O1	O	1.669548	0.183835	0.391092
O2	O	1.292994	0.217963	0.267025
O3	O	1.514446	-0.032469	0.339991
O4	O	1.448096	0.434268	0.318126
O5	O	1.544048	-0.066011	0.667720
O6	O	1.322596	0.184421	0.594754
O7	O	1.699150	0.150293	0.718821
Cu8	Cu	1.513576	0.164295	0.686712
Cu9	Cu	1.478568	0.203962	0.299135
O10	O	1.477698	0.400726	0.645855
C11	C	1.260034	0.201244	0.415153
C12	C	1.117723	0.201378	0.368264
C13	C	1.534275	-0.108885	0.505509
C14	C	1.549241	-0.286610	0.510429
C15	C	1.069611	0.184061	0.517133
C16	C	0.922526	0.184199	0.468675
C17	C	1.732110	0.167013	0.570689
C18	C	1.874419	0.166881	0.617565
C19	C	1.457869	0.477143	0.480333
C20	C	1.442902	0.654868	0.475400
N21	N	1.538208	0.136394	0.959316
N22	N	1.453947	0.231850	0.026534
H23	H	1.340410	-0.259269	0.441637
O24	O	1.685021	-0.400338	0.555179
H25	H	1.675871	-0.526769	0.552166
O26	O	1.338265	0.362867	0.880258
H27	H	1.346024	0.483296	0.921091
H28	H	1.625548	0.037478	1.069749
O29	O	1.159271	0.164304	0.733486
H30	H	1.243156	0.054043	0.769304
O31	O	0.832868	0.203982	0.252307
H32	H	0.731409	0.200999	0.248197
O33	O	0.964060	0.147129	0.833937
H34	H	1.047949	0.036869	0.869780
O35	O	1.028062	0.221158	0.151907
H36	H	0.926603	0.218176	0.147798
