data_functionalizedCrystal
_audit_creation_method	'MofGen! by Chris Wilmer'
_symmetry_space_group_name_H-M	'P1'
_symmetry_Int_Tables_number	1
_symmetry_cell_setting	triclinic
loop_
_symmetry_equiv_pos_as_xyz
  x,y,z
_cell_length_a	19.188930
_cell_length_b	9.065218
_cell_length_c	7.540329
_cell_angle_alpha	90.001757
_cell_angle_beta	90.016835
_cell_angle_gamma	84.080333
loop_
_atom_site_label
_atom_site_type_symbol
_atom_site_fract_x
_atom_site_fract_y
_atom_site_fract_z
O1	O	-0.927574	-0.184174	-0.148046
O2	O	-0.427574	0.315826	0.351954
O3	O	-0.724456	-0.208967	-0.147924
O4	O	-0.224456	0.291033	0.352076
O5	O	-0.830213	0.018217	-0.147984
O6	O	-0.330213	0.518217	0.352016
O7	O	-0.821816	-0.411359	-0.147986
O8	O	-0.321816	0.088641	0.352014
O9	O	-0.830207	0.018220	0.146981
O10	O	-0.330207	0.518220	0.646981
O11	O	-0.724449	-0.208965	0.147041
O12	O	-0.224449	0.291035	0.647041
O13	O	-0.927568	-0.184171	0.146919
O14	O	-0.427568	0.315829	0.646919
Cu15	Cu	-0.826008	-0.196568	0.173912
Cu16	Cu	-0.326008	0.303432	0.673912
Cu17	Cu	-0.826015	-0.196571	-0.174918
Cu18	Cu	-0.326015	0.303429	0.325082
O19	O	-0.821810	-0.411356	0.146979
O20	O	-0.321810	0.088644	0.646979
C21	C	-0.698435	-0.208163	-0.000426
C22	C	-0.198435	0.291837	0.499574
C23	C	-0.620912	-0.205753	-0.000379
C24	C	-0.120912	0.294247	0.499621
C25	C	-0.953588	-0.184976	-0.000583
C26	C	-0.453588	0.315024	0.499417
C27	C	-1.031112	-0.187386	-0.000642
C28	C	-0.531112	0.312614	0.499358
C29	C	-0.829403	0.073177	-0.000504
C30	C	-0.329403	0.573177	0.499496
C31	C	-0.826990	0.236936	-0.000511
C32	C	-0.326990	0.736936	0.499489
C33	C	-0.577024	-0.339058	-0.000408
C34	C	-0.077024	0.160942	0.499592
C35	C	-0.504182	-0.336793	-0.000427
C36	C	-0.004182	0.163207	0.499573
C37	C	-0.475232	-0.201217	-0.000454
C38	C	0.024768	0.298783	0.499546
C39	C	-0.519130	-0.067895	-0.000415
C40	C	-0.019130	0.432105	0.499585
C41	C	-0.591970	-0.070163	-0.000378
C42	C	-0.091970	0.429837	0.499622
N43	N	-0.366449	-0.097586	-0.100914
N44	N	0.133551	0.402414	0.399086
N45	N	-0.297254	-0.095441	-0.100953
N46	N	0.202746	0.404559	0.399047
C47	C	-0.255771	-0.194375	-0.000562
C48	C	0.244229	0.305625	0.499438
N49	N	-0.286095	-0.295558	0.099847
N50	N	0.213905	0.204442	0.599847
N51	N	-0.355297	-0.297708	0.099878
N52	N	0.144703	0.202292	0.599878
C53	C	-0.396251	-0.198742	-0.000493
C54	C	0.103749	0.301258	0.499507
C55	C	-0.132899	-0.325234	-0.000610
C56	C	0.367101	0.174766	0.499390
C57	C	-0.060056	-0.322964	-0.000618
C58	C	0.439944	0.177036	0.499382
C59	C	-0.075006	-0.054061	-0.000624
C60	C	0.424994	0.445939	0.499376
C61	C	-0.147847	-0.056335	-0.000598
C62	C	0.352153	0.443665	0.499402
C63	C	-0.176789	-0.191925	-0.000599
C64	C	0.323211	0.308075	0.499401
C65	C	-0.822620	-0.466316	-0.000505
C66	C	-0.322620	0.033684	0.499495
C67	C	-0.825033	-0.630075	-0.000510
C68	C	-0.325033	-0.130075	0.499490
N69	N	-0.826008	-0.196565	0.419261
N70	N	-0.326008	0.303435	0.919261
N71	N	-0.826021	-0.196563	-0.420266
N72	N	-0.326021	0.303437	0.079734
H73	H	-0.600583	-0.449466	-0.000412
H74	H	-0.100583	0.050534	0.499588
H75	H	-0.183582	0.052216	-0.000584
H76	H	0.316418	0.552216	0.499416
C77	C	-0.043170	0.095070	-0.000664
C78	C	0.456830	0.595070	0.499336
H79	H	0.006497	0.077331	-0.000703
H80	H	0.506497	0.577331	0.499297
H81	H	-0.058158	0.149951	0.102196
H82	H	0.441842	0.649951	0.602196
H83	H	-0.058198	0.149928	-0.103539
H84	H	0.441802	0.649928	0.396461
H85	H	-0.627705	0.038393	-0.000356
H86	H	-0.127705	0.538393	0.499644
C87	C	-0.011779	-0.469607	-0.000650
C88	C	0.488221	0.030393	0.499350
H89	H	-0.039451	-0.550677	-0.000662
H90	H	0.460549	-0.050677	0.499338
H91	H	0.016966	-0.474321	0.102198
H92	H	0.516966	0.025679	0.602198
H93	H	0.016927	-0.474300	-0.103537
H94	H	0.516927	0.025700	0.396463
C95	C	-0.455896	-0.483433	-0.000486
C96	C	0.044104	0.016567	0.499514
H97	H	-0.483566	-0.564509	-0.000496
H98	H	0.016434	-0.064509	0.499504
H99	H	-0.427145	-0.488153	0.102350
H100	H	0.072855	0.011847	0.602350
H101	H	-0.427198	-0.488114	-0.103384
H102	H	0.072802	0.011886	0.396616
C103	C	-0.164742	-0.474369	-0.000589
C104	C	0.335258	0.025631	0.499411
H105	H	-0.214409	-0.456629	-0.000587
H106	H	0.285591	0.043371	0.499413
H107	H	-0.149716	-0.529238	0.102269
H108	H	0.350284	-0.029238	0.602269
H109	H	-0.149751	-0.529239	-0.103466
H110	H	0.350249	-0.029239	0.396534
C111	C	-0.487288	0.081235	-0.000455
C112	C	0.012712	0.581235	0.499545
H113	H	-0.437621	0.063495	-0.000501
H114	H	0.062379	0.563495	0.499499
H115	H	-0.502274	0.136111	0.102410
H116	H	-0.002274	0.636111	0.602410
H117	H	-0.502319	0.136098	-0.103325
H118	H	-0.002319	0.636098	0.396675
