data_functionalizedCrystal
_audit_creation_method	'MofGen! by Chris Wilmer'
_symmetry_space_group_name_H-M	'P1'
_symmetry_Int_Tables_number	1
_symmetry_cell_setting	triclinic
loop_
_symmetry_equiv_pos_as_xyz
  x,y,z
_cell_length_a	21.395361
_cell_length_b	21.395362
_cell_length_c	21.395355
_cell_angle_alpha	89.956060
_cell_angle_beta	90.021511
_cell_angle_gamma	89.953415
loop_
_atom_site_label
_atom_site_type_symbol
_atom_site_fract_x
_atom_site_fract_y
_atom_site_fract_z
Zn1	Zn	-0.249246	-0.957859	0.354573
Zn2	Zn	0.250754	-0.457859	0.854573
Zn3	Zn	-0.354005	-0.957762	0.249790
Zn4	Zn	0.145995	-0.457762	0.749790
Zn5	Zn	-0.249275	-0.853074	0.249774
Zn6	Zn	0.250725	-0.353074	0.749774
Zn7	Zn	-0.354018	-0.853044	0.354494
Zn8	Zn	0.145982	-0.353044	0.854494
O9	O	-0.301636	-0.905435	0.302158
O10	O	0.198364	-0.405435	0.802158
O11	O	-0.263125	-1.045524	0.340712
O12	O	0.236875	-0.545524	0.840712
O13	O	-0.340119	-0.943847	0.162110
O14	O	0.159881	-0.443847	0.662110
O15	O	-0.161593	-0.867028	0.263702
O16	O	0.338407	-0.367028	0.763702
O17	O	-0.340091	-1.045453	0.263729
O18	O	0.159909	-0.545453	0.763729
O19	O	-0.161572	-0.944013	0.340697
O20	O	0.338428	-0.444013	0.840697
O21	O	-0.263174	-0.866934	0.162098
O22	O	0.236826	-0.366934	0.662098
O23	O	-0.263187	-0.765392	0.263626
O24	O	0.236813	-0.265392	0.763626
O25	O	-0.340113	-0.866976	0.442183
O26	O	0.159887	-0.366976	0.942183
O27	O	-0.340141	-0.765370	0.340564
O28	O	0.159859	-0.265370	0.840564
O29	O	-0.263137	-0.943983	0.442240
O30	O	0.236863	-0.443983	0.942240
O31	O	-0.441685	-0.943817	0.263653
O32	O	0.058315	-0.443817	0.763653
O33	O	-0.441695	-0.866881	0.340579
O34	O	0.058305	-0.366881	0.840579
C35	C	-0.301669	-0.742647	0.302085
C36	C	0.198331	-0.242647	0.802085
C37	C	-0.301698	-0.673006	0.302069
C38	C	0.198302	-0.173006	0.802069
C39	C	-0.464424	-0.905352	0.302123
C40	C	0.035576	-0.405352	0.802123
C41	C	-0.534065	-0.905374	0.302129
C42	C	-0.034065	-0.405374	0.802129
C43	C	-0.301623	-0.905487	0.465581
C44	C	0.198377	-0.405487	0.965581
C45	C	-0.301618	-0.905509	0.535222
C46	C	0.198382	-0.405509	1.035222
C47	C	-0.566752	-0.945470	0.262114
C48	C	-0.066752	-0.445470	0.762114
C49	C	-0.632188	-0.945499	0.262128
C50	C	-0.132188	-0.445499	0.762128
C51	C	-0.664933	-0.905421	0.302150
C52	C	-0.164933	-0.405421	0.802150
C53	C	-0.632238	-0.865322	0.342172
C54	C	-0.132238	-0.365322	0.842172
C55	C	-0.566804	-0.865299	0.342162
C56	C	-0.066804	-0.365299	0.842162
C57	C	-0.768664	-0.849006	0.307041
C58	C	-0.268664	-0.349006	0.807041
C59	C	-0.834097	-0.849029	0.307047
C60	C	-0.334097	-0.349029	0.807047
C61	C	-0.866754	-0.905494	0.302187
C62	C	-0.366754	-0.405494	0.802187
C63	C	-0.833970	-0.961939	0.297307
C64	C	-0.333970	-0.461939	0.797307
C65	C	-0.768536	-0.961915	0.297296
C66	C	-0.268536	-0.461915	0.797296
C67	C	-0.735886	-0.905443	0.302167
C68	C	-0.235886	-0.405443	0.802167
C69	C	-0.970394	-0.945625	0.262186
C70	C	-0.470394	-0.445625	0.762186
C71	C	-1.035830	-0.945655	0.262204
C72	C	-0.535830	-0.445655	0.762204
C73	C	-1.035879	-0.865473	0.342245
C74	C	-0.535879	-0.365473	0.842245
C75	C	-0.970444	-0.865448	0.342230
C76	C	-0.470444	-0.365448	0.842230
C77	C	-0.937705	-0.905524	0.302197
C78	C	-0.437705	-0.405524	0.802197
C79	C	-0.138213	-0.905535	0.302206
C80	C	0.361787	-0.405535	0.802206
C81	C	-0.068571	-0.905578	0.302227
C82	C	0.431429	-0.405578	0.802227
C83	C	-0.301603	-1.068858	0.302231
C84	C	0.198397	-0.568858	0.802231
C85	C	-0.301589	-1.138499	0.302262
C86	C	0.198411	-0.638499	0.802262
C87	C	-0.341822	-0.640297	0.342070
C88	C	0.158178	-0.140297	0.842070
C89	C	-0.341806	-0.574862	0.342098
C90	C	0.158194	-0.074862	0.842098
C91	C	-0.301674	-0.542138	0.302113
C92	C	0.198326	-0.042138	0.802113
C93	C	-0.261543	-0.574854	0.262109
C94	C	0.238457	-0.074854	0.762109
C95	C	-0.261555	-0.640288	0.262087
C96	C	0.238445	-0.140288	0.762087
C97	C	-0.296627	-0.438413	0.245708
C98	C	0.203373	0.061587	0.745708
C99	C	-0.296619	-0.372980	0.245730
C100	C	0.203381	0.127020	0.745730
C101	C	-0.301633	-0.340317	0.302182
C102	C	0.198367	0.159683	0.802182
C103	C	-0.306668	-0.373095	0.358616
C104	C	0.193332	0.126905	0.858616
C105	C	-0.306681	-0.438529	0.358594
C106	C	0.193319	0.061471	0.858594
C107	C	-0.301656	-0.471185	0.302133
C108	C	0.198344	0.028815	0.802133
C109	C	-0.341742	-0.236656	0.342218
C110	C	0.158258	0.263344	0.842218
C111	C	-0.341723	-0.171219	0.342247
C112	C	0.158277	0.328781	0.842247
C113	C	-0.261462	-0.171213	0.262252
C114	C	0.238538	0.328787	0.762252
C115	C	-0.261479	-0.236648	0.262229
C116	C	0.238521	0.263352	0.762229
C117	C	-0.301622	-0.269366	0.302211
C118	C	0.198378	0.230634	0.802211
C119	C	-0.301603	-0.905419	0.139370
C120	C	0.198397	-0.405419	0.639370
C121	C	-0.301432	-0.905518	0.069729
C122	C	0.198568	-0.405518	0.569729
C123	C	-0.261535	-0.945605	0.567966
C124	C	0.238465	-0.445605	1.067966
C125	C	-0.261508	-0.945604	0.633402
C126	C	0.238492	-0.445604	1.133402
C127	C	-0.301575	-0.905514	0.666091
C128	C	0.198425	-0.405514	1.166091
C129	C	-0.341661	-0.865410	0.633339
C130	C	0.158339	-0.365410	1.133339
C131	C	-0.341682	-0.865407	0.567904
C132	C	0.158318	-0.365407	1.067904
C133	C	-0.357992	-0.900538	0.769752
C134	C	0.142008	-0.400538	1.269752
C135	C	-0.357972	-0.900545	0.835185
C136	C	0.142028	-0.400545	1.335185
C137	C	-0.301509	-0.905518	0.867911
C138	C	0.198491	-0.405518	1.367911
C139	C	-0.245065	-0.910497	0.835197
C140	C	0.254935	-0.410497	1.335197
C141	C	-0.245086	-0.910495	0.769763
C142	C	0.254914	-0.410495	1.269763
C143	C	-0.301556	-0.905512	0.737043
C144	C	0.198444	-0.405512	1.237043
C145	C	-0.261393	-0.945615	0.971608
C146	C	0.238607	-0.445615	1.471608
C147	C	-0.261365	-0.945610	1.037045
C148	C	0.238635	-0.445610	1.537045
C149	C	-0.341524	-0.865419	1.036980
C150	C	0.158476	-0.365419	1.536980
C151	C	-0.341547	-0.865421	0.971545
C152	C	0.158453	-0.365421	1.471545
C153	C	-0.301482	-0.905522	0.938863
C154	C	0.198518	-0.405522	1.438863
H155	H	-0.540098	-0.978103	0.229519
H156	H	-0.040098	-0.478103	0.729519
H157	H	-0.199128	-0.914547	0.743130
H158	H	0.300872	-0.414547	1.243130
C159	C	-0.420110	-0.895079	0.733758
C160	C	0.079890	-0.395079	1.233758
N161	N	-0.466897	-0.890972	0.706649
N162	N	0.033103	-0.390972	1.206649
H163	H	-0.292523	-0.346297	0.199778
H164	H	0.207477	0.153703	0.699778
H165	H	-0.540189	-0.832647	0.374747
H166	H	-0.040189	-0.332647	0.874747
H167	H	-0.742081	-0.803022	0.311001
H168	H	-0.242081	-0.303022	0.811001
C169	C	-0.668259	-0.821234	0.386194
C170	C	-0.168259	-0.321234	0.886194
N171	N	-0.695391	-0.788026	0.419354
N172	N	-0.195391	-0.288026	0.919354
H173	H	-0.374509	-0.666932	0.374627
H174	H	0.125491	-0.166932	0.874627
H175	H	-0.374395	-0.144589	0.374824
H176	H	0.125605	0.355411	0.874824
C177	C	-0.420061	-0.895067	0.871164
C178	C	0.079939	-0.395067	1.371164
N179	N	-0.466828	-0.890940	0.898262
N180	N	0.033172	-0.390940	1.398262
H181	H	-0.374322	-0.832753	0.541245
H182	H	0.125678	-0.332753	1.041245
H183	H	-0.374479	-0.548226	0.374674
H184	H	0.125521	-0.048226	0.874674
C185	C	-0.217398	-0.538856	0.218126
C186	C	0.282602	-0.038856	0.718126
N187	N	-0.184144	-0.511742	0.184997
N188	N	0.315856	-0.011742	0.684997
H189	H	-0.199088	-0.914548	0.861842
H190	H	0.300912	-0.414548	1.361842
C191	C	-0.385733	-0.821307	0.669298
C192	C	0.114267	-0.321307	1.169298
N193	N	-0.418926	-0.788086	0.696382
N194	N	0.081074	-0.288086	1.196382
H195	H	-0.228783	-0.144569	0.229699
H196	H	0.271217	0.355431	0.729699
C197	C	-0.869887	-1.024056	0.291965
C198	C	-0.369887	-0.524056	0.791965
N199	N	-0.896943	-1.070841	0.287943
N200	N	-0.396943	-0.570841	0.787943
H201	H	-0.658807	-0.978153	0.229544
H202	H	-0.158807	-0.478153	0.729544
C203	C	-0.217267	-0.989720	1.073063
C204	C	0.282733	-0.489720	1.573063
N205	N	-0.184052	-1.022946	1.100193
N206	N	0.315948	-0.522946	1.600193
H207	H	-0.228880	-0.666919	0.229513
H208	H	0.271120	-0.166919	0.729513
H209	H	-0.310751	-0.346502	0.404585
H210	H	0.189249	0.153498	0.904585
C211	C	-0.732476	-1.024002	0.291928
C212	C	-0.232476	-0.524002	0.791928
N213	N	-0.705315	-1.070768	0.287886
N214	N	-0.205315	-0.570768	0.787886
H215	H	-0.310778	-0.465214	0.404543
H216	H	0.189222	0.034786	0.904543
C217	C	-0.385893	-0.272648	0.386205
C218	C	0.114107	0.227352	0.886205
N219	N	-0.419146	-0.299755	0.419339
N220	N	0.080854	0.200245	0.919339
H221	H	-0.943737	-0.978259	0.229590
H222	H	-0.443737	-0.478259	0.729590
H223	H	-0.860785	-0.803068	0.311015
H224	H	-0.360785	-0.303068	0.811015
C225	C	-1.071786	-0.989766	0.218182
C226	C	-0.571786	-0.489766	0.718182
N227	N	-1.098869	-1.022990	0.185023
N228	N	-0.598869	-0.522990	0.685023
C229	C	-0.217345	-0.272629	0.218217
C230	C	0.282655	0.227371	0.718217
N231	N	-0.184101	-0.299729	0.185067
N232	N	0.315899	0.200271	0.685067
C233	C	-0.934486	-0.821351	0.386262
C234	C	-0.434486	-0.321351	0.886262
N235	N	-0.907404	-0.788143	0.419437
N236	N	-0.407404	-0.288143	0.919437
C237	C	-0.291113	-0.474336	0.183601
C238	C	0.208887	0.025664	0.683601
N239	N	-0.286961	-0.501392	0.136824
N240	N	0.213039	-0.001392	0.636824
H241	H	-0.228910	-0.978258	0.541360
H242	H	0.271090	-0.478258	1.041360
C243	C	-0.385645	-0.821314	0.935525
C244	C	0.114355	-0.321314	1.435525
N245	N	-0.418860	-0.788089	0.908395
N246	N	0.081140	-0.288089	1.408395
H247	H	-1.062540	-0.832843	0.374834
H248	H	-0.562540	-0.332843	0.874834
C249	C	-0.217316	-0.989722	0.935655
C250	C	0.282684	-0.489722	1.435655
N251	N	-0.184116	-1.022942	0.908578
N252	N	0.315884	-0.522942	1.408578
C253	C	-0.217415	-0.989719	0.669427
C254	C	0.282585	-0.489719	1.169427
N255	N	-0.184206	-1.022948	0.696560
N256	N	0.315794	-0.522948	1.196560
C257	C	-0.385600	-0.821319	1.072934
C258	C	0.114400	-0.321319	1.572934
N259	N	-0.418798	-0.788102	1.100018
N260	N	0.081202	-0.288102	1.600018
