data_functionalizedCrystal
_audit_creation_method	'MofGen! by Chris Wilmer'
_symmetry_space_group_name_H-M	'P1'
_symmetry_Int_Tables_number	1
_symmetry_cell_setting	triclinic
loop_
_symmetry_equiv_pos_as_xyz
  x,y,z
_cell_length_a	10.654550
_cell_length_b	18.266242
_cell_length_c	10.654550
_cell_angle_alpha	90.003376
_cell_angle_beta	84.484929
_cell_angle_gamma	90.005777
loop_
_atom_site_label
_atom_site_type_symbol
_atom_site_fract_x
_atom_site_fract_y
_atom_site_fract_z
O1	O	1.667849	0.060821	0.176401
O2	O	2.167849	0.560821	0.676401
O3	O	1.302371	0.060834	0.193207
O4	O	1.802371	0.560834	0.693207
O5	O	1.493513	0.060828	0.002065
O6	O	1.993513	0.560828	0.502065
O7	O	1.476707	0.060827	0.367543
O8	O	1.976707	0.560827	0.867543
O9	O	1.493480	-0.060934	0.002055
O10	O	1.993480	0.439066	0.502055
O11	O	1.302338	-0.060928	0.193197
O12	O	1.802338	0.439072	0.693197
O13	O	1.667816	-0.060941	0.176391
O14	O	2.167816	0.439059	0.676391
Zn15	Zn	1.485072	-0.080267	0.184792
Zn16	Zn	1.985072	0.419733	0.684792
Zn17	Zn	1.485115	0.080160	0.184806
Zn18	Zn	1.985115	0.580160	0.684806
O19	O	1.476674	-0.060935	0.367533
O20	O	1.976674	0.439065	0.867533
C21	C	1.255556	-0.000045	0.191968
C22	C	1.755556	0.499955	0.691968
C23	C	1.116113	-0.000040	0.188276
C24	C	1.616113	0.499960	0.688276
N25	N	1.485052	-0.189754	0.184782
N26	N	1.985052	0.310246	0.684782
C27	C	1.036628	-0.000042	0.300818
C28	C	1.536628	0.499958	0.800818
C29	C	0.905607	-0.000055	0.297341
C30	C	1.405607	0.499945	0.797341
C31	C	0.933570	-0.000060	0.068772
C32	C	1.433570	0.499940	0.568772
C33	C	1.064588	-0.000053	0.072250
C34	C	1.564588	0.499947	0.572250
C35	C	1.569718	-0.228065	0.100187
C36	C	2.069718	0.271935	0.600187
C37	C	1.569726	-0.304710	0.100181
C38	C	2.069726	0.195290	0.600181
C39	C	1.485080	-0.343041	0.184793
C40	C	1.985080	0.156959	0.684793
C41	C	1.400398	-0.304720	0.269395
C42	C	1.900398	0.195280	0.769395
C43	C	1.400384	-0.228076	0.269389
C44	C	1.900384	0.271924	0.769389
N45	N	1.470062	-0.463373	0.295783
N46	N	1.970062	0.036627	0.795783
N47	N	1.470083	-0.536181	0.295784
N48	N	1.970083	-0.036181	0.795784
C49	C	1.485115	-0.573963	0.184811
C50	C	1.985115	-0.073963	0.684811
N51	N	1.500151	-0.536187	0.073834
N52	N	2.000151	-0.036187	0.573834
N53	N	1.500136	-0.463372	0.073834
N54	N	2.000136	0.036628	0.573834
C55	C	1.485085	-0.426148	0.184807
C56	C	1.985085	0.073852	0.684807
C57	C	1.569795	-0.695382	0.100202
C58	C	2.069795	-0.195382	0.600202
C59	C	1.569794	-0.772028	0.100195
C60	C	2.069794	-0.272028	0.600195
C61	C	1.400472	-0.772036	0.269419
C62	C	1.900472	-0.272036	0.769419
C63	C	1.400466	-0.695391	0.269416
C64	C	1.900466	-0.195391	0.769416
C65	C	1.485134	-0.657069	0.184809
C66	C	1.985134	-0.157069	0.684809
C67	C	1.714631	-0.000060	0.177630
C68	C	2.214631	0.499940	0.677630
C69	C	1.854074	-0.000060	0.181322
C70	C	2.354074	0.499940	0.681322
C71	C	1.492263	-0.000051	-0.044738
C72	C	1.992263	0.499949	0.455262
C73	C	1.488571	-0.000046	-0.184181
C74	C	1.988571	0.499954	0.315819
N75	N	1.485145	0.189647	0.184806
N76	N	1.985145	0.689647	0.684806
C77	C	1.483372	0.066321	-0.380716
C78	C	1.983372	0.566321	0.119284
C79	C	1.486854	0.066325	-0.249696
C80	C	1.986854	0.566325	0.250304
C81	C	1.486819	-0.066426	-0.249695
C82	C	1.986819	0.433574	0.250305
C83	C	1.483346	-0.066430	-0.380714
C84	C	1.983346	0.433570	0.119286
C85	C	1.477925	-0.000054	0.414336
C86	C	1.977925	0.499946	0.914336
C87	C	1.481616	-0.000054	0.553779
C88	C	1.981616	0.499946	1.053779
H89	H	1.078574	-0.000038	0.395294
H90	H	1.578574	0.499962	0.895294
H91	H	0.840894	-0.000058	0.388984
H92	H	1.340894	0.499942	0.888984
H93	H	0.891602	-0.000075	-0.025693
H94	H	1.391602	0.499925	0.474307
H95	H	1.331546	-0.803244	0.338307
H96	H	1.831546	-0.303244	0.838307
H97	H	1.481962	0.120368	-0.434048
H98	H	1.981962	0.620368	0.065952
F99	F	1.488726	0.136971	-0.179988
F100	F	1.988726	0.636971	0.320012
H101	H	1.638733	-0.664178	0.031306
H102	H	2.138733	-0.164178	0.531306
H103	H	1.488225	-0.120467	-0.196344
H104	H	1.988225	0.379533	0.303656
F105	F	1.149188	-0.000055	-0.047539
F106	F	1.649188	0.499945	0.452461
F107	F	1.659823	-0.187281	0.010137
F108	F	2.159823	0.312719	0.510137
H109	H	1.331475	-0.335932	0.338285
H110	H	1.831475	0.164068	0.838285
H111	H	1.481921	-0.120484	-0.434050
H112	H	1.981921	0.379516	0.065950
F113	F	1.310267	-0.187300	0.359432
F114	F	1.810267	0.312700	0.859432
F115	F	1.659904	-0.812804	0.010146
F116	F	2.159904	-0.312804	0.510146
F117	F	1.659844	-0.345491	0.010138
F118	F	2.159844	0.154509	0.510138
H119	H	1.331528	-0.664196	0.338307
H120	H	1.831528	-0.164196	0.838307
