data_functionalizedCrystal
_audit_creation_method	'MofGen! by Chris Wilmer'
_symmetry_space_group_name_H-M	'P1'
_symmetry_Int_Tables_number	1
_symmetry_cell_setting	triclinic
loop_
_symmetry_equiv_pos_as_xyz
  x,y,z
_cell_length_a	6.817900
_cell_length_b	17.110477
_cell_length_c	23.357886
_cell_angle_alpha	99.453509
_cell_angle_beta	87.785507
_cell_angle_gamma	99.060298
loop_
_atom_site_label
_atom_site_type_symbol
_atom_site_fract_x
_atom_site_fract_y
_atom_site_fract_z
V1	V	-3.834892	-0.112020	-0.178847
O2	O	-3.848665	0.002771	-0.175518
O3	O	-3.765978	-0.219604	-0.177550
O4	O	-3.712730	-0.111442	-0.256881
O5	O	-3.902282	-0.106139	-0.095638
V6	V	-4.330736	-0.098154	-0.168903
O7	O	-4.069124	-0.142435	-0.200659
O8	O	-4.546702	-0.067738	-0.147091
O9	O	-4.176443	0.009431	-0.170200
O10	O	-4.434360	-0.212945	-0.172232
O11	O	-4.380743	-0.104034	-0.252112
O12	O	-4.229691	-0.098731	-0.090869
C13	C	-3.608375	-0.245795	-0.174710
C14	C	-3.632825	-0.333754	-0.174170
C15	C	-3.521383	-0.108083	-0.340897
C16	C	-3.540451	-0.107831	-0.275903
V17	V	-3.756375	-0.113063	-0.446321
O18	O	-3.774919	-0.107826	-0.529516
O19	O	-3.680889	-0.111871	-0.365344
O20	O	-3.680411	-0.220740	-0.469016
O21	O	-3.775400	0.001796	-0.425127
V22	V	-4.243252	-0.099321	-0.466935
O23	O	-3.999522	-0.143364	-0.437756
O24	O	-4.446640	-0.069073	-0.487983
O25	O	-4.097347	-0.100487	-0.541723
O26	O	-4.341150	-0.104572	-0.386995
O27	O	-4.340669	-0.214194	-0.491384
O28	O	-4.097825	0.008381	-0.438051
C29	C	-3.822892	-0.379149	-0.176776
C30	C	-3.845853	-0.461796	-0.176272
C31	C	-3.678745	-0.499047	-0.173158
C32	C	-3.488662	-0.453647	-0.170554
C33	C	-3.465703	-0.371002	-0.171062
C34	C	-3.739132	-0.748379	-0.171485
C35	C	-3.762106	-0.831030	-0.170976
C36	C	-4.119296	-0.839173	-0.176695
C37	C	-4.096321	-0.756526	-0.177200
C38	C	-3.906241	-0.711134	-0.174598
C39	C	-3.702211	-0.583526	-0.172642
C40	C	-3.882777	-0.626658	-0.175119
C41	C	-3.997389	0.035618	-0.173038
C42	C	-3.952174	0.123576	-0.173582
C43	C	-4.065314	-0.102353	-0.071843
C44	C	-4.063286	-0.102109	-0.008049
C45	C	-3.520760	-0.246951	-0.473141
C46	C	-3.539092	-0.334990	-0.493424
C47	C	-3.922945	-0.104236	-0.556834
C48	C	-3.883630	-0.104486	-0.620053
C49	C	-3.886177	-0.105990	0.019004
C50	C	-3.884288	-0.105769	0.078944
C51	C	-4.059513	-0.101673	0.111830
C52	C	-4.236635	-0.097788	0.084773
C53	C	-4.238519	-0.098004	0.024834
C54	C	-4.062636	-0.100818	0.292952
C55	C	-4.060739	-0.100605	0.352894
C56	C	-3.708391	-0.108585	0.347061
C57	C	-3.710294	-0.108804	0.287121
C58	C	-3.887412	-0.104916	0.260070
C59	C	-4.057588	-0.101449	0.173098
C60	C	-3.889332	-0.105134	0.198804
C61	C	-3.923556	0.034637	-0.424591
C62	C	-3.884632	0.122680	-0.403738
C63	C	-3.726262	-0.380410	-0.505946
C64	C	-3.743511	-0.463130	-0.525013
C65	C	-3.573590	-0.500430	-0.531552
C66	C	-3.386405	-0.455003	-0.519029
C67	C	-3.369156	-0.372284	-0.499967
C68	C	-3.693053	0.160002	-0.387106
C69	C	-3.656446	0.242728	-0.367519
C70	C	-3.811424	0.288130	-0.364560
C71	C	-4.003017	0.250802	-0.381195
C72	C	-4.039618	0.168078	-0.400785
H73	H	-3.958976	-0.348824	-0.179306
F74	F	-3.523795	-0.113168	0.252126
H75	H	-3.895942	-0.500106	-0.535205
H76	H	-3.587663	-0.567786	-0.547074
F77	F	-3.772440	0.376172	-0.343708
H78	H	-4.000622	-0.498753	-0.178395
F79	F	-3.310812	-0.493295	-0.167243
F80	F	-3.205577	-0.494712	-0.525990
F81	F	-4.247248	-0.096244	0.387893
H82	H	-3.746663	-0.108465	0.172026
F83	F	-4.167940	0.299133	-0.378041
F84	F	-3.699678	-0.110356	-0.015991
H85	H	-4.382741	-0.094844	0.002809
H86	H	-3.584361	-0.711430	-0.169364
H87	H	-3.864643	-0.350053	-0.500622
H88	H	-3.216738	-0.335309	-0.489769
H89	H	-4.206855	-0.097649	0.270935
F90	F	-3.452528	0.282439	-0.349815
F91	F	-3.528082	0.111697	-0.390252
H92	H	-3.310931	-0.334043	-0.168942
F93	F	-4.243533	0.128365	-0.418480
H94	H	-3.566155	-0.613864	-0.170104
F95	F	-4.274188	-0.716883	-0.180497
F96	F	-4.060617	-0.587012	-0.178436
H97	H	-4.274054	-0.876140	-0.178813
H98	H	-3.626013	-0.861359	-0.168453
H99	H	-3.740073	-0.108940	0.100967
F100	F	-3.519900	-0.112720	0.375856
H101	H	-4.379303	-0.094446	0.111554
F102	F	-4.244074	-0.097097	0.208101
