data_functionalizedCrystal
_audit_creation_method	'MofGen! by Chris Wilmer'
_symmetry_space_group_name_H-M	'P1'
_symmetry_Int_Tables_number	1
_symmetry_cell_setting	triclinic
loop_
_symmetry_equiv_pos_as_xyz
  x,y,z
_cell_length_a	14.519731
_cell_length_b	14.519709
_cell_length_c	16.176319
_cell_angle_alpha	89.992256
_cell_angle_beta	89.992497
_cell_angle_gamma	83.684499
loop_
_atom_site_label
_atom_site_type_symbol
_atom_site_fract_x
_atom_site_fract_y
_atom_site_fract_z
O1	O	1.223859	0.120987	-0.068750
O2	O	0.955385	0.135203	-0.068752
O3	O	1.096740	-0.006143	-0.068743
O4	O	1.082504	0.262333	-0.068758
O5	O	1.096721	-0.006152	0.068750
O6	O	0.955365	0.135194	0.068742
O7	O	1.223840	0.120978	0.068743
Cu8	Cu	1.089601	0.128085	0.081297
Cu9	Cu	1.089624	0.128096	-0.081305
O10	O	1.082484	0.262324	0.068735
C11	C	0.921016	0.134532	-0.000005
C12	C	0.818635	0.132536	-0.000005
C13	C	0.735491	0.130915	-0.000009
C14	C	0.631182	0.128888	-0.000009
C15	C	0.548043	0.127280	-0.000009
C16	C	0.443728	0.125253	-0.000010
C17	C	1.096067	-0.040507	0.000003
C18	C	1.094079	-0.142889	0.000004
C19	C	1.086759	-0.517785	-0.000018
C20	C	1.088792	-0.413477	-0.000011
C21	C	1.090419	-0.330340	-0.000006
C22	C	1.092452	-0.226025	-0.000002
C23	C	1.258209	0.121649	-0.000005
C24	C	1.360589	0.123645	-0.000010
C25	C	1.083157	0.296688	-0.000014
C26	C	1.085146	0.399070	-0.000020
N27	N	1.089591	0.128077	0.195662
N28	N	1.089640	0.128097	-0.195670
C29	C	1.152202	0.065515	0.238930
C30	C	1.152207	0.065514	0.325477
C31	C	1.089604	0.128080	0.368754
C32	C	1.026986	0.190646	0.325480
C33	C	1.026978	0.190641	0.238935
C34	C	1.027018	0.190663	0.674509
C35	C	1.027033	0.190664	0.761060
C36	C	1.152247	0.065535	0.761050
C37	C	1.152239	0.065531	0.674505
C38	C	1.089618	0.128093	0.631239
C39	C	1.089612	0.128092	0.537394
C40	C	1.089613	0.128086	0.462597
H41	H	1.203184	0.014570	0.203699
H42	H	0.976032	0.241604	0.639288
H43	H	0.975993	0.241585	0.203707
H44	H	1.203233	0.014591	0.796287
H45	H	0.976009	0.241585	0.360722
C46	C	0.958160	0.259486	0.808668
C47	C	0.889276	0.328300	0.761080
C48	C	0.820409	0.397118	0.808688
C49	C	0.820425	0.397123	0.903885
C50	C	0.889312	0.328307	0.951479
C51	C	0.958180	0.259489	0.903870
H52	H	0.889262	0.328298	0.690605
H53	H	0.769414	0.448060	0.773456
H54	H	0.769446	0.448066	0.939128
H55	H	0.889327	0.328308	1.021954
H56	H	1.009174	0.208547	0.939103
H57	H	1.203189	0.014570	0.360705
H58	H	1.203218	0.014587	0.639271
