data_functionalizedCrystal
_audit_creation_method	'MofGen! by Chris Wilmer'
_symmetry_space_group_name_H-M	'P1'
_symmetry_Int_Tables_number	1
_symmetry_cell_setting	triclinic
loop_
_symmetry_equiv_pos_as_xyz
  x,y,z
_cell_length_a	13.897449
_cell_length_b	13.897447
_cell_length_c	19.805399
_cell_angle_alpha	90.020948
_cell_angle_beta	90.019597
_cell_angle_gamma	90.021029
loop_
_atom_site_label
_atom_site_type_symbol
_atom_site_fract_x
_atom_site_fract_y
_atom_site_fract_z
Zn1	Zn	-1.474648	0.384042	-0.382751
Zn2	Zn	-1.474541	0.545348	-0.269576
Zn3	Zn	-1.313346	0.384068	-0.269576
Zn4	Zn	-1.313309	0.545296	-0.382723
O5	O	-1.393961	0.464688	-0.326157
O6	O	-1.609616	0.405450	-0.367750
O7	O	-1.453130	0.523986	-0.174859
O8	O	-1.334804	0.249083	-0.284601
O9	O	-1.609537	0.523961	-0.284601
O10	O	-1.453311	0.249063	-0.367750
O11	O	-1.334700	0.405494	-0.174859
O12	O	-1.178360	0.405444	-0.284573
O13	O	-1.334740	0.523872	-0.477443
O14	O	-1.178332	0.523898	-0.367702
O15	O	-1.453275	0.405400	-0.477464
O16	O	-1.453093	0.680322	-0.284574
O17	O	-1.334637	0.680284	-0.367702
C18	C	-1.143347	0.464669	-0.326135
C19	C	-1.036133	0.464684	-0.326141
C20	C	-1.393876	0.715303	-0.326149
C21	C	-1.393927	0.822516	-0.326169
C22	C	-0.839838	0.464682	-0.326154
C23	C	-0.949070	0.464680	-0.326145
C24	C	-1.394015	0.464627	-0.502699
C25	C	-1.394038	0.464601	-0.577931
C26	C	-0.645554	0.464702	-0.326172
C27	C	-0.752768	0.464691	-0.326162
C28	C	-1.393971	0.909586	-0.326187
C29	C	-1.394036	1.018819	-0.326209
C30	C	-1.394066	1.213095	-0.326187
C31	C	-1.394092	1.105881	-0.326222
C32	C	-1.455761	0.402910	-0.613287
C33	C	-1.455771	0.402882	-0.683976
C34	C	-1.394062	0.464551	-0.719307
C35	C	-1.332333	0.526246	-0.683946
C36	C	-1.332319	0.526268	-0.613259
C37	C	-1.332387	0.526156	-0.969019
C38	C	-1.332408	0.526131	-1.039711
C39	C	-1.455839	0.402769	-1.039737
C40	C	-1.455825	0.402792	-0.969049
C41	C	-1.394093	0.464482	-0.933694
C42	C	-1.394081	0.464511	-0.857046
C43	C	-1.394078	0.464528	-0.795954
C44	C	-1.393963	0.464679	-0.150301
C45	C	-1.394127	0.464433	-0.075069
H46	H	-1.506014	0.352694	-0.584526
H47	H	-1.506034	0.352648	-0.712760
H48	H	-1.282048	0.576494	-0.584473
H49	H	-1.506078	0.352577	-0.940286
C50	C	-1.264477	0.594014	-0.930138
N51	N	-1.213321	0.645127	-0.900850
H52	H	-1.506102	0.352534	-1.068531
C53	C	-1.264443	0.594073	-0.722813
N54	N	-1.213307	0.645163	-0.752086
H55	H	-1.282154	0.576351	-1.068476
