data_functionalizedCrystal
_audit_creation_method	'MofGen! by Chris Wilmer'
_symmetry_space_group_name_H-M	'P1'
_symmetry_Int_Tables_number	1
_symmetry_cell_setting	triclinic
loop_
_symmetry_equiv_pos_as_xyz
  x,y,z
_cell_length_a	15.944551
_cell_length_b	10.723024
_cell_length_c	9.198806
_cell_angle_alpha	89.997988
_cell_angle_beta	90.000547
_cell_angle_gamma	83.983304
loop_
_atom_site_label
_atom_site_type_symbol
_atom_site_fract_x
_atom_site_fract_y
_atom_site_fract_z
O1	O	1.115445	0.160932	-0.120737
O2	O	0.871009	0.180773	-0.120773
O3	O	0.998865	-0.010795	-0.120749
O4	O	0.987589	0.352500	-0.120761
O5	O	0.998855	-0.010795	0.121036
O6	O	0.870999	0.180773	0.121012
O7	O	1.115435	0.160931	0.121048
Cu8	Cu	0.993216	0.170852	0.143107
Cu9	Cu	0.993228	0.170853	-0.142832
O10	O	0.987578	0.352500	0.121024
C11	C	0.998039	-0.057284	0.000142
C12	C	0.995584	-0.195808	0.000137
C13	C	0.839705	0.179949	0.000115
C14	C	0.746445	0.177480	0.000102
C15	C	1.067126	-0.271694	0.000145
C16	C	1.064590	-0.414865	0.000139
C17	C	0.530875	0.052834	0.000134
C18	C	0.470191	0.110716	-0.119081
C19	C	0.575693	0.173012	0.000119
C20	C	0.470203	0.110744	0.119300
C21	C	0.410756	0.168688	0.000142
C22	C	0.516238	0.230927	-0.119194
C23	C	0.516257	0.230938	0.119294
C24	C	0.455591	0.288907	0.000050
C25	C	0.670710	0.175500	0.000104
C26	C	0.315741	0.166210	0.000146
C27	C	1.146738	0.161755	0.000157
C28	C	1.239999	0.164225	0.000161
C29	C	0.988404	0.398989	0.000130
C30	C	0.990859	0.537512	0.000126
N31	N	0.993213	0.170851	0.344221
N32	N	0.993237	0.170844	-0.343946
C33	C	1.046897	0.090065	0.416428
C34	C	1.046910	0.090061	0.583840
H35	H	1.130253	-0.230669	0.000163
H36	H	1.092873	0.020901	0.645935
H37	H	0.947260	0.240007	0.406341
H38	H	0.563637	-0.046904	-0.000010
H39	H	0.929611	-0.397289	0.000129
H40	H	0.449822	0.059891	0.220084
H41	H	0.536521	0.281719	-0.220091
O42	O	1.145724	-0.501224	0.000152
H43	H	1.131001	-0.600123	0.000138
H44	H	0.449794	0.059886	-0.219865
O45	O	0.911961	-0.250136	0.000137
H46	H	0.907308	-0.308745	-0.098405
H47	H	0.423004	0.388748	-0.000020
H48	H	0.947277	0.240016	0.593969
H49	H	0.536674	0.281726	0.220083
O50	O	1.107745	-0.001589	0.334164
H51	H	1.098176	0.012784	0.215581
