data_functionalizedCrystal
_audit_creation_method	'MofGen! by Chris Wilmer'
_symmetry_space_group_name_H-M	'P1'
_symmetry_Int_Tables_number	1
_symmetry_cell_setting	triclinic
loop_
_symmetry_equiv_pos_as_xyz
  x,y,z
_cell_length_a	12.759401
_cell_length_b	13.032721
_cell_length_c	12.759393
_cell_angle_alpha	97.148028
_cell_angle_beta	89.981504
_cell_angle_gamma	97.204304
loop_
_atom_site_label
_atom_site_type_symbol
_atom_site_fract_x
_atom_site_fract_y
_atom_site_fract_z
Zn1	Zn	1.553098	-0.415970	-0.647064
Zn2	Zn	1.530656	-0.590752	-0.493688
Zn3	Zn	1.377393	-0.416025	-0.471410
Zn4	Zn	1.355063	-0.590671	-0.669319
O5	O	1.454052	-0.503355	-0.570370
O6	O	1.697140	-0.439166	-0.626728
O7	O	1.510279	-0.567631	-0.343719
O8	O	1.419437	-0.269780	-0.476074
O9	O	1.680653	-0.567577	-0.514043
O10	O	1.548527	-0.269740	-0.605126
O11	O	1.397677	-0.439259	-0.327352
O12	O	1.227411	-0.439181	-0.497654
O13	O	1.381379	-0.567440	-0.813381
O14	O	1.211005	-0.567493	-0.643057
O15	O	1.526875	-0.439088	-0.797030
O16	O	1.488626	-0.736978	-0.535623
O17	O	1.359619	-0.736919	-0.664659
C18	C	1.181087	-0.503335	-0.570354
C19	C	1.064309	-0.503352	-0.570375
C20	C	1.419293	-0.774866	-0.604997
C21	C	1.404519	-0.891020	-0.619845
C22	C	1.000918	-0.570271	-0.645989
C23	C	0.891192	-0.570285	-0.646002
C24	C	0.908258	-0.436457	-0.494778
C25	C	1.017982	-0.436439	-0.494770
C26	C	0.991064	-0.647539	-0.733294
C27	C	0.881338	-0.647552	-0.733307
C28	C	1.461819	-0.942800	-0.562668
C29	C	1.446551	-1.062851	-0.578013
C30	C	1.728083	-0.503375	-0.570388
C31	C	1.844859	-0.503383	-0.570395
C32	C	1.454139	-0.503249	-0.844390
C33	C	1.454176	-0.503204	-0.961161
C34	C	1.488976	-0.230782	-0.535632
C35	C	1.503859	-0.114628	-0.520829
C36	C	1.529946	-0.436365	-1.007510
C37	C	1.529976	-0.436327	-1.117230
C38	C	1.378462	-0.569977	-1.134243
C39	C	1.378429	-0.570009	-1.024525
C40	C	1.617424	-0.359206	-0.997689
C41	C	1.617454	-0.359168	-1.107409
C42	C	1.454036	-0.503384	-0.297407
C43	C	1.454240	-0.503135	-0.180599
H44	H	0.870525	-0.381977	-0.433224
H45	H	1.069592	-0.381940	-0.433204
H46	H	1.386190	-1.107394	-0.638333
H47	H	1.598167	-0.282271	-1.131644
H48	H	1.316727	-0.624432	-0.986792
H49	H	1.605997	-0.278276	-0.957606
H50	H	1.696054	-0.380844	-1.139953
H51	H	1.522184	-0.898256	-0.502360
H52	H	1.564228	-1.070087	-0.460517
H53	H	1.015259	-0.724379	-0.713815
O54	O	0.845140	-0.612928	-0.821079
C55	C	0.794331	-0.523983	-0.791167
H56	H	0.824875	-0.485448	-0.709953
H57	H	0.811579	-0.466572	-0.851353
H58	H	0.705454	-0.548006	-0.788006
H59	H	1.344163	-0.935567	-0.680160
H60	H	1.316790	-0.624365	-1.185846
H61	H	1.690988	-0.388219	-0.967356
O62	O	1.029781	-0.621910	-0.827215
C63	C	0.983507	-0.695390	-0.909986
H64	H	0.905059	-0.734862	-0.883026
H65	H	0.969237	-0.654156	-0.981435
H66	H	1.038807	-0.756566	-0.932429
O67	O	0.833561	-0.744155	-0.719587
C68	C	0.861125	-0.817374	-0.802573
H69	H	0.938592	-0.785658	-0.838284
H70	H	0.870929	-0.893551	-0.770605
H71	H	0.796147	-0.832122	-0.865934
