data_functionalizedCrystal
_audit_creation_method	'MofGen! by Chris Wilmer'
_symmetry_space_group_name_H-M	'P1'
_symmetry_Int_Tables_number	1
_symmetry_cell_setting	triclinic
loop_
_symmetry_equiv_pos_as_xyz
  x,y,z
_cell_length_a	23.532355
_cell_length_b	23.532407
_cell_length_c	22.610064
_cell_angle_alpha	90.002995
_cell_angle_beta	90.008169
_cell_angle_gamma	82.838088
loop_
_atom_site_label
_atom_site_type_symbol
_atom_site_fract_x
_atom_site_fract_y
_atom_site_fract_z
O1	O	0.755287	0.068988	0.049110
O2	O	0.589420	0.079022	0.049130
O3	O	0.677355	-0.008928	0.049108
O4	O	0.667352	0.156937	0.049131
O5	O	0.677330	-0.008918	-0.049261
O6	O	0.589395	0.079032	-0.049239
O7	O	0.755263	0.068998	-0.049259
Zn8	Zn	0.672325	0.074016	-0.064868
Zn9	Zn	0.672357	0.074003	0.064738
O10	O	0.667327	0.156947	-0.049238
C11	C	0.568191	0.078776	-0.000052
C12	C	0.504972	0.078022	-0.000045
C13	C	0.112945	0.073289	-0.053692
C14	C	0.053545	0.072572	-0.053694
O15	O	0.022815	0.072186	-0.099296
N16	N	0.023850	0.072211	-0.000074
C17	C	0.053559	0.072561	0.053553
O18	O	0.022847	0.072187	0.099162
C19	C	0.112958	0.073274	0.053555
C20	C	0.142649	0.073641	-0.000069
C21	C	0.142636	0.073656	-0.107312
C22	C	0.202031	0.074374	-0.107309
C23	C	0.231735	0.074726	-0.053687
C24	C	0.202044	0.074360	-0.000067
C25	C	0.142665	0.073621	0.107181
C26	C	0.202068	0.074334	0.107178
C27	C	0.231759	0.074701	0.053554
C28	C	0.291143	0.075431	0.053558
N29	N	0.320838	0.075792	-0.000062
C30	C	0.291134	0.075440	-0.053685
C31	C	-0.071183	0.071062	0.053545
C32	C	-0.130581	0.070353	0.053544
C33	C	-0.130590	0.070363	-0.053703
C34	C	-0.071191	0.071076	-0.053702
C35	C	-0.041488	0.071423	-0.000075
C36	C	0.415868	0.076949	-0.053675
C37	C	0.475268	0.077670	-0.053668
C38	C	0.475273	0.077657	0.053579
C39	C	0.415877	0.076939	0.053572
C40	C	0.386177	0.076583	-0.000060
O41	O	0.321911	0.075814	0.099137
O42	O	0.321854	0.075806	-0.099286
C43	C	0.677088	-0.030139	-0.000078
C44	C	0.676322	-0.093356	-0.000082
C45	C	0.723557	-0.492468	-0.000055
C46	C	0.722845	-0.551868	-0.000051
O47	O	0.766632	-0.588620	-0.000034
N48	N	0.670568	-0.574484	-0.000045
C49	C	0.618998	-0.537697	-0.000038
O50	O	0.574467	-0.562388	-0.000032
C51	C	0.619710	-0.478298	-0.000038
C52	C	0.671991	-0.455685	-0.000050
C53	C	0.775834	-0.469854	-0.000066
C54	C	0.776545	-0.410458	-0.000072
C55	C	0.724979	-0.373676	-0.000067
C56	C	0.672703	-0.396289	-0.000055
C57	C	0.568141	-0.441512	-0.000027
C58	C	0.568858	-0.382110	-0.000026
C59	C	0.621139	-0.359497	-0.000038
C60	C	0.621848	-0.300110	-0.000056
N61	N	0.674126	-0.277494	-0.000061
C62	C	0.725691	-0.314277	-0.000067
C63	C	0.617507	-0.662439	-0.000036
C64	C	0.616794	-0.721837	-0.000040
C65	C	0.720642	-0.736004	-0.000052
C66	C	0.721354	-0.676605	-0.000052
C67	C	0.669784	-0.639823	-0.000042
C68	C	0.727181	-0.189540	-0.000079
C69	C	0.727888	-0.130138	-0.000087
C70	C	0.624041	-0.115977	-0.000072
C71	C	0.623334	-0.175373	-0.000067
C72	C	0.674909	-0.212154	-0.000069
O73	O	0.578084	-0.263323	-0.000070
O74	O	0.770216	-0.289577	-0.000065
C75	C	0.776491	0.069244	-0.000076
C76	C	0.839710	0.069998	-0.000079
C77	C	0.667594	0.178158	-0.000050
C78	C	0.668360	0.241375	-0.000042
N79	N	0.672307	0.074025	-0.153320
C80	C	0.637998	0.039639	-0.438162
C81	C	0.637993	0.039642	-0.376242
O82	O	0.608799	0.010408	-0.344218
N83	N	0.672330	0.074007	-0.345272
C84	C	0.706680	0.108367	-0.376226
O85	O	0.735887	0.137597	-0.344198
C86	C	0.706688	0.108361	-0.438144
C87	C	0.672344	0.073998	-0.469111
C88	C	0.603657	0.005279	-0.469129
C89	C	0.603662	0.005277	-0.531044
C90	C	0.638008	0.039636	-0.561993
C91	C	0.672349	0.073996	-0.531027
C92	C	0.741041	0.142717	-0.469097
C93	C	0.741046	0.142708	-0.531020
C94	C	0.706702	0.108345	-0.561986
C95	C	0.706699	0.108353	-0.623891
N96	N	0.672362	0.073988	-0.654861
C97	C	0.638016	0.039629	-0.623912
C98	C	0.706661	0.108377	-0.246192
C99	C	0.706650	0.108386	-0.184274
C100	C	0.637964	0.039660	-0.184295
C101	C	0.637972	0.039654	-0.246214
C102	C	0.672324	0.074012	-0.277162
C103	C	0.638028	0.039628	-0.753939
C104	C	0.638034	0.039631	-0.815860
C105	C	0.706723	0.108355	-0.815834
C106	C	0.706715	0.108354	-0.753919
C107	C	0.672366	0.073987	-0.722973
O108	O	0.735880	0.137570	-0.655954
O109	O	0.608820	0.010399	-0.655947
N110	N	0.672380	0.073990	0.153191
H111	H	0.118501	0.073321	0.150848
C112	C	0.600239	0.001826	-0.719908
N113	N	0.571773	-0.026644	-0.694275
C114	C	0.565883	-0.032528	-0.565099
N115	N	0.537427	-0.061005	-0.590746
H116	H	0.582057	-0.086018	-0.000070
C117	C	0.744439	0.146189	-0.280229
N118	N	0.772891	0.174672	-0.305863
H119	H	0.609998	0.011684	-0.159085
H120	H	0.762629	-0.765963	-0.000054
H121	H	0.574222	-0.740243	-0.000040
C122	C	0.565822	-0.200248	-0.000058
N123	N	0.522504	-0.218980	-0.000045
H124	H	0.499468	0.077946	0.097237
H125	H	0.525569	-0.459912	-0.000013
C126	C	0.512126	-0.341652	-0.000017
N127	N	0.469396	-0.311181	-0.000012
C128	C	0.778866	-0.651737	-0.000060
N129	N	0.822187	-0.633009	-0.000063
C130	C	-0.038536	0.071474	-0.112692
N131	N	-0.013943	0.071772	-0.157126
H132	H	0.391692	0.076664	-0.097348
H133	H	0.226201	0.074670	-0.150976
C134	C	0.109970	0.073276	-0.166306
N135	N	0.085369	0.072997	-0.210745
C136	C	0.560773	-0.621983	-0.000032
N137	N	0.518041	-0.591515	-0.000029
C138	C	0.600252	0.001828	-0.849920
N139	N	0.571796	-0.026646	-0.875571
C140	C	0.744503	0.146145	-0.849890
N141	N	0.772963	0.174606	-0.875543
H142	H	0.734610	0.136375	-0.159067
C143	C	-0.163275	0.069969	-0.112690
N144	N	-0.187895	0.069672	-0.157116
H145	H	0.769021	0.170685	-0.556214
C146	C	0.785403	-0.105268	-0.000099
N147	N	0.828723	-0.086538	-0.000106
H148	H	0.499440	0.077971	-0.097337
H149	H	-0.154752	0.070063	0.097211
H150	H	0.769008	0.170698	-0.443894
H151	H	0.575689	-0.022703	-0.443936
H152	H	0.819117	-0.392053	-0.000079
H153	H	0.610006	0.011673	-0.271423
C154	C	0.744491	0.146159	-0.719854
N155	N	0.772949	0.174629	-0.694201
C156	C	0.783916	-0.229991	-0.000086
N157	N	0.826649	-0.260458	-0.000097
C158	C	-0.038515	0.071451	0.112542
N159	N	-0.013913	0.071744	0.156979
H160	H	0.391700	0.076650	0.097238
C161	C	0.832565	-0.510307	-0.000079
N162	N	0.875299	-0.540772	-0.000094
C163	C	0.234738	0.074718	0.166173
N164	N	0.259344	0.075009	0.210608
