data_functionalizedCrystal
_audit_creation_method	'MofGen! by Chris Wilmer'
_symmetry_space_group_name_H-M	'P1'
_symmetry_Int_Tables_number	1
_symmetry_cell_setting	triclinic
loop_
_symmetry_equiv_pos_as_xyz
  x,y,z
_cell_length_a	12.837932
_cell_length_b	9.730223
_cell_length_c	12.837942
_cell_angle_alpha	89.998888
_cell_angle_beta	85.170678
_cell_angle_gamma	90.000191
loop_
_atom_site_label
_atom_site_type_symbol
_atom_site_fract_x
_atom_site_fract_y
_atom_site_fract_z
O1	O	1.402331	0.114292	-0.272145
O2	O	1.099197	0.114294	-0.258699
O3	O	1.244043	0.114285	-0.113855
O4	O	1.257486	0.114302	-0.416989
O5	O	1.244041	-0.114295	-0.113859
O6	O	1.099196	-0.114286	-0.258703
O7	O	1.402330	-0.114288	-0.272149
Zn8	Zn	1.250763	-0.150579	-0.265426
Zn9	Zn	1.250765	0.150585	-0.265421
O10	O	1.257485	-0.114278	-0.416993
C11	C	1.060127	0.000004	-0.254160
C12	C	0.943712	0.000005	-0.240614
N13	N	1.250769	-0.356115	-0.265430
C14	C	0.782686	-0.000004	-0.127402
C15	C	0.892069	-0.000002	-0.140122
C16	C	0.885965	0.000007	-0.328393
C17	C	0.776582	0.000006	-0.315673
C18	C	0.724947	0.000003	-0.215174
C19	C	0.615562	0.000011	-0.202455
C20	C	0.609460	0.000011	-0.390725
C21	C	0.718843	0.000012	-0.403445
C22	C	1.314927	-0.428045	-0.201319
C23	C	1.314923	-0.571928	-0.201306
C24	C	1.186601	-0.571938	-0.329524
C25	C	1.186600	-0.428058	-0.329531
C26	C	1.379096	-0.356103	-0.137218
C27	C	1.443260	-0.428033	-0.073102
C28	C	1.443256	-0.571916	-0.073089
C29	C	1.379088	-0.643869	-0.137192
C30	C	1.441400	0.000005	-0.276688
C31	C	1.557815	0.000013	-0.290233
C32	C	1.239501	-0.000004	-0.074788
C33	C	1.225956	-0.000002	0.041627
N34	N	1.250766	0.356122	-0.265410
C35	C	1.262027	0.000014	-0.456060
C36	C	1.275571	0.000021	-0.572475
C37	C	1.388786	0.000026	0.266500
C38	C	1.376064	0.000028	0.375883
C39	C	1.187793	0.000015	0.369777
C40	C	1.200514	0.000013	0.260394
C41	C	1.301014	0.000016	0.208760
C42	C	1.313734	0.000004	0.099375
C43	C	1.125464	0.000000	0.093271
C44	C	1.112742	0.000003	0.202654
H45	H	0.573523	0.000014	-0.120623
Br46	Br	1.099519	-0.330434	-0.416535
Br47	Br	0.712604	0.000004	0.008985
Br48	Br	1.530321	-0.669536	0.013934
Br49	Br	1.525173	-0.000012	0.196420
H50	H	1.447538	0.000040	0.422891
H51	H	0.939077	-0.000008	-0.068648
H52	H	1.134359	-0.630531	-0.381715
Br53	Br	1.450124	-0.000006	0.029300
Br54	Br	1.051411	0.000060	0.439870
Br55	Br	0.976357	0.000016	0.272738
H56	H	0.928026	-0.000002	-0.410215
Br57	Br	0.788929	0.000016	-0.539830
H58	H	1.379107	-0.238946	-0.137225
H59	H	1.053994	-0.000018	0.046247
H60	H	1.495497	-0.369442	-0.020905
H61	H	1.379083	-0.761028	-0.137168
H62	H	0.562437	0.000017	-0.462196
