data_functionalizedCrystal
_audit_creation_method	'MofGen! by Chris Wilmer'
_symmetry_space_group_name_H-M	'P1'
_symmetry_Int_Tables_number	1
_symmetry_cell_setting	triclinic
loop_
_symmetry_equiv_pos_as_xyz
  x,y,z
_cell_length_a	6.817900
_cell_length_b	23.753515
_cell_length_c	11.102182
_cell_angle_alpha	95.105196
_cell_angle_beta	71.396226
_cell_angle_gamma	79.923165
loop_
_atom_site_label
_atom_site_type_symbol
_atom_site_fract_x
_atom_site_fract_y
_atom_site_fract_z
V1	V	4.068782	-0.079167	-0.396976
O2	O	4.072597	0.003798	-0.388680
O3	O	4.003565	-0.156969	-0.394971
O4	O	4.046212	-0.077952	-0.569787
O5	O	4.029654	-0.075766	-0.212655
V6	V	4.551242	-0.069243	-0.374843
O7	O	4.332372	-0.100936	-0.445526
O8	O	4.737850	-0.047474	-0.326294
O9	O	4.393253	0.008559	-0.376848
O10	O	4.664825	-0.152208	-0.383139
O11	O	4.707767	-0.072644	-0.559164
O12	O	4.350606	-0.070458	-0.202033
C13	C	3.843639	-0.175935	-0.388892
C14	C	3.871775	-0.239539	-0.388405
C15	C	3.898038	-0.075140	-0.611885
C16	C	3.960757	-0.074662	-0.753163
C17	C	3.937493	-0.506283	-0.269883
C18	C	3.911075	-0.446519	-0.270329
O19	O	3.849926	-0.408657	-0.171517
N20	N	3.953631	-0.424805	-0.387015
C21	C	4.022590	-0.462856	-0.503262
O22	O	4.056360	-0.438899	-0.602554
C23	C	4.048993	-0.522618	-0.502814
C24	C	4.006452	-0.544330	-0.386121
C25	C	3.894955	-0.527995	-0.153199
C26	C	3.921376	-0.587754	-0.152753
C27	C	3.990335	-0.625801	-0.268991
C28	C	4.032873	-0.604089	-0.385675
C29	C	4.117936	-0.560669	-0.619059
C30	C	4.144335	-0.620434	-0.618600
C31	C	4.101794	-0.642145	-0.501907
C32	C	4.128252	-0.701895	-0.501467
N33	N	4.085696	-0.723610	-0.384781
C34	C	4.016737	-0.685563	-0.268543
C35	C	3.967134	-0.337352	-0.504194
C36	C	3.940747	-0.277592	-0.504644
C37	C	3.829230	-0.261259	-0.271711
C38	C	3.855633	-0.321020	-0.271263
C39	C	3.924578	-0.359067	-0.387508
C40	C	4.072228	-0.811062	-0.267616
C41	C	4.098665	-0.870827	-0.267181
C42	C	4.210168	-0.887155	-0.500113
C43	C	4.183746	-0.827395	-0.500549
C44	C	4.114764	-0.789349	-0.384290
O45	O	4.189385	-0.739792	-0.600229
O46	O	3.982953	-0.709529	-0.169267
C47	C	4.022112	-0.126829	-0.838172
C48	C	4.081062	-0.126372	-0.970916
C49	C	4.017285	-0.021576	-0.933629
C50	C	3.958351	-0.022033	-0.800888
C51	C	4.058925	-0.187333	-0.859700
C52	C	4.117875	-0.186876	-0.992444
C53	C	4.216520	0.027522	-0.382923
C54	C	4.167623	0.091126	-0.383419
C55	C	4.162121	-0.073271	-0.159928
C56	C	4.078641	-0.073747	-0.018648
H57	H	4.016053	-0.780091	-0.172946
H58	H	3.886725	-0.605425	-0.057730
N59	N	4.336457	-0.213086	-1.058954
N60	N	4.386869	-0.256258	-1.144234
H61	H	4.541246	-0.274761	-1.191215
N62	N	3.979926	-0.213107	-1.041745
N63	N	3.834382	-0.231957	-0.967621
H64	H	3.736952	-0.250480	-1.002437
N65	N	4.014774	0.032181	-0.982382
N66	N	3.845728	0.069420	-0.950059
H67	H	3.843945	0.107387	-0.984489
H68	H	3.908421	0.020446	-0.731678
H69	H	3.820986	-0.338693	-0.176241
N70	N	4.055215	-0.892994	-0.147965
N71	N	3.993644	-0.859013	-0.044193
H72	H	3.962957	-0.874666	0.040003
H73	H	3.838795	-0.497022	-0.058539
H74	H	3.773069	-0.230269	-0.177063
H75	H	3.975427	-0.259921	-0.599669
N76	N	4.280577	-0.926034	-0.618826
N77	N	4.166648	-0.958945	-0.639608
H78	H	4.216360	-0.986406	-0.723448
N79	N	4.037573	-0.376206	-0.622957
N80	N	4.075552	-0.356804	-0.727124
H81	H	4.125294	-0.384241	-0.811001
N82	N	4.214811	-0.659296	-0.737350
N83	N	4.383084	-0.696721	-0.768023
H84	H	4.432865	-0.724167	-0.851890
H85	H	4.197154	-0.212882	-0.836928
H86	H	4.218450	-0.809718	-0.595572
N87	N	4.161416	-0.538511	-0.738272
N88	N	4.222973	-0.572498	-0.842035
H89	H	4.253684	-0.556851	-0.926238
N90	N	3.868980	-0.208209	-0.809978
N91	N	3.700420	-0.182568	-0.820812
H92	H	3.566259	-0.197308	-0.785700
