data_functionalizedCrystal
_audit_creation_method	'MofGen! by Chris Wilmer'
_symmetry_space_group_name_H-M	'P1'
_symmetry_Int_Tables_number	1
_symmetry_cell_setting	triclinic
loop_
_symmetry_equiv_pos_as_xyz
  x,y,z
_cell_length_a	27.732064
_cell_length_b	26.809956
_cell_length_c	23.532407
_cell_angle_alpha	89.999665
_cell_angle_beta	97.250949
_cell_angle_gamma	90.001122
loop_
_atom_site_label
_atom_site_type_symbol
_atom_site_fract_x
_atom_site_fract_y
_atom_site_fract_z
O1	O	0.641030	0.041396	-0.067803
O2	O	1.141030	0.541396	0.432197
O3	O	0.500254	0.041417	-0.078097
O4	O	1.000254	0.541417	0.421903
O5	O	0.574887	0.041396	0.009991
O6	O	1.074887	0.541396	0.509991
O7	O	0.566397	0.041416	-0.155890
O8	O	1.066397	0.541416	0.344110
O9	O	0.574873	-0.041563	0.009977
O10	O	1.074873	0.458437	0.509977
O11	O	0.500239	-0.041542	-0.078110
O12	O	1.000239	0.458458	0.421890
O13	O	0.641016	-0.041564	-0.067816
O14	O	1.141016	0.458436	0.432184
Zn15	Zn	0.570625	-0.054725	-0.072965
Zn16	Zn	1.070625	0.445275	0.427035
Zn17	Zn	0.570644	0.054578	-0.072948
Zn18	Zn	1.070644	0.554578	0.427052
O19	O	0.566383	-0.041543	-0.155904
O20	O	1.066383	0.458457	0.344096
C21	C	0.482239	-0.000060	-0.077886
C22	C	0.982239	0.499940	0.422114
C23	C	0.428584	-0.000053	-0.077231
C24	C	0.928584	0.499947	0.422769
C25	C	0.051424	-0.000088	-0.020717
C26	C	0.551424	0.499912	0.479283
C27	C	0.253088	-0.000074	-0.023127
C28	C	0.753088	0.499926	0.476873
O29	O	0.284273	-0.000098	0.020726
O30	O	0.784273	0.499902	0.520726
N31	N	0.272296	-0.000066	-0.075362
N32	N	0.772296	0.499934	0.424638
C33	C	0.241084	-0.000064	-0.126997
C34	C	0.741084	0.499936	0.373003
O35	O	0.262049	-0.000062	-0.171481
O36	O	0.762049	0.499938	0.328519
C37	C	0.039421	-0.000081	-0.124585
C38	C	0.539421	0.499919	0.375415
C39	C	0.020217	-0.000084	-0.072348
C40	C	0.520217	0.499916	0.427652
C41	C	0.032219	-0.000091	0.031517
C42	C	0.532219	0.499909	0.531517
C43	C	-0.018194	-0.000092	0.032119
C44	C	0.481806	0.499908	0.532119
C45	C	-0.049402	-0.000089	-0.019512
C46	C	0.450598	0.499911	0.480488
C47	C	-0.030196	-0.000085	-0.071746
C48	C	0.469804	0.499915	0.428254
C49	C	0.008211	-0.000083	-0.176220
C50	C	0.508211	0.499917	0.323780
C51	C	-0.042208	-0.000088	-0.175612
C52	C	0.457792	0.499912	0.324388
C53	C	-0.061413	-0.000092	-0.123375
C54	C	0.438587	0.499908	0.376625
C55	C	-0.111817	-0.000082	-0.122775
C56	C	0.388183	0.499918	0.377225
N57	N	-0.131025	-0.000091	-0.070540
N58	N	0.368975	0.499909	0.429460
C59	C	-0.099817	-0.000094	-0.018909
C60	C	0.400183	0.499906	0.481091
C61	C	0.346961	-0.000054	-0.128259
C62	C	0.846961	0.499946	0.371741
C63	C	0.397376	-0.000049	-0.128862
C64	C	0.897376	0.499951	0.371138
C65	C	0.409377	-0.000060	-0.024993
C66	C	0.909377	0.499940	0.475007
C67	C	0.358960	-0.000062	-0.024390
C68	C	0.858960	0.499938	0.475610
C69	C	0.327753	-0.000063	-0.076025
C70	C	0.827753	0.499937	0.423975
C71	C	-0.205689	-0.000095	-0.017649
C72	C	0.294311	0.499905	0.482351
C73	C	-0.256107	-0.000093	-0.017051
C74	C	0.243893	0.499907	0.482949
C75	C	-0.268103	-0.000085	-0.120920
C76	C	0.231897	0.499915	0.379080
C77	C	-0.217689	-0.000084	-0.121518
C78	C	0.282311	0.499916	0.378482
C79	C	-0.186483	-0.000090	-0.069878
C80	C	0.313517	0.499910	0.430122
O81	O	-0.143031	-0.000064	-0.166605
O82	O	0.356969	0.499936	0.333395
O83	O	-0.120792	-0.000107	0.025568
O84	O	0.379208	0.499893	0.525568
C85	C	0.101837	-0.000087	-0.021319
C86	C	0.601837	0.499913	0.478681
C87	C	0.121043	-0.000083	-0.073552
C88	C	0.621043	0.499917	0.426448
C89	C	0.089835	-0.000080	-0.125183
C90	C	0.589835	0.499920	0.374817
C91	C	0.171458	-0.000078	-0.074155
C92	C	0.671458	0.499922	0.425845
C93	C	0.202666	-0.000081	-0.022524
C94	C	0.702666	0.499919	0.477476
C95	C	0.183458	-0.000090	0.029710
C96	C	0.683458	0.499910	0.529710
C97	C	0.133045	-0.000090	0.030313
C98	C	0.633045	0.499910	0.530313
C99	C	0.109043	-0.000071	-0.177418
C100	C	0.609043	0.499929	0.322582
C101	C	0.159456	-0.000070	-0.178015
C102	C	0.659456	0.499930	0.321985
C103	C	0.190664	-0.000074	-0.126384
C104	C	0.690664	0.499926	0.373616
N105	N	0.570616	-0.129321	-0.072977
N106	N	1.070616	0.370679	0.427023
C107	C	0.603687	-0.473956	-0.033952
C108	C	1.103687	0.026044	0.466048
C109	C	0.603699	-0.682833	-0.033943
C110	C	1.103699	-0.182833	0.466057
O111	O	0.631797	-0.709845	-0.000767
O112	O	1.131797	-0.209845	0.499233
N113	N	0.570647	-0.708948	-0.072935
N114	N	1.070647	-0.208948	0.427065
C115	C	0.537587	-0.682839	-0.111929
C116	C	1.037587	-0.182839	0.388071
O117	O	0.509471	-0.709844	-0.145090
O118	O	1.009471	-0.209844	0.354910
C119	C	0.537574	-0.473963	-0.111935
C120	C	1.037574	0.026037	0.388065
C121	C	0.570631	-0.447851	-0.072945
C122	C	1.070631	0.052149	0.427055
C123	C	0.636742	-0.447844	0.005035
C124	C	1.136742	0.052156	0.505035
C125	C	0.636741	-0.395628	0.005031
C126	C	1.136741	0.104372	0.505031
C127	C	0.603685	-0.369523	-0.033962
C128	C	1.103685	0.130477	0.466038
C129	C	0.570630	-0.395635	-0.072949
C130	C	1.070630	0.104365	0.427051
C131	C	0.504512	-0.447855	-0.150926
C132	C	1.004512	0.052145	0.349074
C133	C	0.504511	-0.395633	-0.150923
C134	C	1.004511	0.104367	0.349077
C135	C	0.537569	-0.369521	-0.111933
C136	C	1.037569	0.130479	0.388067
C137	C	0.537572	-0.317314	-0.111946
C138	C	1.037572	0.182686	0.388054
N139	N	0.570625	-0.291199	-0.072954
N140	N	1.070625	0.208801	0.427046
C141	C	0.603681	-0.317304	-0.033962
C142	C	1.103681	0.182696	0.466038
C143	C	0.537597	-0.792503	-0.111924
C144	C	1.037597	-0.292503	0.388076
C145	C	0.537601	-0.844722	-0.111924
C146	C	1.037601	-0.344722	0.388076
C147	C	0.603712	-0.844712	-0.033937
C148	C	1.103712	-0.344712	0.466063
C149	C	0.603710	-0.792492	-0.033941
C150	C	1.103710	-0.292492	0.466059
C151	C	0.570649	-0.766388	-0.072933
C152	C	1.070649	-0.266388	0.427067
C153	C	0.603675	-0.207646	-0.033975
C154	C	1.103675	0.292354	0.466025
C155	C	0.603672	-0.155425	-0.033985
C156	C	1.103672	0.344575	0.466015
C157	C	0.537560	-0.155439	-0.111969
C158	C	1.037560	0.344561	0.388031
C159	C	0.537564	-0.207656	-0.111962
C160	C	1.037564	0.292344	0.388038
C161	C	0.570624	-0.233758	-0.072960
C162	C	1.070624	0.266242	0.427040
O163	O	0.509485	-0.290270	-0.145101
O164	O	1.009485	0.209730	0.354899
O165	O	0.631785	-0.290290	-0.000798
O166	O	1.131785	0.209710	0.499202
C167	C	0.603689	-0.526172	-0.033948
C168	C	1.103689	-0.026172	0.466052
C169	C	0.570634	-0.552284	-0.072935
C170	C	1.070634	-0.052284	0.427065
C171	C	0.537578	-0.526179	-0.111928
C172	C	1.037578	-0.026179	0.388072
C173	C	0.570638	-0.604503	-0.072935
C174	C	1.070638	-0.104503	0.427065
C175	C	0.603694	-0.630607	-0.033942
C176	C	1.103694	-0.130607	0.466058
C177	C	0.636746	-0.604493	0.005049
C178	C	1.136746	-0.104493	0.505049
C179	C	0.636745	-0.552277	0.005045
C180	C	1.136745	-0.052277	0.505045
C181	C	0.504526	-0.552293	-0.150919
C182	C	1.004526	-0.052293	0.349081
C183	C	0.504531	-0.604510	-0.150912
C184	C	1.004531	-0.104510	0.349088
C185	C	0.537587	-0.630614	-0.111920
C186	C	1.037587	-0.130614	0.388080
C187	C	0.659030	-0.000086	-0.068027
C188	C	1.159030	0.499914	0.431973
C189	C	0.712686	-0.000090	-0.068682
C190	C	1.212686	0.499910	0.431318
C191	C	0.574664	-0.000084	0.031199
C192	C	1.074664	0.499916	0.531199
C193	C	0.574014	-0.000088	0.094415
C194	C	1.074014	0.499912	0.594415
N195	N	0.570657	0.129174	-0.072931
N196	N	1.070657	0.629174	0.427069
C197	C	0.566606	-0.000061	-0.177113
C198	C	1.066606	0.499939	0.322887
C199	C	0.567256	-0.000054	-0.240328
C200	C	1.067256	0.499946	0.259672
C201	C	0.614103	-0.000067	0.493601
C202	C	1.114103	0.499933	0.993601
C203	C	0.613499	-0.000063	0.553000
C204	C	1.113499	0.499937	1.053000
O205	O	0.650662	-0.000050	0.589821
O206	O	1.150662	0.499950	1.089821
N207	N	0.569130	-0.000057	0.575535
N208	N	1.069130	0.499943	1.075535
C209	C	0.525361	-0.000049	0.538667
C210	C	1.025361	0.499951	1.038667
O211	O	0.487566	-0.000043	0.563288
O212	O	0.987566	0.499957	1.063288
C213	C	0.525966	-0.000049	0.479269
C214	C	1.025966	0.499951	0.979269
C215	C	0.570338	-0.000061	0.456738
C216	C	1.070338	0.499939	0.956738
C217	C	0.658472	-0.000078	0.471069
C218	C	1.158472	0.499922	0.971069
C219	C	0.659075	-0.000083	0.411674
C220	C	1.159075	0.499917	0.911674
C221	C	0.615310	-0.000076	0.374811
C222	C	1.115310	0.499924	0.874811
C223	C	0.570942	-0.000066	0.397343
C224	C	1.070942	0.499934	0.897343
C225	C	0.482198	-0.000038	0.442402
C226	C	0.982198	0.499962	0.942402
C227	C	0.482806	-0.000038	0.383001
C228	C	0.982806	0.499962	0.883001
C229	C	0.527178	-0.000050	0.360470
C230	C	1.027178	0.499950	0.860470
C231	C	0.527780	-0.000064	0.301085
C232	C	1.027780	0.499936	0.801085
N233	N	0.572150	-0.000071	0.278550
N234	N	1.072150	0.499929	0.778550
C235	C	0.615915	-0.000077	0.315413
C236	C	1.115915	0.499923	0.815413
C237	C	0.524095	-0.000048	0.663406
C238	C	1.024095	0.499952	1.163406
C239	C	0.523490	-0.000051	0.722803
C240	C	1.023490	0.499949	1.222803
C241	C	0.611629	-0.000064	0.737133
C242	C	1.111629	0.499936	1.237133
C243	C	0.612233	-0.000064	0.677735
C244	C	1.112233	0.499936	1.177735
C245	C	0.568465	-0.000054	0.640872
C246	C	1.068465	0.499946	1.140872
C247	C	0.617179	-0.000087	0.190679
C248	C	1.117179	0.499913	0.690679
C249	C	0.617779	-0.000094	0.131278
C250	C	1.117779	0.499906	0.631278
C251	C	0.529641	-0.000079	0.116954
C252	C	1.029641	0.499921	0.616954
C253	C	0.529041	-0.000074	0.176350
C254	C	1.029041	0.499926	0.676350
C255	C	0.572814	-0.000077	0.213211
C256	C	1.072814	0.499923	0.713211
O257	O	0.490636	-0.000075	0.264229
O258	O	0.990636	0.499925	0.764229
O259	O	0.653704	-0.000076	0.290784
O260	O	1.153704	0.499924	0.790784
H261	H	0.057624	-0.000096	0.073564
H262	H	0.557624	0.499904	0.573564
C263	C	0.111927	-0.000101	0.087778
C264	C	0.611927	0.499899	0.587778
N265	N	0.096024	-0.000111	0.131065
N266	N	0.596024	0.499889	0.631065
C267	C	0.673107	-0.633218	0.047942
C268	C	1.173107	-0.133218	0.547942
N269	N	0.700490	-0.654856	0.080250
N270	N	1.200490	-0.154856	0.580250
C271	C	0.706621	-0.000090	0.511611
C272	C	1.206621	0.499910	1.011611
N273	N	0.742891	-0.000104	0.542143
N274	N	1.242891	0.499896	1.042143
C275	C	0.029324	-0.000087	-0.233686
C276	C	0.529324	0.499913	0.266314
N277	N	0.045226	-0.000094	-0.276974
N278	N	0.545226	0.499906	0.223026
H279	H	0.492909	-0.000079	0.194695
H280	H	0.992909	0.499921	0.694695
C281	C	0.217796	-0.000096	0.086505
C282	C	0.717796	0.499904	0.586505
N283	N	0.243662	-0.000105	0.129280
N284	N	0.743662	0.499895	0.629280
H285	H	0.477612	-0.625766	-0.182668
H286	H	0.977612	-0.125766	0.317332
C287	C	0.312638	-0.000057	-0.185066
C288	C	0.812638	0.499943	0.314934
N289	N	0.286789	-0.000058	-0.227853
N290	N	0.786789	0.499942	0.272147
H291	H	0.083638	-0.000069	-0.219463
H292	H	0.583638	0.499931	0.280537
H293	H	0.652823	-0.000088	0.220686
H294	H	1.152823	0.499912	0.720686
H295	H	0.494008	-0.000075	0.086930
H296	H	0.994008	0.499925	0.586930
H297	H	-0.067615	-0.000091	-0.217661
H298	H	0.432385	0.499909	0.282339
H299	H	0.477607	-0.531043	-0.182671
H300	H	0.977607	-0.031043	0.317329
C301	C	-0.277228	-0.000101	0.040417
C302	C	0.222772	0.499899	0.540417
N303	N	-0.293136	-0.000110	0.083700
N304	N	0.206864	0.499890	0.583700
H305	H	-0.180286	-0.000100	0.024402
H306	H	0.319714	0.499900	0.524402
H307	H	0.630629	-0.865975	-0.002189
H308	H	1.130629	-0.365975	0.497811
C309	C	0.501238	-0.873439	-0.154820
C310	C	1.001238	-0.373439	0.345180
N311	N	0.473846	-0.895066	-0.187129
N312	N	0.973846	-0.395066	0.312871
C313	C	0.640073	-0.763774	0.008955
C314	C	1.140073	-0.263774	0.508955
N315	N	0.667461	-0.742146	0.041268
N316	N	1.167461	-0.242146	0.541268
H317	H	0.488452	-0.000044	0.633395
H318	H	0.988452	0.499956	1.133395
C319	C	-0.039312	-0.000108	0.089585
C320	C	0.460688	0.499892	0.589585
N321	N	-0.055215	-0.000124	0.132871
N322	N	0.444785	0.499876	0.632871
H323	H	-0.202052	-0.000080	-0.164054
H324	H	0.297948	0.499920	0.335946
C325	C	0.501261	-0.763795	-0.154864
C326	C	1.001261	-0.263795	0.345136
N327	N	0.473907	-0.742175	-0.187224
N328	N	0.973907	-0.242175	0.312776
C329	C	0.707889	-0.000090	0.386899
C330	C	1.207889	0.499910	0.886899
N331	N	0.744658	-0.000093	0.368242
N332	N	1.244658	0.499907	0.868242
H333	H	-0.293521	-0.000080	-0.162957
H334	H	0.206479	0.499920	0.337043
H335	H	0.630594	-0.134167	-0.002234
H336	H	1.130594	0.365833	0.497766
C337	C	0.474677	-0.000045	0.747580
C338	C	0.974677	0.499955	1.247580
N339	N	0.437910	-0.000037	0.766240
N340	N	0.937910	0.499963	1.266240
H341	H	0.647265	-0.000067	0.767158
H342	H	1.147265	0.499933	1.267158
C343	C	0.661045	-0.000072	0.652957
C344	C	1.161045	0.499928	1.152957
N345	N	0.697813	-0.000077	0.634297
N346	N	1.197813	0.499923	1.134297
H347	H	0.653914	-0.000105	0.112937
H348	H	1.153914	0.499895	0.612937
H349	H	0.175088	-0.000064	-0.220557
H350	H	0.675088	0.499936	0.279443
C351	C	0.640044	-0.236351	0.008927
C352	C	1.140044	0.263649	0.508927
N353	N	0.667439	-0.257971	0.041239
N354	N	1.167439	0.242029	0.541239
H355	H	0.446065	-0.000026	0.460736
H356	H	0.946065	0.499974	0.960736
H357	H	0.663657	-0.374371	0.036782
H358	H	1.163657	0.125629	0.536782
C359	C	0.434656	-0.000029	0.342455
C360	C	0.934656	0.499971	0.842455
N361	N	0.398389	-0.000024	0.311916
N362	N	0.898389	0.499976	0.811916
C363	C	0.337840	-0.000071	0.033075
C364	C	0.837840	0.499929	0.533075
N365	N	0.321935	-0.000081	0.076360
N366	N	0.821935	0.499919	0.576360
C367	C	0.673106	-0.476551	0.047938
C368	C	1.173106	0.023449	0.547938
N369	N	0.700499	-0.498169	0.080254
N370	N	1.200499	0.001831	0.580254
C371	C	0.468145	-0.366922	-0.193824
C372	C	0.968145	0.133078	0.306176
N373	N	0.440757	-0.345298	-0.226140
N374	N	0.940757	0.154702	0.273860
C375	C	0.468142	-0.476566	-0.193815
C376	C	0.968142	0.023434	0.306185
N377	N	0.440744	-0.498191	-0.226120
N378	N	0.940744	0.001809	0.273880
H379	H	0.510650	-0.228916	-0.143717
H380	H	1.010650	0.271084	0.356283
H381	H	0.434795	-0.000061	0.017048
H382	H	0.934795	0.499939	0.517048
H383	H	0.510647	-0.134177	-0.143718
H384	H	1.010647	0.365823	0.356282
H385	H	0.413008	-0.000040	-0.171399
H386	H	0.913008	0.499960	0.328601
H387	H	0.663663	-0.531020	0.036794
H388	H	1.163663	-0.031020	0.536794
