data_functionalizedCrystal
_audit_creation_method	'MofGen! by Chris Wilmer'
_symmetry_space_group_name_H-M	'P1'
_symmetry_Int_Tables_number	1
_symmetry_cell_setting	triclinic
loop_
_symmetry_equiv_pos_as_xyz
  x,y,z
_cell_length_a	16.120530
_cell_length_b	29.839131
_cell_length_c	16.120256
_cell_angle_alpha	92.869474
_cell_angle_beta	90.128265
_cell_angle_gamma	87.136742
loop_
_atom_site_label
_atom_site_type_symbol
_atom_site_fract_x
_atom_site_fract_y
_atom_site_fract_z
Zn1	Zn	1.247310	-0.227608	-0.534531
Zn2	Zn	1.580643	0.105725	-0.201198
Zn3	Zn	1.913976	0.439058	0.132136
Zn4	Zn	1.254220	-0.299123	-0.395461
Zn5	Zn	1.587553	0.034211	-0.062128
Zn6	Zn	1.920886	0.367544	0.271205
Zn7	Zn	1.115304	-0.220015	-0.388450
Zn8	Zn	1.448638	0.113319	-0.055116
Zn9	Zn	1.781971	0.446652	0.278217
Zn10	Zn	1.108176	-0.298711	-0.527431
Zn11	Zn	1.441509	0.034622	-0.194098
Zn12	Zn	1.774843	0.367956	0.139235
O13	O	1.181252	-0.261364	-0.461468
O14	O	1.514586	0.071969	-0.128135
O15	O	1.847919	0.405303	0.205198
O16	O	1.364591	-0.240445	-0.521989
O17	O	1.697924	0.092888	-0.188655
O18	O	2.031257	0.426222	0.144678
O19	O	1.241667	-0.285623	-0.278166
O20	O	1.575001	0.047710	0.055167
O21	O	1.908334	0.381044	0.388501
O22	O	1.132907	-0.158158	-0.407864
O23	O	1.466240	0.175175	-0.074531
O24	O	1.799573	0.508508	0.258802
O25	O	1.369667	-0.292986	-0.419815
O26	O	1.703001	0.040347	-0.086482
O27	O	2.036334	0.373680	0.246852
O28	O	1.229890	-0.163737	-0.515190
O29	O	1.563224	0.169596	-0.181856
O30	O	1.896557	0.502929	0.151477
O31	O	1.139607	-0.227503	-0.273014
O32	O	1.472940	0.105831	0.060319
O33	O	1.806274	0.439164	0.393652
O34	O	0.997995	-0.227104	-0.400980
O35	O	1.331328	0.106230	-0.067647
O36	O	1.664661	0.439563	0.265687
O37	O	1.120757	-0.292285	-0.644739
O38	O	1.454091	0.041048	-0.311405
O39	O	1.787424	0.374382	0.021928
O40	O	0.992757	-0.284921	-0.503089
O41	O	1.326091	0.048412	-0.169756
O42	O	1.659424	0.381745	0.163577
O43	O	1.222978	-0.240046	-0.649955
O44	O	1.556312	0.093287	-0.316621
O45	O	1.889645	0.426621	0.016712
O46	O	1.234755	-0.361932	-0.412931
O47	O	1.568089	-0.028598	-0.079597
O48	O	1.901422	0.304735	0.253736
O49	O	1.127458	-0.361629	-0.509889
O50	O	1.460791	-0.028296	-0.176555
O51	O	1.794124	0.305037	0.156778
C52	C	0.965204	-0.255144	-0.450504
C53	C	1.298537	0.078189	-0.117171
C54	C	1.631871	0.411523	0.216163
C55	C	0.872776	-0.252495	-0.445833
C56	C	1.206110	0.080839	-0.112500
C57	C	1.539443	0.414172	0.220834
C58	C	1.181104	-0.378081	-0.461419
C59	C	1.514438	-0.044748	-0.128086
C60	C	1.847771	0.288585	0.205247
C61	C	1.181116	-0.428016	-0.461430
C62	C	1.514449	-0.094683	-0.128097
C63	C	1.847782	0.238650	0.205236
C64	C	0.703550	-0.247647	-0.437312
C65	C	1.036883	0.085687	-0.103979
C66	C	1.370216	0.419020	0.229354
C67	C	0.659793	-0.275116	-0.485685
C68	C	0.993126	0.058217	-0.152352
C69	C	1.326459	0.391551	0.180982
C70	C	0.565629	-0.272419	-0.480944
C71	C	0.898962	0.060915	-0.147611
C72	C	1.232296	0.394248	0.185723
C73	C	0.797722	-0.250343	-0.442052
C74	C	1.131055	0.082990	-0.108719
C75	C	1.464388	0.416323	0.224614
C76	C	1.237215	-0.737814	-0.411065
C77	C	1.570548	-0.404481	-0.077732
C78	C	1.903882	-0.071147	0.255602
C79	C	1.237316	-0.925491	-0.411102
C80	C	1.570649	-0.592158	-0.077769
C81	C	1.903983	-0.258824	0.255564
O82	O	1.284896	-0.949883	-0.368242
O83	O	1.618229	-0.616549	-0.034909
O84	O	1.951563	-0.283216	0.298424
N85	N	1.181422	-0.948813	-0.461540
N86	N	1.514755	-0.615479	-0.128206
N87	N	1.848088	-0.282146	0.205127
C88	C	1.125502	-0.925213	-0.511975
C89	C	1.458835	-0.591879	-0.178642
C90	C	1.792168	-0.258546	0.154691
O91	O	1.077968	-0.949356	-0.554882
O92	O	1.411302	-0.616023	-0.221549
O93	O	1.744635	-0.282689	0.111784
C94	C	1.125405	-0.737537	-0.511942
C95	C	1.458739	-0.404204	-0.178608
C96	C	1.792072	-0.070870	0.154725
C97	C	1.181298	-0.714217	-0.461495
C98	C	1.514631	-0.380884	-0.128161
C99	C	1.847964	-0.047551	0.205172
C100	C	1.293103	-0.714494	-0.360623
C101	C	1.626437	-0.381161	-0.027290
C102	C	1.959770	-0.047828	0.306044
C103	C	1.293075	-0.667578	-0.360611
C104	C	1.626408	-0.334244	-0.027277
C105	C	1.959741	-0.000911	0.306056
C106	C	1.237157	-0.643981	-0.411041
C107	C	1.570491	-0.310648	-0.077707
C108	C	1.903824	0.022686	0.255626
C109	C	1.181269	-0.667301	-0.461483
C110	C	1.514602	-0.333967	-0.128149
C111	C	1.847936	-0.000634	0.205184
C112	C	1.069490	-0.713938	-0.562381
C113	C	1.402824	-0.380605	-0.229048
C114	C	1.736157	-0.047271	0.104286
C115	C	1.069472	-0.667016	-0.562370
C116	C	1.402806	-0.333683	-0.229036
C117	C	1.736139	-0.000349	0.104297
C118	C	1.125365	-0.643696	-0.511923
C119	C	1.458698	-0.310363	-0.178589
C120	C	1.792031	0.022970	0.154744
C121	C	1.125323	-0.596787	-0.511900
C122	C	1.458656	-0.263454	-0.178567
C123	C	1.791989	0.069879	0.154767
N124	N	1.181217	-0.573465	-0.461463
N125	N	1.514550	-0.240132	-0.128130
N126	N	1.847884	0.093201	0.205204
C127	C	1.237134	-0.597062	-0.411033
C128	C	1.570468	-0.263729	-0.077700
C129	C	1.903801	0.069604	0.255634
C130	C	1.125555	-1.023745	-0.511988
C131	C	1.458889	-0.690412	-0.178655
C132	C	1.792222	-0.357078	0.154679
C133	C	1.125578	-1.070664	-0.511996
C134	C	1.458912	-0.737330	-0.178662
C135	C	1.792245	-0.403997	0.154671
C136	C	1.237394	-1.070939	-0.411124
C137	C	1.570727	-0.737605	-0.077790
C138	C	1.904060	-0.404272	0.255543
C139	C	1.237366	-1.024019	-0.411112
C140	C	1.570699	-0.690686	-0.077779
C141	C	1.904033	-0.357352	0.255554
C142	C	1.181450	-1.000423	-0.461551
C143	C	1.514783	-0.667090	-0.128218
C144	C	1.848116	-0.333757	0.205116
C145	C	1.237069	-0.498534	-0.411011
C146	C	1.570402	-0.165201	-0.077677
C147	C	1.903736	0.168133	0.255656
C148	C	1.237033	-0.451613	-0.411000
C149	C	1.570366	-0.118280	-0.077667
C150	C	1.903700	0.215053	0.255666
C151	C	1.125221	-0.451342	-0.511875
C152	C	1.458554	-0.118009	-0.178542
C153	C	1.791887	0.215324	0.154792
C154	C	1.125254	-0.498259	-0.511883
C155	C	1.458587	-0.164926	-0.178549
C156	C	1.791920	0.168408	0.154784
C157	C	1.181185	-0.521854	-0.461448
C158	C	1.514518	-0.188520	-0.128115
C159	C	1.847851	0.144813	0.205219
O160	O	1.077774	-0.572367	-0.554745
O161	O	1.411107	-0.239034	-0.221411
O162	O	1.744441	0.094300	0.111922
O163	O	1.284673	-0.572912	-0.368146
O164	O	1.618006	-0.239578	-0.034813
O165	O	1.951340	0.093755	0.298521
C166	C	1.237244	-0.784731	-0.411077
C167	C	1.570577	-0.451397	-0.077744
C168	C	1.903911	-0.118064	0.255589
C169	C	1.181355	-0.808050	-0.461519
C170	C	1.514689	-0.474717	-0.128186
C171	C	1.848022	-0.141384	0.205147
C172	C	1.125438	-0.784454	-0.511949
C173	C	1.458772	-0.451120	-0.178616
C174	C	1.792105	-0.117787	0.154718
C175	C	1.181378	-0.854969	-0.461527
C176	C	1.514712	-0.521636	-0.128193
C177	C	1.848045	-0.188302	0.205140
C178	C	1.237296	-0.878566	-0.411097
C179	C	1.570629	-0.545233	-0.077764
C180	C	1.903962	-0.211899	0.255570
C181	C	1.293190	-0.855244	-0.360660
C182	C	1.626523	-0.521911	-0.027326
C183	C	1.959857	-0.188577	0.306007
C184	C	1.293161	-0.808327	-0.360647
C185	C	1.626494	-0.474994	-0.027314
C186	C	1.959828	-0.141661	0.306019
C187	C	1.069544	-0.807775	-0.562386
C188	C	1.402877	-0.474442	-0.229053
C189	C	1.736211	-0.141109	0.104280
C190	C	1.069577	-0.854692	-0.562394
C191	C	1.402910	-0.521359	-0.229060
C192	C	1.736243	-0.188025	0.104273
C193	C	1.125494	-0.878289	-0.511964
C194	C	1.458827	-0.544955	-0.178631
C195	C	1.792161	-0.211622	0.154703
C196	C	1.398145	-0.267609	-0.472476
C197	C	1.731478	0.065725	-0.139143
C198	C	2.064811	0.399058	0.194191
C199	C	1.490571	-0.270270	-0.477167
C200	C	1.823904	0.063064	-0.143833
C201	C	2.157238	0.396397	0.189500
C202	C	1.170302	-0.266967	-0.678362
C203	C	1.503635	0.066367	-0.345029
C204	C	1.836969	0.399700	-0.011696
C205	C	1.165635	-0.269354	-0.770790
C206	C	1.498969	0.063979	-0.437456
C207	C	1.832302	0.397313	-0.104123
C208	C	1.181423	-0.144192	-0.461537
C209	C	1.514756	0.189141	-0.128203
C210	C	1.848090	0.522474	0.205130
C211	C	1.181495	-0.094261	-0.461566
C212	C	1.514829	0.239073	-0.128232
C213	C	1.848162	0.572406	0.205101
C214	C	1.205586	-0.248902	-0.983777
C215	C	1.538919	0.084431	-0.650444
C216	C	1.872253	0.417764	-0.317110
C217	C	1.157088	-0.273694	-0.940009
C218	C	1.490421	0.059640	-0.606676
C219	C	1.823755	0.392973	-0.273343
C220	C	1.161845	-0.271278	-0.845847
C221	C	1.495179	0.062055	-0.512514
C222	C	1.828512	0.395388	-0.179180
C223	C	1.200830	-0.251317	-1.077948
C224	C	1.534163	0.082016	-0.744615
C225	C	1.867496	0.415350	-0.411281
C226	C	1.192208	-0.255752	-0.245420
C227	C	1.525542	0.077581	0.087913
C228	C	1.858875	0.410914	0.421246
C229	C	1.197036	-0.253243	-0.153002
C230	C	1.530369	0.080090	0.180332
C231	C	1.863703	0.413424	0.513665
H232	H	0.693050	-0.300658	-0.530660
H233	H	1.026384	0.032675	-0.197326
H234	H	1.359717	0.366008	0.136007
F235	F	1.352652	-0.783515	-0.306957
F236	F	1.685986	-0.450182	0.026376
F237	F	2.019319	-0.116848	0.359710
F238	F	1.098148	-0.303807	-0.983464
F239	F	1.431481	0.029526	-0.650130
F240	F	1.764814	0.362860	-0.316797
F241	F	0.660082	-0.214263	-0.378532
F242	F	0.993416	0.119071	-0.045198
F243	F	1.326749	0.452404	0.288135
F244	F	1.296523	-0.426797	-0.357305
F245	F	1.629857	-0.093464	-0.023972
F246	F	1.963190	0.239869	0.309361
F247	F	1.296597	-0.523639	-0.357332
F248	F	1.629930	-0.190305	-0.023999
F249	F	1.963264	0.143028	0.309334
H250	H	1.338589	-0.648594	-0.319535
H251	H	1.671922	-0.315260	0.013798
H252	H	2.005256	0.018073	0.347131
F253	F	1.352625	-0.739601	-0.306945
F254	F	1.685958	-0.406268	0.026388
F255	F	2.019291	-0.072934	0.359721
H256	H	1.250676	-0.225866	-0.950532
H257	H	1.584010	0.107467	-0.617198
H258	H	1.917343	0.440801	-0.283865
H259	H	1.282879	-1.005035	-0.370035
H260	H	1.616212	-0.671702	-0.036702
H261	H	1.949545	-0.338368	0.296632
F262	F	1.066081	-1.095477	-0.565678
F263	F	1.399414	-0.762143	-0.232345
F264	F	1.732748	-0.428810	0.100989
F265	F	1.296903	-1.096060	-0.357450
F266	F	1.630237	-0.762727	-0.024117
F267	F	1.963570	-0.429393	0.309216
H268	H	1.338718	-0.874465	-0.319595
H269	H	1.672051	-0.541131	0.013738
H270	H	2.005384	-0.207798	0.347071
H271	H	1.080019	-1.004536	-0.553062
H272	H	1.413353	-0.671203	-0.219729
H273	H	1.746686	-0.337870	0.113604
H274	H	1.023939	-0.647807	-0.603445
H275	H	1.357273	-0.314473	-0.270112
H276	H	1.690606	0.018860	0.063221
F277	F	1.010008	-0.738747	-0.616082
F278	F	1.343341	-0.405414	-0.282749
F279	F	1.676674	-0.072080	0.050585
F280	F	1.065753	-0.523078	-0.565557
F281	F	1.399086	-0.189744	-0.232224
F282	F	1.732419	0.143589	0.101109
H283	H	1.079691	-0.432122	-0.552932
H284	H	1.413024	-0.098789	-0.219599
H285	H	1.746358	0.234544	0.113735
F286	F	1.010082	-0.879505	-0.616088
F287	F	1.343415	-0.546172	-0.282755
F288	F	1.676749	-0.212839	0.050579
F289	F	1.010026	-0.782668	-0.616064
F290	F	1.343360	-0.449335	-0.282731
F291	F	1.676693	-0.116001	0.050602
