data_functionalizedCrystal
_audit_creation_method	'MofGen! by Chris Wilmer'
_symmetry_space_group_name_H-M	'P1'
_symmetry_Int_Tables_number	1
_symmetry_cell_setting	triclinic
loop_
_symmetry_equiv_pos_as_xyz
  x,y,z
_cell_length_a	14.908571
_cell_length_b	13.897448
_cell_length_c	14.908308
_cell_angle_alpha	93.269663
_cell_angle_beta	89.824947
_cell_angle_gamma	93.284087
loop_
_atom_site_label
_atom_site_type_symbol
_atom_site_fract_x
_atom_site_fract_y
_atom_site_fract_z
Zn1	Zn	1.345301	0.503381	0.587603
Zn2	Zn	1.845301	1.003381	1.087603
Zn3	Zn	1.353883	0.655952	0.437249
Zn4	Zn	1.853883	1.155952	0.937249
Zn5	Zn	1.203616	0.484854	0.428600
Zn6	Zn	1.703616	0.984854	0.928600
Zn7	Zn	1.194911	0.654806	0.578901
Zn8	Zn	1.694911	1.154806	1.078901
O9	O	1.274428	0.574749	0.508088
O10	O	1.774428	1.074749	1.008088
O11	O	1.472266	0.531854	0.574919
O12	O	1.972266	1.031854	1.074919
O13	O	1.341185	0.625982	0.310277
O14	O	1.841185	1.125982	0.810277
O15	O	1.222463	0.352335	0.449714
O16	O	1.722463	0.852335	0.949714
O17	O	1.478571	0.643947	0.464455
O18	O	1.978571	1.143947	0.964455
O19	O	1.326558	0.365947	0.566532
O20	O	1.826558	0.865947	1.066532
O21	O	1.230784	0.500277	0.303922
O22	O	1.730784	1.000277	0.803922
O23	O	1.076636	0.499165	0.441276
O24	O	1.576636	0.999165	0.941276
O25	O	1.207626	0.641994	0.705880
O26	O	1.707626	1.141994	1.205880
O27	O	1.070240	0.624029	0.551701
O28	O	1.570240	1.124029	1.051701
O29	O	1.318117	0.530742	0.712273
O30	O	1.818117	1.030742	1.212273
O31	O	1.332744	0.790777	0.456018
O32	O	1.832744	1.290777	0.956018
O33	O	1.215948	0.789936	0.560088
O34	O	1.715948	1.289936	1.060088
C35	C	1.040812	0.559463	0.494606
C36	C	1.540812	1.059463	0.994606
C37	C	0.940869	0.552948	0.488860
C38	C	1.440869	1.052948	0.988860
C39	C	0.746463	0.670908	0.592894
C40	C	1.246463	1.170908	1.092894
C41	C	0.652558	0.664790	0.587498
C42	C	1.152558	1.164790	1.087498
C43	C	0.659150	0.534590	0.472677
C44	C	1.159150	1.034590	0.972677
C45	C	0.753056	0.540708	0.478073
C46	C	1.253056	1.040708	0.978073
C47	C	0.796709	0.608871	0.538183
C48	C	1.296709	1.108871	1.038183
C49	C	0.890617	0.614993	0.543573
C50	C	1.390617	1.114993	1.043573
C51	C	0.897208	0.484788	0.428758
C52	C	1.397208	0.984788	0.928758
C53	C	0.803302	0.478670	0.423362
C54	C	1.303302	0.978670	0.923362
C55	C	1.274356	0.825357	0.508068
C56	C	1.774356	1.325357	1.008068
C57	C	1.274405	0.932576	0.508095
C58	C	1.774405	1.432576	1.008095
C59	C	1.274490	1.128880	0.508164
C60	C	1.774490	1.628880	1.008164
C61	C	1.274440	1.019643	0.508128
C62	C	1.774440	1.519643	1.008128
C63	C	1.508956	0.590095	0.521623
C64	C	2.008956	1.090095	1.021623
C65	C	1.608898	0.596634	0.527391
C66	C	2.108898	1.096634	1.027391
C67	C	1.260943	0.588307	0.742614
C68	C	1.760943	1.088307	1.242614
C69	C	1.255197	0.594085	0.842555
C70	C	1.755197	1.094085	1.342555
C71	C	1.274516	1.323164	0.508139
C72	C	1.774516	1.823164	1.008139
C73	C	1.274532	1.215954	0.508187
C74	C	1.774532	1.715954	1.008187
C75	C	1.287912	0.561177	0.274477
C76	C	1.787912	1.061177	0.774477
C77	C	1.293833	0.555139	0.174547
C78	C	1.793833	1.055139	0.674547
C79	C	1.359450	0.489073	1.037013
C80	C	1.859450	0.989073	1.537013
C81	C	1.354054	0.494499	1.130917
C82	C	1.854054	0.994499	1.630917
C83	C	1.239003	0.610355	1.124267
C84	C	1.739003	1.110355	1.624267
C85	C	1.244400	0.604930	1.030363
C86	C	1.744400	1.104930	1.530363
C87	C	1.304626	0.544288	0.986740
C88	C	1.804626	1.044288	1.486740
C89	C	1.310027	0.538868	0.892835
C90	C	1.810027	1.038868	1.392835
C91	C	1.194972	0.654719	0.886187
C92	C	1.694972	1.154719	1.386187
C93	C	1.189576	0.660145	0.980090
C94	C	1.689576	1.160145	1.480090
H95	H	0.611650	0.715306	0.632051
H96	H	1.111650	1.215306	1.132051
O97	O	1.180622	0.669358	1.166704
O98	O	1.680622	1.169358	1.666704
C99	C	1.162362	0.804850	1.272082
C100	C	1.662362	1.304850	1.772082
C101	C	1.228583	0.738122	1.224065
C102	C	1.728583	1.238122	1.724065
H103	H	1.201110	0.860450	1.318483
H104	H	1.701110	1.360450	1.818483
H105	H	1.124106	0.843460	1.220070
H106	H	1.624106	1.343460	1.720070
H107	H	1.112828	0.759986	1.313288
H108	H	1.612828	1.259986	1.813288
H109	H	1.278171	0.782915	1.182860
H110	H	1.778171	1.282915	1.682860
H111	H	1.266772	0.699508	1.276122
H112	H	1.766772	1.199508	1.776122
H113	H	0.767747	0.423172	0.374425
H114	H	1.267747	0.923172	0.874425
H115	H	0.623591	0.479090	0.423745
H116	H	1.123591	0.979090	0.923745
H117	H	0.938128	0.434274	0.384206
H118	H	1.438128	0.934274	0.884206
O119	O	1.368547	0.479880	0.850597
O120	O	1.868547	0.979880	1.350597
C121	C	1.482123	0.365576	0.867110
C122	C	1.982123	0.865576	1.367110
C123	C	1.415875	0.432327	0.915054
C124	C	1.915875	0.932327	1.415054
H125	H	1.520419	0.327126	0.919203
H126	H	2.020419	0.827126	1.419203
H127	H	1.443424	0.309843	0.820799
H128	H	1.943424	0.809843	1.320799
H129	H	1.531616	0.410402	0.825827
H130	H	2.031616	0.910402	1.325827
H131	H	1.366366	0.387580	0.956385
H132	H	1.866366	0.887580	1.456385
H133	H	1.454632	0.488063	0.961312
H134	H	1.954632	0.988063	1.461312
O135	O	1.131202	0.719163	1.022518
O136	O	1.631202	1.219163	1.522518
C137	C	1.112969	0.854685	1.127869
C138	C	1.612969	1.354685	1.627869
C139	C	1.179176	0.787929	1.079868
C140	C	1.679176	1.287929	1.579868
H141	H	1.151728	0.910285	1.174261
H142	H	1.651728	1.410285	1.674261
H143	H	1.074726	0.893294	1.075847
H144	H	1.574726	1.393294	1.575847
H145	H	1.063424	0.809844	1.169083
H146	H	1.563424	1.309844	1.669083
H147	H	1.228776	0.832699	1.038656
H148	H	1.728776	1.332699	1.538656
H149	H	1.217353	0.749316	1.131935
H150	H	1.717353	1.249316	1.631935
H151	H	1.150333	0.699682	0.845244
H152	H	1.650333	1.199682	1.345244
H153	H	0.926157	0.670495	0.592516
H154	H	1.426157	1.170495	1.092516
O155	O	1.417974	0.430092	0.994773
O156	O	1.917974	0.930092	1.494773
C157	C	1.531568	0.315806	1.011278
C158	C	2.031568	0.815806	1.511278
C159	C	1.465313	0.382544	1.059226
C160	C	1.965313	0.882544	1.559226
H161	H	1.569872	0.277361	1.063368
H162	H	2.069872	0.777361	1.563368
H163	H	1.492875	0.260068	0.964967
H164	H	1.992875	0.760068	1.464967
H165	H	1.581054	0.360640	0.969994
H166	H	2.081054	0.860640	1.469994
H167	H	1.415811	0.337789	1.100558
H168	H	1.915811	0.837789	1.600558
H169	H	1.504065	0.438285	1.105484
H170	H	2.004065	0.938285	1.605484
H171	H	0.782006	0.726414	0.641832
H172	H	1.282006	1.226414	1.141832
H173	H	1.398695	0.449534	1.171846
H174	H	1.898695	0.949534	1.671846
