data_functionalizedCrystal
_audit_creation_method	'MofGen! by Chris Wilmer'
_symmetry_space_group_name_H-M	'P1'
_symmetry_Int_Tables_number	1
_symmetry_cell_setting	triclinic
loop_
_symmetry_equiv_pos_as_xyz
  x,y,z
_cell_length_a	10.540514
_cell_length_b	10.540539
_cell_length_c	11.295483
_cell_angle_alpha	94.138588
_cell_angle_beta	85.853195
_cell_angle_gamma	84.520326
loop_
_atom_site_label
_atom_site_type_symbol
_atom_site_fract_x
_atom_site_fract_y
_atom_site_fract_z
O1	O	1.694380	0.170275	-0.099034
O2	O	1.324963	0.187164	-0.099033
O3	O	1.518099	-0.005988	-0.099032
O4	O	1.501244	0.363427	-0.099035
O5	O	1.501136	0.010951	0.099019
O6	O	1.307999	0.204103	0.099018
O7	O	1.677416	0.187213	0.099017
Cu8	Cu	1.491159	0.197205	0.117101
Cu9	Cu	1.511220	0.177173	-0.117117
O10	O	1.484280	0.380365	0.099016
C11	C	1.269177	0.194374	-0.000007
C12	C	1.128228	0.190605	-0.000007
C13	C	1.057522	0.328744	-0.000010
C14	C	0.910948	0.324831	-0.000466
C15	C	0.945559	0.105823	-0.112890
C16	C	1.092106	0.110669	-0.112978
C17	C	1.073217	0.127888	0.112250
C18	C	0.926112	0.126681	0.113728
C19	C	1.508354	-0.044822	-0.000009
C20	C	1.504572	-0.185770	-0.000015
C21	C	1.359691	-0.369221	-0.000459
C22	C	1.363487	-0.222566	-0.000013
C23	C	1.562781	-0.237761	0.113081
C24	C	1.557958	-0.384297	0.113177
C25	C	1.580119	-0.404078	-0.112044
C26	C	1.581546	-0.257224	-0.113539
C27	C	1.733202	0.180003	-0.000012
C28	C	1.874152	0.183772	-0.000020
C29	C	1.494026	0.419199	-0.000010
C30	C	1.497808	0.560146	-0.000011
N31	N	1.477058	0.211293	0.281837
N32	N	1.525331	0.163074	-0.281853
C33	C	1.626838	0.061586	0.531127
C34	C	1.616191	0.072241	0.655791
C35	C	1.445111	0.243254	0.655830
C36	C	1.455758	0.232598	0.531167
C37	C	1.546626	0.141762	0.468820
C38	C	1.557278	0.131113	0.344154
C39	C	1.386193	0.302119	0.344195
C40	C	1.375546	0.312775	0.468859
H41	H	1.079130	0.391704	0.080918
C42	C	0.897823	0.159368	-0.226801
H43	H	0.834414	0.229195	-0.205817
H44	H	0.862200	0.094309	-0.272369
H45	H	0.967413	0.187663	-0.272482
H46	H	1.681506	0.006952	0.706518
H47	H	1.539033	-0.223517	-0.197205
H48	H	1.371120	0.317202	0.706610
H49	H	1.301559	0.386729	0.519636
H50	H	1.684993	-0.233596	-0.120369
H51	H	1.320882	0.367408	0.293450
H52	H	1.700835	-0.012368	0.480363
H53	H	1.097381	0.181191	0.197829
H54	H	1.310906	-0.404753	-0.081562
C55	C	0.863974	0.387722	-0.110388
H56	H	0.934504	0.415748	-0.154948
H57	H	0.803353	0.458870	-0.085362
H58	H	0.825101	0.327343	-0.158680
C59	C	1.702261	-0.207101	0.118773
H60	H	1.735593	-0.239390	0.187815
H61	H	1.705217	-0.117130	0.122161
H62	H	1.752033	-0.245896	0.049852
H63	H	1.541799	-0.442958	-0.197764
H64	H	0.861356	0.385466	0.080425
H65	H	0.901314	0.024447	0.120880
C66	C	1.717870	-0.467974	-0.113085
H67	H	1.767145	-0.445994	-0.180978
H68	H	1.716824	-0.558158	-0.115989
H69	H	1.754629	-0.439169	-0.042925
C70	C	1.300679	-0.174362	-0.109520
H71	H	1.272604	-0.244440	-0.154679
H72	H	1.361104	-0.135060	-0.157375
H73	H	1.229550	-0.113863	-0.084059
H74	H	1.631271	0.057154	0.293392
H75	H	1.094673	0.377050	-0.080832
H76	H	1.127585	0.153306	-0.197674
H77	H	1.302732	-0.173859	0.081194
C78	C	1.157528	-0.026959	-0.119481
H79	H	1.247450	-0.024932	-0.119572
H80	H	1.138138	-0.072636	-0.190416
H81	H	1.127364	-0.068209	-0.052450
C82	C	1.136932	-0.009628	0.113741
H83	H	1.103296	-0.047029	0.181768
H84	H	1.226614	-0.008048	0.116654
H85	H	1.120174	-0.058650	0.043714
H86	H	1.297278	-0.392526	0.080190
C87	C	0.915860	-0.034620	-0.118142
H88	H	0.859507	-0.046992	-0.051389
H89	H	0.993030	-0.088831	-0.116910
H90	H	0.876691	-0.054671	-0.189365
C91	C	1.480376	-0.412624	0.227374
H92	H	1.452092	-0.334644	0.273267
H93	H	1.532693	-0.465816	0.272594
H94	H	1.408455	-0.454867	0.206706
C95	C	0.861076	0.203750	0.226536
H96	H	0.802494	0.270438	0.204419
H97	H	0.924095	0.239502	0.270843
H98	H	0.816491	0.148856	0.273932
H99	H	1.508408	-0.187959	0.197244
C100	C	1.694426	-0.448522	0.120130
H101	H	1.752564	-0.385023	0.122895
H102	H	1.717308	-0.506532	0.051936
H103	H	1.697598	-0.493614	0.189877
