data_functionalizedCrystal
_audit_creation_method	'MofGen! by Chris Wilmer'
_symmetry_space_group_name_H-M	'P1'
_symmetry_Int_Tables_number	1
_symmetry_cell_setting	triclinic
loop_
_symmetry_equiv_pos_as_xyz
  x,y,z
_cell_length_a	17.077404
_cell_length_b	16.625545
_cell_length_c	17.077396
_cell_angle_alpha	89.971239
_cell_angle_beta	89.980813
_cell_angle_gamma	90.023805
loop_
_atom_site_label
_atom_site_type_symbol
_atom_site_fract_x
_atom_site_fract_y
_atom_site_fract_z
Zn1	Zn	1.200023	-0.321033	-0.443886
Zn2	Zn	1.199929	-0.455877	-0.312622
Zn3	Zn	1.068760	-0.321058	-0.312630
Zn4	Zn	1.068716	-0.455823	-0.443841
O5	O	1.134357	-0.388448	-0.378245
O6	O	1.309857	-0.338932	-0.426490
O7	O	1.182508	-0.438027	-0.202776
O8	O	1.086229	-0.208222	-0.330064
O9	O	1.309788	-0.438002	-0.330050
O10	O	1.182668	-0.208204	-0.426497
O11	O	1.086138	-0.338976	-0.202782
O12	O	0.958907	-0.338923	-0.330020
O13	O	1.086155	-0.437909	-0.553694
O14	O	0.958875	-0.437934	-0.426420
O15	O	1.182626	-0.338879	-0.553727
O16	O	1.182466	-0.568703	-0.330006
O17	O	1.086064	-0.568663	-0.426412
C18	C	0.930409	-0.388426	-0.378216
C19	C	0.843159	-0.388436	-0.378223
C20	C	0.467378	-0.336977	-0.428570
C21	C	0.549358	-0.336971	-0.428561
C22	C	0.590310	-0.388465	-0.378264
C23	C	0.549278	-0.439973	-0.327979
C24	C	0.467299	-0.439983	-0.327992
C25	C	0.720148	-0.439949	-0.327954
C26	C	0.802132	-0.439939	-0.327939
C27	C	0.802207	-0.336938	-0.428523
C28	C	0.720228	-0.336947	-0.428536
C29	C	0.679201	-0.388455	-0.378249
C30	C	1.134271	-0.597939	-0.378220
C31	C	1.134307	-0.687560	-0.378236
C32	C	1.134337	-0.760342	-0.378251
C33	C	1.134383	-0.851651	-0.378269
C34	C	1.134424	-0.924427	-0.378279
C35	C	1.134469	-1.015741	-0.378295
C36	C	1.339101	-0.388470	-0.378274
C37	C	1.426351	-0.388480	-0.378286
C38	C	1.134396	-0.388385	-0.582989
C39	C	1.134413	-0.388359	-0.670239
C40	C	1.134464	-0.178139	-0.378287
C41	C	1.134509	-0.088518	-0.378305
C42	C	1.084249	-0.336777	-0.711232
C43	C	1.084262	-0.336758	-0.793212
C44	C	1.134443	-0.388319	-0.834198
C45	C	1.184610	-0.439906	-0.793200
C46	C	1.184592	-0.439928	-0.711221
C47	C	1.184644	-0.439856	-0.964070
C48	C	1.184662	-0.439833	-1.046055
C49	C	1.084313	-0.336686	-1.046061
C50	C	1.084296	-0.336708	-0.964082
C51	C	1.134463	-0.388295	-0.923089
C52	C	1.134363	-0.388452	-0.174297
C53	C	1.134498	-0.388251	-0.087047
H54	H	0.835615	-0.294997	-0.469467
O55	O	0.427321	-0.489985	-0.279219
C56	C	0.300992	-0.535616	-0.234631
C57	C	0.346167	-0.478957	-0.289917
H58	H	0.235372	-0.526708	-0.243250
H59	H	0.317041	-0.600666	-0.248302
H60	H	0.317129	-0.521381	-0.171366
H61	H	0.330055	-0.493119	-0.353201
H62	H	0.330115	-0.413923	-0.276179
O63	O	1.035659	-0.286466	-1.085847
C64	C	0.997599	-0.149306	-1.110939
C65	C	1.052754	-0.206086	-1.065839
H66	H	1.011389	-0.084308	-1.094766
H67	H	1.006234	-0.158085	-1.176579
H68	H	0.934298	-0.163502	-1.094817
H69	H	1.116076	-0.191925	-1.081895
H70	H	1.044051	-0.197297	-1.000209
O71	O	1.233273	-0.490108	-0.832975
C72	C	1.271346	-0.627258	-0.857994
C73	C	1.216170	-0.570497	-0.812917
H74	H	1.257549	-0.692263	-0.841781
H75	H	1.262743	-0.618452	-0.923638
H76	H	1.334640	-0.613067	-0.841893
H77	H	1.152855	-0.584652	-0.828953
H78	H	1.224841	-0.579313	-0.747284
H79	H	0.686746	-0.481896	-0.287008
H80	H	1.043410	-0.294758	-0.826585
H81	H	1.225525	-0.481818	-1.079424
O82	O	1.233210	-0.490119	-0.671361
C83	C	1.243687	-0.598974	-0.578744
C84	C	1.188541	-0.542191	-0.623849
H85	H	1.207596	-0.641076	-0.540306
H86	H	1.279545	-0.635882	-0.622081
H87	H	1.284758	-0.561955	-0.540410
H88	H	1.147423	-0.579147	-0.662184
H89	H	1.152739	-0.505280	-0.580470
H90	H	0.582627	-0.481903	-0.287030
H91	H	0.434040	-0.295040	-0.469522
H92	H	1.043389	-0.294786	-0.677866
O93	O	1.035439	-0.286707	-0.924303
C94	C	0.901932	-0.247525	-0.899241
C95	C	0.957174	-0.304212	-0.944325
H96	H	0.838645	-0.261646	-0.915425
H97	H	0.910471	-0.256405	-0.833598
H98	H	0.915795	-0.182511	-0.915366
H99	H	0.943346	-0.369247	-0.928266
H100	H	0.948626	-0.295262	-1.009957
O101	O	1.233416	-0.489856	-0.924165
C102	C	1.339407	-0.500738	-0.831659
C103	C	1.284208	-0.444028	-0.876788
H104	H	1.380497	-0.463708	-0.793356
H105	H	1.303383	-0.542894	-0.793211
H106	H	1.375240	-0.537601	-0.875051
H107	H	1.248363	-0.407113	-0.833453
H108	H	1.320277	-0.401925	-0.915247
H109	H	0.835473	-0.481872	-0.286986
H110	H	0.686887	-0.295013	-0.469488
O111	O	0.589090	-0.286859	-0.477426
C112	C	0.580513	-0.184719	-0.577212
C113	C	0.535420	-0.241420	-0.521899
H114	H	0.537141	-0.147978	-0.613195
H115	H	0.618866	-0.142456	-0.541273
H116	H	0.618925	-0.221794	-0.618158
H117	H	0.496966	-0.204410	-0.480942
H118	H	0.497117	-0.283685	-0.557887
