data_functionalizedCrystal
_audit_creation_method	'MofGen! by Chris Wilmer'
_symmetry_space_group_name_H-M	'P1'
_symmetry_Int_Tables_number	1
_symmetry_cell_setting	triclinic
loop_
_symmetry_equiv_pos_as_xyz
  x,y,z
_cell_length_a	13.897449
_cell_length_b	13.897448
_cell_length_c	13.897449
_cell_angle_alpha	90.009266
_cell_angle_beta	90.006536
_cell_angle_gamma	90.018519
loop_
_atom_site_label
_atom_site_type_symbol
_atom_site_fract_x
_atom_site_fract_y
_atom_site_fract_z
Zn1	Zn	1.474542	-0.384166	0.545449
Zn2	Zn	1.974542	0.115834	1.045449
Zn3	Zn	1.474484	-0.545428	0.384151
Zn4	Zn	1.974484	-0.045428	0.884151
Zn5	Zn	1.313279	-0.384151	0.384160
Zn6	Zn	1.813279	0.115849	0.884160
Zn7	Zn	1.313213	-0.545423	0.545396
Zn8	Zn	1.813213	-0.045423	1.045396
O9	O	1.393879	-0.464792	0.464789
O10	O	1.893879	0.035208	0.964789
O11	O	1.609516	-0.405566	0.524071
O12	O	2.109516	0.094434	1.024071
O13	O	1.453102	-0.524029	0.249170
O14	O	1.953102	-0.024029	0.749170
O15	O	1.334723	-0.249171	0.405582
O16	O	1.834723	0.250829	0.905582
O17	O	1.609473	-0.524044	0.405566
O18	O	2.109473	-0.024044	0.905566
O19	O	1.453202	-0.249182	0.524080
O20	O	1.953202	0.250818	1.024080
O21	O	1.334666	-0.405540	0.249177
O22	O	1.834666	0.094460	0.749177
O23	O	1.178288	-0.405535	0.405530
O24	O	1.678288	0.094465	0.905530
O25	O	1.334611	-0.524036	0.680384
O26	O	1.834611	-0.024036	1.180384
O27	O	1.178240	-0.524021	0.523989
O28	O	1.678240	-0.024021	1.023989
O29	O	1.453138	-0.405562	0.680424
O30	O	1.953138	0.094438	1.180424
O31	O	1.453039	-0.680409	0.405514
O32	O	1.953039	-0.180409	0.905514
O33	O	1.334554	-0.680405	0.523980
O34	O	1.834554	-0.180405	1.023980
C35	C	1.143265	-0.464777	0.464755
C36	C	1.643265	0.035223	0.964755
C37	C	1.036051	-0.464794	0.464764
C38	C	1.536051	0.035206	0.964764
C39	C	1.393809	-0.715406	0.464761
C40	C	1.893809	-0.215406	0.964761
C41	C	1.393867	-0.822620	0.464781
C42	C	1.893867	-0.322620	0.964781
C43	C	0.948981	-0.464797	0.464780
C44	C	1.448981	0.035203	0.964780
C45	C	0.839749	-0.464804	0.464809
C46	C	1.339749	0.035196	0.964809
C47	C	1.393968	-1.018915	0.464842
C48	C	1.893968	-0.518915	0.964842
C49	C	1.393909	-0.909683	0.464811
C50	C	1.893909	-0.409683	0.964811
C51	C	1.645472	-0.464807	0.464823
C52	C	2.145472	0.035193	0.964823
C53	C	1.752686	-0.464814	0.464838
C54	C	2.252686	0.035186	0.964838
C55	C	1.393874	-0.464800	0.716382
C56	C	1.893874	0.035200	1.216382
C57	C	1.393871	-0.464804	0.823596
C58	C	1.893871	0.035196	1.323596
C59	C	1.393976	-0.213199	0.464838
C60	C	1.893976	0.286801	0.964838
C61	C	1.394018	-0.105985	0.464859
C62	C	1.894018	0.394015	0.964859
C63	C	1.393869	-0.464807	0.910666
C64	C	1.893869	0.035193	1.410666
C65	C	1.393868	-0.464803	1.019898
C66	C	1.893868	0.035197	1.519898
C67	C	1.393876	-0.464803	1.214175
C68	C	1.893876	0.035197	1.714175
C69	C	1.393873	-0.464794	1.106961
C70	C	1.893873	0.035206	1.606961
