data_functionalizedCrystal
_audit_creation_method	'MofGen! by Chris Wilmer'
_symmetry_space_group_name_H-M	'P1'
_symmetry_Int_Tables_number	1
_symmetry_cell_setting	triclinic
loop_
_symmetry_equiv_pos_as_xyz
  x,y,z
_cell_length_a	12.827893
_cell_length_b	16.625545
_cell_length_c	12.827885
_cell_angle_alpha	90.032834
_cell_angle_beta	90.019272
_cell_angle_gamma	90.025528
loop_
_atom_site_label
_atom_site_type_symbol
_atom_site_fract_x
_atom_site_fract_y
_atom_site_fract_z
Zn1	Zn	1.597596	-0.320963	0.590827
Zn2	Zn	1.597459	-0.455817	0.416078
Zn3	Zn	1.422837	-0.321002	0.416100
Zn4	Zn	1.422791	-0.455757	0.590777
O5	O	1.510171	-0.388385	0.503445
O6	O	1.743814	-0.338861	0.567657
O7	O	1.574257	-0.437976	0.269844
O8	O	1.446096	-0.208165	0.439308
O9	O	1.743713	-0.437937	0.439269
O10	O	1.574490	-0.208136	0.567679
O11	O	1.445963	-0.338928	0.269861
O12	O	1.276595	-0.338869	0.439260
O13	O	1.446018	-0.437835	0.737020
O14	O	1.276562	-0.437873	0.567595
O15	O	1.574446	-0.338802	0.737056
O16	O	1.574212	-0.568642	0.439222
O17	O	1.445885	-0.568598	0.567573
C18	C	1.238661	-0.388370	0.503426
C19	C	1.122508	-0.388382	0.503442
C20	C	1.070734	-0.437449	0.566848
C21	C	0.950684	-0.437464	0.566866
C22	C	1.510057	-0.597876	0.503413
C23	C	1.510104	-0.687497	0.503433
C24	C	1.510145	-0.760280	0.503454
C25	C	1.510206	-0.851588	0.503477
C26	C	1.510260	-0.924364	0.503490
C27	C	1.510320	-1.015679	0.503512
C28	C	1.782741	-0.388401	0.503466
C29	C	1.898894	-0.388408	0.503475
C30	C	1.510242	-0.388308	0.776016
C31	C	1.510272	-0.388275	0.892169
C32	C	1.510313	-0.178076	0.503501
C33	C	1.510374	-0.088455	0.503525
C34	C	1.510160	-0.388404	0.231935
C35	C	1.510332	-0.388210	0.115783
C36	C	1.573829	-0.339261	0.943972
C37	C	1.573862	-0.339225	1.064022
H38	H	0.943412	-0.346401	0.449184
C39	C	1.646528	-0.283385	0.884748
C40	C	1.749940	-0.300910	0.911245
C41	C	1.816940	-0.249446	0.856724
H42	H	1.637010	-0.290788	0.811933
H43	H	1.631355	-0.229178	0.902621
H44	H	1.765107	-0.355105	0.893364
H45	H	1.759490	-0.293503	0.984050
H46	H	1.801767	-0.195238	0.874597
H47	H	1.807414	-0.256852	0.783912
H48	H	1.887112	-0.261324	0.874702
C49	C	1.437631	-0.444228	0.951341
C50	C	1.378972	-0.489440	0.880284
C51	C	1.312032	-0.540986	0.934751
H52	H	1.477516	-0.479390	0.993919
H53	H	1.392112	-0.413356	0.993901
H54	H	1.424485	-0.520309	0.837742
H55	H	1.339065	-0.454299	0.837703
H56	H	1.266513	-0.510115	0.977311
H57	H	1.351926	-0.576143	0.977328
H58	H	1.272217	-0.571663	0.886548
H59	H	0.906159	-0.479474	0.621147
H60	H	1.077956	-0.346382	0.449175
C61	C	1.129939	-0.493481	0.639334
C62	C	1.058908	-0.538737	0.697852
C63	C	1.113406	-0.590355	0.764650
H64	H	1.172492	-0.528613	0.599353
H65	H	1.172526	-0.462659	0.684948
H66	H	1.016338	-0.569556	0.652244
H67	H	1.016353	-0.503626	0.737855
H68	H	1.155994	-0.559533	0.810264
H69	H	1.155957	-0.625481	0.724660
H70	H	1.065221	-0.621061	0.804369
H71	H	1.628279	-0.297265	1.108571
H72	H	1.455920	-0.430178	1.071241
