data_functionalizedCrystal
_audit_creation_method	'MofGen! by Chris Wilmer'
_symmetry_space_group_name_H-M	'P1'
_symmetry_Int_Tables_number	1
_symmetry_cell_setting	triclinic
loop_
_symmetry_equiv_pos_as_xyz
  x,y,z
_cell_length_a	10.723024
_cell_length_b	10.065875
_cell_length_c	10.723023
_cell_angle_alpha	81.125872
_cell_angle_beta	84.467709
_cell_angle_gamma	98.831087
loop_
_atom_site_label
_atom_site_type_symbol
_atom_site_fract_x
_atom_site_fract_y
_atom_site_fract_z
O1	O	1.675288	0.113481	0.156842
O2	O	1.312136	0.113486	0.173595
O3	O	1.502088	0.113478	-0.016357
O4	O	1.485336	0.113489	0.346794
O5	O	1.465868	-0.113509	0.020011
O6	O	1.275916	-0.113501	0.209963
O7	O	1.639068	-0.113506	0.193210
Zn8	Zn	1.451741	-0.149543	0.207361
Zn9	Zn	1.499463	0.149523	0.159444
O10	O	1.449116	-0.113498	0.383162
C11	C	1.247527	-0.000007	0.190560
C12	C	1.108973	-0.000006	0.186912
C13	C	0.917215	-0.000007	0.073605
C14	C	1.060419	-0.000008	0.077372
N15	N	1.419182	-0.353647	0.240061
C16	C	1.488126	-0.421429	0.170814
C17	C	1.463077	-0.578595	0.195991
C18	C	1.703678	-0.000010	0.176245
C19	C	1.842233	-0.000002	0.179892
C20	C	1.482759	-0.000014	-0.044673
C21	C	1.479113	-0.000010	-0.183228
N22	N	1.532032	0.353627	0.126734
C23	C	1.496250	0.117578	-0.263833
C24	C	1.492482	0.117586	-0.407038
C25	C	1.468445	-0.000003	0.411477
C26	C	1.472093	0.000002	0.550031
H27	H	0.875390	-0.000030	-0.020178
H28	H	1.044549	0.000003	0.277906
H29	H	0.884054	-0.000008	0.273678
O30	O	1.326713	-0.423063	0.333173
C31	C	1.353935	-0.388268	0.451258
H32	H	1.418503	-0.284476	0.434876
H33	H	1.261553	-0.383542	0.511348
H34	H	1.403759	-0.468649	0.503038
O35	O	1.516924	0.237586	-0.219516
C36	C	1.412180	0.244912	-0.132180
H37	H	1.359555	0.137459	-0.091198
H38	H	1.447209	0.297127	-0.051904
H39	H	1.345081	0.306074	-0.182813
H40	H	1.565693	-0.363108	0.092884
H41	H	1.124852	-0.000003	-0.013619
O42	O	1.509745	0.237653	-0.489667
C43	C	1.401049	0.244928	-0.552962
H44	H	1.315484	0.174766	-0.493173
H45	H	1.382249	0.354361	-0.567668
H46	H	1.417519	0.211542	-0.649224
O47	O	1.454403	-0.120196	-0.367474
C48	C	1.333645	-0.195489	-0.373905
H49	H	1.300784	-0.160436	-0.469681
H50	H	1.339724	-0.308693	-0.363061
H51	H	1.262780	-0.178225	-0.294174
H52	H	1.609603	-0.588055	0.048799
H53	H	1.461643	-0.100676	-0.220236
H54	H	1.385497	-0.636913	0.273917
