data_functionalizedCrystal
_audit_creation_method	'MofGen! by Chris Wilmer'
_symmetry_space_group_name_H-M	'P1'
_symmetry_Int_Tables_number	1
_symmetry_cell_setting	triclinic
loop_
_symmetry_equiv_pos_as_xyz
  x,y,z
_cell_length_a	15.944564
_cell_length_b	15.944480
_cell_length_c	14.586319
_cell_angle_alpha	89.996782
_cell_angle_beta	89.994473
_cell_angle_gamma	83.486891
loop_
_atom_site_label
_atom_site_type_symbol
_atom_site_fract_x
_atom_site_fract_y
_atom_site_fract_z
O1	O	-0.108048	-1.114566	0.076223
O2	O	0.391952	-0.614566	0.576223
O3	O	-0.121466	-0.870009	0.076230
O4	O	0.378534	-0.370009	0.576230
O5	O	0.007519	-0.998960	0.076217
O6	O	0.507519	-0.498960	0.576217
O7	O	-0.237033	-0.985614	0.076235
O8	O	0.262967	-0.485614	0.576235
O9	O	0.007522	-0.998950	-0.076263
O10	O	0.507522	-0.498950	0.423737
O11	O	-0.121463	-0.869998	-0.076251
O12	O	0.378537	-0.369998	0.423749
O13	O	-0.108045	-1.114555	-0.076258
O14	O	0.391955	-0.614555	0.423742
Cu15	Cu	-0.114754	-0.992276	-0.090177
Cu16	Cu	0.385246	-0.492276	0.409823
Cu17	Cu	-0.114758	-0.992288	0.090149
Cu18	Cu	0.385242	-0.492288	0.590149
O19	O	-0.237030	-0.985604	-0.076246
O20	O	0.262970	-0.485604	0.423754
C21	C	-0.120918	-0.838708	-0.000010
C22	C	0.379082	-0.338708	0.499990
C23	C	-0.119280	-0.745459	-0.000008
C24	C	0.380720	-0.245459	0.499992
C25	C	0.038814	-0.998399	-0.000023
C26	C	0.538814	-0.498399	0.499977
C27	C	0.132059	-0.996732	-0.000024
C28	C	0.632059	-0.496732	0.499976
C29	C	-0.195210	-0.509701	-0.000000
C30	C	0.304790	-0.009701	0.500000
C31	C	-0.154271	-0.459136	-0.075188
C32	C	0.345729	0.040864	0.424812
C33	C	-0.116243	-0.574737	-0.000009
C34	C	0.383757	-0.074737	0.499991
C35	C	-0.154255	-0.459150	0.075146
C36	C	0.345745	0.040850	0.575146
C37	C	-0.113316	-0.409826	-0.000006
C38	C	0.386684	0.090174	0.499994
C39	C	-0.075325	-0.525400	-0.075258
C40	C	0.424675	-0.025400	0.424742
C41	C	-0.075321	-0.525418	0.075143
C42	C	0.424679	-0.025418	0.575143
C43	C	-0.034323	-0.474885	-0.000063
C44	C	0.465677	0.025115	0.499937
C45	C	-0.117932	-0.669737	-0.000011
C46	C	0.382068	-0.169737	0.499989
C47	C	-0.111622	-0.314828	-0.000010
C48	C	0.388378	0.185172	0.499990
C49	C	0.346893	-0.912815	-0.000010
C50	C	0.846893	-0.412815	0.499990
C51	C	0.407921	-0.951771	-0.075194
C52	C	0.907921	-0.451771	0.424806
C53	C	0.302783	-0.993717	-0.000018
C54	C	0.802783	-0.493717	0.499982
C55	C	0.407902	-0.951800	0.075140
C56	C	0.907902	-0.451800	0.575140
C57	C	0.467694	-0.990799	-0.000008
C58	C	0.967694	-0.490799	0.499992
C59	C	0.362583	-1.032695	-0.075263
C60	C	0.862583	-0.532695	0.424737
C61	C	0.362557	-1.032713	0.075138
C62	C	0.862557	-0.532713	0.575138
C63	C	0.423568	-1.071728	-0.000064
C64	C	0.923568	-0.571728	0.499936
C65	C	0.207782	-0.995396	-0.000024
C66	C	0.707782	-0.495396	0.499976
C67	C	0.562694	-0.989126	-0.000008
C68	C	1.062694	-0.489126	0.499992
C69	C	0.731673	-0.986154	-0.000004
C70	C	1.231673	-0.486154	0.499996
C71	C	0.638424	-0.987786	-0.000000
C72	C	1.138424	-0.487786	0.500000
N73	N	-0.114751	-0.992273	-0.217009
N74	N	0.385249	-0.492273	0.282991
C75	C	-0.108605	-0.145854	-0.000014
C76	C	0.391395	0.354146	0.499986
C77	C	-0.110277	-0.239099	-0.000005
C78	C	0.389723	0.260901	0.499995
C79	C	-0.057655	-1.049395	-0.548008
C80	C	0.442345	-0.549395	-0.048008
C81	C	-0.057655	-1.049393	-0.452027
C82	C	0.442345	-0.549393	0.047973
C83	C	-0.171856	-0.935173	-0.452027
C84	C	0.328144	-0.435173	0.047973
C85	C	-0.171859	-0.935179	-0.548006
C86	C	0.328141	-0.435179	-0.048006
C87	C	-0.114754	-0.992290	-0.595994
C88	C	0.385246	-0.492290	-0.095994
C89	C	-0.114751	-0.992281	-0.404034
C90	C	0.385249	-0.492281	0.095966
C91	C	-0.114752	-0.992278	-0.299967
C92	C	0.385248	-0.492278	0.200033
C93	C	-0.114754	-0.992294	-0.700068
C94	C	0.385246	-0.492294	-0.200068
N95	N	-0.114754	-0.992297	0.216981
N96	N	0.385246	-0.492297	0.716981
H97	H	-0.263229	-0.525328	-0.000066
H98	H	0.236771	-0.025328	0.499934
H99	H	-0.011162	-1.095895	-0.412959
H100	H	0.488838	-0.595895	0.087041
O101	O	-0.233468	-0.873606	-0.599774
O102	O	0.266532	-0.373606	-0.099774
H103	H	-0.273175	-0.833892	-0.550282
H104	H	0.226825	-0.333892	-0.050282
O105	O	-0.233423	-0.873553	-0.400270
O106	O	0.266577	-0.373553	0.099730
H107	H	-0.223818	-0.883128	-0.325467
H108	H	0.276182	-0.383128	0.174533
O109	O	0.335946	-1.078010	0.159353
O110	O	0.835946	-0.578010	0.659353
H111	H	0.367917	-1.143578	0.159910
H112	H	0.867917	-0.643578	0.659910
H113	H	0.313568	-0.845666	-0.000083
H114	H	0.813568	-0.345666	0.499917
H115	H	0.342603	-1.066880	-0.138895
H116	H	0.842603	-0.566880	0.361105
O117	O	-0.198434	-0.420797	-0.159383
O118	O	0.301566	0.079203	0.340617
H119	H	-0.252191	-0.374474	-0.138206
H120	H	0.247809	0.125526	0.361794
H121	H	0.033747	-0.459416	-0.000111
H122	H	0.533747	0.040584	0.499889
O123	O	-0.031186	-0.563564	-0.159554
O124	O	0.468814	-0.063564	0.340446
H125	H	-0.032802	-0.632973	-0.158913
H126	H	0.467198	-0.132973	0.341087
O127	O	-0.031180	-0.563775	0.159335
O128	O	0.468820	-0.063775	0.659335
H129	H	-0.076005	-0.597202	0.199940
H130	H	0.423995	-0.097202	0.699940
O131	O	-0.198440	-0.420830	0.159342
O132	O	0.301560	0.079170	0.659342
H133	H	-0.265170	-0.434484	0.159182
H134	H	0.234830	0.065516	0.659182
H135	H	0.428022	-0.917548	-0.138754
H136	H	0.928022	-0.417548	0.361246
H137	H	0.456743	-1.138936	-0.000108
H138	H	0.956743	-0.638936	0.499892
H139	H	-0.011158	-1.095899	-0.587078
H140	H	0.488842	-0.595899	-0.087078
H141	H	0.427968	-0.917576	0.138706
H142	H	0.927968	-0.417576	0.638706
