data_functionalizedCrystal
_audit_creation_method	'MofGen! by Chris Wilmer'
_symmetry_space_group_name_H-M	'P1'
_symmetry_Int_Tables_number	1
_symmetry_cell_setting	triclinic
loop_
_symmetry_equiv_pos_as_xyz
  x,y,z
_cell_length_a	10.654558
_cell_length_b	10.654550
_cell_length_c	9.130313
_cell_angle_alpha	90.000110
_cell_angle_beta	90.000369
_cell_angle_gamma	95.513390
loop_
_atom_site_label
_atom_site_type_symbol
_atom_site_fract_x
_atom_site_fract_y
_atom_site_fract_z
O1	O	1.667828	-0.176443	-0.121775
O2	O	1.302351	-0.193238	-0.121782
O3	O	1.493492	-0.002102	-0.121773
O4	O	1.476686	-0.367580	-0.121784
O5	O	1.493490	-0.002107	0.121826
O6	O	1.302348	-0.193243	0.121817
O7	O	1.667826	-0.176448	0.121824
Cu8	Cu	1.485087	-0.184846	0.144063
Cu9	Cu	1.485090	-0.184840	-0.144021
O10	O	1.476684	-0.367585	0.121815
C11	C	1.255552	-0.192005	0.000017
C12	C	1.116109	-0.188309	0.000014
C13	C	0.919572	-0.183111	-0.132772
C14	C	1.050594	-0.186573	-0.132773
C15	C	1.050596	-0.186571	0.132811
C16	C	0.919577	-0.183101	0.132811
C17	C	0.854062	-0.181387	-0.265568
C18	C	0.919567	-0.183122	-0.398366
C19	C	1.050590	-0.186584	-0.398368
C20	C	1.116108	-0.188310	-0.265571
C21	C	1.492257	0.044694	0.000025
C22	C	1.488565	0.184137	0.000020
C23	C	1.714625	-0.177681	0.000022
C24	C	1.854067	-0.181377	0.000015
C25	C	1.477919	-0.414380	0.000014
C26	C	1.481611	-0.553823	0.000010
N27	N	1.485094	-0.184850	0.346686
C28	C	1.601106	0.263620	0.000026
C29	C	1.597630	0.394641	0.000016
C30	C	1.369061	0.366684	-0.000001
C31	C	1.372539	0.235666	-0.000002
C32	C	1.717133	0.212091	0.000047
C33	C	1.829683	0.291575	0.000056
C34	C	1.826207	0.422596	0.000045
C35	C	1.710180	0.474133	0.000027
N36	N	1.485092	-0.184827	-0.346644
C37	C	1.569753	-0.100243	0.423342
C38	C	1.569750	-0.100228	0.576678
C39	C	1.400424	-0.269437	0.576690
C40	C	1.400422	-0.269445	0.423356
C41	C	1.654425	-0.015648	0.346671
C42	C	1.739093	0.068964	0.423328
C43	C	1.739089	0.068979	0.576664
C44	C	1.654418	-0.015618	0.653345
H45	H	1.103951	-0.187979	0.240928
H46	H	1.274597	0.408657	-0.000014
H47	H	1.331489	-0.338314	0.639133
O48	O	0.848896	-0.181242	-0.541580
H49	H	0.884478	-0.096445	-0.605237
H50	H	1.331483	-0.338338	0.360942
H51	H	0.747377	-0.178572	-0.265582
O52	O	1.830410	0.160223	0.659352
H53	H	1.889293	0.219032	0.580273
H54	H	1.280898	0.170948	-0.000005
H55	H	1.103921	-0.187985	-0.506498
O56	O	1.654421	-0.015648	0.181288
H57	H	1.748410	-0.036613	0.140858
O58	O	1.830384	0.160236	0.340636
H59	H	1.816163	0.146017	0.221134
O60	O	1.654410	-0.015609	0.818731
H61	H	1.727508	0.057433	0.859158
H62	H	1.222796	-0.191122	-0.265583
H63	H	0.866239	-0.181712	0.240938
O64	O	1.947596	0.508321	0.000048
H65	H	1.925692	0.608085	0.000029
H66	H	1.924148	0.249604	0.000034
O67	O	1.720878	0.070776	0.000055
H68	H	1.820462	0.048295	0.000061
H69	H	1.707358	0.580820	0.000003
