data_functionalizedCrystal
_audit_creation_method	'MofGen! by Chris Wilmer'
_symmetry_space_group_name_H-M	'P1'
_symmetry_Int_Tables_number	1
_symmetry_cell_setting	triclinic
loop_
_symmetry_equiv_pos_as_xyz
  x,y,z
_cell_length_a	12.759401
_cell_length_b	18.050589
_cell_length_c	12.759393
_cell_angle_alpha	90.029546
_cell_angle_beta	90.020938
_cell_angle_gamma	90.029746
loop_
_atom_site_label
_atom_site_type_symbol
_atom_site_fract_x
_atom_site_fract_y
_atom_site_fract_z
Zn1	Zn	1.606168	-0.295593	0.594027
Zn2	Zn	1.606017	-0.419801	0.418350
Zn3	Zn	1.430466	-0.295633	0.418362
Zn4	Zn	1.430417	-0.419749	0.593987
O5	O	1.518267	-0.357694	0.506182
O6	O	1.753169	-0.312075	0.570735
O7	O	1.582688	-0.403368	0.271331
O8	O	1.453857	-0.191703	0.441686
O9	O	1.753058	-0.403330	0.441666
O10	O	1.582944	-0.191674	0.570746
O11	O	1.453711	-0.312142	0.271339
O12	O	1.283439	-0.312092	0.441648
O13	O	1.453773	-0.403241	0.741014
O14	O	1.283402	-0.403280	0.570679
O15	O	1.582896	-0.312025	0.741043
O16	O	1.582640	-0.523719	0.441627
O17	O	1.453627	-0.523681	0.570667
C18	C	1.245300	-0.357685	0.506161
C19	C	1.128523	-0.357699	0.506177
C20	C	1.518140	-0.550646	0.506164
C21	C	1.518182	-0.633192	0.506192
C22	C	1.073670	-0.405253	0.573257
C23	C	0.963946	-0.405256	0.573278
C24	C	0.963938	-0.310149	0.439129
C25	C	1.073660	-0.310143	0.439114
C26	C	1.448094	-0.832649	0.576339
C27	C	1.422478	-0.882097	0.480470
C28	C	1.518285	-0.784322	0.506206
C29	C	1.543953	-0.881956	0.602085
C30	C	1.518383	-0.930307	0.506227
C31	C	1.492619	-0.832683	0.410286
C32	C	1.614139	-0.832538	0.531966
C33	C	1.588559	-0.881964	0.436031
C34	C	1.518226	-0.700224	0.506194
C35	C	1.518442	-1.014404	0.506228
C36	C	1.792300	-0.357704	0.506203
C37	C	1.909077	-0.357708	0.506212
C38	C	1.518346	-0.357623	0.780215
C39	C	1.518379	-0.357592	0.896992
C40	C	1.518423	-0.163989	0.506222
C41	C	1.518489	-0.081443	0.506239
C42	C	1.518249	-0.357712	0.233214
C43	C	1.518419	-0.357533	0.116438
C44	C	1.585619	-0.310088	0.951871
C45	C	1.585637	-0.310056	1.061595
C46	C	1.451172	-0.405039	1.061552
C47	C	1.451150	-0.405067	0.951829
H48	H	1.118336	-0.443974	0.627867
H49	H	0.919289	-0.443978	0.627904
C50	C	0.795737	-0.267928	0.379586
C51	C	0.903629	-0.257880	0.365412
H52	H	0.758509	-0.235661	0.334069
H53	H	0.777804	-0.257121	0.450197
H54	H	0.777727	-0.317816	0.364085
H55	H	0.921640	-0.207993	0.380920
H56	H	0.921569	-0.268682	0.294784
C57	C	1.062640	-0.216137	0.306500
C58	C	1.133963	-0.257870	0.365369
H59	H	1.099872	-0.183870	0.260973
H60	H	1.019888	-0.187770	0.352347
H61	H	1.019802	-0.248469	0.266240
H62	H	1.176797	-0.225538	0.405636
H63	H	1.176734	-0.286238	0.319516
H64	H	1.695134	-0.810755	0.553780
H65	H	1.470854	-0.811128	0.329188
C66	C	1.726980	-0.299711	1.185025
C67	C	1.659544	-0.257838	1.121924
H68	H	1.772601	-0.267469	1.222274
H69	H	1.767135	-0.332073	1.142225
H70	H	1.686936	-0.327978	1.233382
H71	H	1.699588	-0.229575	1.073562
H72	H	1.619385	-0.225463	1.164728
H73	H	1.396439	-0.443693	1.106214
H74	H	1.388648	-0.810995	0.635565
H75	H	1.396388	-0.443750	0.907146
H76	H	1.341464	-0.903882	0.458702
H77	H	1.647959	-0.903481	0.376662
H78	H	1.565624	-0.903600	0.683161
H79	H	1.640358	-0.271430	0.907225
