data_functionalizedCrystal
_audit_creation_method	'MofGen! by Chris Wilmer'
_symmetry_space_group_name_H-M	'P1'
_symmetry_Int_Tables_number	1
_symmetry_cell_setting	triclinic
loop_
_symmetry_equiv_pos_as_xyz
  x,y,z
_cell_length_a	12.827893
_cell_length_b	12.827892
_cell_length_c	12.827885
_cell_angle_alpha	90.029786
_cell_angle_beta	90.021189
_cell_angle_gamma	90.013601
loop_
_atom_site_label
_atom_site_type_symbol
_atom_site_fract_x
_atom_site_fract_y
_atom_site_fract_z
Zn1	Zn	-1.597670	0.416032	-0.590902
Zn2	Zn	-1.264336	0.749366	-0.257569
Zn3	Zn	-0.931003	1.082699	0.075765
Zn4	Zn	-1.597564	0.590810	-0.416162
Zn5	Zn	-1.264230	0.924143	-0.082829
Zn6	Zn	-0.930897	1.257476	0.250504
Zn7	Zn	-1.422911	0.416078	-0.416170
Zn8	Zn	-1.089578	0.749411	-0.082837
Zn9	Zn	-0.756244	1.082744	0.250497
Zn10	Zn	-1.422896	0.590727	-0.590857
Zn11	Zn	-1.089563	0.924060	-0.257523
Zn12	Zn	-0.756230	1.257393	0.075810
O13	O	-1.510260	0.503412	-0.503523
O14	O	-1.176927	0.836745	-0.170189
O15	O	-0.843593	1.170078	0.163144
O16	O	-1.743892	0.439233	-0.567738
O17	O	-1.410558	0.772566	-0.234405
O18	O	-1.077225	1.105899	0.098928
O19	O	-1.574358	0.567685	-0.269927
O20	O	-1.241024	0.901018	0.063406
O21	O	-0.907691	1.234352	0.396739
O22	O	-1.446144	0.269836	-0.439371
O23	O	-1.112810	0.603169	-0.106037
O24	O	-0.779477	0.936502	0.227296
O25	O	-1.743814	0.567641	-0.439358
O26	O	-1.410480	0.900974	-0.106025
O27	O	-1.077147	1.234308	0.227309
O28	O	-1.574538	0.269802	-0.567746
O29	O	-1.241205	0.603136	-0.234412
O30	O	-0.907871	0.936469	0.098921
O31	O	-1.446041	0.439310	-0.269933
O32	O	-1.112708	0.772644	0.063401
O33	O	-0.779374	1.105977	0.396734
O34	O	-1.276673	0.439230	-0.439327
O35	O	-0.943340	0.772563	-0.105993
O36	O	-0.610006	1.105896	0.227340
O37	O	-1.446118	0.567499	-0.737099
O38	O	-1.112785	0.900833	-0.403765
O39	O	-0.779452	1.234166	-0.070432
O40	O	-1.276662	0.567543	-0.567668
O41	O	-0.943329	0.900877	-0.234335
O42	O	-0.609996	1.234210	0.098999
O43	O	-1.574524	0.439152	-0.737132
O44	O	-1.241190	0.772485	-0.403799
O45	O	-0.907857	1.105819	-0.070466
O46	O	-1.574343	0.737035	-0.439314
O47	O	-1.241010	1.070368	-0.105980
O48	O	-0.907677	1.403701	0.227353
O49	O	-1.446016	0.736974	-0.567661
O50	O	-1.112682	1.070307	-0.234327
O51	O	-0.779349	1.403640	0.099006
C52	C	-1.238750	0.503383	-0.503494
C53	C	-0.905417	0.836716	-0.170160
C54	C	-0.572084	1.170050	0.163173
C55	C	-1.122597	0.503396	-0.503506
C56	C	-0.789264	0.836729	-0.170173
C57	C	-0.455930	1.170063	0.163161
C58	C	-1.070851	0.439967	-0.567130
C59	C	-0.737517	0.773300	-0.233797
C60	C	-0.404184	1.106633	0.099537
C61	C	-0.950800	0.439979	-0.567144
C62	C	-0.617467	0.773312	-0.233811
C63	C	-0.284134	1.106645	0.099522
C64	C	-1.510195	0.774922	-0.503504
C65	C	-1.176861	1.108255	-0.170171
C66	C	-0.843528	1.441588	0.163162
C67	C	-1.510262	0.891075	-0.503531
C68	C	-1.176929	1.224408	-0.170198
C69	C	-0.843596	1.557741	0.163135
C70	C	-0.782830	0.503432	-0.503544
C71	C	-0.449497	0.836766	-0.170211
C72	C	-0.116164	1.170099	0.163123
C73	C	-0.898983	0.503419	-0.503532
C74	C	-0.565650	0.836753	-0.170198
C75	C	-0.232317	1.170086	0.163135
C76	C	-1.510331	0.503311	-0.776093
C77	C	-1.176998	0.836645	-0.442760
C78	C	-0.843665	1.169978	-0.109426
C79	C	-1.510362	0.503269	-0.892246
C80	C	-1.177028	0.836602	-0.558913
C81	C	-0.843695	1.169935	-0.225580
C82	C	-1.510354	0.230841	-0.503564
C83	C	-1.177021	0.564175	-0.170231
C84	C	-0.843688	0.897508	0.163103
C85	C	-1.510394	0.114688	-0.503582
C86	C	-1.177061	0.448022	-0.170248
C87	C	-0.843728	0.781355	0.163085
C88	C	-1.573838	0.942855	-0.440092
C89	C	-1.240505	1.276188	-0.106758
C90	C	-0.907172	1.609522	0.226575
C91	C	-1.573910	1.062905	-0.440118
C92	C	-1.240576	1.396239	-0.106785
C93	C	-0.907243	1.729572	0.226548
C94	C	-1.573907	0.439746	-0.944048
C95	C	-1.240574	0.773079	-0.610714
C96	C	-0.907241	1.106413	-0.277381
C97	C	-1.573940	0.439700	-1.064098
C98	C	-1.240607	0.773034	-0.730765
C99	C	-0.907274	1.106367	-0.397431
C100	C	-1.510249	0.503436	-0.232013
C101	C	-1.176916	0.836769	0.101321
C102	C	-0.843583	1.170103	0.434654
C103	C	-1.510422	0.503185	-0.115860
C104	C	-1.177088	0.836518	0.217473
C105	C	-0.843755	1.169851	0.550806
H106	H	-0.906300	0.385678	-0.621619
H107	H	-0.572966	0.719011	-0.288285
H108	H	-0.239633	1.052344	0.045048
O109	O	-1.438221	0.950073	-0.575495
O110	O	-1.104888	1.283406	-0.242162
O111	O	-0.771555	1.616739	0.091171
H112	H	-1.485034	0.999732	-0.628668
H113	H	-1.151700	1.333065	-0.295334
H114	H	-0.818367	1.666398	0.037999
H115	H	-1.628220	0.898312	-0.385762
H116	H	-1.294887	1.231645	-0.052429
H117	H	-0.961553	1.564978	0.280905
O118	O	-1.438332	0.575223	-1.056880
O119	O	-1.104999	0.908557	-0.723547
O120	O	-0.771666	1.241890	-0.390214
H121	H	-1.485101	0.628375	-1.007139
H122	H	-1.151767	0.961708	-0.673806
H123	H	-0.818434	1.295042	-0.340473
H124	H	-1.628336	1.107435	-0.385802
H125	H	-1.295003	1.440769	-0.052469
H126	H	-0.961670	1.774102	0.280864
O127	O	-1.438274	1.055725	-0.575524
O128	O	-1.104941	1.389059	-0.242191
O129	O	-0.771608	1.722392	0.091143
H130	H	-1.456132	1.076543	-0.657583
H131	H	-1.122799	1.409876	-0.324249
H132	H	-0.789466	1.743209	0.009084
H133	H	-1.628348	0.385320	-1.108646
H134	H	-1.295014	0.718653	-0.775313
H135	H	-0.961681	1.051986	-0.441979
H136	H	-1.628283	0.385392	-0.899520
H137	H	-1.294950	0.718725	-0.566186
H138	H	-0.961617	1.052059	-0.232853
O139	O	-1.129884	0.368010	-0.639267
O140	O	-0.796551	0.701344	-0.305933
O141	O	-0.463217	1.034677	0.027400
H142	H	-1.109030	0.386004	-0.721275
H143	H	-0.775697	0.719338	-0.387942
H144	H	-0.442363	1.052671	-0.054609
H145	H	-0.943477	0.557732	-0.449064
H146	H	-0.610144	0.891066	-0.115730
H147	H	-0.276811	1.224399	0.217603
O148	O	-1.438317	0.575258	-0.951218
O149	O	-1.104984	0.908592	-0.617885
O150	O	-0.771651	1.241925	-0.284551
H151	H	-1.456177	0.657306	-0.930318
H152	H	-1.122844	0.990639	-0.596984
H153	H	-0.789511	1.323972	-0.263651
H154	H	-1.078022	0.557707	-0.449044
H155	H	-0.744689	0.891040	-0.115710
H156	H	-0.411356	1.224374	0.217623
