data_functionalizedCrystal
_audit_creation_method	'MofGen! by Chris Wilmer'
_symmetry_space_group_name_H-M	'P1'
_symmetry_Int_Tables_number	1
_symmetry_cell_setting	triclinic
loop_
_symmetry_equiv_pos_as_xyz
  x,y,z
_cell_length_a	15.944493
_cell_length_b	15.944493
_cell_length_c	10.065875
_cell_angle_alpha	98.793649
_cell_angle_beta	81.254849
_cell_angle_gamma	83.475044
loop_
_atom_site_label
_atom_site_type_symbol
_atom_site_fract_x
_atom_site_fract_y
_atom_site_fract_z
O1	O	1.126820	0.095758	-0.113459
O2	O	1.376820	0.345758	0.136541
O3	O	1.626820	0.595758	0.386541
O4	O	1.876820	0.845758	0.636541
O5	O	0.882262	0.109165	-0.113463
O6	O	1.132262	0.359165	0.136537
O7	O	1.382262	0.609165	0.386537
O8	O	1.632262	0.859165	0.636537
O9	O	1.011246	-0.019819	-0.113472
O10	O	1.261246	0.230181	0.136528
O11	O	1.511246	0.480181	0.386528
O12	O	1.761246	0.730181	0.636528
O13	O	0.997836	0.224742	-0.113450
O14	O	1.247836	0.474742	0.136550
O15	O	1.497836	0.724742	0.386550
O16	O	1.747836	0.974742	0.636550
O17	O	0.986650	0.004875	0.113518
O18	O	1.236650	0.254875	0.363518
O19	O	1.486650	0.504875	0.613518
O20	O	1.736650	0.754875	0.863518
O21	O	0.857666	0.133859	0.113527
O22	O	1.107666	0.383859	0.363527
O23	O	1.357666	0.633859	0.613527
O24	O	1.607666	0.883859	0.863527
O25	O	1.102225	0.120452	0.113531
O26	O	1.352225	0.370452	0.363531
O27	O	1.602225	0.620452	0.613531
O28	O	1.852225	0.870452	0.863531
Zn29	Zn	0.976040	0.131076	0.149569
Zn30	Zn	1.226040	0.381076	0.399569
Zn31	Zn	1.476040	0.631076	0.649569
Zn32	Zn	1.726040	0.881076	0.899569
Zn33	Zn	1.008446	0.098541	-0.149501
Zn34	Zn	1.258446	0.348541	0.100499
Zn35	Zn	1.508446	0.598541	0.350499
Zn36	Zn	1.758446	0.848541	0.600499
O37	O	0.973240	0.249436	0.113540
O38	O	1.223240	0.499436	0.363540
O39	O	1.473240	0.749436	0.613540
O40	O	1.723240	0.999436	0.863540
C41	C	0.838669	0.120964	0.000031
C42	C	1.088669	0.370964	0.250031
C43	C	1.338669	0.620964	0.500031
C44	C	1.588669	0.870964	0.750031
C45	C	0.745421	0.119321	0.000028
C46	C	0.995421	0.369321	0.250028
C47	C	1.245421	0.619321	0.500028
C48	C	1.495421	0.869321	0.750028
C49	C	0.509645	0.195244	0.000034
C50	C	0.759645	0.445244	0.250034
C51	C	1.009645	0.695244	0.500034
C52	C	1.259645	0.945244	0.750034
C53	C	0.446968	0.166478	0.111955
C54	C	0.696968	0.416478	0.361955
C55	C	0.946968	0.666478	0.611955
C56	C	1.196968	0.916478	0.861955
C57	C	0.574701	0.116277	0.000031
C58	C	0.824701	0.366277	0.250031
C59	C	1.074701	0.616277	0.500031
C60	C	1.324701	0.866277	0.750031
C61	C	0.471222	0.142112	-0.111840
C62	C	0.721222	0.392112	0.138160
C63	C	0.971222	0.642112	0.388160
C64	C	1.221222	0.892112	0.638160
C65	C	0.409792	0.113342	0.000027
C66	C	0.659792	0.363342	0.250027
C67	C	0.909792	0.613342	0.500027
C68	C	1.159792	0.863342	0.750027
C69	C	0.513242	0.087542	0.112043
C70	C	0.763242	0.337542	0.362043
C71	C	1.013242	0.587542	0.612043
C72	C	1.263242	0.837542	0.862043
C73	C	0.537510	0.063177	-0.111852
C74	C	0.787510	0.313177	0.138148
C75	C	1.037510	0.563177	0.388148
C76	C	1.287510	0.813177	0.638148
C77	C	0.474863	0.034356	0.000096
C78	C	0.724863	0.284356	0.250096
C79	C	0.974863	0.534356	0.500096
C80	C	1.224863	0.784356	0.750096
C81	C	0.669700	0.117970	0.000034
C82	C	0.919700	0.367970	0.250034
C83	C	1.169700	0.617970	0.500034
C84	C	1.419700	0.867970	0.750034
C85	C	0.314795	0.111643	0.000033
C86	C	0.564795	0.361643	0.250033
C87	C	0.814795	0.611643	0.500033
C88	C	1.064795	0.861643	0.750033
C89	C	0.998401	-0.038768	0.000017
C90	C	1.248401	0.211232	0.250017
C91	C	1.498401	0.461232	0.500017
C92	C	1.748401	0.711232	0.750017
C93	C	0.996760	-0.132018	-0.000000
C94	C	1.246760	0.117982	0.250000
C95	C	1.496760	0.367982	0.500000
C96	C	1.746760	0.617982	0.750000
C97	C	1.072679	-0.367790	0.000027
C98	C	1.322679	-0.117790	0.250027
C99	C	1.572679	0.132210	0.500027
C100	C	1.822679	0.382210	0.750027
C101	C	1.043864	-0.430526	-0.111891
C102	C	1.293864	-0.180526	0.138109
C103	C	1.543864	0.069474	0.388109
C104	C	1.793864	0.319474	0.638109
C105	C	0.993714	-0.302736	0.000016
C106	C	1.243714	-0.052736	0.250016
C107	C	1.493714	0.197264	0.500016
C108	C	1.743714	0.447264	0.750016
C109	C	1.019596	-0.406155	0.111903
C110	C	1.269596	-0.156155	0.361903
C111	C	1.519596	0.093845	0.611903
C112	C	1.769596	0.343845	0.861903
C113	C	0.990777	-0.467643	0.000038
C114	C	1.240777	-0.217643	0.250038
C115	C	1.490777	0.032357	0.500038
C116	C	1.740777	0.282357	0.750038
C117	C	0.964930	-0.364253	-0.111994
C118	C	1.214930	-0.114253	0.138006
C119	C	1.464930	0.135747	0.388006
C120	C	1.714930	0.385747	0.638006
C121	C	0.940663	-0.339868	0.111901
C122	C	1.190663	-0.089868	0.361901
C123	C	1.440663	0.160132	0.611901
C124	C	1.690663	0.410132	0.861901
C125	C	0.911793	-0.402574	-0.000045
C126	C	1.161793	-0.152574	0.249955
C127	C	1.411793	0.097426	0.499955
C128	C	1.661793	0.347426	0.749955
C129	C	0.995408	-0.207738	0.000002
C130	C	1.245408	0.042262	0.250002
C131	C	1.495408	0.292262	0.500002
C132	C	1.745408	0.542262	0.750002
C133	C	0.989077	-0.562639	0.000042
C134	C	1.239077	-0.312639	0.250042
C135	C	1.489077	-0.062639	0.500042
C136	C	1.739077	0.187361	0.750042
C137	C	1.145817	0.108653	0.000034
C138	C	1.395817	0.358653	0.250034
C139	C	1.645817	0.608653	0.500034
C140	C	1.895817	0.858653	0.750034
C141	C	1.239066	0.110295	0.000028
C142	C	1.489066	0.360295	0.250028
C143	C	1.739066	0.610295	0.500028
C144	C	1.989066	0.860295	0.750028
C145	C	0.986086	0.268384	0.000048
C146	C	1.236086	0.518384	0.250048
C147	C	1.486086	0.768384	0.500048
C148	C	1.736086	1.018384	0.750048
C149	C	0.987728	0.361633	0.000056
C150	C	1.237728	0.611633	0.250056
C151	C	1.487728	0.861633	0.500056
C152	C	1.737728	1.111633	0.750056
N153	N	0.953930	0.153281	0.353676
N154	N	1.203930	0.403281	0.603676
N155	N	1.453930	0.653281	0.853676
N156	N	1.703930	0.903281	1.103676
N157	N	1.030563	0.076330	-0.353608
N158	N	1.280563	0.326330	-0.103608
N159	N	1.530563	0.576330	0.146392
N160	N	1.780563	0.826330	0.396392
C161	C	1.000748	0.106261	0.421452
C162	C	1.250748	0.356261	0.671452
C163	C	1.500748	0.606261	0.921452
C164	C	1.750748	0.856261	1.171452
C165	C	0.983738	0.123356	0.578620
C166	C	1.233738	0.373356	0.828620
C167	C	1.483738	0.623356	1.078620
C168	C	1.733738	0.873356	1.328620
H169	H	0.525242	0.263277	0.000145
H170	H	0.775242	0.513277	0.250145
H171	H	1.025242	0.763277	0.500145
H172	H	1.275242	1.013277	0.750145
H173	H	0.843727	-0.418032	-0.000107
H174	H	1.093727	-0.168032	0.249893
H175	H	1.343727	0.081968	0.499893
H176	H	1.593727	0.331968	0.749893
H177	H	0.901252	0.206189	0.412006
H178	H	1.151252	0.456189	0.662006
H179	H	1.401252	0.706189	0.912006
H180	H	1.651252	0.956189	1.162006
H181	H	1.140711	-0.352188	-0.000085
H182	H	1.390711	-0.102188	0.249915
H183	H	1.640711	0.147812	0.499915
H184	H	1.890711	0.397812	0.749915
H185	H	0.941864	-0.345731	-0.206714
H186	H	1.191864	-0.095731	0.043286
H187	H	1.441864	0.154269	0.293286
H188	H	1.691864	0.404269	0.543286
H189	H	0.576717	0.019559	-0.206482
H190	H	0.826717	0.269559	0.043518
H191	H	1.076717	0.519559	0.293518
H192	H	1.326717	0.769559	0.543518
H193	H	0.897090	-0.300607	0.206523
H194	H	1.147090	-0.050607	0.456523
H195	H	1.397090	0.199393	0.706523
H196	H	1.647090	0.449393	0.956523
H197	H	1.042710	-0.424800	0.206515
H198	H	1.292710	-0.174800	0.456515
H199	H	1.542710	0.075200	0.706515
H200	H	1.792710	0.325200	0.956515
H201	H	1.053421	0.053346	0.363124
H202	H	1.303421	0.303346	0.613124
H203	H	1.553421	0.553346	0.863124
H204	H	1.803421	0.803346	1.113124
H205	H	0.931056	0.176268	0.636945
H206	H	1.181056	0.426268	0.886945
H207	H	1.431056	0.676268	1.136945
H208	H	1.681056	0.926268	1.386945
H209	H	1.083238	0.023411	0.588067
H210	H	1.333238	0.273411	0.838067
H211	H	1.583238	0.523411	1.088067
H212	H	1.833238	0.773411	1.338067
H213	H	0.407771	0.210121	0.206579
H214	H	0.657771	0.460121	0.456579
H215	H	0.907771	0.710121	0.706579
H216	H	1.157771	0.960121	0.956579
H217	H	1.087465	-0.469772	-0.206510
H218	H	1.337465	-0.219772	0.043490
H219	H	1.587465	0.030228	0.293490
H220	H	1.837465	0.280228	0.543490
H221	H	0.531814	0.064517	0.206757
H222	H	0.781814	0.314517	0.456757
H223	H	1.031814	0.564517	0.706757
H224	H	1.281814	0.814517	0.956757
H225	H	0.459405	-0.033710	0.000154
H226	H	0.709405	0.216290	0.250154
H227	H	0.959405	0.466290	0.500154
H228	H	1.209405	0.716290	0.750154
H229	H	0.452528	0.165185	-0.206447
H230	H	0.702528	0.415185	0.043553
H231	H	0.952528	0.665185	0.293553
H232	H	1.202528	0.915185	0.543553
