data_functionalizedCrystal
_audit_creation_method	'MofGen! by Chris Wilmer'
_symmetry_space_group_name_H-M	'P1'
_symmetry_Int_Tables_number	1
_symmetry_cell_setting	triclinic
loop_
_symmetry_equiv_pos_as_xyz
  x,y,z
_cell_length_a	17.666332
_cell_length_b	17.038272
_cell_length_c	17.038272
_cell_angle_alpha	88.888444
_cell_angle_beta	90.005119
_cell_angle_gamma	89.996446
loop_
_atom_site_label
_atom_site_type_symbol
_atom_site_fract_x
_atom_site_fract_y
_atom_site_fract_z
O1	O	0.062854	-1.048760	0.170537
O2	O	0.312854	-0.798760	0.420537
O3	O	0.562854	-0.548760	0.670537
O4	O	0.812854	-0.298760	0.920537
O5	O	0.062877	-0.820948	0.167829
O6	O	0.312877	-0.570948	0.417829
O7	O	0.562877	-0.320948	0.667829
O8	O	0.812877	-0.070948	0.917829
O9	O	0.062860	-0.933500	0.055277
O10	O	0.312860	-0.683500	0.305277
O11	O	0.562860	-0.433500	0.555277
O12	O	0.812860	-0.183500	0.805277
O13	O	0.062871	-0.936208	0.283089
O14	O	0.312871	-0.686208	0.533089
O15	O	0.562871	-0.436208	0.783089
O16	O	0.812871	-0.186208	1.033089
O17	O	-0.063037	-0.933479	0.055272
O18	O	0.186963	-0.683479	0.305272
O19	O	0.436963	-0.433479	0.555272
O20	O	0.686963	-0.183479	0.805272
O21	O	-0.063020	-0.820927	0.167824
O22	O	0.186980	-0.570927	0.417824
O23	O	0.436980	-0.320927	0.667824
O24	O	0.686980	-0.070927	0.917824
O25	O	-0.063042	-1.048738	0.170532
O26	O	0.186958	-0.798738	0.420532
O27	O	0.436958	-0.548738	0.670532
O28	O	0.686958	-0.298738	0.920532
Cu29	Cu	-0.074527	-0.934831	0.169178
Cu30	Cu	0.175473	-0.684831	0.419178
Cu31	Cu	0.425473	-0.434831	0.669178
Cu32	Cu	0.675473	-0.184831	0.919178
Cu33	Cu	0.074361	-0.934856	0.169184
Cu34	Cu	0.324361	-0.684856	0.419184
Cu35	Cu	0.574361	-0.434856	0.669184
Cu36	Cu	0.824361	-0.184856	0.919184
O37	O	-0.063025	-0.936187	0.283084
O38	O	0.186975	-0.686187	0.533084
O39	O	0.436975	-0.436187	0.783084
O40	O	0.686975	-0.186187	1.033084
C41	C	-0.000069	-0.791645	0.165364
C42	C	0.249931	-0.541645	0.415364
C43	C	0.499931	-0.291645	0.665364
C44	C	0.749931	-0.041645	0.915364
C45	C	-0.000061	-0.704361	0.158016
C46	C	0.249939	-0.454361	0.408016
C47	C	0.499939	-0.204361	0.658016
C48	C	0.749939	0.045639	0.908016
C49	C	-0.000088	-0.931027	0.025982
C50	C	0.249912	-0.681027	0.275982
C51	C	0.499912	-0.431027	0.525982
C52	C	0.749912	-0.181027	0.775982
C53	C	-0.000088	-0.923679	-0.061301
C54	C	0.249912	-0.673679	0.188699
C55	C	0.499912	-0.423679	0.438699
C56	C	0.749912	-0.173679	0.688699
N57	N	-0.179246	-0.934819	0.169173
N58	N	0.070754	-0.684819	0.419173
N59	N	0.320754	-0.434819	0.669173
N60	N	0.570754	-0.184819	0.919173
C61	C	-0.218852	-0.985610	0.220003
C62	C	0.031148	-0.735610	0.470003
C63	C	0.281148	-0.485610	0.720003
C64	C	0.531148	-0.235610	0.970003
C65	C	-0.298099	-0.985623	0.220002
C66	C	-0.048099	-0.735623	0.470002
C67	C	0.201901	-0.485623	0.720002
C68	C	0.451901	-0.235623	0.970002
C69	C	-0.337738	-0.934829	0.169179
C70	C	-0.087738	-0.684829	0.419179
C71	C	0.162262	-0.434829	0.669179
C72	C	0.412262	-0.184829	0.919179
C73	C	-0.298123	-0.884034	0.118339
C74	C	-0.048123	-0.634034	0.368339
C75	C	0.201877	-0.384034	0.618339
C76	C	0.451877	-0.134034	0.868339
C77	C	-0.218877	-0.884029	0.118336
C78	C	0.031123	-0.634029	0.368336
C79	C	0.281123	-0.384029	0.618336
C80	C	0.531123	-0.134029	0.868336
N81	N	-0.462171	-0.865902	0.162459
N82	N	-0.212171	-0.615902	0.412459
N83	N	0.037829	-0.365902	0.662459
N84	N	0.287829	-0.115902	0.912459
N85	N	-0.537452	-0.865909	0.162466
N86	N	-0.287452	-0.615909	0.412466
N87	N	-0.037452	-0.365909	0.662466
N88	N	0.212548	-0.115909	0.912466
C89	C	-0.576502	-0.934844	0.169182
C90	C	-0.326502	-0.684844	0.419182
C91	C	-0.076502	-0.434844	0.669182
C92	C	0.173498	-0.184844	0.919182
N93	N	-0.537429	-1.003773	0.175907
N94	N	-0.287429	-0.753773	0.425907
N95	N	-0.037429	-0.503773	0.675907
N96	N	0.212571	-0.253773	0.925907
N97	N	-0.462141	-1.003764	0.175904
N98	N	-0.212141	-0.753764	0.425904
N99	N	0.037859	-0.503764	0.675904
N100	N	0.287859	-0.253764	0.925904
C101	C	-0.423667	-0.934830	0.169176
C102	C	-0.173667	-0.684830	0.419176
C103	C	0.076333	-0.434830	0.669176
C104	C	0.326333	-0.184830	0.919176
C105	C	-0.702037	-0.985653	0.220014
C106	C	-0.452037	-0.735653	0.470014
C107	C	-0.202037	-0.485653	0.720014
C108	C	0.047963	-0.235653	0.970014
C109	C	-0.781286	-0.985667	0.220007
C110	C	-0.531286	-0.735667	0.470007
C111	C	-0.281286	-0.485667	0.720007
C112	C	-0.031286	-0.235667	0.970007
C113	C	-0.781308	-0.884071	0.118348
C114	C	-0.531308	-0.634071	0.368348
C115	C	-0.281308	-0.384071	0.618348
C116	C	-0.031308	-0.134071	0.868348
C117	C	-0.702061	-0.884065	0.118351
C118	C	-0.452061	-0.634065	0.368351
C119	C	-0.202061	-0.384065	0.618351
C120	C	0.047939	-0.134065	0.868351
C121	C	-0.662430	-0.934855	0.169188
C122	C	-0.412430	-0.684855	0.419188
C123	C	-0.162430	-0.434855	0.669188
C124	C	0.087570	-0.184855	0.919188
N125	N	0.179080	-0.934874	0.169182
N126	N	0.429080	-0.684874	0.419182
N127	N	0.679080	-0.434874	0.669182
N128	N	0.929080	-0.184874	0.919182
C129	C	-0.000095	-1.078042	0.172997
C130	C	0.249905	-0.828042	0.422997
C131	C	0.499905	-0.578042	0.672997
C132	C	0.749905	-0.328042	0.922997
C133	C	-0.000099	-1.165326	0.180346
C134	C	0.249901	-0.915326	0.430346
C135	C	0.499901	-0.665326	0.680346
C136	C	0.749901	-0.415326	0.930346
C137	C	-0.000058	-0.658752	0.225479
C138	C	0.249942	-0.408752	0.475479
C139	C	0.499942	-0.158752	0.725479
C140	C	0.749942	0.091248	0.975479
C141	C	-0.000069	-0.576740	0.218570
C142	C	0.249931	-0.326740	0.468570
C143	C	0.499931	-0.076740	0.718570
C144	C	0.749931	0.173260	0.968570
C145	C	-0.000077	-0.540339	0.144197
C146	C	0.249923	-0.290339	0.394197
C147	C	0.499923	-0.040339	0.644197
C148	C	0.749923	0.209661	0.894197
C149	C	-0.000082	-0.585954	0.076728
C150	C	0.249918	-0.335954	0.326728
C151	C	0.499918	-0.085954	0.576728
C152	C	0.749918	0.164046	0.826728
C153	C	-0.000077	-0.667965	0.083638
C154	C	0.249923	-0.417965	0.333638
C155	C	0.499923	-0.167965	0.583638
C156	C	0.749923	0.082035	0.833638
C157	C	-0.000098	-0.292951	0.119787
C158	C	0.249902	-0.042951	0.369787
C159	C	0.499902	0.207049	0.619787
C160	C	0.749902	0.457049	0.869787
C161	C	-0.000101	-0.210935	0.112882
C162	C	0.249899	0.039065	0.362882
C163	C	0.499899	0.289065	0.612882
C164	C	0.749899	0.539065	0.862882
C165	C	-0.000089	-0.201726	0.254725
C166	C	0.249911	0.048274	0.504725
C167	C	0.499911	0.298274	0.754725
C168	C	0.749911	0.548274	1.004725
C169	C	-0.000080	-0.283739	0.261628
C170	C	0.249920	-0.033739	0.511628
C171	C	0.499920	0.216261	0.761628
C172	C	0.749920	0.466261	1.011628
C173	C	-0.000089	-0.329347	0.194159
C174	C	0.249911	-0.079347	0.444159
C175	C	0.499911	0.170653	0.694159
C176	C	0.749911	0.420653	0.944159
C177	C	-0.000086	-0.456510	0.137133
C178	C	0.249914	-0.206510	0.387133
C179	C	0.499914	0.043490	0.637133
C180	C	0.749914	0.293490	0.887133
C181	C	-0.000085	-0.413174	0.201224
C182	C	0.249915	-0.163174	0.451224
C183	C	0.499915	0.086826	0.701224
C184	C	0.749915	0.336826	0.951224
C185	C	-0.000095	-0.991142	-0.106911
C186	C	0.249905	-0.741142	0.143089
C187	C	0.499905	-0.491142	0.393089
C188	C	0.749905	-0.241142	0.643089
C189	C	-0.000087	-0.984233	-0.188923
C190	C	0.249913	-0.734233	0.061077
C191	C	0.499913	-0.484233	0.311077
C192	C	0.749913	-0.234233	0.561077
C193	C	-0.000077	-0.909860	-0.225324
C194	C	0.249923	-0.659860	0.024676
C195	C	0.499923	-0.409860	0.274676
C196	C	0.749923	-0.159860	0.524676
C197	C	-0.000068	-0.842391	-0.179708
C198	C	0.249932	-0.592391	0.070292
C199	C	0.499932	-0.342391	0.320292
C200	C	0.749932	-0.092391	0.570292
C201	C	-0.000070	-0.849301	-0.097698
C202	C	0.249930	-0.599301	0.152302
C203	C	0.499930	-0.349301	0.402302
C204	C	0.749930	-0.099301	0.652302
C205	C	-0.000065	-0.885449	-0.472712
C206	C	0.249935	-0.635449	-0.222712
C207	C	0.499935	-0.385449	0.027288
C208	C	0.749935	-0.135449	0.277288
C209	C	-0.000064	-0.878545	-0.554728
C210	C	0.249936	-0.628545	-0.304728
C211	C	0.499936	-0.378545	-0.054728
C212	C	0.749936	-0.128545	0.195272
C213	C	-0.000082	-1.020387	-0.563937
C214	C	0.249918	-0.770387	-0.313937
C215	C	0.499918	-0.520387	-0.063937
C216	C	0.749918	-0.270387	0.186063
C217	C	-0.000089	-1.027291	-0.481924
C218	C	0.249911	-0.777291	-0.231924
C219	C	0.499911	-0.527291	0.018076
C220	C	0.749911	-0.277291	0.268076
C221	C	-0.000076	-0.959822	-0.436316
C222	C	0.249924	-0.709822	-0.186316
C223	C	0.499924	-0.459822	0.063684
C224	C	0.749924	-0.209822	0.313684
C225	C	-0.000072	-0.902796	-0.309153
C226	C	0.249928	-0.652796	-0.059153
C227	C	0.499928	-0.402796	0.190847
C228	C	0.749928	-0.152796	0.440847
C229	C	-0.000076	-0.966886	-0.352488
C230	C	0.249924	-0.716886	-0.102488
C231	C	0.499924	-0.466886	0.147512
C232	C	0.749924	-0.216886	0.397512
C233	C	-0.000076	-0.938660	0.312379
C234	C	0.249924	-0.688660	0.562379
C235	C	0.499924	-0.438660	0.812379
C236	C	0.749924	-0.188660	1.062379
C237	C	-0.000072	-0.946008	0.399663
C238	C	0.249928	-0.696008	0.649663
C239	C	0.499928	-0.446008	0.899663
C240	C	0.749928	-0.196008	1.149663
H241	H	-0.186589	-1.026970	0.261396
H242	H	0.063411	-0.776970	0.511396
H243	H	0.313411	-0.526970	0.761396
H244	H	0.563411	-0.276970	1.011396
F245	F	-0.823490	-0.830020	0.064250
F246	F	-0.573490	-0.580020	0.314250
F247	F	-0.323490	-0.330020	0.564250
F248	F	-0.073490	-0.080020	0.814250
F249	F	-0.000096	-1.056038	-0.237460
F250	F	0.249904	-0.806038	0.012540
F251	F	0.499904	-0.556038	0.262540
F252	F	0.749904	-0.306038	0.512540
H253	H	-0.000092	-1.075316	-0.601079
H254	H	0.249908	-0.825316	-0.351079
H255	H	0.499908	-0.575316	-0.101079
H256	H	0.749908	-0.325316	0.148921
F257	F	-0.659857	-1.039720	0.274105
F258	F	-0.409857	-0.789720	0.524105
F259	F	-0.159857	-0.539720	0.774105
F260	F	0.090143	-0.289720	1.024105
F261	F	-0.659908	-0.829993	0.064261
F262	F	-0.409908	-0.579993	0.314261
F263	F	-0.159908	-0.329993	0.564261
F264	F	0.090092	-0.079993	0.814261
F265	F	-0.000049	-0.763237	-0.218451
F266	F	0.249951	-0.513237	0.031549
F267	F	0.499951	-0.263237	0.281549
F268	F	0.749951	-0.013237	0.531549
F269	F	-0.000081	-1.106449	-0.443190
F270	F	0.249919	-0.856449	-0.193190
F271	F	0.499919	-0.606449	0.056810
F272	F	0.749919	-0.356449	0.306810
F273	F	-0.000123	-0.172196	0.033720
F274	F	0.249877	0.077804	0.283720
F275	F	0.499877	0.327804	0.533720
F276	F	0.749877	0.577804	0.783720
F277	F	-0.000044	-0.697485	0.304638
F278	F	0.249956	-0.447485	0.554638
F279	F	0.499956	-0.197485	0.804638
F280	F	0.749956	0.052515	1.054638
F281	F	-0.000060	-0.777497	-0.049157
F282	F	0.249940	-0.527497	0.200843
F283	F	0.499940	-0.277497	0.450843
F284	F	0.749940	-0.027497	0.700843
F285	F	-0.000062	-0.528203	0.290375
F286	F	0.249938	-0.278203	0.540375
F287	F	0.499938	-0.028203	0.790375
F288	F	0.749938	0.221797	1.040375
H289	H	-0.000067	-1.027441	-0.322847
H290	H	0.249933	-0.777441	-0.072847
H291	H	0.499933	-0.527441	0.177153
H292	H	0.749933	-0.277441	0.427153
F293	F	-0.340310	-0.829978	0.064247
F294	F	-0.090310	-0.579978	0.314247
F295	F	0.159690	-0.329978	0.564247
F296	F	0.409690	-0.079978	0.814247
H297	H	-0.000064	-0.313370	0.322190
H298	H	0.249936	-0.063370	0.572190
H299	H	0.499936	0.186630	0.822190
H300	H	0.749936	0.436630	1.072190
H301	H	-0.330353	-1.026984	0.261396
H302	H	-0.080353	-0.776984	0.511396
H303	H	0.169647	-0.526984	0.761396
H304	H	0.419647	-0.276984	1.011396
F305	F	-0.000058	-0.823644	-0.347901
F306	F	0.249942	-0.573644	-0.097901
F307	F	0.499942	-0.323644	0.152099
F308	F	0.749942	-0.073644	0.402099
F309	F	-0.000080	-0.451917	0.280375
F310	F	0.249920	-0.201917	0.530375
F311	F	0.499920	0.048083	0.780375
F312	F	0.749920	0.298083	1.030375
F313	F	-0.000081	-0.153181	0.326524
F314	F	0.249919	0.096819	0.576524
F315	F	0.499919	0.346819	0.826524
F316	F	0.749919	0.596819	1.076524
F317	F	-0.823438	-1.039733	0.274106
F318	F	-0.573438	-0.789733	0.524106
F319	F	-0.323438	-0.539733	0.774106
F320	F	-0.073438	-0.289733	1.024106
F321	F	-0.000108	-0.341480	0.047979
F322	F	0.249892	-0.091480	0.297979
F323	F	0.499892	0.158520	0.547979
F324	F	0.749892	0.408520	0.797979
F325	F	-0.000058	-0.799383	-0.593467
F326	F	0.249942	-0.549383	-0.343467
F327	F	0.499942	-0.299383	-0.093467
F328	F	0.749942	-0.049383	0.156533
F329	F	-0.176724	-0.829963	0.064237
F330	F	0.073276	-0.579963	0.314237
F331	F	0.323276	-0.329963	0.564237
F332	F	0.573276	-0.079963	0.814237
H333	H	-0.000100	-0.556310	0.016172
H334	H	0.249900	-0.306310	0.266172
H335	H	0.499900	-0.056310	0.516172
H336	H	0.749900	0.193690	0.766172
H337	H	-0.000079	-0.705099	0.028702
H338	H	0.249921	-0.455099	0.278702
H339	H	0.499921	-0.205099	0.528702
H340	H	0.749921	0.044901	0.778702
F341	F	-0.000092	-0.417762	0.057982
F342	F	0.249908	-0.167762	0.307982
F343	F	0.499908	0.082238	0.557982
F344	F	0.749908	0.332238	0.807982
H345	H	-0.000108	-1.051705	-0.077279
H346	H	0.249892	-0.801705	0.172721
H347	H	0.499892	-0.551705	0.422721
H348	H	0.749892	-0.301705	0.672721
H349	H	-0.000054	-0.830511	-0.435587
H350	H	0.249946	-0.580511	-0.185587
H351	H	0.499946	-0.330511	0.064413
H352	H	0.749946	-0.080511	0.314413
