data_functionalizedCrystal
_audit_creation_method	'MofGen! by Chris Wilmer'
_symmetry_space_group_name_H-M	'P1'
_symmetry_Int_Tables_number	1
_symmetry_cell_setting	triclinic
loop_
_symmetry_equiv_pos_as_xyz
  x,y,z
_cell_length_a	17.640112
_cell_length_b	12.645330
_cell_length_c	17.637464
_cell_angle_alpha	101.182586
_cell_angle_beta	109.606029
_cell_angle_gamma	101.237348
loop_
_atom_site_label
_atom_site_type_symbol
_atom_site_fract_x
_atom_site_fract_y
_atom_site_fract_z
Zn1	Zn	1.165522	-0.163084	-0.211669
Zn2	Zn	1.193326	-0.295460	-0.073888
Zn3	Zn	1.055601	-0.163134	-0.101696
Zn4	Zn	1.027725	-0.385239	-0.239445
O5	O	1.110544	-0.251729	-0.156674
O6	O	1.284517	-0.143050	-0.170130
O7	O	1.198359	-0.240355	0.037733
O8	O	1.070213	-0.014776	-0.116297
O9	O	1.304944	-0.240306	-0.068903
O10	O	1.150971	-0.014738	-0.197094
O11	O	1.097173	-0.143136	0.017303
O12	O	0.936597	-0.230191	-0.143231
O13	O	1.022702	-0.393322	-0.351070
O14	O	0.916116	-0.393371	-0.244434
O15	O	1.123940	-0.230105	-0.330663
O16	O	1.171329	-0.455721	-0.095836
O17	O	1.049662	-0.521682	-0.217470
C18	C	0.896459	-0.321529	-0.199865
C19	C	0.804868	-0.351422	-0.218361
C20	C	1.110506	-0.527166	-0.156663
C21	C	1.110560	-0.644984	-0.156671
C22	C	0.556759	-0.024621	-0.016165
C23	C	0.470693	-0.052735	-0.033556
C24	C	0.449458	-0.222782	-0.138758
C25	C	0.535523	-0.194680	-0.121378
C26	C	0.589167	-0.095599	-0.060080
C27	C	0.567931	-0.265657	-0.165293
C28	C	0.653989	-0.237559	-0.147912
C29	C	0.707638	-0.138484	-0.086615
C30	C	0.675225	-0.067501	-0.042698
C31	C	0.514286	-0.364741	-0.226587
C32	C	0.546694	-0.435718	-0.270502
C33	C	0.632753	-0.407617	-0.253125
C34	C	0.686402	-0.308543	-0.191828
C35	C	0.665166	-0.478601	-0.297041
C36	C	0.751224	-0.450503	-0.279659
C37	C	0.772460	-0.280445	-0.174446
C38	C	1.187024	-0.770999	-0.080042
C39	C	1.187200	-0.648422	-0.080157
C40	C	1.116535	-0.710012	-0.238781
C41	C	1.117108	-0.832335	-0.238340
C42	C	1.027923	-0.833488	-0.152050
C43	C	1.028735	-0.710112	-0.150018
C44	C	1.325464	-0.181658	-0.113316
C45	C	1.417051	-0.151797	-0.094839
C46	C	1.067110	-0.321722	-0.371601
C47	C	1.048601	-0.351549	-0.463190
C48	C	1.110600	0.024785	-0.156699
C49	C	1.110624	0.142618	-0.156710
C50	C	0.969810	-0.478560	-0.602906
C51	C	0.987208	-0.450523	-0.516843
C52	C	1.092625	-0.280576	-0.495586
C53	C	1.075239	-0.308601	-0.581648
C54	C	1.013830	-0.407594	-0.635302
C55	C	1.119259	-0.237636	-0.614044
C56	C	1.101871	-0.265656	-0.700100
C57	C	1.040463	-0.364643	-0.753759
C58	C	0.996442	-0.435615	-0.721358
C59	C	1.180663	-0.138639	-0.560390
C60	C	1.224683	-0.067673	-0.592786
C61	C	1.207300	-0.095698	-0.678842
C62	C	1.145892	-0.194684	-0.732501
C63	C	1.251321	-0.024726	-0.711244
C64	C	1.233933	-0.052746	-0.797299
C65	C	1.128504	-0.222705	-0.818557
C66	C	1.153856	-0.181917	0.057426
C67	C	1.172524	-0.151739	0.149047
H68	H	0.816139	-0.199752	-0.124543
H69	H	1.142622	-0.199974	-0.451890
Br70	Br	1.216989	-0.855461	-0.248324
Br71	Br	0.397494	-0.402887	-0.250163
Br72	Br	1.020688	-0.636689	-0.049451
Br73	Br	1.293647	0.043590	-0.841276
H74	H	0.444311	0.005076	0.002204
H75	H	0.405770	-0.303456	-0.188664
Br76	Br	1.045169	-0.357061	-0.891380
Br77	Br	1.013215	-0.862988	-0.055523
H78	H	1.301314	0.055879	-0.667547
Br79	Br	0.795213	-0.546833	-0.339254
Br80	Br	1.215110	-0.634861	-0.249536
Br81	Br	1.184566	-0.793054	0.022734
H82	H	0.951341	-0.508305	-0.490474
H83	H	0.946442	-0.516230	-0.765045
Br84	Br	1.025336	-0.712379	-0.335287
H85	H	0.971215	-0.893089	-0.208105
Br86	Br	1.026792	-0.932574	-0.335211
H87	H	0.970165	-0.709811	-0.203178
Br88	Br	0.886475	-0.612916	-0.675729
H89	H	1.026301	-0.387450	-0.823832
H90	H	1.194820	-0.115830	-0.490318
Br91	Br	1.289194	-0.795199	-0.082691
H92	H	0.777712	-0.115611	-0.072462
H93	H	1.274680	0.012928	-0.549090
Br94	Br	0.748034	0.066975	0.040485
H95	H	0.600437	0.056072	0.033738
Br96	Br	0.473888	-0.570193	-0.353677
H97	H	0.621478	-0.559277	-0.346944
H98	H	1.185497	-0.602221	-0.018723
Br99	Br	1.289887	-0.572289	-0.082972
