data_functionalizedCrystal
_audit_creation_method	'MofGen! by Chris Wilmer'
_symmetry_space_group_name_H-M	'P1'
_symmetry_Int_Tables_number	1
_symmetry_cell_setting	triclinic
loop_
_symmetry_equiv_pos_as_xyz
  x,y,z
_cell_length_a	14.971486
_cell_length_b	15.995350
_cell_length_c	14.048226
_cell_angle_alpha	89.995798
_cell_angle_beta	89.998499
_cell_angle_gamma	83.553252
loop_
_atom_site_label
_atom_site_type_symbol
_atom_site_fract_x
_atom_site_fract_y
_atom_site_fract_z
O1	O	1.186822	0.109116	-0.079046
O2	O	0.926407	0.122183	-0.079072
O3	O	1.063733	-0.006231	-0.079057
O4	O	1.049496	0.237530	-0.079061
O5	O	1.063717	-0.006238	0.079264
O6	O	0.926391	0.122176	0.079250
O7	O	1.186806	0.109109	0.079275
Zn8	Zn	1.056596	0.115641	0.104399
Zn9	Zn	1.056617	0.115651	-0.104196
O10	O	1.049480	0.237523	0.079261
C11	C	0.893075	0.121595	0.000086
C12	C	0.793780	0.119844	0.000076
C13	C	0.736468	0.195284	0.000076
C14	C	0.643171	0.193633	0.000090
C15	C	0.607187	0.116542	0.000098
C16	C	0.664505	0.041097	0.000100
C17	C	0.757801	0.042748	0.000093
C18	C	0.470047	0.037660	0.000113
C19	C	0.376745	0.036008	0.000119
C20	C	0.355417	0.188545	0.000111
C21	C	0.448712	0.190197	0.000104
C22	C	0.506025	0.114751	0.000104
C23	C	1.063137	-0.037430	0.000101
C24	C	1.061372	-0.130382	0.000096
C25	C	1.055035	-0.468136	0.000098
C26	C	0.957234	-0.420800	-0.000266
C27	C	0.958999	-0.324108	0.000091
C28	C	1.058178	-0.300572	0.000097
C29	C	1.106408	-0.341606	0.090509
C30	C	1.103951	-0.438244	0.090584
C31	C	1.105990	-0.438591	-0.089456
C32	C	1.105967	-0.341646	-0.090651
C33	C	1.059960	-0.205873	0.000099
C34	C	1.053256	-0.562835	0.000103
C35	C	1.220138	0.109697	0.000116
C36	C	1.319433	0.111448	0.000119
C37	C	1.050077	0.268722	0.000100
C38	C	1.051841	0.361674	0.000099
N39	N	1.056587	0.115634	0.246760
N40	N	1.056633	0.115652	-0.246557
C41	C	1.117414	0.058795	0.296584
C42	C	1.117421	0.058795	0.396242
C43	C	1.056603	0.115637	0.446073
C44	C	0.995769	0.172478	0.396242
C45	C	0.995760	0.172474	0.296586
C46	C	0.995795	0.172484	0.603956
C47	C	0.995806	0.172490	0.703619
C48	C	1.117456	0.058805	0.703612
C49	C	1.117446	0.058801	0.603956
C50	C	1.056614	0.115643	0.554132
H51	H	0.478007	0.252971	0.000089
O52	O	0.936615	0.227586	0.555514
C53	C	0.814489	0.245224	0.442971
C54	C	0.881440	0.182728	0.497789
H55	H	0.769876	0.208981	0.396272
H56	H	0.770961	0.285843	0.495661
H57	H	0.853118	0.287125	0.396346
H58	H	0.842883	0.140772	0.544415
H59	H	0.924968	0.142168	0.445047
O60	O	1.193384	-0.324814	0.094489
C61	C	1.349338	-0.381790	0.097858
C62	C	1.250880	-0.400926	0.093328
H63	H	1.395850	-0.443314	0.096942
H64	H	1.364516	-0.341896	0.033857
H65	H	1.360534	-0.345985	0.166206
H66	H	1.239613	-0.436758	0.025022
H67	H	1.235750	-0.440783	0.157377
O68	O	1.067987	-0.463091	-0.171302
C69	C	1.071954	-0.463382	-0.342780
C70	C	1.115104	-0.435602	-0.250171
H71	H	1.110018	-0.441153	-0.406569
H72	H	1.075024	-0.534909	-0.344254
H73	H	0.998824	-0.434598	-0.346072
H74	H	1.188248	-0.464327	-0.246818
H75	H	1.111963	-0.364071	-0.248736
O76	O	0.936724	0.227808	0.444538
C77	C	0.884333	0.373321	0.475052
C78	C	0.951239	0.310750	0.420286
H79	H	0.896058	0.440393	0.455480
H80	H	0.812677	0.362363	0.455449
H81	H	0.894772	0.363522	0.554834
H82	H	0.940882	0.320511	0.340492
H83	H	1.022871	0.321724	0.439969
H84	H	0.765759	0.258060	0.000070
H85	H	0.596511	0.255064	0.000090
H86	H	1.068768	-0.456584	0.158165
O87	O	0.299660	0.261781	-0.000015
C88	C	0.181984	0.348469	-0.082067
C89	C	0.245065	0.265494	-0.082024
H90	H	0.137841	0.351506	-0.148375
H91	H	0.137714	0.351528	-0.015851
H92	H	0.223751	0.403835	-0.082035
H93	H	0.203369	0.210081	-0.082090
H94	H	0.289339	0.262509	-0.148234
H95	H	0.804464	-0.018683	0.000092
H96	H	0.921086	-0.295721	-0.064720
H97	H	0.347450	-0.026766	0.000126
O98	O	1.176514	0.003471	0.751898
C99	C	1.228920	-0.142038	0.782436
C100	C	1.161998	-0.079473	0.727673
H101	H	1.217195	-0.209112	0.762886
H102	H	1.300570	-0.131076	0.762809
H103	H	1.218496	-0.132235	0.862218
H104	H	1.172340	-0.089238	0.647879
H105	H	1.090372	-0.090450	0.747380
H106	H	0.946227	0.218756	0.256020
H107	H	0.516709	-0.023776	0.000115
O108	O	0.910617	-0.442812	-0.077686
C109	C	0.831109	-0.395724	-0.220474
C110	C	0.883902	-0.370675	-0.132845
H111	H	0.809478	-0.337413	-0.265083
H112	H	0.875632	-0.443164	-0.265104
H113	H	0.769073	-0.425139	-0.196067
H114	H	0.945940	-0.341224	-0.157167
H115	H	0.839316	-0.323271	-0.088235
O116	O	0.936630	0.227725	0.751880
C117	C	0.815975	0.340490	0.741376
C118	C	0.882934	0.277974	0.686603
H119	H	0.772557	0.381145	0.688624
H120	H	0.771252	0.304296	0.788014
H121	H	0.854595	0.382351	0.788052
H122	H	0.844387	0.236097	0.639875
H123	H	0.927656	0.314220	0.640026
O124	O	1.176528	0.003497	0.248330
C125	C	1.297220	-0.109232	0.258853
C126	C	1.230310	-0.046661	0.313615
H127	H	1.340733	-0.149789	0.311612
H128	H	1.258650	-0.151181	0.212234
H129	H	1.341856	-0.072999	0.212159
H130	H	1.185658	-0.082826	0.360361
H131	H	1.268936	-0.004712	0.360174
O132	O	0.629509	-0.033769	-0.000061
C133	C	0.536510	-0.124132	-0.082047
C134	C	0.576098	-0.039325	-0.081990
H135	H	0.493303	-0.128645	-0.148269
H136	H	0.593464	-0.177803	-0.082108
H137	H	0.493403	-0.128708	-0.015757
H138	H	0.619194	-0.034667	-0.148268
H139	H	0.519101	0.014305	-0.081879
O140	O	1.189554	-0.476771	0.095460
C141	C	1.285211	-0.608291	0.101230
C142	C	1.188227	-0.564773	0.095671
H143	H	1.284169	-0.679446	0.101423
H144	H	1.325000	-0.589338	0.037068
H145	H	1.318263	-0.588294	0.169390
H146	H	1.155096	-0.584747	0.027551
H147	H	1.148503	-0.583725	0.159880
H148	H	0.918310	-0.440436	0.064202
O149	O	1.192196	-0.323067	-0.097114
C150	C	1.290470	-0.214189	-0.110128
C151	C	1.192776	-0.235122	-0.102812
H152	H	1.290970	-0.143087	-0.114757
H153	H	1.329634	-0.239057	-0.044498
H154	H	1.323133	-0.244939	-0.176621
H155	H	1.160035	-0.204378	-0.036358
H156	H	1.153678	-0.210271	-0.168489
O157	O	1.192068	-0.476263	-0.090138
C158	C	1.349411	-0.457077	-0.088058
C159	C	1.251979	-0.414302	-0.087271
H160	H	1.397877	-0.407001	-0.085761
H161	H	1.361014	-0.499898	-0.023317
H162	H	1.361471	-0.496008	-0.155755
H163	H	1.239852	-0.375328	-0.019617
H164	H	1.240424	-0.371531	-0.152057
O165	O	1.176547	0.003703	0.444751
C166	C	1.298739	-0.013911	0.557214
C167	C	1.231814	0.048574	0.502352
H168	H	1.343452	0.022343	0.603783
H169	H	1.260181	-0.055790	0.603946
H170	H	1.342172	-0.054554	0.504468
H171	H	1.188363	0.089272	0.555030
H172	H	1.270426	0.090395	0.455607
O173	O	0.913466	-0.291050	0.077608
C174	C	0.829062	-0.318591	0.218020
C175	C	0.880617	-0.356140	0.130274
H176	H	0.802473	-0.371196	0.260614
H177	H	0.876135	-0.284909	0.264558
H178	H	0.770351	-0.271852	0.193805
H179	H	0.939327	-0.402912	0.154403
H180	H	0.833484	-0.389769	0.083756
O181	O	1.066558	-0.307863	0.170870
C182	C	1.065344	-0.307148	0.342393
C183	C	1.110577	-0.345415	0.251465
H184	H	1.100902	-0.337505	0.407577
H185	H	1.069869	-0.236482	0.343597
H186	H	0.991721	-0.319166	0.343313
H187	H	1.184215	-0.333460	0.250484
H188	H	1.105979	-0.416069	0.250296
H189	H	1.070705	-0.314429	-0.157536
H190	H	1.166973	0.012520	0.563384
