data_functionalizedCrystal
_audit_creation_method	'MofGen! by Chris Wilmer'
_symmetry_space_group_name_H-M	'P1'
_symmetry_Int_Tables_number	1
_symmetry_cell_setting	triclinic
loop_
_symmetry_equiv_pos_as_xyz
  x,y,z
_cell_length_a	16.109318
_cell_length_b	16.109304
_cell_length_c	15.186229
_cell_angle_alpha	89.999066
_cell_angle_beta	90.000224
_cell_angle_gamma	83.465600
loop_
_atom_site_label
_atom_site_type_symbol
_atom_site_fract_x
_atom_site_fract_y
_atom_site_fract_z
O1	O	1.103123	0.106935	-0.073150
O2	O	0.861063	0.120219	-0.073167
O3	O	0.988741	-0.007454	-0.073158
O4	O	0.975444	0.234607	-0.073158
O5	O	0.988733	-0.007456	0.073299
O6	O	0.861054	0.120217	0.073290
O7	O	1.103114	0.106933	0.073308
Zn8	Zn	0.982083	0.113575	0.096552
Zn9	Zn	0.982094	0.113577	-0.096412
O10	O	0.975436	0.234605	0.073299
C11	C	0.830084	0.119677	0.000059
C12	C	0.737789	0.118056	0.000053
C13	C	0.438720	0.112822	-0.079766
C14	C	0.525442	0.114340	-0.079771
C15	C	0.525451	0.114326	0.079905
C16	C	0.438732	0.112803	0.079909
C17	C	0.395368	0.112055	0.000071
C18	C	0.568809	0.115096	0.000062
C19	C	0.662836	0.116741	0.000056
C20	C	0.301336	0.110408	0.000076
C21	C	0.988198	-0.038430	0.000068
C22	C	0.986582	-0.130725	0.000062
C23	C	0.982853	-0.343061	-0.079769
C24	C	0.981327	-0.429782	-0.079768
C25	C	0.981322	-0.429781	0.079908
C26	C	0.982842	-0.343061	0.079906
C27	C	0.983612	-0.299704	0.000065
C28	C	0.980565	-0.473144	0.000068
C29	C	0.978911	-0.567170	0.000069
C30	C	0.985265	-0.205672	0.000064
C31	C	1.134093	0.107474	0.000079
C32	C	1.226388	0.109095	0.000080
C33	C	0.975979	0.265581	0.000070
C34	C	0.977595	0.357876	0.000071
N35	N	0.982081	0.113572	0.228245
N36	N	0.982102	0.113572	-0.228104
C37	C	1.038636	0.057058	0.453972
C38	C	1.038639	0.057056	0.546161
C39	C	0.925541	0.170090	0.546163
C40	C	0.925535	0.170087	0.453975
C41	C	0.982088	0.113572	0.407881
C42	C	0.982096	0.113573	0.592259
C43	C	0.982099	0.113571	0.692215
C44	C	0.982084	0.113573	0.307919
H45	H	0.983477	-0.307763	-0.144780
O46	O	0.980444	-0.471917	-0.157296
C47	C	0.907612	-0.512661	-0.162069
H48	H	0.857771	-0.479933	-0.116768
H49	H	0.883444	-0.510477	-0.232682
H50	H	0.922725	-0.580517	-0.140619
O51	O	1.093433	0.002089	0.409119
C52	C	1.048889	-0.049229	0.355844
H53	H	0.983843	-0.016106	0.342015
H54	H	1.083588	-0.062427	0.291024
H55	H	1.043217	-0.110651	0.391412
H56	H	0.560735	0.114963	-0.144782
O57	O	0.870683	0.225105	0.409238
C58	C	0.884162	0.307414	0.431773
H59	H	0.950724	0.307845	0.457111
H60	H	0.874584	0.349133	0.371143
H61	H	0.838077	0.331821	0.485285
H62	H	0.879498	0.216104	0.583701
O63	O	1.093493	0.002192	0.591069
C64	C	1.081387	0.014321	0.682321
H65	H	1.015282	0.045369	0.694916
H66	H	1.090659	-0.048640	0.717357
H67	H	1.128431	0.056038	0.708480
H68	H	0.403416	0.112212	-0.144775
H69	H	0.403434	0.112178	0.144926
O70	O	0.567699	0.115100	0.157376
C71	C	0.653538	0.116591	0.140255
H72	H	0.661929	0.143109	0.071643
H73	H	0.681208	0.157509	0.191242
H74	H	0.686889	0.050364	0.144036
H75	H	0.980697	-0.465093	0.144911
O76	O	0.983613	-0.301072	0.157541
C77	C	0.982593	-0.357931	0.228011
H78	H	1.007819	-0.423197	0.204613
H79	H	1.023368	-0.338157	0.283849
H80	H	0.915771	-0.358418	0.252554
