data_functionalizedCrystal
_audit_creation_method	'MofGen! by Chris Wilmer'
_symmetry_space_group_name_H-M	'P1'
_symmetry_Int_Tables_number	1
_symmetry_cell_setting	triclinic
loop_
_symmetry_equiv_pos_as_xyz
  x,y,z
_cell_length_a	10.654554
_cell_length_b	9.730223
_cell_length_c	10.654550
_cell_angle_alpha	90.001139
_cell_angle_beta	95.514127
_cell_angle_gamma	90.003599
loop_
_atom_site_label
_atom_site_type_symbol
_atom_site_fract_x
_atom_site_fract_y
_atom_site_fract_z
O1	O	1.667836	0.114311	-0.176419
O2	O	1.302358	0.114308	-0.193219
O3	O	1.493500	0.114304	-0.002079
O4	O	1.476694	0.114314	-0.367558
O5	O	1.493487	-0.114276	-0.002090
O6	O	1.302345	-0.114272	-0.193229
O7	O	1.667823	-0.114269	-0.176429
Zn8	Zn	1.485082	-0.150563	-0.184831
Zn9	Zn	1.485099	0.150601	-0.184817
O10	O	1.476681	-0.114266	-0.367568
C11	C	1.255554	0.000017	-0.191989
C12	C	1.116111	0.000016	-0.188295
C13	C	0.933549	0.000031	-0.068808
C14	C	1.064571	0.000017	-0.072279
C15	C	1.036622	0.000015	-0.300848
C16	C	0.905603	0.000020	-0.297376
C17	C	0.949686	0.000038	0.063154
C18	C	1.080708	0.000024	0.059684
N19	N	1.485080	-0.356099	-0.184840
C20	C	1.561910	-0.428036	-0.261716
C21	C	1.561929	-0.571918	-0.261692
C22	C	1.408278	-0.571916	-0.107913
C23	C	1.408267	-0.428036	-0.107931
C24	C	1.638724	-0.356099	-0.338624
C25	C	1.715558	-0.428035	-0.415507
C26	C	1.715577	-0.571918	-0.415484
C27	C	1.638761	-0.643865	-0.338577
C28	C	1.714627	0.000024	-0.177659
C29	C	1.854070	0.000034	-0.181353
C30	C	1.492260	0.000016	0.044713
C31	C	1.488568	0.000021	0.184156
N32	N	1.485110	0.356138	-0.184798
C33	C	1.477921	0.000026	-0.414361
C34	C	1.481613	0.000030	-0.553804
C35	C	1.601109	0.000017	0.263640
C36	C	1.597632	0.000027	0.394661
C37	C	1.369063	0.000037	0.366702
C38	C	1.372541	0.000037	0.235683
C39	C	1.733072	0.000005	0.279784
C40	C	1.729595	0.000015	0.410805
H41	H	0.914063	0.098734	0.105180
H42	H	1.122470	0.095684	0.109404
O43	O	1.325479	-0.350391	-0.024971
H44	H	1.258508	-0.284805	-0.084516
H45	H	1.638795	-0.761024	-0.338552
O46	O	1.092213	-0.000005	-0.425979
H47	H	1.014930	-0.000014	-0.503656
H48	H	0.840895	0.000006	-0.389021
O49	O	1.325416	-0.649506	-0.024980
H50	H	1.338321	-0.761640	-0.037894
O51	O	0.910763	-0.126670	0.131497
H52	H	0.995613	-0.188715	0.162192
H53	H	1.126341	-0.098677	0.099556
H54	H	1.638714	-0.238942	-0.338655
H55	H	1.784692	0.095659	0.250429
O56	O	1.251160	0.000039	0.149948
H57	H	1.169900	0.000032	0.207793
O58	O	1.243925	0.000050	0.422278
H59	H	1.189782	-0.093110	0.390419
H60	H	1.778106	-0.369447	-0.478115
O61	O	1.788745	-0.130710	0.232568
H62	H	1.815453	-0.200011	0.313492
O63	O	1.798457	-0.649512	-0.498388
H64	H	1.738844	-0.715101	-0.565307
O65	O	1.782432	0.130735	0.471290
H66	H	1.813262	0.200031	0.397402
O67	O	1.795439	-0.126684	0.466146
H68	H	1.746974	-0.219782	0.425469
