data_functionalizedCrystal
_audit_creation_method	'MofGen! by Chris Wilmer'
_symmetry_space_group_name_H-M	'P1'
_symmetry_Int_Tables_number	1
_symmetry_cell_setting	triclinic
loop_
_symmetry_equiv_pos_as_xyz
  x,y,z
_cell_length_a	13.032831
_cell_length_b	19.805405
_cell_length_c	19.805399
_cell_angle_alpha	90.029301
_cell_angle_beta	82.810414
_cell_angle_gamma	97.169491
loop_
_atom_site_label
_atom_site_type_symbol
_atom_site_fract_x
_atom_site_fract_y
_atom_site_fract_z
Zn1	Zn	1.597580	0.401093	-0.513861
Zn2	Zn	1.597448	0.514271	-0.400659
Zn3	Zn	1.422827	0.386715	-0.386340
Zn4	Zn	1.422771	0.499844	-0.499466
O5	O	1.510157	0.450481	-0.450082
O6	O	1.743800	0.428162	-0.510862
O7	O	1.574253	0.497371	-0.304040
O8	O	1.446087	0.293913	-0.403288
O9	O	1.743703	0.511313	-0.427692
O10	O	1.574477	0.304476	-0.496977
O11	O	1.445960	0.403656	-0.293520
O12	O	1.276582	0.389667	-0.389329
O13	O	1.445991	0.486725	-0.596095
O14	O	1.276541	0.472783	-0.472442
O15	O	1.574423	0.414173	-0.606671
O16	O	1.574198	0.607067	-0.413734
O17	O	1.445864	0.596468	-0.486327
C18	C	1.238644	0.428100	-0.427770
C19	C	1.122489	0.418541	-0.418242
C20	C	1.510039	0.626327	-0.450039
C21	C	1.510084	0.701563	-0.450051
C22	C	1.510215	0.450443	-0.626629
C23	C	1.510240	0.450427	-0.701863
C24	C	1.070711	0.455470	-0.455055
C25	C	0.950660	0.445592	-0.445207
C26	C	1.782730	0.472950	-0.472480
C27	C	1.898884	0.482525	-0.482025
C28	C	1.510303	0.273950	-0.450141
C29	C	1.510366	0.198724	-0.450167
C30	C	1.576973	0.742409	-0.412303
C31	C	1.577018	0.813101	-0.412321
C32	C	1.510167	0.842945	-0.450085
C33	C	1.443275	0.802094	-0.487838
C34	C	1.443237	0.731404	-0.487823
C35	C	1.443429	1.087180	-0.487901
C36	C	1.443471	1.157876	-0.487912
C37	C	1.577210	1.168877	-0.412400
C38	C	1.577172	1.098187	-0.412384
C39	C	1.510284	1.057342	-0.450140
C40	C	1.510238	0.980690	-0.450120
C41	C	1.510207	0.919596	-0.450101
C42	C	1.577116	0.412647	-0.742716
C43	C	1.577127	0.412629	-0.813405
C44	C	1.510266	0.450394	-0.843241
C45	C	1.443383	0.488175	-0.802383
C46	C	1.443368	0.488190	-0.731695
C47	C	1.443442	0.488117	-1.087461
C48	C	1.443465	0.488101	-1.158155
C49	C	1.577201	0.412556	-1.169172
C50	C	1.577186	0.412570	-1.098483
C51	C	1.510299	0.450348	-1.057631
C52	C	1.510287	0.450367	-0.980982
C53	C	1.510283	0.450379	-0.919890
C54	C	1.510158	0.450475	-0.274226
C55	C	1.510336	0.450317	-0.199009
H56	H	1.115260	0.494396	-0.493864
H57	H	1.631604	1.073890	-0.381631
H58	H	1.388849	0.826399	-0.518590
H59	H	1.631406	0.718115	-0.381548
O60	O	1.063500	0.366971	-0.366834
H61	H	1.084361	0.380215	-0.315392
H62	H	1.631484	0.846355	-0.381582
O63	O	0.891670	0.394032	-0.393785
H64	H	0.806634	0.394373	-0.394110
O65	O	1.371256	1.043138	-0.528604
H66	H	1.389113	1.058137	-0.583207
H67	H	1.631677	1.202142	-0.381660
O68	O	1.371373	1.190070	-0.528650
H69	H	1.324863	1.149793	-0.554908
O70	O	1.371090	0.687349	-0.528539
H71	H	1.382302	0.633180	-0.522191
O72	O	1.649230	0.371915	-0.710536
H73	H	1.695727	0.345636	-0.750821
O74	O	1.649262	0.371885	-0.857470
H75	H	1.695763	0.345636	-0.824849
O76	O	1.371336	0.528831	-1.190333
H77	H	1.382594	0.522477	-1.246351
H78	H	0.943427	0.521453	-0.520839
H79	H	1.631634	0.381820	-1.074195
O80	O	1.649318	0.371785	-1.213230
H81	H	1.638084	0.378105	-1.267396
H82	H	1.388994	0.518889	-1.054209
H83	H	1.388940	0.518921	-0.826681
H84	H	1.388900	0.518946	-0.698432
