data_functionalizedCrystal
_audit_creation_method	'MofGen! by Chris Wilmer'
_symmetry_space_group_name_H-M	'P1'
_symmetry_Int_Tables_number	1
_symmetry_cell_setting	triclinic
loop_
_symmetry_equiv_pos_as_xyz
  x,y,z
_cell_length_a	19.077105
_cell_length_b	19.077068
_cell_length_c	19.077174
_cell_angle_alpha	94.657148
_cell_angle_beta	85.483752
_cell_angle_gamma	90.115316
loop_
_atom_site_label
_atom_site_type_symbol
_atom_site_fract_x
_atom_site_fract_y
_atom_site_fract_z
Zn1	Zn	1.080478	-0.341972	-0.455027
Zn2	Zn	1.580478	0.158028	0.044973
Zn3	Zn	1.071301	-0.454742	-0.341487
Zn4	Zn	1.571301	0.045258	0.158513
Zn5	Zn	0.958244	-0.332134	-0.332045
Zn6	Zn	1.458244	0.167866	0.167955
Zn7	Zn	0.958197	-0.454696	-0.454603
Zn8	Zn	1.458197	0.045304	0.045397
O9	O	1.017055	-0.395886	-0.395791
O10	O	1.517055	0.104114	0.104209
O11	O	1.177751	-0.361068	-0.444095
O12	O	1.677751	0.138932	0.055905
O13	O	1.052483	-0.434380	-0.241427
O14	O	1.552483	0.065620	0.258573
O15	O	0.978319	-0.234951	-0.344585
O16	O	1.478319	0.265049	0.155415
O17	O	1.171009	-0.443920	-0.360677
O18	O	1.671009	0.056080	0.139323
O19	O	1.068124	-0.242180	-0.434939
O20	O	1.568124	0.257820	0.065061
O21	O	0.969420	-0.344300	-0.234490
O22	O	1.469420	0.155700	0.265510
O23	O	0.859748	-0.344255	-0.344174
O24	O	1.359748	0.155745	0.155826
O25	O	0.978239	-0.443841	-0.553467
O26	O	1.478239	0.056159	-0.053467
O27	O	0.859713	-0.434301	-0.434217
O28	O	1.359713	0.065699	0.065783
O29	O	1.068079	-0.361024	-0.553779
O30	O	1.568079	0.138976	-0.053779
O31	O	1.052438	-0.553224	-0.360266
O32	O	1.552438	-0.053224	0.139734
O33	O	0.969340	-0.553190	-0.443372
O34	O	1.469340	-0.053190	0.056628
C35	C	0.834193	-0.388206	-0.388125
C36	C	1.334193	0.111794	0.111875
C37	C	0.755964	-0.384938	-0.384863
C38	C	1.255964	0.115062	0.115137
C39	C	0.719207	-0.430350	-0.430143
C40	C	1.219207	0.069650	0.069857
C41	C	0.645702	-0.427270	-0.427081
C42	C	1.145702	0.072730	0.072919
C43	C	0.608956	-0.378782	-0.378736
C44	C	1.108956	0.121218	0.121264
C45	C	0.645719	-0.333365	-0.333454
C46	C	1.145719	0.166635	0.166546
C47	C	0.719222	-0.336442	-0.336520
C48	C	1.219222	0.163558	0.163480
C49	C	0.389126	-0.364542	-0.364550
C50	C	0.889126	0.135458	0.135450
C51	C	0.315618	-0.361471	-0.361486
C52	C	0.815618	0.138529	0.138514
C53	C	0.315607	-0.455375	-0.455114
C54	C	0.815607	0.044625	0.044886
C55	C	0.389111	-0.458451	-0.458173
C56	C	0.889111	0.041549	0.041827
C57	C	0.425867	-0.413032	-0.412894
C58	C	0.925867	0.086968	0.087106
N59	N	0.533823	-0.375634	-0.375603
N60	N	1.033823	0.124366	0.124397
N61	N	0.500999	-0.416176	-0.416030
N62	N	1.000999	0.083824	0.083970
C63	C	1.009908	-0.578745	-0.402813
C64	C	1.509908	-0.078745	0.097187
C65	C	1.006916	-0.656976	-0.405844
C66	C	1.506916	-0.156976	0.094156
C67	C	1.048810	-0.693727	-0.364038
C68	C	1.548810	-0.193727	0.135962
C69	C	1.046000	-0.767234	-0.366893
C70	C	1.546000	-0.267234	0.133107
C71	C	1.001291	-0.803989	-0.411551
C72	C	1.501291	-0.303989	0.088449
C73	C	0.959395	-0.767233	-0.453361
C74	C	1.459395	-0.267233	0.046639
C75	C	0.962209	-0.693728	-0.450510
C76	C	1.462209	-0.193728	0.049490
C77	C	0.988234	-1.023827	-0.424718
C78	C	1.488234	-0.523827	0.075282
C79	C	0.985422	-1.097337	-0.427565
C80	C	1.485422	-0.597337	0.072435
C81	C	1.072029	-1.097333	-0.341097
C82	C	1.572029	-0.597333	0.158903
C83	C	1.074836	-1.023826	-0.338247
C84	C	1.574836	-0.523826	0.161753
C85	C	1.032942	-0.987077	-0.380060
C86	C	1.532942	-0.487077	0.119940
N87	N	0.998416	-0.879124	-0.414468
N88	N	1.498416	-0.379124	0.085532
N89	N	1.035821	-0.911943	-0.377146
N90	N	1.535821	-0.411943	0.122854
C91	C	1.200631	-0.403597	-0.403486
C92	C	1.700631	0.096403	0.096514
C93	C	1.278861	-0.406882	-0.406766
C94	C	1.778861	0.093118	0.093234
C95	C	1.024177	-0.403525	-0.579959
C96	C	1.524177	0.096475	-0.079959
C97	C	1.027212	-0.406780	-0.658440
C98	C	1.527212	0.093220	-0.158440
C99	C	1.024250	-0.212315	-0.388757
C100	C	1.524250	0.287685	0.111243
C101	C	1.027316	-0.134088	-0.385759
C102	C	1.527316	0.365912	0.114241
C103	C	0.985394	-0.361410	-0.691699
C104	C	1.485394	0.138590	-0.191699
C105	C	0.988242	-0.364475	-0.765441
C106	C	1.488242	0.135525	-0.265441
C107	C	1.032914	-0.412906	-0.805923
C108	C	1.532914	0.087094	-0.305923
C109	C	1.074734	-0.458280	-0.772659
C110	C	1.574734	0.041720	-0.272659
C111	C	1.071881	-0.455219	-0.698918
C112	C	1.571881	0.044781	-0.198918
C113	C	1.046080	-0.427094	-1.026851
C114	C	1.546080	0.072906	-0.526851
C115	C	1.048931	-0.430150	-1.100597
C116	C	1.548931	0.069850	-0.600597
C117	C	0.962438	-0.336345	-1.093373
C118	C	1.462438	0.163655	-0.593373
C119	C	0.959592	-0.333285	-1.019632
C120	C	1.459592	0.166715	-0.519632
C121	C	1.001410	-0.378662	-0.986374
C122	C	1.501410	0.121338	-0.486374
N123	N	1.035828	-0.416037	-0.881299
N124	N	1.535828	0.083963	-0.381299
N125	N	0.998491	-0.375533	-0.911000
N126	N	1.498491	0.124467	-0.411000
C127	C	1.010004	-0.388228	-0.212338
C128	C	1.510004	0.111772	0.287662
C129	C	1.007113	-0.384781	-0.133855
C130	C	1.507113	0.115219	0.366145
H131	H	0.285672	-0.492352	-0.491979
H132	H	0.785672	0.007648	0.008021
Cl133	Cl	0.269423	-0.300514	-0.300700
Cl134	Cl	0.769423	0.199486	0.199300
H135	H	0.928095	-0.663806	-0.484553
H136	H	1.428095	-0.163806	0.015447
H137	H	1.111103	-0.497717	-0.805625
H138	H	1.611103	0.002283	-0.305625
Cl139	Cl	0.935566	-0.977638	-0.477283
Cl140	Cl	1.435566	-0.477638	0.022717
Cl141	Cl	0.909868	-0.279307	-1.135187
Cl142	Cl	1.409868	0.220693	-0.635187
H143	H	0.954186	-0.327532	-0.792517
H144	H	1.454186	0.172468	-0.292517
H145	H	1.085214	-0.663806	-0.327670
H146	H	1.585214	-0.163806	0.172330
Cl147	Cl	0.765431	-0.279349	-0.279596
Cl148	Cl	1.265431	0.220651	0.220404
H149	H	0.419024	-0.497937	-0.497539
H150	H	0.919024	0.002063	0.002461
Cl151	Cl	0.929202	-1.143542	-0.483701
Cl152	Cl	1.429202	-0.643542	0.016299
Cl153	Cl	1.098673	-0.813432	-0.314336
Cl154	Cl	1.598673	-0.313432	0.185664
Cl155	Cl	1.124452	-0.512260	-0.657107
Cl156	Cl	1.624452	-0.012260	-0.157107
Cl157	Cl	0.765394	-0.491314	-0.490920
Cl158	Cl	1.265394	0.008686	0.009080
H159	H	0.419044	-0.327564	-0.327676
H160	H	0.919044	0.172436	0.172324
Cl161	Cl	1.105100	-0.491033	-1.151487
Cl162	Cl	1.605100	0.008967	-0.651487
Cl163	Cl	0.599496	-0.484363	-0.484007
Cl164	Cl	1.099496	0.015637	0.015993
Cl165	Cl	1.131054	-0.977626	-0.282114
Cl166	Cl	1.631054	-0.477626	0.217886
Cl167	Cl	1.124696	-1.143536	-0.288540
Cl168	Cl	1.624696	-0.643536	0.211460
H169	H	0.922995	-0.797165	-0.489726
H170	H	1.422995	-0.297165	0.010274
H171	H	0.949021	-0.321969	-0.658744
H172	H	1.449021	0.178031	-0.158744
H173	H	0.615795	-0.293882	-0.294093
H174	H	1.115795	0.206118	0.205907
Cl175	Cl	1.098657	-0.484134	-0.985052
Cl176	Cl	1.598657	0.015866	-0.485052
H177	H	0.923214	-0.293850	-0.986676
H178	H	1.423214	0.206150	-0.486676
