data_functionalizedCrystal
_audit_creation_method	'MofGen! by Chris Wilmer'
_symmetry_space_group_name_H-M	'P1'
_symmetry_Int_Tables_number	1
_symmetry_cell_setting	triclinic
loop_
_symmetry_equiv_pos_as_xyz
  x,y,z
_cell_length_a	12.594517
_cell_length_b	29.839131
_cell_length_c	12.594509
_cell_angle_alpha	90.042620
_cell_angle_beta	90.011478
_cell_angle_gamma	90.031117
loop_
_atom_site_label
_atom_site_type_symbol
_atom_site_fract_x
_atom_site_fract_y
_atom_site_fract_z
Zn1	Zn	1.627125	-0.178889	0.601474
Zn2	Zn	1.626956	-0.254024	0.423451
Zn3	Zn	1.449129	-0.178903	0.423533
Zn4	Zn	1.449052	-0.253987	0.601411
O5	O	1.538065	-0.216451	0.512467
O6	O	1.776048	-0.188865	0.577850
O7	O	1.603329	-0.244080	0.274516
O8	O	1.472843	-0.116034	0.447198
O9	O	1.775924	-0.244066	0.447057
O10	O	1.603616	-0.116024	0.577930
O11	O	1.472680	-0.188889	0.274576
O12	O	1.300173	-0.188854	0.447138
O13	O	1.472712	-0.244004	0.750365
O14	O	1.300116	-0.244018	0.577824
O15	O	1.603541	-0.188830	0.750411
O16	O	1.603254	-0.316886	0.446997
O17	O	1.472548	-0.316859	0.577744
C18	C	1.261524	-0.216434	0.512483
C19	C	1.143219	-0.216437	0.512516
C20	C	1.073966	-0.246500	0.583458
C21	C	1.003190	-0.205539	0.609661
C22	C	1.003196	-0.257433	0.486289
C23	C	1.074001	-0.175454	0.538769
C24	C	1.074014	-0.227376	0.415352
C25	C	1.003270	-0.186386	0.441518
C26	C	1.537903	-0.333174	0.512378
C27	C	1.537931	-0.383108	0.512375
C28	C	1.606144	-0.692711	0.580636
C29	C	1.606260	-0.880384	0.580700
O30	O	1.664098	-0.904615	0.638672
N31	N	1.538246	-0.903893	0.512585
C32	C	1.470194	-0.880481	0.444454
O33	O	1.412339	-0.904783	0.386527
C34	C	1.470074	-0.692809	0.444397
C35	C	1.538099	-0.669302	0.512508
C36	C	1.674163	-0.669205	0.648744
C37	C	1.674138	-0.622289	0.648723
C38	C	1.606093	-0.598880	0.580595
C39	C	1.538074	-0.622387	0.512488
C40	C	1.402017	-0.669397	0.376272
C41	C	1.401991	-0.622476	0.376265
C42	C	1.470017	-0.598970	0.444377
C43	C	1.470004	-0.552062	0.444339
N44	N	1.538017	-0.528553	0.512454
C45	C	1.606062	-0.551962	0.580582
C46	C	1.470263	-0.979011	0.444488
C47	C	1.470295	-1.025929	0.444501
C48	C	1.606359	-1.025829	0.580749
C49	C	1.606332	-0.978911	0.580730
C50	C	1.538277	-0.955502	0.512603
C51	C	1.606004	-0.453436	0.580533
C52	C	1.605976	-0.406517	0.580503
C53	C	1.469908	-0.406621	0.444259
C54	C	1.469940	-0.453536	0.444285
C55	C	1.537991	-0.476943	0.512430
O56	O	1.412188	-0.527803	0.386406
O57	O	1.663891	-0.527652	0.638517
C58	C	1.606170	-0.739626	0.580657
C59	C	1.538150	-0.763133	0.512550
C60	C	1.470106	-0.739724	0.444422
C61	C	1.538182	-0.810051	0.512563
C62	C	1.606226	-0.833460	0.580691
C63	C	1.674240	-0.809951	0.648806
C64	C	1.674214	-0.763035	0.648785
C65	C	1.402092	-0.763233	0.376307
C66	C	1.402124	-0.810148	0.376332
C67	C	1.470169	-0.833557	0.444460
C68	C	1.815686	-0.216468	0.512452
C69	C	1.933992	-0.216476	0.512445
C70	C	1.538137	-0.216412	0.790088
C71	C	1.538167	-0.216395	0.908394
C72	C	1.538257	-0.099273	0.512581
C73	C	1.538339	-0.049338	0.512629
C74	C	1.538056	-0.216458	0.235926
C75	C	1.538232	-0.216348	0.117621
C76	C	1.467031	-0.246387	0.977622
C77	C	1.564143	-0.257367	1.048389
C78	C	1.441131	-0.205388	1.048426
C79	C	1.635330	-0.227396	0.977603
C80	C	1.512252	-0.175398	0.977633
C81	C	1.609431	-0.186362	1.048368
H82	H	1.661374	-0.387379	0.635967
C83	C	1.519154	-0.335522	1.054656
C84	C	1.593781	-0.304141	1.090359
H85	H	1.537444	-0.364398	1.080570
H86	H	1.518716	-0.335945	0.979247
H87	H	1.450691	-0.327508	1.079954
H88	H	1.662243	-0.312152	1.065055
H89	H	1.594229	-0.303719	1.165783
H90	H	1.661411	-0.472489	0.636030
H91	H	1.406921	-0.271790	0.946560
H92	H	1.414556	-0.472676	0.388814
C93	C	0.996848	-0.224574	0.794745
C94	C	0.961174	-0.193069	0.720538
H95	H	0.970903	-0.216879	0.863194
H96	H	1.072256	-0.224734	0.795738
H97	H	0.971561	-0.253474	0.775635
H98	H	0.986467	-0.164169	0.739644
H99	H	0.885750	-0.192904	0.719548
H100	H	1.104972	-0.140791	0.561014
C101	C	1.418129	-0.392251	0.263987
C102	C	1.395107	-0.380885	0.369381
H103	H	1.371946	-0.376360	0.217767
H104	H	1.408404	-0.423553	0.254249
H105	H	1.489647	-0.384541	0.248463
H106	H	1.323590	-0.388598	0.384907
H107	H	1.404822	-0.349575	0.379123
C108	C	1.786572	-1.040205	0.632761
C109	C	1.681150	-1.051567	0.655642
H110	H	1.832736	-1.056098	0.678995
H111	H	1.796289	-1.008903	0.642513
H112	H	1.802189	-1.047916	0.561259
H113	H	1.665531	-1.043853	0.727142
H114	H	1.671428	-1.082876	0.645899
C115	C	0.998948	-0.163127	0.259101
C116	C	0.961611	-0.152052	0.360489
H117	H	0.973230	-0.141928	0.209085
H118	H	0.974570	-0.192202	0.240343
H119	H	1.074369	-0.162753	0.259113
H120	H	0.886190	-0.152430	0.360480
H121	H	0.985983	-0.122969	0.379252
C122	C	1.078762	-0.282466	0.276398
C123	C	1.116058	-0.239862	0.304503
H124	H	1.104727	-0.290178	0.207967
H125	H	1.003355	-0.282288	0.275370
H126	H	1.102927	-0.303826	0.326789
H127	H	1.091886	-0.218501	0.254116
H128	H	1.191481	-0.240037	0.305522
C129	C	1.738837	-0.278875	0.873895
C130	C	1.746180	-0.239997	0.935797
H131	H	1.807270	-0.286656	0.848091
H132	H	1.692523	-0.273638	0.815689
H133	H	1.711753	-0.302699	0.915933
H134	H	1.773256	-0.216172	0.893756
H135	H	1.792511	-0.245230	0.994011
H136	H	0.972090	-0.292085	0.464140
H137	H	1.729527	-0.603153	0.704189
C138	C	1.792299	-0.163705	1.054105
C139	C	1.690766	-0.152096	1.090053
H140	H	1.842512	-0.142553	1.079848
H141	H	1.793117	-0.163708	0.978694
H142	H	1.810133	-0.192724	1.079411
H143	H	1.672930	-0.123079	1.064740
H144	H	1.689946	-0.152088	1.165479
H145	H	1.490270	-0.140758	0.946529
H146	H	1.729573	-0.688259	0.704228
H147	H	1.661724	-0.959774	0.636193
H148	H	1.414913	-1.045064	0.389026
C149	C	1.335786	-0.983833	0.309802
C150	C	1.395461	-0.953285	0.369584
H151	H	1.289615	-0.967951	0.263553
H152	H	1.295058	-1.002127	0.356153
H153	H	1.382216	-1.002133	0.269145
H154	H	1.349032	-0.934987	0.410248
H155	H	1.436192	-0.934983	0.323228
H156	H	1.346624	-0.688528	0.320807
H157	H	1.346569	-0.603420	0.320789
H158	H	1.729607	-0.743900	0.704249
H159	H	1.729648	-0.829019	0.704275
C160	C	1.255932	-0.224323	1.054702
C161	C	1.330317	-0.192843	1.090421
H162	H	1.187519	-0.216579	1.080623
H163	H	1.274854	-0.253220	1.079973
H164	H	1.254965	-0.224515	0.979284
H165	H	1.331289	-0.192654	1.165840
H166	H	1.311389	-0.163939	1.065156
H167	H	1.346731	-0.829283	0.320857
H168	H	1.105011	-0.271874	0.643529
H169	H	1.346681	-0.744177	0.320830
