data_functionalizedCrystal
_audit_creation_method	'MofGen! by Chris Wilmer'
_symmetry_space_group_name_H-M	'P1'
_symmetry_Int_Tables_number	1
_symmetry_cell_setting	triclinic
loop_
_symmetry_equiv_pos_as_xyz
  x,y,z
_cell_length_a	21.295417
_cell_length_b	19.077372
_cell_length_c	19.076919
_cell_angle_alpha	85.525334
_cell_angle_beta	92.266620
_cell_angle_gamma	87.668426
loop_
_atom_site_label
_atom_site_type_symbol
_atom_site_fract_x
_atom_site_fract_y
_atom_site_fract_z
Zn1	Zn	-0.225230	-1.061646	-0.355464
Zn2	Zn	0.274770	-0.561646	0.144536
Zn3	Zn	-0.326096	-1.066289	-0.237576
Zn4	Zn	0.173904	-0.566289	0.262424
Zn5	Zn	-0.225249	-0.948501	-0.242309
Zn6	Zn	0.274751	-0.448501	0.257691
Zn7	Zn	-0.334872	-0.943717	-0.360133
Zn8	Zn	0.165128	-0.443717	0.139867
O9	O	-0.277862	-1.005038	-0.298870
O10	O	0.222138	-0.505038	0.201130
O11	O	-0.234929	-1.160910	-0.335891
O12	O	0.265071	-0.660910	0.164109
O13	O	-0.309053	-1.054610	-0.139557
O14	O	0.190947	-0.554610	0.360443
O15	O	-0.137156	-0.963569	-0.257346
O16	O	0.362844	-0.463569	0.242654
O17	O	-0.309035	-1.164322	-0.249279
O18	O	0.190965	-0.664322	0.250721
O19	O	-0.137142	-1.046696	-0.340481
O20	O	0.362858	-0.546696	0.159519
O21	O	-0.234962	-0.968071	-0.143034
O22	O	0.265038	-0.468071	0.356966
O23	O	-0.243472	-0.849218	-0.261873
O24	O	0.256528	-0.349218	0.238127
O25	O	-0.323993	-0.955415	-0.458160
O26	O	0.176007	-0.455415	0.041840
O27	O	-0.324012	-0.845704	-0.348438
O28	O	0.175988	-0.345704	0.151562
O29	O	-0.243439	-1.042057	-0.454730
O30	O	0.256561	-0.542057	0.045270
O31	O	-0.415351	-1.049971	-0.253806
O32	O	0.084649	-0.549971	0.246194
O33	O	-0.421799	-0.959918	-0.343849
O34	O	0.078201	-0.459918	0.156151
C35	C	-0.284697	-0.821883	-0.306177
C36	C	0.215303	-0.321883	0.193823
C37	C	-0.287636	-0.743527	-0.309319
C38	C	0.212364	-0.243527	0.190681
C39	C	-0.308674	-0.302272	-0.331893
C40	C	0.191326	0.197728	0.168107
C41	C	-0.305916	-0.375896	-0.328928
C42	C	0.194084	0.124104	0.171072
C43	C	-0.262543	-0.414512	-0.282450
C44	C	0.237457	0.085488	0.217550
C45	C	-0.221928	-0.379500	-0.238930
C46	C	0.278072	0.120500	0.261070
C47	C	-0.224690	-0.305878	-0.241893
C48	C	0.275310	0.194122	0.258107
C49	C	-0.249784	-0.634893	-0.268761
C50	C	0.250216	-0.134893	0.231239
C51	C	-0.247024	-0.708521	-0.265804
C52	C	0.252976	-0.208521	0.234196
C53	C	-0.331013	-0.704911	-0.355801
C54	C	0.168987	-0.204911	0.144199
C55	C	-0.333768	-0.631287	-0.358762
C56	C	0.166232	-0.131287	0.141238
C57	C	-0.293156	-0.596282	-0.315240
C58	C	0.206844	-0.096282	0.184760
N59	N	-0.259721	-0.489767	-0.279419
N60	N	0.240279	0.010233	0.220581
N61	N	-0.295981	-0.521028	-0.318268
N62	N	0.204019	-0.021028	0.181732
C63	C	-0.441415	-1.004948	-0.298835
C64	C	0.058585	-0.504948	0.201165
C65	C	-0.511383	-1.004972	-0.298841
C66	C	-0.011383	-0.504972	0.201159
C67	C	-0.540871	-1.051901	-0.252000
C68	C	-0.040871	-0.551901	0.248000
C69	C	-0.606613	-1.051933	-0.252015
C70	C	-0.106613	-0.551933	0.247985
C71	C	-0.642864	-1.005025	-0.298863
C72	C	-0.142864	-0.505025	0.201137
C73	C	-0.613368	-0.958092	-0.345712
C74	C	-0.113368	-0.458092	0.154288
C75	C	-0.547628	-0.958066	-0.345701
C76	C	-0.047628	-0.458066	0.154299
N77	N	-0.748636	-0.943140	-0.306697
N78	N	-0.248636	-0.443140	0.193303
N79	N	-0.811087	-0.943168	-0.306703
N80	N	-0.311087	-0.443168	0.193297
C81	C	-0.840938	-1.005102	-0.298900
C82	C	-0.340938	-0.505102	0.201100
N83	N	-0.805978	-1.067010	-0.291077
N84	N	-0.305978	-0.567010	0.208923
N85	N	-0.743521	-1.066983	-0.291067
N86	N	-0.243521	-0.566983	0.208933
C87	C	-0.714149	-1.005048	-0.298881
C88	C	-0.214149	-0.505048	0.201119
C89	C	-0.941711	-1.052070	-0.252073
C90	C	-0.441711	-0.552070	0.247927
C91	C	-1.007454	-1.052103	-0.252092
C92	C	-0.507454	-0.552103	0.247908
C93	C	-1.014208	-0.958256	-0.345787
C94	C	-0.514208	-0.458256	0.154213
C95	C	-0.948466	-0.958229	-0.345771
C96	C	-0.448466	-0.458229	0.154229
C97	C	-0.912221	-1.005135	-0.298910
C98	C	-0.412221	-0.505135	0.201090
C99	C	-0.113669	-1.005148	-0.298921
C100	C	0.386331	-0.505148	0.201079
C101	C	-0.043700	-1.005195	-0.298942
C102	C	0.456300	-0.505195	0.201058
C103	C	-0.284693	-0.997685	-0.482738
C104	C	0.215307	-0.497685	0.017262
C105	C	-0.287604	-0.994551	-0.561092
C106	C	0.212396	-0.494551	-0.061092
C107	C	-0.270997	-0.188910	-0.291528
C108	C	0.229003	0.311090	0.208472
C109	C	-0.268062	-0.267266	-0.288378
C110	C	0.231938	0.232734	0.211622
C111	C	-0.247033	-1.038186	-0.596118
C112	C	0.252967	-0.538186	-0.096118
C113	C	-0.249767	-1.035233	-0.669739
C114	C	0.250233	-0.535233	-0.169739
C115	C	-0.293074	-0.988648	-0.708334
C116	C	0.206926	-0.488648	-0.208334
C117	C	-0.333646	-0.945008	-0.673303
C118	C	0.166354	-0.445008	-0.173303
C119	C	-0.330909	-0.947958	-0.599683
C120	C	0.169091	-0.447958	-0.099683
C121	C	-0.305753	-0.974985	-0.928707
C122	C	0.194247	-0.474985	-0.428707
C123	C	-0.308488	-0.972039	-1.002332
C124	C	0.191512	-0.472039	-0.502332
C125	C	-0.224607	-1.062264	-0.998763
C126	C	0.275393	-0.562264	-0.498763
C127	C	-0.221877	-1.065213	-0.925142
C128	C	0.278123	-0.565213	-0.425142
C129	C	-0.262447	-1.021570	-0.890117
C130	C	0.237553	-0.521570	-0.390117
N131	N	-0.295870	-0.985630	-0.783587
N132	N	0.204130	-0.485630	-0.283587
N133	N	-0.259647	-1.024585	-0.814865
N134	N	0.240353	-0.524585	-0.314865
C135	C	-0.271010	-1.012404	-0.115716
C136	C	0.228990	-0.512404	0.384284
C137	C	-0.267917	-1.015674	-0.037358
C138	C	0.232083	-0.515674	0.462642
H139	H	-0.211696	-0.739960	-0.227961
H140	H	0.288304	-0.239960	0.272039
C141	C	-0.205613	-0.597022	-0.221484
C142	C	0.294387	-0.097022	0.278516
C143	C	-0.167025	-0.646600	-0.180165
C144	C	0.332975	-0.146600	0.319835
C145	C	-0.126318	-0.611736	-0.136610
C146	C	0.373682	-0.111736	0.363390
H147	H	-0.229508	-0.569511	-0.191809
H148	H	0.270492	-0.069511	0.308191
H149	H	-0.180269	-0.567258	-0.249647
H150	H	0.319731	-0.067258	0.250353
H151	H	-0.192366	-0.676351	-0.152004
H152	H	0.307634	-0.176351	0.347996
H153	H	-0.143116	-0.674113	-0.209821
H154	H	0.356884	-0.174113	0.290179
H155	H	-0.100975	-0.581972	-0.164773
H156	H	0.399025	-0.081972	0.335227
H157	H	-0.150219	-0.584226	-0.106939
H158	H	0.349781	-0.084226	0.393061
H159	H	-0.100128	-0.645369	-0.108574
H160	H	0.399872	-0.145369	0.391426
C161	C	-1.053525	-0.907408	-0.396768
C162	C	-0.553525	-0.407408	0.103232
C163	C	-1.039521	-0.919918	-0.465914
C164	C	-0.539521	-0.419918	0.034086
C165	C	-1.075736	-0.873098	-0.512900
C166	C	-0.575736	-0.373098	-0.012900
H167	H	-1.044211	-0.860432	-0.388394
H168	H	-0.544211	-0.360432	0.111606
H169	H	-1.096909	-0.914149	-0.390116
H170	H	-0.596909	-0.414149	0.109884
H171	H	-0.996146	-0.913172	-0.472562
H172	H	-0.496146	-0.413172	0.027438
H173	H	-1.048838	-0.966885	-0.474309
H174	H	-0.548838	-0.466885	0.025691
H175	H	-1.119120	-0.879839	-0.506249
H176	H	-0.619120	-0.379839	-0.006249
H177	H	-1.066419	-0.826125	-0.504520
H178	H	-0.566419	-0.326125	-0.004520
H179	H	-1.066243	-0.881584	-0.559821
H180	H	-0.566243	-0.381584	-0.059821
C181	C	-0.355828	-0.260475	-0.382382
C182	C	0.144172	0.239525	0.117618
C183	C	-0.390814	-0.306895	-0.419843
C184	C	0.109186	0.193105	0.080157
C185	C	-0.434265	-0.268420	-0.466354
C186	C	0.065735	0.231580	0.033646
H187	H	-0.334082	-0.230544	-0.414365
H188	H	0.165918	0.269456	0.085635
H189	H	-0.383327	-0.232827	-0.356532
H190	H	0.116673	0.267173	0.143468
H191	H	-0.363320	-0.334532	-0.445691
H192	H	0.136680	0.165468	0.054309
H193	H	-0.412574	-0.336828	-0.387879
H194	H	0.087426	0.163172	0.112121
H195	H	-0.461764	-0.240771	-0.440504
H196	H	0.038236	0.259229	0.059496
H197	H	-0.412514	-0.238490	-0.498332
H198	H	0.087486	0.261510	0.001668
H199	H	-0.458012	-0.299910	-0.491772
H200	H	0.041988	0.200090	0.008228
H201	H	-0.338988	-0.404395	-0.364361
H202	H	0.161012	0.095605	0.135639
H203	H	-0.211770	-1.076123	-0.564699
H204	H	0.288230	-0.576123	-0.064699
H205	H	-0.186613	-1.103149	-0.893723
H206	H	0.313387	-0.603149	-0.393723
C207	C	-0.180588	-1.109557	-1.036921
C208	C	0.319412	-0.609557	-0.536921
C209	C	-0.192240	-1.096992	-1.109655
C210	C	0.307760	-0.596992	-0.609655
C211	C	-0.151692	-1.140539	-1.144828
C212	C	0.348308	-0.640539	-0.644828
H213	H	-0.187545	-1.157425	-1.023051
H214	H	0.312455	-0.657425	-0.523051
H215	H	-0.138218	-1.099740	-1.025319
H216	H	0.361782	-0.599740	-0.525319
H217	H	-0.234600	-1.106814	-1.121252
H218	H	0.265400	-0.606814	-0.621252
H219	H	-0.185278	-1.049133	-1.123546
H220	H	0.314722	-0.549133	-0.623546
H221	H	-0.109322	-1.130722	-1.133226
H222	H	0.390678	-0.630722	-0.633226
H223	H	-0.158652	-1.188404	-1.130952
H224	H	0.341348	-0.688404	-0.630952
H225	H	-0.159588	-1.132015	-1.194182
H226	H	0.340412	-0.632015	-0.694182
C227	C	-0.916412	-0.907383	-0.396704
C228	C	-0.416412	-0.407383	0.103296
C229	C	-0.878821	-0.945436	-0.440335
C230	C	-0.378821	-0.445436	0.059665
C231	C	-0.849291	-0.898620	-0.487274
C232	C	-0.349291	-0.398620	0.012726
H233	H	-0.890899	-0.877741	-0.371015
H234	H	-0.390899	-0.377741	0.128985
H235	H	-0.947398	-0.879460	-0.424648
H236	H	-0.447398	-0.379460	0.075352
H237	H	-0.847839	-0.973347	-0.412394
H238	H	-0.347839	-0.473347	0.087606
H239	H	-0.904318	-0.975075	-0.466040
H240	H	-0.404318	-0.475075	0.033960
H241	H	-0.880277	-0.870698	-0.515218
H242	H	-0.380277	-0.370698	-0.015218
H243	H	-0.823782	-0.868981	-0.461579
H244	H	-0.323782	-0.368981	0.038421
H245	H	-0.823787	-0.924433	-0.516887
H246	H	-0.323787	-0.424433	-0.016887
H247	H	-0.642888	-0.919900	-0.383858
H248	H	-0.142888	-0.419900	0.116142
H249	H	-0.216731	-1.070767	-0.698254
H250	H	0.283269	-0.570767	-0.198254
H251	H	-0.338797	-0.939458	-0.900198
H252	H	0.161203	-0.439458	-0.400198
C253	C	-0.174935	-0.421518	-0.188423
C254	C	0.325065	0.078482	0.311577
C255	C	-0.207248	-0.465578	-0.141479
C256	C	0.292752	0.034422	0.358521
C257	C	-0.163976	-0.504301	-0.094949
C258	C	0.336024	-0.004301	0.405051
H259	H	-0.151122	-0.390209	-0.162858
H260	H	0.348878	0.109791	0.337142
H261	H	-0.147480	-0.449220	-0.214271
H262	H	0.352520	0.050780	0.285729
H263	H	-0.234692	-0.437878	-0.115633
H264	H	0.265308	0.062122	0.384367
H265	H	-0.231058	-0.496900	-0.167024
H266	H	0.268942	0.003100	0.332976
H267	H	-0.136521	-0.532003	-0.120797
H268	H	0.363479	-0.032003	0.379203
H269	H	-0.140166	-0.472987	-0.069389
H270	H	0.359834	0.027013	0.430611
H271	H	-0.185894	-0.534204	-0.063097
H272	H	0.314106	-0.034204	0.436903
H273	H	-0.369089	-0.599851	-0.396608
H274	H	0.130911	-0.099851	0.103392
C275	C	-0.180520	-0.267996	-0.194616
C276	C	0.319480	0.232004	0.305384
C277	C	-0.141932	-0.317570	-0.153292
C278	C	0.358068	0.182430	0.346708
C279	C	-0.101231	-0.282700	-0.109736
C280	C	0.398769	0.217300	0.390264
H281	H	-0.204420	-0.240485	-0.164945
H282	H	0.295580	0.259515	0.335055
H283	H	-0.155177	-0.238232	-0.222779
H284	H	0.344823	0.261768	0.277221
H285	H	-0.167273	-0.347321	-0.125132
H286	H	0.332727	0.152679	0.374868
H287	H	-0.118019	-0.345082	-0.182945
H288	H	0.381981	0.154918	0.317055
H289	H	-0.075887	-0.252936	-0.137898
H290	H	0.424113	0.247064	0.362102
H291	H	-0.125136	-0.255190	-0.080069
H292	H	0.374864	0.244810	0.419931
H293	H	-0.075041	-0.316330	-0.081697
H294	H	0.424959	0.183670	0.418303
H295	H	-0.523618	-0.919850	-0.383845
H296	H	-0.023618	-0.419850	0.116155
H297	H	-0.364077	-0.733420	-0.391234
H298	H	0.135923	-0.233420	0.108766
H299	H	-0.343755	-0.934102	-1.033754
H300	H	0.156245	-0.434102	-0.533754
H301	H	-0.912199	-1.090266	-0.213918
H302	H	-0.412199	-0.590266	0.286082
H303	H	-0.368906	-0.907075	-0.704732
H304	H	0.131094	-0.407075	-0.204732
H305	H	-0.363940	-0.912418	-0.571166
H306	H	0.136060	-0.412418	-0.071166
H307	H	-0.511363	-1.090096	-0.213846
H308	H	-0.011363	-0.590096	0.286154
H309	H	-0.630627	-1.090151	-0.213872
H310	H	-0.130627	-0.590151	0.286128
C311	C	-1.039354	-1.103204	-0.201271
C312	C	-0.539354	-0.603204	0.298729
C313	C	-1.021212	-1.172297	-0.213909
C314	C	-0.521212	-0.672297	0.286091
C315	C	-1.050565	-1.219404	-0.167100
C316	C	-0.550565	-0.719404	0.332900
H317	H	-1.083707	-1.096638	-0.207917
H318	H	-0.583707	-0.596638	0.292083
H319	H	-1.027208	-1.094863	-0.154295
H320	H	-0.527208	-0.594863	0.345705
H321	H	-1.033362	-1.180635	-0.260875
H322	H	-0.533362	-0.680635	0.239125
H323	H	-0.976864	-1.178886	-0.207258
H324	H	-0.476864	-0.678886	0.292742
H325	H	-1.038419	-1.211063	-0.120124
H326	H	-0.538419	-0.711063	0.379876
H327	H	-1.094916	-1.212832	-0.173750
H328	H	-0.594916	-0.712832	0.326250
H329	H	-1.038255	-1.266289	-0.175664
H330	H	-0.538255	-0.766289	0.324336
