data_functionalizedCrystal
_audit_creation_method	'MofGen! by Chris Wilmer'
_symmetry_space_group_name_H-M	'P1'
_symmetry_Int_Tables_number	1
_symmetry_cell_setting	triclinic
loop_
_symmetry_equiv_pos_as_xyz
  x,y,z
_cell_length_a	16.109302
_cell_length_b	10.540539
_cell_length_c	9.016244
_cell_angle_alpha	90.003849
_cell_angle_beta	90.004976
_cell_angle_gamma	83.993636
loop_
_atom_site_label
_atom_site_type_symbol
_atom_site_fract_x
_atom_site_fract_y
_atom_site_fract_z
O1	O	1.104127	0.163167	0.123400
O2	O	0.862190	0.183471	0.123387
O3	O	0.988678	-0.011466	0.123392
O4	O	0.977639	0.358105	0.123395
O5	O	0.988671	-0.011477	-0.123289
O6	O	0.862182	0.183460	-0.123293
O7	O	1.104120	0.163156	-0.123281
Cu8	Cu	0.983151	0.173307	-0.145811
Cu9	Cu	0.983159	0.173320	0.145918
O10	O	0.977632	0.358093	-0.123286
C11	C	0.831206	0.182643	0.000046
C12	C	0.738896	0.180177	0.000041
C13	C	0.526516	0.174468	-0.134410
C14	C	0.439782	0.172137	-0.134405
C15	C	0.439800	0.172156	0.134540
C16	C	0.526534	0.174478	0.134533
C17	C	0.569889	0.175640	0.000054
C18	C	0.396421	0.170987	0.000066
C19	C	0.302380	0.168460	0.000072
C20	C	0.663936	0.178165	0.000047
C21	C	0.987847	-0.058763	0.000054
C22	C	0.985370	-0.199675	0.000062
C23	C	0.890460	-0.381750	0.000611
C24	C	0.892971	-0.235167	0.000056
C25	C	1.029832	-0.261973	-0.140802
C26	C	1.026679	-0.408473	-0.140921
C27	C	1.028566	-0.409005	0.139601
C28	C	1.029417	-0.262035	0.141464
C29	C	1.135104	0.163984	0.000064
C30	C	1.227414	0.166451	0.000079
C31	C	0.978463	0.405390	0.000055
C32	C	0.980940	0.546303	0.000057
N33	N	0.983151	0.173297	-0.350997
C34	C	1.050851	0.069030	-0.413919
C35	C	1.051104	0.069313	-0.585810
C36	C	1.002537	0.305921	-0.586464
C37	C	1.003016	0.305296	-0.414519
C38	C	0.895882	0.146159	-0.414391
C39	C	0.896457	0.143163	-0.586347
N40	N	0.983166	0.173320	0.351104
H41	H	0.857985	-0.192061	0.101033
C42	C	0.574246	0.175772	0.282451
H43	H	0.536003	0.174766	0.362543
H44	H	0.613984	0.102701	0.288040
H45	H	0.602177	0.250666	0.288029
H46	H	1.039506	-0.029239	-0.628023
H47	H	1.115236	0.086160	-0.370676
C48	C	0.392105	0.170894	0.282455
H49	H	0.334237	0.169358	0.263203
H50	H	0.412223	0.097304	0.337714
H51	H	0.400423	0.245269	0.337694
H52	H	0.854106	-0.411443	-0.099843
H53	H	0.853963	-0.409825	0.101627
H54	H	0.993813	-0.436209	-0.246224
H55	H	0.561813	0.175415	-0.243912
H56	H	1.039445	-0.029851	-0.372555
H57	H	1.095306	-0.457182	0.140552
H58	H	0.404472	0.171183	-0.243899
H59	H	1.115859	0.086708	-0.626930
C60	C	0.845382	-0.178079	-0.136597
H61	H	0.824445	-0.244488	-0.191996
H62	H	0.800235	-0.118978	-0.105196
H63	H	0.882119	-0.135569	-0.196931
C64	C	1.089012	0.337491	-0.360313
H65	H	1.123328	0.350821	-0.443377
H66	H	1.082252	0.412706	-0.301617
H67	H	1.114518	0.268784	-0.302527
C68	C	0.938977	0.413301	-0.358277
H69	H	0.912790	0.457371	-0.440519
H70	H	0.898021	0.378148	-0.299745
H71	H	0.966627	0.471036	-0.299892
H72	H	0.954559	0.385405	-0.627326
H73	H	0.877370	0.051502	-0.371042
C74	C	1.116444	-0.474560	-0.149578
H75	H	1.154674	-0.411837	-0.153020
H76	H	1.127606	-0.526891	-0.064639
H77	H	1.122431	-0.525706	-0.236450
H78	H	1.097687	-0.240586	-0.146036
C79	C	1.087558	0.338918	-0.644601
H80	H	1.098722	0.419338	-0.606206
H81	H	1.130113	0.275230	-0.613609
H82	H	1.086286	0.342563	-0.749866
C83	C	0.988095	-0.203860	-0.282422
H84	H	0.943580	-0.141648	-0.256006
H85	H	1.028029	-0.164858	-0.339418
H86	H	0.966906	-0.269231	-0.339200
H87	H	0.998664	-0.440127	0.246368
H88	H	0.881767	0.045615	-0.627153
C89	C	0.985535	-0.206100	0.282247
H90	H	0.940560	-0.144992	0.254981
H91	H	0.964721	-0.272642	0.337558
H92	H	1.024253	-0.166127	0.341044
H93	H	1.096783	-0.238773	0.149973
H94	H	0.843685	0.214155	-0.629286
C95	C	0.827811	0.248848	-0.359394
H96	H	0.852409	0.307981	-0.298096
H97	H	0.801707	0.292377	-0.442051
H98	H	0.787331	0.209531	-0.304063
