data_functionalizedCrystal
_audit_creation_method	'MofGen! by Chris Wilmer'
_symmetry_space_group_name_H-M	'P1'
_symmetry_Int_Tables_number	1
_symmetry_cell_setting	triclinic
loop_
_symmetry_equiv_pos_as_xyz
  x,y,z
_cell_length_a	16.109293
_cell_length_b	15.186229
_cell_length_c	16.109301
_cell_angle_alpha	89.994833
_cell_angle_beta	96.540124
_cell_angle_gamma	90.006769
loop_
_atom_site_label
_atom_site_type_symbol
_atom_site_fract_x
_atom_site_fract_y
_atom_site_fract_z
O1	O	-1.103135	-0.073301	0.106835
O2	O	-0.603135	0.426699	0.606835
O3	O	-0.861072	-0.073288	0.120141
O4	O	-0.361072	0.426712	0.620141
O5	O	-0.988753	-0.073286	-0.007543
O6	O	-0.488753	0.426714	0.492457
O7	O	-0.975454	-0.073303	0.234519
O8	O	-0.475454	0.426697	0.734519
O9	O	-0.988744	0.073172	-0.007545
O10	O	-0.488744	0.573172	0.492455
O11	O	-0.861063	0.073169	0.120139
O12	O	-0.361063	0.573169	0.620139
O13	O	-1.103126	0.073156	0.106833
O14	O	-0.603126	0.573156	0.606833
Zn15	Zn	-0.982093	0.096416	0.113486
Zn16	Zn	-0.482093	0.596416	0.613486
Zn17	Zn	-0.982105	-0.096548	0.113488
Zn18	Zn	-0.482105	0.403452	0.613488
O19	O	-0.975445	0.073154	0.234517
O20	O	-0.475445	0.573154	0.734517
C21	C	-0.830093	-0.000057	0.119602
C22	C	-0.330093	0.499943	0.619602
C23	C	-0.737797	-0.000052	0.117990
C24	C	-0.237797	0.499948	0.617990
C25	C	-0.525451	0.079779	0.114260
C26	C	-0.025451	0.579779	0.614260
C27	C	-0.438730	0.079779	0.112736
C28	C	0.061270	0.579779	0.612736
C29	C	-0.438750	-0.079897	0.112742
C30	C	0.061250	0.420103	0.612742
C31	C	-0.525469	-0.079896	0.114260
C32	C	-0.025469	0.420104	0.614260
C33	C	-0.568817	-0.000055	0.115024
C34	C	-0.068817	0.499945	0.615024
C35	C	-0.395377	-0.000057	0.111981
C36	C	0.104623	0.499943	0.611981
C37	C	-0.301351	-0.000058	0.110329
C38	C	0.198649	0.499942	0.610329
C39	C	-0.662849	-0.000053	0.116675
C40	C	-0.162849	0.499947	0.616675
C41	C	-0.988210	-0.000057	-0.038519
C42	C	-0.488210	0.499943	0.461481
C43	C	-0.986595	-0.000055	-0.130814
C44	C	-0.486595	0.499945	0.369186
N45	N	-0.982092	0.228109	0.113484
N46	N	-0.482092	0.728109	0.613484
C47	C	-0.134104	-0.000069	0.107380
C48	C	0.365896	0.499931	0.607380
C49	C	-0.226397	-0.000060	0.109015
C50	C	0.273603	0.499940	0.609015
N51	N	-0.982113	-0.228240	0.113484
N52	N	-0.482113	0.271760	0.613484
C53	C	-1.038648	0.453833	0.056964
C54	C	-0.538648	0.953833	0.556964
C55	C	-1.038651	0.546022	0.056962
C56	C	-0.538651	1.046022	0.556962
C57	C	-0.925550	0.546030	0.170006
C58	C	-0.425550	1.046030	0.670006
C59	C	-0.925544	0.453842	0.170003
C60	C	-0.425544	0.953842	0.670003
C61	C	-0.982098	0.407745	0.113483
C62	C	-0.482098	0.907745	0.613483
C63	C	-0.982107	0.592123	0.113484
C64	C	-0.482107	1.092123	0.613484
C65	C	-0.982109	0.692079	0.113482
C66	C	-0.482109	1.192079	0.613482
C67	C	-0.982095	0.307783	0.113484
C68	C	-0.482095	0.807783	0.613484
C69	C	-1.058603	-0.000073	-0.353089
C70	C	-0.558603	0.499927	0.146911
C71	C	-1.057079	-0.000080	-0.439809
C72	C	-0.557079	0.499920	0.060191
C73	C	-0.905589	-0.000069	-0.419930
C74	C	-0.405589	0.499931	0.080070
C75	C	-0.907114	-0.000068	-0.333212
C76	C	-0.407114	0.499932	0.166788
C77	C	-0.983624	-0.000066	-0.299793
C78	C	-0.483624	0.499934	0.200207
C79	C	-0.980575	-0.000074	-0.473232
C80	C	-0.480575	0.499926	0.026768
C81	C	-0.978921	-0.000081	-0.567258
C82	C	-0.478921	0.499919	-0.067258
C83	C	-0.985277	-0.000059	-0.205761
C84	C	-0.485277	0.499941	0.294239
C85	C	-0.975988	-0.000077	0.265493
C86	C	-0.475988	0.499923	0.765493
C87	C	-0.977603	-0.000084	0.357788
C88	C	-0.477603	0.499916	0.857788
H89	H	-0.560780	-0.144910	0.114880
H90	H	-0.060780	0.355090	0.614880
O91	O	-1.093608	0.409191	0.001978
O92	O	-0.593608	0.909191	0.501978
C93	C	-1.143534	0.469642	-0.047894
C94	C	-0.643534	0.969642	0.452106
H95	H	-1.109451	0.535363	-0.048838
H96	H	-0.609451	1.035363	0.451162
H97	H	-1.156232	0.443014	-0.114290
H98	H	-0.656232	0.943014	0.385710
H99	H	-1.205287	0.479431	-0.020885
H100	H	-0.705287	0.979431	0.479115
H101	H	-0.403446	-0.144901	0.112122
H102	H	0.096554	0.355099	0.612122
H103	H	-1.084698	0.583544	0.010938
H104	H	-0.584698	1.083544	0.510938
H105	H	-0.879507	0.583570	0.216025
H106	H	-0.379507	1.083570	0.716025
O107	O	-0.396496	0.157272	0.112103
O108	O	0.103504	0.657272	0.612103
C109	C	-0.336905	0.162058	0.183194
C110	C	0.163095	0.662058	0.683194
H111	H	-0.320775	0.092741	0.206962
H112	H	0.179225	0.592741	0.706962
H113	H	-0.278044	0.195845	0.165934
H114	H	0.221956	0.695845	0.665934
H115	H	-0.363708	0.201458	0.234170
H116	H	0.136292	0.701458	0.734170
O117	O	-0.870577	0.409203	0.224991
O118	O	-0.370577	0.909203	0.724991
C119	C	-0.820654	0.469655	0.274868
C120	C	-0.320654	0.969655	0.774868
H121	H	-0.854741	0.535363	0.275823
H122	H	-0.354741	1.035363	0.775823
H123	H	-0.807949	0.443007	0.341260
H124	H	-0.307949	0.943007	0.841260
H125	H	-0.758904	0.479475	0.247856
H126	H	-0.258904	0.979475	0.747856
O127	O	-1.132993	-0.000121	-0.320763
O128	O	-0.632993	0.499879	0.179237
C129	C	-1.198844	-0.000110	-0.386403
C130	C	-0.698844	0.499890	0.113597
H131	H	-1.175549	-0.027833	-0.445303
H132	H	-0.675549	0.472167	0.054697
H133	H	-1.252257	-0.042640	-0.368297
H134	H	-0.752257	0.457360	0.131703
H135	H	-1.221975	0.070149	-0.398688
H136	H	-0.721975	0.570149	0.101312
O137	O	-0.834297	-0.000216	-0.281401
O138	O	-0.334297	0.499784	0.218599
C139	C	-0.830662	-0.076058	-0.230626
C140	C	-0.330662	0.423942	0.269374
H141	H	-0.873186	-0.129075	-0.262398
H142	H	-0.373186	0.370925	0.237602
H143	H	-0.763690	-0.101515	-0.220847
H144	H	-0.263690	0.398485	0.279153
H145	H	-0.852169	-0.058911	-0.167576
H146	H	-0.352169	0.441089	0.332424
O147	O	-1.129892	-0.000242	-0.491613
O148	O	-0.629892	0.499758	0.008387
C149	C	-1.133539	-0.076087	-0.542373
C150	C	-0.633539	0.423913	-0.042373
H151	H	-1.091017	-0.129098	-0.510593
H152	H	-0.591017	0.370902	-0.010593
H153	H	-1.200514	-0.101552	-0.552140
H154	H	-0.700514	0.398448	-0.052140
H155	H	-1.112037	-0.058941	-0.605429
H156	H	-0.612037	0.441059	-0.105429
O157	O	-0.831325	-0.000180	-0.452495
O158	O	-0.331325	0.499820	0.047505
C159	C	-0.825902	-0.076041	-0.502040
C160	C	-0.325902	0.423959	-0.002040
H161	H	-0.891437	-0.101336	-0.523658
H162	H	-0.391437	0.398664	-0.023658
H163	H	-0.792774	-0.058976	-0.558816
H164	H	-0.292774	0.441024	-0.058816
H165	H	-0.789111	-0.129152	-0.463712
H166	H	-0.289111	0.370848	0.036288
O167	O	-0.567437	0.157412	0.114953
O168	O	-0.067437	0.657412	0.614953
C169	C	-0.510557	0.227874	0.113971
C170	C	-0.010557	0.727874	0.613971
H171	H	-0.452193	0.204465	0.086586
H172	H	0.047807	0.704465	0.586586
H173	H	-0.540896	0.283711	0.074063
H174	H	-0.040896	0.783711	0.574063
H175	H	-0.492590	0.252424	0.180468
H176	H	0.007410	0.752424	0.680468
