data_functionalizedCrystal
_audit_creation_method	'MofGen! by Chris Wilmer'
_symmetry_space_group_name_H-M	'P1'
_symmetry_Int_Tables_number	1
_symmetry_cell_setting	triclinic
loop_
_symmetry_equiv_pos_as_xyz
  x,y,z
_cell_length_a	12.759401
_cell_length_b	19.805405
_cell_length_c	12.759393
_cell_angle_alpha	89.962167
_cell_angle_beta	89.982620
_cell_angle_gamma	90.026572
loop_
_atom_site_label
_atom_site_type_symbol
_atom_site_fract_x
_atom_site_fract_y
_atom_site_fract_z
Zn1	Zn	1.606158	-0.269419	-0.593937
Zn2	Zn	2.106158	0.230581	-0.093937
Zn3	Zn	1.606020	-0.382624	-0.418239
Zn4	Zn	2.106020	0.117376	0.081761
Zn5	Zn	1.430464	-0.269455	-0.418276
Zn6	Zn	1.930464	0.230545	0.081724
Zn7	Zn	1.430413	-0.382572	-0.593880
Zn8	Zn	1.930413	0.117428	-0.093880
O9	O	1.518264	-0.326017	-0.506083
O10	O	2.018264	0.173983	-0.006083
O11	O	1.753161	-0.284443	-0.570638
O12	O	2.253161	0.215557	-0.070638
O13	O	1.582696	-0.367649	-0.271222
O14	O	2.082696	0.132351	0.228778
O15	O	1.453849	-0.174734	-0.441618
O16	O	1.953849	0.325266	0.058382
O17	O	1.753059	-0.367614	-0.441553
O18	O	2.253059	0.132386	0.058447
O19	O	1.582931	-0.174707	-0.570675
O20	O	2.082931	0.325293	-0.070675
O21	O	1.453715	-0.284504	-0.271250
O22	O	1.953715	0.215496	0.228750
O23	O	1.283436	-0.284453	-0.441563
O24	O	1.783436	0.215547	0.058437
O25	O	1.453763	-0.367525	-0.740909
O26	O	1.953763	0.132475	-0.240909
O27	O	1.283399	-0.367560	-0.570578
O28	O	1.783399	0.132440	-0.070578
O29	O	1.582882	-0.284392	-0.740951
O30	O	2.082882	0.215608	-0.240951
O31	O	1.582646	-0.477334	-0.441498
O32	O	2.082646	0.022666	0.058502
O33	O	1.453629	-0.477295	-0.570541
O34	O	1.953629	0.022705	-0.070541
C35	C	1.245296	-0.326005	-0.506069
C36	C	1.745296	0.173995	-0.006069
C37	C	1.128520	-0.326016	-0.506088
C38	C	1.628520	0.173984	-0.006088
C39	C	1.073666	-0.369359	-0.573155
C40	C	1.573666	0.130641	-0.073155
C41	C	0.963942	-0.369367	-0.573166
C42	C	1.463942	0.130633	-0.073166
C43	C	0.963935	-0.282688	-0.439034
C44	C	1.463935	0.217312	0.060966
C45	C	1.073657	-0.282677	-0.439029
C46	C	1.573657	0.217323	0.060971
C47	C	1.073669	-0.419404	-0.650592
C48	C	1.573669	0.080596	-0.150592
C49	C	0.963945	-0.419413	-0.650603
C50	C	1.463945	0.080587	-0.150603
C51	C	1.518146	-0.501874	-0.506032
C52	C	2.018146	-0.001874	-0.006032
C53	C	1.518191	-0.577105	-0.506046
C54	C	2.018191	-0.077105	-0.006046
C55	C	1.585436	-0.612447	-0.438923
C56	C	2.085436	-0.112447	0.061077
C57	C	1.585481	-0.683136	-0.438946
C58	C	2.085481	-0.183136	0.061054
C59	C	1.518274	-0.718481	-0.506088
C60	C	2.018274	-0.218481	-0.006088
C61	C	1.451027	-0.683134	-0.573217
C62	C	1.951027	-0.183134	-0.073217
C63	C	1.450988	-0.612447	-0.573199
C64	C	1.950988	-0.112447	-0.073199
C65	C	1.451181	-0.968208	-0.573295
C66	C	1.951181	-0.468208	-0.073295
C67	C	1.451223	-1.038900	-0.573306
C68	C	1.951223	-0.538900	-0.073306
C69	C	1.585674	-1.038896	-0.439043
C70	C	2.085674	-0.538896	0.060957
C71	C	1.585636	-0.968209	-0.439024
C72	C	2.085636	-0.468209	0.060976
C73	C	1.518392	-0.932868	-0.506157
C74	C	2.018392	-0.432868	-0.006157
C75	C	1.518346	-0.856220	-0.506133
C76	C	2.018346	-0.356220	-0.006133
C77	C	1.518314	-0.795128	-0.506108
C78	C	2.018314	-0.295128	-0.006108
C79	C	1.792297	-0.326030	-0.506098
C80	C	2.292297	0.173970	-0.006098
C81	C	1.909074	-0.326036	-0.506104
C82	C	2.409074	0.173964	-0.006104
C83	C	1.518332	-0.325949	-0.780117
C84	C	2.018332	0.174051	-0.280117
C85	C	1.518361	-0.325919	-0.896893
C86	C	2.018361	0.174081	-0.396893
C87	C	1.518411	-0.149475	-0.506157
C88	C	2.018411	0.350525	-0.006157
C89	C	1.518474	-0.074243	-0.506189
C90	C	2.018474	0.425757	-0.006189
C91	C	1.451229	-0.282618	-0.951776
C92	C	1.951229	0.217382	-0.451776
C93	C	1.451261	-0.282597	-1.061500
C94	C	1.951261	0.217403	-0.561500
C95	C	1.585565	-0.369182	-1.061449
C96	C	2.085565	0.130818	-0.561449
C97	C	1.585528	-0.369205	-0.951727
C98	C	2.085528	0.130795	-0.451727
C99	C	1.373693	-0.232626	-0.951806
C100	C	1.873693	0.267374	-0.451806
C101	C	1.373725	-0.232606	-1.061530
C102	C	1.873725	0.267394	-0.561530
C103	C	1.518256	-0.326037	-0.233116
C104	C	2.018256	0.173963	0.266884
C105	C	1.518431	-0.325876	-0.116340
C106	C	2.018431	0.174124	0.383660
H107	H	1.103480	-0.405425	-0.732001
H108	H	1.603480	0.094575	-0.232001
H109	H	1.640237	-0.711908	-0.384288
H110	H	2.140237	-0.211908	0.115712
H111	H	1.640357	-0.939433	-0.384348
H112	H	2.140357	-0.439433	0.115652
H113	H	0.934133	-0.471821	-0.628662
H114	H	1.434133	0.028179	-0.128662
Cl115	Cl	1.670216	-1.083328	-0.354651
Cl116	Cl	2.170216	-0.583328	0.145349
Cl117	Cl	1.126169	-0.496266	-0.605467
Cl118	Cl	1.626169	0.003734	-0.105467
H119	H	1.640177	-0.404476	-0.907046
H120	H	2.140177	0.095524	-0.407046
H121	H	1.396232	-0.583673	-0.627858
H122	H	1.896232	-0.083673	-0.127858
Cl123	Cl	1.366544	-0.727569	-0.657630
Cl124	Cl	1.866544	-0.227569	-0.157630
H125	H	1.396497	-1.067676	-0.627989
H126	H	1.896497	-0.567676	-0.127989
Cl127	Cl	1.366645	-0.923789	-0.657689
Cl128	Cl	1.866645	-0.423789	-0.157689
H129	H	1.402873	-0.182841	-0.917798
H130	H	1.902873	0.317159	-0.417798
H131	H	1.292299	-0.246664	-0.922026
H132	H	1.792299	0.253336	-0.422026
H133	H	1.640251	-0.404424	-1.106108
H134	H	2.140251	0.095576	-0.606108
Cl135	Cl	0.911452	-0.390525	-0.770028
Cl136	Cl	1.411452	0.109475	-0.270028
H137	H	1.118315	-0.247379	-0.384423
H138	H	1.618315	0.252621	0.115577
Cl139	Cl	1.254387	-0.261588	-1.114068
Cl140	Cl	1.754387	0.238412	-0.614068
Cl141	Cl	1.407283	-0.151637	-1.107556
Cl142	Cl	1.907283	0.348363	-0.607556
Cl143	Cl	0.894958	-0.228208	-0.354738
Cl144	Cl	1.394958	0.271792	0.145262
H145	H	1.640158	-0.583674	-0.384245
H146	H	2.140158	-0.083674	0.115755
