data_functionalizedCrystal
_audit_creation_method	'MofGen! by Chris Wilmer'
_symmetry_space_group_name_H-M	'P1'
_symmetry_Int_Tables_number	1
_symmetry_cell_setting	triclinic
loop_
_symmetry_equiv_pos_as_xyz
  x,y,z
_cell_length_a	19.288862
_cell_length_b	18.366186
_cell_length_c	19.288865
_cell_angle_alpha	89.989632
_cell_angle_beta	83.135763
_cell_angle_gamma	89.974265
loop_
_atom_site_label
_atom_site_type_symbol
_atom_site_fract_x
_atom_site_fract_y
_atom_site_fract_z
O1	O	-0.921354	0.060839	-0.086640
O2	O	-0.588021	0.394172	0.246694
O3	O	-0.254687	0.727505	0.580027
O4	O	-0.719093	0.060780	-0.098330
O5	O	-0.385760	0.394113	0.235003
O6	O	-0.052426	0.727446	0.568337
O7	O	-0.826068	0.060797	0.008645
O8	O	-0.492735	0.394130	0.341979
O9	O	-0.159401	0.727463	0.675312
O10	O	-0.814379	0.060822	-0.193615
O11	O	-0.481046	0.394155	0.139718
O12	O	-0.147713	0.727489	0.473051
O13	O	-0.826049	-0.060303	0.008648
O14	O	-0.492716	0.273031	0.341982
O15	O	-0.159383	0.606364	0.675315
O16	O	-0.719075	-0.060320	-0.098327
O17	O	-0.385741	0.273014	0.235006
O18	O	-0.052408	0.606347	0.568339
O19	O	-0.921336	-0.060261	-0.086637
O20	O	-0.588002	0.273073	0.246697
O21	O	-0.254669	0.606406	0.580030
Zn22	Zn	-0.820202	-0.079517	-0.092482
Zn23	Zn	-0.486869	0.253816	0.240852
Zn24	Zn	-0.153536	0.587149	0.574185
Zn25	Zn	-0.820226	0.080036	-0.092485
Zn26	Zn	-0.486893	0.413370	0.240848
Zn27	Zn	-0.153560	0.746703	0.574181
O28	O	-0.814361	-0.060277	-0.193612
O29	O	-0.481027	0.273056	0.139721
O30	O	-0.147694	0.606389	0.473054
C31	C	-0.693207	0.000222	-0.097953
C32	C	-0.359874	0.333556	0.235381
C33	C	-0.026541	0.666889	0.568714
C34	C	-0.616104	0.000199	-0.096824
C35	C	-0.282770	0.333532	0.236509
C36	C	0.050563	0.666866	0.569842
C37	C	-0.571407	0.000216	-0.159593
C38	C	-0.238074	0.333550	0.173741
C39	C	0.095259	0.666883	0.507074
C40	C	-0.498960	0.000221	-0.158533
C41	C	-0.165627	0.333554	0.174801
C42	C	0.167706	0.666887	0.508134
C43	C	-0.471213	0.000222	-0.094701
C44	C	-0.137879	0.333555	0.238633
C45	C	0.195454	0.666889	0.571966
C46	C	-0.515919	0.000201	-0.031924
C47	C	-0.182586	0.333534	0.301409
C48	C	0.150748	0.666867	0.634742
C49	C	-0.588364	0.000189	-0.032986
C50	C	-0.255031	0.333523	0.300347
C51	C	0.078302	0.666856	0.633681
C52	C	-0.362957	0.042661	-0.044524
C53	C	-0.029624	0.375994	0.288810
C54	C	0.303710	0.709328	0.622143
C55	C	-0.290512	0.042677	-0.043464
C56	C	0.042821	0.376010	0.289869
C57	C	0.376154	0.709344	0.623202
C58	C	-0.247767	0.000254	-0.091423
C59	C	0.085566	0.333588	0.241910
C60	C	0.418900	0.666921	0.575244
C61	C	-0.277473	-0.042175	-0.140453
C62	C	0.055860	0.291158	0.192881
C63	C	0.389194	0.624492	0.526214
C64	C	-0.349919	-0.042187	-0.141515
C65	C	-0.016585	0.291147	0.191819
C66	C	0.316748	0.624480	0.525152
C67	C	-0.392659	0.000234	-0.093542
C68	C	-0.059325	0.333567	0.239791
C69	C	0.274008	0.666901	0.573124
C70	C	-0.124514	0.000275	-0.153046
C71	C	0.208819	0.333608	0.180287
C72	C	0.542152	0.666942	0.513621
C73	C	-0.052066	0.000275	-0.151983
C74	C	0.281267	0.333608	0.181350
C75	C	0.614600	0.666941	0.514683
C76	C	-0.069027	0.000262	-0.025373
C77	C	0.264307	0.333596	0.307960
C78	C	0.597640	0.666929	0.641293
C79	C	-0.141473	0.000255	-0.026438
C80	C	0.191860	0.333589	0.306896
C81	C	0.525194	0.666922	0.640229
C82	C	-0.169212	0.000265	-0.090276
C83	C	0.164121	0.333598	0.243057
C84	C	0.497454	0.666932	0.576391
N85	N	-0.820191	-0.188408	-0.092478
N86	N	-0.486857	0.144925	0.240855
N87	N	-0.153524	0.478258	0.574188
C88	C	-0.862178	-0.226484	-0.134502
C89	C	-0.528845	0.106849	0.198831
C90	C	-0.195512	0.440183	0.532165
C91	C	-0.862190	-0.302712	-0.134500
C92	C	-0.528856	0.030621	0.198833
C93	C	-0.195523	0.363955	0.532167
C94	C	-0.820200	-0.340861	-0.092483
C95	C	-0.486867	-0.007528	0.240851
C96	C	-0.153534	0.325806	0.574184
C97	C	-0.778210	-0.302776	-0.050451
C98	C	-0.444877	0.030557	0.282883
C99	C	-0.111543	0.363890	0.616216
C100	C	-0.778205	-0.226550	-0.050449
C101	C	-0.444872	0.106783	0.282885
C102	C	-0.111539	0.440117	0.616218
C103	C	-0.757589	-0.461661	-0.090726
C104	C	-0.424255	-0.128328	0.242607
C105	C	-0.090922	0.205006	0.575940
C106	C	-0.757592	-0.537886	-0.090733
C107	C	-0.424259	-0.204553	0.242600
C108	C	-0.090925	0.128781	0.575933
C109	C	-0.820216	-0.575969	-0.092485
C110	C	-0.486883	-0.242635	0.240848
C111	C	-0.153549	0.090698	0.574182
C112	C	-0.882838	-0.537817	-0.094244
C113	C	-0.549504	-0.204484	0.239089
C114	C	-0.216171	0.128850	0.572423
C115	C	-0.882833	-0.461591	-0.094242
C116	C	-0.549500	-0.128257	0.239091
C117	C	-0.216166	0.205076	0.572425
C118	C	-0.820201	-0.423516	-0.092480
C119	C	-0.486868	-0.090183	0.240853
C120	C	-0.153535	0.243151	0.574187
C121	C	-0.862220	-0.696699	-0.134509
C122	C	-0.528886	-0.363366	0.198825
C123	C	-0.195553	-0.030033	0.532158
C124	C	-0.862232	-0.772928	-0.134502
C125	C	-0.528899	-0.439595	0.198832
C126	C	-0.195566	-0.106262	0.532165
C127	C	-0.778246	-0.772991	-0.050456
C128	C	-0.444913	-0.439658	0.282877
C129	C	-0.111580	-0.106325	0.616210
C130	C	-0.778240	-0.696764	-0.050459
C131	C	-0.444907	-0.363430	0.282874
C132	C	-0.111573	-0.030097	0.616207
C133	C	-0.820225	-0.658622	-0.092489
C134	C	-0.486892	-0.325289	0.240844
C135	C	-0.153559	0.008045	0.574178
C136	C	0.052779	0.000286	-0.087016
C137	C	0.386112	0.333619	0.246317
C138	C	0.719446	0.666952	0.579650
C139	C	-0.024324	0.000275	-0.088151
C140	C	0.309010	0.333608	0.245182
C141	C	0.642343	0.666942	0.578516
C142	C	-0.825683	0.000245	0.034523
C143	C	-0.492349	0.333578	0.367857
C144	C	-0.159016	0.666911	0.701190
C145	C	-0.824554	0.000238	0.111627
C146	C	-0.491220	0.333571	0.444960
C147	C	-0.157887	0.666905	0.778294
N148	N	-0.820244	0.188928	-0.092483
N149	N	-0.486910	0.522261	0.240850
N150	N	-0.153577	0.855594	0.574184
C151	C	-0.814746	0.000276	-0.219490
C152	C	-0.481413	0.333609	0.113843
C153	C	-0.148079	0.666943	0.447176
C154	C	-0.815875	0.000288	-0.296594
C155	C	-0.482542	0.333621	0.036739
C156	C	-0.149208	0.666954	0.370073
C157	C	-0.887322	0.000253	0.156324
C158	C	-0.553988	0.333586	0.489657
C159	C	-0.220655	0.666919	0.822990
C160	C	-0.886261	0.000264	0.228771
C161	C	-0.552928	0.333597	0.562104
C162	C	-0.219594	0.666931	0.895437
C163	C	-0.822429	0.000246	0.256518
C164	C	-0.489095	0.333579	0.589851
C165	C	-0.155762	0.666912	0.923184
C166	C	-0.759652	0.000235	0.211811
C167	C	-0.426319	0.333568	0.545144
C168	C	-0.092986	0.666902	0.878478
C169	C	-0.760715	0.000231	0.139366
C170	C	-0.427382	0.333564	0.472699
C171	C	-0.094048	0.666898	0.806032
C172	C	-0.772243	-0.042188	0.364806
C173	C	-0.438909	0.291146	0.698139
C174	C	-0.105576	0.624479	1.031472
C175	C	-0.771183	-0.042188	0.437250
C176	C	-0.437849	0.291145	0.770584
C177	C	-0.104516	0.624479	1.103917
C178	C	-0.819149	0.000261	0.479963
C179	C	-0.485816	0.333594	0.813297
C180	C	-0.152482	0.666928	1.146630
C181	C	-0.868187	0.042701	0.450225
C182	C	-0.534854	0.376035	0.783558
C183	C	-0.201520	0.709368	1.116891
C184	C	-0.869249	0.042697	0.377779
C185	C	-0.535916	0.376031	0.711113
C186	C	-0.202583	0.709364	1.044446
C187	C	-0.821270	0.000250	0.335072
C188	C	-0.487936	0.333584	0.668405
C189	C	-0.154603	0.666917	1.001738
C190	C	-0.880771	0.000289	0.603216
C191	C	-0.547438	0.333622	0.936550
C192	C	-0.214105	0.666956	1.269883
C193	C	-0.879708	0.000305	0.675664
C194	C	-0.546375	0.333638	1.008998
C195	C	-0.213041	0.666971	1.342331
C196	C	-0.753098	0.000268	0.658703
C197	C	-0.419764	0.333602	0.992036
C198	C	-0.086431	0.666935	1.325370
C199	C	-0.754163	0.000260	0.586257
C200	C	-0.420829	0.333593	0.919590
C201	C	-0.087496	0.666927	1.252923
C202	C	-0.818001	0.000267	0.558518
C203	C	-0.484668	0.333600	0.891851
C204	C	-0.151335	0.666934	1.225184
H205	H	-0.624757	0.000176	0.018129
H206	H	-0.291424	0.333509	0.351462
H207	H	0.041910	0.666842	0.684796
H208	H	-0.896407	-0.665643	-0.168731
H209	H	-0.563074	-0.332309	0.164602
H210	H	-0.229740	0.001024	0.497935
F211	F	-0.687356	0.000241	0.538685
F212	F	-0.354022	0.333575	0.872018
F213	F	-0.020689	0.666908	1.205351
F214	F	-0.906852	-0.185895	-0.179245
F215	F	-0.573519	0.147438	0.154088
F216	F	-0.240186	0.480771	0.487422
H217	H	-0.932752	0.000298	0.580630
H218	H	-0.599419	0.333631	0.913964
H219	H	-0.266086	0.666964	1.247297
F220	F	-0.733565	-0.813588	-0.005731
F221	F	-0.400231	-0.480254	0.327602
F222	F	-0.066898	-0.146921	0.660936
H223	H	-0.744046	-0.665762	-0.016242
H224	H	-0.410713	-0.332429	0.317091
H225	H	-0.077380	0.000905	0.650425
H226	H	-0.707680	0.000222	0.234407
H227	H	-0.374346	0.333555	0.567741
H228	H	-0.041013	0.666888	0.901074
F229	F	-0.600925	0.000225	-0.227535
F230	F	-0.267592	0.333558	0.105798
F231	F	0.065741	0.666891	0.439131
H232	H	-0.909176	0.077255	0.353569
H233	H	-0.575843	0.410588	0.686902
H234	H	-0.242510	0.743922	1.020236
H235	H	-0.706601	-0.568943	-0.089305
H236	H	-0.373268	-0.235610	0.244028
H237	H	-0.039935	0.097723	0.577362
H238	H	-0.930823	0.000321	0.712056
H239	H	-0.597490	0.333654	1.045390
H240	H	-0.264157	0.666987	1.378723
F241	F	-0.685162	0.000253	0.688228
F242	F	-0.351829	0.333586	1.021562
F243	F	-0.018495	0.666919	1.354895
F244	F	-0.039500	0.000257	0.042562
F245	F	0.293833	0.333590	0.375895
F246	F	0.627166	0.666923	0.709229
H247	H	-0.147101	0.000272	-0.205027
H248	H	0.186232	0.333606	0.128306
H249	H	0.519566	0.666939	0.461640
H250	H	-0.744012	-0.195549	-0.016227
H251	H	-0.410679	0.137784	0.317106
H252	H	-0.077346	0.471118	0.650440
H253	H	-0.933832	-0.568822	-0.095674
H254	H	-0.600498	-0.235489	0.237660
H255	H	-0.267165	0.097845	0.570993
F256	F	-0.733524	-0.343378	-0.005731
F257	F	-0.400191	-0.010045	0.327602
F258	F	-0.066857	0.323288	0.660936
H259	H	-0.896381	-0.333719	-0.168722
H260	H	-0.563048	-0.000386	0.164611
H261	H	-0.229715	0.332947	0.497944
H262	H	-0.907245	0.077268	0.485001
H263	H	-0.573912	0.410601	0.818334
H264	H	-0.240579	0.743934	1.151667
H265	H	-0.896429	-0.803928	-0.168720
H266	H	-0.563095	-0.470595	0.164613
H267	H	-0.229762	-0.137262	0.497947
F268	F	-0.955265	0.000276	0.126806
F269	F	-0.621931	0.333609	0.460140
F270	F	-0.288598	0.666942	0.793473
H271	H	-0.731250	-0.076741	0.461457
H272	H	-0.397917	0.256592	0.794791
H273	H	-0.064584	0.589925	1.128124
F274	F	-0.690938	-0.421138	-0.088816
F275	F	-0.357604	-0.087805	0.244517
F276	F	-0.024271	0.245529	0.577850
F277	F	-0.381532	-0.087344	-0.193692
F278	F	-0.048199	0.245990	0.139641
F279	F	0.285135	0.579323	0.472975
H280	H	-0.242671	-0.076720	-0.179505
H281	H	0.090663	0.256613	0.153828
H282	H	0.423996	0.589946	0.487162
F283	F	-0.953070	0.000281	0.276349
F284	F	-0.619736	0.333614	0.609683
F285	F	-0.286403	0.666947	0.943016
F286	F	-0.721188	-0.087372	0.319354
F287	F	-0.387854	0.245961	0.652687
F288	F	-0.054521	0.579295	0.986020
F289	F	-0.451382	0.000237	-0.225342
F290	F	-0.118049	0.333570	0.107991
F291	F	0.215284	0.666904	0.441325
H292	H	-0.015674	0.000284	-0.203099
H293	H	0.317659	0.333618	0.130234
H294	H	0.650992	0.666951	0.463568
F295	F	-0.189044	0.000241	0.040370
F296	F	0.144289	0.333574	0.373703
F297	F	0.477622	0.666907	0.707037
H298	H	-0.933822	-0.430531	-0.095672
H299	H	-0.600488	-0.097197	0.237661
H300	H	-0.267155	0.236136	0.570994
H301	H	-0.266331	0.077228	-0.003544
H302	H	0.067002	0.410562	0.329789
H303	H	0.400335	0.743895	0.663122
H304	H	-0.397755	0.077211	-0.005468
H305	H	-0.064422	0.410544	0.327865
H306	H	0.268911	0.743878	0.661198
H307	H	-0.493322	0.000212	0.020048
H308	H	-0.159989	0.333545	0.353382
H309	H	0.173344	0.666879	0.686715
F310	F	-0.693906	0.000216	0.091794
F311	F	-0.360572	0.333549	0.425127
F312	F	-0.027239	0.666882	0.758461
