data_functionalizedCrystal
_audit_creation_method	'MofGen! by Chris Wilmer'
_symmetry_space_group_name_H-M	'P1'
_symmetry_Int_Tables_number	1
_symmetry_cell_setting	triclinic
loop_
_symmetry_equiv_pos_as_xyz
  x,y,z
_cell_length_a	14.560438
_cell_length_b	23.096457
_cell_length_c	14.560438
_cell_angle_alpha	89.997951
_cell_angle_beta	60.005799
_cell_angle_gamma	59.999184
loop_
_atom_site_label
_atom_site_type_symbol
_atom_site_fract_x
_atom_site_fract_y
_atom_site_fract_z
Zr1	Zr	1.005208	0.557790	-0.120411
O2	O	1.196793	0.465346	-0.267026
O3	O	0.813624	0.586126	-0.075485
O4	O	1.005212	0.586130	-0.267061
O5	O	1.005203	0.465342	0.075691
O6	O	1.005214	0.681411	-0.267067
O7	O	1.005205	0.465341	-0.075450
O8	O	0.662498	0.681402	0.075628
O9	O	1.347919	0.465350	-0.267004
O10	O	0.892427	0.669321	-0.056305
O11	O	0.892423	0.598214	0.056493
O12	O	1.117994	0.598220	-0.169063
O13	O	1.117990	0.527113	-0.056264
Zr14	Zr	1.005208	0.709751	0.120632
Zr15	Zr	1.005212	0.709751	-0.120420
Zr16	Zr	1.005204	0.557790	0.120641
Zr17	Zr	1.246236	0.557796	-0.120376
Zr18	Zr	0.764181	0.709745	0.120597
O19	O	1.196793	0.681416	0.075706
O20	O	1.196799	0.681415	-0.267039
O21	O	1.196787	0.465346	0.075719
O22	O	0.813623	0.802195	0.267247
O23	O	0.813629	0.802195	-0.075498
O24	O	0.813618	0.586126	0.267260
O25	O	1.005214	0.802200	-0.075470
O26	O	1.005205	0.681411	0.267283
O27	O	1.005203	0.586131	0.267288
O28	O	1.005212	0.802200	0.075671
O29	O	1.347922	0.586139	-0.267011
O30	O	0.662495	0.681402	0.267232
O31	O	0.662498	0.802191	0.267225
O32	O	0.662501	0.802191	0.075621
O33	O	1.347915	0.465350	-0.075400
O34	O	1.347919	0.586139	-0.075407
O35	O	0.892423	0.669321	0.169284
O36	O	0.892427	0.740428	0.056485
O37	O	1.117994	0.669327	-0.056272
O38	O	1.117990	0.598220	0.056527
C39	C	0.703720	0.633763	0.000066
C40	C	0.601397	0.633760	0.000051
C41	C	0.636524	0.581274	-0.083167
C42	C	0.540335	0.581285	-0.083111
C43	C	0.373893	0.686273	0.083393
C44	C	0.470082	0.686264	0.083331
C45	C	0.732617	0.520658	-0.179294
C46	C	0.636427	0.520670	-0.179238
C47	C	1.005203	0.443690	0.000122
C48	C	1.005202	0.379179	0.000125
C49	C	0.887462	0.385987	0.058973
C50	C	0.887460	0.325372	0.058978
C51	C	1.005205	0.257948	0.000113
C52	C	1.122960	0.251142	-0.058737
C53	C	1.122958	0.311758	-0.058731
N54	N	1.092849	0.135155	-0.095701
N55	N	1.092843	0.077575	-0.095705
C56	C	1.005216	0.075315	0.000093
N57	N	0.917577	0.132817	0.095894
N58	N	0.917580	0.190403	0.095895
C59	C	1.005219	0.192217	0.000101
C60	C	0.887466	0.016400	0.058951
C61	C	0.887469	-0.044218	0.058959
C62	C	1.122973	-0.118447	-0.058766
C63	C	1.122966	-0.057829	-0.058763
C64	C	1.005209	0.009592	0.000093
C65	C	1.306697	0.633778	0.000155
C66	C	1.409020	0.633781	0.000170
C67	C	1.005214	0.633770	-0.301409
C68	C	1.005215	0.633770	-0.403742
C69	C	1.005213	0.823851	0.000100
C70	C	1.005215	0.888362	0.000096
C71	C	1.122956	0.596653	-0.510676
C72	C	1.122950	0.596656	-0.606825
C73	C	0.887451	0.670892	-0.489091
C74	C	0.887459	0.670894	-0.392945
C75	C	1.258920	0.553791	-0.578650
C76	C	1.258914	0.553793	-0.674799
C77	C	1.005203	0.633771	0.301630
C78	C	1.005201	0.633771	0.403963
C79	C	0.703725	0.823843	0.000055
C80	C	0.601404	0.888352	0.000037
C81	C	0.703714	0.633763	0.301586
C82	C	0.601390	0.633761	0.403904
C83	C	0.703719	0.823843	0.301575
C84	C	0.601397	0.888352	0.403889
C85	C	1.306697	0.443698	-0.301354
C86	C	1.409020	0.379189	-0.403668
C87	C	1.306692	0.443698	0.000166
C88	C	1.409013	0.379189	0.000185
C89	C	1.306702	0.633778	-0.301365
C90	C	1.409027	0.633781	-0.403683
C91	C	0.553353	0.881529	-0.058858
C92	C	0.457225	0.942137	-0.058898
C93	C	0.409143	1.009566	-0.000036
C94	C	0.457204	1.016387	0.058860
C95	C	0.553336	0.955781	0.058893
C96	C	0.553347	0.955770	0.393057
C97	C	0.457218	1.016389	0.489183
C98	C	0.409133	1.009589	0.596140
C99	C	0.457192	0.942164	0.606969
C100	C	0.553327	0.881547	0.510845
C101	C	1.457081	0.311771	-0.392836
C102	C	1.553241	0.251152	-0.488962
C103	C	1.601330	0.257953	-0.595919
C104	C	1.553265	0.325377	-0.606748
C105	C	1.457114	0.385994	-0.510624
C106	C	1.457074	0.386012	0.059069
C107	C	1.553228	0.325405	0.059083
C108	C	1.601314	0.257975	0.000218
C109	C	1.553249	0.251154	-0.058674
C110	C	1.457102	0.311760	-0.058694
C111	C	0.553313	0.670878	0.510849
C112	C	0.457174	0.670870	0.606983
C113	C	0.457193	0.596627	0.489215
C114	C	0.553337	0.596631	0.393082
C115	C	0.553297	0.713744	0.578842
C116	C	0.457158	0.713736	0.674977
H117	H	0.441470	0.729009	0.151086
N118	N	1.405223	0.458734	0.122563
H119	H	1.450277	0.453849	0.159858
H120	H	1.421955	0.485499	0.068497
N121	N	0.816040	0.527569	-0.288084
H122	H	0.760263	0.573423	-0.295479
H123	H	0.885445	0.527529	-0.288105
H124	H	1.417932	0.306221	-0.305755
H125	H	0.592500	0.826630	-0.106804
H126	H	1.679622	0.208588	-0.674180
N127	N	1.328052	0.478621	-0.743933
H128	H	1.358901	0.445074	-0.705430
H129	H	1.266378	0.474286	-0.751662
N130	N	1.605068	0.178437	-0.477267
H131	H	1.559997	0.183333	-0.394922
H132	H	1.588347	0.151665	-0.514601
N133	N	0.605181	0.963124	0.277710
H134	H	0.645075	0.989898	0.268709
H135	H	0.673322	0.914476	0.218512
N136	N	0.405387	1.089100	0.477471
H137	H	0.308878	1.115902	0.514726
H138	H	0.422213	1.115857	0.514702
H139	H	1.218843	-0.173343	-0.106696
H140	H	1.592414	0.196245	-0.106600
H141	H	0.418041	1.071297	0.106782
N142	N	0.504996	0.676288	0.742452
H143	H	0.450758	0.710502	0.820585
H144	H	0.497458	0.635074	0.747543
H145	H	0.330865	1.058910	-0.000071
H146	H	1.679602	0.208631	0.000243
N147	N	0.760452	0.710931	-0.477455
H148	H	0.755190	0.676892	-0.514715
H149	H	0.685938	0.734444	-0.395100
N150	N	0.405407	0.934763	-0.122426
H151	H	0.365515	0.907988	-0.091532
H152	H	0.337267	0.983407	-0.113512
N153	N	1.605056	0.332771	0.122605
H154	H	1.559989	0.384685	0.159899
H155	H	1.588331	0.309237	0.181795
H156	H	1.301103	0.582074	-0.725717
N157	N	1.249954	0.304417	-0.122211
H158	H	1.324548	0.252508	-0.159502
H159	H	1.255077	0.327952	-0.181401
N160	N	0.605153	0.963145	0.122422
H161	H	0.560097	1.015059	0.159704
H162	H	0.588407	0.939620	0.181623
N163	N	0.505438	0.786432	0.567266
H164	H	0.476504	0.820398	0.635017
H165	H	0.577941	0.783724	0.496943
N166	N	1.314789	0.481104	-0.567068
H167	H	1.407481	0.447139	-0.634809
H168	H	1.312664	0.483817	-0.496735
H169	H	1.311132	0.577632	-0.578666
H170	H	1.218843	-0.063376	-0.106691
H171	H	0.330854	1.058953	0.674402
N172	N	0.405323	0.934835	0.722333
H173	H	0.337128	0.983470	0.781574
H174	H	0.365490	0.908038	0.731242
H175	H	0.592491	0.566399	0.306006
H176	H	1.417974	0.306195	-0.106641
H177	H	1.592432	0.330905	-0.693844
H178	H	0.418057	0.566397	0.480418
H179	H	1.417983	0.440887	-0.519457
H180	H	0.592436	0.826655	0.519680
N181	N	0.337918	0.788905	0.744108
H182	H	0.354047	0.822455	0.705614
H183	H	0.261653	0.793234	0.751818
H184	H	0.266968	0.729019	0.151197
H185	H	0.636396	0.531259	-0.255696
N186	N	0.811664	0.456807	-0.157039
H187	H	0.779113	0.425961	-0.146244
H188	H	0.905958	0.428770	-0.223088
N189	N	0.650723	0.452112	-0.168205
H190	H	0.581352	0.452092	-0.168161
H191	H	0.739242	0.410897	-0.233591
N192	N	0.760459	0.458704	0.122445
H193	H	0.685870	0.453815	0.159724
H194	H	0.755315	0.485472	0.181644
N195	N	0.760465	0.332706	0.122453
H196	H	0.685868	0.384614	0.159740
H197	H	0.755350	0.309173	0.068379
H198	H	0.643300	0.689906	0.578874
N199	N	0.760465	0.710926	-0.277609
H200	H	0.778334	0.705295	-0.218336
H201	H	0.709052	0.762832	-0.268716
N202	N	1.249952	0.178422	-0.122218
H203	H	1.255207	0.151621	-0.181473
H204	H	1.324472	0.183365	-0.159427
N205	N	0.760461	0.089119	0.122436
H206	H	0.708985	0.094795	0.204794
H207	H	0.778431	0.126443	0.113416
N208	N	0.760472	-0.036876	0.122441
H209	H	0.685880	0.015033	0.159722
H210	H	0.755353	-0.060411	0.068373
