data_functionalizedCrystal
_audit_creation_method	'MofGen! by Chris Wilmer'
_symmetry_space_group_name_H-M	'P1'
_symmetry_Int_Tables_number	1
_symmetry_cell_setting	triclinic
loop_
_symmetry_equiv_pos_as_xyz
  x,y,z
_cell_length_a	13.897449
_cell_length_b	12.594509
_cell_length_c	13.897448
_cell_angle_alpha	89.969579
_cell_angle_beta	90.018519
_cell_angle_gamma	89.977480
loop_
_atom_site_label
_atom_site_type_symbol
_atom_site_fract_x
_atom_site_fract_y
_atom_site_fract_z
Zn1	Zn	1.474694	-0.601878	-0.383965
Zn2	Zn	1.474591	-0.423892	-0.545286
Zn3	Zn	1.313386	-0.423903	-0.384009
Zn4	Zn	1.313365	-0.601819	-0.545222
O5	O	1.394009	-0.512873	-0.464620
O6	O	1.609662	-0.578288	-0.405372
O7	O	1.453172	-0.274948	-0.523937
O8	O	1.334836	-0.447541	-0.249021
O9	O	1.609586	-0.447523	-0.523894
O10	O	1.453348	-0.578298	-0.248989
O11	O	1.334735	-0.274956	-0.405448
O12	O	1.178402	-0.447483	-0.405386
O13	O	1.334800	-0.750772	-0.523785
O14	O	1.178386	-0.578197	-0.523828
O15	O	1.453328	-0.750816	-0.405310
O16	O	1.453152	-0.447466	-0.680259
O17	O	1.334700	-0.578187	-0.680212
C18	C	1.143395	-0.512836	-0.464605
C19	C	1.036181	-0.512845	-0.464622
C20	C	0.949111	-0.512863	-0.464625
C21	C	0.839879	-0.512895	-0.464632
C22	C	1.394074	-0.790494	-0.464536
C23	C	1.394101	-0.908800	-0.464500
C24	C	1.329654	-0.978029	-0.528901
C25	C	1.417669	-1.048821	-0.552468
C26	C	1.306155	-1.048807	-0.440875
C27	C	1.482162	-0.978033	-0.488113
C28	C	1.370589	-0.978013	-0.376478
C29	C	1.458664	-1.048773	-0.400011
C30	C	1.645602	-0.512911	-0.464636
C31	C	1.752816	-0.512927	-0.464642
C32	C	1.393939	-0.512842	-0.715234
C33	C	1.393997	-0.512865	-0.822448
C34	C	1.394000	-0.236332	-0.464635
C35	C	1.394160	-0.118027	-0.464399
C36	C	1.394098	-0.512931	-1.018743
C37	C	1.394039	-0.512897	-0.909511
C38	C	1.394106	-0.512927	-0.213027
C39	C	1.394147	-0.512950	-0.105813
H40	H	1.275196	-0.946968	-0.583449
Br41	Br	1.549643	-1.100226	-0.309164
H42	H	1.556582	-0.947075	-0.508137
H43	H	1.231756	-1.079896	-0.420935
Br44	Br	1.450872	-1.100660	-0.676463
Br45	Br	1.337349	-0.926131	-0.252515
