data_functionalizedCrystal
_audit_creation_method	'MofGen! by Chris Wilmer'
_symmetry_space_group_name_H-M	'P1'
_symmetry_Int_Tables_number	1
_symmetry_cell_setting	triclinic
loop_
_symmetry_equiv_pos_as_xyz
  x,y,z
_cell_length_a	19.077105
_cell_length_b	29.839131
_cell_length_c	19.076919
_cell_angle_alpha	92.267459
_cell_angle_beta	90.076224
_cell_angle_gamma	87.737628
loop_
_atom_site_label
_atom_site_type_symbol
_atom_site_fract_x
_atom_site_fract_y
_atom_site_fract_z
Zn1	Zn	1.058171	-0.217337	-0.440392
Zn2	Zn	1.062777	-0.289569	-0.322877
Zn3	Zn	0.945391	-0.211319	-0.318186
Zn4	Zn	0.940599	-0.289298	-0.435629
O5	O	1.001735	-0.251881	-0.379271
O6	O	1.157112	-0.229551	-0.428760
O7	O	1.051139	-0.276784	-0.223924
O8	O	0.960429	-0.149253	-0.334427
O9	O	1.160497	-0.282620	-0.342422
O10	O	1.043288	-0.153674	-0.424211
O11	O	0.964896	-0.219294	-0.220477
O12	O	0.846425	-0.219031	-0.329809
O13	O	0.952262	-0.282158	-0.534592
O14	O	0.842904	-0.276322	-0.416094
O15	O	1.038641	-0.229288	-0.538091
O16	O	1.046493	-0.352398	-0.337803
O17	O	0.956729	-0.352199	-0.420642
C18	C	0.819169	-0.246995	-0.371926
C19	C	0.741065	-0.244915	-0.368801
C20	C	0.702560	-0.273809	-0.412186
C21	C	0.629174	-0.271849	-0.409252
C22	C	0.594294	-0.240998	-0.362930
C23	C	0.632804	-0.212102	-0.319543
C24	C	0.706189	-0.214059	-0.322481
C25	C	0.375011	-0.231938	-0.349338
C26	C	0.301621	-0.229984	-0.346403
C27	C	0.297996	-0.289731	-0.436113
C28	C	0.371382	-0.291688	-0.439043
C29	C	0.409886	-0.262790	-0.395659
N30	N	0.519281	-0.238996	-0.359929
N31	N	0.484897	-0.264790	-0.398664
C32	C	1.001609	-0.368599	-0.379231
C33	C	1.001619	-0.418534	-0.379240
C34	C	1.048554	-0.728276	-0.336206
C35	C	1.048639	-0.915952	-0.336237
O36	O	1.088445	-0.940297	-0.299616
N37	N	1.001878	-0.939328	-0.379330
C38	C	0.955095	-0.915782	-0.422422
O39	O	0.915329	-0.939972	-0.459082
C40	C	0.955014	-0.728107	-0.422395
C41	C	1.001773	-0.704734	-0.379293
C42	C	1.095310	-0.704902	-0.293109
C43	C	1.095285	-0.657986	-0.293099
C44	C	1.048505	-0.634443	-0.336186
C45	C	1.001749	-0.657817	-0.379283
C46	C	0.908235	-0.704563	-0.465490
C47	C	0.908220	-0.657641	-0.465480
C48	C	0.954979	-0.634267	-0.422379
C49	C	0.954944	-0.587358	-0.422360
N50	N	1.001705	-0.563982	-0.379267
C51	C	1.048485	-0.587525	-0.336180
C52	C	0.955141	-1.014314	-0.422432
C53	C	0.955160	-1.061233	-0.422439
C54	C	1.048705	-1.061399	-0.336254
C55	C	1.048682	-1.014480	-0.336245
C56	C	1.001902	-0.990938	-0.379339
C57	C	1.048430	-0.488997	-0.336161
C58	C	1.048399	-0.442077	-0.336153
C59	C	0.954857	-0.441914	-0.422340
C60	C	0.954885	-0.488831	-0.422346
C61	C	1.001677	-0.512371	-0.379255
O62	O	0.915164	-0.562985	-0.458967
O63	O	1.088256	-0.563328	-0.299537
C64	C	1.048578	-0.775192	-0.336216
C65	C	1.001822	-0.798566	-0.379313
C66	C	0.955041	-0.775024	-0.422401
C67	C	1.001841	-0.845485	-0.379319
C68	C	1.048622	-0.869027	-0.336232
C69	C	1.095383	-0.845651	-0.293139
C70	C	1.095359	-0.798735	-0.293129
C71	C	0.908280	-0.798400	-0.465494
C72	C	0.908308	-0.845316	-0.465500
C73	C	0.955089	-0.868859	-0.422413
C74	C	1.185013	-0.256787	-0.386645
C75	C	1.263116	-0.258877	-0.389788
C76	C	0.994403	-0.256364	-0.562551
C77	C	0.991279	-0.258274	-0.640654
C78	C	1.001879	-0.134708	-0.379327
C79	C	1.001941	-0.084775	-0.379351
C80	C	1.034782	-0.231647	-0.679169
C81	C	1.031838	-0.233440	-0.752555
C82	C	0.985394	-0.261863	-0.787424
C83	C	0.941886	-0.288492	-0.748903
C84	C	0.944827	-0.286696	-0.675518
C85	C	0.971772	-0.270184	-1.006704
C86	C	0.968835	-0.271978	-1.080093
C87	C	1.058787	-0.216925	-1.083741
C88	C	1.061727	-0.215134	-1.010355
C89	C	1.018216	-0.241761	-0.971840
N90	N	0.982385	-0.263698	-0.862436
N91	N	1.021222	-0.239924	-0.896830
C92	C	1.009078	-0.247384	-0.196706
C93	C	1.012338	-0.245351	-0.118609
H94	H	0.406352	-0.208411	-0.314006
H95	H	0.597826	-0.295378	-0.444580
O96	O	0.862886	-0.727244	-0.507467
C97	C	0.875380	-0.717857	-0.578120
H98	H	0.931367	-0.706514	-0.583957
H99	H	0.836955	-0.690079	-0.594933
C100	C	0.796541	-0.774383	-0.617533
C101	C	0.865307	-0.760455	-0.624703
H102	H	0.790325	-0.800658	-0.646269
H103	H	0.788121	-0.780706	-0.569933
H104	H	0.764529	-0.751230	-0.631543
H105	H	0.897318	-0.783605	-0.610685
H106	H	0.873733	-0.754136	-0.672302
O107	O	0.909661	-0.991396	-0.464194
C108	C	0.865886	-0.962112	-0.422322
H109	H	0.892841	-0.954435	-0.370092
H110	H	0.814142	-0.978652	-0.412461
C111	C	0.818449	-0.927580	-0.524610
C112	C	0.851558	-0.918149	-0.460462
H113	H	0.809608	-0.900462	-0.548137
H114	H	0.847939	-0.947310	-0.552820
H115	H	0.775332	-0.941364	-0.516383
H116	H	0.894678	-0.904370	-0.468690
H117	H	0.822075	-0.898415	-0.432254
H118	H	0.399777	-0.316811	-0.476762
O119	O	1.140679	-0.727829	-0.251252
C120	C	1.102577	-0.752836	-0.204213
H121	H	1.048302	-0.759067	-0.226774
H122	H	1.097014	-0.733311	-0.151802
C123	C	1.208448	-0.790457	-0.165444
C124	C	1.141789	-0.798113	-0.193157
H125	H	1.232637	-0.818385	-0.158621
H126	H	1.234120	-0.773608	-0.197133
H127	H	1.203803	-0.774185	-0.121771
H128	H	1.146435	-0.814379	-0.236833
H129	H	1.116119	-0.814965	-0.161475
H130	H	0.273224	-0.204856	-0.308686
H131	H	1.086757	-0.995452	-0.301148
O132	O	0.862803	-0.775481	-0.507249
C133	C	0.819025	-0.746201	-0.465373
H134	H	0.845980	-0.738526	-0.413142
H135	H	0.767283	-0.762743	-0.455513
C136	C	0.771583	-0.711665	-0.567656
C137	C	0.804692	-0.702236	-0.503507
H138	H	0.762739	-0.684546	-0.591179
H139	H	0.801075	-0.731393	-0.595869
H140	H	0.728468	-0.725451	-0.559430
H141	H	0.847810	-0.688455	-0.511734
H142	H	0.775208	-0.682505	-0.475296
H143	H	0.931013	-0.295125	-1.108481
H144	H	0.870225	-0.864343	-0.500597
H145	H	1.067264	-0.211758	-0.783912
H146	H	1.094209	-0.195246	-1.115107
H147	H	1.099548	-0.191990	-0.981970
H148	H	1.072604	-0.208503	-0.650785
O149	O	0.929472	-0.296087	-0.969404
C150	C	0.887835	-0.321547	-1.015919
H151	H	0.914528	-0.325162	-1.069383
H152	H	0.834185	-0.303848	-1.021595
C153	C	0.845980	-0.363941	-0.921173
C154	C	0.878768	-0.368385	-0.986837
H155	H	0.840384	-0.392832	-0.903234
H156	H	0.874030	-0.346787	-0.889835
H157	H	0.801275	-0.349190	-0.925912
H158	H	0.923475	-0.383130	-0.982096
H159	H	0.850726	-0.385542	-1.018175
H160	H	0.909395	-0.308375	-0.644159
H161	H	0.904068	-0.311633	-0.777298
H162	H	0.730954	-0.298932	-0.449904
H163	H	0.604399	-0.186981	-0.281829
O164	O	0.743569	-0.186040	-0.280231
C165	C	0.728403	-0.193589	-0.209451
H166	H	0.708336	-0.228846	-0.204993
H167	H	0.686562	-0.167900	-0.189446
C168	C	0.820113	-0.145605	-0.170657
C169	C	0.795471	-0.188910	-0.165180
H170	H	0.861482	-0.142717	-0.143348
H171	H	0.830329	-0.140517	-0.218343
H172	H	0.785239	-0.124203	-0.153987
H173	H	0.830342	-0.210311	-0.181858
H174	H	0.785262	-0.194001	-0.117496
O175	O	0.260485	-0.317752	-0.478231
C176	C	0.188235	-0.309418	-0.465696
H177	H	0.179158	-0.273899	-0.442380
H178	H	0.168874	-0.334556	-0.427368
C179	C	0.158876	-0.357964	-0.563913
C180	C	0.147727	-0.314337	-0.535281
H181	H	0.133887	-0.361001	-0.606835
H182	H	0.207552	-0.363581	-0.572357
H183	H	0.142742	-0.378908	-0.531966
H184	H	0.163869	-0.293395	-0.567224
H185	H	0.099052	-0.308718	-0.526844
H186	H	1.086534	-0.508158	-0.301074
O187	O	1.093795	-0.419418	-0.294185
C188	C	1.081291	-0.428782	-0.223525
H189	H	1.054354	-0.462108	-0.220969
H190	H	1.046121	-0.400861	-0.198367
C191	C	1.184615	-0.390778	-0.186914
C192	C	1.151535	-0.431712	-0.183775
H193	H	1.227943	-0.392583	-0.162394
H194	H	1.193037	-0.384468	-0.234519
H195	H	1.155299	-0.367515	-0.165951
H196	H	1.180847	-0.454973	-0.204747
H197	H	1.143119	-0.438026	-0.136173
O198	O	1.140684	-0.635331	-0.251137
C199	C	1.128186	-0.644695	-0.180476
H200	H	1.101239	-0.678017	-0.177918
H201	H	1.093026	-0.616770	-0.155314
C202	C	1.231525	-0.606704	-0.143877
C203	C	1.198434	-0.647634	-0.140735
H204	H	1.274856	-0.608515	-0.119361
H205	H	1.239945	-0.600394	-0.191482
H206	H	1.202218	-0.583438	-0.122909
H207	H	1.227737	-0.670898	-0.161710
H208	H	1.190021	-0.653948	-0.093132
O209	O	1.094260	-1.084285	-0.294527
C210	C	1.137996	-1.113567	-0.336444
H211	H	1.140004	-1.100874	-0.391961
H212	H	1.116220	-1.148626	-0.337962
C213	C	1.210007	-1.130926	-0.237000
C214	C	1.212478	-1.115335	-0.305186
H215	H	1.255951	-1.132019	-0.217717
H216	H	1.180540	-1.111200	-0.208759
H217	H	1.191858	-1.160141	-0.238274
H218	H	1.230619	-1.086119	-0.303909
H219	H	1.241950	-1.135057	-0.333426
O220	O	0.909708	-1.083867	-0.464367
C221	C	0.868407	-1.053020	-0.502380
H222	H	0.897077	-1.020386	-0.505984
H223	H	0.816089	-1.046014	-0.474458
C224	C	0.820020	-1.112955	-0.572327
C225	C	0.855237	-1.072874	-0.576759
H226	H	0.811893	-1.125202	-0.618206
H227	H	0.847843	-1.133737	-0.546715
H228	H	0.776426	-1.107110	-0.549056
H229	H	0.898833	-1.078720	-0.600022
H230	H	0.827421	-1.052093	-0.602376
H231	H	0.870127	-0.638476	-0.500576
H232	H	0.916767	-0.422739	-0.457419
O233	O	0.909437	-0.511470	-0.464276
C234	C	0.868128	-0.480627	-0.502288
H235	H	0.896789	-0.447989	-0.505887
H236	H	0.815808	-0.473628	-0.474368
C237	C	0.819763	-0.540564	-0.572244
C238	C	0.854968	-0.500479	-0.576669
H239	H	0.811641	-0.552811	-0.618125
H240	H	0.847591	-0.561345	-0.546633
H241	H	0.776167	-0.534726	-0.548974
H242	H	0.898566	-0.506319	-0.599931
H243	H	0.827146	-0.479700	-0.602286
H244	H	1.133435	-0.779707	-0.258032
H245	H	1.133472	-0.864828	-0.258053
