data_functionalizedCrystal
_audit_creation_method	'MofGen! by Chris Wilmer'
_symmetry_space_group_name_H-M	'P1'
_symmetry_Int_Tables_number	1
_symmetry_cell_setting	triclinic
loop_
_symmetry_equiv_pos_as_xyz
  x,y,z
_cell_length_a	17.077404
_cell_length_b	13.897447
_cell_length_c	17.077404
_cell_angle_alpha	90.008305
_cell_angle_beta	90.002313
_cell_angle_gamma	90.017500
loop_
_atom_site_label
_atom_site_type_symbol
_atom_site_fract_x
_atom_site_fract_y
_atom_site_fract_z
Zn1	Zn	1.199949	-0.384237	0.443832
Zn2	Zn	1.699949	0.115763	0.943832
Zn3	Zn	1.199900	-0.545499	0.312571
Zn4	Zn	1.699900	-0.045499	0.812571
Zn5	Zn	1.068717	-0.384214	0.312582
Zn6	Zn	1.568717	0.115786	0.812582
Zn7	Zn	1.068656	-0.545486	0.443797
Zn8	Zn	1.568656	-0.045486	0.943797
O9	O	1.134305	-0.464859	0.378196
O10	O	1.634305	0.035141	0.878196
O11	O	1.309789	-0.405643	0.426429
O12	O	1.809789	0.094357	0.926429
O13	O	1.182504	-0.524100	0.202726
O14	O	1.682504	-0.024100	0.702726
O15	O	1.086171	-0.249235	0.330012
O16	O	1.586171	0.250765	0.830012
O17	O	1.309753	-0.524122	0.329993
O18	O	1.809753	-0.024122	0.829993
O19	O	1.182586	-0.249252	0.426440
O20	O	1.682586	0.250748	0.926440
O21	O	1.086124	-0.405605	0.202734
O22	O	1.586124	0.094395	0.702734
O23	O	0.958862	-0.405592	0.329978
O24	O	1.458862	0.094408	0.829978
O25	O	1.086067	-0.524099	0.553649
O26	O	1.586067	-0.024099	1.053649
O27	O	0.958817	-0.524077	0.426382
O28	O	1.458817	-0.024077	0.926382
O29	O	1.182527	-0.405630	0.553674
O30	O	1.682527	0.094370	1.053674
O31	O	1.182444	-0.680479	0.329960
O32	O	1.682444	-0.180479	0.829960
O33	O	1.086020	-0.680469	0.426371
O34	O	1.586020	-0.180469	0.926371
C35	C	0.930358	-0.464831	0.378178
C36	C	1.430358	0.035169	0.878178
C37	C	0.843108	-0.464843	0.378189
C38	C	1.343108	0.035157	0.878189
C39	C	0.802137	-0.403261	0.428480
C40	C	1.302137	0.096739	0.928480
C41	C	0.720156	-0.403267	0.428484
C42	C	1.220156	0.096733	0.928484
C43	C	0.679148	-0.464861	0.378200
C44	C	1.179148	0.035139	0.878200
C45	C	0.720125	-0.526446	0.327903
C46	C	1.220125	-0.026446	0.827903
C47	C	0.802104	-0.526434	0.327896
C48	C	1.302104	-0.026434	0.827896
C49	C	0.549255	-0.526468	0.327922
C50	C	1.049255	-0.026468	0.827922
C51	C	0.467270	-0.526481	0.327930
C52	C	0.967270	-0.026481	0.827930
C53	C	0.467307	-0.403301	0.428510
C54	C	0.967307	0.096699	0.928510
C55	C	0.549286	-0.403289	0.428503
C56	C	1.049286	0.096711	0.928503
C57	C	0.590257	-0.464875	0.378207
C58	C	1.090257	0.035125	0.878207
C59	C	1.134242	-0.715473	0.378177
C60	C	1.634242	-0.215473	0.878177
C61	C	1.134286	-0.822687	0.378196
C62	C	1.634286	-0.322687	0.878196
C63	C	1.134324	-0.909757	0.378214
C64	C	1.634324	-0.409757	0.878214
C65	C	1.134379	-1.018989	0.378234
C66	C	1.634379	-0.518989	0.878234
C67	C	1.339050	-0.464887	0.378214
C68	C	1.839050	0.035113	0.878214
C69	C	1.426299	-0.464899	0.378221
C70	C	1.926299	0.035101	0.878221
C71	C	1.134296	-0.464866	0.582940
C72	C	1.634296	0.035134	1.082940
C73	C	1.134291	-0.464869	0.670190
C74	C	1.634291	0.035131	1.170190
C75	C	1.134391	-0.213266	0.378231
C76	C	1.634391	0.286734	0.878231
C77	C	1.134427	-0.106052	0.378246
C78	C	1.634427	0.393948	0.878246
C79	C	1.184525	-0.403184	1.046018
C80	C	1.684525	0.096816	1.546018
C81	C	1.184527	-0.403189	0.964038
C82	C	1.684527	0.096811	1.464038
C83	C	1.134302	-0.464867	0.923038
C84	C	1.634302	0.035133	1.423038
C85	C	1.084079	-0.526552	0.964024
C86	C	1.584079	-0.026552	1.464024
C87	C	1.084082	-0.526551	1.046003
C88	C	1.584082	-0.026551	1.546003
C89	C	1.084074	-0.526547	0.793154
C90	C	1.584074	-0.026547	1.293154
C91	C	1.084070	-0.526546	0.711169
C92	C	1.584070	-0.026546	1.211169
C93	C	1.184519	-0.403185	0.711189
C94	C	1.684519	0.096815	1.211189
C95	C	1.184522	-0.403184	0.793168
C96	C	1.684522	0.096816	1.293168
C97	C	1.134298	-0.464868	0.834147
C98	C	1.634298	0.035132	1.334147
C99	C	1.134307	-0.464871	1.174248
C100	C	1.634307	0.035129	1.674248
C101	C	1.134304	-0.464862	1.086998
C102	C	1.634304	0.035138	1.586998
H103	H	0.686802	-0.353122	0.469437
H104	H	1.186802	0.146878	0.969437
N105	N	0.591105	-0.589393	0.276559
N106	N	1.091105	-0.089393	0.776559
N107	N	0.636840	-0.650908	0.304091
N108	N	1.136840	-0.150908	0.804091
H109	H	0.666397	-0.695352	0.267820
H110	H	1.166397	-0.195352	0.767820
N111	N	1.235813	-0.340180	0.835061
N112	N	1.735813	0.159820	1.335061
N113	N	1.208214	-0.278713	0.880814
N114	N	1.708214	0.221287	1.380814
H115	H	1.244439	-0.234216	0.910402
H116	H	1.744439	0.265784	1.410402
N117	N	0.843959	-0.589325	0.276514
N118	N	1.343959	-0.089325	0.776514
N119	N	0.834794	-0.582779	0.204092
N120	N	1.334794	-0.082779	0.704092
H121	H	0.864354	-0.627193	0.167798
H122	H	1.364354	-0.127193	0.667798
H123	H	1.225419	-0.352953	1.079394
H124	H	1.725419	0.147047	1.579394
H125	H	1.225424	-0.352968	0.930676
H126	H	1.725424	0.147032	1.430676
H127	H	1.043187	-0.576776	1.079367
H128	H	1.543187	-0.076776	1.579367
H129	H	1.043178	-0.576779	0.826517
H130	H	1.543178	-0.076779	1.326517
H131	H	1.225412	-0.352958	0.677819
H132	H	1.725412	0.147042	1.177819
N133	N	1.032760	-0.589550	0.669300
N134	N	1.532760	-0.089550	1.169300
N135	N	0.987924	-0.644622	0.705895
N136	N	1.487924	-0.144622	1.205895
H137	H	0.951684	-0.689119	0.676326
H138	H	1.451684	-0.189119	1.176326
H139	H	1.043189	-0.576775	0.930636
H140	H	1.543189	-0.076775	1.430636
H141	H	0.433884	-0.576637	0.286985
H142	H	0.933884	-0.076637	0.786985
H143	H	0.582673	-0.353139	0.469454
H144	H	1.082673	0.146861	0.969454
H145	H	0.835520	-0.353106	0.469430
H146	H	1.335520	0.146894	0.969430
H147	H	0.433945	-0.353153	0.469462
H148	H	0.933945	0.146847	0.969462
N149	N	0.678239	-0.589349	0.276527
N150	N	1.178239	-0.089349	0.776527
N151	N	0.632493	-0.555318	0.226558
N152	N	1.132493	-0.055318	0.726558
H153	H	0.602911	-0.599746	0.190272
H154	H	1.102911	-0.099746	0.690272
