data_functionalizedCrystal
_audit_creation_method	'MofGen! by Chris Wilmer'
_symmetry_space_group_name_H-M	'P1'
_symmetry_Int_Tables_number	1
_symmetry_cell_setting	triclinic
loop_
_symmetry_equiv_pos_as_xyz
  x,y,z
_cell_length_a	11.026660
_cell_length_b	15.944551
_cell_length_c	9.482900
_cell_angle_alpha	99.319756
_cell_angle_beta	78.618380
_cell_angle_gamma	96.041786
loop_
_atom_site_label
_atom_site_type_symbol
_atom_site_fract_x
_atom_site_fract_y
_atom_site_fract_z
O1	O	1.591215	0.361988	0.120922
O2	O	1.237908	0.321937	0.120920
O3	O	1.424211	0.221145	0.120908
O4	O	1.404911	0.462780	0.120934
O5	O	1.462123	0.200625	-0.120887
O6	O	1.275819	0.301417	-0.120875
O7	O	1.629126	0.341467	-0.120874
Cu8	Cu	1.455934	0.319569	-0.142952
Cu9	Cu	1.411100	0.343836	0.142999
O10	O	1.442823	0.442260	-0.120861
C11	C	1.211652	0.304289	0.000022
C12	C	1.076937	0.282263	0.000022
C13	C	0.863899	0.320324	0.000030
C14	C	1.003134	0.343091	0.000029
C15	C	1.442366	0.179470	0.000010
C16	C	1.439965	0.085861	0.000009
C17	C	1.318743	-0.147318	0.000029
C18	C	1.393725	-0.209944	-0.119191
C19	C	1.435618	-0.085521	0.000020
C20	C	1.356375	-0.189692	0.119200
C21	C	1.431410	-0.251068	0.000037
C22	C	1.510648	-0.146922	-0.119297
C23	C	1.473265	-0.126657	0.119201
C24	C	1.548337	-0.189255	-0.000048
C25	C	1.438039	0.009846	0.000009
C26	C	1.429000	-0.346433	0.000038
C27	C	1.655381	0.359116	0.000028
C28	C	1.790094	0.381143	0.000038
C29	C	1.424667	0.483935	0.000040
C30	C	1.427067	0.577545	0.000050
N31	N	1.379566	0.360899	0.344121
N32	N	1.487478	0.302501	-0.344074
C33	C	1.446640	0.324608	0.416316
C34	C	1.420394	0.338797	0.583735
H35	H	1.221750	-0.128685	-0.000091
H36	H	0.829988	0.450067	0.000036
N37	N	1.055955	0.434395	0.000027
H38	H	1.147932	0.437717	0.000024
H39	H	1.013521	0.470875	0.089667
N40	N	0.811082	0.229022	0.000028
H41	H	0.853431	0.192491	-0.089608
H42	H	0.719105	0.225771	0.000085
H43	H	1.291122	-0.208689	0.219998
H44	H	1.360095	-0.246078	-0.219981
N45	N	1.597036	-0.121906	-0.252952
H46	H	1.598093	-0.058415	-0.252157
H47	H	1.567276	-0.153105	-0.342815
H48	H	1.523499	0.283037	0.354182
H49	H	1.506852	-0.090507	0.219997
N50	N	1.676958	-0.213748	-0.000122
H51	H	1.735058	-0.198274	-0.090209
H52	H	1.674401	-0.277165	0.000788
N53	N	1.318588	0.393876	0.666017
H54	H	1.314271	0.396206	0.773952
H55	H	1.236636	0.368901	0.639485
N56	N	1.589297	0.247433	0.573647
H57	H	1.593618	0.245103	0.465711
H58	H	1.571120	0.187954	0.600148
N59	N	1.024123	0.190956	-0.000000
H60	H	0.932146	0.187631	-0.000000
H61	H	1.038451	0.169690	0.089632
N62	N	1.277765	0.415975	0.426409
H63	H	1.273448	0.418305	0.534344
H64	H	1.195813	0.391000	0.399876
