data_functionalizedCrystal
_audit_creation_method	'MofGen! by Chris Wilmer'
_symmetry_space_group_name_H-M	'P1'
_symmetry_Int_Tables_number	1
_symmetry_cell_setting	triclinic
loop_
_symmetry_equiv_pos_as_xyz
  x,y,z
_cell_length_a	17.639054
_cell_length_b	17.640280
_cell_length_c	21.395355
_cell_angle_alpha	101.215078
_cell_angle_beta	101.252753
_cell_angle_gamma	87.823438
loop_
_atom_site_label
_atom_site_type_symbol
_atom_site_fract_x
_atom_site_fract_y
_atom_site_fract_z
Zn1	Zn	1.222414	-0.067995	0.539688
Zn2	Zn	1.248008	-0.194977	0.418699
Zn3	Zn	1.095388	-0.093636	0.410422
Zn4	Zn	1.121057	-0.220582	0.498955
O5	O	1.171717	-0.144297	0.466941
O6	O	1.332100	-0.063393	0.544149
O7	O	1.227730	-0.181549	0.329915
O8	O	1.090784	0.016035	0.441152
O9	O	1.350903	-0.156686	0.455259
O10	O	1.184110	0.034873	0.536123
O11	O	1.115601	-0.107094	0.323834
O12	O	0.992502	-0.131922	0.401655
O13	O	1.134535	-0.200326	0.592043
O14	O	1.011362	-0.225189	0.466699
O15	O	1.209001	-0.088221	0.621970
O16	O	1.252621	-0.304643	0.415762
O17	O	1.159351	-0.323455	0.474726
C18	C	0.974372	-0.184117	0.428859
C19	C	0.889951	-0.201170	0.412580
C20	C	0.780736	-0.273699	0.343308
C21	C	0.860062	-0.257669	0.358610
C22	C	0.840521	-0.160681	0.451273
C23	C	0.761193	-0.176705	0.435980
C24	C	0.731307	-0.233214	0.381997
C25	C	0.711764	-0.136221	0.474670
C26	C	0.632443	-0.152241	0.459376
C27	C	0.602550	-0.208746	0.405394
C28	C	0.651986	-0.249235	0.366704
C29	C	0.741651	-0.079708	0.528650
C30	C	0.692222	-0.039223	0.567339
C31	C	0.612900	-0.055247	0.552049
C32	C	0.583007	-0.111752	0.498067
C33	C	0.563464	-0.014759	0.590739
C34	C	0.484143	-0.030779	0.575446
C35	C	0.503686	-0.127773	0.482774
C36	C	1.211569	-0.341599	0.441740
C37	C	1.228688	-0.425992	0.430993
C38	C	1.041980	-0.752699	0.548871
C39	C	1.058067	-0.831998	0.538753
C40	C	1.155249	-0.812332	0.477447
C41	C	1.139173	-0.733029	0.487562
C42	C	1.082537	-0.703219	0.523274
C43	C	1.179730	-0.683549	0.461966
C44	C	1.163651	-0.604253	0.472077
C45	C	1.107017	-0.574437	0.507786
C46	C	1.066459	-0.623923	0.533386
C47	C	1.236361	-0.713361	0.426250
C48	C	1.276918	-0.663881	0.400653
C49	C	1.260844	-0.584583	0.410769
C50	C	1.204209	-0.554767	0.446478
C51	C	1.301402	-0.535097	0.385169
C52	C	1.285324	-0.455802	0.395281
C53	C	1.188131	-0.475472	0.456589
C54	C	1.369832	-0.104323	0.505171
C55	C	1.454257	-0.087289	0.521463
C56	C	1.171777	-0.144269	0.630378
C57	C	1.171802	-0.144257	0.700025
C58	C	1.131729	0.053779	0.492258
C59	C	1.114689	0.138187	0.503047
C60	C	1.171690	-0.144262	0.304154
C61	C	1.171768	-0.144030	0.234563
C62	C	1.210574	-0.085883	0.748322
C63	C	1.210567	-0.085850	0.813761
C64	C	1.171798	-0.144204	0.830902
C65	C	1.133017	-0.202584	0.782595
C66	C	1.133019	-0.202611	0.717157
C67	C	1.179612	-0.213791	0.924686
C68	C	1.179615	-0.213765	0.990123
C69	C	1.171786	-0.144123	1.032734
C70	C	1.163970	-0.074502	1.009901
C71	C	1.163972	-0.074529	0.944463
C72	C	1.171790	-0.144182	0.901856
C73	C	1.210552	-0.085709	1.151988
C74	C	1.210539	-0.085676	1.217428
C75	C	1.132994	-0.202416	1.186260
C76	C	1.133002	-0.202443	1.120821
C77	C	1.171785	-0.144089	1.103690
H78	H	1.142018	-0.451199	0.485675
H79	H	1.101442	-0.250146	0.677831
H80	H	1.157605	-0.017841	0.925876
H81	H	0.716566	0.006788	0.611291
N82	N	0.748486	-0.334645	0.285082
H83	H	0.722711	-0.376521	0.299656
H84	H	0.791869	-0.357807	0.262913
N85	N	0.595704	0.046179	0.648968
H86	H	0.653455	0.050182	0.652786
H87	H	0.584274	0.031467	0.689506
H88	H	0.537959	-0.221778	0.392936
N89	N	1.155512	0.000616	1.055849
H90	H	1.150559	0.044713	1.031455
H91	H	1.202527	0.008983	1.091907
N92	N	1.252380	-0.022780	1.133497
H93	H	1.229634	0.029110	1.149521
H94	H	1.246488	-0.031739	1.084712
H95	H	0.900306	-0.290641	0.327100
H96	H	0.443895	0.002191	0.606948
H97	H	1.242110	-0.038136	1.256752
H98	H	1.101418	-0.249923	1.200214
N99	N	0.619744	-0.310193	0.308485
H100	H	0.663093	-0.333416	0.286296
H101	H	0.580556	-0.285883	0.277136
N102	N	1.014317	-0.885365	0.566363
H103	H	1.023282	-0.869168	0.615171
H104	H	1.033115	-0.940104	0.554491
H105	H	0.806240	-0.066663	0.541098
N106	N	1.089669	-0.488912	0.518689
H107	H	1.137882	-0.459249	0.542738
H108	H	1.047615	-0.477606	0.545175
H109	H	1.242154	-0.038366	0.734379
N110	N	1.252395	-0.022888	0.865860
H111	H	1.293820	-0.046645	0.895869
H112	H	1.214375	0.006071	0.891493
H113	H	1.020345	-0.599651	0.562472
H114	H	1.101435	-0.249981	1.081496
N115	N	1.091186	-0.265515	0.801076
H116	H	1.097066	-0.256639	0.849859
H117	H	1.113946	-0.317376	0.785001
H118	H	1.185781	-0.270529	0.889960
N119	N	0.471436	-0.188725	0.424553
H120	H	0.496210	-0.240213	0.429941
H121	H	0.482809	-0.174006	0.384000
N122	N	0.872761	-0.099749	0.509506
H123	H	0.930512	-0.095747	0.513328
H124	H	0.861327	-0.114468	0.550039
H125	H	0.995867	-0.728426	0.577957
N126	N	1.216324	-0.844488	0.438922
H127	H	1.220354	-0.902230	0.436397
H128	H	1.267747	-0.819638	0.460950
H129	H	1.249452	-0.777929	0.418020
H130	H	1.323029	-0.688164	0.371575
H131	H	1.347510	-0.559382	0.356087
H132	H	1.318349	-0.415514	0.374437
N133	N	1.188051	-0.288851	1.014749
H134	H	1.193001	-0.332974	0.977826
H135	H	1.141029	-0.297186	1.032999
