data_functionalizedCrystal
_audit_creation_method	'MofGen! by Chris Wilmer'
_symmetry_space_group_name_H-M	'P1'
_symmetry_Int_Tables_number	1
_symmetry_cell_setting	triclinic
loop_
_symmetry_equiv_pos_as_xyz
  x,y,z
_cell_length_a	31.640172
_cell_length_b	14.560438
_cell_length_c	14.560438
_cell_angle_alpha	60.000905
_cell_angle_beta	89.995728
_cell_angle_gamma	59.993358
loop_
_atom_site_label
_atom_site_type_symbol
_atom_site_fract_x
_atom_site_fract_y
_atom_site_fract_z
Zr1	Zr	0.407177	1.005186	-0.120543
O2	O	0.339686	1.196804	-0.267182
O3	O	0.427866	0.813580	-0.075592
O4	O	0.427864	1.005184	-0.267193
O5	O	0.339690	1.005198	0.075560
O6	O	0.497420	1.005168	-0.267199
O7	O	0.339688	1.005200	-0.075581
O8	O	0.497424	0.662424	0.075539
O9	O	0.339686	1.347942	-0.267179
O10	O	0.488599	0.892374	-0.056423
O11	O	0.436691	0.892384	0.056376
O12	O	0.436689	1.117973	-0.169209
O13	O	0.384781	1.117982	-0.056410
Zr14	Zr	0.518114	1.005157	0.120500
Zr15	Zr	0.518111	1.005161	-0.120552
Zr16	Zr	0.407180	1.005182	0.120509
Zr17	Zr	0.407177	1.246233	-0.120538
Zr18	Zr	0.518113	0.764109	0.120495
O19	O	0.497424	1.196763	0.075549
O20	O	0.497420	1.196769	-0.267196
O21	O	0.339690	1.196798	0.075563
O22	O	0.585604	0.813539	0.267139
O23	O	0.585600	0.813545	-0.075606
O24	O	0.427870	0.813574	0.267153
O25	O	0.585600	1.005145	-0.075603
O26	O	0.497426	1.005159	0.267150
O27	O	0.427870	1.005175	0.267156
O28	O	0.585602	1.005143	0.075538
O29	O	0.427864	1.347922	-0.267187
O30	O	0.497426	0.662421	0.267144
O31	O	0.585604	0.662401	0.267136
O32	O	0.585602	0.662404	0.075532
O33	O	0.339689	1.347939	-0.075575
O34	O	0.427867	1.347919	-0.075582
O35	O	0.488602	0.892370	0.169166
O36	O	0.540509	0.892361	0.056367
O37	O	0.488599	1.117959	-0.056419
O38	O	0.436691	1.117969	0.056380
C39	C	0.462645	0.703658	-0.000027
C40	C	0.462645	0.601327	-0.000029
C41	C	0.489739	0.553246	-0.058909
C42	C	0.489741	0.457086	-0.058899
C43	C	0.435551	0.457101	0.058874
C44	C	0.435552	0.553252	0.058869
C45	C	0.323883	1.005202	-0.000009
C46	C	0.276789	1.005213	-0.000005
C47	C	-0.015217	1.005149	-0.083284
C48	C	-0.192204	1.005133	-0.083292
O49	O	-0.215077	1.005077	-0.154078
N50	N	-0.214334	1.005134	-0.000029
C51	C	-0.192212	1.005131	0.083247
O52	O	-0.215093	1.005118	0.154074
C53	C	-0.015224	1.005138	0.083259
C54	C	0.006900	1.005150	-0.000016
C55	C	0.006907	1.005160	-0.166552
C56	C	0.051150	1.005171	-0.166553
C57	C	0.073267	1.005172	-0.083285
C58	C	0.051143	1.005161	-0.000017
C59	C	0.006899	1.005126	0.166539
C60	C	0.051149	1.005124	0.166536
C61	C	0.073274	1.005136	0.083260
C62	C	0.117502	1.005173	0.083250
N63	N	0.139632	1.005172	-0.000014
C64	C	0.117515	1.005171	-0.083281
C65	C	-0.285134	1.005130	0.083234
C66	C	-0.329381	1.005131	0.083230
C67	C	-0.329369	1.005130	-0.083309
C68	C	-0.285123	1.005139	-0.083309
C69	C	-0.263004	1.005129	-0.000030
C70	C	0.210426	1.005196	-0.083277
C71	C	0.254671	1.005212	-0.083273
C72	C	0.254657	1.005206	0.083269
C73	C	0.210415	1.005196	0.083262
C74	C	0.188301	1.005187	-0.000016
O75	O	0.140407	1.005215	0.154006
O76	O	0.140409	1.005155	-0.154084
C77	C	-0.059460	1.005138	-0.083283
C78	C	-0.081584	1.005128	-0.000015
C79	C	-0.059467	1.005128	0.083252
C80	C	-0.125832	1.005128	-0.000019
C81	C	-0.147949	1.005128	-0.083287
C82	C	-0.125820	1.005126	-0.166550
C83	C	-0.081577	1.005138	-0.166551
C84	C	-0.081597	1.005130	0.166516
C85	C	-0.125839	1.005120	0.166509
C86	C	-0.147957	1.005119	0.083241
C87	C	0.601407	1.005140	-0.000034
C88	C	0.648501	1.005130	-0.000038
C89	C	0.462642	1.005177	-0.301541
C90	C	0.462640	1.005178	-0.403874
C91	C	0.462645	1.306685	-0.000016
C92	C	0.462646	1.409016	-0.000014
C93	C	0.435544	1.122936	-0.510823
C94	C	0.435551	1.122930	-0.606972
C95	C	0.489749	0.887398	-0.489209
C96	C	0.489746	0.887405	-0.393062
C97	C	0.462649	1.005166	0.301498
C98	C	0.462650	1.005165	0.403831
C99	C	0.601407	0.703627	-0.000039
C100	C	0.648501	0.601285	-0.000045
C101	C	0.462648	0.703653	0.301492
C102	C	0.462650	0.601320	0.403823
C103	C	0.601410	0.703622	0.301480
C104	C	0.648506	0.601278	0.403807
C105	C	0.323880	1.306721	-0.301523
C106	C	0.276785	1.409065	-0.403850
C107	C	0.323884	1.306716	-0.000004
C108	C	0.276789	1.409058	0.000002
C109	C	0.462642	1.306690	-0.301535
C110	C	0.462641	1.409023	-0.403866
C111	C	0.643520	0.553231	-0.058934
C112	C	0.687766	0.457084	-0.058962
C113	C	0.736992	0.408985	-0.000094
C114	C	0.741972	0.457049	0.058796
C115	C	0.697727	0.553201	0.058816
C116	C	0.697722	0.553212	0.392981
C117	C	0.741978	0.457063	0.489119
C118	C	0.737016	0.408976	0.596082
C119	C	0.687794	0.457052	0.606906
C120	C	0.643540	0.553205	0.510769
C121	C	0.227568	1.457143	-0.393024
C122	C	0.183313	1.553322	-0.489162
C123	C	0.188275	1.601414	-0.596125
C124	C	0.237496	1.553332	-0.606949
C125	C	0.281751	1.457161	-0.510812
C126	C	0.281770	1.457121	0.058880
C127	C	0.237524	1.553295	0.058882
C128	C	0.188298	1.601397	0.000011
C129	C	0.183318	1.553330	-0.058874
C130	C	0.227564	1.457164	-0.058882
C131	C	0.489746	0.553235	0.510774
C132	C	0.489741	0.457091	0.606921
C133	C	0.435542	0.457123	0.489153
C134	C	0.435545	0.553271	0.393008
H135	H	0.511804	0.417939	-0.106843
H136	H	0.192427	1.005186	-0.151088
H137	H	0.413487	1.218821	-0.694052
H138	H	0.413475	0.417988	0.480361
O139	O	0.518961	0.605099	-0.122426
H140	H	0.560608	0.524379	-0.088399
H141	H	0.782058	0.417873	0.106723
O142	O	0.703104	0.605009	0.122351
H143	H	0.684244	0.586548	0.187432
O144	O	0.406322	0.405267	0.122383
H145	H	0.410867	0.330341	0.112483
H146	H	0.511817	0.791511	-0.480419
H147	H	0.143233	1.592509	-0.106805
O148	O	0.406394	0.604980	0.277641
H149	H	0.387580	0.555343	0.286271
H150	H	0.511815	0.592358	0.519586
H151	H	0.413474	1.218835	-0.519633
O152	O	0.518970	0.760389	-0.277696
H153	H	0.537811	0.678493	-0.286329
H154	H	0.603442	0.592392	-0.106884
O155	O	0.406325	0.605128	0.122373
H156	H	0.387478	0.555562	0.163314
H157	H	0.773055	0.330681	0.674353
H158	H	0.272683	1.005225	-0.151090
O159	O	0.682390	0.405244	-0.122471
H160	H	0.640726	0.454832	-0.163379
O161	O	0.784713	0.305268	-0.000111
H162	H	0.772975	0.279931	-0.050943
O163	O	0.186547	1.005188	0.173074
H164	H	0.209363	1.005184	0.230977
O165	O	0.075014	1.005170	-0.256364
H166	H	0.052198	1.005156	-0.314251
O167	O	0.703080	0.605083	0.277619
H168	H	0.744742	0.555507	0.286261
O169	O	0.795063	0.405204	0.477433
H170	H	0.791074	0.454783	0.386902
H171	H	0.683761	0.417885	0.694008
H172	H	0.511805	0.417946	0.694002
H173	H	0.603467	0.592329	0.519600
O174	O	-0.016949	1.005176	-0.256377
H175	H	0.005874	1.005195	-0.314275
O176	O	0.222210	1.405289	-0.277662
H177	H	0.180548	1.454904	-0.286304
H178	H	0.143239	1.592454	-0.480327
O179	O	-0.261258	1.005139	-0.173119
H180	H	-0.284074	1.005132	-0.231012
H181	H	0.152236	1.679722	-0.674396
H182	H	-0.347385	1.005132	-0.151110
H183	H	0.241531	1.592501	-0.694049
H184	H	0.321824	1.418017	-0.519640
H185	H	0.321848	1.417964	0.106828
H186	H	0.241589	1.592416	0.106838
O187	O	-0.353241	1.005113	0.173050
H188	H	-0.330419	1.005093	0.230956
O189	O	0.140577	1.705083	0.000060
H190	H	0.152316	1.730395	0.050916
H191	H	-0.267127	1.005123	0.151051
O192	O	0.222189	1.405314	-0.122377
H193	H	0.180525	1.454916	-0.163298
H194	H	-0.143852	1.005121	0.234321
H195	H	0.069158	1.005112	0.234355
O196	O	-0.016949	1.005073	0.256378
H197	H	0.005878	1.005044	0.314285
H198	H	0.272671	1.005212	0.151061
H199	H	-0.143837	1.005133	-0.234354
O200	O	-0.057714	1.005141	-0.256365
H201	H	-0.080531	1.005128	-0.314252
H202	H	-0.063591	1.005128	0.234324
