data_functionalizedCrystal
_audit_creation_method	'MofGen! by Chris Wilmer'
_symmetry_space_group_name_H-M	'P1'
_symmetry_Int_Tables_number	1
_symmetry_cell_setting	triclinic
loop_
_symmetry_equiv_pos_as_xyz
  x,y,z
_cell_length_a	10.908878
_cell_length_b	9.482944
_cell_length_c	16.109301
_cell_angle_alpha	79.569783
_cell_angle_beta	108.226864
_cell_angle_gamma	102.164906
loop_
_atom_site_label
_atom_site_type_symbol
_atom_site_fract_x
_atom_site_fract_y
_atom_site_fract_z
O1	O	1.721849	0.120862	0.119347
O2	O	1.347960	0.120874	0.054417
O3	O	1.545173	0.120853	0.209333
O4	O	1.524636	0.120883	-0.035568
O5	O	1.509264	-0.120941	0.227485
O6	O	1.312050	-0.120920	0.072570
O7	O	1.685939	-0.120932	0.137499
Cu8	Cu	1.495716	-0.143004	0.106692
Cu9	Cu	1.538183	0.142946	0.085225
O10	O	1.488726	-0.120911	-0.017416
C11	C	1.282161	-0.000021	0.057425
C12	C	1.139601	-0.000017	0.039355
C13	C	1.090619	-0.000025	0.105291
C14	C	0.943277	-0.000020	0.086615
N15	N	1.465856	-0.344125	0.121793
C16	C	1.529367	-0.416322	0.089678
C17	C	1.504533	-0.583740	0.102251
C18	C	1.751739	-0.000033	0.134491
C19	C	1.894300	-0.000028	0.152561
C20	C	1.526386	-0.000045	0.249269
C21	C	1.523891	-0.000047	0.341220
N22	N	1.568053	0.344067	0.070132
C23	C	1.507513	-0.000010	-0.057352
C24	C	1.510010	0.000002	-0.149304
C25	C	1.635118	-0.000027	0.578849
C26	C	1.632766	-0.000015	0.665244
C27	C	1.398775	-0.000013	0.613058
C28	C	1.401130	-0.000015	0.526665
C29	C	1.519304	-0.000029	0.509564
C30	C	1.514597	-0.000016	0.682352
C31	C	1.512045	-0.000003	0.776024
C32	C	1.521857	-0.000040	0.415885
H33	H	1.602131	-0.354187	0.052879
H34	H	1.727073	-0.000011	0.721654
H35	H	1.306815	-0.000012	0.470247
H36	H	1.731343	-0.000036	0.564930
H37	H	1.302561	-0.000005	0.626993
N38	N	1.408151	-0.666019	0.151007
H39	H	1.437162	-0.639608	0.213014
H40	H	1.404115	-0.773927	0.153013
N41	N	1.664448	-0.573657	0.021385
H42	H	1.668530	-0.465722	0.019313
H43	H	1.635386	-0.600181	-0.040596
H44	H	0.876135	-0.000005	0.016334
N45	N	1.050694	-0.000012	-0.053744
H46	H	1.007745	0.089620	-0.070953
H47	H	0.981204	-0.089706	-0.057422
N48	N	1.179542	-0.000048	0.198385
H49	H	1.176319	0.089580	0.222772
H50	H	1.272148	-0.000106	0.198462
H51	H	0.961442	-0.000026	0.222842
N52	N	1.369483	-0.426417	0.170548
H53	H	1.279979	-0.400024	0.139137
H54	H	1.398608	-0.399970	0.232548
