data_functionalizedCrystal
_audit_creation_method	'MofGen! by Chris Wilmer'
_symmetry_space_group_name_H-M	'P1'
_symmetry_Int_Tables_number	1
_symmetry_cell_setting	triclinic
loop_
_symmetry_equiv_pos_as_xyz
  x,y,z
_cell_length_a	19.077269
_cell_length_b	10.685194
_cell_length_c	19.076919
_cell_angle_alpha	92.275516
_cell_angle_beta	85.330942
_cell_angle_gamma	92.258685
loop_
_atom_site_label
_atom_site_type_symbol
_atom_site_fract_x
_atom_site_fract_y
_atom_site_fract_z
Zn1	Zn	1.037055	-0.600926	0.330568
Zn2	Zn	1.033453	-0.802615	0.204396
Zn3	Zn	0.924574	-0.584760	0.218100
Zn4	Zn	0.910887	-0.802552	0.326982
O5	O	0.976492	-0.697713	0.270012
O6	O	1.134946	-0.634472	0.309597
O7	O	1.023231	-0.766977	0.107844
O8	O	0.946730	-0.411349	0.240255
O9	O	1.132299	-0.782653	0.216899
O10	O	1.029370	-0.423226	0.322885
O11	O	0.943238	-0.606920	0.117912
O12	O	0.824390	-0.606858	0.236778
O13	O	0.923403	-0.782545	0.425828
O14	O	0.814334	-0.766870	0.316773
O15	O	1.016098	-0.634411	0.428463
O16	O	1.009959	-0.978162	0.213422
O17	O	0.919910	-0.978115	0.303485
C18	C	0.793856	-0.685104	0.277873
C19	C	0.715722	-0.679741	0.281252
C20	C	0.963077	-1.023660	0.256592
C21	C	0.957401	-1.163108	0.250871
C22	C	0.677642	-0.754236	0.234515
C23	C	0.604226	-0.749198	0.237699
C24	C	0.568892	-0.669657	0.287617
C25	C	0.606977	-0.595160	0.334359
C26	C	0.680391	-0.600205	0.331178
C27	C	0.349473	-0.646315	0.302317
C28	C	0.276054	-0.641272	0.305493
C29	C	0.273308	-0.795313	0.208834
C30	C	0.346724	-0.800346	0.205654
C31	C	0.384802	-0.725853	0.252398
N32	N	0.493849	-0.664503	0.290872
N33	N	0.459843	-0.731015	0.249147
C34	C	1.159841	-0.710373	0.262119
C35	C	1.237974	-0.715767	0.258756
C36	C	0.968625	-0.710274	0.453365
C37	C	0.965273	-0.715627	0.531499
C38	C	0.989979	-0.370496	0.283498
C39	C	0.995726	-0.231055	0.289246
C40	C	0.984373	-0.685113	0.087373
C41	C	0.987876	-0.679416	0.009248
C42	C	1.011957	-0.641020	0.569580
C43	C	1.008798	-0.646044	0.642996
C44	C	0.958959	-0.725683	0.678330
C45	C	0.912270	-0.800293	0.640244
C46	C	0.915425	-0.795261	0.566830
C47	C	0.944343	-0.748995	0.897748
C48	C	0.941192	-0.754024	0.971168
C49	C	1.037720	-0.599772	0.973914
C50	C	1.040874	-0.594753	0.900498
C51	C	0.994183	-0.669359	0.862419
N52	N	0.955731	-0.730823	0.753373
N53	N	0.997408	-0.664211	0.787378
H54	H	0.706406	-0.819002	0.193864
H55	H	0.920238	-1.211622	0.213642
O56	O	0.232234	-0.875661	0.158425
H57	H	0.249563	-0.851172	0.103557
O58	O	0.721463	-0.519844	0.381585
H59	H	0.751071	-0.580838	0.413538
O60	O	0.568871	-0.509370	0.388203
H61	H	0.587530	-0.411027	0.379684
O62	O	1.044951	-1.166815	0.338562
H63	H	1.041843	-1.063696	0.335463
O64	O	0.237949	-0.555474	0.359340
H65	H	0.208478	-0.487097	0.332014
O66	O	0.893953	-0.829391	0.856685
H67	H	0.858759	-0.885595	0.893592
H68	H	1.052544	-0.576173	0.540816
O69	O	1.059154	-0.565584	0.684071
H70	H	1.094347	-0.509375	0.647167
O71	O	0.563152	-0.829529	0.187283
H72	H	0.600056	-0.885669	0.152029
O73	O	1.094632	-0.508863	0.862387
H74	H	1.126563	-0.457823	0.901202
O75	O	0.384834	-0.886139	0.151815
H76	H	0.422111	-0.829729	0.116970
H77	H	1.075733	-0.539031	1.004926
H78	H	0.900604	-0.818878	0.999934
H79	H	0.871687	-0.865132	0.669019
H80	H	0.877404	-0.856002	0.535826
O81	O	0.390542	-0.565949	0.352719
H82	H	0.353637	-0.509778	0.387954
