data_functionalizedCrystal
_audit_creation_method	'MofGen! by Chris Wilmer'
_symmetry_space_group_name_H-M	'P1'
_symmetry_Int_Tables_number	1
_symmetry_cell_setting	triclinic
loop_
_symmetry_equiv_pos_as_xyz
  x,y,z
_cell_length_a	16.109304
_cell_length_b	27.731994
_cell_length_c	14.586319
_cell_angle_alpha	90.002590
_cell_angle_beta	89.999019
_cell_angle_gamma	83.041586
loop_
_atom_site_label
_atom_site_type_symbol
_atom_site_fract_x
_atom_site_fract_y
_atom_site_fract_z
O1	O	0.098710	0.641357	-0.076105
O2	O	0.113799	0.500623	-0.076134
O3	O	-0.014825	0.574856	-0.076119
O4	O	0.227335	0.567125	-0.076120
O5	O	-0.014827	0.574851	0.076362
O6	O	0.113798	0.500618	0.076347
O7	O	0.098709	0.641352	0.076376
Cu8	Cu	0.106253	0.570985	0.090284
Cu9	Cu	0.106255	0.570991	-0.090042
O10	O	0.227333	0.567120	0.076361
C11	C	0.113489	0.482612	0.000102
C12	C	0.112556	0.428952	0.000091
C13	C	-0.045797	0.574540	0.000119
C14	C	-0.138080	0.573600	0.000113
C15	C	0.106680	0.096206	0.083243
C16	C	0.103134	-0.105467	0.083254
O17	O	0.102639	-0.131544	0.153942
N18	N	0.102695	-0.130681	0.000137
C19	C	0.103136	-0.105473	-0.082989
O20	O	0.102673	-0.131546	-0.153685
C21	C	0.106676	0.096200	-0.082999
C22	C	0.107124	0.121410	0.000124
C23	C	0.107127	0.121417	0.166359
C24	C	0.108018	0.171832	0.166356
C25	C	0.108462	0.197036	0.083237
C26	C	0.108015	0.171825	0.000121
C27	C	0.107112	0.121407	-0.166123
C28	C	0.107995	0.171829	-0.166118
C29	C	0.108443	0.197039	-0.082996
C30	C	0.109350	0.247444	-0.083002
N31	N	0.109790	0.272658	0.000115
C32	C	0.109345	0.247454	0.083234
C33	C	0.101280	-0.211354	-0.082978
C34	C	0.100396	-0.261772	-0.082976
C35	C	0.100392	-0.261762	0.083267
C36	C	0.101282	-0.211344	0.083264
C37	C	0.101719	-0.186140	0.000139
C38	C	0.111217	0.353329	0.083221
C39	C	0.112112	0.403748	0.083210
C40	C	0.112111	0.403734	-0.083033
C41	C	0.111221	0.353319	-0.083022
C42	C	0.110771	0.328118	0.000112
O43	O	0.109836	0.273553	-0.153653
O44	O	0.109791	0.273537	0.153920
C45	C	0.105789	0.045791	0.083247
C46	C	0.105342	0.020580	0.000131
C47	C	0.105786	0.045785	-0.082988
C48	C	0.104459	-0.029838	0.000133
C49	C	0.104015	-0.055042	0.083252
C50	C	0.104454	-0.029828	0.166370
C51	C	0.105345	0.020587	0.166366
C52	C	0.105347	0.020571	-0.166106
C53	C	0.104457	-0.029844	-0.166095
C54	C	0.104013	-0.055048	-0.082976
C55	C	-0.350389	0.571432	-0.083002
C56	C	-0.437098	0.570545	-0.083001
C57	C	-0.437097	0.570542	0.083242
C58	C	-0.350389	0.571426	0.083240
C59	C	-0.307038	0.571873	0.000116
C60	C	-0.480454	0.570102	0.000118
C61	C	-0.574468	0.569140	0.000119
C62	C	-0.213018	0.572835	0.000114
C63	C	0.258305	0.567436	0.000121
C64	C	0.350588	0.568375	0.000121
C65	C	0.099019	0.659364	0.000138
C66	C	0.099952	0.713024	0.000143
N67	N	0.106251	0.570984	0.217116
N68	N	0.106250	0.570996	-0.216874
C69	C	0.049315	0.603865	0.452129
C70	C	0.049313	0.603866	0.548110
C71	C	0.163189	0.538111	0.548106
C72	C	0.163187	0.538108	0.452127
C73	C	0.106250	0.570987	0.404141
C74	C	0.106251	0.570992	0.596101
C75	C	0.106249	0.570993	0.700169
C76	C	0.106251	0.570986	0.300067
H77	H	0.112479	0.424272	0.150901
H78	H	0.100045	-0.282295	-0.150663
H79	H	-0.472404	0.570178	0.150919
H80	H	0.209547	0.511342	0.587186
O81	O	-0.005949	0.635762	0.405372
C82	C	0.006223	0.628693	0.310367
H83	H	0.072561	0.610645	0.297239
H84	H	-0.003540	0.665290	0.273869
H85	H	-0.040507	0.604426	0.283168
O86	O	0.218614	0.506217	0.405547
C87	C	0.300822	0.514053	0.429010
H88	H	0.300757	0.552752	0.455394
H89	H	0.342613	0.508485	0.365886
H90	H	0.325573	0.487260	0.484720
O91	O	0.110823	0.328924	0.164058
C92	C	0.111388	0.361997	0.237408
H93	H	0.138351	0.395927	0.213024
H94	H	0.151514	0.344360	0.295544
H95	H	0.044759	0.372448	0.262969
H96	H	-0.315090	0.571782	0.150929
H97	H	0.106763	0.100901	0.234049
O98	O	0.108406	0.196247	0.247184
C99	C	0.107842	0.163179	0.320537
H100	H	0.080883	0.129247	0.296158
H101	H	0.067714	0.180820	0.378673
H102	H	0.174471	0.152732	0.346097
H103	H	0.002950	0.630638	0.587180
H104	H	0.100033	-0.282292	0.150946
O105	O	0.101671	-0.186928	0.164090
C106	C	0.101114	-0.219993	0.237448
H107	H	0.074157	-0.253927	0.213073
H108	H	0.060986	-0.202352	0.295584
H109	H	0.167744	-0.230438	0.263005
H110	H	0.101635	-0.190838	-0.150673
O111	O	0.106632	0.097004	-0.246952
C112	C	0.107226	0.130070	-0.320303
H113	H	0.081537	0.168015	-0.295916
H114	H	0.066577	0.118588	-0.378432
H115	H	0.174041	0.130345	-0.345875
O116	O	-0.479315	0.570182	-0.163683
C117	C	-0.539428	0.611514	-0.168661
H118	H	-0.555744	0.625328	-0.096491
H119	H	-0.598157	0.601483	-0.203843
H120	H	-0.512993	0.641154	-0.209673
O121	O	0.108276	0.196342	-0.246846
C122	C	0.036770	0.231006	-0.251815
H123	H	-0.013844	0.219655	-0.204642
H124	H	0.012601	0.233415	-0.325330
H125	H	0.053732	0.267977	-0.229495
O126	O	0.110911	0.328868	-0.163822
C127	C	0.183176	0.335681	-0.214375
H128	H	0.207838	0.370458	-0.190744
H129	H	0.167011	0.338637	-0.290417
H130	H	0.233111	0.303460	-0.202846
O131	O	0.112654	0.428269	-0.163711
C132	C	0.185207	0.451934	-0.168696
H133	H	0.209361	0.457652	-0.096529
H134	H	0.169626	0.488625	-0.203862
H135	H	0.235302	0.428662	-0.209727
O136	O	0.105736	0.045002	0.247194
C137	C	0.105173	0.011934	0.320548
H138	H	0.078212	-0.021997	0.296169
H139	H	0.065048	0.029576	0.378685
H140	H	0.171803	0.001486	0.346105
O141	O	0.104135	-0.054286	-0.246906
C142	C	0.176392	-0.047469	-0.297470
H143	H	0.201060	-0.012696	-0.273832
H144	H	0.160215	-0.044505	-0.373508
H145	H	0.226328	-0.079692	-0.285960
O146	O	0.103871	-0.054326	0.247090
C147	C	0.031333	-0.078007	0.252041
H148	H	-0.018740	-0.058972	0.204872
H149	H	0.007137	-0.076738	0.325554
H150	H	0.046944	-0.117458	0.229702
H151	H	0.105706	0.041087	-0.233793
H152	H	-0.315095	0.571796	-0.150687
