data_functionalizedCrystal
_audit_creation_method	'MofGen! by Chris Wilmer'
_symmetry_space_group_name_H-M	'P1'
_symmetry_Int_Tables_number	1
_symmetry_cell_setting	triclinic
loop_
_symmetry_equiv_pos_as_xyz
  x,y,z
_cell_length_a	19.902436
_cell_length_b	14.560438
_cell_length_c	14.560438
_cell_angle_alpha	60.000905
_cell_angle_beta	90.002252
_cell_angle_gamma	59.996626
loop_
_atom_site_label
_atom_site_type_symbol
_atom_site_fract_x
_atom_site_fract_y
_atom_site_fract_z
Zr1	Zr	0.647320	1.005173	-0.120435
O2	O	0.540025	1.196793	-0.267092
O3	O	0.680211	0.813566	-0.075480
O4	O	0.680208	1.005170	-0.267080
O5	O	0.540031	1.005187	0.075649
O6	O	0.790787	1.005152	-0.267068
O7	O	0.540028	1.005189	-0.075492
O8	O	0.790792	0.662407	0.075671
O9	O	0.540025	1.347931	-0.267089
O10	O	0.776763	0.892358	-0.056294
O11	O	0.694241	0.892369	0.056491
O12	O	0.694237	1.117958	-0.169094
O13	O	0.611716	1.117970	-0.056308
Zr14	Zr	0.823685	1.005140	0.120636
Zr15	Zr	0.823680	1.005144	-0.120416
Zr16	Zr	0.647324	1.005168	0.120617
Zr17	Zr	0.647320	1.246220	-0.120431
Zr18	Zr	0.823684	0.764092	0.120632
O19	O	0.790793	1.196747	0.075681
O20	O	0.790787	1.196753	-0.267064
O21	O	0.540031	1.196787	0.075653
O22	O	0.930979	0.813520	0.267293
O23	O	0.930973	0.813525	-0.075452
O24	O	0.680217	0.813560	0.267266
O25	O	0.930973	1.005126	-0.075448
O26	O	0.790797	1.005143	0.267281
O27	O	0.680218	1.005161	0.267269
O28	O	0.930976	1.005124	0.075693
O29	O	0.680208	1.347908	-0.267074
O30	O	0.790796	0.662404	0.267275
O31	O	0.930979	0.662382	0.267291
O32	O	0.930975	0.662385	0.075686
O33	O	0.540029	1.347928	-0.075485
O34	O	0.680212	1.347905	-0.075470
O35	O	0.776767	0.892354	0.169295
O36	O	0.859289	0.892343	0.056510
O37	O	0.776763	1.117943	-0.056290
O38	O	0.694242	1.117955	0.056495
C39	C	0.735502	0.703643	0.000095
C40	C	0.735502	0.601311	0.000093
C41	C	0.778575	0.553229	-0.058780
C42	C	0.778579	0.457070	-0.058770
C43	C	0.692428	0.457087	0.058988
C44	C	0.692430	0.553238	0.058984
C45	C	0.514902	1.005192	0.000076
C46	C	0.440033	1.005204	0.000068
C47	C	0.168031	1.005140	0.000111
C48	C	0.144462	1.147453	-0.070704
C49	C	0.222300	1.147542	-0.071097
C50	C	0.302974	1.005173	0.000090
C51	C	0.300561	0.934499	-0.051799
C52	C	0.222334	0.935408	-0.052323
C53	C	0.223324	0.932483	0.122848
C54	C	0.300245	0.935157	0.122659
C55	C	0.379240	1.005183	0.000078
C56	C	0.091765	1.005125	0.000119
C57	C	0.956102	1.005121	0.000125
C58	C	1.030972	1.005109	0.000133
C59	C	0.735497	1.005161	-0.301419
C60	C	0.735495	1.005163	-0.403752
C61	C	0.735503	1.306670	0.000106
C62	C	0.735503	1.409001	0.000108
C63	C	0.692418	1.122922	-0.510708
C64	C	0.692428	1.122916	-0.606857
C65	C	0.778592	0.887382	-0.489079
C66	C	0.778586	0.887389	-0.392933
C67	C	0.735508	1.005151	0.301620
C68	C	0.735510	1.005150	0.403953
C69	C	0.956102	0.703607	0.000119
C70	C	1.030971	0.601264	0.000126
C71	C	0.735507	0.703637	0.301614
C72	C	0.735509	0.601305	0.403945
C73	C	0.956107	0.703602	0.301639
C74	C	1.030979	0.601257	0.403978
C75	C	0.514897	1.306711	-0.301438
C76	C	0.440026	1.409056	-0.403777
C77	C	0.514903	1.306706	0.000082
C78	C	0.440033	1.409049	0.000075
C79	C	0.735497	1.306675	-0.301413
C80	C	0.735495	1.409008	-0.403744
C81	C	1.023053	0.553210	-0.058764
C82	C	1.093394	0.457062	-0.058780
C83	C	1.171653	0.408961	0.000100
C84	C	1.179569	0.457024	0.058991
C85	C	1.109229	0.553178	0.059001
C86	C	1.109222	0.553189	0.393165
C87	C	1.179578	0.457039	0.489314
C88	C	1.171690	0.408951	0.596276
C89	C	1.093438	0.457029	0.607087
C90	C	1.023084	0.553184	0.510939
C91	C	0.361782	1.457135	-0.392964
C92	C	0.291426	1.553316	-0.489113
C93	C	0.299315	1.601408	-0.596075
C94	C	0.377566	1.553324	-0.606886
C95	C	0.447921	1.457152	-0.510738
C96	C	0.447951	1.457112	0.058955
C97	C	0.377610	1.553288	0.058945
C98	C	0.299352	1.601391	0.000061
C99	C	0.291435	1.553324	-0.058826
C100	C	0.361775	1.457157	-0.058822
C101	C	0.778587	0.553219	0.510903
C102	C	0.778579	0.457075	0.607050
C103	C	0.692415	0.457108	0.489268
C104	C	0.692418	0.553257	0.393123
H105	H	0.657353	0.592385	0.106930
C106	C	1.117944	0.606030	0.123782
H107	H	1.064849	0.670194	0.115355
H108	H	1.147183	0.536990	0.201241
H109	H	1.147174	0.643538	0.094696
C110	C	1.084771	0.404113	0.724748
H111	H	1.137882	0.339951	0.780452
H112	H	1.055544	0.473123	0.733205
H113	H	1.055553	0.366585	0.733182
C114	C	0.377885	0.794862	0.199961
H115	H	0.374571	0.754967	0.273408
H116	H	0.381820	0.747212	0.171052
H117	H	0.425174	0.795863	0.203130
H118	H	0.355343	1.417984	-0.305879
C119	C	0.645039	1.252451	-0.724505
H120	H	0.619371	1.322588	-0.717173
H121	H	0.682219	1.257348	-0.764458
H122	H	0.604275	1.257342	-0.764463
H123	H	0.813674	0.791494	-0.480284
C124	C	0.205360	1.606179	-0.477201
H125	H	0.210745	1.563741	-0.399727
H126	H	0.176121	1.696957	-0.512244
H127	H	0.176124	1.590424	-0.512269
H128	H	0.657335	0.592412	0.306027
H129	H	0.242021	1.679717	-0.674356
C130	C	0.825977	0.606082	0.522801
H131	H	0.819817	0.670223	0.450223
H132	H	0.804705	0.643593	0.562750
H133	H	0.882653	0.537035	0.562759
H134	H	1.243288	0.417903	0.480492
C135	C	0.174280	0.994016	0.181396
H136	H	0.119617	1.064603	0.131528
H137	H	0.173138	0.930827	0.247056
H138	H	0.199821	1.024616	0.201698
C139	C	0.645023	0.404250	0.477366
H140	H	0.619361	0.446671	0.399893
H141	H	0.682201	0.313468	0.512427
H142	H	0.604254	0.420027	0.512420
H143	H	1.228984	0.330655	0.674557
H144	H	0.813648	0.592367	-0.106731
C145	C	1.117916	0.606072	0.275520
H146	H	1.174595	0.563672	0.282867
H147	H	1.092269	0.590315	0.235556
H148	H	1.092261	0.696858	0.235566
H149	H	0.104549	1.203036	-0.160696
H150	H	0.383980	1.592493	-0.693986
H151	H	0.227708	1.592505	-0.106767
H152	H	0.959337	0.592373	-0.106725
H153	H	0.813654	0.417923	-0.106708
C154	C	0.353055	1.404281	-0.123577
H155	H	0.296372	1.446699	-0.158632
H156	H	0.378702	1.420021	-0.179297
H157	H	0.378699	1.313498	-0.072742
C158	C	0.937020	0.606035	0.522847
H159	H	0.942406	0.563608	0.600322
H160	H	0.907771	0.696816	0.487790
H161	H	0.907794	0.590255	0.487795
C162	C	0.825963	0.404181	0.724702
H163	H	0.819783	0.340047	0.780416
H164	H	0.882637	0.366653	0.733151
H165	H	0.804686	0.473218	0.733132
C166	C	0.645043	0.404216	0.123750
H167	H	0.651203	0.340075	0.115312
H168	H	0.666316	0.366703	0.201213
H169	H	0.588367	0.473263	0.094658
H170	H	1.086932	0.417940	-0.106736
H171	H	0.221023	1.203275	-0.036562
H172	H	0.813668	0.791490	-0.305838
C173	C	1.249020	0.303183	0.000092
H174	H	1.233088	0.281450	-0.043406
H175	H	1.280851	0.334677	-0.031426
H176	H	1.280842	0.228146	0.075113
H177	H	0.511667	1.417954	0.106912
H178	H	0.105297	1.203310	-0.036077
H179	H	0.511628	1.418006	-0.519555
H180	H	0.220524	1.203329	-0.161633
H181	H	0.384072	1.592408	0.106902
C182	C	0.221985	1.707169	0.000069
H183	H	0.237916	1.728889	0.043581
H184	H	0.190155	1.782202	-0.074943
H185	H	0.190161	1.675656	0.031602
H186	H	0.241682	0.830995	-0.004079
C187	C	0.172958	1.003269	-0.174330
H188	H	0.200800	1.030028	-0.223110
H189	H	0.167832	0.944616	-0.179878
H190	H	0.119779	1.077054	-0.195283
H191	H	0.357376	0.829819	-0.002701
H192	H	0.302111	0.983584	-0.141257
H193	H	0.243242	0.827648	0.175860
C194	C	0.299752	1.004750	0.175038
H195	H	0.301206	1.076175	0.122441
H196	H	0.251167	1.035235	0.194054
H197	H	0.346598	0.945771	0.240929
H198	H	1.243296	0.417847	0.106929
C199	C	0.645028	1.252464	-0.522603
H200	H	0.651186	1.235607	-0.450024
H201	H	0.666300	1.300845	-0.562549
H202	H	0.588351	1.300853	-0.562563
