data_functionalizedCrystal
_audit_creation_method	'MofGen! by Chris Wilmer'
_symmetry_space_group_name_H-M	'P1'
_symmetry_Int_Tables_number	1
_symmetry_cell_setting	triclinic
loop_
_symmetry_equiv_pos_as_xyz
  x,y,z
_cell_length_a	12.594517
_cell_length_b	12.594515
_cell_length_c	12.594510
_cell_angle_alpha	90.032734
_cell_angle_beta	90.025612
_cell_angle_gamma	90.022986
loop_
_atom_site_label
_atom_site_type_symbol
_atom_site_fract_x
_atom_site_fract_y
_atom_site_fract_z
Zn1	Zn	-1.627176	0.423789	-0.602000
Zn2	Zn	-1.127176	0.923789	-0.102000
Zn3	Zn	-1.627030	0.601819	-0.424026
Zn4	Zn	-1.127030	1.101819	0.075974
Zn5	Zn	-1.449181	0.423839	-0.424014
Zn6	Zn	-0.949181	0.923839	0.075986
Zn7	Zn	-1.449125	0.601711	-0.601942
Zn8	Zn	-0.949125	1.101711	-0.101942
O9	O	-1.538128	0.512789	-0.512995
O10	O	-1.038128	1.012789	-0.012995
O11	O	-1.776103	0.447430	-0.578420
O12	O	-1.276103	0.947430	-0.078420
O13	O	-1.603400	0.578275	-0.275079
O14	O	-1.103400	1.078275	0.224921
O15	O	-1.472876	0.274887	-0.447644
O16	O	-0.972876	0.774887	0.052356
O17	O	-1.775995	0.578227	-0.447663
O18	O	-1.275995	1.078227	0.052337
O19	O	-1.603649	0.274850	-0.578409
O20	O	-1.103649	0.774850	-0.078409
O21	O	-1.472735	0.447514	-0.275070
O22	O	-0.972735	0.947514	0.224930
O23	O	-1.300227	0.447409	-0.447588
O24	O	-0.800227	0.947409	0.052412
O25	O	-1.472782	0.578043	-0.750896
O26	O	-0.972782	1.078043	-0.250896
O27	O	-1.300187	0.578091	-0.578311
O28	O	-0.800187	1.078091	-0.078311
O29	O	-1.603595	0.447325	-0.750938
O30	O	-1.103595	0.947325	-0.250938
O31	O	-1.603346	0.750750	-0.447608
O32	O	-1.103346	1.250750	0.052392
O33	O	-1.472640	0.750671	-0.578322
O34	O	-0.972640	1.250671	-0.078322
C35	C	-1.261587	0.512745	-0.512942
C36	C	-0.761587	1.012745	-0.012942
C37	C	-1.143282	0.512751	-0.512945
C38	C	-0.643282	1.012751	-0.012945
C39	C	-1.074020	0.441570	-0.441975
C40	C	-0.574020	0.941570	0.058025
C41	C	-1.003189	0.538656	-0.415792
C42	C	-0.503189	1.038656	0.084208
C43	C	-1.003314	0.415695	-0.539129
C44	C	-0.503314	0.915695	-0.039129
C45	C	-1.074009	0.609888	-0.486712
C46	C	-0.574009	1.109888	0.013288
C47	C	-1.074140	0.486862	-0.610094
C48	C	-0.574140	0.986862	-0.110094
C49	C	-1.003341	0.584014	-0.583948
C50	C	-0.503341	1.084014	-0.083948
C51	C	-1.538000	0.789330	-0.512983
C52	C	-1.038000	1.289330	-0.012983
C53	C	-1.538043	0.907636	-0.513013
C54	C	-1.038043	1.407636	-0.013013
C55	C	-1.538198	0.512667	-0.790617
C56	C	-1.038198	1.012667	-0.290617
C57	C	-1.538228	0.512614	-0.908922
C58	C	-1.038228	1.012614	-0.408922
C59	C	-0.815749	0.512814	-0.513030
C60	C	-0.315749	1.012814	-0.013030
C61	C	-0.934054	0.512770	-0.512994
C62	C	-0.434054	1.012770	-0.012994
C63	C	-1.466986	1.047648	-0.584074
C64	C	-0.966986	1.547648	-0.084074
C65	C	-1.564033	0.976743	-0.610195
C66	C	-1.064033	1.476743	-0.110195
C67	C	-1.441006	0.976970	-0.486939
C68	C	-0.941006	1.476970	0.013061
C69	C	-1.635279	1.047516	-0.539226
C70	C	-1.135279	1.547516	-0.039226
C71	C	-1.512187	1.047749	-0.415925
C72	C	-1.012187	1.547749	0.084075
C73	C	-1.609301	0.976876	-0.442010
C74	C	-1.109301	1.476876	0.057990
C75	C	-1.538242	1.235169	-0.513033
C76	C	-1.038242	1.735169	-0.013033
C77	C	-1.538180	1.116863	-0.513054
C78	C	-1.038180	1.616863	-0.013054
C79	C	-1.609399	0.441512	-0.978198
C80	C	-1.109399	0.941512	-0.478198
C81	C	-1.512328	0.415450	-1.048981
C82	C	-1.012328	0.915450	-0.548981
C83	C	-1.635356	0.538601	-1.048939
C84	C	-1.135356	1.038601	-0.548939
C85	C	-1.441106	0.486503	-0.978146
C86	C	-0.941106	0.986503	-0.478146
C87	C	-1.564199	0.609699	-0.978098
C88	C	-1.064199	1.109699	-0.478098
C89	C	-1.467061	0.583674	-1.048849
C90	C	-0.967061	1.083674	-0.548849
C91	C	-1.538119	0.512835	-0.236454
C92	C	-1.038119	1.012835	0.263546
C93	C	-1.538296	0.512588	-0.118150
C94	C	-1.038296	1.012588	0.381850
H95	H	-0.972204	0.333619	-0.561219
H96	H	-0.472204	0.833619	-0.061219
H97	H	-1.490224	1.078960	-0.333826
H98	H	-0.990224	1.578960	0.166174
H99	H	-1.358885	0.945975	-0.464869
H100	H	-0.858885	1.445975	0.035131
Br101	Br	-1.304202	0.449709	-0.926544
Br102	Br	-0.804202	0.949709	-0.426544
H103	H	-1.669480	0.381347	-0.947173
H104	H	-1.169480	0.881347	-0.447173
H105	H	-1.585967	0.945556	-0.692318
H106	H	-1.085967	1.445556	-0.192318
H107	H	-1.490385	0.333337	-1.080117
H108	H	-0.990385	0.833337	-0.580117
Br109	Br	-0.951246	0.575183	-0.278896
Br110	Br	-0.451246	1.075183	0.221104
H111	H	-1.717424	1.078377	-0.561392
H112	H	-1.217424	1.578377	-0.061392
H113	H	-1.406834	0.643792	-1.079675
H114	H	-0.906834	1.143792	-0.579675
Br115	Br	-1.600821	0.746524	-0.926162
Br116	Br	-1.100821	1.246524	-0.426162
H117	H	-1.406911	1.078720	-0.644196
H118	H	-0.906911	1.578720	-0.144196
H119	H	-1.717467	0.560590	-1.080038
H120	H	-1.217467	1.060590	-0.580038
H121	H	-1.105054	0.381442	-0.381891
H122	H	-0.605054	0.881442	0.118109
Br123	Br	-1.125543	0.746746	-0.449675
Br124	Br	-0.625543	1.246746	0.050325
Br125	Br	-1.709661	0.925404	-0.341876
Br126	Br	-1.209661	1.425404	0.158124
H127	H	-0.972502	0.644287	-0.643986
H128	H	-0.472502	1.144287	-0.143986
H129	H	-1.105329	0.464919	-0.692205
H130	H	-0.605329	0.964919	-0.192205
