data_functionalizedCrystal
_audit_creation_method	'MofGen! by Chris Wilmer'
_symmetry_space_group_name_H-M	'P1'
_symmetry_Int_Tables_number	1
_symmetry_cell_setting	triclinic
loop_
_symmetry_equiv_pos_as_xyz
  x,y,z
_cell_length_a	16.109302
_cell_length_b	16.109304
_cell_length_c	15.186229
_cell_angle_alpha	89.999066
_cell_angle_beta	90.005299
_cell_angle_gamma	96.537791
loop_
_atom_site_label
_atom_site_type_symbol
_atom_site_fract_x
_atom_site_fract_y
_atom_site_fract_z
O1	O	-1.103131	0.106869	-0.073263
O2	O	-0.853131	0.356869	0.176737
O3	O	-0.603131	0.606869	0.426737
O4	O	-0.353131	0.856869	0.676737
O5	O	-0.861070	0.120167	-0.073255
O6	O	-0.611070	0.370167	0.176745
O7	O	-0.361070	0.620167	0.426745
O8	O	-0.111070	0.870167	0.676745
O9	O	-0.988749	-0.007513	-0.073259
O10	O	-0.738749	0.242487	0.176741
O11	O	-0.488749	0.492487	0.426741
O12	O	-0.238749	0.742487	0.676741
O13	O	-0.975452	0.234549	-0.073258
O14	O	-0.725452	0.484549	0.176742
O15	O	-0.475452	0.734549	0.426742
O16	O	-0.225452	0.984549	0.676742
O17	O	-0.988740	-0.007514	0.073198
O18	O	-0.738740	0.242486	0.323198
O19	O	-0.488740	0.492486	0.573198
O20	O	-0.238740	0.742486	0.823198
O21	O	-0.861061	0.120166	0.073202
O22	O	-0.611061	0.370166	0.323202
O23	O	-0.361061	0.620166	0.573202
O24	O	-0.111061	0.870166	0.823202
O25	O	-1.103123	0.106867	0.073195
O26	O	-0.853123	0.356867	0.323195
O27	O	-0.603123	0.606867	0.573195
O28	O	-0.353123	0.856867	0.823195
Zn29	Zn	-0.982091	0.113516	0.096452
Zn30	Zn	-0.732091	0.363516	0.346452
Zn31	Zn	-0.482091	0.613516	0.596452
Zn32	Zn	-0.232091	0.863516	0.846452
Zn33	Zn	-0.982102	0.113518	-0.096512
Zn34	Zn	-0.732102	0.363518	0.153488
Zn35	Zn	-0.482102	0.613518	0.403488
Zn36	Zn	-0.232102	0.863518	0.653488
O37	O	-0.975444	0.234547	0.073199
O38	O	-0.725444	0.484547	0.323199
O39	O	-0.475444	0.734547	0.573199
O40	O	-0.225444	0.984547	0.823199
C41	C	-0.830090	0.119628	-0.000025
C42	C	-0.580090	0.369628	0.249975
C43	C	-0.330090	0.619628	0.499975
C44	C	-0.080090	0.869628	0.749975
C45	C	-0.737795	0.118012	-0.000023
C46	C	-0.487795	0.368012	0.249977
C47	C	-0.237795	0.618012	0.499977
C48	C	0.012205	0.868012	0.749977
C49	C	-0.988206	-0.038488	-0.000033
C50	C	-0.738206	0.211512	0.249967
C51	C	-0.488206	0.461512	0.499967
C52	C	-0.238206	0.711512	0.749967
C53	C	-0.986590	-0.130784	-0.000039
C54	C	-0.736590	0.119216	0.249961
C55	C	-0.486590	0.369216	0.499961
C56	C	-0.236590	0.619216	0.749961
C57	C	-0.982861	-0.343120	-0.079869
C58	C	-0.732861	-0.093120	0.170131
C59	C	-0.482861	0.156880	0.420131
C60	C	-0.232861	0.406880	0.670131
C61	C	-0.981334	-0.429840	-0.079868
C62	C	-0.731334	-0.179840	0.170132
C63	C	-0.481334	0.070160	0.420132
C64	C	-0.231334	0.320160	0.670132
C65	C	-0.981329	-0.429839	0.079807
C66	C	-0.731329	-0.179839	0.329807
C67	C	-0.481329	0.070161	0.579807
C68	C	-0.231329	0.320161	0.829807
C69	C	-0.982849	-0.343120	0.079806
C70	C	-0.732849	-0.093120	0.329806
C71	C	-0.482849	0.156880	0.579806
C72	C	-0.232849	0.406880	0.829806
C73	C	-0.983619	-0.299763	-0.000035
C74	C	-0.733619	-0.049763	0.249965
C75	C	-0.483619	0.200237	0.499965
C76	C	-0.233619	0.450237	0.749965
C77	C	-0.980573	-0.473202	-0.000033
C78	C	-0.730573	-0.223202	0.249967
C79	C	-0.480573	0.026798	0.499967
C80	C	-0.230573	0.276798	0.749967
C81	C	-0.978918	-0.567228	-0.000031
C82	C	-0.728918	-0.317228	0.249969
C83	C	-0.478918	-0.067228	0.499969
C84	C	-0.228918	0.182772	0.749969
C85	C	-0.985272	-0.205731	-0.000037
C86	C	-0.735272	0.044269	0.249963
C87	C	-0.485272	0.294269	0.499963
C88	C	-0.235272	0.544269	0.749963
C89	C	-1.134102	0.107407	-0.000037
C90	C	-0.884102	0.357407	0.249963
C91	C	-0.634102	0.607407	0.499963
C92	C	-0.384102	0.857407	0.749963
C93	C	-1.226397	0.109022	-0.000045
C94	C	-0.976397	0.359022	0.249955
C95	C	-0.726397	0.609022	0.499955
C96	C	-0.476397	0.859022	0.749955
C97	C	-0.525450	0.114276	0.079802
C98	C	-0.275450	0.364276	0.329802
C99	C	-0.025450	0.614276	0.579802
C100	C	0.224550	0.864276	0.829802
C101	C	-0.438729	0.112750	0.079799
C102	C	-0.188729	0.362750	0.329799
C103	C	0.061271	0.612750	0.579799
C104	C	0.311271	0.862750	0.829799
C105	C	-0.438749	0.112756	-0.079876
C106	C	-0.188749	0.362756	0.170124
C107	C	0.061251	0.612756	0.420124
C108	C	0.311251	0.862756	0.670124
C109	C	-0.525468	0.114277	-0.079872
C110	C	-0.275468	0.364277	0.170128
C111	C	-0.025468	0.614277	0.420128
C112	C	0.224532	0.864277	0.670128
C113	C	-0.568816	0.115041	-0.000030
C114	C	-0.318816	0.365041	0.249970
C115	C	-0.068816	0.615041	0.499970
C116	C	0.181184	0.865041	0.749970
C117	C	-0.395377	0.111994	-0.000038
C118	C	-0.145377	0.361994	0.249962
C119	C	0.104623	0.611994	0.499962
C120	C	0.354623	0.861994	0.749962
C121	C	-0.301351	0.110338	-0.000041
C122	C	-0.051351	0.360338	0.249959
C123	C	0.198649	0.610338	0.499959
C124	C	0.448649	0.860338	0.749959
C125	C	-0.662848	0.116695	-0.000026
C126	C	-0.412848	0.366695	0.249974
C127	C	-0.162848	0.616695	0.499974
C128	C	0.087152	0.866695	0.749974
C129	C	-0.975987	0.265523	-0.000029
C130	C	-0.725987	0.515523	0.249971
C131	C	-0.475987	0.765523	0.499971
C132	C	-0.225987	1.015523	0.749971
C133	C	-0.977603	0.357818	-0.000029
C134	C	-0.727603	0.607818	0.249971
C135	C	-0.477603	0.857818	0.499971
C136	C	-0.227603	1.107818	0.749971
N137	N	-0.982089	0.113514	0.228144
N138	N	-0.732089	0.363514	0.478144
N139	N	-0.482089	0.613514	0.728144
N140	N	-0.232089	0.863514	0.978144
N141	N	-0.982110	0.113514	-0.228205
N142	N	-0.732110	0.363514	0.021795
N143	N	-0.482110	0.613514	0.271795
N144	N	-0.232110	0.863514	0.521795
C145	C	-1.038645	0.056996	0.453865
C146	C	-0.788645	0.306996	0.703865
C147	C	-0.538645	0.556996	0.953865
C148	C	-0.288645	0.806996	1.203865
C149	C	-1.038647	0.056994	0.546055
C150	C	-0.788647	0.306994	0.796055
C151	C	-0.538647	0.556994	1.046055
C152	C	-0.288647	0.806994	1.296055
C153	C	-0.925548	0.170034	0.546068
C154	C	-0.675548	0.420034	0.796068
C155	C	-0.425548	0.670034	1.046068
C156	C	-0.175548	0.920034	1.296068
C157	C	-0.925542	0.170032	0.453880
C158	C	-0.675542	0.420032	0.703880
C159	C	-0.425542	0.670032	0.953880
C160	C	-0.175542	0.920032	1.203880
C161	C	-0.982095	0.113514	0.407781
C162	C	-0.732095	0.363514	0.657781
C163	C	-0.482095	0.613514	0.907781
C164	C	-0.232095	0.863514	1.157781
C165	C	-0.982104	0.113514	0.592159
C166	C	-0.732104	0.363514	0.842159
C167	C	-0.482104	0.613514	1.092159
C168	C	-0.232104	0.863514	1.342159
C169	C	-0.982106	0.113513	0.692115
C170	C	-0.732106	0.363513	0.942115
C171	C	-0.482106	0.613513	1.192115
C172	C	-0.232106	0.863513	1.442115
C173	C	-0.982092	0.113514	0.307819
C174	C	-0.732092	0.363514	0.557819
C175	C	-0.482092	0.613514	0.807819
C176	C	-0.232092	0.863514	1.057819
H177	H	-0.983485	-0.307821	-0.144881
H178	H	-0.733485	-0.057821	0.105119
H179	H	-0.483485	0.192179	0.355119
H180	H	-0.233485	0.442179	0.605119
H181	H	-1.084692	0.010975	0.416334
H182	H	-0.834692	0.260975	0.666334
H183	H	-0.584692	0.510975	0.916334
H184	H	-0.334692	0.760975	1.166334
H185	H	-1.084694	0.010972	0.583574
H186	H	-0.834694	0.260972	0.833574
H187	H	-0.584694	0.510972	1.083574
H188	H	-0.334694	0.760972	1.333574
H189	H	-0.560779	0.114897	-0.144886
H190	H	-0.310779	0.364897	0.105114
H191	H	-0.060779	0.614897	0.355114
H192	H	0.189221	0.864897	0.605114
C193	C	-0.980486	-0.477540	0.167628
C194	C	-0.730486	-0.227540	0.417628
C195	C	-0.480486	0.022460	0.667628
C196	C	-0.230486	0.272460	0.917628
N197	N	-0.979852	-0.513468	0.233776
N198	N	-0.729852	-0.263468	0.483776
N199	N	-0.479852	-0.013468	0.733776
N200	N	-0.229852	0.236532	0.983776
H201	H	-0.983463	-0.307817	0.144820
H202	H	-0.733463	-0.057817	0.394820
H203	H	-0.483463	0.192183	0.644820
H204	H	-0.233463	0.442183	0.894820
H205	H	-0.403445	0.112134	-0.144881
H206	H	-0.153445	0.362134	0.105119
H207	H	0.096555	0.612134	0.355119
H208	H	0.346555	0.862134	0.605119
C209	C	-0.863368	0.232246	0.403184
C210	C	-0.613368	0.482246	0.653184
C211	C	-0.363368	0.732246	0.903184
C212	C	-0.113368	0.982246	1.153184
N213	N	-0.816553	0.279117	0.365000
N214	N	-0.566553	0.529117	0.615000
N215	N	-0.316553	0.779117	0.865000
N216	N	-0.066553	1.029117	1.115000
H217	H	-0.879505	0.216051	0.583611
H218	H	-0.629505	0.466051	0.833611
H219	H	-0.379505	0.716051	1.083611
H220	H	-0.129505	0.966051	1.333611
C221	C	-0.573130	0.115107	0.167631
C222	C	-0.323130	0.365107	0.417631
C223	C	-0.073130	0.615107	0.667631
C224	C	0.176870	0.865107	0.917631
N225	N	-0.609041	0.115729	0.233786
N226	N	-0.359041	0.365729	0.483786
N227	N	-0.109041	0.615729	0.733786
N228	N	0.140959	0.865729	0.983786
C229	C	-0.980532	-0.477533	-0.167692
C230	C	-0.730532	-0.227533	0.082308
C231	C	-0.480532	0.022467	0.332308
C232	C	-0.230532	0.272467	0.582308
N233	N	-0.979939	-0.513456	-0.233845
N234	N	-0.729939	-0.263456	0.016155
N235	N	-0.479939	-0.013456	0.266155
N236	N	-0.229939	0.236544	0.516155
H237	H	-0.403424	0.112127	0.144807
H238	H	-0.153424	0.362127	0.394807
H239	H	0.096576	0.612127	0.644807
H240	H	0.346576	0.862127	0.894807
