data_functionalizedCrystal
_audit_creation_method	'MofGen! by Chris Wilmer'
_symmetry_space_group_name_H-M	'P1'
_symmetry_Int_Tables_number	1
_symmetry_cell_setting	triclinic
loop_
_symmetry_equiv_pos_as_xyz
  x,y,z
_cell_length_a	21.395362
_cell_length_b	19.120786
_cell_length_c	21.395355
_cell_angle_alpha	87.540705
_cell_angle_beta	89.956060
_cell_angle_gamma	92.480156
loop_
_atom_site_label
_atom_site_type_symbol
_atom_site_fract_x
_atom_site_fract_y
_atom_site_fract_z
Zn1	Zn	0.947248	-0.279415	-0.343943
Zn2	Zn	1.447248	0.220585	0.156057
Zn3	Zn	0.942691	-0.396855	-0.234692
Zn4	Zn	1.442691	0.103145	0.265308
Zn5	Zn	0.842462	-0.279448	-0.239143
Zn6	Zn	1.342462	0.220552	0.260857
Zn7	Zn	0.837972	-0.396870	-0.339397
Zn8	Zn	1.337972	0.103130	0.160603
O9	O	0.892593	-0.338147	-0.289294
O10	O	1.392593	0.161853	0.210706
O11	O	1.034322	-0.294974	-0.329491
O12	O	1.534322	0.205026	0.170509
O13	O	0.929367	-0.381289	-0.147605
O14	O	1.429367	0.118711	0.352395
O15	O	0.860149	-0.181153	-0.256810
O16	O	1.360149	0.318847	0.243190
O17	O	1.030974	-0.381257	-0.249225
O18	O	1.530974	0.118743	0.250775
O19	O	0.937135	-0.181129	-0.333806
O20	O	1.437135	0.318871	0.166194
O21	O	0.855729	-0.295030	-0.150874
O22	O	1.355729	0.204970	0.349126
O23	O	0.754188	-0.295044	-0.252402
O24	O	1.254188	0.204956	0.247598
O25	O	0.852496	-0.381281	-0.427678
O26	O	1.352496	0.118719	0.072322
O27	O	0.750889	-0.381313	-0.326058
O28	O	1.250889	0.118687	0.173942
O29	O	0.932781	-0.294988	-0.431018
O30	O	1.432781	0.205012	0.068982
O31	O	0.925013	-0.495148	-0.244816
O32	O	1.425013	0.004852	0.255184
O33	O	0.848076	-0.495159	-0.321742
O34	O	1.348076	0.004841	0.178258
C35	C	0.729804	-0.338184	-0.289220
C36	C	1.229804	0.161816	0.210780
C37	C	0.660162	-0.338217	-0.289202
C38	C	1.160162	0.161783	0.210798
C39	C	0.885580	-0.520639	-0.282317
C40	C	1.385580	-0.020639	0.217683
C41	C	0.882637	-0.598710	-0.279353
C42	C	1.382637	-0.098710	0.220647
C43	C	0.625745	-0.383197	-0.327493
C44	C	1.125745	0.116803	0.172507
C45	C	0.560310	-0.383180	-0.327521
C46	C	1.060310	0.116820	0.172479
C47	C	0.529294	-0.338190	-0.289248
C48	C	1.029294	0.161810	0.210752
C49	C	0.563719	-0.293201	-0.250955
C50	C	1.063719	0.206799	0.249045
C51	C	0.629153	-0.293215	-0.250932
C52	C	1.129153	0.206785	0.249068
C53	C	0.425784	-0.332531	-0.233058
C54	C	0.925784	0.167469	0.266942
C55	C	0.360352	-0.332523	-0.233080
C56	C	0.860352	0.167477	0.266920
C57	C	0.327475	-0.338144	-0.289319
C58	C	0.827475	0.161856	0.210681
C59	C	0.360039	-0.343789	-0.345537
C60	C	0.860039	0.156211	0.154463
C61	C	0.425473	-0.343802	-0.345515
C62	C	0.925473	0.156198	0.154485
C63	C	0.458343	-0.338170	-0.289269
C64	C	0.958343	0.161830	0.210731
C65	C	0.222107	-0.383108	-0.327643
C66	C	0.722107	0.116892	0.172357
C67	C	0.156671	-0.383086	-0.327673
C68	C	0.656671	0.116914	0.172327
C69	C	0.160081	-0.293111	-0.251101
C70	C	0.660081	0.206889	0.248899
C71	C	0.225516	-0.293129	-0.251077
C72	C	0.725516	0.206871	0.248923
C73	C	0.256525	-0.338131	-0.289347
C74	C	0.756525	0.161869	0.210653
C75	C	0.921307	-0.635315	-0.318080
C76	C	1.421307	-0.135315	0.181920
C77	C	0.918539	-0.708671	-0.315297
C78	C	1.418539	-0.208671	0.184703
C79	C	0.877104	-0.745420	-0.273781
C80	C	1.377104	-0.245420	0.226219
C81	C	0.838430	-0.708810	-0.235052
C82	C	1.338430	-0.208810	0.264948
C83	C	0.841195	-0.635456	-0.237839
C84	C	1.341195	-0.135456	0.262161
C85	C	0.866749	-0.966907	-0.263361
C86	C	1.366749	-0.466907	0.236639
C87	C	0.863988	-1.040267	-0.260575
C88	C	1.363988	-0.540267	0.239425
C89	C	0.944097	-1.040122	-0.340821
C90	C	1.444097	-0.540122	0.159179
C91	C	0.946861	-0.966766	-0.343602
C92	C	1.446861	-0.466766	0.156398
C93	C	0.908185	-0.930162	-0.304875
C94	C	1.408185	-0.430162	0.195125
C95	C	0.874276	-0.820402	-0.270933
C96	C	1.374276	-0.320402	0.229067
C97	C	0.911011	-0.855182	-0.307726
C98	C	1.411011	-0.355182	0.192274
C99	C	1.056018	-0.338110	-0.289369
C100	C	1.556018	0.161890	0.210631
C101	C	1.125660	-0.338094	-0.289400
C102	C	1.625660	0.161906	0.210600
C103	C	0.892646	-0.338133	-0.452718
C104	C	1.392646	0.161867	0.047282
C105	C	0.892668	-0.338127	-0.522359
C106	C	1.392668	0.161873	-0.022359
C107	C	0.899651	-0.154942	-0.296312
C108	C	1.399651	0.345058	0.203688
C109	C	0.902658	-0.076871	-0.299303
C110	C	1.402658	0.423129	0.200697
C111	C	0.934471	-0.293192	-0.556813
C112	C	1.434471	0.206808	-0.056813
C113	C	0.934471	-0.293162	-0.622249
C114	C	1.434471	0.206838	-0.122249
C115	C	0.892675	-0.338079	-0.653229
C116	C	1.392675	0.161921	-0.153229
C117	C	0.850864	-0.383017	-0.618768
C118	C	1.350864	0.116983	-0.118768
C119	C	0.850861	-0.383041	-0.553333
C120	C	1.350861	0.116959	-0.053333
C121	C	0.885297	-0.401324	-0.754484
C122	C	1.385297	0.098676	-0.254484
C123	C	0.885305	-0.401302	-0.819918
C124	C	1.385305	0.098698	-0.319918
C125	C	0.892681	-0.338005	-0.855053
C126	C	1.392681	0.161995	-0.355053
C127	C	0.900064	-0.274728	-0.824746
C128	C	1.400064	0.225272	-0.324746
C129	C	0.900060	-0.274752	-0.759311
C130	C	1.400060	0.225248	-0.259311
C131	C	0.892673	-0.338058	-0.724183
C132	C	1.392673	0.161942	-0.224183
C133	C	0.934487	-0.293033	-0.960461
C134	C	1.434487	0.206967	-0.460461
C135	C	0.934483	-0.293002	-1.025898
C136	C	1.434483	0.206998	-0.525898
C137	C	0.850879	-0.382863	-1.022416
C138	C	1.350879	0.117137	-0.522416
C139	C	0.850880	-0.382888	-0.956979
C140	C	1.350880	0.117112	-0.456979
C141	C	0.892687	-0.337974	-0.926006
C142	C	1.392687	0.162026	-0.426006
C143	C	0.892579	-0.338110	-0.126508
C144	C	1.392579	0.161890	0.373492
C145	C	0.892685	-0.337919	-0.056874
C146	C	1.392685	0.162081	0.443126
H147	H	0.650988	-0.419840	-0.358656
H148	H	1.150988	0.080160	0.141344
Br149	Br	0.977548	-0.585447	-0.374420
Br150	Br	1.477548	-0.085447	0.125580
H151	H	0.816831	-0.419587	-0.643996
H152	H	1.316831	0.080413	-0.143996
Br153	Br	0.991229	-0.232024	-1.072658
Br154	Br	1.491229	0.267976	-0.572658
H155	H	0.816843	-0.419484	-0.928926
H156	H	1.316843	0.080516	-0.428926
Br157	Br	0.818038	-0.870282	-0.214598
Br158	Br	1.318038	-0.370282	0.285402
Br159	Br	0.794146	-0.443815	-1.064453
Br160	Br	1.294146	0.056185	-0.564453
Br161	Br	0.788710	-0.585776	-0.185281
Br162	Br	1.288710	-0.085776	0.314719
Br163	Br	0.910081	-0.188819	-0.872421
Br164	Br	1.410081	0.311181	-0.372421
H165	H	0.816817	-0.419631	-0.525281
H166	H	1.316817	0.080369	-0.025281
Br167	Br	0.991206	-0.232234	-0.514780
Br168	Br	1.491206	0.267766	-0.014780
Br169	Br	0.264194	-0.444178	-0.379582
Br170	Br	0.764194	0.055822	0.120418
Br171	Br	0.971012	-0.758346	-0.367869
Br172	Br	1.471012	-0.258346	0.132131
Br173	Br	1.003097	-0.916896	-0.399945
Br174	Br	1.503097	-0.416896	0.100055
Br175	Br	0.996582	-1.089802	-0.393377
Br176	Br	1.496582	-0.589802	0.106623
H177	H	0.968511	-0.256566	-0.650307
H178	H	1.468511	0.243434	-0.150307
H179	H	0.253538	-0.256505	-0.219894
H180	H	0.753538	0.243495	0.280106
H181	H	0.906070	-0.223231	-0.734638
H182	H	1.406070	0.276769	-0.234638
H183	H	0.804690	-0.738737	-0.201252
H184	H	1.304690	-0.238737	0.298748
H185	H	0.333272	-0.348365	-0.391333
H186	H	0.833272	0.151635	0.108667
Br187	Br	0.991222	-0.232078	-0.918421
Br188	Br	1.491222	0.267922	-0.418421
Br189	Br	0.470396	-0.324903	-0.156727
Br190	Br	0.970396	0.175097	0.343273
H191	H	0.830244	-1.070186	-0.226768
H192	H	1.330244	-0.570186	0.273232
H193	H	0.879297	-0.452825	-0.844589
H194	H	1.379297	0.047175	-0.344589
Br195	Br	0.875303	-0.487237	-0.706808
Br196	Br	1.375303	0.012763	-0.206808
H197	H	0.451983	-0.348396	-0.391290
H198	H	0.951983	0.151604	0.108710
Br199	Br	0.109961	-0.444130	-0.379649
Br200	Br	0.609961	0.055870	0.120351
Br201	Br	0.513591	-0.444227	-0.379491
Br202	Br	1.013591	0.055773	0.120509
Br203	Br	0.117996	-0.232045	-0.199164
Br204	Br	0.617996	0.267955	0.300836
H205	H	0.538462	-0.256569	-0.219794
H206	H	1.038462	0.243431	0.280206
Br207	Br	0.316165	-0.324864	-0.156785
Br208	Br	0.816165	0.175136	0.343215
H209	H	0.835258	-0.937110	-0.231826
H210	H	1.335258	-0.437110	0.268174
Br211	Br	0.675865	-0.232164	-0.198964
Br212	Br	1.175865	0.267836	0.301036
H213	H	0.944745	-0.825259	-0.341530
H214	H	1.444745	-0.325259	0.158470
