data_functionalizedCrystal
_audit_creation_method	'MofGen! by Chris Wilmer'
_symmetry_space_group_name_H-M	'P1'
_symmetry_Int_Tables_number	1
_symmetry_cell_setting	triclinic
loop_
_symmetry_equiv_pos_as_xyz
  x,y,z
_cell_length_a	16.974800
_cell_length_b	13.262508
_cell_length_c	16.053802
_cell_angle_alpha	108.475487
_cell_angle_beta	91.074188
_cell_angle_gamma	82.923469
loop_
_atom_site_label
_atom_site_type_symbol
_atom_site_fract_x
_atom_site_fract_y
_atom_site_fract_z
O1	O	1.048044	0.135751	0.032240
O2	O	0.818459	0.152053	0.020422
O3	O	0.940703	-0.011106	-0.008361
O4	O	0.925800	0.298909	0.061023
O5	O	0.933975	-0.002162	0.132073
O6	O	0.811730	0.160996	0.160857
O7	O	1.041316	0.144694	0.172675
Zn8	Zn	0.925455	0.154265	0.189063
Zn9	Zn	0.934320	0.142482	0.004034
O10	O	0.919072	0.307852	0.201458
C11	C	0.785737	0.155741	0.088477
C12	C	0.698263	0.153392	0.082030
C13	C	0.653504	0.157162	0.155554
C14	C	0.571314	0.154938	0.149496
C15	C	0.533883	0.148953	0.069914
C16	C	0.578648	0.145180	-0.003616
C17	C	0.660838	0.147396	0.002442
C18	C	0.288467	0.141797	0.043587
C19	C	0.206271	0.139584	0.037535
C20	C	0.198943	0.149341	0.190647
C21	C	0.281133	0.151562	0.196699
C22	C	0.325892	0.147784	0.123168
N23	N	0.449871	0.146684	0.063720
N24	N	0.409903	0.150045	0.129361
C25	C	0.937122	-0.046311	0.052830
C26	C	0.936467	-0.164536	0.025936
C27	C	0.919945	-0.478306	0.256340
C28	C	0.920555	-0.367226	0.281609
C29	C	0.924533	-0.316548	0.217693
C30	C	0.927901	-0.376961	0.128504
C31	C	0.927286	-0.488050	0.103232
C32	C	0.931874	-0.326293	0.064585
C33	C	0.935242	-0.386706	-0.024604
C34	C	0.934627	-0.497784	-0.049871
C35	C	0.930649	-0.548462	0.014045
C36	C	0.932489	-0.215203	0.089857
C37	C	0.939830	-0.224948	-0.063251
C38	C	0.939221	-0.336028	-0.088520
C39	C	1.074037	0.141006	0.104618
C40	C	1.161512	0.143354	0.111059
C41	C	0.922652	0.343058	0.140264
C42	C	0.923308	0.461283	0.167153
N43	N	0.919411	0.162306	0.315340
N44	N	0.940370	0.134432	-0.122245
C45	C	0.971444	0.092907	0.346794
C46	C	0.967224	0.098542	0.435195
C47	C	0.910972	0.173583	0.492142
C48	C	0.858933	0.242985	0.460683
C49	C	0.863150	0.237344	0.372282
C50	C	0.892549	0.198193	0.757895
C51	C	0.888337	0.203831	0.846301
C52	C	0.996627	0.059386	0.820807
C53	C	1.000843	0.053756	0.732406
C54	C	0.948801	0.123155	0.700954
N55	N	0.906658	0.179347	0.582503
N56	N	0.953112	0.117385	0.610593
H57	H	0.324900	0.138716	-0.016289
F58	F	0.320963	0.157938	0.281402
H59	H	0.842528	0.264942	0.892666
H60	H	1.038996	0.002884	0.846424
F61	F	0.708473	0.143380	-0.075813
H62	H	0.850176	0.254702	0.732294
H63	H	0.813128	0.304081	0.507054
F64	F	0.151302	0.153359	0.268898
H65	H	0.683973	0.162044	0.220360
F66	F	0.915699	-0.532245	0.324353
F67	F	1.022603	0.024679	0.468669
H68	H	0.548166	0.140300	-0.068415
F69	F	1.031319	0.013043	0.286195
H70	H	0.930156	-0.638913	-0.006525
H71	H	0.175798	0.134714	-0.027272
H72	H	0.820778	0.293855	0.346674
F73	F	0.925179	-0.198326	0.244589
F74	F	0.523680	0.158965	0.227753
F75	F	0.928905	-0.150920	0.184775
H76	H	0.917820	-0.318047	0.354227
H77	H	0.937363	-0.546968	-0.122495
F78	F	0.944051	-0.171017	-0.131281
F79	F	0.942807	-0.400336	-0.183440
H80	H	1.046647	-0.007347	0.686040
