data_functionalizedCrystal
_audit_creation_method	'MofGen! by Chris Wilmer'
_symmetry_space_group_name_H-M	'P1'
_symmetry_Int_Tables_number	1
_symmetry_cell_setting	triclinic
loop_
_symmetry_equiv_pos_as_xyz
  x,y,z
_cell_length_a	10.654550
_cell_length_b	10.654551
_cell_length_c	9.730223
_cell_angle_alpha	89.997362
_cell_angle_beta	89.999957
_cell_angle_gamma	84.485180
loop_
_atom_site_label
_atom_site_type_symbol
_atom_site_fract_x
_atom_site_fract_y
_atom_site_fract_z
O1	O	1.667840	0.176399	-0.114181
O2	O	1.302361	0.193205	-0.114206
O3	O	1.493503	0.002062	-0.114190
O4	O	1.476698	0.367541	-0.114197
O5	O	1.493490	0.002057	0.114390
O6	O	1.302349	0.193199	0.114374
O7	O	1.667827	0.176393	0.114398
Zn8	Zn	1.485086	0.184795	0.150678
Zn9	Zn	1.485103	0.184802	-0.150486
O10	O	1.476686	0.367535	0.114383
C11	C	1.255557	0.191968	0.000081
C12	C	1.116114	0.188276	0.000071
C13	C	1.492262	-0.044738	0.000097
C14	C	1.488570	-0.184181	0.000091
C15	C	1.036629	0.300818	0.000073
C16	C	0.905608	0.297341	0.000097
C17	C	0.933570	0.068772	0.000112
C18	C	1.064589	0.072249	0.000097
C19	C	1.486844	-0.249682	-0.124510
C20	C	1.483364	-0.380703	-0.124511
C21	C	1.483342	-0.380710	0.124699
C22	C	1.486813	-0.249691	0.124699
C23	C	1.714632	0.177630	0.000109
C24	C	1.854075	0.181322	0.000109
C25	C	1.477926	0.414336	0.000092
C26	C	1.481619	0.553779	0.000089
N27	N	1.485084	0.184790	0.356214
N28	N	1.485114	0.184798	-0.356022
C29	C	1.569751	0.100188	0.428147
C30	C	1.569763	0.100189	0.572030
C31	C	1.400439	0.269404	0.572035
C32	C	1.400421	0.269396	0.428154
H33	H	1.078576	0.395294	0.000062
Cl34	Cl	1.676180	-0.006179	0.337715
Cl35	Cl	1.488968	-0.167339	0.281353
Cl36	Cl	1.489045	-0.167331	-0.281160
Cl37	Cl	1.481133	-0.463074	0.281341
Cl38	Cl	1.294015	0.375766	0.662480
H39	H	0.840896	0.388984	0.000101
Cl40	Cl	0.868785	-0.077082	0.000136
H41	H	1.129309	-0.019401	0.000100
H42	H	1.331469	0.338290	0.369583
Cl43	Cl	1.481191	-0.463041	-0.281159
Cl44	Cl	1.676203	-0.006175	0.662457
