data_functionalizedCrystal
_audit_creation_method	'MofGen! by Chris Wilmer'
_symmetry_space_group_name_H-M	'P1'
_symmetry_Int_Tables_number	1
_symmetry_cell_setting	triclinic
loop_
_symmetry_equiv_pos_as_xyz
  x,y,z
_cell_length_a	19.121241
_cell_length_b	19.120786
_cell_length_c	19.120904
_cell_angle_alpha	89.866497
_cell_angle_beta	89.875472
_cell_angle_gamma	94.790376
loop_
_atom_site_label
_atom_site_type_symbol
_atom_site_fract_x
_atom_site_fract_y
_atom_site_fract_z
Zn1	Zn	1.044531	-0.253560	-0.430924
Zn2	Zn	1.377865	0.079773	-0.097590
Zn3	Zn	1.711198	0.413106	0.235743
Zn4	Zn	1.044875	-0.365791	-0.308698
Zn5	Zn	1.378209	-0.032457	0.024635
Zn6	Zn	1.711542	0.300876	0.357968
Zn7	Zn	0.932315	-0.253144	-0.308712
Zn8	Zn	1.265648	0.080190	0.024622
Zn9	Zn	1.598981	0.413523	0.357955
Zn10	Zn	0.922279	-0.375740	-0.420443
Zn11	Zn	1.255612	-0.042406	-0.087109
Zn12	Zn	1.588945	0.290927	0.246224
O13	O	0.986000	-0.312059	-0.367194
O14	O	1.319333	0.021275	-0.033861
O15	O	1.652667	0.354608	0.299473
O16	O	1.142847	-0.264459	-0.419091
O17	O	1.476180	0.068875	-0.085757
O18	O	1.809514	0.402208	0.247576
O19	O	1.034288	-0.346510	-0.210788
O20	O	1.367622	-0.013176	0.122545
O21	O	1.700955	0.320157	0.455878
O22	O	0.951257	-0.154923	-0.329315
O23	O	1.284590	0.178410	0.004018
O24	O	1.617923	0.511743	0.337351
O25	O	1.143100	-0.346914	-0.329292
O26	O	1.476433	-0.013580	0.004041
O27	O	1.809767	0.319753	0.337374
O28	O	1.033702	-0.155230	-0.419104
O29	O	1.367035	0.178104	-0.085771
O30	O	1.700368	0.511437	0.247563
O31	O	0.951590	-0.263748	-0.210798
O32	O	1.284924	0.069585	0.122535
O33	O	1.618257	0.402918	0.455868
O34	O	0.832713	-0.273396	-0.319152
O35	O	1.166047	0.059938	0.014181
O36	O	1.499380	0.393271	0.347514
O37	O	0.934152	-0.363870	-0.519745
O38	O	1.267485	-0.030537	-0.186411
O39	O	1.600818	0.302796	0.146922
O40	O	0.825340	-0.363466	-0.401241
O41	O	1.158673	-0.030133	-0.067907
O42	O	1.492006	0.303200	0.265426
O43	O	1.023970	-0.274106	-0.527445
O44	O	1.357303	0.059227	-0.194111
O45	O	1.690637	0.392561	0.139222
O46	O	1.024557	-0.465386	-0.319129
O47	O	1.357890	-0.132053	0.014204
O48	O	1.691223	0.201281	0.347537
O49	O	0.934485	-0.472695	-0.401228
O50	O	1.267819	-0.139362	-0.067894
O51	O	1.601152	0.193971	0.265439
C52	C	0.803546	-0.319466	-0.359061
C53	C	1.136879	0.013867	-0.025728
C54	C	1.470213	0.347201	0.307606
C55	C	0.725490	-0.322652	-0.355598
C56	C	1.058823	0.010681	-0.022264
C57	C	1.392157	0.344014	0.311069
C58	C	0.688682	-0.281294	-0.400789
C59	C	1.022016	0.052039	-0.067456
C60	C	1.355349	0.385373	0.265878
C61	C	0.615341	-0.284284	-0.397529
C62	C	0.948674	0.049049	-0.064195
C63	C	1.282007	0.382382	0.269138
C64	C	0.578808	-0.328637	-0.349080
C65	C	0.912142	0.004696	-0.015747
C66	C	1.245475	0.338029	0.317586
C67	C	0.615621	-0.369997	-0.303884
C68	C	0.948955	-0.036664	0.029449
C69	C	1.282288	0.296669	0.362783
C70	C	0.688962	-0.367003	-0.307141
C71	C	1.022295	-0.033670	0.026192
C72	C	1.355628	0.299664	0.359525
C73	C	0.357374	-0.339820	-0.336900
C74	C	0.690708	-0.006486	-0.003567
C75	C	1.024041	0.326847	0.329767
C76	C	0.284029	-0.342813	-0.333647
C77	C	0.617362	-0.009479	-0.000314
C78	C	0.950695	0.323854	0.333019
C79	C	0.283753	-0.257098	-0.427291
C80	C	0.617087	0.076235	-0.093958
C81	C	0.950420	0.409568	0.239375
C82	C	0.357095	-0.254111	-0.430547
C83	C	0.690428	0.079223	-0.097214
C84	C	1.023762	0.412556	0.236119
C85	C	0.393902	-0.295468	-0.385349
C86	C	0.727235	0.037865	-0.052016
C87	C	1.060569	0.371199	0.281318
C88	C	0.503841	-0.331697	-0.345748
C89	C	0.837175	0.001637	-0.012415
C90	C	1.170508	0.334970	0.320919
C91	C	0.468868	-0.292404	-0.388678
C92	C	0.802201	0.040929	-0.055345
C93	C	1.135535	0.374262	0.277989
C94	C	0.978488	-0.494522	-0.359056
C95	C	1.311821	-0.161189	-0.025722
C96	C	1.645154	0.172144	0.307611
C97	C	0.975337	-0.572579	-0.355600
C98	C	1.308670	-0.239246	-0.022267
C99	C	1.642004	0.094087	0.311066
C100	C	1.016747	-0.609353	-0.400760
C101	C	1.350080	-0.276020	-0.067427
C102	C	1.683413	0.057314	0.265907
C103	C	1.013783	-0.682696	-0.397514
C104	C	1.347117	-0.349363	-0.064181
C105	C	1.680450	-0.016029	0.269152
C106	C	0.969414	-0.719264	-0.349105
C107	C	1.302747	-0.385931	-0.015772
C108	C	1.636081	-0.052598	0.317561
C109	C	0.928000	-0.682486	-0.303944
C110	C	1.261333	-0.349152	0.029390
C111	C	1.594667	-0.015819	0.362723
C112	C	0.930960	-0.609144	-0.307193
C113	C	1.264293	-0.275811	0.026140
C114	C	1.597627	0.057522	0.359473
C115	C	0.958328	-0.940703	-0.336957
C116	C	1.291661	-0.607370	-0.003623
C117	C	1.624994	-0.274037	0.329710
C118	C	0.955372	-1.014050	-0.333709
C119	C	1.288706	-0.680717	-0.000376
C120	C	1.622039	-0.347383	0.332957
C121	C	1.041155	-1.014255	-0.427281
C122	C	1.374489	-0.680922	-0.093948
C123	C	1.707822	-0.347589	0.239386
C124	C	1.044114	-0.940912	-0.430523
C125	C	1.377448	-0.607579	-0.097190
C126	C	1.710781	-0.274245	0.236143
C127	C	1.002698	-0.904140	-0.385364
C128	C	1.336031	-0.570807	-0.052031
C129	C	1.669364	-0.237474	0.281302
C130	C	0.966386	-0.794233	-0.345785
C131	C	1.299719	-0.460899	-0.012452
C132	C	1.633052	-0.127566	0.320881
C133	C	1.005723	-0.829174	-0.388688
C134	C	1.339056	-0.495840	-0.055355
C135	C	1.672389	-0.162507	0.277978
C136	C	1.169166	-0.304623	-0.375359
C137	C	1.502500	0.028710	-0.042026
C138	C	1.835833	0.362044	0.291308
C139	C	1.247221	-0.301454	-0.378839
C140	C	1.580554	0.031879	-0.045505
C141	C	1.913888	0.365212	0.287828
C142	C	0.977903	-0.320145	-0.549692
C143	C	1.311236	0.013189	-0.216359
C144	C	1.644570	0.346522	0.116975
C145	C	0.974452	-0.323590	-0.627462
C146	C	1.307786	0.009743	-0.294128
C147	C	1.641119	0.343076	0.039205
C148	C	0.993560	-0.128882	-0.375380
C149	C	1.326893	0.204451	-0.042047
C150	C	1.660227	0.537784	0.291286
C151	C	0.996782	-0.050823	-0.378869
C152	C	1.330115	0.282510	-0.045535
C153	C	1.663448	0.615843	0.287798
C154	C	1.019593	-0.278476	-0.668008
C155	C	1.352926	0.054858	-0.334675
C156	C	1.686259	0.388191	-0.001341
C157	C	1.016342	-0.281711	-0.741081
C158	C	1.349675	0.051622	-0.407747
C159	C	1.683009	0.384956	-0.074414
C160	C	0.967954	-0.330065	-0.773605
C161	C	1.301287	0.003269	-0.440272
C162	C	1.634621	0.336602	-0.106939
C163	C	0.922809	-0.375181	-0.733054
C164	C	1.256142	-0.041848	-0.399720
C165	C	1.589476	0.291485	-0.066387
C166	C	0.926057	-0.371942	-0.659982
C167	C	1.259390	-0.038609	-0.326649
C168	C	1.592723	0.294725	0.006684
C169	C	0.955806	-0.342180	-0.994033
C170	C	1.289139	-0.008847	-0.660699
C171	C	1.622472	0.324487	-0.327366
C172	C	0.952563	-0.345417	-1.067109
C173	C	1.285896	-0.012084	-0.733776
C174	C	1.619229	0.321249	-0.400443
C175	C	1.046095	-0.251946	-1.075131
C176	C	1.379428	0.081388	-0.741798
C177	C	1.712762	0.414721	-0.408465
C178	C	1.049341	-0.248714	-1.002058
C179	C	1.382675	0.084620	-0.668725
C180	C	1.716008	0.417953	-0.335392
C181	C	1.004194	-0.293828	-0.961513
C182	C	1.337527	0.039506	-0.628180
C183	C	1.670861	0.372839	-0.294846
C184	C	0.964632	-0.333374	-0.848297
C185	C	1.297965	-0.000041	-0.514964
C186	C	1.631298	0.333292	-0.181631
C187	C	1.007513	-0.290514	-0.886822
C188	C	1.340847	0.042819	-0.553489
C189	C	1.674180	0.376153	-0.220156
C190	C	0.994108	-0.303952	-0.185410
C191	C	1.327442	0.029382	0.147923
C192	C	1.660775	0.362715	0.481256
C193	C	0.997703	-0.300303	-0.107656
C194	C	1.331036	0.033031	0.225677
C195	C	1.664370	0.366364	0.559011
H196	H	0.718930	-0.400681	-0.270341
H197	H	1.052263	-0.067348	0.062992
H198	H	1.385597	0.265986	0.396325
F199	F	0.913137	-0.384837	-0.882919
F200	F	1.246471	-0.051504	-0.549586
F201	F	1.579804	0.281829	-0.216252
H202	H	1.047509	-0.712633	-0.434283
H203	H	1.380842	-0.379300	-0.100950
H204	H	1.714176	-0.045967	0.232384
F205	F	1.064410	-0.233717	-0.784230
F206	F	1.397743	0.099617	-0.450897
F207	F	1.731076	0.432950	-0.117564
F208	F	0.245148	-0.390035	-0.282092
F209	F	0.578482	-0.056702	0.051242
F210	F	0.911815	0.276631	0.384575
F211	F	1.100843	-0.197249	-0.967449
F212	F	1.434176	0.136084	-0.634115
F213	F	1.767509	0.469418	-0.300782
F214	F	0.244576	-0.213085	-0.475391
F215	F	0.577909	0.120248	-0.142057
F216	F	0.911242	0.453582	0.191276
H217	H	1.074874	-1.044203	-0.464048
H218	H	1.408207	-0.710870	-0.130714
H219	H	1.741540	-0.377536	0.202619
H220	H	0.718422	-0.245179	-0.440243
H221	H	1.051755	0.088155	-0.106909
H222	H	1.385088	0.421488	0.226424
F223	F	0.871308	-0.426641	-0.767671
F224	F	1.204641	-0.093307	-0.434337
F225	F	1.537975	0.240026	-0.101004
F226	F	0.576170	-0.240266	-0.445629
F227	F	0.909504	0.093067	-0.112296
F228	F	1.242837	0.426401	0.221038
F229	F	1.094139	-0.203934	-1.118288
F230	F	1.427472	0.129399	-0.784954
F231	F	1.760806	0.462733	-0.451621
F232	F	0.901057	-0.396882	-1.101723
F233	F	1.234390	-0.063548	-0.768390
F234	F	1.567723	0.269785	-0.435056
H235	H	0.919238	-1.043822	-0.294288
H236	H	1.252571	-0.710488	0.039045
H237	H	1.585905	-0.377155	0.372379
H238	H	0.386835	-0.217996	-0.470002
H239	H	0.720168	0.115337	-0.136668
H240	H	1.053501	0.448670	0.196665
H241	H	0.919053	-0.378925	-0.961029
H242	H	1.252386	-0.045592	-0.627696
H243	H	1.585720	0.287742	-0.294363
F244	F	0.919162	-0.833158	-0.294269
F245	F	1.252496	-0.499824	0.039064
F246	F	1.585829	-0.166491	0.372398
H247	H	0.897239	-0.579204	-0.270420
H248	H	1.230572	-0.245871	0.062913
H249	H	1.563906	0.087463	0.396246
H250	H	0.889292	-0.408673	-0.626970
H251	H	1.222625	-0.075339	-0.293637
H252	H	1.555959	0.257994	0.039697
F253	F	1.059003	-0.239048	-0.852206
F254	F	1.392337	0.094285	-0.518872
F255	F	1.725670	0.427619	-0.185539
H256	H	1.058997	-0.239103	-0.641532
H257	H	1.392331	0.094231	-0.308199
H258	H	1.725664	0.427564	0.025135
H259	H	0.924606	-0.910769	-0.300185
H260	H	1.257939	-0.577436	0.033148
H261	H	1.591273	-0.244103	0.366482
F262	F	0.576739	-0.417198	-0.252318
F263	F	0.910072	-0.083864	0.081016
F264	F	1.243406	0.249469	0.414349
F265	F	0.396539	-0.383824	-0.288784
F266	F	0.729872	-0.050490	0.044550
F267	F	1.063206	0.282843	0.377883
H268	H	0.474088	-0.367809	-0.306301
H269	H	0.807422	-0.034476	0.027032
H270	H	1.140755	0.298857	0.360366
F271	F	0.507750	-0.245200	-0.440237
F272	F	0.841083	0.088134	-0.106903
F273	F	1.174417	0.421467	0.226430
H274	H	1.052880	-0.579584	-0.440177
H275	H	1.386213	-0.246250	-0.106844
H276	H	1.719547	0.087083	0.226490
H277	H	1.080243	-0.911140	-0.469942
H278	H	1.413577	-0.577807	-0.136609
H279	H	1.746910	-0.244473	0.196725
H280	H	0.891870	-0.712266	-0.264531
H281	H	1.225204	-0.378932	0.068802
H282	H	1.558537	-0.045599	0.402136
H283	H	1.041846	-0.799398	-0.428106
H284	H	1.375179	-0.466065	-0.094772
H285	H	1.708512	-0.132731	0.238561
