data_functionalizedCrystal
_audit_creation_method	'MofGen! by Chris Wilmer'
_symmetry_space_group_name_H-M	'P1'
_symmetry_Int_Tables_number	1
_symmetry_cell_setting	triclinic
loop_
_symmetry_equiv_pos_as_xyz
  x,y,z
_cell_length_a	12.996460
_cell_length_b	14.519709
_cell_length_c	14.519709
_cell_angle_alpha	83.680145
_cell_angle_beta	89.998766
_cell_angle_gamma	89.999398
loop_
_atom_site_label
_atom_site_type_symbol
_atom_site_fract_x
_atom_site_fract_y
_atom_site_fract_z
O1	O	0.085435	-1.223870	-0.120885
O2	O	0.585435	-0.723870	0.379115
O3	O	0.085467	-0.955394	-0.135121
O4	O	0.585467	-0.455394	0.364879
O5	O	0.085441	-1.096750	0.006235
O6	O	0.585441	-0.596750	0.506235
O7	O	0.085461	-1.082514	-0.262242
O8	O	0.585461	-0.582514	0.237758
O9	O	-0.085693	-1.096732	0.006227
O10	O	0.414307	-0.596732	0.506227
O11	O	-0.085667	-0.955375	-0.135130
O12	O	0.414333	-0.455375	0.364870
O13	O	-0.085699	-1.223852	-0.120893
O14	O	0.414301	-0.723852	0.379107
Cu15	Cu	-0.101309	-1.089612	-0.128012
Cu16	Cu	0.398691	-0.589612	0.371988
Cu17	Cu	0.101077	-1.089634	-0.128002
Cu18	Cu	0.601077	-0.589634	0.371998
O19	O	-0.085673	-1.082496	-0.262250
O20	O	0.414327	-0.582496	0.237750
C21	C	-0.000096	-0.921025	-0.134462
C22	C	0.499904	-0.421025	0.365538
C23	C	-0.000084	-0.818643	-0.132474
C24	C	0.499916	-0.318643	0.367526
N25	N	-0.243656	-1.089604	-0.128018
N26	N	0.256344	-0.589604	0.371982
C27	C	-0.336762	-1.089608	-0.128021
C28	C	0.163238	-0.589608	0.371979
C29	C	-0.453567	-1.089616	-0.128015
C30	C	0.046433	-0.589616	0.371985
C31	C	-0.546665	-1.089628	-0.128004
C32	C	-0.046665	-0.589628	0.371996
C33	C	-0.663478	-1.089638	-0.127999
C34	C	-0.163478	-0.589638	0.372001
C35	C	-0.000126	-1.096078	0.040591
C36	C	0.499874	-0.596078	0.540591
C37	C	-0.000126	-1.094090	0.142972
C38	C	0.499874	-0.594090	0.642972
N39	N	0.243424	-1.089649	-0.127989
N40	N	0.743424	-0.589649	0.372011
C41	C	-0.000134	-1.258221	-0.121553
C42	C	0.499866	-0.758221	0.378447
C43	C	-0.000139	-1.360602	-0.123541
C44	C	0.499861	-0.860602	0.376459
C45	C	-0.000132	-0.443748	-0.125154
C46	C	0.499868	0.056252	0.374846
C47	C	-0.000118	-0.548056	-0.127187
C48	C	0.499882	-0.048056	0.372813
C49	C	-0.000107	-0.631192	-0.128814
C50	C	0.499893	-0.131192	0.371186
C51	C	-0.000095	-0.735507	-0.130847
C52	C	0.499905	-0.235507	0.369153
C53	C	-0.000103	-1.083168	-0.296606
C54	C	0.499897	-0.583168	0.203394
C55	C	-0.000096	-1.085156	-0.398987
C56	C	0.499904	-0.585156	0.101013
C57	C	-0.000099	-1.086770	0.517868
C58	C	0.499901	-0.586770	1.017868
C59	C	-0.000107	-1.088803	0.413560
C60	C	0.499893	-0.588803	0.913560
C61	C	-0.000114	-1.090430	0.330423
C62	C	0.499886	-0.590430	0.830423
C63	C	-0.000120	-1.092463	0.226109
C64	C	0.499880	-0.592463	0.726109
