data_functionalizedCrystal
_audit_creation_method	'MofGen! by Chris Wilmer'
_symmetry_space_group_name_H-M	'P1'
_symmetry_Int_Tables_number	1
_symmetry_cell_setting	triclinic
loop_
_symmetry_equiv_pos_as_xyz
  x,y,z
_cell_length_a	14.809374
_cell_length_b	17.917603
_cell_length_c	17.917559
_cell_angle_alpha	90.240464
_cell_angle_beta	57.817719
_cell_angle_gamma	52.526020
loop_
_atom_site_label
_atom_site_type_symbol
_atom_site_fract_x
_atom_site_fract_y
_atom_site_fract_z
Zr1	Zr	1.079336	0.618696	-0.199918
O2	O	1.305695	0.470098	-0.348510
O3	O	0.852974	0.684481	-0.134136
O4	O	1.058686	0.665076	-0.309559
O5	O	1.116274	0.481794	-0.057725
O6	O	1.042400	0.795865	-0.301846
O7	O	1.099984	0.489502	-0.173088
O8	O	0.674419	0.830575	0.011952
O9	O	1.484254	0.447084	-0.371523
O10	O	0.933927	0.785699	-0.124768
O11	O	0.958239	0.682341	-0.044429
O12	O	1.200438	0.659495	-0.250967
O13	O	1.224749	0.556137	-0.170628
Zr14	Zr	1.079343	0.814995	-0.003628
Zr15	Zr	1.053362	0.827288	-0.187618
Zr16	Zr	1.105317	0.606402	-0.015928
Zr17	Zr	1.364118	0.581991	-0.236622
Zr18	Zr	0.794562	0.851700	0.033075
O19	O	1.305705	0.749210	-0.069410
O20	O	1.268763	0.766689	-0.331021
O21	O	1.342637	0.452618	-0.086899
O22	O	0.852984	0.963592	0.144963
O23	O	0.816042	0.981072	-0.116647
O24	O	0.889916	0.667001	0.127474
O25	O	1.042406	0.951896	-0.145822
O26	O	1.099993	0.768614	0.106012
O27	O	1.116279	0.637826	0.098300
O28	O	1.058696	0.944188	-0.030459
O29	O	1.463608	0.612887	-0.361746
O30	O	0.695071	0.820804	0.158200
O31	O	0.674425	0.986607	0.167977
O32	O	0.653773	0.996378	0.021729
O33	O	1.504906	0.437312	-0.225275
O34	O	1.484260	0.603115	-0.215498
O35	O	0.958242	0.774195	0.047420
O36	O	0.933931	0.877553	-0.032918
O37	O	1.200441	0.751349	-0.159117
O38	O	1.224752	0.647991	-0.078778
C39	C	0.723122	0.762757	-0.055863
C40	C	0.602225	0.778340	-0.040281
C41	C	0.641808	0.708798	-0.109820
C42	C	0.516857	0.724901	-0.093717
C43	C	1.111829	0.455928	-0.117159
C44	C	1.122856	0.367375	-0.122380
C45	C	1.142998	0.205266	-0.131917
C46	C	1.015688	0.228416	-0.071633
C47	C	1.026895	0.138213	-0.076939
C48	C	1.131794	0.295475	-0.126612
C49	C	1.435558	0.670933	-0.147684
C50	C	1.556455	0.655350	-0.163265
C51	C	1.046841	0.732222	-0.331917
C52	C	1.035812	0.737441	-0.410026
C53	C	1.046850	0.977762	-0.086388
C54	C	1.035823	1.066315	-0.081166
C55	C	1.142999	0.686701	-0.650482
C56	C	1.015686	0.746986	-0.553063
C57	C	1.026888	0.741673	-0.473471
C58	C	1.131801	0.692012	-0.730083
C59	C	1.111838	0.701468	0.128371
C60	C	1.122867	0.696249	0.206480
C61	C	0.690632	1.023674	-0.040477
C62	C	0.558708	1.127810	-0.019674
C63	C	0.755620	0.747381	0.174281
C64	C	0.645752	0.757744	0.267972
C65	C	0.723130	1.008298	0.189667
C66	C	0.602236	1.107214	0.288579
C67	C	1.435549	0.425393	-0.393213
C68	C	1.556443	0.326476	-0.492125
C69	C	1.468047	0.410016	-0.163069
C70	C	1.599971	0.305881	-0.183872
C71	C	1.403059	0.686310	-0.377828
C72	C	1.512927	0.675946	-0.471518
C73	C	0.496753	1.128766	-0.057857
C74	C	0.372810	1.226604	-0.038330
C75	C	0.310819	1.323483	0.019386
C76	C	0.372786	1.322523	0.057569
C77	C	0.496733	1.224686	0.038036
C78	C	0.594160	0.810557	0.359922
C79	C	0.490945	0.820288	0.447959
C80	C	0.439316	0.777213	0.444044
C81	C	0.490919	0.724393	0.352084
C82	C	0.594140	0.714655	0.264048
C83	C	0.532771	1.207627	0.293093
C84	C	0.419192	1.300575	0.386023
C85	C	0.375072	1.293110	0.474438
C86	C	0.444549	1.192686	0.469919
C87	C	0.558133	1.099739	0.376990
C88	C	1.625922	0.226062	-0.496642
C89	C	1.739536	0.133108	-0.589576
C90	C	1.783662	0.140573	-0.677991
C91	C	1.714178	0.240998	-0.673472
C92	C	1.600574	0.333948	-0.580540
C93	C	1.661938	0.304923	-0.145699
C94	C	1.785908	0.207083	-0.165250
C95	C	1.847903	0.110203	-0.222969
C96	C	1.785931	0.111164	-0.261148
C97	C	1.661970	0.209002	-0.241602
C98	C	1.564523	0.719034	-0.467571
C99	C	1.667739	0.709317	-0.555593
C100	C	1.719365	0.656505	-0.647562
C101	C	1.667758	0.613416	-0.651506
C102	C	1.564536	0.623141	-0.563484
H103	H	0.768202	0.637343	-0.181278
H104	H	0.614679	1.017983	0.373328
C105	C	0.431473	0.874880	0.056255
N106	N	0.302861	0.947596	0.128970
C107	C	1.832916	0.645815	-0.744381
N108	N	1.918446	0.637764	-0.817303
H109	H	1.709809	0.570416	-0.726399
C110	C	0.581289	1.215864	0.195847
N111	N	0.617832	1.222076	0.122603
C112	C	0.304567	1.429103	0.121065
N113	N	0.253173	1.509384	0.168897
H114	H	1.522539	0.588047	-0.566712
H115	H	0.209892	1.403141	0.035285
C116	C	1.762721	0.249193	-0.770739
N117	N	1.799276	0.255363	-0.844002
C118	C	0.346102	0.821447	0.002824
N119	N	0.217490	0.894163	0.075539
C120	C	0.857069	0.346710	0.003470
N121	N	0.737602	0.435810	0.060031
H122	H	1.948840	0.030544	-0.238877
C123	C	0.727209	0.558802	-0.259806
N124	N	0.855820	0.486081	-0.332518
H125	H	1.260399	0.117710	-0.187509
H126	H	0.636132	0.671654	0.189183
H127	H	0.636186	0.845636	0.363127
C128	C	0.857072	0.822093	-0.521141
N129	N	0.737609	0.878657	-0.497103
C130	C	1.593804	0.210039	-0.283589
N131	N	1.542466	0.210813	-0.315215
H132	H	1.544004	0.415708	-0.576873
H133	H	1.260399	0.631104	-0.674108
C134	C	1.507744	0.777141	-0.366412
N135	N	1.464976	0.820916	-0.290221
H136	H	1.876168	0.064879	-0.753656
C137	C	1.854043	0.206051	-0.123235
N138	N	1.905356	0.205278	-0.091586
C139	C	0.395987	1.184494	0.567189
N140	N	0.359397	1.178328	0.640456
H141	H	0.547222	1.049891	-0.104865
H142	H	0.322372	1.227365	-0.069426
C143	C	0.434185	0.878407	0.549107
N144	N	0.391432	0.922186	0.625290
H145	H	0.547163	1.223922	0.069137
H146	H	0.355267	0.785149	0.515736
C147	C	0.434103	0.677021	0.347796
N148	N	0.391297	0.641347	0.344571
C149	C	0.342773	1.411033	0.390973
N150	N	0.285214	1.494227	0.394698
C151	C	0.250111	1.395367	0.576657
N152	N	0.155984	1.472392	0.653647
H153	H	1.590002	0.219965	-0.424658
C154	C	1.815946	0.022652	-0.594524
N155	N	1.873495	-0.060541	-0.598249
H156	H	1.709747	0.744405	-0.552363
H157	H	1.611472	0.383798	-0.098694
H158	H	1.836426	0.032270	-0.308145
